
 OpenBabel03252509353D

 42 44  0  0  1  0  0  0  0  0999 V2000
   47.3780   34.5020   43.4620 O   0  0  0  0  0  0  0  0  0  0  0  0
   46.8370   33.1240   43.7870 P   0  0  1  0  0  0  0  0  0  0  0  0
   45.1550   33.0730   43.5910 O   0  0  0  0  0  0  0  0  0  0  0  0
   44.9440   33.4730   42.7250 H   0  0  0  0  0  0  0  0  0  0  0  0
   47.5650   32.0270   42.7600 O   0  0  0  0  0  0  0  0  0  0  0  0
   46.6000   31.1540   42.2440 C   0  0  1  0  0  0  0  0  0  0  0  0
   47.1750   30.4020   41.0390 C   0  0  0  0  0  0  0  0  0  0  0  0
   46.1250   29.3360   40.8520 C   0  0  0  0  0  0  0  0  0  0  0  0
   45.5120   29.1030   42.2220 C   0  0  0  0  0  0  0  0  0  0  0  0
   46.2850   30.0080   43.1540 C   0  0  1  0  0  0  0  0  0  0  0  0
   45.6980   31.6530   41.8990 H   0  0  0  0  0  0  0  0  0  0  0  0
   48.1880   30.0450   41.1840 H   0  0  0  0  0  0  0  0  0  0  0  0
   47.1960   31.1150   40.1920 H   0  0  0  0  0  0  0  0  0  0  0  0
   45.3580   29.7310   40.1260 H   0  0  0  0  0  0  0  0  0  0  0  0
   46.5180   28.4070   40.4370 H   0  0  0  0  0  0  0  0  0  0  0  0
   44.4410   29.4200   42.1790 H   0  0  0  0  0  0  0  0  0  0  0  0
   45.5580   28.0440   42.5230 H   0  0  0  0  0  0  0  0  0  0  0  0
   45.5900   30.3340   43.9780 H   0  0  0  0  0  0  0  0  0  0  0  0
   47.5150   29.3290   43.6940 C   0  0  0  0  0  0  0  0  0  0  0  0
   47.2740   28.2340   43.7810 H   0  0  0  0  0  0  0  0  0  0  0  0
   48.3940   29.3780   43.0300 H   0  0  0  0  0  0  0  0  0  0  0  0
   47.9070   29.8380   44.9120 O   0  0  0  0  0  0  0  0  0  0  0  0
   47.2370   30.4640   45.2740 H   0  0  0  0  0  0  0  0  0  0  0  0
   47.1360   32.7350   45.3820 O   0  0  0  0  0  0  0  0  0  0  0  0
   46.0280   33.0000   46.1210 C   0  0  0  0  0  0  0  0  0  0  0  0
   45.1640   33.0290   45.3920 H   0  0  0  0  0  0  0  0  0  0  0  0
   45.9710   33.9460   46.6540 H   0  0  0  0  0  0  0  0  0  0  0  0
   45.2230   31.2090   49.2810 C   0  0  0  0  0  0  0  0  0  0  0  0
   45.5400   32.2580   48.4120 C   0  0  0  0  0  0  0  0  0  0  0  0
   45.6900   31.9170   47.0610 C   0  0  0  0  0  0  0  0  0  0  0  0
   45.5250   30.6220   46.6780 N   0  0  0  0  0  0  0  0  0  0  0  0
   45.2190   29.6330   47.5450 C   0  0  0  0  0  0  0  0  0  0  0  0
   45.0720   29.9270   48.8280 N   0  0  0  0  0  0  0  0  0  0  0  0
   45.0990   31.4350   50.3330 H   0  0  0  0  0  0  0  0  0  0  0  0
   45.6500   33.2450   48.8070 H   0  0  0  0  0  0  0  0  0  0  0  0
   45.0670   28.3080   47.0460 N   0  0  0  0  0  0  0  0  0  0  0  0
   45.3820   27.1680   47.8870 C   0  0  0  0  0  2  0  0  0  0  0  0
   44.5380   25.9700   47.4990 C   0  0  0  0  0  2  0  0  0  0  0  0
   43.1880   26.5260   47.0870 C   0  0  0  0  0  3  0  0  0  0  0  0
   42.4910   25.6830   46.9720 H   0  0  0  0  0  0  0  0  0  0  0  0
   43.2590   27.3740   45.8380 C   0  0  0  0  0  2  0  0  0  0  0  0
   44.5970   28.0720   45.6920 C   0  0  0  0  0  2  0  0  0  0  0  0
  2  1  2  6  0  0  0
  2 24  1  0  0  0  0
  3  2  1  0  0  0  0
  4  3  1  0  0  0  0
  5  2  1  0  0  0  0
  6 11  1  6  0  0  0
  6  5  1  0  0  0  0
  6 10  1  0  0  0  0
  7 12  1  0  0  0  0
  7  6  1  0  0  0  0
  8  7  1  0  0  0  0
  8  9  1  0  0  0  0
  9 17  1  0  0  0  0
  9 10  1  0  0  0  0
 10 19  1  0  0  0  0
 10 18  1  1  0  0  0
 13  7  1  0  0  0  0
 14  8  1  0  0  0  0
 15  8  1  0  0  0  0
 16  9  1  0  0  0  0
 19 20  1  0  0  0  0
 19 22  1  0  0  0  0
 21 19  1  0  0  0  0
 22 23  1  0  0  0  0
 24 25  1  0  0  0  0
 25 27  1  0  0  0  0
 25 30  1  0  0  0  0
 26 25  1  0  0  0  0
 28 34  1  0  0  0  0
 29 35  1  0  0  0  0
 29 28  2  0  0  0  0
 30 29  1  0  0  0  0
 31 30  2  0  0  0  0
 31 32  1  0  0  0  0
 32 33  2  0  0  0  0
 33 28  1  0  0  0  0
 36 32  1  0  0  0  0
 36 37  1  0  0  0  0
 38 37  1  0  0  0  0
 39 38  1  0  0  0  0
 40 39  1  0  0  0  0
 41 39  1  0  0  0  0
 42 41  1  0  0  0  0
 42 36  1  0  0  0  0
M  END
>  <minimizedAffinity>
-3.88968062

>  <minimizedRMSD>
3.02987623

$$$$
