REMARK  Name = 
REMARK  8 active torsions:
REMARK  status: ('A' for Active; 'I' for Inactive)
REMARK    1  A    between atoms: O_1  and  C_2
REMARK    2  A    between atoms: O_1  and  P_10
REMARK    3  A    between atoms: C_6  and  C_7
REMARK    4  A    between atoms: C_7  and  O_8
REMARK    5  A    between atoms: P_10  and  O_11
REMARK    6  A    between atoms: P_10  and  O_12
REMARK    7  A    between atoms: O_12  and  C_13
REMARK    8  A    between atoms: C_13  and  C_16
REMARK                            x       y       z     vdW  Elec       q    Type
REMARK                         _______ _______ _______ _____ _____    ______ ____
ROOT
ATOM      1  O   UNL     1      44.733  35.352  44.999  0.00  0.00    +0.000 OA
ATOM      2  P   UNL     1      45.581  34.241  44.412  0.00  0.00    +0.000 P 
ENDROOT
BRANCH   2   3
ATOM      3  O   UNL     1      44.608  33.039  43.720  0.00  0.00    +0.000 OA
ATOM      4  H   UNL     1      43.946  33.481  43.152  0.00  0.00    +0.000 HD
ENDBRANCH   2   3
BRANCH   2   5
ATOM      5  O   UNL     1      46.576  34.909  43.249  0.00  0.00    +0.000 OA
BRANCH   5   6
ATOM      6  C   UNL     1      46.802  33.976  42.230  0.00  0.00    +0.000 C 
ATOM      7  C   UNL     1      46.073  34.414  40.956  0.00  0.00    +0.000 C 
ATOM      8  C   UNL     1      46.689  33.477  39.948  0.00  0.00    +0.000 C 
ATOM      9  C   UNL     1      48.074  33.144  40.475  0.00  0.00    +0.000 C 
ATOM     10  C   UNL     1      48.216  33.958  41.741  0.00  0.00    +0.000 C 
ATOM     11  H   UNL     1      46.446  32.976  42.466  0.00  0.00    +0.000 HD
ATOM     12  H   UNL     1      46.166  35.471  40.736  0.00  0.00    +0.000 HD
ATOM     13  H   UNL     1      44.996  34.205  41.111  0.00  0.00    +0.000 HD
ATOM     14  H   UNL     1      46.042  32.555  39.894  0.00  0.00    +0.000 HD
ATOM     15  H   UNL     1      46.744  33.896  38.943  0.00  0.00    +0.000 HD
ATOM     16  H   UNL     1      48.098  32.052  40.716  0.00  0.00    +0.000 HD
ATOM     17  H   UNL     1      48.863  33.363  39.738  0.00  0.00    +0.000 HD
ATOM     18  H   UNL     1      48.876  33.385  42.451  0.00  0.00    +0.000 HD
BRANCH  10  19
ATOM     19  C   UNL     1      48.759  35.333  41.458  0.00  0.00    +0.000 C 
ATOM     20  H   UNL     1      49.248  35.291  40.446  0.00  0.00    +0.000 HD
ATOM     21  H   UNL     1      47.992  36.120  41.374  0.00  0.00    +0.000 HD
BRANCH  19  22
ATOM     22  O   UNL     1      49.657  35.753  42.414  0.00  0.00    +0.000 OA
ATOM     23  H   UNL     1      49.884  35.026  43.040  0.00  0.00    +0.000 HD
ENDBRANCH  19  22
ENDBRANCH  10  19
ENDBRANCH   5   6
ENDBRANCH   2   5
BRANCH   2  24
ATOM     24  O   UNL     1      46.477  33.491  45.603  0.00  0.00    +0.000 OA
BRANCH  24  25
ATOM     25  C   UNL     1      46.233  32.156  45.571  0.00  0.00    +0.000 C 
ATOM     26  H   UNL     1      47.215  31.663  45.304  0.00  0.00    +0.000 HD
ATOM     27  H   UNL     1      45.525  31.773  44.840  0.00  0.00    +0.000 HD
BRANCH  25  30
ATOM     28  C   UNL     1      45.637  31.907  49.235  0.00  0.00    +0.000 A 
ATOM     29  C   UNL     1      45.973  32.461  47.995  0.00  0.00    +0.000 A 
ATOM     30  C   UNL     1      45.882  31.603  46.891  0.00  0.00    +0.000 A 
ATOM     31  N   UNL     1      45.483  30.316  47.078  0.00  0.00    +0.000 NA
ATOM     32  C   UNL     1      45.166  29.814  48.290  0.00  0.00    +0.000 A 
ATOM     33  N   UNL     1      45.244  30.602  49.352  0.00  0.00    +0.000 NA
ATOM     34  H   UNL     1      45.696  32.541  50.112  0.00  0.00    +0.000 HD
ATOM     35  H   UNL     1      46.276  33.485  47.948  0.00  0.00    +0.000 HD
ATOM     36  N   UNL     1      44.760  28.452  48.382  0.00  0.00    +0.000 N 
ATOM     37  C   UNL     1      44.075  27.815  47.272  0.00  0.00    +0.000 C 
ATOM     38  C   UNL     1      44.362  26.327  47.252  0.00  0.00    +0.000 C 
ATOM     39  C   UNL     1      45.794  26.171  47.724  0.00  0.00    +0.000 C 
ATOM     40  H   UNL     1      46.099  25.127  47.554  0.00  0.00    +0.000 HD
ATOM     41  C   UNL     1      45.986  26.586  49.165  0.00  0.00    +0.000 C 
ATOM     42  C   UNL     1      45.021  27.678  49.582  0.00  0.00    +0.000 C 
ENDBRANCH  25  30
ENDBRANCH  24  25
ENDBRANCH   2  24
TORSDOF 8
