
 OpenBabel03252503003D

 20 21  0  0  0  0  0  0  0  0999 V2000
   38.6260   29.7610   40.8850 S   0  0  0  0  0  0  0  0  0  0  0  0
   39.3080   32.4400   41.0540 C   0  0  0  0  0  0  0  0  0  0  0  0
   38.3940   31.5170   40.5250 C   0  0  0  0  0  0  0  0  0  0  0  0
   37.3330   31.9270   39.7420 C   0  0  0  0  0  0  0  0  0  0  0  0
   37.2240   33.2780   39.5150 N   0  0  0  0  0  0  0  0  0  0  0  0
   38.1170   34.1460   40.0350 C   0  0  0  0  0  0  0  0  0  0  0  0
   39.1410   33.7700   40.7870 N   0  0  0  0  0  0  0  0  0  0  0  0
   40.1450   32.1370   41.6690 H   0  0  0  0  0  0  0  0  0  0  0  0
   36.6180   31.2310   39.3250 H   0  0  0  0  0  0  0  0  0  0  0  0
   38.0050   35.2100   39.8380 H   0  0  0  0  0  0  0  0  0  0  0  0
   39.4220   29.5900   42.4860 C   0  0  0  0  0  0  0  0  0  0  0  0
   40.4600   29.2320   42.3690 H   0  0  0  0  0  0  0  0  0  0  0  0
   39.4210   30.5670   43.0390 H   0  0  0  0  0  0  0  0  0  0  0  0
   38.6550   28.6450   43.2770 N   0  0  0  0  0  0  0  0  0  0  0  0
   39.2440   27.3640   43.4210 C   0  0  0  0  0  2  0  0  0  0  0  0
   38.6500   26.2570   42.5990 C   0  0  0  0  0  2  0  0  0  0  0  0
   37.1480   26.3420   42.4940 C   0  0  0  0  0  3  0  0  0  0  0  0
   36.6280   25.3880   42.7110 H   0  0  0  0  0  0  0  0  0  0  0  0
   36.5740   27.4290   43.3640 C   0  0  0  0  0  2  0  0  0  0  0  0
   37.2640   28.7030   42.9910 C   0  0  0  0  0  2  0  0  0  0  0  0
  1 11  1  0  0  0  0
  2  8  1  0  0  0  0
  3  1  1  0  0  0  0
  3  2  2  0  0  0  0
  4  3  1  0  0  0  0
  5  4  2  0  0  0  0
  5  6  1  0  0  0  0
  6  7  2  0  0  0  0
  7  2  1  0  0  0  0
  9  4  1  0  0  0  0
 10  6  1  0  0  0  0
 11 13  1  0  0  0  0
 11 14  1  0  0  0  0
 12 11  1  0  0  0  0
 14 15  1  0  0  0  0
 16 15  1  0  0  0  0
 17 16  1  0  0  0  0
 17 18  1  0  0  0  0
 17 19  1  0  0  0  0
 20 14  1  0  0  0  0
 20 19  1  0  0  0  0
M  END
>  <minimizedAffinity>
-4.16110611

$$$$

 OpenBabel03252503003D

 20 21  0  0  0  0  0  0  0  0999 V2000
   36.5640   30.9170   40.6880 S   0  0  0  0  0  0  0  0  0  0  0  0
   37.8070   33.3180   40.0900 C   0  0  0  0  0  0  0  0  0  0  0  0
   37.9910   32.0210   40.5890 C   0  0  0  0  0  0  0  0  0  0  0  0
   39.2340   31.5810   41.0010 C   0  0  0  0  0  0  0  0  0  0  0  0
   40.2690   32.4790   40.8940 N   0  0  0  0  0  0  0  0  0  0  0  0
   40.0660   33.7220   40.4100 C   0  0  0  0  0  0  0  0  0  0  0  0
   38.8810   34.1600   40.0110 N   0  0  0  0  0  0  0  0  0  0  0  0
   36.8410   33.6800   39.7620 H   0  0  0  0  0  0  0  0  0  0  0  0
   39.3970   30.5840   41.3890 H   0  0  0  0  0  0  0  0  0  0  0  0
   40.9050   34.4110   40.3370 H   0  0  0  0  0  0  0  0  0  0  0  0
   37.0900   29.2400   40.3210 C   0  0  0  0  0  0  0  0  0  0  0  0
   36.5590   28.8490   39.4350 H   0  0  0  0  0  0  0  0  0  0  0  0
   38.1990   29.2000   40.1430 H   0  0  0  0  0  0  0  0  0  0  0  0
   36.8070   28.4110   41.4780 N   0  0  0  0  0  0  0  0  0  0  0  0
   37.2890   28.9160   42.7110 C   0  0  0  0  0  2  0  0  0  0  0  0
   38.5150   28.2550   43.2730 C   0  0  0  0  0  2  0  0  0  0  0  0
   38.5290   26.7620   43.0610 C   0  0  0  0  0  3  0  0  0  0  0  0
   38.7650   26.1810   43.9750 H   0  0  0  0  0  0  0  0  0  0  0  0
   37.2380   26.2560   42.4710 C   0  0  0  0  0  2  0  0  0  0  0  0
   36.9960   27.0280   41.2120 C   0  0  0  0  0  2  0  0  0  0  0  0
  2  3  1  0  0  0  0
  3  1  1  0  0  0  0
  3  4  2  0  0  0  0
  4  9  1  0  0  0  0
  5  4  1  0  0  0  0
  6  5  2  0  0  0  0
  7  2  2  0  0  0  0
  7  6  1  0  0  0  0
  8  2  1  0  0  0  0
 10  6  1  0  0  0  0
 11  1  1  0  0  0  0
 11 14  1  0  0  0  0
 12 11  1  0  0  0  0
 13 11  1  0  0  0  0
 14 15  1  0  0  0  0
 15 16  1  0  0  0  0
 17 16  1  0  0  0  0
 17 18  1  0  0  0  0
 19 17  1  0  0  0  0
 20 14  1  0  0  0  0
 20 19  1  0  0  0  0
M  END
>  <minimizedAffinity>
-3.98026657

$$$$

 OpenBabel03252503003D

 20 21  0  0  0  0  0  0  0  0999 V2000
   36.9370   30.9320   39.3130 S   0  0  0  0  0  0  0  0  0  0  0  0
   39.3830   32.0380   38.6340 C   0  0  0  0  0  0  0  0  0  0  0  0
   38.2360   32.1830   39.4280 C   0  0  0  0  0  0  0  0  0  0  0  0
   38.0900   33.2540   40.2880 C   0  0  0  0  0  0  0  0  0  0  0  0
   39.1220   34.1610   40.3190 N   0  0  0  0  0  0  0  0  0  0  0  0
   40.2150   34.0000   39.5440 C   0  0  0  0  0  0  0  0  0  0  0  0
   40.3720   32.9790   38.7140 N   0  0  0  0  0  0  0  0  0  0  0  0
   39.5150   31.2050   37.9550 H   0  0  0  0  0  0  0  0  0  0  0  0
   37.2140   33.3840   40.9080 H   0  0  0  0  0  0  0  0  0  0  0  0
   41.0160   34.7340   39.5900 H   0  0  0  0  0  0  0  0  0  0  0  0
   36.5360   30.3470   40.9620 C   0  0  0  0  0  0  0  0  0  0  0  0
   36.6860   31.1470   41.7080 H   0  0  0  0  0  0  0  0  0  0  0  0
   35.4740   29.9830   41.0100 H   0  0  0  0  0  0  0  0  0  0  0  0
   37.3940   29.2160   41.2650 N   0  0  0  0  0  0  0  0  0  0  0  0
   36.7270   27.9720   41.3910 C   0  0  0  0  0  2  0  0  0  0  0  0
   36.5390   27.4510   42.7870 C   0  0  0  0  0  2  0  0  0  0  0  0
   37.7260   27.7150   43.6790 C   0  0  0  0  0  3  0  0  0  0  0  0
   38.0710   26.8260   44.2430 H   0  0  0  0  0  0  0  0  0  0  0  0
   38.8890   28.3060   42.9240 C   0  0  0  0  0  2  0  0  0  0  0  0
   38.3870   29.5330   42.2300 C   0  0  0  0  0  2  0  0  0  0  0  0
  1  3  1  0  0  0  0
  1 11  1  0  0  0  0
  2  7  2  0  0  0  0
  2  3  1  0  0  0  0
  3  4  2  0  0  0  0
  4  5  1  0  0  0  0
  4  9  1  0  0  0  0
  6 10  1  0  0  0  0
  6  5  2  0  0  0  0
  7  6  1  0  0  0  0
  8  2  1  0  0  0  0
 11 13  1  0  0  0  0
 11 14  1  0  0  0  0
 11 12  1  0  0  0  0
 14 15  1  0  0  0  0
 14 20  1  0  0  0  0
 15 16  1  0  0  0  0
 16 17  1  0  0  0  0
 17 18  1  0  0  0  0
 19 17  1  0  0  0  0
 20 19  1  0  0  0  0
M  END
>  <minimizedAffinity>
-3.97613382

$$$$

 OpenBabel03252503003D

 20 21  0  0  0  0  0  0  0  0999 V2000
   36.7090   28.2250   41.9260 S   0  0  0  0  0  0  0  0  0  0  0  0
   37.6160   25.6100   42.0030 C   0  0  0  0  0  0  0  0  0  0  0  0
   37.8350   26.9180   42.4620 C   0  0  0  0  0  0  0  0  0  0  0  0
   38.8860   27.2140   43.3070 C   0  0  0  0  0  0  0  0  0  0  0  0
   39.6970   26.1650   43.6690 N   0  0  0  0  0  0  0  0  0  0  0  0
   39.4650   24.9160   43.2140 C   0  0  0  0  0  0  0  0  0  0  0  0
   38.4620   24.6140   42.4030 N   0  0  0  0  0  0  0  0  0  0  0  0
   36.7970   25.3590   41.3410 H   0  0  0  0  0  0  0  0  0  0  0  0
   39.0720   28.2150   43.6720 H   0  0  0  0  0  0  0  0  0  0  0  0
   40.1240   24.1050   43.5180 H   0  0  0  0  0  0  0  0  0  0  0  0
   37.5950   29.7860   41.8910 C   0  0  0  0  0  0  0  0  0  0  0  0
   37.7050   30.1960   42.9100 H   0  0  0  0  0  0  0  0  0  0  0  0
   38.6090   29.6590   41.4240 H   0  0  0  0  0  0  0  0  0  0  0  0
   36.8500   30.7140   41.0590 N   0  0  0  0  0  0  0  0  0  0  0  0
   36.0600   30.1130   40.0470 C   0  0  0  0  0  2  0  0  0  0  0  0
   36.5890   30.1970   38.6450 C   0  0  0  0  0  2  0  0  0  0  0  0
   37.2460   31.5200   38.3420 C   0  0  0  0  0  3  0  0  0  0  0  0
   36.9060   31.9850   37.3950 H   0  0  0  0  0  0  0  0  0  0  0  0
   37.0860   32.5100   39.4660 C   0  0  0  0  0  2  0  0  0  0  0  0
   37.6140   31.8590   40.7060 C   0  0  0  0  0  2  0  0  0  0  0  0
  1  3  1  0  0  0  0
  2  7  2  0  0  0  0
  2  3  1  0  0  0  0
  3  4  2  0  0  0  0
  4  5  1  0  0  0  0
  4  9  1  0  0  0  0
  6 10  1  0  0  0  0
  6  5  2  0  0  0  0
  7  6  1  0  0  0  0
  8  2  1  0  0  0  0
 11  1  1  0  0  0  0
 11 12  1  0  0  0  0
 13 11  1  0  0  0  0
 14 11  1  0  0  0  0
 15 14  1  0  0  0  0
 16 15  1  0  0  0  0
 17 16  1  0  0  0  0
 17 19  1  0  0  0  0
 18 17  1  0  0  0  0
 19 20  1  0  0  0  0
 20 14  1  0  0  0  0
M  END
>  <minimizedAffinity>
-3.97287178

$$$$

 OpenBabel03252503003D

 20 21  0  0  0  0  0  0  0  0999 V2000
   38.3330   29.5810   38.9340 S   0  0  0  0  0  0  0  0  0  0  0  0
   37.3250   32.1210   39.3860 C   0  0  0  0  0  0  0  0  0  0  0  0
   38.4620   31.3030   39.4670 C   0  0  0  0  0  0  0  0  0  0  0  0
   39.6640   31.7910   39.9430 C   0  0  0  0  0  0  0  0  0  0  0  0
   39.6810   33.1100   40.3270 N   0  0  0  0  0  0  0  0  0  0  0  0
   38.5740   33.8770   40.2400 C   0  0  0  0  0  0  0  0  0  0  0  0
   37.4130   33.4250   39.7860 N   0  0  0  0  0  0  0  0  0  0  0  0
   36.3760   31.7560   39.0150 H   0  0  0  0  0  0  0  0  0  0  0  0
   40.5510   31.1770   40.0140 H   0  0  0  0  0  0  0  0  0  0  0  0
   38.6180   34.9180   40.5520 H   0  0  0  0  0  0  0  0  0  0  0  0
   37.1250   28.7370   39.9590 C   0  0  0  0  0  0  0  0  0  0  0  0
   36.2340   29.3710   40.1150 H   0  0  0  0  0  0  0  0  0  0  0  0
   36.8170   27.7630   39.4940 H   0  0  0  0  0  0  0  0  0  0  0  0
   37.7470   28.4290   41.2350 N   0  0  0  0  0  0  0  0  0  0  0  0
   37.8510   27.0470   41.5330 C   0  0  0  0  0  2  0  0  0  0  0  0
   36.8810   26.5050   42.5430 C   0  0  0  0  0  2  0  0  0  0  0  0
   36.6170   27.4610   43.6790 C   0  0  0  0  0  3  0  0  0  0  0  0
   36.6970   26.9990   44.6830 H   0  0  0  0  0  0  0  0  0  0  0  0
   37.5040   28.6780   43.6210 C   0  0  0  0  0  2  0  0  0  0  0  0
   37.3150   29.2980   42.2720 C   0  0  0  0  0  2  0  0  0  0  0  0
  1  3  1  0  0  0  0
  1 11  1  0  0  0  0
  2  3  2  0  0  0  0
  2  7  1  0  0  0  0
  3  4  1  0  0  0  0
  4  9  1  0  0  0  0
  4  5  2  0  0  0  0
  6  5  1  0  0  0  0
  6 10  1  0  0  0  0
  7  6  2  0  0  0  0
  8  2  1  0  0  0  0
 11 12  1  0  0  0  0
 11 14  1  0  0  0  0
 13 11  1  0  0  0  0
 14 15  1  0  0  0  0
 14 20  1  0  0  0  0
 15 16  1  0  0  0  0
 16 17  1  0  0  0  0
 17 18  1  0  0  0  0
 19 17  1  0  0  0  0
 20 19  1  0  0  0  0
M  END
>  <minimizedAffinity>
-3.95674467

$$$$

 OpenBabel03252503003D

 20 21  0  0  0  0  0  0  0  0999 V2000
   39.8800   29.3620   39.4190 S   0  0  0  0  0  0  0  0  0  0  0  0
   40.6760   31.7590   38.2830 C   0  0  0  0  0  0  0  0  0  0  0  0
   40.1760   31.1440   39.4410 C   0  0  0  0  0  0  0  0  0  0  0  0
   39.9100   31.8750   40.5820 C   0  0  0  0  0  0  0  0  0  0  0  0
   40.1610   33.2250   40.5190 N   0  0  0  0  0  0  0  0  0  0  0  0
   40.6420   33.7930   39.3930 C   0  0  0  0  0  0  0  0  0  0  0  0
   40.9030   33.1070   38.2890 N   0  0  0  0  0  0  0  0  0  0  0  0
   40.8900   31.2030   37.3800 H   0  0  0  0  0  0  0  0  0  0  0  0
   39.5240   31.4210   41.4840 H   0  0  0  0  0  0  0  0  0  0  0  0
   40.8320   34.8640   39.3730 H   0  0  0  0  0  0  0  0  0  0  0  0
   38.2600   29.0260   40.1140 C   0  0  0  0  0  0  0  0  0  0  0  0
   37.6440   29.9420   40.1310 H   0  0  0  0  0  0  0  0  0  0  0  0
   37.7300   28.2280   39.5270 H   0  0  0  0  0  0  0  0  0  0  0  0
   38.4390   28.5210   41.4640 N   0  0  0  0  0  0  0  0  0  0  0  0
   38.3800   27.1110   41.5900 C   0  0  0  0  0  2  0  0  0  0  0  0
   37.1200   26.5420   42.1760 C   0  0  0  0  0  2  0  0  0  0  0  0
   36.5610   27.3810   43.2980 C   0  0  0  0  0  3  0  0  0  0  0  0
   36.3040   26.8020   44.2060 H   0  0  0  0  0  0  0  0  0  0  0  0
   37.4780   28.5150   43.6760 C   0  0  0  0  0  2  0  0  0  0  0  0
   37.7470   29.2990   42.4300 C   0  0  0  0  0  2  0  0  0  0  0  0
  1  3  1  0  0  0  0
  1 11  1  0  0  0  0
  2  7  2  0  0  0  0
  2  3  1  0  0  0  0
  3  4  2  0  0  0  0
  4  9  1  0  0  0  0
  5  4  1  0  0  0  0
  6  5  2  0  0  0  0
  7  6  1  0  0  0  0
  8  2  1  0  0  0  0
 10  6  1  0  0  0  0
 11 12  1  0  0  0  0
 11 14  1  0  0  0  0
 13 11  1  0  0  0  0
 14 15  1  0  0  0  0
 14 20  1  0  0  0  0
 15 16  1  0  0  0  0
 16 17  1  0  0  0  0
 17 19  1  0  0  0  0
 17 18  1  0  0  0  0
 20 19  1  0  0  0  0
M  END
>  <minimizedAffinity>
-3.64450359

$$$$

 OpenBabel03252503003D

 20 21  0  0  0  0  0  0  0  0999 V2000
   38.3440   27.8940   39.8560 S   0  0  0  0  0  0  0  0  0  0  0  0
   36.8750   30.0430   40.8000 C   0  0  0  0  0  0  0  0  0  0  0  0
   37.9480   29.6520   39.9850 C   0  0  0  0  0  0  0  0  0  0  0  0
   38.6940   30.5820   39.2890 C   0  0  0  0  0  0  0  0  0  0  0  0
   38.3290   31.8990   39.4390 N   0  0  0  0  0  0  0  0  0  0  0  0
   37.2930   32.2490   40.2300 C   0  0  0  0  0  0  0  0  0  0  0  0
   36.5670   31.3700   40.9050 N   0  0  0  0  0  0  0  0  0  0  0  0
   36.2780   29.3280   41.3530 H   0  0  0  0  0  0  0  0  0  0  0  0
   39.5250   30.3020   38.6560 H   0  0  0  0  0  0  0  0  0  0  0  0
   37.0280   33.2990   40.3290 H   0  0  0  0  0  0  0  0  0  0  0  0
   36.9650   26.9320   40.4850 C   0  0  0  0  0  0  0  0  0  0  0  0
   36.0940   27.5810   40.6830 H   0  0  0  0  0  0  0  0  0  0  0  0
   36.6760   26.1260   39.7590 H   0  0  0  0  0  0  0  0  0  0  0  0
   37.3880   26.2780   41.7110 N   0  0  0  0  0  0  0  0  0  0  0  0
   36.9310   26.8870   42.9050 C   0  0  0  0  0  2  0  0  0  0  0  0
   37.9400   27.6860   43.6790 C   0  0  0  0  0  2  0  0  0  0  0  0
   39.3120   27.0600   43.6790 C   0  0  0  0  0  3  0  0  0  0  0  0
   39.7730   26.9900   44.6840 H   0  0  0  0  0  0  0  0  0  0  0  0
   39.3200   25.7000   43.0330 C   0  0  0  0  0  2  0  0  0  0  0  0
   38.7450   25.8590   41.6600 C   0  0  0  0  0  2  0  0  0  0  0  0
  1  3  1  0  0  0  0
  1 11  1  0  0  0  0
  2  7  1  0  0  0  0
  2  8  1  0  0  0  0
  3  2  2  0  0  0  0
  4  5  2  0  0  0  0
  4  3  1  0  0  0  0
  5  6  1  0  0  0  0
  6 10  1  0  0  0  0
  6  7  2  0  0  0  0
  9  4  1  0  0  0  0
 11 12  1  0  0  0  0
 11 14  1  0  0  0  0
 13 11  1  0  0  0  0
 14 15  1  0  0  0  0
 15 16  1  0  0  0  0
 16 17  1  0  0  0  0
 17 18  1  0  0  0  0
 19 17  1  0  0  0  0
 20 14  1  0  0  0  0
 20 19  1  0  0  0  0
M  END
>  <minimizedAffinity>
-3.63637519

$$$$

 OpenBabel03252503003D

 20 21  0  0  0  0  0  0  0  0999 V2000
   36.3500   28.3440   41.3020 S   0  0  0  0  0  0  0  0  0  0  0  0
   36.8910   29.6430   38.9170 C   0  0  0  0  0  0  0  0  0  0  0  0
   36.6770   29.8070   40.2940 C   0  0  0  0  0  0  0  0  0  0  0  0
   36.7150   31.0570   40.8810 C   0  0  0  0  0  0  0  0  0  0  0  0
   36.9710   32.1190   40.0480 N   0  0  0  0  0  0  0  0  0  0  0  0
   37.1730   31.9350   38.7260 C   0  0  0  0  0  0  0  0  0  0  0  0
   37.1400   30.7440   38.1470 N   0  0  0  0  0  0  0  0  0  0  0  0
   36.8660   28.6720   38.4400 H   0  0  0  0  0  0  0  0  0  0  0  0
   36.5520   31.2040   41.9400 H   0  0  0  0  0  0  0  0  0  0  0  0
   37.3730   32.7950   38.0910 H   0  0  0  0  0  0  0  0  0  0  0  0
   37.3710   28.4050   42.7780 C   0  0  0  0  0  0  0  0  0  0  0  0
   38.2730   29.0170   42.6030 H   0  0  0  0  0  0  0  0  0  0  0  0
   36.7950   28.8240   43.6460 H   0  0  0  0  0  0  0  0  0  0  0  0
   37.7500   27.0470   43.1260 N   0  0  0  0  0  0  0  0  0  0  0  0
   39.0600   26.9040   43.6470 C   0  0  0  0  0  2  0  0  0  0  0  0
   40.0900   26.3260   42.7210 C   0  0  0  0  0  2  0  0  0  0  0  0
   39.5460   25.2220   41.8500 C   0  0  0  0  0  3  0  0  0  0  0  0
   40.1740   24.3090   41.8370 H   0  0  0  0  0  0  0  0  0  0  0  0
   38.1340   24.8470   42.2160 C   0  0  0  0  0  2  0  0  0  0  0  0
   37.3160   26.1000   42.1600 C   0  0  0  0  0  2  0  0  0  0  0  0
  1 11  1  0  0  0  0
  2  3  1  0  0  0  0
  3  4  2  0  0  0  0
  3  1  1  0  0  0  0
  4  9  1  0  0  0  0
  5  4  1  0  0  0  0
  6  5  2  0  0  0  0
  7  6  1  0  0  0  0
  7  2  2  0  0  0  0
  8  2  1  0  0  0  0
 10  6  1  0  0  0  0
 11 14  1  0  0  0  0
 11 13  1  0  0  0  0
 12 11  1  0  0  0  0
 14 15  1  0  0  0  0
 16 15  1  0  0  0  0
 17 19  1  0  0  0  0
 17 16  1  0  0  0  0
 18 17  1  0  0  0  0
 20 19  1  0  0  0  0
 20 14  1  0  0  0  0
M  END
>  <minimizedAffinity>
-3.63351512

$$$$

 OpenBabel03252503003D

 20 21  0  0  0  0  0  0  0  0999 V2000
   38.4840   29.2960   42.1110 S   0  0  0  0  0  0  0  0  0  0  0  0
   39.2690   31.8530   41.3910 C   0  0  0  0  0  0  0  0  0  0  0  0
   38.2690   30.8770   41.2620 C   0  0  0  0  0  0  0  0  0  0  0  0
   37.1360   31.1060   40.5060 C   0  0  0  0  0  0  0  0  0  0  0  0
   37.0460   32.3330   39.8920 N   0  0  0  0  0  0  0  0  0  0  0  0
   38.0220   33.2550   40.0310 C   0  0  0  0  0  0  0  0  0  0  0  0
   39.1140   33.0520   40.7530 N   0  0  0  0  0  0  0  0  0  0  0  0
   40.1620   31.6910   41.9790 H   0  0  0  0  0  0  0  0  0  0  0  0
   36.3550   30.3670   40.3940 H   0  0  0  0  0  0  0  0  0  0  0  0
   37.9220   34.2170   39.5330 H   0  0  0  0  0  0  0  0  0  0  0  0
   37.1600   28.1840   41.6280 C   0  0  0  0  0  0  0  0  0  0  0  0
   36.3500   28.1930   42.3780 H   0  0  0  0  0  0  0  0  0  0  0  0
   36.7470   28.4680   40.6230 H   0  0  0  0  0  0  0  0  0  0  0  0
   37.7110   26.8460   41.5060 N   0  0  0  0  0  0  0  0  0  0  0  0
   37.9290   26.4060   40.1770 C   0  0  0  0  0  2  0  0  0  0  0  0
   36.9440   25.4140   39.6290 C   0  0  0  0  0  2  0  0  0  0  0  0
   36.5010   24.3980   40.6520 C   0  0  0  0  0  3  0  0  0  0  0  0
   36.5500   23.3500   40.2960 H   0  0  0  0  0  0  0  0  0  0  0  0
   37.2640   24.5180   41.9460 C   0  0  0  0  0  2  0  0  0  0  0  0
   37.1170   25.9310   42.4160 C   0  0  0  0  0  2  0  0  0  0  0  0
  2  8  1  0  0  0  0
  3  2  1  0  0  0  0
  3  1  1  0  0  0  0
  4  3  2  0  0  0  0
  5  6  2  0  0  0  0
  5  4  1  0  0  0  0
  6  7  1  0  0  0  0
  7  2  2  0  0  0  0
  9  4  1  0  0  0  0
 10  6  1  0  0  0  0
 11  1  1  0  0  0  0
 11 12  1  0  0  0  0
 13 11  1  0  0  0  0
 14 11  1  0  0  0  0
 14 20  1  0  0  0  0
 15 14  1  0  0  0  0
 16 15  1  0  0  0  0
 16 17  1  0  0  0  0
 17 19  1  0  0  0  0
 18 17  1  0  0  0  0
 19 20  1  0  0  0  0
M  END
>  <minimizedAffinity>
-3.62453818

$$$$
