
 OpenBabel03252505163D

 23 25  0  0  0  0  0  0  0  0999 V2000
   35.6330   29.6500   40.0840 C   0  0  0  0  0  0  0  0  0  0  0  0
   35.7200   28.6110   41.0240 C   0  0  0  0  0  0  0  0  0  0  0  0
   36.7560   28.7200   41.9440 C   0  0  0  0  0  0  0  0  0  0  0  0
   37.6110   29.7930   41.8930 N   0  0  0  0  0  0  0  0  0  0  0  0
   37.4790   30.7740   40.9590 C   0  0  0  0  0  0  0  0  0  0  0  0
   36.4830   30.6810   40.0630 N   0  0  0  0  0  0  0  0  0  0  0  0
   34.8150   29.5710   39.3510 H   0  0  0  0  0  0  0  0  0  0  0  0
   35.0700   27.7720   41.0820 H   0  0  0  0  0  0  0  0  0  0  0  0
   38.3930   31.8640   40.9540 N   0  0  0  0  0  0  0  0  0  0  0  0
   38.0630   33.0340   40.1970 C   0  0  0  0  0  2  0  0  0  0  0  0
   39.1120   34.0510   40.0660 C   0  0  0  0  0  2  0  0  0  0  0  0
   40.5020   33.6460   40.4000 C   0  0  0  0  0  3  0  0  0  0  0  0
   41.1970   33.8640   39.5380 H   0  0  0  0  0  0  0  0  0  0  0  0
   40.7070   32.1990   40.7170 C   0  0  0  0  0  2  0  0  0  0  0  0
   39.6200   31.7880   41.6940 C   0  0  0  0  0  2  0  0  0  0  0  0
   36.9360   27.6810   43.0140 C   0  0  0  0  0  0  0  0  0  0  0  0
   37.2150   26.3040   42.4480 C   0  0  0  0  0  0  0  0  0  0  0  0
   38.2690   27.1400   43.2310 C   0  0  0  0  0  0  0  0  0  0  0  0
   36.1740   27.7490   43.8080 H   0  0  0  0  0  0  0  0  0  0  0  0
   36.7740   25.4800   43.0440 H   0  0  0  0  0  0  0  0  0  0  0  0
   37.3540   26.1750   41.3760 H   0  0  0  0  0  0  0  0  0  0  0  0
   39.0740   27.5200   42.5640 H   0  0  0  0  0  0  0  0  0  0  0  0
   38.6100   26.7030   44.1870 H   0  0  0  0  0  0  0  0  0  0  0  0
  1  2  1  0  0  0  0
  2  8  1  0  0  0  0
  2  3  2  0  0  0  0
  3 16  1  0  0  0  0
  4  3  1  0  0  0  0
  5  4  2  0  0  0  0
  6  1  2  0  0  0  0
  6  5  1  0  0  0  0
  7  1  1  0  0  0  0
  9  5  1  0  0  0  0
  9 15  1  0  0  0  0
 10  9  1  0  0  0  0
 11 10  1  0  0  0  0
 11 12  1  0  0  0  0
 12 14  1  0  0  0  0
 13 12  1  0  0  0  0
 14 15  1  0  0  0  0
 16 18  1  0  0  0  0
 16 19  1  0  0  0  0
 17 16  1  0  0  0  0
 17 20  1  0  0  0  0
 17 18  1  0  0  0  0
 18 23  1  0  0  0  0
 21 17  1  0  0  0  0
 22 18  1  0  0  0  0
M  END
>  <minimizedAffinity>
-4.85058022

$$$$

 OpenBabel03252505163D

 23 25  0  0  0  0  0  0  0  0999 V2000
   37.6540   28.7720   43.5290 C   0  0  0  0  0  0  0  0  0  0  0  0
   37.3400   27.4050   43.5870 C   0  0  0  0  0  0  0  0  0  0  0  0
   37.1740   26.7750   42.3600 C   0  0  0  0  0  0  0  0  0  0  0  0
   37.3150   27.4900   41.1960 N   0  0  0  0  0  0  0  0  0  0  0  0
   37.6210   28.8160   41.1990 C   0  0  0  0  0  0  0  0  0  0  0  0
   37.7850   29.4370   42.3780 N   0  0  0  0  0  0  0  0  0  0  0  0
   37.7880   29.2780   44.4980 H   0  0  0  0  0  0  0  0  0  0  0  0
   37.2260   26.8320   44.4750 H   0  0  0  0  0  0  0  0  0  0  0  0
   37.7580   29.5060   39.9620 N   0  0  0  0  0  0  0  0  0  0  0  0
   38.3870   30.7920   39.9590 C   0  0  0  0  0  2  0  0  0  0  0  0
   38.3370   31.5480   38.7020 C   0  0  0  0  0  2  0  0  0  0  0  0
   37.3580   31.1020   37.6770 C   0  0  0  0  0  3  0  0  0  0  0  0
   36.6880   31.9570   37.3700 H   0  0  0  0  0  0  0  0  0  0  0  0
   36.4330   30.0010   38.0850 C   0  0  0  0  0  2  0  0  0  0  0  0
   37.2720   28.9220   38.7450 C   0  0  0  0  0  2  0  0  0  0  0  0
   36.8590   25.3080   42.2920 C   0  0  0  0  0  0  0  0  0  0  0  0
   36.9090   24.7650   40.8790 C   0  0  0  0  0  0  0  0  0  0  0  0
   37.9400   24.3850   41.9820 C   0  0  0  0  0  0  0  0  0  0  0  0
   35.9830   25.0310   42.9020 H   0  0  0  0  0  0  0  0  0  0  0  0
   36.1620   23.9710   40.6810 H   0  0  0  0  0  0  0  0  0  0  0  0
   37.2410   25.4040   40.0630 H   0  0  0  0  0  0  0  0  0  0  0  0
   38.9380   24.8360   41.7890 H   0  0  0  0  0  0  0  0  0  0  0  0
   37.9480   23.3210   42.2810 H   0  0  0  0  0  0  0  0  0  0  0  0
  1  2  1  0  0  0  0
  1  7  1  0  0  0  0
  2  8  1  0  0  0  0
  3  2  2  0  0  0  0
  4  5  2  0  0  0  0
  4  3  1  0  0  0  0
  5  6  1  0  0  0  0
  6  1  2  0  0  0  0
  9  5  1  0  0  0  0
 10  9  1  0  0  0  0
 11 10  1  0  0  0  0
 12 14  1  0  0  0  0
 12 11  1  0  0  0  0
 13 12  1  0  0  0  0
 14 15  1  0  0  0  0
 15  9  1  0  0  0  0
 16  3  1  0  0  0  0
 16 19  1  0  0  0  0
 17 18  1  0  0  0  0
 17 16  1  0  0  0  0
 18 23  1  0  0  0  0
 18 16  1  0  0  0  0
 20 17  1  0  0  0  0
 21 17  1  0  0  0  0
 22 18  1  0  0  0  0
M  END
>  <minimizedAffinity>
-4.65914249

$$$$

 OpenBabel03252505163D

 23 25  0  0  0  0  0  0  0  0999 V2000
   38.0970   30.2470   37.6820 C   0  0  0  0  0  0  0  0  0  0  0  0
   36.9680   29.9390   36.9070 C   0  0  0  0  0  0  0  0  0  0  0  0
   35.9130   29.3480   37.5910 C   0  0  0  0  0  0  0  0  0  0  0  0
   36.0200   29.1020   38.9380 N   0  0  0  0  0  0  0  0  0  0  0  0
   37.1400   29.4230   39.6410 C   0  0  0  0  0  0  0  0  0  0  0  0
   38.1670   29.9940   38.9920 N   0  0  0  0  0  0  0  0  0  0  0  0
   38.9370   30.7160   37.1460 H   0  0  0  0  0  0  0  0  0  0  0  0
   36.8630   30.1210   35.8640 H   0  0  0  0  0  0  0  0  0  0  0  0
   37.1950   29.1460   41.0360 N   0  0  0  0  0  0  0  0  0  0  0  0
   38.2190   29.7680   41.8200 C   0  0  0  0  0  2  0  0  0  0  0  0
   38.3560   29.3110   43.2070 C   0  0  0  0  0  2  0  0  0  0  0  0
   37.6960   28.0310   43.5720 C   0  0  0  0  0  3  0  0  0  0  0  0
   38.4410   27.3170   44.0310 H   0  0  0  0  0  0  0  0  0  0  0  0
   37.0630   27.2730   42.4490 C   0  0  0  0  0  2  0  0  0  0  0  0
   36.2410   28.2600   41.6410 C   0  0  0  0  0  2  0  0  0  0  0  0
   34.6420   28.9940   36.8740 C   0  0  0  0  0  0  0  0  0  0  0  0
   34.1320   27.6150   37.2370 C   0  0  0  0  0  0  0  0  0  0  0  0
   33.4100   28.9320   37.6440 C   0  0  0  0  0  0  0  0  0  0  0  0
   34.6730   29.2480   35.8010 H   0  0  0  0  0  0  0  0  0  0  0  0
   33.6430   27.0850   36.3950 H   0  0  0  0  0  0  0  0  0  0  0  0
   34.6290   27.0400   38.0160 H   0  0  0  0  0  0  0  0  0  0  0  0
   33.4960   29.1310   38.7350 H   0  0  0  0  0  0  0  0  0  0  0  0
   32.4030   29.0770   37.2120 H   0  0  0  0  0  0  0  0  0  0  0  0
  1  6  1  0  0  0  0
  2  3  1  0  0  0  0
  2  1  2  0  0  0  0
  3  4  2  0  0  0  0
  4  5  1  0  0  0  0
  5  9  1  0  0  0  0
  6  5  2  0  0  0  0
  7  1  1  0  0  0  0
  8  2  1  0  0  0  0
  9 15  1  0  0  0  0
  9 10  1  0  0  0  0
 10 11  1  0  0  0  0
 11 12  1  0  0  0  0
 12 13  1  0  0  0  0
 14 12  1  0  0  0  0
 15 14  1  0  0  0  0
 16 17  1  0  0  0  0
 16  3  1  0  0  0  0
 16 18  1  0  0  0  0
 17 18  1  0  0  0  0
 17 21  1  0  0  0  0
 18 22  1  0  0  0  0
 19 16  1  0  0  0  0
 20 17  1  0  0  0  0
 23 18  1  0  0  0  0
M  END
>  <minimizedAffinity>
-4.40285969

$$$$

 OpenBabel03252505163D

 23 25  0  0  0  0  0  0  0  0999 V2000
   36.8230   30.6580   38.1470 C   0  0  0  0  0  0  0  0  0  0  0  0
   37.5900   31.8330   38.1930 C   0  0  0  0  0  0  0  0  0  0  0  0
   38.4280   31.9600   39.2930 C   0  0  0  0  0  0  0  0  0  0  0  0
   38.4650   30.9710   40.2460 N   0  0  0  0  0  0  0  0  0  0  0  0
   37.6990   29.8510   40.1500 C   0  0  0  0  0  0  0  0  0  0  0  0
   36.8840   29.7160   39.0920 N   0  0  0  0  0  0  0  0  0  0  0  0
   36.1560   30.5500   37.2770 H   0  0  0  0  0  0  0  0  0  0  0  0
   37.5770   32.6100   37.4670 H   0  0  0  0  0  0  0  0  0  0  0  0
   37.7800   28.8580   41.1670 N   0  0  0  0  0  0  0  0  0  0  0  0
   37.2320   27.5610   40.9050 C   0  0  0  0  0  2  0  0  0  0  0  0
   37.1660   26.6330   42.0400 C   0  0  0  0  0  2  0  0  0  0  0  0
   37.3230   27.2070   43.4010 C   0  0  0  0  0  3  0  0  0  0  0  0
   36.4480   26.9210   44.0550 H   0  0  0  0  0  0  0  0  0  0  0  0
   37.4060   28.6970   43.4820 C   0  0  0  0  0  2  0  0  0  0  0  0
   38.3970   29.1560   42.4280 C   0  0  0  0  0  2  0  0  0  0  0  0
   39.3150   33.1630   39.4410 C   0  0  0  0  0  0  0  0  0  0  0  0
   38.9230   34.0350   40.6160 C   0  0  0  0  0  0  0  0  0  0  0  0
   40.2390   33.2040   40.5640 C   0  0  0  0  0  0  0  0  0  0  0  0
   39.5040   33.6740   38.4830 H   0  0  0  0  0  0  0  0  0  0  0  0
   39.0770   35.1180   40.4380 H   0  0  0  0  0  0  0  0  0  0  0  0
   38.1370   33.7100   41.2960 H   0  0  0  0  0  0  0  0  0  0  0  0
   40.2100   32.3390   41.2630 H   0  0  0  0  0  0  0  0  0  0  0  0
   41.1740   33.7920   40.5720 H   0  0  0  0  0  0  0  0  0  0  0  0
  1  2  2  0  0  0  0
  1  6  1  0  0  0  0
  2  3  1  0  0  0  0
  3 16  1  0  0  0  0
  3  4  2  0  0  0  0
  5  4  1  0  0  0  0
  5  9  1  0  0  0  0
  6  5  2  0  0  0  0
  7  1  1  0  0  0  0
  8  2  1  0  0  0  0
  9 15  1  0  0  0  0
 10  9  1  0  0  0  0
 10 11  1  0  0  0  0
 11 12  1  0  0  0  0
 12 14  1  0  0  0  0
 12 13  1  0  0  0  0
 15 14  1  0  0  0  0
 16 18  1  0  0  0  0
 16 17  1  0  0  0  0
 17 21  1  0  0  0  0
 18 23  1  0  0  0  0
 18 17  1  0  0  0  0
 18 22  1  0  0  0  0
 19 16  1  0  0  0  0
 20 17  1  0  0  0  0
M  END
>  <minimizedAffinity>
-4.37369299

$$$$

 OpenBabel03252505163D

 23 25  0  0  0  0  0  0  0  0999 V2000
   37.2120   27.4350   38.8020 C   0  0  0  0  0  0  0  0  0  0  0  0
   37.1800   26.6700   39.9780 C   0  0  0  0  0  0  0  0  0  0  0  0
   37.1920   27.3940   41.1640 C   0  0  0  0  0  0  0  0  0  0  0  0
   37.2330   28.7670   41.1310 N   0  0  0  0  0  0  0  0  0  0  0  0
   37.2610   29.4570   39.9600 C   0  0  0  0  0  0  0  0  0  0  0  0
   37.2510   28.7700   38.8060 N   0  0  0  0  0  0  0  0  0  0  0  0
   37.2020   26.8680   37.8570 H   0  0  0  0  0  0  0  0  0  0  0  0
   37.1480   25.6090   40.0270 H   0  0  0  0  0  0  0  0  0  0  0  0
   37.3020   30.8790   39.9850 N   0  0  0  0  0  0  0  0  0  0  0  0
   37.0060   31.5970   38.7820 C   0  0  0  0  0  2  0  0  0  0  0  0
   37.2440   33.0450   38.8030 C   0  0  0  0  0  2  0  0  0  0  0  0
   38.0860   33.5820   39.9020 C   0  0  0  0  0  3  0  0  0  0  0  0
   38.9470   34.1830   39.4850 H   0  0  0  0  0  0  0  0  0  0  0  0
   38.7120   32.5700   40.8060 C   0  0  0  0  0  2  0  0  0  0  0  0
   37.6330   31.5760   41.1950 C   0  0  0  0  0  2  0  0  0  0  0  0
   37.1380   26.6880   42.4890 C   0  0  0  0  0  0  0  0  0  0  0  0
   37.9690   27.3760   43.5510 C   0  0  0  0  0  0  0  0  0  0  0  0
   36.4140   27.3220   43.5790 C   0  0  0  0  0  0  0  0  0  0  0  0
   37.2540   25.5950   42.3950 H   0  0  0  0  0  0  0  0  0  0  0  0
   38.4480   26.6760   44.2640 H   0  0  0  0  0  0  0  0  0  0  0  0
   38.4470   28.3300   43.3340 H   0  0  0  0  0  0  0  0  0  0  0  0
   35.9620   28.3150   43.3640 H   0  0  0  0  0  0  0  0  0  0  0  0
   35.9710   26.7720   44.4290 H   0  0  0  0  0  0  0  0  0  0  0  0
  1  6  2  0  0  0  0
  1  2  1  0  0  0  0
  2  8  1  0  0  0  0
  2  3  2  0  0  0  0
  3 16  1  0  0  0  0
  4  3  1  0  0  0  0
  5  9  1  0  0  0  0
  5  4  2  0  0  0  0
  6  5  1  0  0  0  0
  7  1  1  0  0  0  0
  9 15  1  0  0  0  0
 10 11  1  0  0  0  0
 10  9  1  0  0  0  0
 11 12  1  0  0  0  0
 12 14  1  0  0  0  0
 13 12  1  0  0  0  0
 14 15  1  0  0  0  0
 16 17  1  0  0  0  0
 16 18  1  0  0  0  0
 17 18  1  0  0  0  0
 17 20  1  0  0  0  0
 18 23  1  0  0  0  0
 19 16  1  0  0  0  0
 21 17  1  0  0  0  0
 22 18  1  0  0  0  0
M  END
>  <minimizedAffinity>
-4.36019182

$$$$

 OpenBabel03252505163D

 23 25  0  0  0  0  0  0  0  0999 V2000
   38.8870   30.8420   41.4900 C   0  0  0  0  0  0  0  0  0  0  0  0
   38.7720   29.8980   42.5220 C   0  0  0  0  0  0  0  0  0  0  0  0
   38.0860   28.7340   42.1980 C   0  0  0  0  0  0  0  0  0  0  0  0
   37.5720   28.5690   40.9350 N   0  0  0  0  0  0  0  0  0  0  0  0
   37.7140   29.5180   39.9710 C   0  0  0  0  0  0  0  0  0  0  0  0
   38.3750   30.6480   40.2710 N   0  0  0  0  0  0  0  0  0  0  0  0
   39.4300   31.7670   41.7390 H   0  0  0  0  0  0  0  0  0  0  0  0
   39.1610   30.0050   43.5060 H   0  0  0  0  0  0  0  0  0  0  0  0
   37.1620   29.2930   38.6790 N   0  0  0  0  0  0  0  0  0  0  0  0
   37.5860   30.1280   37.5960 C   0  0  0  0  0  2  0  0  0  0  0  0
   36.8560   29.9870   36.3310 C   0  0  0  0  0  2  0  0  0  0  0  0
   35.5480   29.2840   36.3720 C   0  0  0  0  0  3  0  0  0  0  0  0
   34.7360   29.9300   35.9260 H   0  0  0  0  0  0  0  0  0  0  0  0
   35.0490   28.9020   37.7280 C   0  0  0  0  0  2  0  0  0  0  0  0
   36.2000   28.2480   38.4700 C   0  0  0  0  0  2  0  0  0  0  0  0
   37.9180   27.6400   43.2140 C   0  0  0  0  0  0  0  0  0  0  0  0
   36.4830   27.4850   43.6720 C   0  0  0  0  0  0  0  0  0  0  0  0
   37.2280   26.4250   42.8100 C   0  0  0  0  0  0  0  0  0  0  0  0
   38.6920   27.6640   43.9980 H   0  0  0  0  0  0  0  0  0  0  0  0
   36.3840   27.1980   44.7380 H   0  0  0  0  0  0  0  0  0  0  0  0
   35.6950   28.0700   43.2000 H   0  0  0  0  0  0  0  0  0  0  0  0
   36.8440   26.3950   41.7660 H   0  0  0  0  0  0  0  0  0  0  0  0
   37.3790   25.4410   43.2900 H   0  0  0  0  0  0  0  0  0  0  0  0
  1  7  1  0  0  0  0
  1  2  1  0  0  0  0
  2  8  1  0  0  0  0
  3  2  2  0  0  0  0
  3 16  1  0  0  0  0
  4  3  1  0  0  0  0
  5  6  1  0  0  0  0
  5  4  2  0  0  0  0
  6  1  2  0  0  0  0
  9  5  1  0  0  0  0
 10  9  1  0  0  0  0
 11 12  1  0  0  0  0
 11 10  1  0  0  0  0
 12 14  1  0  0  0  0
 13 12  1  0  0  0  0
 14 15  1  0  0  0  0
 15  9  1  0  0  0  0
 16 17  1  0  0  0  0
 16 19  1  0  0  0  0
 17 20  1  0  0  0  0
 18 16  1  0  0  0  0
 18 23  1  0  0  0  0
 18 17  1  0  0  0  0
 21 17  1  0  0  0  0
 22 18  1  0  0  0  0
M  END
>  <minimizedAffinity>
-4.35726166

$$$$

 OpenBabel03252505163D

 23 25  0  0  0  0  0  0  0  0999 V2000
   39.6850   30.2130   42.2690 C   0  0  0  0  0  0  0  0  0  0  0  0
   39.0960   31.3220   41.6410 C   0  0  0  0  0  0  0  0  0  0  0  0
   37.9300   31.0610   40.9330 C   0  0  0  0  0  0  0  0  0  0  0  0
   37.4290   29.7830   40.8800 N   0  0  0  0  0  0  0  0  0  0  0  0
   38.0420   28.7450   41.5100 C   0  0  0  0  0  0  0  0  0  0  0  0
   39.1700   28.9830   42.1970 N   0  0  0  0  0  0  0  0  0  0  0  0
   40.6100   30.4120   42.8330 H   0  0  0  0  0  0  0  0  0  0  0  0
   39.4660   32.3180   41.6680 H   0  0  0  0  0  0  0  0  0  0  0  0
   37.4770   27.4410   41.4230 N   0  0  0  0  0  0  0  0  0  0  0  0
   37.9300   26.4340   42.3350 C   0  0  0  0  0  2  0  0  0  0  0  0
   37.4630   25.0650   42.0890 C   0  0  0  0  0  2  0  0  0  0  0  0
   36.8800   24.7720   40.7540 C   0  0  0  0  0  3  0  0  0  0  0  0
   37.4110   23.9000   40.2720 H   0  0  0  0  0  0  0  0  0  0  0  0
   36.9440   25.8780   39.7510 C   0  0  0  0  0  2  0  0  0  0  0  0
   36.4740   27.1460   40.4400 C   0  0  0  0  0  2  0  0  0  0  0  0
   37.1950   32.1720   40.2380 C   0  0  0  0  0  0  0  0  0  0  0  0
   38.0990   33.3330   39.8800 C   0  0  0  0  0  0  0  0  0  0  0  0
   37.4540   32.3900   38.8230 C   0  0  0  0  0  0  0  0  0  0  0  0
   36.2360   32.4170   40.7220 H   0  0  0  0  0  0  0  0  0  0  0  0
   37.6020   34.3220   39.9510 H   0  0  0  0  0  0  0  0  0  0  0  0
   39.1720   33.2600   40.0480 H   0  0  0  0  0  0  0  0  0  0  0  0
   38.2080   31.7250   38.3480 H   0  0  0  0  0  0  0  0  0  0  0  0
   36.7380   32.8680   38.1310 H   0  0  0  0  0  0  0  0  0  0  0  0
  1  7  1  0  0  0  0
  2  8  1  0  0  0  0
  2  1  2  0  0  0  0
  3  2  1  0  0  0  0
  4  3  2  0  0  0  0
  4  5  1  0  0  0  0
  5  6  2  0  0  0  0
  6  1  1  0  0  0  0
  9  5  1  0  0  0  0
  9 10  1  0  0  0  0
 11 10  1  0  0  0  0
 12 11  1  0  0  0  0
 13 12  1  0  0  0  0
 14 15  1  0  0  0  0
 14 12  1  0  0  0  0
 15  9  1  0  0  0  0
 16 19  1  0  0  0  0
 16  3  1  0  0  0  0
 17 20  1  0  0  0  0
 17 21  1  0  0  0  0
 17 16  1  0  0  0  0
 18 17  1  0  0  0  0
 18 16  1  0  0  0  0
 22 18  1  0  0  0  0
 23 18  1  0  0  0  0
M  END
>  <minimizedAffinity>
-4.24602652

$$$$

 OpenBabel03252505163D

 23 25  0  0  0  0  0  0  0  0999 V2000
   38.0690   27.9650   43.1250 C   0  0  0  0  0  0  0  0  0  0  0  0
   37.4130   29.0930   42.6090 C   0  0  0  0  0  0  0  0  0  0  0  0
   36.6940   28.8860   41.4380 C   0  0  0  0  0  0  0  0  0  0  0  0
   36.6620   27.6400   40.8630 N   0  0  0  0  0  0  0  0  0  0  0  0
   37.3170   26.5790   41.4080 C   0  0  0  0  0  0  0  0  0  0  0  0
   38.0160   26.7650   42.5390 N   0  0  0  0  0  0  0  0  0  0  0  0
   38.6410   28.1200   44.0540 H   0  0  0  0  0  0  0  0  0  0  0  0
   37.4240   30.0660   43.0380 H   0  0  0  0  0  0  0  0  0  0  0  0
   37.2480   25.3100   40.7690 N   0  0  0  0  0  0  0  0  0  0  0  0
   37.6560   24.1490   41.5010 C   0  0  0  0  0  2  0  0  0  0  0  0
   37.7480   22.8930   40.7480 C   0  0  0  0  0  2  0  0  0  0  0  0
   37.7690   22.9870   39.2650 C   0  0  0  0  0  3  0  0  0  0  0  0
   38.6730   22.4560   38.8470 H   0  0  0  0  0  0  0  0  0  0  0  0
   37.8210   24.3670   38.6940 C   0  0  0  0  0  2  0  0  0  0  0  0
   36.7780   25.1990   39.4170 C   0  0  0  0  0  2  0  0  0  0  0  0
   35.9310   30.0140   40.8040 C   0  0  0  0  0  0  0  0  0  0  0  0
   36.7310   31.2980   40.7430 C   0  0  0  0  0  0  0  0  0  0  0  0
   36.3420   30.4680   39.4850 C   0  0  0  0  0  0  0  0  0  0  0  0
   34.8950   30.0890   41.1740 H   0  0  0  0  0  0  0  0  0  0  0  0
   36.1180   32.2110   40.8760 H   0  0  0  0  0  0  0  0  0  0  0  0
   37.7740   31.3040   41.0520 H   0  0  0  0  0  0  0  0  0  0  0  0
   37.2230   29.9590   39.0360 H   0  0  0  0  0  0  0  0  0  0  0  0
   35.6690   30.9740   38.7690 H   0  0  0  0  0  0  0  0  0  0  0  0
  1  7  1  0  0  0  0
  2  8  1  0  0  0  0
  2  1  1  0  0  0  0
  3  2  2  0  0  0  0
  4  5  2  0  0  0  0
  4  3  1  0  0  0  0
  5  6  1  0  0  0  0
  6  1  2  0  0  0  0
  9  5  1  0  0  0  0
  9 10  1  0  0  0  0
 11 10  1  0  0  0  0
 12 11  1  0  0  0  0
 13 12  1  0  0  0  0
 14 12  1  0  0  0  0
 14 15  1  0  0  0  0
 15  9  1  0  0  0  0
 16 19  1  0  0  0  0
 16  3  1  0  0  0  0
 17 16  1  0  0  0  0
 17 20  1  0  0  0  0
 17 21  1  0  0  0  0
 18 17  1  0  0  0  0
 18 16  1  0  0  0  0
 22 18  1  0  0  0  0
 23 18  1  0  0  0  0
M  END
>  <minimizedAffinity>
-4.23305178

$$$$

 OpenBabel03252505163D

 23 25  0  0  0  0  0  0  0  0999 V2000
   39.0030   30.1080   42.6740 C   0  0  0  0  0  0  0  0  0  0  0  0
   39.9450   31.0860   42.3180 C   0  0  0  0  0  0  0  0  0  0  0  0
   39.6980   31.7500   41.1230 C   0  0  0  0  0  0  0  0  0  0  0  0
   38.5910   31.4300   40.3750 N   0  0  0  0  0  0  0  0  0  0  0  0
   37.7090   30.4720   40.7690 C   0  0  0  0  0  0  0  0  0  0  0  0
   37.9360   29.8230   41.9220 N   0  0  0  0  0  0  0  0  0  0  0  0
   39.1910   29.5770   43.6210 H   0  0  0  0  0  0  0  0  0  0  0  0
   40.8070   31.3490   42.8810 H   0  0  0  0  0  0  0  0  0  0  0  0
   36.5780   30.1840   39.9560 N   0  0  0  0  0  0  0  0  0  0  0  0
   35.5020   29.4260   40.5190 C   0  0  0  0  0  2  0  0  0  0  0  0
   34.4480   28.9910   39.5950 C   0  0  0  0  0  2  0  0  0  0  0  0
   34.7480   29.0490   38.1410 C   0  0  0  0  0  3  0  0  0  0  0  0
   34.5750   28.0420   37.6600 H   0  0  0  0  0  0  0  0  0  0  0  0
   36.1470   29.4270   37.7730 C   0  0  0  0  0  2  0  0  0  0  0  0
   36.5210   30.6450   38.5980 C   0  0  0  0  0  2  0  0  0  0  0  0
   40.6230   32.8340   40.6480 C   0  0  0  0  0  0  0  0  0  0  0  0
   40.5210   33.0750   39.1570 C   0  0  0  0  0  0  0  0  0  0  0  0
   40.0420   34.0990   40.2270 C   0  0  0  0  0  0  0  0  0  0  0  0
   41.6370   32.7450   41.0710 H   0  0  0  0  0  0  0  0  0  0  0  0
   41.4850   33.3490   38.6830 H   0  0  0  0  0  0  0  0  0  0  0  0
   39.7670   32.5530   38.5710 H   0  0  0  0  0  0  0  0  0  0  0  0
   38.9330   34.1730   40.2610 H   0  0  0  0  0  0  0  0  0  0  0  0
   40.5840   35.0620   40.2410 H   0  0  0  0  0  0  0  0  0  0  0  0
  1  7  1  0  0  0  0
  2  1  1  0  0  0  0
  2  8  1  0  0  0  0
  3  2  2  0  0  0  0
  4  5  2  0  0  0  0
  4  3  1  0  0  0  0
  5  6  1  0  0  0  0
  6  1  2  0  0  0  0
  9 10  1  0  0  0  0
  9  5  1  0  0  0  0
 11 10  1  0  0  0  0
 12 11  1  0  0  0  0
 13 12  1  0  0  0  0
 14 12  1  0  0  0  0
 14 15  1  0  0  0  0
 15  9  1  0  0  0  0
 16 19  1  0  0  0  0
 16  3  1  0  0  0  0
 17 18  1  0  0  0  0
 17 16  1  0  0  0  0
 18 23  1  0  0  0  0
 18 22  1  0  0  0  0
 18 16  1  0  0  0  0
 20 17  1  0  0  0  0
 21 17  1  0  0  0  0
M  END
>  <minimizedAffinity>
-4.22732544

$$$$
