
 OpenBabel03252509353D

 42 44  0  0  1  0  0  0  0  0999 V2000
   44.5100   35.4920   44.0060 O   0  0  0  0  0  0  0  0  0  0  0  0
   45.3600   34.2830   44.3470 P   0  0  1  0  0  0  0  0  0  0  0  0
   44.6910   32.8700   43.6920 O   0  0  0  0  0  0  0  0  0  0  0  0
   44.4740   33.0490   42.7560 H   0  0  0  0  0  0  0  0  0  0  0  0
   46.8880   34.5330   43.7230 O   0  0  0  0  0  0  0  0  0  0  0  0
   47.0260   33.8320   42.5190 C   0  0  1  0  0  0  0  0  0  0  0  0
   46.4470   34.6610   41.3680 C   0  0  0  0  0  0  0  0  0  0  0  0
   46.9680   33.8910   40.1810 C   0  0  0  0  0  0  0  0  0  0  0  0
   48.2530   33.2260   40.6430 C   0  0  0  0  0  0  0  0  0  0  0  0
   48.4460   33.6960   42.0670 C   0  0  1  0  0  0  0  0  0  0  0  0
   46.5080   32.8770   42.5070 H   0  0  0  0  0  0  0  0  0  0  0  0
   46.7140   35.7110   41.4030 H   0  0  0  0  0  0  0  0  0  0  0  0
   45.3440   34.6010   41.4490 H   0  0  0  0  0  0  0  0  0  0  0  0
   46.1910   33.1240   39.9000 H   0  0  0  0  0  0  0  0  0  0  0  0
   47.1440   34.5130   39.3040 H   0  0  0  0  0  0  0  0  0  0  0  0
   48.0950   32.1190   40.6230 H   0  0  0  0  0  0  0  0  0  0  0  0
   49.1070   33.4750   39.9940 H   0  0  0  0  0  0  0  0  0  0  0  0
   48.9680   32.8770   42.6360 H   0  0  0  0  0  0  0  0  0  0  0  0
   49.2090   34.9920   42.1240 C   0  0  0  0  0  0  0  0  0  0  0  0
   49.8190   35.0560   41.1810 H   0  0  0  0  0  0  0  0  0  0  0  0
   48.5780   35.8960   42.1200 H   0  0  0  0  0  0  0  0  0  0  0  0
   50.0210   35.0780   43.2340 O   0  0  0  0  0  0  0  0  0  0  0  0
   50.0570   34.2220   43.7210 H   0  0  0  0  0  0  0  0  0  0  0  0
   45.4210   34.0520   45.9980 O   0  0  0  0  0  0  0  0  0  0  0  0
   46.4070   33.1650   46.2880 C   0  0  0  0  0  0  0  0  0  0  0  0
   47.1720   33.7340   46.8960 H   0  0  0  0  0  0  0  0  0  0  0  0
   46.9740   32.7300   45.4690 H   0  0  0  0  0  0  0  0  0  0  0  0
   45.2270   31.3500   49.3140 C   0  0  0  0  0  0  0  0  0  0  0  0
   45.6460   32.4070   48.4980 C   0  0  0  0  0  0  0  0  0  0  0  0
   45.9590   32.0750   47.1730 C   0  0  0  0  0  0  0  0  0  0  0  0
   45.8420   30.7830   46.7630 N   0  0  0  0  0  0  0  0  0  0  0  0
   45.4350   29.7880   47.5790 C   0  0  0  0  0  0  0  0  0  0  0  0
   45.1330   30.0720   48.8370 N   0  0  0  0  0  0  0  0  0  0  0  0
   44.9760   31.5690   50.3460 H   0  0  0  0  0  0  0  0  0  0  0  0
   45.7060   33.3910   48.9110 H   0  0  0  0  0  0  0  0  0  0  0  0
   45.3460   28.4670   47.0550 N   0  0  0  0  0  0  0  0  0  0  0  0
   44.1110   28.0000   46.4510 C   0  0  0  0  0  2  0  0  0  0  0  0
   44.3980   26.9570   45.3890 C   0  0  0  0  0  2  0  0  0  0  0  0
   45.6980   27.3760   44.7330 C   0  0  0  0  0  3  0  0  0  0  0  0
   45.8490   26.7500   43.8410 H   0  0  0  0  0  0  0  0  0  0  0  0
   46.8800   27.3100   45.6740 C   0  0  0  0  0  2  0  0  0  0  0  0
   46.4820   27.5650   47.1140 C   0  0  0  0  0  2  0  0  0  0  0  0
  2  1  2  6  0  0  0
  2 24  1  0  0  0  0
  3  2  1  0  0  0  0
  4  3  1  0  0  0  0
  5  2  1  0  0  0  0
  6 11  1  1  0  0  0
  6  5  1  0  0  0  0
  7 12  1  0  0  0  0
  7 13  1  0  0  0  0
  7  6  1  0  0  0  0
  8  9  1  0  0  0  0
  8  7  1  0  0  0  0
  9 10  1  0  0  0  0
 10 19  1  0  0  0  0
 10  6  1  0  0  0  0
 10 18  1  1  0  0  0
 14  8  1  0  0  0  0
 15  8  1  0  0  0  0
 16  9  1  0  0  0  0
 17  9  1  0  0  0  0
 19 22  1  0  0  0  0
 20 19  1  0  0  0  0
 21 19  1  0  0  0  0
 22 23  1  0  0  0  0
 24 25  1  0  0  0  0
 25 26  1  0  0  0  0
 25 30  1  0  0  0  0
 27 25  1  0  0  0  0
 28 34  1  0  0  0  0
 29 35  1  0  0  0  0
 29 28  2  0  0  0  0
 30 29  1  0  0  0  0
 31 30  2  0  0  0  0
 31 32  1  0  0  0  0
 32 33  2  0  0  0  0
 33 28  1  0  0  0  0
 36 42  1  0  0  0  0
 36 32  1  0  0  0  0
 37 36  1  0  0  0  0
 38 37  1  0  0  0  0
 39 38  1  0  0  0  0
 39 41  1  0  0  0  0
 40 39  1  0  0  0  0
 41 42  1  0  0  0  0
M  END
>  <minimizedAffinity>
-6.01796293

>  <minimizedRMSD>
1.22138643

$$$$
