
 OpenBabel03252505553D

 34 36  0  0  0  0  0  0  0  0999 V2000
   44.9010   34.7910   45.0020 C   0  0  0  0  0  0  0  0  0  0  0  0
   45.8170   34.6180   43.9700 C   0  0  0  0  0  0  0  0  0  0  0  0
   46.8730   33.7340   44.2120 C   0  0  0  0  0  0  0  0  0  0  0  0
   46.9640   33.1020   45.3970 N   0  0  0  0  0  0  0  0  0  0  0  0
   46.0350   33.3120   46.3670 C   0  0  0  0  0  0  0  0  0  0  0  0
   45.0190   34.1450   46.1690 N   0  0  0  0  0  0  0  0  0  0  0  0
   44.0870   35.4680   44.8240 H   0  0  0  0  0  0  0  0  0  0  0  0
   47.8700   33.4460   43.2410 N   0  0  0  0  0  0  0  0  0  0  0  0
   49.0310   34.1850   42.7820 C   0  0  0  0  0  2  0  0  0  0  0  0
   50.1920   33.3420   42.3860 C   0  0  0  0  0  2  0  0  0  0  0  0
   49.8560   31.9950   41.8470 C   0  0  0  0  0  3  0  0  0  0  0  0
   50.4530   31.7550   40.9410 H   0  0  0  0  0  0  0  0  0  0  0  0
   48.4120   31.8360   41.4840 C   0  0  0  0  0  2  0  0  0  0  0  0
   47.5210   32.1270   42.6930 C   0  0  0  0  0  2  0  0  0  0  0  0
   45.6480   35.3620   42.6910 C   0  0  0  0  0  0  0  0  0  0  0  0
   44.4980   36.1130   42.9000 F   0  0  0  0  0  0  0  0  0  0  0  0
   45.3830   34.4160   41.7110 F   0  0  0  0  0  0  0  0  0  0  0  0
   46.7280   36.1300   42.4530 F   0  0  0  0  0  0  0  0  0  0  0  0
   46.0990   32.6790   47.5910 O   0  0  0  0  0  0  0  0  0  0  0  0
   45.7150   31.3260   47.7270 C   0  0  0  0  0  0  0  0  0  0  0  0
   44.9570   31.1560   48.5140 H   0  0  0  0  0  0  0  0  0  0  0  0
   45.2340   30.9980   46.7790 H   0  0  0  0  0  0  0  0  0  0  0  0
   46.9430   30.5300   47.9040 C   0  0  0  0  0  0  0  0  0  0  0  0
   47.2520   29.2560   47.4540 C   0  0  0  0  0  0  0  0  0  0  0  0
   48.4770   28.7530   47.7640 C   0  0  0  0  0  0  0  0  0  0  0  0
   49.3730   29.4350   48.4720 N   0  0  0  0  0  0  0  0  0  0  0  0
   49.0630   30.6680   48.9020 C   0  0  0  0  0  0  0  0  0  0  0  0
   47.8480   31.2310   48.6260 N   0  0  0  0  0  0  0  0  0  0  0  0
   46.4500   28.8180   46.8990 H   0  0  0  0  0  0  0  0  0  0  0  0
   48.6770   27.7540   47.3920 H   0  0  0  0  0  0  0  0  0  0  0  0
   50.1210   31.3500   49.6830 C   0  0  0  0  0  0  0  0  0  0  0  0
   50.0510   32.7110   49.5410 F   0  0  0  0  0  0  0  0  0  0  0  0
   51.3850   30.9210   49.2540 F   0  0  0  0  0  0  0  0  0  0  0  0
   50.0340   31.0570   51.0280 F   0  0  0  0  0  0  0  0  0  0  0  0
  1  6  1  0  0  0  0
  2  3  1  0  0  0  0
  2  1  2  0  0  0  0
  3  4  2  0  0  0  0
  4  5  1  0  0  0  0
  5 19  1  0  0  0  0
  6  5  2  0  0  0  0
  7  1  1  0  0  0  0
  8  3  1  0  0  0  0
  9  8  1  0  0  0  0
 10  9  1  0  0  0  0
 11 10  1  0  0  0  0
 12 11  1  0  0  0  0
 13 11  1  0  0  0  0
 13 14  1  0  0  0  0
 14  8  1  0  0  0  0
 15 16  1  0  0  0  0
 15  2  1  0  0  0  0
 17 15  1  0  0  0  0
 18 15  1  0  0  0  0
 19 20  1  0  0  0  0
 20 23  1  0  0  0  0
 20 21  1  0  0  0  0
 22 20  1  0  0  0  0
 23 28  1  0  0  0  0
 24 25  1  0  0  0  0
 24 23  2  0  0  0  0
 25 26  2  0  0  0  0
 26 27  1  0  0  0  0
 27 31  1  0  0  0  0
 28 27  2  0  0  0  0
 29 24  1  0  0  0  0
 30 25  1  0  0  0  0
 31 34  1  0  0  0  0
 32 31  1  0  0  0  0
 33 31  1  0  0  0  0
M  END
>  <minimizedAffinity>
-5.91472721

>  <minimizedRMSD>
0.570797443

$$$$
