
 OpenBabel03252508423D

 29 31  0  0  0  0  0  0  0  0999 V2000
   47.0410   34.4670   41.8880 C   0  0  0  0  0  0  0  0  0  0  0  0
   47.3770   33.3140   42.5930 C   0  0  0  0  0  0  0  0  0  0  0  0
   48.6770   33.1210   42.9970 C   0  0  0  0  0  0  0  0  0  0  0  0
   49.6110   34.0690   42.6970 C   0  0  0  0  0  0  0  0  0  0  0  0
   49.3330   35.2130   42.0110 C   0  0  0  0  0  0  0  0  0  0  0  0
   48.0000   35.3670   41.6210 C   0  0  0  0  0  0  0  0  0  0  0  0
   48.9690   32.2340   43.5470 H   0  0  0  0  0  0  0  0  0  0  0  0
   50.6510   33.9320   43.0120 H   0  0  0  0  0  0  0  0  0  0  0  0
   50.0510   35.9920   41.7540 H   0  0  0  0  0  0  0  0  0  0  0  0
   47.6500   36.2330   41.0690 H   0  0  0  0  0  0  0  0  0  0  0  0
   43.4010   35.4720   41.7120 C   0  0  0  0  0  0  0  0  0  0  0  0
   44.7310   35.4120   42.1850 C   0  0  0  0  0  0  0  0  0  0  0  0
   45.6470   34.6070   41.4910 C   0  0  0  0  0  0  0  0  0  0  0  0
   45.2100   33.9340   40.4070 N   0  0  0  0  0  0  0  0  0  0  0  0
   43.9220   34.0110   39.9740 C   0  0  0  0  0  0  0  0  0  0  0  0
   43.0230   34.7810   40.6300 N   0  0  0  0  0  0  0  0  0  0  0  0
   42.8510   36.1360   42.3680 H   0  0  0  0  0  0  0  0  0  0  0  0
   45.1560   35.9070   43.0240 H   0  0  0  0  0  0  0  0  0  0  0  0
   43.5560   33.4830   39.1150 H   0  0  0  0  0  0  0  0  0  0  0  0
   46.3110   32.2960   42.8980 C   0  0  0  0  0  0  0  0  0  0  0  0
   45.4340   32.5790   42.2830 H   0  0  0  0  0  0  0  0  0  0  0  0
   46.6990   31.2980   42.6150 H   0  0  0  0  0  0  0  0  0  0  0  0
   46.0010   32.2800   44.3050 N   0  0  0  0  0  0  0  0  0  0  0  0
   46.4450   31.1320   45.0030 C   0  0  0  0  0  2  0  0  0  0  0  0
   47.2110   31.3900   46.2600 C   0  0  0  0  0  2  0  0  0  0  0  0
   46.7280   32.5530   47.0660 C   0  0  0  0  0  3  0  0  0  0  0  0
   46.2010   32.2360   47.9980 H   0  0  0  0  0  0  0  0  0  0  0  0
   45.7870   33.4620   46.3190 C   0  0  0  0  0  2  0  0  0  0  0  0
   46.3590   33.5390   44.8980 C   0  0  0  0  0  2  0  0  0  0  0  0
  1  2  1  0  0  0  0
  2 20  1  0  0  0  0
  2  3  2  0  0  0  0
  3  7  1  0  0  0  0
  4  3  1  0  0  0  0
  4  8  1  0  0  0  0
  5  4  2  0  0  0  0
  6  1  2  0  0  0  0
  6  5  1  0  0  0  0
  9  5  1  0  0  0  0
 10  6  1  0  0  0  0
 11 12  1  0  0  0  0
 11 17  1  0  0  0  0
 12 18  1  0  0  0  0
 13  1  1  0  0  0  0
 13 12  2  0  0  0  0
 14 13  1  0  0  0  0
 15 14  2  0  0  0  0
 15 16  1  0  0  0  0
 16 11  2  0  0  0  0
 19 15  1  0  0  0  0
 20 23  1  0  0  0  0
 21 20  1  0  0  0  0
 22 20  1  0  0  0  0
 23 29  1  0  0  0  0
 23 24  1  0  0  0  0
 24 25  1  0  0  0  0
 25 26  1  0  0  0  0
 26 27  1  0  0  0  0
 28 26  1  0  0  0  0
 29 28  1  0  0  0  0
M  END
>  <minimizedAffinity>
-5.13945961

>  <minimizedRMSD>
3.51997089

$$$$
