
 OpenBabel03252508433D

 29 31  0  0  0  0  0  0  0  0999 V2000
   47.4550   33.2480   42.1060 C   0  0  0  0  0  0  0  0  0  0  0  0
   48.3790   33.4800   41.0890 C   0  0  0  0  0  0  0  0  0  0  0  0
   49.5100   32.7010   41.0100 C   0  0  0  0  0  0  0  0  0  0  0  0
   49.7000   31.7160   41.9330 C   0  0  0  0  0  0  0  0  0  0  0  0
   48.8280   31.4490   42.9460 C   0  0  0  0  0  0  0  0  0  0  0  0
   47.6930   32.2640   42.9870 C   0  0  0  0  0  0  0  0  0  0  0  0
   50.2460   32.8580   40.2300 H   0  0  0  0  0  0  0  0  0  0  0  0
   50.5950   31.0860   41.8850 H   0  0  0  0  0  0  0  0  0  0  0  0
   48.9470   30.6720   43.7010 H   0  0  0  0  0  0  0  0  0  0  0  0
   46.9240   32.1540   43.7430 H   0  0  0  0  0  0  0  0  0  0  0  0
   44.0460   34.7540   41.4730 C   0  0  0  0  0  0  0  0  0  0  0  0
   45.1270   33.8500   41.3750 C   0  0  0  0  0  0  0  0  0  0  0  0
   46.2810   34.1080   42.1300 C   0  0  0  0  0  0  0  0  0  0  0  0
   46.2970   35.2060   42.9130 N   0  0  0  0  0  0  0  0  0  0  0  0
   45.2400   36.0600   42.9880 C   0  0  0  0  0  0  0  0  0  0  0  0
   44.1190   35.8290   42.2670 N   0  0  0  0  0  0  0  0  0  0  0  0
   43.2570   34.3920   40.8260 H   0  0  0  0  0  0  0  0  0  0  0  0
   45.1970   32.9660   40.7880 H   0  0  0  0  0  0  0  0  0  0  0  0
   45.2330   36.9380   43.6050 H   0  0  0  0  0  0  0  0  0  0  0  0
   48.1240   34.5810   40.0940 C   0  0  0  0  0  0  0  0  0  0  0  0
   47.3640   35.2410   40.5580 H   0  0  0  0  0  0  0  0  0  0  0  0
   49.0780   35.1170   39.9260 H   0  0  0  0  0  0  0  0  0  0  0  0
   47.6760   34.0440   38.8350 N   0  0  0  0  0  0  0  0  0  0  0  0
   48.4000   34.4870   37.7040 C   0  0  0  0  0  2  0  0  0  0  0  0
   48.8800   33.4170   36.7770 C   0  0  0  0  0  2  0  0  0  0  0  0
   47.9370   32.2700   36.5950 C   0  0  0  0  0  3  0  0  0  0  0  0
   47.4460   32.2770   35.5940 H   0  0  0  0  0  0  0  0  0  0  0  0
   46.8360   32.2200   37.6220 C   0  0  0  0  0  2  0  0  0  0  0  0
   47.5110   32.6210   38.9420 C   0  0  0  0  0  2  0  0  0  0  0  0
  1 13  1  0  0  0  0
  1  6  1  0  0  0  0
  2  1  2  0  0  0  0
  3  2  1  0  0  0  0
  3  4  2  0  0  0  0
  4  5  1  0  0  0  0
  5  6  2  0  0  0  0
  5  9  1  0  0  0  0
  6 10  1  0  0  0  0
  7  3  1  0  0  0  0
  8  4  1  0  0  0  0
 11 16  1  0  0  0  0
 12 11  2  0  0  0  0
 12 13  1  0  0  0  0
 13 14  2  0  0  0  0
 14 15  1  0  0  0  0
 15 19  1  0  0  0  0
 16 15  2  0  0  0  0
 17 11  1  0  0  0  0
 18 12  1  0  0  0  0
 20 21  1  0  0  0  0
 20  2  1  0  0  0  0
 22 20  1  0  0  0  0
 23 29  1  0  0  0  0
 23 20  1  0  0  0  0
 24 23  1  0  0  0  0
 25 24  1  0  0  0  0
 26 25  1  0  0  0  0
 26 28  1  0  0  0  0
 27 26  1  0  0  0  0
 28 29  1  0  0  0  0
M  END
>  <minimizedAffinity>
-4.20496321

>  <minimizedRMSD>
4.5600667

$$$$
