
 OpenBabel03252505293D

 25 26  0  0  0  0  0  0  0  0999 V2000
   46.7780   31.7920   48.6480 O   0  0  0  0  0  0  0  0  0  0  0  0
   45.8140   32.0990   47.4910 P   0  0  1  0  0  0  0  0  0  0  0  0
   44.4640   32.9510   48.0170 O   0  0  0  0  0  0  0  0  0  0  0  0
   43.6560   32.6560   47.4940 H   0  0  0  0  0  0  0  0  0  0  0  0
   46.6920   32.9820   46.3460 O   0  0  0  0  0  0  0  0  0  0  0  0
   44.5470   35.4470   44.9370 C   0  0  0  0  0  0  0  0  0  0  0  0
   45.0030   35.5830   43.6090 C   0  0  0  0  0  0  0  0  0  0  0  0
   46.0890   34.7830   43.2210 C   0  0  0  0  0  0  0  0  0  0  0  0
   46.6250   33.9320   44.1510 N   0  0  0  0  0  0  0  0  0  0  0  0
   46.1490   33.8450   45.4010 C   0  0  0  0  0  0  0  0  0  0  0  0
   45.1170   34.5950   45.7970 N   0  0  0  0  0  0  0  0  0  0  0  0
   43.7130   36.0420   45.2830 H   0  0  0  0  0  0  0  0  0  0  0  0
   44.5280   36.2710   42.9470 H   0  0  0  0  0  0  0  0  0  0  0  0
   46.4730   34.8490   42.2250 H   0  0  0  0  0  0  0  0  0  0  0  0
   45.2970   30.6220   46.8970 O   0  0  0  0  0  0  0  0  0  0  0  0
   45.4730   29.6610   47.8740 C   0  0  0  0  0  0  0  0  0  0  0  0
   44.7860   29.8250   48.7220 H   0  0  0  0  0  0  0  0  0  0  0  0
   46.5050   29.6240   48.2870 H   0  0  0  0  0  0  0  0  0  0  0  0
   45.2600   28.3830   47.2060 N   0  0  0  0  0  0  0  0  0  0  0  0
   44.8000   27.4800   48.2440 C   0  0  0  0  0  0  0  0  0  0  0  0
   44.2990   26.1630   47.7090 C   0  0  0  0  0  0  0  0  0  0  0  0
   43.1820   26.3890   46.7440 C   0  0  0  0  0  0  0  0  0  0  0  0
   42.2570   26.7230   47.2320 H   0  0  0  0  0  0  0  0  0  0  0  0
   43.6270   27.3550   45.6830 C   0  0  0  0  0  0  0  0  0  0  0  0
   44.1880   28.6280   46.2600 C   0  0  0  0  0  0  0  0  0  0  0  0
  2  3  1  0  0  0  0
  2  1  2  1  0  0  0
  4  3  1  0  0  0  0
  5  2  1  0  0  0  0
  6 12  1  0  0  0  0
  6 11  1  0  0  0  0
  7  6  2  0  0  0  0
  8  7  1  0  0  0  0
  8  9  2  0  0  0  0
  9 10  1  0  0  0  0
 10 11  2  0  0  0  0
 10  5  1  0  0  0  0
 13  7  1  0  0  0  0
 14  8  1  0  0  0  0
 15  2  1  0  0  0  0
 15 16  1  0  0  0  0
 16 18  1  0  0  0  0
 16 17  1  0  0  0  0
 19 16  1  0  0  0  0
 19 20  1  0  0  0  0
 21 20  1  0  0  0  0
 22 23  1  0  0  0  0
 22 21  1  0  0  0  0
 24 25  1  0  0  0  0
 24 22  1  0  0  0  0
 25 19  1  0  0  0  0
M  END
>  <minimizedAffinity>
-4.66026497

>  <minimizedRMSD>
1.1468904

$$$$
