
 OpenBabel03252509353D

 42 44  0  0  1  0  0  0  0  0999 V2000
   44.5240   35.4720   44.0430 O   0  0  0  0  0  0  0  0  0  0  0  0
   45.3850   34.2660   44.3620 P   0  0  1  0  0  0  0  0  0  0  0  0
   44.7180   32.8550   43.7040 O   0  0  0  0  0  0  0  0  0  0  0  0
   44.4870   33.0400   42.7720 H   0  0  0  0  0  0  0  0  0  0  0  0
   46.9040   34.5310   43.7200 O   0  0  0  0  0  0  0  0  0  0  0  0
   47.0340   33.8340   42.5130 C   0  0  1  0  0  0  0  0  0  0  0  0
   46.4500   34.6690   41.3680 C   0  0  0  0  0  0  0  0  0  0  0  0
   46.9630   33.9010   40.1760 C   0  0  0  0  0  0  0  0  0  0  0  0
   48.2490   33.2320   40.6280 C   0  0  0  0  0  0  0  0  0  0  0  0
   48.4510   33.6970   42.0530 C   0  0  1  0  0  0  0  0  0  0  0  0
   46.5140   32.8800   42.5010 H   0  0  0  0  0  0  0  0  0  0  0  0
   46.7190   35.7180   41.4060 H   0  0  0  0  0  0  0  0  0  0  0  0
   45.3470   34.6100   41.4550 H   0  0  0  0  0  0  0  0  0  0  0  0
   46.1830   33.1360   39.8970 H   0  0  0  0  0  0  0  0  0  0  0  0
   47.1350   34.5260   39.2990 H   0  0  0  0  0  0  0  0  0  0  0  0
   48.0890   32.1260   40.6050 H   0  0  0  0  0  0  0  0  0  0  0  0
   49.1000   33.4830   39.9750 H   0  0  0  0  0  0  0  0  0  0  0  0
   48.9750   32.8750   42.6160 H   0  0  0  0  0  0  0  0  0  0  0  0
   49.2170   34.9920   42.1100 C   0  0  0  0  0  0  0  0  0  0  0  0
   49.8350   35.0490   41.1720 H   0  0  0  0  0  0  0  0  0  0  0  0
   48.5880   35.8970   42.0960 H   0  0  0  0  0  0  0  0  0  0  0  0
   50.0190   35.0820   43.2260 O   0  0  0  0  0  0  0  0  0  0  0  0
   50.0490   34.2280   43.7180 H   0  0  0  0  0  0  0  0  0  0  0  0
   45.4690   34.0210   46.0100 O   0  0  0  0  0  0  0  0  0  0  0  0
   46.4100   33.0780   46.2730 C   0  0  0  0  0  0  0  0  0  0  0  0
   47.2280   33.6030   46.8510 H   0  0  0  0  0  0  0  0  0  0  0  0
   46.9220   32.6050   45.4390 H   0  0  0  0  0  0  0  0  0  0  0  0
   45.2410   31.3510   49.3540 C   0  0  0  0  0  0  0  0  0  0  0  0
   45.6950   32.3750   48.5160 C   0  0  0  0  0  0  0  0  0  0  0  0
   45.9280   32.0220   47.1810 C   0  0  0  0  0  0  0  0  0  0  0  0
   45.7080   30.7400   46.7820 N   0  0  0  0  0  0  0  0  0  0  0  0
   45.2700   29.7760   47.6190 C   0  0  0  0  0  0  0  0  0  0  0  0
   45.0410   30.0810   48.8870 N   0  0  0  0  0  0  0  0  0  0  0  0
   45.0500   31.5880   50.3950 H   0  0  0  0  0  0  0  0  0  0  0  0
   45.8380   33.3540   48.9220 H   0  0  0  0  0  0  0  0  0  0  0  0
   45.0700   28.4620   47.1050 N   0  0  0  0  0  0  0  0  0  0  0  0
   43.9180   28.1690   46.2730 C   0  0  0  0  0  2  0  0  0  0  0  0
   44.2330   27.0470   45.3030 C   0  0  0  0  0  2  0  0  0  0  0  0
   45.6870   27.2250   44.9150 C   0  0  0  0  0  3  0  0  0  0  0  0
   45.9040   26.5440   44.0800 H   0  0  0  0  0  0  0  0  0  0  0  0
   46.6350   27.0160   46.0750 C   0  0  0  0  0  2  0  0  0  0  0  0
   46.0100   27.3960   47.4020 C   0  0  0  0  0  2  0  0  0  0  0  0
  2  1  2  6  0  0  0
  2 24  1  0  0  0  0
  3  2  1  0  0  0  0
  4  3  1  0  0  0  0
  5  2  1  0  0  0  0
  6 11  1  1  0  0  0
  6  5  1  0  0  0  0
  7 12  1  0  0  0  0
  7 13  1  0  0  0  0
  7  6  1  0  0  0  0
  8  9  1  0  0  0  0
  8  7  1  0  0  0  0
  9 10  1  0  0  0  0
 10 19  1  0  0  0  0
 10  6  1  0  0  0  0
 10 18  1  1  0  0  0
 14  8  1  0  0  0  0
 15  8  1  0  0  0  0
 16  9  1  0  0  0  0
 17  9  1  0  0  0  0
 19 22  1  0  0  0  0
 20 19  1  0  0  0  0
 21 19  1  0  0  0  0
 22 23  1  0  0  0  0
 24 25  1  0  0  0  0
 25 26  1  0  0  0  0
 25 30  1  0  0  0  0
 27 25  1  0  0  0  0
 28 34  1  0  0  0  0
 29 35  1  0  0  0  0
 29 28  2  0  0  0  0
 30 29  1  0  0  0  0
 31 30  2  0  0  0  0
 31 32  1  0  0  0  0
 32 33  2  0  0  0  0
 33 28  1  0  0  0  0
 36 42  1  0  0  0  0
 36 32  1  0  0  0  0
 37 36  1  0  0  0  0
 38 37  1  0  0  0  0
 39 38  1  0  0  0  0
 39 41  1  0  0  0  0
 40 39  1  0  0  0  0
 41 42  1  0  0  0  0
M  END
>  <minimizedAffinity>
-6.07893515

>  <minimizedRMSD>
1.11545491

$$$$
