
 OpenBabel03252509353D

 42 44  0  0  1  0  0  0  0  0999 V2000
   44.5180   35.4790   44.0200 O   0  0  0  0  0  0  0  0  0  0  0  0
   45.3690   34.2700   44.3550 P   0  0  1  0  0  0  0  0  0  0  0  0
   44.7010   32.8590   43.6970 O   0  0  0  0  0  0  0  0  0  0  0  0
   44.4830   33.0400   42.7610 H   0  0  0  0  0  0  0  0  0  0  0  0
   46.8970   34.5220   43.7310 O   0  0  0  0  0  0  0  0  0  0  0  0
   47.0320   33.8310   42.5210 C   0  0  1  0  0  0  0  0  0  0  0  0
   46.4470   34.6660   41.3790 C   0  0  0  0  0  0  0  0  0  0  0  0
   46.9650   33.9050   40.1850 C   0  0  0  0  0  0  0  0  0  0  0  0
   48.2530   33.2400   40.6370 C   0  0  0  0  0  0  0  0  0  0  0  0
   48.4500   33.7010   42.0630 C   0  0  1  0  0  0  0  0  0  0  0  0
   46.5160   32.8740   42.5050 H   0  0  0  0  0  0  0  0  0  0  0  0
   46.7110   35.7160   41.4200 H   0  0  0  0  0  0  0  0  0  0  0  0
   45.3440   34.6030   41.4630 H   0  0  0  0  0  0  0  0  0  0  0  0
   46.1890   33.1380   39.9010 H   0  0  0  0  0  0  0  0  0  0  0  0
   47.1370   34.5340   39.3100 H   0  0  0  0  0  0  0  0  0  0  0  0
   48.0980   32.1330   40.6090 H   0  0  0  0  0  0  0  0  0  0  0  0
   49.1050   33.4960   39.9860 H   0  0  0  0  0  0  0  0  0  0  0  0
   48.9770   32.8790   42.6250 H   0  0  0  0  0  0  0  0  0  0  0  0
   49.2110   34.9980   42.1270 C   0  0  0  0  0  0  0  0  0  0  0  0
   49.8180   35.0700   41.1830 H   0  0  0  0  0  0  0  0  0  0  0  0
   48.5780   35.9000   42.1310 H   0  0  0  0  0  0  0  0  0  0  0  0
   50.0250   35.0790   43.2350 O   0  0  0  0  0  0  0  0  0  0  0  0
   50.0650   34.2200   43.7160 H   0  0  0  0  0  0  0  0  0  0  0  0
   45.4320   34.0330   46.0060 O   0  0  0  0  0  0  0  0  0  0  0  0
   46.4060   33.1320   46.2900 C   0  0  0  0  0  0  0  0  0  0  0  0
   47.1690   33.6810   46.9180 H   0  0  0  0  0  0  0  0  0  0  0  0
   46.9800   32.7070   45.4700 H   0  0  0  0  0  0  0  0  0  0  0  0
   45.1260   31.2790   49.2520 C   0  0  0  0  0  0  0  0  0  0  0  0
   45.5630   32.3470   48.4600 C   0  0  0  0  0  0  0  0  0  0  0  0
   45.9380   32.0290   47.1480 C   0  0  0  0  0  0  0  0  0  0  0  0
   45.8600   30.7380   46.7270 N   0  0  0  0  0  0  0  0  0  0  0  0
   45.4340   29.7310   47.5180 C   0  0  0  0  0  0  0  0  0  0  0  0
   45.0740   30.0020   48.7640 N   0  0  0  0  0  0  0  0  0  0  0  0
   44.8280   31.4870   50.2730 H   0  0  0  0  0  0  0  0  0  0  0  0
   45.5900   33.3290   48.8810 H   0  0  0  0  0  0  0  0  0  0  0  0
   45.3890   28.4120   46.9830 N   0  0  0  0  0  0  0  0  0  0  0  0
   46.3920   27.4330   47.3630 C   0  0  0  0  0  2  0  0  0  0  0  0
   45.8180   26.0310   47.3010 C   0  0  0  0  0  2  0  0  0  0  0  0
   44.3690   26.1530   47.7330 C   0  0  0  0  0  3  0  0  0  0  0  0
   43.9680   25.1380   47.8740 H   0  0  0  0  0  0  0  0  0  0  0  0
   43.5330   26.9610   46.7660 C   0  0  0  0  0  2  0  0  0  0  0  0
   44.3450   28.0220   46.0520 C   0  0  0  0  0  2  0  0  0  0  0  0
  2  1  2  6  0  0  0
  2 24  1  0  0  0  0
  3  2  1  0  0  0  0
  4  3  1  0  0  0  0
  5  2  1  0  0  0  0
  6 11  1  1  0  0  0
  6  5  1  0  0  0  0
  7 12  1  0  0  0  0
  7 13  1  0  0  0  0
  7  6  1  0  0  0  0
  8  9  1  0  0  0  0
  8  7  1  0  0  0  0
  9 10  1  0  0  0  0
 10 19  1  0  0  0  0
 10  6  1  0  0  0  0
 10 18  1  1  0  0  0
 14  8  1  0  0  0  0
 15  8  1  0  0  0  0
 16  9  1  0  0  0  0
 17  9  1  0  0  0  0
 19 21  1  0  0  0  0
 19 22  1  0  0  0  0
 20 19  1  0  0  0  0
 22 23  1  0  0  0  0
 24 25  1  0  0  0  0
 25 26  1  0  0  0  0
 25 30  1  0  0  0  0
 27 25  1  0  0  0  0
 28 34  1  0  0  0  0
 29 35  1  0  0  0  0
 29 28  2  0  0  0  0
 30 29  1  0  0  0  0
 31 30  2  0  0  0  0
 31 32  1  0  0  0  0
 32 33  2  0  0  0  0
 33 28  1  0  0  0  0
 36 37  1  0  0  0  0
 36 32  1  0  0  0  0
 38 37  1  0  0  0  0
 38 39  1  0  0  0  0
 39 40  1  0  0  0  0
 41 39  1  0  0  0  0
 42 41  1  0  0  0  0
 42 36  1  0  0  0  0
M  END
>  <minimizedAffinity>
-6.24908972

>  <minimizedRMSD>
1.2802788

$$$$
