
 OpenBabel03242523223D

 41 44  0  0  1  0  0  0  0  0999 V2000
   47.3520   32.8100   44.0250 C   0  0  0  0  0  0  0  0  0  0  0  0
   48.1290   33.2710   43.0490 C   0  0  0  0  0  0  0  0  0  0  0  0
   48.9670   32.3500   42.5000 C   0  0  0  0  0  0  0  0  0  0  0  0
   48.9470   31.0340   42.9910 N   0  0  0  0  0  0  0  0  0  0  0  0
   48.1530   30.6410   43.9620 C   0  0  0  0  0  0  0  0  0  0  0  0
   47.2920   31.5420   44.5410 N   0  0  0  0  0  0  0  0  0  0  0  0
   49.7080   32.3770   41.7490 H   0  0  0  0  0  0  0  0  0  0  0  0
   48.1870   29.5910   44.3020 H   0  0  0  0  0  0  0  0  0  0  0  0
   48.2520   34.6140   42.6070 C   0  0  1  0  0  0  0  0  0  0  0  0
   49.1470   35.1650   41.7470 C   0  0  0  0  0  0  0  0  0  0  0  0
   47.7650   34.9900   41.1800 C   0  0  1  0  0  0  0  0  0  0  0  0
   47.9470   35.3520   43.4170 H   0  0  0  0  0  0  0  0  0  0  0  0
   49.9980   34.5570   41.3730 H   0  0  0  0  0  0  0  0  0  0  0  0
   49.4770   36.2480   41.6860 H   0  0  0  0  0  0  0  0  0  0  0  0
   47.1070   35.9150   41.2360 H   0  0  0  0  0  0  0  0  0  0  0  0
   47.6640   34.1180   40.1230 N   0  0  0  0  0  0  0  0  0  0  0  0
   48.5880   33.9340   39.1040 C   0  0  0  0  0  0  0  0  0  0  0  0
   47.9820   34.1390   37.6950 C   0  0  0  0  0  0  0  0  0  0  0  0
   46.9740   33.0170   37.5480 C   0  0  0  0  0  0  0  0  0  0  0  0
   47.4710   32.0510   37.6750 H   0  0  0  0  0  0  0  0  0  0  0  0
   45.9220   33.2830   38.6010 C   0  0  0  0  0  0  0  0  0  0  0  0
   46.5080   33.3150   39.9900 C   0  0  0  0  0  0  0  0  0  0  0  0
   46.3090   33.5630   44.7540 C   0  0  0  0  0  0  0  0  0  0  0  0
   45.7570   33.9600   45.7390 O   0  0  0  0  0  0  0  0  0  0  0  0
   44.4880   31.7950   42.9940 Cl  0  0  0  0  0  0  0  0  0  0  0  0
   44.5330   33.5390   42.8580 C   0  0  0  0  0  0  0  0  0  0  0  0
   45.4120   34.2100   43.7450 C   0  0  0  0  0  0  0  0  0  0  0  0
   45.3490   35.5700   43.5460 C   0  0  0  0  0  0  0  0  0  0  0  0
   44.6330   36.2910   42.6960 C   0  0  0  0  0  0  0  0  0  0  0  0
   43.8020   35.5790   41.8610 C   0  0  0  0  0  0  0  0  0  0  0  0
   43.7400   34.2160   41.9310 C   0  0  0  0  0  0  0  0  0  0  0  0
   45.9710   36.2210   44.2070 H   0  0  0  0  0  0  0  0  0  0  0  0
   44.6530   37.3790   42.6070 H   0  0  0  0  0  0  0  0  0  0  0  0
   43.1870   36.1450   41.1360 H   0  0  0  0  0  0  0  0  0  0  0  0
   42.8750   33.6260   41.0560 O   0  0  0  0  0  0  0  0  0  0  0  0
   40.6090   33.0450   39.8730 O   0  0  0  0  0  0  0  0  0  0  0  0
   41.2250   33.2830   41.2320 P   0  0  0  0  0  0  0  0  0  0  0  0
   41.0410   31.9250   42.2360 O   0  0  0  0  0  0  0  0  0  0  0  0
   40.8950   32.1690   43.1700 H   0  0  0  0  0  0  0  0  0  0  0  0
   40.4070   34.5370   42.0200 O   0  0  0  0  0  0  0  0  0  0  0  0
   40.8830   34.7030   42.8890 H   0  0  0  0  0  0  0  0  0  0  0  0
  1  6  1  0  0  0  0
  1 23  1  0  0  0  0
  2  1  2  0  0  0  0
  3  4  2  0  0  0  0
  3  2  1  0  0  0  0
  4  5  1  0  0  0  0
  5  8  1  0  0  0  0
  5  6  2  0  0  0  0
  7  3  1  0  0  0  0
  9  2  1  0  0  0  0
  9 12  1  1  0  0  0
 10  9  1  0  0  0  0
 11 15  1  6  0  0  0
 11 10  1  0  0  0  0
 11  9  1  0  0  0  0
 13 10  1  0  0  0  0
 14 10  1  0  0  0  0
 16 11  1  0  0  0  0
 17 16  1  0  0  0  0
 18 17  1  0  0  0  0
 19 20  1  0  0  0  0
 19 18  1  0  0  0  0
 19 21  1  0  0  0  0
 21 22  1  0  0  0  0
 22 16  1  0  0  0  0
 23 24  2  0  0  0  0
 26 25  1  0  0  0  0
 26 27  1  0  0  0  0
 27 23  1  0  0  0  0
 28 27  2  0  0  0  0
 28 32  1  0  0  0  0
 29 28  1  0  0  0  0
 30 31  1  0  0  0  0
 30 29  2  0  0  0  0
 31 26  2  0  0  0  0
 33 29  1  0  0  0  0
 34 30  1  0  0  0  0
 35 37  1  0  0  0  0
 35 31  1  0  0  0  0
 36 37  2  0  0  0  0
 37 40  1  0  0  0  0
 37 38  1  0  0  0  0
 38 39  1  0  0  0  0
 40 41  1  0  0  0  0
M  END
>  <minimizedAffinity>
-6.13476753

>  <minimizedRMSD>
0.930277109

$$$$
