
     RDKit          3D

 33 34  0  0  0  0  0  0  0  0999 V2000
   46.5365   33.6211   44.3340 C   0  0  0  0  0  0  0  0  0  0  0  0
   46.2397   33.2056   45.6463 C   0  0  0  0  0  0  0  0  0  0  0  0
   45.2965   33.9024   46.3639 C   0  0  0  0  0  0  0  0  0  0  0  0
   44.6832   34.9711   45.7745 N   0  0  0  0  0  0  0  0  0  0  0  0
   44.9836   35.3504   44.5169 C   0  0  0  0  0  0  0  0  0  0  0  0
   45.9031   34.6831   43.7984 N   0  0  0  0  0  0  0  0  0  0  0  0
   45.0392   33.4618   47.6443 O   0  0  0  0  0  0  0  0  0  0  0  0
   45.3259   30.8647   47.4646 O   0  0  0  0  0  0  0  0  0  0  0  0
   45.8125   32.0889   48.2618 P   0  0  2  0  0  0  0  0  0  0  0  0
   45.3129   31.8199   49.8511 O   0  0  0  0  0  0  0  0  0  0  0  0
   47.4519   32.2443   48.1409 O   0  0  0  0  0  0  0  0  0  0  0  0
   48.4538   31.4402   48.5641 C   0  0  0  0  0  0  0  0  0  0  0  0
   49.2512   31.9883   49.4022 O   0  0  0  0  0  0  0  0  0  0  0  0
   47.2618   33.1364   43.6953 H   0  0  0  0  0  0  0  0  0  0  0  0
   46.8144   32.3609   45.9216 H   0  0  0  0  0  0  0  0  0  0  0  0
   44.4147   36.2196   44.1802 H   0  0  0  0  0  0  0  0  0  0  0  0
   45.3880   32.6751   50.3206 H   0  0  0  0  0  0  0  0  0  0  0  0
   49.1916   30.2261   48.6113 N   0  0  0  0  0  0  0  0  0  0  0  0
   48.3890   29.1739   48.0270 C   0  0  0  0  0  0  0  0  0  0  0  0
   49.1318   27.8769   48.0385 C   0  0  0  0  0  0  0  0  0  0  0  0
   49.7991   27.5477   49.3400 C   0  0  0  0  0  0  0  0  0  0  0  0
   49.0645   27.0046   49.9733 H   0  0  0  0  0  0  0  0  0  0  0  0
   50.4112   28.7138   50.0441 C   0  0  0  0  0  0  0  0  0  0  0  0
   50.5102   29.9304   49.1167 C   0  0  0  0  0  0  0  0  0  0  0  0
   47.4375   29.0332   48.5814 H   0  0  0  0  0  0  0  0  0  0  0  0
   48.2220   29.4512   46.9483 H   0  0  0  0  0  0  0  0  0  0  0  0
   49.9118   27.9139   47.2256 H   0  0  0  0  0  0  0  0  0  0  0  0
   48.3961   27.0509   47.8151 H   0  0  0  0  0  0  0  0  0  0  0  0
   50.6091   26.8177   49.1046 H   0  0  0  0  0  0  0  0  0  0  0  0
   51.4342   28.5274   50.4200 H   0  0  0  0  0  0  0  0  0  0  0  0
   49.7890   29.0398   50.9140 H   0  0  0  0  0  0  0  0  0  0  0  0
   51.1951   29.6435   48.3023 H   0  0  0  0  0  0  0  0  0  0  0  0
   50.9087   30.7408   49.7496 H   0  0  0  0  0  0  0  0  0  0  0  0
  1  2  2  0
  2  3  1  0
  3  7  1  0
  4  3  2  0
  5  4  1  0
  6  1  1  0
  6  5  2  0
  9  7  1  6
  9  8  2  0
  9 10  1  0
 11  9  1  0
 11 12  1  0
 12 13  2  0
  1 14  1  0
  2 15  1  0
  5 16  1  0
 10 17  1  0
 18 19  1  0
 19 20  1  0
 20 21  1  0
 21 22  1  0
 21 23  1  0
 23 24  1  0
 24 18  1  0
 19 25  1  0
 19 26  1  0
 20 27  1  0
 20 28  1  0
 21 29  1  0
 23 30  1  0
 23 31  1  0
 24 32  1  0
 24 33  1  0
 12 18  1  0
M  ISO  5  14  14  15  14  16  14  17   3  22  15
M  END
>  <DihAtoms>  (1) 
10,11,17,18

>  <DihDeg>  (1) 
179.84295282041091

$$$$
