
 OpenBabel03242521433D

 36 38  0  0  1  0  0  0  0  0999 V2000
   44.8460   35.0120   42.9960 C   0  0  0  0  0  0  0  0  0  0  0  0
   46.0070   34.2800   42.7240 C   0  0  0  0  0  0  0  0  0  0  0  0
   46.7580   33.7660   43.7880 C   0  0  0  0  0  0  0  0  0  0  0  0
   46.3180   34.0070   45.0200 N   0  0  0  0  0  0  0  0  0  0  0  0
   45.1920   34.7170   45.2660 C   0  0  0  0  0  0  0  0  0  0  0  0
   44.4480   35.2250   44.2570 N   0  0  0  0  0  0  0  0  0  0  0  0
   46.2530   34.1550   41.6920 H   0  0  0  0  0  0  0  0  0  0  0  0
   44.8990   34.8710   46.2950 H   0  0  0  0  0  0  0  0  0  0  0  0
   48.9820   33.7740   42.6730 C   0  0  2  0  0  0  0  0  0  0  0  0
   47.9500   33.0180   43.4320 C   0  0  2  0  0  0  0  0  0  0  0  0
   47.7140   31.9210   42.5530 O   0  0  0  0  0  0  0  0  0  0  0  0
   48.9950   31.4630   42.3090 C   0  0  0  0  0  0  0  0  0  0  0  0
   49.9600   32.6110   42.4070 C   0  0  1  0  0  0  0  0  0  0  0  0
   48.6220   34.0910   41.6680 H   0  0  0  0  0  0  0  0  0  0  0  0
   48.3830   32.5890   44.3550 H   0  0  0  0  0  0  0  0  0  0  0  0
   49.2480   30.6120   42.9460 H   0  0  0  0  0  0  0  0  0  0  0  0
   49.0050   31.0960   41.2550 H   0  0  0  0  0  0  0  0  0  0  0  0
   50.6070   32.4440   43.2840 H   0  0  0  0  0  0  0  0  0  0  0  0
   49.5380   34.8240   43.3380 O   0  0  0  0  0  0  0  0  0  0  0  0
   50.5110   34.9160   43.1380 H   0  0  0  0  0  0  0  0  0  0  0  0
   50.6590   32.8710   41.2350 O   0  0  0  0  0  0  0  0  0  0  0  0
   51.4330   32.2720   41.1900 H   0  0  0  0  0  0  0  0  0  0  0  0
   44.0580   35.5630   41.8370 C   0  0  0  0  0  0  0  0  0  0  0  0
   44.6980   36.3430   41.3570 H   0  0  0  0  0  0  0  0  0  0  0  0
   43.1000   35.9470   42.1900 H   0  0  0  0  0  0  0  0  0  0  0  0
   43.0820   34.4370   39.7420 C   0  0  0  0  0  0  0  0  0  0  0  0
   42.2920   35.4090   39.5890 O   0  0  0  0  0  0  0  0  0  0  0  0
   43.9400   34.4910   40.8650 N   0  0  0  0  0  0  0  0  0  0  0  0
   44.5610   33.6650   41.0110 H   0  0  0  0  0  0  0  0  0  0  0  0
   43.1190   33.3370   38.8390 N   0  0  0  0  0  0  0  0  0  0  0  0
   42.2210   32.2000   38.6350 C   0  0  0  0  0  0  0  0  0  0  0  0
   42.9840   30.9980   39.1910 C   0  0  0  0  0  0  0  0  0  0  0  0
   44.2330   30.7870   38.4110 C   0  0  0  0  0  0  0  0  0  0  0  0
   44.9010   30.1280   39.0400 H   0  0  0  0  0  0  0  0  0  0  0  0
   45.0280   31.9940   38.0800 C   0  0  0  0  0  0  0  0  0  0  0  0
   44.2440   33.2610   37.9000 C   0  0  0  0  0  0  0  0  0  0  0  0
  1  6  1  0  0  0  0
  2  1  2  0  0  0  0
  2  3  1  0  0  0  0
  3  4  2  0  0  0  0
  4  5  1  0  0  0  0
  5  8  1  0  0  0  0
  6  5  2  0  0  0  0
  7  2  1  0  0  0  0
  9 14  1  6  0  0  0
  9 19  1  0  0  0  0
  9 10  1  0  0  0  0
 10  3  1  0  0  0  0
 10 15  1  1  0  0  0
 11 10  1  0  0  0  0
 12 13  1  0  0  0  0
 12 11  1  0  0  0  0
 12 16  1  0  0  0  0
 13  9  1  0  0  0  0
 13 18  1  1  0  0  0
 17 12  1  0  0  0  0
 20 19  1  0  0  0  0
 21 13  1  0  0  0  0
 22 21  1  0  0  0  0
 23 25  1  0  0  0  0
 23  1  1  0  0  0  0
 24 23  1  0  0  0  0
 26 28  1  0  0  0  0
 27 26  2  0  0  0  0
 28 29  1  0  0  0  0
 28 23  1  0  0  0  0
 30 26  1  0  0  0  0
 31 30  1  0  0  0  0
 31 32  1  0  0  0  0
 33 34  1  0  0  0  0
 33 32  1  0  0  0  0
 35 33  1  0  0  0  0
 36 35  1  0  0  0  0
 36 30  1  0  0  0  0
M  END
>  <minimizedAffinity>
-5.08439827

>  <minimizedRMSD>
6.65496492

$$$$
