
 OpenBabel03242522503D

 24 25  0  0  0  0  0  0  0  0999 V2000
   45.1730   30.6870   47.6360 O   0  0  0  0  0  0  0  0  0  0  0  0
   45.7650   31.9160   48.3500 P   0  0  2  0  0  0  0  0  0  0  0  0
   45.2040   31.8280   49.9380 O   0  0  0  0  0  0  0  0  0  0  0  0
   45.3560   32.7060   50.3430 H   0  0  0  0  0  0  0  0  0  0  0  0
   45.1540   33.3060   47.6030 O   0  0  0  0  0  0  0  0  0  0  0  0
   46.9720   33.2260   44.4540 C   0  0  0  0  0  0  0  0  0  0  0  0
   46.5560   32.9180   45.7630 C   0  0  0  0  0  0  0  0  0  0  0  0
   45.5280   33.6400   46.3190 C   0  0  0  0  0  0  0  0  0  0  0  0
   44.9480   34.6310   45.5780 N   0  0  0  0  0  0  0  0  0  0  0  0
   45.3640   34.9080   44.3260 C   0  0  0  0  0  0  0  0  0  0  0  0
   46.3680   34.2130   43.7640 N   0  0  0  0  0  0  0  0  0  0  0  0
   47.7710   32.7130   43.9360 H   0  0  0  0  0  0  0  0  0  0  0  0
   47.1220   32.1210   46.1700 H   0  0  0  0  0  0  0  0  0  0  0  0
   44.8080   35.7240   43.8570 H   0  0  0  0  0  0  0  0  0  0  0  0
   47.4150   31.8920   48.2690 O   0  0  0  0  0  0  0  0  0  0  0  0
   48.3030   30.9070   48.5300 C   0  0  0  0  0  0  0  0  0  0  0  0
   48.5420   30.7280   49.7750 O   0  0  0  0  0  0  0  0  0  0  0  0
   49.2040   29.8640   48.1780 N   0  0  0  0  0  0  0  0  0  0  0  0
   48.4360   28.7030   47.7850 C   0  0  0  0  0  2  0  0  0  0  0  0
   49.3410   27.5820   47.3880 C   0  0  0  0  0  2  0  0  0  0  0  0
   50.4770   27.3290   48.3330 C   0  0  0  0  0  3  0  0  0  0  0  0
   50.1230   26.6190   49.1110 H   0  0  0  0  0  0  0  0  0  0  0  0
   51.0950   28.5580   48.9160 C   0  0  0  0  0  2  0  0  0  0  0  0
   50.6450   29.8140   48.1610 C   0  0  0  0  0  2  0  0  0  0  0  0
  2  1  2  6  0  0  0
  2  3  1  0  0  0  0
  3  4  1  0  0  0  0
  5  2  1  0  0  0  0
  6  7  1  0  0  0  0
  7 13  1  0  0  0  0
  7  8  2  0  0  0  0
  8  5  1  0  0  0  0
  9  8  1  0  0  0  0
 10  9  2  0  0  0  0
 11 10  1  0  0  0  0
 11  6  2  0  0  0  0
 12  6  1  0  0  0  0
 14 10  1  0  0  0  0
 15  2  1  0  0  0  0
 15 16  1  0  0  0  0
 16 17  2  0  0  0  0
 18 16  1  0  0  0  0
 19 18  1  0  0  0  0
 20 19  1  0  0  0  0
 20 21  1  0  0  0  0
 21 23  1  0  0  0  0
 21 22  1  0  0  0  0
 24 18  1  0  0  0  0
 24 23  1  0  0  0  0
M  END
>  <minimizedAffinity>
-4.61807585

>  <minimizedRMSD>
0.904060721

$$$$
