
     RDKit          3D

 33 34  0  0  0  0  0  0  0  0999 V2000
   46.5365   33.6211   44.3340 C   0  0  0  0  0  0  0  0  0  0  0  0
   46.2397   33.2056   45.6463 C   0  0  0  0  0  0  0  0  0  0  0  0
   45.2965   33.9024   46.3639 C   0  0  0  0  0  0  0  0  0  0  0  0
   44.6832   34.9711   45.7745 N   0  0  0  0  0  0  0  0  0  0  0  0
   44.9836   35.3504   44.5169 C   0  0  0  0  0  0  0  0  0  0  0  0
   45.9031   34.6831   43.7984 N   0  0  0  0  0  0  0  0  0  0  0  0
   45.0392   33.4618   47.6443 O   0  0  0  0  0  0  0  0  0  0  0  0
   45.3259   30.8647   47.4646 O   0  0  0  0  0  0  0  0  0  0  0  0
   45.8125   32.0889   48.2618 P   0  0  2  0  0  0  0  0  0  0  0  0
   45.3129   31.8199   49.8511 O   0  0  0  0  0  0  0  0  0  0  0  0
   47.4519   32.2443   48.1409 O   0  0  0  0  0  0  0  0  0  0  0  0
   48.4538   31.4402   48.5641 C   0  0  0  0  0  0  0  0  0  0  0  0
   49.2512   31.9883   49.4022 O   0  0  0  0  0  0  0  0  0  0  0  0
   47.2618   33.1364   43.6953 H   0  0  0  0  0  0  0  0  0  0  0  0
   46.8144   32.3609   45.9216 H   0  0  0  0  0  0  0  0  0  0  0  0
   44.4147   36.2196   44.1802 H   0  0  0  0  0  0  0  0  0  0  0  0
   45.3880   32.6751   50.3206 H   0  0  0  0  0  0  0  0  0  0  0  0
   49.1916   30.2261   48.6113 N   0  0  0  0  0  0  0  0  0  0  0  0
   50.4156   30.3989   47.8599 C   0  0  0  0  0  0  0  0  0  0  0  0
   51.2359   29.1500   47.8950 C   0  0  0  0  0  0  0  0  0  0  0  0
   50.4712   27.8895   47.6232 C   0  0  0  0  0  0  0  0  0  0  0  0
   50.4664   27.7224   46.5242 H   0  0  0  0  0  0  0  0  0  0  0  0
   49.1010   27.8465   48.2155 C   0  0  0  0  0  0  0  0  0  0  0  0
   48.9095   28.9628   49.2485 C   0  0  0  0  0  0  0  0  0  0  0  0
   50.2087   30.6479   46.7979 H   0  0  0  0  0  0  0  0  0  0  0  0
   51.0092   31.2007   48.3825 H   0  0  0  0  0  0  0  0  0  0  0  0
   51.7157   29.0756   48.9122 H   0  0  0  0  0  0  0  0  0  0  0  0
   52.0390   29.2371   47.1069 H   0  0  0  0  0  0  0  0  0  0  0  0
   51.0680   27.0561   48.0635 H   0  0  0  0  0  0  0  0  0  0  0  0
   48.8638   26.9000   48.7354 H   0  0  0  0  0  0  0  0  0  0  0  0
   48.3135   28.0080   47.4382 H   0  0  0  0  0  0  0  0  0  0  0  0
   49.6242   28.7572   50.0620 H   0  0  0  0  0  0  0  0  0  0  0  0
   47.8573   28.8794   49.5680 H   0  0  0  0  0  0  0  0  0  0  0  0
  1  2  2  0
  2  3  1  0
  3  7  1  0
  4  3  2  0
  5  4  1  0
  6  1  1  0
  6  5  2  0
  9  7  1  6
  9  8  2  0
  9 10  1  0
 11  9  1  0
 11 12  1  0
 12 13  2  0
  1 14  1  0
  2 15  1  0
  5 16  1  0
 10 17  1  0
 18 19  1  0
 19 20  1  0
 20 21  1  0
 21 22  1  0
 21 23  1  0
 23 24  1  0
 24 18  1  0
 19 25  1  0
 19 26  1  0
 20 27  1  0
 20 28  1  0
 21 29  1  0
 23 30  1  0
 23 31  1  0
 24 32  1  0
 24 33  1  0
 12 18  1  0
M  ISO  5  14  14  15  14  16  14  17   3  22  15
M  END
>  <DihAtoms>  (1) 
10,11,17,18

>  <DihDeg>  (1) 
179.84295282041091

$$$$
