
 OpenBabel03242516523D

 43 46  0  0  1  0  0  0  0  0999 V2000
   47.7670   32.7770   41.6360 C   0  0  1  0  0  0  0  0  0  0  0  0
   47.3340   32.0920   40.4180 C   0  0  0  0  0  0  0  0  0  0  0  0
   48.3200   32.5110   39.3300 C   0  0  0  0  0  0  0  0  0  0  0  0
   48.0420   33.9770   39.0360 C   0  0  0  0  0  0  0  0  0  0  0  0
   48.1020   34.8630   40.2420 C   0  0  0  0  0  0  0  0  0  0  0  0
   47.6430   34.3010   41.5200 C   0  0  1  0  0  0  0  0  0  0  0  0
   48.8880   32.6390   41.7400 H   0  0  0  0  0  0  0  0  0  0  0  0
   47.3130   31.0120   40.5530 H   0  0  0  0  0  0  0  0  0  0  0  0
   46.3370   32.4360   40.0290 H   0  0  0  0  0  0  0  0  0  0  0  0
   48.1800   31.9570   38.4050 H   0  0  0  0  0  0  0  0  0  0  0  0
   49.3480   32.4590   39.7380 H   0  0  0  0  0  0  0  0  0  0  0  0
   48.7380   34.3470   38.2730 H   0  0  0  0  0  0  0  0  0  0  0  0
   47.0180   34.0070   38.5820 H   0  0  0  0  0  0  0  0  0  0  0  0
   47.4610   35.7610   39.9990 H   0  0  0  0  0  0  0  0  0  0  0  0
   49.1340   35.2740   40.3030 H   0  0  0  0  0  0  0  0  0  0  0  0
   48.3180   34.6930   42.3400 H   0  0  0  0  0  0  0  0  0  0  0  0
   45.4490   31.0120   44.0430 C   0  0  0  0  0  0  0  0  0  0  0  0
   46.0820   31.4780   42.8830 C   0  0  0  0  0  0  0  0  0  0  0  0
   47.1800   32.3420   42.8840 C   0  0  0  0  0  0  0  0  0  0  0  0
   47.6120   32.7160   44.0890 N   0  0  0  0  0  0  0  0  0  0  0  0
   47.0120   32.2760   45.2260 C   0  0  0  0  0  0  0  0  0  0  0  0
   45.9660   31.4520   45.2190 N   0  0  0  0  0  0  0  0  0  0  0  0
   44.6060   30.3440   43.8970 H   0  0  0  0  0  0  0  0  0  0  0  0
   45.7110   31.1580   41.9140 H   0  0  0  0  0  0  0  0  0  0  0  0
   47.4170   32.6230   46.1860 H   0  0  0  0  0  0  0  0  0  0  0  0
   46.3070   34.7630   41.8970 C   0  0  0  0  0  0  0  0  0  0  0  0
   45.9850   35.4850   43.0530 C   0  0  0  0  0  0  0  0  0  0  0  0
   44.6390   35.8340   43.1970 C   0  0  0  0  0  0  0  0  0  0  0  0
   43.7550   35.4470   42.2080 C   0  0  0  0  0  0  0  0  0  0  0  0
   44.0970   34.7320   41.0710 C   0  0  0  0  0  0  0  0  0  0  0  0
   45.4110   34.3990   40.9460 N   0  0  0  0  0  0  0  0  0  0  0  0
   46.7770   35.7050   43.7170 H   0  0  0  0  0  0  0  0  0  0  0  0
   44.3750   36.3810   44.0660 H   0  0  0  0  0  0  0  0  0  0  0  0
   42.7030   35.7110   42.3050 H   0  0  0  0  0  0  0  0  0  0  0  0
   43.0880   34.3740   40.0850 C   0  0  0  0  0  0  0  0  0  0  0  0
   42.7560   35.2220   39.2180 O   0  0  0  0  0  0  0  0  0  0  0  0
   42.3640   33.1820   39.9040 N   0  0  0  0  0  0  0  0  0  0  0  0
   42.2630   32.7010   38.5400 C   0  0  0  0  0  0  0  0  0  0  0  0
   40.8320   32.9480   38.0810 C   0  0  0  0  0  0  0  0  0  0  0  0
   39.8850   32.3720   39.0920 C   0  0  0  0  0  0  0  0  0  0  0  0
   39.1950   33.1190   39.5130 H   0  0  0  0  0  0  0  0  0  0  0  0
   40.5670   31.5640   40.1740 C   0  0  0  0  0  0  0  0  0  0  0  0
   41.6710   32.3060   40.8600 C   0  0  0  0  0  0  0  0  0  0  0  0
  1  7  1  1  0  0  0
  1 19  1  0  0  0  0
  2  8  1  0  0  0  0
  2  1  1  0  0  0  0
  3 11  1  0  0  0  0
  3  2  1  0  0  0  0
  4  3  1  0  0  0  0
  4  5  1  0  0  0  0
  5 15  1  0  0  0  0
  5  6  1  0  0  0  0
  6  1  1  0  0  0  0
  6 26  1  0  0  0  0
  6 16  1  1  0  0  0
  9  2  1  0  0  0  0
 10  3  1  0  0  0  0
 12  4  1  0  0  0  0
 13  4  1  0  0  0  0
 14  5  1  0  0  0  0
 17 22  1  0  0  0  0
 18 19  1  0  0  0  0
 18 17  2  0  0  0  0
 19 20  2  0  0  0  0
 20 21  1  0  0  0  0
 21 25  1  0  0  0  0
 22 21  2  0  0  0  0
 23 17  1  0  0  0  0
 24 18  1  0  0  0  0
 26 27  1  0  0  0  0
 27 28  2  0  0  0  0
 27 32  1  0  0  0  0
 28 33  1  0  0  0  0
 29 34  1  0  0  0  0
 29 28  1  0  0  0  0
 30 29  2  0  0  0  0
 31 30  1  0  0  0  0
 31 26  2  0  0  0  0
 35 30  1  0  0  0  0
 36 35  2  0  0  0  0
 37 35  1  0  0  0  0
 37 43  1  0  0  0  0
 38 37  1  0  0  0  0
 39 38  1  0  0  0  0
 39 40  1  0  0  0  0
 40 41  1  0  0  0  0
 40 42  1  0  0  0  0
 42 43  1  0  0  0  0
M  END
>  <minimizedAffinity>
-5.78981113

>  <minimizedRMSD>
0.864845812

$$$$
