
 OpenBabel03252506213D

 35 37  0  0  0  0  0  0  0  0999 V2000
   44.9250   35.5360   42.5750 C   0  0  0  0  0  0  0  0  0  0  0  0
   43.8070   35.5520   41.7190 C   0  0  0  0  0  0  0  0  0  0  0  0
   43.8090   34.6760   40.6170 C   0  0  0  0  0  0  0  0  0  0  0  0
   44.8730   33.8710   40.4350 N   0  0  0  0  0  0  0  0  0  0  0  0
   45.9320   33.8880   41.2850 C   0  0  0  0  0  0  0  0  0  0  0  0
   45.9520   34.7170   42.3480 N   0  0  0  0  0  0  0  0  0  0  0  0
   43.0180   36.2300   41.9550 H   0  0  0  0  0  0  0  0  0  0  0  0
   42.9620   34.6860   39.9650 H   0  0  0  0  0  0  0  0  0  0  0  0
   48.4910   35.2190   40.3710 Cl  0  0  0  0  0  0  0  0  0  0  0  0
   48.2520   33.5190   40.5760 C   0  0  0  0  0  0  0  0  0  0  0  0
   47.0520   32.9640   40.9990 C   0  0  0  0  0  0  0  0  0  0  0  0
   46.8380   31.6250   41.1690 C   0  0  0  0  0  0  0  0  0  0  0  0
   47.8870   30.7870   40.9000 C   0  0  0  0  0  0  0  0  0  0  0  0
   49.1290   31.2180   40.4720 C   0  0  0  0  0  0  0  0  0  0  0  0
   49.2530   32.5990   40.3280 C   0  0  0  0  0  0  0  0  0  0  0  0
   45.8720   31.2670   41.5040 H   0  0  0  0  0  0  0  0  0  0  0  0
   47.7320   29.7210   41.0290 H   0  0  0  0  0  0  0  0  0  0  0  0
   49.9640   30.5670   40.2570 H   0  0  0  0  0  0  0  0  0  0  0  0
   50.2220   32.9710   39.9910 H   0  0  0  0  0  0  0  0  0  0  0  0
   44.9310   36.4460   43.7280 C   0  0  0  0  0  3  0  0  0  0  0  0
   45.2800   37.7020   43.5210 C   0  0  0  0  0  3  0  0  0  0  0  0
   45.2950   38.6490   44.6720 C   0  0  0  0  0  0  0  0  0  0  0  0
   44.6270   38.3130   45.4970 H   0  0  0  0  0  0  0  0  0  0  0  0
   46.3320   38.6830   45.0740 H   0  0  0  0  0  0  0  0  0  0  0  0
   44.8870   39.9520   44.1610 N   0  0  0  0  0  0  0  0  0  0  0  0
   44.6980   40.1220   43.1280 H   0  0  0  0  0  0  0  0  0  0  0  0
   44.8040   39.7550   46.9260 F   0  0  0  0  0  0  0  0  0  0  0  0
   44.6690   41.0000   46.3910 C   0  0  0  0  0  0  0  0  0  0  0  0
   44.7110   41.0910   45.0140 C   0  0  0  0  0  0  0  0  0  0  0  0
   44.5820   42.3320   44.3770 C   0  0  0  0  0  0  0  0  0  0  0  0
   44.6010   42.5030   43.3100 H   0  0  0  0  0  0  0  0  0  0  0  0
   44.4150   43.4000   45.2440 C   0  0  0  0  0  0  0  0  0  0  0  0
   44.3110   44.3880   44.7690 H   0  0  0  0  0  0  0  0  0  0  0  0
   44.3670   43.3630   46.6220 C   0  0  0  0  0  3  0  0  0  0  0  0
   44.5010   42.1130   47.1790 C   0  0  0  0  0  3  0  0  0  0  0  0
  1 20  1  0  0  0  0
  2  7  1  0  0  0  0
  2  1  2  0  0  0  0
  3  2  1  0  0  0  0
  4  3  2  0  0  0  0
  4  5  1  0  0  0  0
  5  6  2  0  0  0  0
  6  1  1  0  0  0  0
  8  3  1  0  0  0  0
  9 10  1  0  0  0  0
 10 11  1  0  0  0  0
 11 12  2  0  0  0  0
 11  5  1  0  0  0  0
 12 16  1  0  0  0  0
 13 17  1  0  0  0  0
 13 12  1  0  0  0  0
 14 13  2  0  0  0  0
 15 14  1  0  0  0  0
 15 10  2  0  0  0  0
 18 14  1  0  0  0  0
 19 15  1  0  0  0  0
 21 20  2  0  0  0  0
 21 22  1  0  0  0  0
 22 24  1  0  0  0  0
 22 23  1  0  0  0  0
 25 22  1  0  0  0  0
 25 29  1  0  0  0  0
 26 25  1  0  0  0  0
 28 27  1  0  0  0  0
 28 35  1  0  0  0  0
 29 28  2  0  0  0  0
 30 29  1  0  0  0  0
 30 32  2  0  0  0  0
 31 30  1  0  0  0  0
 32 34  1  0  0  0  0
 33 32  1  0  0  0  0
 34 35  2  0  0  0  0
M  END
>  <minimizedAffinity>
-3.63966227

>  <minimizedRMSD>
1.22934759

$$$$
