REMARK  Name = 
REMARK  3 active torsions:
REMARK  status: ('A' for Active; 'I' for Inactive)
REMARK    1  A    between atoms: C_2  and  C_7
REMARK    2  A    between atoms: C_7  and  O_8
REMARK    3  A    between atoms: O_8  and  C_16
REMARK                            x       y       z     vdW  Elec       q    Type
REMARK                         _______ _______ _______ _____ _____    ______ ____
ROOT
ATOM      1  C   UNL     1      44.256  35.710  41.981  0.00  0.00    +0.000 C 
ATOM      2  H   UNL     1      44.953  35.337  41.182  0.00  0.00    +0.000 HD
ATOM      3  H   UNL     1      44.432  36.813  42.013  0.00  0.00    +0.000 HD
ENDROOT
BRANCH   1   5
ATOM      4  C   UNL     1      44.383  35.771  44.402  0.00  0.00    +0.000 A 
ATOM      5  C   UNL     1      44.657  35.067  43.249  0.00  0.00    +0.000 A 
ATOM      6  C   UNL     1      45.278  33.832  43.381  0.00  0.00    +0.000 A 
ATOM      7  N   UNL     1      45.571  33.403  44.621  0.00  0.00    +0.000 NA
ATOM      8  C   UNL     1      45.296  34.103  45.732  0.00  0.00    +0.000 A 
ATOM      9  N   UNL     1      44.687  35.319  45.640  0.00  0.00    +0.000 NA
ATOM     10  H   UNL     1      43.900  36.742  44.392  0.00  0.00    +0.000 HD
ATOM     11  H   UNL     1      45.479  33.307  42.466  0.00  0.00    +0.000 HD
ATOM     12  H   UNL     1      45.613  33.581  46.632  0.00  0.00    +0.000 HD
ENDBRANCH   1   5
BRANCH   1  13
ATOM     13  O   UNL     1      42.964  35.377  41.599  0.00  0.00    +0.000 OA
BRANCH  13  16
ATOM     14  F   UNL     1      43.250  33.801  39.433  0.00  0.00    +0.000 F 
ATOM     15  C   UNL     1      42.477  34.913  39.417  0.00  0.00    +0.000 A 
ATOM     16  C   UNL     1      42.273  35.784  40.493  0.00  0.00    +0.000 A 
ATOM     17  C   UNL     1      41.452  36.880  40.321  0.00  0.00    +0.000 A 
ATOM     18  H   UNL     1      41.362  37.483  41.202  0.00  0.00    +0.000 HD
ATOM     19  C   UNL     1      40.842  37.111  39.105  0.00  0.00    +0.000 A 
ATOM     20  H   UNL     1      40.209  37.989  39.035  0.00  0.00    +0.000 HD
ATOM     21  C   UNL     1      41.038  36.255  38.039  0.00  0.00    +0.000 A 
ATOM     22  C   UNL     1      41.861  35.141  38.182  0.00  0.00    +0.000 A 
ENDBRANCH  13  16
ENDBRANCH   1  13
TORSDOF 3
