
     RDKit          3D

 39 41  0  0  0  0  0  0  0  0999 V2000
   45.1379   36.0056   43.0675 C   0  0  0  0  0  0  0  0  0  0  0  0
   44.1492   35.7991   42.0875 C   0  0  0  0  0  0  0  0  0  0  0  0
   44.3830   34.8084   41.1152 C   0  0  0  0  0  0  0  0  0  0  0  0
   45.5337   34.1108   41.1693 N   0  0  0  0  0  0  0  0  0  0  0  0
   46.4616   34.3429   42.1335 C   0  0  0  0  0  0  0  0  0  0  0  0
   46.2604   35.2858   43.0748 N   0  0  0  0  0  0  0  0  0  0  0  0
   48.9576   35.8054   41.2422 Cl  0  0  0  0  0  0  0  0  0  0  0  0
   48.8705   34.1425   41.7060 C   0  0  0  0  0  0  0  0  0  0  0  0
   47.6938   33.5232   42.1073 C   0  0  0  0  0  0  0  0  0  0  0  0
   47.5986   32.2124   42.4783 C   0  0  0  0  0  0  0  0  0  0  0  0
   48.7502   31.4697   42.4476 C   0  0  0  0  0  0  0  0  0  0  0  0
   49.9810   31.9705   42.0673 C   0  0  0  0  0  0  0  0  0  0  0  0
   49.9805   33.3184   41.7055 C   0  0  0  0  0  0  0  0  0  0  0  0
   44.9008   37.0378   44.0855 C   0  0  0  0  0  0  0  0  0  0  0  0
   45.4765   38.2136   43.9191 C   0  0  0  0  0  0  0  0  0  0  0  0
   45.2540   39.2811   44.9363 C   0  0  0  0  0  0  0  0  0  0  0  0
   44.7686   40.4569   44.2242 N   0  0  0  0  0  0  0  0  0  0  0  0
   43.2739   36.4074   42.1362 H   0  0  0  0  0  0  0  0  0  0  0  0
   43.6349   34.6479   40.3687 H   0  0  0  0  0  0  0  0  0  0  0  0
   46.6441   31.8002   42.7797 H   0  0  0  0  0  0  0  0  0  0  0  0
   48.6900   30.4272   42.7395 H   0  0  0  0  0  0  0  0  0  0  0  0
   50.8950   31.3967   42.0387 H   0  0  0  0  0  0  0  0  0  0  0  0
   50.9372   33.7431   41.4003 H   0  0  0  0  0  0  0  0  0  0  0  0
   44.2834   36.9005   44.9675 H   0  0  0  0  0  0  0  0  0  0  0  0
   46.1185   38.5113   43.0990 H   0  0  0  0  0  0  0  0  0  0  0  0
   44.5361   38.9619   45.7244 H   0  0  0  0  0  0  0  0  0  0  0  0
   46.2280   39.4868   45.4344 H   0  0  0  0  0  0  0  0  0  0  0  0
   44.6281   40.4635   43.1704 H   0  0  0  0  0  0  0  0  0  0  0  0
   42.1591   41.2801   44.6754 F   0  0  0  0  0  0  0  0  0  0  0  0
   43.1504   42.0985   45.1233 C   0  0  0  0  0  0  0  0  0  0  0  0
   44.4478   41.6834   44.8957 C   0  0  0  0  0  0  0  0  0  0  0  0
   45.5306   42.4614   45.3214 C   0  0  0  0  0  0  0  0  0  0  0  0
   46.5766   42.2214   45.1897 H   0  0  0  0  0  0  0  0  0  0  0  0
   45.1693   43.6350   45.9638 C   0  0  0  0  0  0  0  0  0  0  0  0
   46.0027   44.2660   46.3091 H   0  0  0  0  0  0  0  0  0  0  0  0
   43.8933   44.0943   46.2156 C   0  0  0  0  0  0  0  0  0  0  0  0
   42.8797   43.2800   45.7700 C   0  0  0  0  0  0  0  0  0  0  0  0
   43.7682   45.0370   46.7317 H   0  0  0  0  0  0  0  0  0  0  0  0
   41.8509   43.6048   45.9480 H   0  0  0  0  0  0  0  0  0  0  0  0
  1  6  1  0
  1 14  1  0
  2  1  2  0
  3  4  2  0
  3  2  1  0
  4  5  1  0
  5  6  2  0
  7  8  1  0
  8 13  2  0
  8  9  1  0
  9  5  1  0
  9 10  2  0
 11 10  1  0
 12 11  2  0
 13 12  1  0
 15 14  2  0
 15 16  1  0
 17 16  1  0
  2 18  1  0
  3 19  1  0
 10 20  1  0
 11 21  1  0
 12 22  1  0
 13 23  1  0
 14 24  1  0
 15 25  1  0
 16 26  1  0
 16 27  1  0
 17 28  1  0
 29 30  1  0
 30 31  2  0
 31 32  1  0
 32 33  1  0
 32 34  2  0
 34 35  1  0
 34 36  1  0
 36 37  2  0
 37 30  1  0
 36 38  1  0
 37 39  1  0
 17 31  1  0
M  ISO  8  18  14  19  14  20  14  21  14  22  14  23  14  26   8  27   8
M  ISO  3  28   5  33  15  35  16
M  END
>  <DihAtoms>  (1) 
15,16,30,29

>  <DihDeg>  (1) 
179.99994124796046

$$$$
