
 OpenBabel03242516423D

 32 33  0  0  0  0  0  0  0  0999 V2000
   36.9180   29.8490   38.3660 C   0  0  0  0  0  0  0  0  0  0  0  0
   36.6730   29.0380   37.6190 H   0  0  0  0  0  0  0  0  0  0  0  0
   36.0630   30.5520   38.4270 H   0  0  0  0  0  0  0  0  0  0  0  0
   38.1130   30.6360   37.8970 C   0  0  0  0  0  0  0  0  0  0  0  0
   39.0430   30.0350   38.0200 H   0  0  0  0  0  0  0  0  0  0  0  0
   38.0340   30.8780   36.8150 H   0  0  0  0  0  0  0  0  0  0  0  0
   39.5990   33.1760   40.2550 C   0  0  0  0  0  0  0  0  0  0  0  0
   39.4580   32.0360   39.4240 C   0  0  0  0  0  0  0  0  0  0  0  0
   38.2410   31.8390   38.7640 C   0  0  0  0  0  0  0  0  0  0  0  0
   37.2470   32.7400   38.9420 N   0  0  0  0  0  0  0  0  0  0  0  0
   37.4290   33.8140   39.7450 C   0  0  0  0  0  0  0  0  0  0  0  0
   38.5810   34.0350   40.3940 N   0  0  0  0  0  0  0  0  0  0  0  0
   40.7990   33.4090   40.9320 N   0  0  0  0  0  0  0  0  0  0  0  0
   40.2990   31.3650   39.3360 H   0  0  0  0  0  0  0  0  0  0  0  0
   36.6300   34.5330   39.8850 H   0  0  0  0  0  0  0  0  0  0  0  0
   41.1320   34.4170   40.9560 H   0  0  0  0  0  0  0  0  0  0  0  0
   41.3850   32.6740   41.4100 H   0  0  0  0  0  0  0  0  0  0  0  0
   37.1540   29.3260   39.6130 O   0  0  0  0  0  0  0  0  0  0  0  0
   34.5580   29.1180   39.7900 O   0  0  0  0  0  0  0  0  0  0  0  0
   35.7900   29.4300   40.6130 P   0  0  2  0  0  0  0  0  0  0  0  0
   35.7620   30.9820   41.2460 O   0  0  0  0  0  0  0  0  0  0  0  0
   35.2820   31.5460   40.5620 H   0  0  0  0  0  0  0  0  0  0  0  0
   35.9390   28.3440   41.8880 O   0  0  0  0  0  0  0  0  0  0  0  0
   37.8000   29.3420   43.5490 F   0  0  0  0  0  0  0  0  0  0  0  0
   37.8590   28.0690   43.0320 C   0  0  0  0  0  0  0  0  0  0  0  0
   36.9390   27.4640   42.1620 C   0  0  0  0  0  0  0  0  0  0  0  0
   37.2190   26.1690   41.7810 C   0  0  0  0  0  0  0  0  0  0  0  0
   36.4670   25.7890   41.1210 H   0  0  0  0  0  0  0  0  0  0  0  0
   38.3280   25.5050   42.2220 C   0  0  0  0  0  0  0  0  0  0  0  0
   38.4080   24.5070   41.8410 H   0  0  0  0  0  0  0  0  0  0  0  0
   39.2370   26.0820   43.0730 C   0  0  0  0  0  3  0  0  0  0  0  0
   38.9930   27.3790   43.4780 C   0  0  0  0  0  3  0  0  0  0  0  0
  1  3  1  0  0  0  0
  1 18  1  0  0  0  0
  2  1  1  0  0  0  0
  4  5  1  0  0  0  0
  4  1  1  0  0  0  0
  4  9  1  0  0  0  0
  6  4  1  0  0  0  0
  7 12  1  0  0  0  0
  7 13  1  0  0  0  0
  8  7  2  0  0  0  0
  9 10  2  0  0  0  0
  9  8  1  0  0  0  0
 10 11  1  0  0  0  0
 11 15  1  0  0  0  0
 11 12  2  0  0  0  0
 13 16  1  0  0  0  0
 13 17  1  0  0  0  0
 14  8  1  0  0  0  0
 18 20  1  0  0  0  0
 20 19  2  6  0  0  0
 20 21  1  0  0  0  0
 20 23  1  0  0  0  0
 22 21  1  0  0  0  0
 23 26  1  0  0  0  0
 25 32  1  0  0  0  0
 25 24  1  0  0  0  0
 26 25  2  0  0  0  0
 27 26  1  0  0  0  0
 27 29  2  0  0  0  0
 28 27  1  0  0  0  0
 29 31  1  0  0  0  0
 30 29  1  0  0  0  0
 31 32  2  0  0  0  0
M  END
>  <minimizedAffinity>
-5.6538291

$$$$

 OpenBabel03242516423D

 32 33  0  0  0  0  0  0  0  0999 V2000
   39.6340   30.8070   39.1380 C   0  0  0  0  0  0  0  0  0  0  0  0
   39.0290   29.8560   39.0600 H   0  0  0  0  0  0  0  0  0  0  0  0
   39.6250   31.3210   38.1560 H   0  0  0  0  0  0  0  0  0  0  0  0
   41.0680   30.4770   39.4580 C   0  0  0  0  0  0  0  0  0  0  0  0
   41.1570   30.1210   40.5090 H   0  0  0  0  0  0  0  0  0  0  0  0
   41.4440   29.6540   38.8140 H   0  0  0  0  0  0  0  0  0  0  0  0
   42.7030   33.5220   37.9490 C   0  0  0  0  0  0  0  0  0  0  0  0
   41.9490   32.3280   38.0810 C   0  0  0  0  0  0  0  0  0  0  0  0
   41.8640   31.7290   39.3410 C   0  0  0  0  0  0  0  0  0  0  0  0
   42.5030   32.3090   40.3850 N   0  0  0  0  0  0  0  0  0  0  0  0
   43.2100   33.4490   40.2100 C   0  0  0  0  0  0  0  0  0  0  0  0
   43.3130   34.0510   39.0170 N   0  0  0  0  0  0  0  0  0  0  0  0
   42.8120   34.1520   36.7060 N   0  0  0  0  0  0  0  0  0  0  0  0
   41.4710   31.9310   37.1990 H   0  0  0  0  0  0  0  0  0  0  0  0
   43.7200   33.9090   41.0490 H   0  0  0  0  0  0  0  0  0  0  0  0
   42.7480   35.2120   36.7140 H   0  0  0  0  0  0  0  0  0  0  0  0
   42.9490   33.6630   35.7820 H   0  0  0  0  0  0  0  0  0  0  0  0
   39.1170   31.6520   40.0890 O   0  0  0  0  0  0  0  0  0  0  0  0
   36.9270   30.9390   38.8590 O   0  0  0  0  0  0  0  0  0  0  0  0
   37.4240   31.6040   40.1260 P   0  0  2  0  0  0  0  0  0  0  0  0
   36.8910   33.1870   40.2710 O   0  0  0  0  0  0  0  0  0  0  0  0
   36.8430   33.5440   39.3290 H   0  0  0  0  0  0  0  0  0  0  0  0
   36.9120   30.7510   41.4810 O   0  0  0  0  0  0  0  0  0  0  0  0
   35.4930   28.4920   41.1610 F   0  0  0  0  0  0  0  0  0  0  0  0
   36.6700   28.5460   41.8690 C   0  0  0  0  0  0  0  0  0  0  0  0
   37.4770   29.6730   42.0880 C   0  0  0  0  0  0  0  0  0  0  0  0
   38.6180   29.4720   42.8350 C   0  0  0  0  0  0  0  0  0  0  0  0
   39.1690   30.3810   42.9510 H   0  0  0  0  0  0  0  0  0  0  0  0
   38.9510   28.2460   43.3370 C   0  0  0  0  0  0  0  0  0  0  0  0
   39.8660   28.2470   43.8960 H   0  0  0  0  0  0  0  0  0  0  0  0
   38.1740   27.1340   43.1310 C   0  0  0  0  0  3  0  0  0  0  0  0
   37.0220   27.2930   42.3880 C   0  0  0  0  0  3  0  0  0  0  0  0
  1  4  1  0  0  0  0
  1 18  1  0  0  0  0
  2  1  1  0  0  0  0
  3  1  1  0  0  0  0
  4  5  1  0  0  0  0
  6  4  1  0  0  0  0
  7  8  2  0  0  0  0
  7 12  1  0  0  0  0
  8  9  1  0  0  0  0
  9  4  1  0  0  0  0
  9 10  2  0  0  0  0
 11 10  1  0  0  0  0
 11 15  1  0  0  0  0
 12 11  2  0  0  0  0
 13 16  1  0  0  0  0
 13  7  1  0  0  0  0
 14  8  1  0  0  0  0
 17 13  1  0  0  0  0
 18 20  1  0  0  0  0
 20 19  2  6  0  0  0
 20 21  1  0  0  0  0
 20 23  1  0  0  0  0
 22 21  1  0  0  0  0
 23 26  1  0  0  0  0
 24 25  1  0  0  0  0
 25 26  2  0  0  0  0
 25 32  1  0  0  0  0
 26 27  1  0  0  0  0
 27 28  1  0  0  0  0
 27 29  2  0  0  0  0
 29 30  1  0  0  0  0
 31 29  1  0  0  0  0
 32 31  2  0  0  0  0
M  END
>  <minimizedAffinity>
-5.46667051

$$$$

 OpenBabel03242516423D

 32 33  0  0  0  0  0  0  0  0999 V2000
   37.3950   30.0940   38.4980 C   0  0  0  0  0  0  0  0  0  0  0  0
   38.0190   30.0930   39.4390 H   0  0  0  0  0  0  0  0  0  0  0  0
   37.5780   29.1520   37.9430 H   0  0  0  0  0  0  0  0  0  0  0  0
   37.8160   31.2300   37.6030 C   0  0  0  0  0  0  0  0  0  0  0  0
   38.3430   30.8380   36.7040 H   0  0  0  0  0  0  0  0  0  0  0  0
   36.9340   31.7950   37.2310 H   0  0  0  0  0  0  0  0  0  0  0  0
   39.2330   33.5130   40.2490 C   0  0  0  0  0  0  0  0  0  0  0  0
   38.3260   32.7050   39.5180 C   0  0  0  0  0  0  0  0  0  0  0  0
   38.7830   32.0730   38.3560 C   0  0  0  0  0  0  0  0  0  0  0  0
   40.0690   32.2570   37.9760 N   0  0  0  0  0  0  0  0  0  0  0  0
   40.8970   33.0380   38.7080 C   0  0  0  0  0  0  0  0  0  0  0  0
   40.4940   33.6580   39.8250 N   0  0  0  0  0  0  0  0  0  0  0  0
   38.8150   34.1610   41.4150 N   0  0  0  0  0  0  0  0  0  0  0  0
   37.3170   32.6110   39.8890 H   0  0  0  0  0  0  0  0  0  0  0  0
   41.9270   33.1810   38.3980 H   0  0  0  0  0  0  0  0  0  0  0  0
   39.5070   34.1610   42.2210 H   0  0  0  0  0  0  0  0  0  0  0  0
   37.8850   34.6390   41.5500 H   0  0  0  0  0  0  0  0  0  0  0  0
   36.0560   30.1880   38.7860 O   0  0  0  0  0  0  0  0  0  0  0  0
   35.9730   27.7070   39.5960 O   0  0  0  0  0  0  0  0  0  0  0  0
   35.5950   29.1130   40.0130 P   0  0  2  0  0  0  0  0  0  0  0  0
   33.9430   29.2950   40.2300 O   0  0  0  0  0  0  0  0  0  0  0  0
   33.5110   28.6830   39.5550 H   0  0  0  0  0  0  0  0  0  0  0  0
   36.3630   29.5310   41.4480 O   0  0  0  0  0  0  0  0  0  0  0  0
   36.0350   27.5700   43.2550 F   0  0  0  0  0  0  0  0  0  0  0  0
   37.2670   28.0610   42.8940 C   0  0  0  0  0  0  0  0  0  0  0  0
   37.5370   29.0770   41.9650 C   0  0  0  0  0  0  0  0  0  0  0  0
   38.8650   29.3940   41.7730 C   0  0  0  0  0  0  0  0  0  0  0  0
   38.9750   30.1760   41.0500 H   0  0  0  0  0  0  0  0  0  0  0  0
   39.8680   28.7580   42.4470 C   0  0  0  0  0  0  0  0  0  0  0  0
   40.8460   29.1130   42.1910 H   0  0  0  0  0  0  0  0  0  0  0  0
   39.6220   27.7620   43.3580 C   0  0  0  0  0  3  0  0  0  0  0  0
   38.3050   27.4150   43.5790 C   0  0  0  0  0  3  0  0  0  0  0  0
  1 18  1  0  0  0  0
  1  2  1  0  0  0  0
  3  1  1  0  0  0  0
  4  9  1  0  0  0  0
  4  1  1  0  0  0  0
  5  4  1  0  0  0  0
  6  4  1  0  0  0  0
  7 13  1  0  0  0  0
  8 14  1  0  0  0  0
  8  7  2  0  0  0  0
  9  8  1  0  0  0  0
 10  9  2  0  0  0  0
 10 11  1  0  0  0  0
 11 12  2  0  0  0  0
 12  7  1  0  0  0  0
 13 17  1  0  0  0  0
 13 16  1  0  0  0  0
 15 11  1  0  0  0  0
 18 20  1  0  0  0  0
 20 19  2  6  0  0  0
 20 21  1  0  0  0  0
 20 23  1  0  0  0  0
 22 21  1  0  0  0  0
 23 26  1  0  0  0  0
 25 24  1  0  0  0  0
 25 32  1  0  0  0  0
 26 25  2  0  0  0  0
 27 26  1  0  0  0  0
 27 29  2  0  0  0  0
 28 27  1  0  0  0  0
 29 31  1  0  0  0  0
 30 29  1  0  0  0  0
 31 32  2  0  0  0  0
M  END
>  <minimizedAffinity>
-5.41812134

$$$$

 OpenBabel03242516423D

 32 33  0  0  0  0  0  0  0  0999 V2000
   38.8300   30.2220   39.5580 C   0  0  0  0  0  0  0  0  0  0  0  0
   39.8420   29.7720   39.7810 H   0  0  0  0  0  0  0  0  0  0  0  0
   38.1930   29.4530   39.0780 H   0  0  0  0  0  0  0  0  0  0  0  0
   38.9770   31.3580   38.5810 C   0  0  0  0  0  0  0  0  0  0  0  0
   38.7040   31.0220   37.5550 H   0  0  0  0  0  0  0  0  0  0  0  0
   38.2900   32.1940   38.8320 H   0  0  0  0  0  0  0  0  0  0  0  0
   42.1480   33.1530   37.6090 C   0  0  0  0  0  0  0  0  0  0  0  0
   40.7870   32.7580   37.6510 C   0  0  0  0  0  0  0  0  0  0  0  0
   40.4100   31.7580   38.5530 C   0  0  0  0  0  0  0  0  0  0  0  0
   41.3560   31.2060   39.3490 N   0  0  0  0  0  0  0  0  0  0  0  0
   42.6430   31.6170   39.2730 C   0  0  0  0  0  0  0  0  0  0  0  0
   43.0400   32.5720   38.4210 N   0  0  0  0  0  0  0  0  0  0  0  0
   42.5650   34.1490   36.7210 N   0  0  0  0  0  0  0  0  0  0  0  0
   40.0960   33.2480   36.9820 H   0  0  0  0  0  0  0  0  0  0  0  0
   43.3960   31.1720   39.9130 H   0  0  0  0  0  0  0  0  0  0  0  0
   43.2670   34.8490   37.1030 H   0  0  0  0  0  0  0  0  0  0  0  0
   42.2400   34.2550   35.7240 H   0  0  0  0  0  0  0  0  0  0  0  0
   38.2140   30.6590   40.7050 O   0  0  0  0  0  0  0  0  0  0  0  0
   36.3700   29.0900   39.7270 O   0  0  0  0  0  0  0  0  0  0  0  0
   36.7410   29.8640   40.9740 P   0  0  2  0  0  0  0  0  0  0  0  0
   35.6110   31.0410   41.3580 O   0  0  0  0  0  0  0  0  0  0  0  0
   35.2520   31.3710   40.4750 H   0  0  0  0  0  0  0  0  0  0  0  0
   36.8900   28.8290   42.2900 O   0  0  0  0  0  0  0  0  0  0  0  0
   39.3520   28.9390   43.3590 F   0  0  0  0  0  0  0  0  0  0  0  0
   38.7680   27.7690   42.9370 C   0  0  0  0  0  0  0  0  0  0  0  0
   37.4950   27.6130   42.3700 C   0  0  0  0  0  0  0  0  0  0  0  0
   37.1310   26.3280   42.0260 C   0  0  0  0  0  0  0  0  0  0  0  0
   36.1490   26.3040   41.6020 H   0  0  0  0  0  0  0  0  0  0  0  0
   37.9600   25.2610   42.2240 C   0  0  0  0  0  0  0  0  0  0  0  0
   37.5380   24.3280   41.9080 H   0  0  0  0  0  0  0  0  0  0  0  0
   39.2080   25.3960   42.7780 C   0  0  0  0  0  3  0  0  0  0  0  0
   39.6100   26.6670   43.1360 C   0  0  0  0  0  3  0  0  0  0  0  0
  1  2  1  0  0  0  0
  1 18  1  0  0  0  0
  3  1  1  0  0  0  0
  4  6  1  0  0  0  0
  4  1  1  0  0  0  0
  5  4  1  0  0  0  0
  7  8  2  0  0  0  0
  7 12  1  0  0  0  0
  8  9  1  0  0  0  0
  9  4  1  0  0  0  0
  9 10  2  0  0  0  0
 11 10  1  0  0  0  0
 11 15  1  0  0  0  0
 12 11  2  0  0  0  0
 13 16  1  0  0  0  0
 13  7  1  0  0  0  0
 14  8  1  0  0  0  0
 17 13  1  0  0  0  0
 18 20  1  0  0  0  0
 20 19  2  6  0  0  0
 20 21  1  0  0  0  0
 20 23  1  0  0  0  0
 22 21  1  0  0  0  0
 23 26  1  0  0  0  0
 25 32  1  0  0  0  0
 25 24  1  0  0  0  0
 26 25  2  0  0  0  0
 27 29  2  0  0  0  0
 27 26  1  0  0  0  0
 28 27  1  0  0  0  0
 29 31  1  0  0  0  0
 30 29  1  0  0  0  0
 31 32  2  0  0  0  0
M  END
>  <minimizedAffinity>
-5.35612154

$$$$

 OpenBabel03242516423D

 32 33  0  0  0  0  0  0  0  0999 V2000
   37.4790   29.5100   39.2580 C   0  0  0  0  0  0  0  0  0  0  0  0
   37.1470   28.6680   38.5830 H   0  0  0  0  0  0  0  0  0  0  0  0
   36.6210   30.1870   39.4370 H   0  0  0  0  0  0  0  0  0  0  0  0
   38.5550   30.3180   38.5810 C   0  0  0  0  0  0  0  0  0  0  0  0
   39.5500   29.8430   38.7380 H   0  0  0  0  0  0  0  0  0  0  0  0
   38.3940   30.3580   37.4830 H   0  0  0  0  0  0  0  0  0  0  0  0
   39.8420   33.3220   40.4620 C   0  0  0  0  0  0  0  0  0  0  0  0
   39.7850   32.0470   39.8450 C   0  0  0  0  0  0  0  0  0  0  0  0
   38.5940   31.6600   39.2220 C   0  0  0  0  0  0  0  0  0  0  0  0
   37.5440   32.5140   39.2320 N   0  0  0  0  0  0  0  0  0  0  0  0
   37.6470   33.7220   39.8340 C   0  0  0  0  0  0  0  0  0  0  0  0
   38.7710   34.1260   40.4400 N   0  0  0  0  0  0  0  0  0  0  0  0
   41.0140   33.7460   41.0950 N   0  0  0  0  0  0  0  0  0  0  0  0
   40.6670   31.4250   39.8820 H   0  0  0  0  0  0  0  0  0  0  0  0
   36.8030   34.4030   39.8390 H   0  0  0  0  0  0  0  0  0  0  0  0
   41.2850   34.7620   40.9420 H   0  0  0  0  0  0  0  0  0  0  0  0
   41.6350   33.1450   41.6990 H   0  0  0  0  0  0  0  0  0  0  0  0
   37.9310   29.0350   40.4650 O   0  0  0  0  0  0  0  0  0  0  0  0
   35.3460   28.9760   40.8260 O   0  0  0  0  0  0  0  0  0  0  0  0
   36.6580   28.7110   41.5350 P   0  0  2  0  0  0  0  0  0  0  0  0
   36.8750   29.7000   42.8710 O   0  0  0  0  0  0  0  0  0  0  0  0
   36.4330   30.5750   42.6360 H   0  0  0  0  0  0  0  0  0  0  0  0
   36.7410   27.1120   42.0450 O   0  0  0  0  0  0  0  0  0  0  0  0
   36.7410   24.5330   41.2920 F   0  0  0  0  0  0  0  0  0  0  0  0
   37.7170   25.0830   42.0880 C   0  0  0  0  0  0  0  0  0  0  0  0
   37.8010   26.4120   42.5300 C   0  0  0  0  0  0  0  0  0  0  0  0
   38.8840   26.7250   43.3250 C   0  0  0  0  0  0  0  0  0  0  0  0
   38.8660   27.7550   43.6140 H   0  0  0  0  0  0  0  0  0  0  0  0
   39.8260   25.7980   43.6660 C   0  0  0  0  0  0  0  0  0  0  0  0
   40.6070   26.1910   44.2870 H   0  0  0  0  0  0  0  0  0  0  0  0
   39.7600   24.4950   43.2430 C   0  0  0  0  0  3  0  0  0  0  0  0
   38.6910   24.1410   42.4450 C   0  0  0  0  0  3  0  0  0  0  0  0
  1  3  1  0  0  0  0
  1 18  1  0  0  0  0
  2  1  1  0  0  0  0
  4  5  1  0  0  0  0
  4  9  1  0  0  0  0
  4  1  1  0  0  0  0
  6  4  1  0  0  0  0
  7 13  1  0  0  0  0
  8 14  1  0  0  0  0
  8  7  2  0  0  0  0
  9 10  2  0  0  0  0
  9  8  1  0  0  0  0
 10 11  1  0  0  0  0
 11 15  1  0  0  0  0
 11 12  2  0  0  0  0
 12  7  1  0  0  0  0
 13 17  1  0  0  0  0
 16 13  1  0  0  0  0
 18 20  1  0  0  0  0
 20 19  2  6  0  0  0
 20 23  1  0  0  0  0
 20 21  1  0  0  0  0
 22 21  1  0  0  0  0
 23 26  1  0  0  0  0
 24 25  1  0  0  0  0
 25 32  2  0  0  0  0
 25 26  1  0  0  0  0
 26 27  2  0  0  0  0
 27 28  1  0  0  0  0
 27 29  1  0  0  0  0
 29 30  1  0  0  0  0
 31 29  2  0  0  0  0
 32 31  1  0  0  0  0
M  END
>  <minimizedAffinity>
-5.26699686

$$$$

 OpenBabel03242516423D

 32 33  0  0  0  0  0  0  0  0999 V2000
   37.5110   30.6030   38.5710 C   0  0  0  0  0  0  0  0  0  0  0  0
   38.0690   30.1340   39.4340 H   0  0  0  0  0  0  0  0  0  0  0  0
   37.7380   30.0380   37.6450 H   0  0  0  0  0  0  0  0  0  0  0  0
   37.9860   32.0170   38.3610 C   0  0  0  0  0  0  0  0  0  0  0  0
   38.2890   32.1680   37.3000 H   0  0  0  0  0  0  0  0  0  0  0  0
   37.1730   32.7470   38.5630 H   0  0  0  0  0  0  0  0  0  0  0  0
   40.2860   31.9620   41.3480 C   0  0  0  0  0  0  0  0  0  0  0  0
   39.1460   31.7710   40.5270 C   0  0  0  0  0  0  0  0  0  0  0  0
   39.1920   32.2270   39.2050 C   0  0  0  0  0  0  0  0  0  0  0  0
   40.3200   32.8310   38.7610 N   0  0  0  0  0  0  0  0  0  0  0  0
   41.3830   32.9900   39.5830 C   0  0  0  0  0  0  0  0  0  0  0  0
   41.3740   32.5660   40.8540 N   0  0  0  0  0  0  0  0  0  0  0  0
   40.2800   31.5210   42.6740 N   0  0  0  0  0  0  0  0  0  0  0  0
   38.2870   31.2810   40.9580 H   0  0  0  0  0  0  0  0  0  0  0  0
   42.2840   33.4740   39.2230 H   0  0  0  0  0  0  0  0  0  0  0  0
   41.1760   31.0650   43.0180 H   0  0  0  0  0  0  0  0  0  0  0  0
   39.4690   31.6050   43.3430 H   0  0  0  0  0  0  0  0  0  0  0  0
   36.1550   30.5850   38.7830 O   0  0  0  0  0  0  0  0  0  0  0  0
   34.4380   29.0610   40.0270 O   0  0  0  0  0  0  0  0  0  0  0  0
   35.7490   29.7920   40.2250 P   0  0  2  0  0  0  0  0  0  0  0  0
   35.6560   30.9630   41.4200 O   0  0  0  0  0  0  0  0  0  0  0  0
   34.7150   31.3240   41.3740 H   0  0  0  0  0  0  0  0  0  0  0  0
   36.9700   28.7130   40.6390 O   0  0  0  0  0  0  0  0  0  0  0  0
   37.1190   27.8270   43.1710 F   0  0  0  0  0  0  0  0  0  0  0  0
   37.0140   26.9890   42.0870 C   0  0  0  0  0  0  0  0  0  0  0  0
   36.9300   27.3570   40.7360 C   0  0  0  0  0  0  0  0  0  0  0  0
   36.8300   26.3260   39.8250 C   0  0  0  0  0  0  0  0  0  0  0  0
   36.7720   26.6980   38.8240 H   0  0  0  0  0  0  0  0  0  0  0  0
   36.8130   25.0160   40.2120 C   0  0  0  0  0  0  0  0  0  0  0  0
   36.7310   24.3310   39.3920 H   0  0  0  0  0  0  0  0  0  0  0  0
   36.8930   24.6390   41.5280 C   0  0  0  0  0  3  0  0  0  0  0  0
   36.9940   25.6420   42.4710 C   0  0  0  0  0  3  0  0  0  0  0  0
  1 18  1  0  0  0  0
  1  2  1  0  0  0  0
  3  1  1  0  0  0  0
  4  6  1  0  0  0  0
  4  1  1  0  0  0  0
  4  9  1  0  0  0  0
  5  4  1  0  0  0  0
  7 13  1  0  0  0  0
  8 14  1  0  0  0  0
  8  7  2  0  0  0  0
  9  8  1  0  0  0  0
 10  9  2  0  0  0  0
 10 11  1  0  0  0  0
 11 12  2  0  0  0  0
 12  7  1  0  0  0  0
 13 16  1  0  0  0  0
 13 17  1  0  0  0  0
 15 11  1  0  0  0  0
 18 20  1  0  0  0  0
 20 19  2  6  0  0  0
 20 23  1  0  0  0  0
 20 21  1  0  0  0  0
 22 21  1  0  0  0  0
 23 26  1  0  0  0  0
 25 32  1  0  0  0  0
 25 24  1  0  0  0  0
 26 25  2  0  0  0  0
 27 29  2  0  0  0  0
 27 26  1  0  0  0  0
 28 27  1  0  0  0  0
 29 31  1  0  0  0  0
 30 29  1  0  0  0  0
 31 32  2  0  0  0  0
M  END
>  <minimizedAffinity>
-5.25157595

$$$$

 OpenBabel03242516423D

 32 33  0  0  0  0  0  0  0  0999 V2000
   36.8050   30.0160   38.8220 C   0  0  0  0  0  0  0  0  0  0  0  0
   36.3470   29.1730   38.2270 H   0  0  0  0  0  0  0  0  0  0  0  0
   35.9960   30.6780   39.1910 H   0  0  0  0  0  0  0  0  0  0  0  0
   37.6950   30.8470   37.9340 C   0  0  0  0  0  0  0  0  0  0  0  0
   38.5950   30.2630   37.6370 H   0  0  0  0  0  0  0  0  0  0  0  0
   37.1740   31.1250   36.9940 H   0  0  0  0  0  0  0  0  0  0  0  0
   40.0070   33.2910   39.6360 C   0  0  0  0  0  0  0  0  0  0  0  0
   39.5420   32.1800   38.8900 C   0  0  0  0  0  0  0  0  0  0  0  0
   38.1620   32.0200   38.7210 C   0  0  0  0  0  0  0  0  0  0  0  0
   37.3270   32.9300   39.2750 N   0  0  0  0  0  0  0  0  0  0  0  0
   37.8190   33.9750   39.9790 C   0  0  0  0  0  0  0  0  0  0  0  0
   39.1330   34.1600   40.1610 N   0  0  0  0  0  0  0  0  0  0  0  0
   41.3780   33.4860   39.8270 N   0  0  0  0  0  0  0  0  0  0  0  0
   40.2740   31.5000   38.4810 H   0  0  0  0  0  0  0  0  0  0  0  0
   37.1450   34.7010   40.4210 H   0  0  0  0  0  0  0  0  0  0  0  0
   41.7210   34.4890   39.7500 H   0  0  0  0  0  0  0  0  0  0  0  0
   42.0800   32.7280   40.0370 H   0  0  0  0  0  0  0  0  0  0  0  0
   37.5170   29.5420   39.8960 O   0  0  0  0  0  0  0  0  0  0  0  0
   35.7510   28.3870   41.4340 O   0  0  0  0  0  0  0  0  0  0  0  0
   36.6230   29.6210   41.3340 P   0  0  2  0  0  0  0  0  0  0  0  0
   35.7260   31.0360   41.2780 O   0  0  0  0  0  0  0  0  0  0  0  0
   34.8790   30.8020   40.7830 H   0  0  0  0  0  0  0  0  0  0  0  0
   37.6690   29.7130   42.6460 O   0  0  0  0  0  0  0  0  0  0  0  0
   39.0600   27.4320   42.9260 F   0  0  0  0  0  0  0  0  0  0  0  0
   39.6550   28.6660   42.8160 C   0  0  0  0  0  0  0  0  0  0  0  0
   39.0150   29.9060   42.6670 C   0  0  0  0  0  0  0  0  0  0  0  0
   39.8350   31.0110   42.5770 C   0  0  0  0  0  0  0  0  0  0  0  0
   39.2630   31.9090   42.4660 H   0  0  0  0  0  0  0  0  0  0  0  0
   41.1960   30.9110   42.6290 C   0  0  0  0  0  0  0  0  0  0  0  0
   41.6970   31.8550   42.5460 H   0  0  0  0  0  0  0  0  0  0  0  0
   41.8380   29.7080   42.7740 C   0  0  0  0  0  3  0  0  0  0  0  0
   41.0520   28.5770   42.8680 C   0  0  0  0  0  3  0  0  0  0  0  0
  1  3  1  0  0  0  0
  1 18  1  0  0  0  0
  2  1  1  0  0  0  0
  4  9  1  0  0  0  0
  4  1  1  0  0  0  0
  5  4  1  0  0  0  0
  6  4  1  0  0  0  0
  7 13  1  0  0  0  0
  7 12  1  0  0  0  0
  8  7  2  0  0  0  0
  9  8  1  0  0  0  0
  9 10  2  0  0  0  0
 10 11  1  0  0  0  0
 11 12  2  0  0  0  0
 11 15  1  0  0  0  0
 13 17  1  0  0  0  0
 14  8  1  0  0  0  0
 16 13  1  0  0  0  0
 18 20  1  0  0  0  0
 20 19  2  1  0  0  0
 20 23  1  0  0  0  0
 21 20  1  0  0  0  0
 22 21  1  0  0  0  0
 23 26  1  0  0  0  0
 25 32  1  0  0  0  0
 25 24  1  0  0  0  0
 26 25  2  0  0  0  0
 27 29  2  0  0  0  0
 27 26  1  0  0  0  0
 28 27  1  0  0  0  0
 29 31  1  0  0  0  0
 30 29  1  0  0  0  0
 31 32  2  0  0  0  0
M  END
>  <minimizedAffinity>
-5.15510607

$$$$

 OpenBabel03242516423D

 32 33  0  0  0  0  0  0  0  0999 V2000
   37.4750   28.0100   40.1240 C   0  0  0  0  0  0  0  0  0  0  0  0
   38.1330   28.8290   40.5390 H   0  0  0  0  0  0  0  0  0  0  0  0
   38.1130   27.2460   39.6390 H   0  0  0  0  0  0  0  0  0  0  0  0
   36.5630   28.5720   39.0650 C   0  0  0  0  0  0  0  0  0  0  0  0
   36.7530   28.0710   38.0890 H   0  0  0  0  0  0  0  0  0  0  0  0
   35.4970   28.3840   39.3130 H   0  0  0  0  0  0  0  0  0  0  0  0
   37.7230   31.7950   37.4870 C   0  0  0  0  0  0  0  0  0  0  0  0
   37.4080   30.4240   37.6660 C   0  0  0  0  0  0  0  0  0  0  0  0
   36.8870   30.0140   38.8980 C   0  0  0  0  0  0  0  0  0  0  0  0
   36.7030   30.9390   39.8690 N   0  0  0  0  0  0  0  0  0  0  0  0
   37.0190   32.2370   39.6510 C   0  0  0  0  0  0  0  0  0  0  0  0
   37.5200   32.6650   38.4850 N   0  0  0  0  0  0  0  0  0  0  0  0
   38.2450   32.2440   36.2710 N   0  0  0  0  0  0  0  0  0  0  0  0
   37.5850   29.7510   36.8410 H   0  0  0  0  0  0  0  0  0  0  0  0
   36.8700   32.9730   40.4330 H   0  0  0  0  0  0  0  0  0  0  0  0
   37.8690   33.1710   35.9170 H   0  0  0  0  0  0  0  0  0  0  0  0
   38.9700   31.7400   35.6930 H   0  0  0  0  0  0  0  0  0  0  0  0
   36.7370   27.4110   41.1160 O   0  0  0  0  0  0  0  0  0  0  0  0
   36.2510   27.3390   43.6800 O   0  0  0  0  0  0  0  0  0  0  0  0
   37.0330   28.1050   42.6330 P   0  0  2  0  0  0  0  0  0  0  0  0
   36.5690   29.7130   42.5370 O   0  0  0  0  0  0  0  0  0  0  0  0
   35.5820   29.7240   42.7430 H   0  0  0  0  0  0  0  0  0  0  0  0
   38.6790   28.0520   42.9680 O   0  0  0  0  0  0  0  0  0  0  0  0
   41.2550   28.7500   43.2740 F   0  0  0  0  0  0  0  0  0  0  0  0
   40.8400   27.4460   43.1460 C   0  0  0  0  0  0  0  0  0  0  0  0
   39.5240   26.9860   42.9840 C   0  0  0  0  0  0  0  0  0  0  0  0
   39.3620   25.6210   42.8780 C   0  0  0  0  0  0  0  0  0  0  0  0
   38.3300   25.3630   42.7570 H   0  0  0  0  0  0  0  0  0  0  0  0
   40.4180   24.7580   42.9280 C   0  0  0  0  0  0  0  0  0  0  0  0
   40.1340   23.7290   42.8330 H   0  0  0  0  0  0  0  0  0  0  0  0
   41.7110   25.1900   43.0870 C   0  0  0  0  0  3  0  0  0  0  0  0
   41.9160   26.5500   43.1960 C   0  0  0  0  0  3  0  0  0  0  0  0
  1  2  1  0  0  0  0
  1 18  1  0  0  0  0
  3  1  1  0  0  0  0
  4  6  1  0  0  0  0
  4  1  1  0  0  0  0
  5  4  1  0  0  0  0
  7  8  2  0  0  0  0
  7 12  1  0  0  0  0
  8  9  1  0  0  0  0
  9  4  1  0  0  0  0
  9 10  2  0  0  0  0
 11 10  1  0  0  0  0
 11 15  1  0  0  0  0
 12 11  2  0  0  0  0
 13  7  1  0  0  0  0
 14  8  1  0  0  0  0
 16 13  1  0  0  0  0
 17 13  1  0  0  0  0
 18 20  1  0  0  0  0
 20 23  1  0  0  0  0
 20 19  2  1  0  0  0
 21 20  1  0  0  0  0
 21 22  1  0  0  0  0
 23 26  1  0  0  0  0
 25 32  1  0  0  0  0
 25 24  1  0  0  0  0
 26 25  2  0  0  0  0
 27 29  2  0  0  0  0
 27 26  1  0  0  0  0
 28 27  1  0  0  0  0
 29 31  1  0  0  0  0
 30 29  1  0  0  0  0
 31 32  2  0  0  0  0
M  END
>  <minimizedAffinity>
-5.10740566

$$$$

 OpenBabel03242516423D

 32 33  0  0  0  0  0  0  0  0999 V2000
   37.9690   29.3110   38.9410 C   0  0  0  0  0  0  0  0  0  0  0  0
   37.1500   28.5890   38.6530 H   0  0  0  0  0  0  0  0  0  0  0  0
   38.0890   30.0610   38.1330 H   0  0  0  0  0  0  0  0  0  0  0  0
   39.2790   28.5780   39.0700 C   0  0  0  0  0  0  0  0  0  0  0  0
   39.5960   28.5420   40.1370 H   0  0  0  0  0  0  0  0  0  0  0  0
   39.1820   27.5240   38.7340 H   0  0  0  0  0  0  0  0  0  0  0  0
   41.0320   31.4490   37.3650 C   0  0  0  0  0  0  0  0  0  0  0  0
   40.0600   30.7000   38.0760 C   0  0  0  0  0  0  0  0  0  0  0  0
   40.3110   29.3460   38.3230 C   0  0  0  0  0  0  0  0  0  0  0  0
   41.4670   28.8030   37.8740 N   0  0  0  0  0  0  0  0  0  0  0  0
   42.3640   29.5590   37.2000 C   0  0  0  0  0  0  0  0  0  0  0  0
   42.1580   30.8580   36.9460 N   0  0  0  0  0  0  0  0  0  0  0  0
   40.8190   32.8040   37.0990 N   0  0  0  0  0  0  0  0  0  0  0  0
   39.1640   31.2080   38.3990 H   0  0  0  0  0  0  0  0  0  0  0  0
   43.2890   29.1200   36.8430 H   0  0  0  0  0  0  0  0  0  0  0  0
   41.6640   33.4390   37.2100 H   0  0  0  0  0  0  0  0  0  0  0  0
   39.9030   33.2330   36.8030 H   0  0  0  0  0  0  0  0  0  0  0  0
   37.6720   29.9630   40.1130 O   0  0  0  0  0  0  0  0  0  0  0  0
   35.2330   29.3530   39.4100 O   0  0  0  0  0  0  0  0  0  0  0  0
   36.0860   29.6560   40.6240 P   0  0  2  0  0  0  0  0  0  0  0  0
   35.5640   31.0170   41.4510 O   0  0  0  0  0  0  0  0  0  0  0  0
   35.1990   31.6390   40.7470 H   0  0  0  0  0  0  0  0  0  0  0  0
   36.0780   28.3570   41.6900 O   0  0  0  0  0  0  0  0  0  0  0  0
   36.6170   26.0040   40.5100 F   0  0  0  0  0  0  0  0  0  0  0  0
   37.3290   26.4880   41.5820 C   0  0  0  0  0  0  0  0  0  0  0  0
   37.1220   27.6980   42.2600 C   0  0  0  0  0  0  0  0  0  0  0  0
   37.9740   27.9630   43.3120 C   0  0  0  0  0  0  0  0  0  0  0  0
   37.7440   28.9030   43.7690 H   0  0  0  0  0  0  0  0  0  0  0  0
   38.9660   27.0990   43.6790 C   0  0  0  0  0  0  0  0  0  0  0  0
   39.5450   27.4430   44.5130 H   0  0  0  0  0  0  0  0  0  0  0  0
   39.1820   25.9120   43.0260 C   0  0  0  0  0  3  0  0  0  0  0  0
   38.3510   25.6100   41.9670 C   0  0  0  0  0  3  0  0  0  0  0  0
  1  4  1  0  0  0  0
  1 18  1  0  0  0  0
  2  1  1  0  0  0  0
  3  1  1  0  0  0  0
  4  5  1  0  0  0  0
  6  4  1  0  0  0  0
  7  8  1  0  0  0  0
  8  9  2  0  0  0  0
  8 14  1  0  0  0  0
  9  4  1  0  0  0  0
 10  9  1  0  0  0  0
 11 10  2  0  0  0  0
 12 11  1  0  0  0  0
 12  7  2  0  0  0  0
 13 16  1  0  0  0  0
 13  7  1  0  0  0  0
 15 11  1  0  0  0  0
 17 13  1  0  0  0  0
 18 20  1  0  0  0  0
 20 19  2  6  0  0  0
 20 21  1  0  0  0  0
 20 23  1  0  0  0  0
 22 21  1  0  0  0  0
 23 26  1  0  0  0  0
 24 25  1  0  0  0  0
 25 32  2  0  0  0  0
 25 26  1  0  0  0  0
 26 27  2  0  0  0  0
 27 29  1  0  0  0  0
 27 28  1  0  0  0  0
 29 30  1  0  0  0  0
 31 29  2  0  0  0  0
 32 31  1  0  0  0  0
M  END
>  <minimizedAffinity>
-5.03902483

$$$$
