
     RDKit          3D

 26 27  0  0  0  0  0  0  0  0999 V2000
   44.4821   35.6966   44.5813 C   0  0  0  0  0  0  0  0  0  0  0  0
   44.9361   35.8219   43.2563 C   0  0  0  0  0  0  0  0  0  0  0  0
   46.0058   35.0038   42.8928 C   0  0  0  0  0  0  0  0  0  0  0  0
   46.5418   34.1559   43.7951 N   0  0  0  0  0  0  0  0  0  0  0  0
   46.0702   34.0691   45.0639 C   0  0  0  0  0  0  0  0  0  0  0  0
   45.0431   34.8350   45.4618 N   0  0  0  0  0  0  0  0  0  0  0  0
   46.5786   33.2204   46.0304 O   0  0  0  0  0  0  0  0  0  0  0  0
   46.7840   32.2152   48.3928 O   0  0  0  0  0  0  0  0  0  0  0  0
   45.7543   32.5257   47.3080 P   0  0  1  0  0  0  0  0  0  0  0  0
   44.5293   33.5307   47.8635 O   0  0  0  0  0  0  0  0  0  0  0  0
   45.0645   31.0266   46.8810 O   0  0  0  0  0  0  0  0  0  0  0  0
   43.6434   36.3182   44.9155 H   0  0  0  0  0  0  0  0  0  0  0  0
   44.4824   36.5113   42.5627 H   0  0  0  0  0  0  0  0  0  0  0  0
   46.4065   35.0527   41.8762 H   0  0  0  0  0  0  0  0  0  0  0  0
   44.9092   34.3819   48.2376 H   0  0  0  0  0  0  0  0  0  0  0  0
   44.0613   31.7993   49.3846 F   0  0  0  0  0  0  0  0  0  0  0  0
   43.8482   30.5305   49.0018 C   0  0  0  0  0  0  0  0  0  0  0  0
   44.3737   30.2254   47.7539 C   0  0  0  0  0  0  0  0  0  0  0  0
   44.1985   28.9230   47.2738 C   0  0  0  0  0  0  0  0  0  0  0  0
   44.5727   28.5719   46.2999 H   0  0  0  0  0  0  0  0  0  0  0  0
   43.5230   27.9540   48.0089 C   0  0  0  0  0  0  0  0  0  0  0  0
   43.3971   26.9431   47.6161 H   0  0  0  0  0  0  0  0  0  0  0  0
   43.0067   28.2760   49.2491 C   0  0  0  0  0  0  0  0  0  0  0  0
   43.1778   29.5569   49.7235 C   0  0  0  0  0  0  0  0  0  0  0  0
   42.4768   27.5248   49.8313 H   0  0  0  0  0  0  0  0  0  0  0  0
   42.7897   29.8632   50.6967 H   0  0  0  0  0  0  0  0  0  0  0  0
  1  6  2  0
  2  1  1  0
  3  2  2  0
  3  4  1  0
  4  5  2  0
  5  6  1  0
  5  7  1  0
  9  7  1  6
  9 10  1  0
  9  8  2  0
 11  9  1  0
  1 12  1  0
  2 13  1  0
  3 14  1  0
 10 15  1  0
 16 17  1  0
 17 18  2  0
 18 19  1  0
 19 20  1  0
 19 21  2  0
 21 22  1  0
 21 23  1  0
 23 24  2  0
 24 17  1  0
 23 25  1  0
 24 26  1  0
 11 18  1  0
M  ISO  6  12  14  13  14  14  14  15   3  20  15  22  16
M  END
>  <DihAtoms>  (1) 
8,10,17,16

>  <DihDeg>  (1) 
-0.0009909300901762078

$$$$
