
 OpenBabel03252506213D

 35 37  0  0  0  0  0  0  0  0999 V2000
   44.8940   35.4880   42.4910 C   0  0  0  0  0  0  0  0  0  0  0  0
   43.7630   35.5240   41.6520 C   0  0  0  0  0  0  0  0  0  0  0  0
   43.7420   34.6640   40.5380 C   0  0  0  0  0  0  0  0  0  0  0  0
   44.7970   33.8530   40.3290 N   0  0  0  0  0  0  0  0  0  0  0  0
   45.8690   33.8500   41.1630 C   0  0  0  0  0  0  0  0  0  0  0  0
   45.9120   34.6650   42.2370 N   0  0  0  0  0  0  0  0  0  0  0  0
   42.9830   36.2040   41.9090 H   0  0  0  0  0  0  0  0  0  0  0  0
   42.8860   34.6880   39.8990 H   0  0  0  0  0  0  0  0  0  0  0  0
   48.4610   35.1810   40.3450 Cl  0  0  0  0  0  0  0  0  0  0  0  0
   48.1920   33.4770   40.4660 C   0  0  0  0  0  0  0  0  0  0  0  0
   46.9780   32.9220   40.8470 C   0  0  0  0  0  0  0  0  0  0  0  0
   46.7400   31.5810   40.9510 C   0  0  0  0  0  0  0  0  0  0  0  0
   47.7790   30.7390   40.6550 C   0  0  0  0  0  0  0  0  0  0  0  0
   49.0330   31.1690   40.2630 C   0  0  0  0  0  0  0  0  0  0  0  0
   49.1810   32.5540   40.1870 C   0  0  0  0  0  0  0  0  0  0  0  0
   45.7650   31.2240   41.2560 H   0  0  0  0  0  0  0  0  0  0  0  0
   47.6050   29.6710   40.7320 H   0  0  0  0  0  0  0  0  0  0  0  0
   49.8600   30.5160   40.0280 H   0  0  0  0  0  0  0  0  0  0  0  0
   50.1600   32.9250   39.8800 H   0  0  0  0  0  0  0  0  0  0  0  0
   44.9240   36.3820   43.6550 C   0  0  0  0  0  3  0  0  0  0  0  0
   45.2410   37.6480   43.4540 C   0  0  0  0  0  3  0  0  0  0  0  0
   45.2790   38.5790   44.6180 C   0  0  0  0  0  0  0  0  0  0  0  0
   44.5700   38.2730   45.4190 H   0  0  0  0  0  0  0  0  0  0  0  0
   46.3050   38.5470   45.0480 H   0  0  0  0  0  0  0  0  0  0  0  0
   44.9630   39.9090   44.1120 N   0  0  0  0  0  0  0  0  0  0  0  0
   44.8790   40.1160   43.0720 H   0  0  0  0  0  0  0  0  0  0  0  0
   44.8480   39.6630   46.8710 F   0  0  0  0  0  0  0  0  0  0  0  0
   44.6840   40.9110   46.3560 C   0  0  0  0  0  0  0  0  0  0  0  0
   44.7410   41.0280   44.9820 C   0  0  0  0  0  0  0  0  0  0  0  0
   44.5840   42.2760   44.3650 C   0  0  0  0  0  0  0  0  0  0  0  0
   44.6140   42.4660   43.3010 H   0  0  0  0  0  0  0  0  0  0  0  0
   44.3740   43.3240   45.2460 C   0  0  0  0  0  0  0  0  0  0  0  0
   44.2450   44.3150   44.7860 H   0  0  0  0  0  0  0  0  0  0  0  0
   44.3070   43.2610   46.6230 C   0  0  0  0  0  3  0  0  0  0  0  0
   44.4710   42.0060   47.1600 C   0  0  0  0  0  3  0  0  0  0  0  0
  1 20  1  0  0  0  0
  2  7  1  0  0  0  0
  2  1  2  0  0  0  0
  3  2  1  0  0  0  0
  4  3  2  0  0  0  0
  4  5  1  0  0  0  0
  5  6  2  0  0  0  0
  6  1  1  0  0  0  0
  8  3  1  0  0  0  0
  9 10  1  0  0  0  0
 10 11  1  0  0  0  0
 11 12  2  0  0  0  0
 11  5  1  0  0  0  0
 12 16  1  0  0  0  0
 13 17  1  0  0  0  0
 13 12  1  0  0  0  0
 14 13  2  0  0  0  0
 15 14  1  0  0  0  0
 15 10  2  0  0  0  0
 18 14  1  0  0  0  0
 19 15  1  0  0  0  0
 21 20  2  0  0  0  0
 21 22  1  0  0  0  0
 22 24  1  0  0  0  0
 22 23  1  0  0  0  0
 25 22  1  0  0  0  0
 25 29  1  0  0  0  0
 26 25  1  0  0  0  0
 28 27  1  0  0  0  0
 28 35  1  0  0  0  0
 29 28  2  0  0  0  0
 30 29  1  0  0  0  0
 30 32  2  0  0  0  0
 31 30  1  0  0  0  0
 32 34  1  0  0  0  0
 33 32  1  0  0  0  0
 34 35  2  0  0  0  0
M  END
>  <minimizedAffinity>
-3.69325781

>  <minimizedRMSD>
1.492823

$$$$
