
 OpenBabel03252504263D

 22 23  0  0  0  0  0  0  0  0999 V2000
   43.6970   35.3470   41.2350 C   0  0  0  0  0  0  0  0  0  0  0  0
   43.9160   34.5070   40.5210 H   0  0  0  0  0  0  0  0  0  0  0  0
   44.2520   36.2220   40.8160 H   0  0  0  0  0  0  0  0  0  0  0  0
   44.1990   35.9190   43.5380 C   0  0  0  0  0  0  0  0  0  0  0  0
   44.2350   34.9550   42.5540 C   0  0  0  0  0  0  0  0  0  0  0  0
   44.7680   33.7160   42.8860 C   0  0  0  0  0  0  0  0  0  0  0  0
   45.2120   33.5370   44.1420 N   0  0  0  0  0  0  0  0  0  0  0  0
   45.1680   34.4880   45.0870 C   0  0  0  0  0  0  0  0  0  0  0  0
   44.6520   35.7160   44.7960 N   0  0  0  0  0  0  0  0  0  0  0  0
   43.7990   36.9130   43.3670 H   0  0  0  0  0  0  0  0  0  0  0  0
   44.7830   32.9850   42.0990 H   0  0  0  0  0  0  0  0  0  0  0  0
   45.5760   34.1420   46.0330 H   0  0  0  0  0  0  0  0  0  0  0  0
   42.3220   35.5350   41.2540 O   0  0  0  0  0  0  0  0  0  0  0  0
   39.9910   34.5320   42.1580 F   0  0  0  0  0  0  0  0  0  0  0  0
   40.2320   34.7160   40.8390 C   0  0  0  0  0  0  0  0  0  0  0  0
   41.4090   35.2300   40.2840 C   0  0  0  0  0  0  0  0  0  0  0  0
   41.5040   35.3590   38.9140 C   0  0  0  0  0  0  0  0  0  0  0  0
   42.4420   35.7600   38.5900 H   0  0  0  0  0  0  0  0  0  0  0  0
   40.4510   34.9870   38.1030 C   0  0  0  0  0  0  0  0  0  0  0  0
   40.5870   35.1130   37.0350 H   0  0  0  0  0  0  0  0  0  0  0  0
   39.2850   34.4790   38.6430 C   0  0  0  0  0  0  0  0  0  0  0  0
   39.1610   34.3370   40.0240 C   0  0  0  0  0  0  0  0  0  0  0  0
  1 13  1  0  0  0  0
  1  5  1  0  0  0  0
  2  1  1  0  0  0  0
  3  1  1  0  0  0  0
  4  9  1  0  0  0  0
  5  6  1  0  0  0  0
  5  4  2  0  0  0  0
  6  7  2  0  0  0  0
  7  8  1  0  0  0  0
  8 12  1  0  0  0  0
  9  8  2  0  0  0  0
 10  4  1  0  0  0  0
 11  6  1  0  0  0  0
 15 14  1  0  0  0  0
 16 15  1  0  0  0  0
 16 13  1  0  0  0  0
 17 16  2  0  0  0  0
 18 17  1  0  0  0  0
 19 21  2  0  0  0  0
 19 17  1  0  0  0  0
 20 19  1  0  0  0  0
 21 22  1  0  0  0  0
 22 15  2  0  0  0  0
M  END
>  <minimizedAffinity>
-4.99069166

>  <minimizedRMSD>
2.17929387

$$$$
