
 OpenBabel03252506213D

 35 37  0  0  0  0  0  0  0  0999 V2000
   44.8820   35.4670   42.4600 C   0  0  0  0  0  0  0  0  0  0  0  0
   43.7540   35.5250   41.6200 C   0  0  0  0  0  0  0  0  0  0  0  0
   43.7330   34.6900   40.4860 C   0  0  0  0  0  0  0  0  0  0  0  0
   44.7880   33.8830   40.2600 N   0  0  0  0  0  0  0  0  0  0  0  0
   45.8570   33.8590   41.0970 C   0  0  0  0  0  0  0  0  0  0  0  0
   45.8990   34.6480   42.1890 N   0  0  0  0  0  0  0  0  0  0  0  0
   42.9740   36.2000   41.8910 H   0  0  0  0  0  0  0  0  0  0  0  0
   42.8790   34.7310   39.8460 H   0  0  0  0  0  0  0  0  0  0  0  0
   48.4840   35.2020   40.4190 Cl  0  0  0  0  0  0  0  0  0  0  0  0
   48.1950   33.4980   40.4430 C   0  0  0  0  0  0  0  0  0  0  0  0
   46.9660   32.9370   40.7630 C   0  0  0  0  0  0  0  0  0  0  0  0
   46.7130   31.5950   40.7890 C   0  0  0  0  0  0  0  0  0  0  0  0
   47.7510   30.7580   40.4770 C   0  0  0  0  0  0  0  0  0  0  0  0
   49.0200   31.1940   40.1420 C   0  0  0  0  0  0  0  0  0  0  0  0
   49.1830   32.5790   40.1430 C   0  0  0  0  0  0  0  0  0  0  0  0
   45.7260   31.2330   41.0480 H   0  0  0  0  0  0  0  0  0  0  0  0
   47.5650   29.6900   40.4920 H   0  0  0  0  0  0  0  0  0  0  0  0
   49.8460   30.5450   39.8940 H   0  0  0  0  0  0  0  0  0  0  0  0
   50.1740   32.9550   39.8820 H   0  0  0  0  0  0  0  0  0  0  0  0
   44.9110   36.3340   43.6450 C   0  0  0  0  0  3  0  0  0  0  0  0
   45.2160   37.6070   43.4720 C   0  0  0  0  0  3  0  0  0  0  0  0
   45.2520   38.5110   44.6560 C   0  0  0  0  0  0  0  0  0  0  0  0
   44.4850   38.2360   45.4140 H   0  0  0  0  0  0  0  0  0  0  0  0
   46.2510   38.4050   45.1370 H   0  0  0  0  0  0  0  0  0  0  0  0
   45.0470   39.8690   44.1660 N   0  0  0  0  0  0  0  0  0  0  0  0
   45.0540   40.1040   43.1290 H   0  0  0  0  0  0  0  0  0  0  0  0
   44.8960   42.4880   43.2700 F   0  0  0  0  0  0  0  0  0  0  0  0
   44.7430   42.2840   44.6060 C   0  0  0  0  0  0  0  0  0  0  0  0
   44.8190   40.9770   45.0480 C   0  0  0  0  0  0  0  0  0  0  0  0
   44.6730   40.6730   46.4060 C   0  0  0  0  0  0  0  0  0  0  0  0
   44.7160   39.6860   46.8440 H   0  0  0  0  0  0  0  0  0  0  0  0
   44.4550   41.7770   47.2150 C   0  0  0  0  0  0  0  0  0  0  0  0
   44.3370   41.5650   48.2890 H   0  0  0  0  0  0  0  0  0  0  0  0
   44.3710   43.0980   46.8270 C   0  0  0  0  0  3  0  0  0  0  0  0
   44.5240   43.3220   45.4800 C   0  0  0  0  0  3  0  0  0  0  0  0
  1 20  1  0  0  0  0
  2  7  1  0  0  0  0
  2  1  2  0  0  0  0
  3  2  1  0  0  0  0
  4  3  2  0  0  0  0
  4  5  1  0  0  0  0
  5  6  2  0  0  0  0
  6  1  1  0  0  0  0
  8  3  1  0  0  0  0
  9 10  1  0  0  0  0
 10 11  1  0  0  0  0
 11 12  2  0  0  0  0
 11  5  1  0  0  0  0
 12 16  1  0  0  0  0
 13 17  1  0  0  0  0
 13 12  1  0  0  0  0
 14 15  1  0  0  0  0
 14 13  2  0  0  0  0
 15 10  2  0  0  0  0
 18 14  1  0  0  0  0
 19 15  1  0  0  0  0
 21 20  2  0  0  0  0
 21 22  1  0  0  0  0
 22 24  1  0  0  0  0
 22 23  1  0  0  0  0
 25 22  1  0  0  0  0
 25 29  1  0  0  0  0
 26 25  1  0  0  0  0
 27 28  1  0  0  0  0
 28 29  2  0  0  0  0
 28 35  1  0  0  0  0
 29 30  1  0  0  0  0
 30 31  1  0  0  0  0
 30 32  2  0  0  0  0
 32 33  1  0  0  0  0
 34 32  1  0  0  0  0
 35 34  2  0  0  0  0
M  END
>  <minimizedAffinity>
-2.91858768

>  <minimizedRMSD>
1.31995523

$$$$
