
 OpenBabel03242521103D

 19 20  0  0  0  0  0  0  0  0999 V2000
   35.4540   29.3060   40.4780 S   0  0  0  0  0  0  0  0  0  0  0  0
   37.8040   26.6230   42.3840 C   0  0  0  0  0  0  0  0  0  0  0  0
   38.4240   27.4720   43.3460 C   0  0  0  0  0  0  0  0  0  0  0  0
   38.0860   28.8280   43.3570 C   0  0  0  0  0  0  0  0  0  0  0  0
   37.1860   29.2690   42.4530 N   0  0  0  0  0  0  0  0  0  0  0  0
   36.6050   28.4340   41.5420 C   0  0  0  0  0  0  0  0  0  0  0  0
   36.9160   27.1410   41.5180 N   0  0  0  0  0  0  0  0  0  0  0  0
   38.0140   25.5700   42.3170 H   0  0  0  0  0  0  0  0  0  0  0  0
   39.1290   27.0190   44.0200 H   0  0  0  0  0  0  0  0  0  0  0  0
   38.5620   29.4600   44.0880 H   0  0  0  0  0  0  0  0  0  0  0  0
   36.6530   31.9410   40.8040 F   0  0  0  0  0  0  0  0  0  0  0  0
   36.8420   31.4490   39.5650 C   0  0  0  0  0  0  0  0  0  0  0  0
   36.3530   30.2100   39.2000 C   0  0  0  0  0  0  0  0  0  0  0  0
   36.5350   29.6890   37.9380 C   0  0  0  0  0  0  0  0  0  0  0  0
   36.0990   28.7080   37.7870 H   0  0  0  0  0  0  0  0  0  0  0  0
   37.2230   30.3860   36.9670 C   0  0  0  0  0  0  0  0  0  0  0  0
   37.3120   29.8920   36.0090 H   0  0  0  0  0  0  0  0  0  0  0  0
   37.7180   31.6210   37.3090 C   0  0  0  0  0  3  0  0  0  0  0  0
   37.5330   32.1400   38.5760 C   0  0  0  0  0  3  0  0  0  0  0  0
  1  6  1  0  0  0  0
  2  3  1  0  0  0  0
  3  4  2  0  0  0  0
  3  9  1  0  0  0  0
  4 10  1  0  0  0  0
  5  4  1  0  0  0  0
  6  5  2  0  0  0  0
  7  6  1  0  0  0  0
  7  2  2  0  0  0  0
  8  2  1  0  0  0  0
 12 11  1  0  0  0  0
 13 12  1  0  0  0  0
 13  1  1  0  0  0  0
 14 13  2  0  0  0  0
 15 14  1  0  0  0  0
 16 18  2  0  0  0  0
 16 14  1  0  0  0  0
 17 16  1  0  0  0  0
 18 19  1  0  0  0  0
 19 12  2  0  0  0  0
M  END
>  <minimizedAffinity>
-4.46647215

$$$$

 OpenBabel03242521103D

 19 20  0  0  0  0  0  0  0  0999 V2000
   39.5130   29.4800   40.5610 S   0  0  0  0  0  0  0  0  0  0  0  0
   38.4760   33.3880   40.6140 C   0  0  0  0  0  0  0  0  0  0  0  0
   37.5020   33.4030   39.5750 C   0  0  0  0  0  0  0  0  0  0  0  0
   37.2150   32.2070   38.9120 C   0  0  0  0  0  0  0  0  0  0  0  0
   37.8770   31.0930   39.2890 N   0  0  0  0  0  0  0  0  0  0  0  0
   38.8070   31.1060   40.2880 C   0  0  0  0  0  0  0  0  0  0  0  0
   39.0920   32.2350   40.9290 N   0  0  0  0  0  0  0  0  0  0  0  0
   38.7480   34.2690   41.1690 H   0  0  0  0  0  0  0  0  0  0  0  0
   37.0330   34.3450   39.3540 H   0  0  0  0  0  0  0  0  0  0  0  0
   36.4770   32.2310   38.1280 H   0  0  0  0  0  0  0  0  0  0  0  0
   38.8160   30.0800   43.3250 F   0  0  0  0  0  0  0  0  0  0  0  0
   38.2180   28.9560   42.8850 C   0  0  0  0  0  0  0  0  0  0  0  0
   38.4150   28.4920   41.5990 C   0  0  0  0  0  0  0  0  0  0  0  0
   37.8140   27.3450   41.1310 C   0  0  0  0  0  0  0  0  0  0  0  0
   38.0550   27.0960   40.1040 H   0  0  0  0  0  0  0  0  0  0  0  0
   36.9760   26.5960   41.9300 C   0  0  0  0  0  0  0  0  0  0  0  0
   36.5530   25.7130   41.4700 H   0  0  0  0  0  0  0  0  0  0  0  0
   36.7670   27.0390   43.2130 C   0  0  0  0  0  3  0  0  0  0  0  0
   37.3710   28.1910   43.6790 C   0  0  0  0  0  3  0  0  0  0  0  0
  1 13  1  0  0  0  0
  2  7  1  0  0  0  0
  2  8  1  0  0  0  0
  3  2  2  0  0  0  0
  4  5  2  0  0  0  0
  4  3  1  0  0  0  0
  5  6  1  0  0  0  0
  6  1  1  0  0  0  0
  6  7  2  0  0  0  0
  9  3  1  0  0  0  0
 10  4  1  0  0  0  0
 12 11  1  0  0  0  0
 12 19  1  0  0  0  0
 13 12  2  0  0  0  0
 14 13  1  0  0  0  0
 14 16  2  0  0  0  0
 15 14  1  0  0  0  0
 16 18  1  0  0  0  0
 17 16  1  0  0  0  0
 18 19  2  0  0  0  0
M  END
>  <minimizedAffinity>
-4.45307112

$$$$

 OpenBabel03242521103D

 19 20  0  0  0  0  0  0  0  0999 V2000
   39.5560   29.6020   40.6610 S   0  0  0  0  0  0  0  0  0  0  0  0
   37.2980   32.5790   39.1150 C   0  0  0  0  0  0  0  0  0  0  0  0
   37.8290   33.6920   39.8280 C   0  0  0  0  0  0  0  0  0  0  0  0
   38.8550   33.4670   40.7500 C   0  0  0  0  0  0  0  0  0  0  0  0
   39.2950   32.2030   40.9190 N   0  0  0  0  0  0  0  0  0  0  0  0
   38.7690   31.1530   40.2220 C   0  0  0  0  0  0  0  0  0  0  0  0
   37.7930   31.3500   39.3420 N   0  0  0  0  0  0  0  0  0  0  0  0
   36.5080   32.6760   38.3900 H   0  0  0  0  0  0  0  0  0  0  0  0
   37.4060   34.6580   39.6180 H   0  0  0  0  0  0  0  0  0  0  0  0
   39.2480   34.3160   41.2830 H   0  0  0  0  0  0  0  0  0  0  0  0
   38.7800   30.1250   43.4190 F   0  0  0  0  0  0  0  0  0  0  0  0
   38.1940   29.0160   42.9300 C   0  0  0  0  0  0  0  0  0  0  0  0
   38.4270   28.5870   41.6380 C   0  0  0  0  0  0  0  0  0  0  0  0
   37.8380   27.4560   41.1200 C   0  0  0  0  0  0  0  0  0  0  0  0
   38.1090   27.2350   40.0940 H   0  0  0  0  0  0  0  0  0  0  0  0
   36.9760   26.6860   41.8740 C   0  0  0  0  0  0  0  0  0  0  0  0
   36.5650   25.8180   41.3770 H   0  0  0  0  0  0  0  0  0  0  0  0
   36.7310   27.0940   43.1620 C   0  0  0  0  0  3  0  0  0  0  0  0
   37.3230   28.2300   43.6780 C   0  0  0  0  0  3  0  0  0  0  0  0
  1 13  1  0  0  0  0
  2  7  2  0  0  0  0
  2  3  1  0  0  0  0
  3  4  2  0  0  0  0
  4  5  1  0  0  0  0
  4 10  1  0  0  0  0
  6  1  1  0  0  0  0
  6  5  2  0  0  0  0
  7  6  1  0  0  0  0
  8  2  1  0  0  0  0
  9  3  1  0  0  0  0
 12 11  1  0  0  0  0
 12 19  1  0  0  0  0
 13 12  2  0  0  0  0
 14 13  1  0  0  0  0
 14 16  2  0  0  0  0
 15 14  1  0  0  0  0
 16 18  1  0  0  0  0
 17 16  1  0  0  0  0
 18 19  2  0  0  0  0
M  END
>  <minimizedAffinity>
-4.44662905

$$$$

 OpenBabel03242521103D

 19 20  0  0  0  0  0  0  0  0999 V2000
   36.6800   31.1210   40.7490 S   0  0  0  0  0  0  0  0  0  0  0  0
   39.6710   33.8220   40.4080 C   0  0  0  0  0  0  0  0  0  0  0  0
   40.3370   33.3130   39.2560 C   0  0  0  0  0  0  0  0  0  0  0  0
   39.8310   32.1630   38.6450 C   0  0  0  0  0  0  0  0  0  0  0  0
   38.7310   31.5890   39.1760 N   0  0  0  0  0  0  0  0  0  0  0  0
   38.1100   32.0980   40.2810 C   0  0  0  0  0  0  0  0  0  0  0  0
   38.5800   33.1900   40.8750 N   0  0  0  0  0  0  0  0  0  0  0  0
   40.0030   34.7020   40.9310 H   0  0  0  0  0  0  0  0  0  0  0  0
   41.2060   33.8470   38.9150 H   0  0  0  0  0  0  0  0  0  0  0  0
   40.3430   31.7880   37.7750 H   0  0  0  0  0  0  0  0  0  0  0  0
   35.1980   28.6250   40.9860 F   0  0  0  0  0  0  0  0  0  0  0  0
   36.3440   28.6030   41.6950 C   0  0  0  0  0  0  0  0  0  0  0  0
   37.1960   29.6880   41.7190 C   0  0  0  0  0  0  0  0  0  0  0  0
   38.3710   29.6860   42.4370 C   0  0  0  0  0  0  0  0  0  0  0  0
   38.9440   30.6030   42.3690 H   0  0  0  0  0  0  0  0  0  0  0  0
   38.7580   28.5870   43.1760 C   0  0  0  0  0  0  0  0  0  0  0  0
   39.6970   28.6840   43.7040 H   0  0  0  0  0  0  0  0  0  0  0  0
   37.9240   27.4960   43.1660 C   0  0  0  0  0  3  0  0  0  0  0  0
   36.7470   27.5020   42.4430 C   0  0  0  0  0  3  0  0  0  0  0  0
  1 13  1  0  0  0  0
  2  7  1  0  0  0  0
  2  8  1  0  0  0  0
  3  2  2  0  0  0  0
  4  5  2  0  0  0  0
  4  3  1  0  0  0  0
  5  6  1  0  0  0  0
  6  1  1  0  0  0  0
  6  7  2  0  0  0  0
  9  3  1  0  0  0  0
 10  4  1  0  0  0  0
 11 12  1  0  0  0  0
 12 13  2  0  0  0  0
 12 19  1  0  0  0  0
 13 14  1  0  0  0  0
 14 16  2  0  0  0  0
 15 14  1  0  0  0  0
 16 17  1  0  0  0  0
 18 16  1  0  0  0  0
 19 18  2  0  0  0  0
M  END
>  <minimizedAffinity>
-4.43219662

$$$$

 OpenBabel03242521103D

 19 20  0  0  0  0  0  0  0  0999 V2000
   36.3230   30.7490   41.0940 S   0  0  0  0  0  0  0  0  0  0  0  0
   37.7090   31.4060   37.3520 C   0  0  0  0  0  0  0  0  0  0  0  0
   37.0950   30.3200   36.6640 C   0  0  0  0  0  0  0  0  0  0  0  0
   36.2860   29.4410   37.3890 C   0  0  0  0  0  0  0  0  0  0  0  0
   36.1240   29.6650   38.7100 N   0  0  0  0  0  0  0  0  0  0  0  0
   36.7240   30.7140   39.3460 C   0  0  0  0  0  0  0  0  0  0  0  0
   37.4970   31.5580   38.6710 N   0  0  0  0  0  0  0  0  0  0  0  0
   38.3430   32.1220   36.8600 H   0  0  0  0  0  0  0  0  0  0  0  0
   37.2900   30.2330   35.6100 H   0  0  0  0  0  0  0  0  0  0  0  0
   35.8280   28.6240   36.8580 H   0  0  0  0  0  0  0  0  0  0  0  0
   38.9630   30.7380   42.3240 F   0  0  0  0  0  0  0  0  0  0  0  0
   38.3420   29.5490   42.4480 C   0  0  0  0  0  0  0  0  0  0  0  0
   37.0780   29.3400   41.9330 C   0  0  0  0  0  0  0  0  0  0  0  0
   36.4270   28.1330   42.0490 C   0  0  0  0  0  0  0  0  0  0  0  0
   35.4410   28.1060   41.6000 H   0  0  0  0  0  0  0  0  0  0  0  0
   37.0110   27.0610   42.6920 C   0  0  0  0  0  0  0  0  0  0  0  0
   36.4190   26.1570   42.7300 H   0  0  0  0  0  0  0  0  0  0  0  0
   38.2690   27.2470   43.2110 C   0  0  0  0  0  3  0  0  0  0  0  0
   38.9190   28.4610   43.0930 C   0  0  0  0  0  3  0  0  0  0  0  0
  1 13  1  0  0  0  0
  2  7  1  0  0  0  0
  3  2  2  0  0  0  0
  3  4  1  0  0  0  0
  4  5  2  0  0  0  0
  5  6  1  0  0  0  0
  6  1  1  0  0  0  0
  7  6  2  0  0  0  0
  8  2  1  0  0  0  0
  9  3  1  0  0  0  0
 10  4  1  0  0  0  0
 11 12  1  0  0  0  0
 12 19  1  0  0  0  0
 13 14  1  0  0  0  0
 13 12  2  0  0  0  0
 14 16  2  0  0  0  0
 15 14  1  0  0  0  0
 16 17  1  0  0  0  0
 16 18  1  0  0  0  0
 19 18  2  0  0  0  0
M  END
>  <minimizedAffinity>
-4.35791492

$$$$

 OpenBabel03242521103D

 19 20  0  0  0  0  0  0  0  0999 V2000
   35.4450   29.2750   40.4910 S   0  0  0  0  0  0  0  0  0  0  0  0
   37.7660   26.6630   42.5260 C   0  0  0  0  0  0  0  0  0  0  0  0
   38.4280   27.5570   43.4160 C   0  0  0  0  0  0  0  0  0  0  0  0
   38.1250   28.9190   43.3420 C   0  0  0  0  0  0  0  0  0  0  0  0
   37.2170   29.3230   42.4290 N   0  0  0  0  0  0  0  0  0  0  0  0
   36.5960   28.4450   41.5880 C   0  0  0  0  0  0  0  0  0  0  0  0
   36.8730   27.1460   41.6450 N   0  0  0  0  0  0  0  0  0  0  0  0
   37.9480   25.6030   42.5250 H   0  0  0  0  0  0  0  0  0  0  0  0
   39.1350   27.1310   44.1050 H   0  0  0  0  0  0  0  0  0  0  0  0
   38.6320   29.5850   44.0200 H   0  0  0  0  0  0  0  0  0  0  0  0
   36.0090   28.4360   37.7600 F   0  0  0  0  0  0  0  0  0  0  0  0
   36.5030   29.6600   38.0250 C   0  0  0  0  0  0  0  0  0  0  0  0
   36.3460   30.2470   39.2650 C   0  0  0  0  0  0  0  0  0  0  0  0
   36.8440   31.4970   39.5570 C   0  0  0  0  0  0  0  0  0  0  0  0
   36.6500   31.8370   40.5680 H   0  0  0  0  0  0  0  0  0  0  0  0
   37.5320   32.2330   38.6150 C   0  0  0  0  0  0  0  0  0  0  0  0
   37.8820   33.2030   38.9400 H   0  0  0  0  0  0  0  0  0  0  0  0
   37.6990   31.6680   37.3740 C   0  0  0  0  0  3  0  0  0  0  0  0
   37.1980   30.4140   37.0850 C   0  0  0  0  0  3  0  0  0  0  0  0
  1  6  1  0  0  0  0
  2  3  1  0  0  0  0
  3  9  1  0  0  0  0
  4  3  2  0  0  0  0
  4 10  1  0  0  0  0
  5  4  1  0  0  0  0
  6  7  1  0  0  0  0
  6  5  2  0  0  0  0
  7  2  2  0  0  0  0
  8  2  1  0  0  0  0
 11 12  1  0  0  0  0
 12 13  1  0  0  0  0
 13 14  2  0  0  0  0
 13  1  1  0  0  0  0
 14 15  1  0  0  0  0
 16 17  1  0  0  0  0
 16 14  1  0  0  0  0
 18 16  2  0  0  0  0
 19 18  1  0  0  0  0
 19 12  2  0  0  0  0
M  END
>  <minimizedAffinity>
-4.27817297

$$$$

 OpenBabel03242521103D

 19 20  0  0  0  0  0  0  0  0999 V2000
   38.7970   28.4560   42.8820 S   0  0  0  0  0  0  0  0  0  0  0  0
   38.3330   30.9250   39.7130 C   0  0  0  0  0  0  0  0  0  0  0  0
   36.9800   31.3260   39.9050 C   0  0  0  0  0  0  0  0  0  0  0  0
   36.2800   30.8150   41.0000 C   0  0  0  0  0  0  0  0  0  0  0  0
   36.9220   29.9630   41.8270 N   0  0  0  0  0  0  0  0  0  0  0  0
   38.2210   29.5950   41.6210 C   0  0  0  0  0  0  0  0  0  0  0  0
   38.9010   30.0720   40.5840 N   0  0  0  0  0  0  0  0  0  0  0  0
   38.9340   31.2780   38.8930 H   0  0  0  0  0  0  0  0  0  0  0  0
   36.5630   32.0100   39.1860 H   0  0  0  0  0  0  0  0  0  0  0  0
   35.2570   31.1250   41.1340 H   0  0  0  0  0  0  0  0  0  0  0  0
   36.2490   27.0760   43.1720 F   0  0  0  0  0  0  0  0  0  0  0  0
   37.1880   26.2920   42.6070 C   0  0  0  0  0  0  0  0  0  0  0  0
   38.4690   26.7540   42.3790 C   0  0  0  0  0  0  0  0  0  0  0  0
   39.4430   25.9690   41.8040 C   0  0  0  0  0  0  0  0  0  0  0  0
   40.4040   26.4560   41.6840 H   0  0  0  0  0  0  0  0  0  0  0  0
   39.1840   24.6690   41.4230 C   0  0  0  0  0  0  0  0  0  0  0  0
   40.0140   24.1350   40.9800 H   0  0  0  0  0  0  0  0  0  0  0  0
   37.9160   24.1890   41.6400 C   0  0  0  0  0  3  0  0  0  0  0  0
   36.9410   24.9800   42.2180 C   0  0  0  0  0  3  0  0  0  0  0  0
  2  3  2  0  0  0  0
  2  7  1  0  0  0  0
  3  4  1  0  0  0  0
  4 10  1  0  0  0  0
  4  5  2  0  0  0  0
  6  5  1  0  0  0  0
  6  1  1  0  0  0  0
  7  6  2  0  0  0  0
  8  2  1  0  0  0  0
  9  3  1  0  0  0  0
 12 11  1  0  0  0  0
 13 12  1  0  0  0  0
 13  1  1  0  0  0  0
 14 13  2  0  0  0  0
 15 14  1  0  0  0  0
 16 18  2  0  0  0  0
 16 14  1  0  0  0  0
 17 16  1  0  0  0  0
 18 19  1  0  0  0  0
 19 12  2  0  0  0  0
M  END
>  <minimizedAffinity>
-4.24850798

$$$$

 OpenBabel03242521103D

 19 20  0  0  0  0  0  0  0  0999 V2000
   37.4150   28.1890   43.6720 S   0  0  0  0  0  0  0  0  0  0  0  0
   37.1880   31.0320   40.8060 C   0  0  0  0  0  0  0  0  0  0  0  0
   38.5070   31.5650   40.8770 C   0  0  0  0  0  0  0  0  0  0  0  0
   39.3990   31.0210   41.8060 C   0  0  0  0  0  0  0  0  0  0  0  0
   38.9650   30.0130   42.5920 N   0  0  0  0  0  0  0  0  0  0  0  0
   37.6950   29.5200   42.5030 C   0  0  0  0  0  0  0  0  0  0  0  0
   36.8350   30.0270   41.6250 N   0  0  0  0  0  0  0  0  0  0  0  0
   36.4490   31.4000   40.1160 H   0  0  0  0  0  0  0  0  0  0  0  0
   38.7500   32.3690   40.2050 H   0  0  0  0  0  0  0  0  0  0  0  0
   40.3930   31.4330   41.8510 H   0  0  0  0  0  0  0  0  0  0  0  0
   40.1160   27.0960   43.6790 F   0  0  0  0  0  0  0  0  0  0  0  0
   39.2410   26.2800   43.0590 C   0  0  0  0  0  0  0  0  0  0  0  0
   37.9050   26.6100   42.9450 C   0  0  0  0  0  0  0  0  0  0  0  0
   36.9960   25.7900   42.3150 C   0  0  0  0  0  0  0  0  0  0  0  0
   35.9810   26.1710   42.2960 H   0  0  0  0  0  0  0  0  0  0  0  0
   37.3790   24.5860   41.7620 C   0  0  0  0  0  0  0  0  0  0  0  0
   36.5910   24.0150   41.2900 H   0  0  0  0  0  0  0  0  0  0  0  0
   38.7030   24.2390   41.8640 C   0  0  0  0  0  3  0  0  0  0  0  0
   39.6130   25.0640   42.4970 C   0  0  0  0  0  3  0  0  0  0  0  0
  2  3  2  0  0  0  0
  2  7  1  0  0  0  0
  3  4  1  0  0  0  0
  4 10  1  0  0  0  0
  4  5  2  0  0  0  0
  6  5  1  0  0  0  0
  6  1  1  0  0  0  0
  7  6  2  0  0  0  0
  8  2  1  0  0  0  0
  9  3  1  0  0  0  0
 12 11  1  0  0  0  0
 13 12  1  0  0  0  0
 13  1  1  0  0  0  0
 14 13  2  0  0  0  0
 15 14  1  0  0  0  0
 16 18  2  0  0  0  0
 16 14  1  0  0  0  0
 17 16  1  0  0  0  0
 18 19  1  0  0  0  0
 19 12  2  0  0  0  0
M  END
>  <minimizedAffinity>
-4.23940277

$$$$

 OpenBabel03242521103D

 19 20  0  0  0  0  0  0  0  0999 V2000
   37.4100   29.6040   39.6530 S   0  0  0  0  0  0  0  0  0  0  0  0
   39.8860   32.7740   40.0660 C   0  0  0  0  0  0  0  0  0  0  0  0
   38.9430   33.8390   39.9950 C   0  0  0  0  0  0  0  0  0  0  0  0
   37.5920   33.5250   39.8230 C   0  0  0  0  0  0  0  0  0  0  0  0
   37.2460   32.2240   39.7330 N   0  0  0  0  0  0  0  0  0  0  0  0
   38.1700   31.2210   39.8040 C   0  0  0  0  0  0  0  0  0  0  0  0
   39.4590   31.5030   39.9670 N   0  0  0  0  0  0  0  0  0  0  0  0
   40.9410   32.9390   40.1970 H   0  0  0  0  0  0  0  0  0  0  0  0
   39.3260   34.8410   40.0780 H   0  0  0  0  0  0  0  0  0  0  0  0
   36.8890   34.3390   39.7710 H   0  0  0  0  0  0  0  0  0  0  0  0
   36.6110   26.8420   40.1240 F   0  0  0  0  0  0  0  0  0  0  0  0
   36.9330   27.4780   41.2670 C   0  0  0  0  0  0  0  0  0  0  0  0
   37.3400   28.7970   41.2670 C   0  0  0  0  0  0  0  0  0  0  0  0
   37.6730   29.4650   42.4250 C   0  0  0  0  0  0  0  0  0  0  0  0
   37.9740   30.4960   42.2810 H   0  0  0  0  0  0  0  0  0  0  0  0
   37.6160   28.8420   43.6540 C   0  0  0  0  0  0  0  0  0  0  0  0
   37.8970   29.4510   44.5020 H   0  0  0  0  0  0  0  0  0  0  0  0
   37.2140   27.5290   43.6760 C   0  0  0  0  0  3  0  0  0  0  0  0
   36.8810   26.8630   42.5130 C   0  0  0  0  0  3  0  0  0  0  0  0
  1  6  1  0  0  0  0
  1 13  1  0  0  0  0
  2  8  1  0  0  0  0
  3  2  1  0  0  0  0
  3  9  1  0  0  0  0
  4  3  2  0  0  0  0
  5  6  2  0  0  0  0
  5  4  1  0  0  0  0
  6  7  1  0  0  0  0
  7  2  2  0  0  0  0
 10  4  1  0  0  0  0
 11 12  1  0  0  0  0
 12 13  2  0  0  0  0
 12 19  1  0  0  0  0
 13 14  1  0  0  0  0
 14 16  2  0  0  0  0
 15 14  1  0  0  0  0
 16 18  1  0  0  0  0
 16 17  1  0  0  0  0
 19 18  2  0  0  0  0
M  END
>  <minimizedAffinity>
-4.22110271

$$$$
