
 OpenBabel03252502573D

 37 39  0  0  0  0  0  0  0  0999 V2000
   41.7370   29.1640   42.5230 Br  0  0  0  0  0  0  0  0  0  0  0  0
   39.8770   28.7850   42.8190 C   0  0  0  0  0  0  0  0  0  0  0  0
   39.0020   29.7820   42.4740 C   0  0  0  0  0  0  0  0  0  0  0  0
   37.6480   29.4720   42.7040 C   0  0  0  0  0  0  0  0  0  0  0  0
   37.2220   28.2750   43.2310 C   0  0  0  0  0  0  0  0  0  0  0  0
   38.1610   27.3260   43.5500 C   0  0  0  0  0  0  0  0  0  0  0  0
   39.4980   27.5700   43.3500 C   0  0  0  0  0  0  0  0  0  0  0  0
   36.8620   30.1890   42.4670 H   0  0  0  0  0  0  0  0  0  0  0  0
   36.1700   28.0790   43.3900 H   0  0  0  0  0  0  0  0  0  0  0  0
   37.8010   26.3890   43.9640 H   0  0  0  0  0  0  0  0  0  0  0  0
   39.3180   31.0890   41.9100 C   0  0  0  0  0  0  0  0  0  0  0  0
   38.9340   31.8760   42.5990 H   0  0  0  0  0  0  0  0  0  0  0  0
   40.4030   31.2110   41.8340 H   0  0  0  0  0  0  0  0  0  0  0  0
   38.3800   30.8530   38.3030 C   0  0  0  0  0  0  0  0  0  0  0  0
   37.4830   31.9130   38.1760 C   0  0  0  0  0  0  0  0  0  0  0  0
   37.2110   32.6880   39.3040 C   0  0  0  0  0  0  0  0  0  0  0  0
   37.8260   32.3800   40.4720 N   0  0  0  0  0  0  0  0  0  0  0  0
   38.7010   31.3370   40.5790 C   0  0  0  0  0  0  0  0  0  0  0  0
   38.9450   30.6100   39.4820 N   0  0  0  0  0  0  0  0  0  0  0  0
   38.5770   30.2650   37.4150 H   0  0  0  0  0  0  0  0  0  0  0  0
   37.0230   32.1080   37.2070 H   0  0  0  0  0  0  0  0  0  0  0  0
   36.5270   33.4920   39.1890 H   0  0  0  0  0  0  0  0  0  0  0  0
   40.4550   26.6020   43.6770 O   0  0  0  0  0  0  0  0  0  0  0  0
   39.7340   24.1160   43.5430 O   0  0  0  0  0  0  0  0  0  0  0  0
   40.6090   25.1330   42.8370 P   0  0  2  0  0  0  0  0  0  0  0  0
   42.2180   24.6530   42.9230 O   0  0  0  0  0  0  0  0  0  0  0  0
   42.6490   24.9710   42.0780 H   0  0  0  0  0  0  0  0  0  0  0  0
   40.1130   25.2590   41.2380 O   0  0  0  0  0  0  0  0  0  0  0  0
   39.0150   27.4030   40.0100 F   0  0  0  0  0  0  0  0  0  0  0  0
   38.3460   26.2080   40.1150 C   0  0  0  0  0  0  0  0  0  0  0  0
   38.8520   25.0600   40.7360 C   0  0  0  0  0  0  0  0  0  0  0  0
   38.0630   23.9410   40.7590 C   0  0  0  0  0  0  0  0  0  0  0  0
   38.5090   23.1030   41.2470 H   0  0  0  0  0  0  0  0  0  0  0  0
   36.8050   23.9840   40.1760 C   0  0  0  0  0  0  0  0  0  0  0  0
   36.2240   23.0800   40.2210 H   0  0  0  0  0  0  0  0  0  0  0  0
   36.3020   25.1140   39.5620 C   0  0  0  0  0  3  0  0  0  0  0  0
   37.0910   26.2230   39.5420 C   0  0  0  0  0  3  0  0  0  0  0  0
  1  2  1  0  0  0  0
  2  7  1  0  0  0  0
  3  4  1  0  0  0  0
  3  2  2  0  0  0  0
  4  5  2  0  0  0  0
  5  9  1  0  0  0  0
  5  6  1  0  0  0  0
  6 10  1  0  0  0  0
  7  6  2  0  0  0  0
  7 23  1  0  0  0  0
  8  4  1  0  0  0  0
 11  3  1  0  0  0  0
 11 12  1  0  0  0  0
 13 11  1  0  0  0  0
 14 19  1  0  0  0  0
 15 14  2  0  0  0  0
 15 16  1  0  0  0  0
 16 17  2  0  0  0  0
 17 18  1  0  0  0  0
 18 11  1  0  0  0  0
 19 18  2  0  0  0  0
 20 14  1  0  0  0  0
 21 15  1  0  0  0  0
 22 16  1  0  0  0  0
 25 26  1  0  0  0  0
 25 24  2  1  0  0  0
 25 23  1  0  0  0  0
 27 26  1  0  0  0  0
 28 25  1  0  0  0  0
 29 30  1  0  0  0  0
 30 31  1  0  0  0  0
 31 32  2  0  0  0  0
 31 28  1  0  0  0  0
 32 33  1  0  0  0  0
 34 35  1  0  0  0  0
 34 32  1  0  0  0  0
 36 34  2  0  0  0  0
 37 36  1  0  0  0  0
 37 30  2  0  0  0  0
M  END
>  <minimizedAffinity>
-5.90525436

$$$$

 OpenBabel03252502573D

 37 39  0  0  0  0  0  0  0  0999 V2000
   39.2290   29.7750   42.9520 Br  0  0  0  0  0  0  0  0  0  0  0  0
   37.6420   29.6880   41.8740 C   0  0  0  0  0  0  0  0  0  0  0  0
   36.9470   28.5070   41.9280 C   0  0  0  0  0  0  0  0  0  0  0  0
   35.7890   28.4770   41.1260 C   0  0  0  0  0  0  0  0  0  0  0  0
   35.3770   29.5330   40.3490 C   0  0  0  0  0  0  0  0  0  0  0  0
   36.1260   30.6830   40.3490 C   0  0  0  0  0  0  0  0  0  0  0  0
   37.2660   30.7730   41.1100 C   0  0  0  0  0  0  0  0  0  0  0  0
   35.1580   27.5890   41.0910 H   0  0  0  0  0  0  0  0  0  0  0  0
   34.4790   29.4650   39.7480 H   0  0  0  0  0  0  0  0  0  0  0  0
   35.7800   31.5030   39.7280 H   0  0  0  0  0  0  0  0  0  0  0  0
   37.2730   27.3170   42.7050 C   0  0  0  0  0  0  0  0  0  0  0  0
   38.1700   27.5330   43.3270 H   0  0  0  0  0  0  0  0  0  0  0  0
   36.4460   27.0750   43.3810 H   0  0  0  0  0  0  0  0  0  0  0  0
   37.2500   23.9050   41.1860 C   0  0  0  0  0  0  0  0  0  0  0  0
   38.3020   23.9970   40.2750 C   0  0  0  0  0  0  0  0  0  0  0  0
   38.9990   25.2020   40.1880 C   0  0  0  0  0  0  0  0  0  0  0  0
   38.6270   26.2300   40.9890 N   0  0  0  0  0  0  0  0  0  0  0  0
   37.5940   26.1250   41.8750 C   0  0  0  0  0  0  0  0  0  0  0  0
   36.9420   24.9570   41.9390 N   0  0  0  0  0  0  0  0  0  0  0  0
   36.7230   22.9610   41.2370 H   0  0  0  0  0  0  0  0  0  0  0  0
   38.5500   23.1310   39.6610 H   0  0  0  0  0  0  0  0  0  0  0  0
   39.7970   25.2540   39.4900 H   0  0  0  0  0  0  0  0  0  0  0  0
   38.0310   31.9460   41.1090 O   0  0  0  0  0  0  0  0  0  0  0  0
   39.3840   33.8480   39.9820 O   0  0  0  0  0  0  0  0  0  0  0  0
   38.1880   32.9480   39.7460 P   0  0  2  0  0  0  0  0  0  0  0  0
   36.7930   33.8800   39.6260 O   0  0  0  0  0  0  0  0  0  0  0  0
   36.1940   33.4020   38.9800 H   0  0  0  0  0  0  0  0  0  0  0  0
   38.4370   32.0710   38.3360 O   0  0  0  0  0  0  0  0  0  0  0  0
   38.5500   29.3740   38.4950 F   0  0  0  0  0  0  0  0  0  0  0  0
   39.5990   30.1150   38.0080 C   0  0  0  0  0  0  0  0  0  0  0  0
   39.6100   31.5100   37.8980 C   0  0  0  0  0  0  0  0  0  0  0  0
   40.7340   32.1060   37.3900 C   0  0  0  0  0  0  0  0  0  0  0  0
   40.6750   33.1710   37.3340 H   0  0  0  0  0  0  0  0  0  0  0  0
   41.8090   31.3170   37.0090 C   0  0  0  0  0  0  0  0  0  0  0  0
   42.6680   31.8330   36.6170 H   0  0  0  0  0  0  0  0  0  0  0  0
   41.8030   29.9400   37.1160 C   0  0  0  0  0  3  0  0  0  0  0  0
   40.6830   29.3540   37.6200 C   0  0  0  0  0  3  0  0  0  0  0  0
  2  3  1  0  0  0  0
  2  1  1  0  0  0  0
  3 11  1  0  0  0  0
  4  3  2  0  0  0  0
  5  6  2  0  0  0  0
  5  4  1  0  0  0  0
  6  7  1  0  0  0  0
  7  2  2  0  0  0  0
  8  4  1  0  0  0  0
  9  5  1  0  0  0  0
 10  6  1  0  0  0  0
 11 12  1  0  0  0  0
 11 13  1  0  0  0  0
 14 20  1  0  0  0  0
 14 19  1  0  0  0  0
 15 14  2  0  0  0  0
 16 15  1  0  0  0  0
 16 17  2  0  0  0  0
 17 18  1  0  0  0  0
 18 19  2  0  0  0  0
 18 11  1  0  0  0  0
 21 15  1  0  0  0  0
 22 16  1  0  0  0  0
 23  7  1  0  0  0  0
 25 24  2  1  0  0  0
 25 23  1  0  0  0  0
 26 25  1  0  0  0  0
 27 26  1  0  0  0  0
 28 25  1  0  0  0  0
 30 29  1  0  0  0  0
 31 30  1  0  0  0  0
 31 28  1  0  0  0  0
 32 31  2  0  0  0  0
 33 32  1  0  0  0  0
 34 36  2  0  0  0  0
 34 32  1  0  0  0  0
 35 34  1  0  0  0  0
 36 37  1  0  0  0  0
 37 30  2  0  0  0  0
M  END
>  <minimizedAffinity>
-5.8945508

$$$$

 OpenBabel03252502573D

 37 39  0  0  0  0  0  0  0  0999 V2000
   39.9860   30.0410   38.2040 Br  0  0  0  0  0  0  0  0  0  0  0  0
   39.8280   31.7110   39.1400 C   0  0  0  0  0  0  0  0  0  0  0  0
   40.5910   32.7420   38.6560 C   0  0  0  0  0  0  0  0  0  0  0  0
   40.4510   33.9510   39.3650 C   0  0  0  0  0  0  0  0  0  0  0  0
   39.6250   34.1010   40.4530 C   0  0  0  0  0  0  0  0  0  0  0  0
   38.8920   33.0210   40.8770 C   0  0  0  0  0  0  0  0  0  0  0  0
   38.9850   31.8140   40.2270 C   0  0  0  0  0  0  0  0  0  0  0  0
   41.0090   34.8390   39.0690 H   0  0  0  0  0  0  0  0  0  0  0  0
   39.5490   35.0500   40.9680 H   0  0  0  0  0  0  0  0  0  0  0  0
   38.2460   33.1640   41.7380 H   0  0  0  0  0  0  0  0  0  0  0  0
   41.5030   32.7170   37.5180 C   0  0  0  0  0  0  0  0  0  0  0  0
   41.2640   31.8300   36.8900 H   0  0  0  0  0  0  0  0  0  0  0  0
   41.3580   33.6120   36.9040 H   0  0  0  0  0  0  0  0  0  0  0  0
   44.7990   31.4310   38.7130 C   0  0  0  0  0  0  0  0  0  0  0  0
   45.6110   32.5540   38.5590 C   0  0  0  0  0  0  0  0  0  0  0  0
   45.0370   33.7220   38.0580 C   0  0  0  0  0  0  0  0  0  0  0  0
   43.7180   33.7180   37.7420 N   0  0  0  0  0  0  0  0  0  0  0  0
   42.9370   32.6090   37.8970 C   0  0  0  0  0  0  0  0  0  0  0  0
   43.5140   31.5010   38.3810 N   0  0  0  0  0  0  0  0  0  0  0  0
   45.2660   30.5350   39.1030 H   0  0  0  0  0  0  0  0  0  0  0  0
   46.6640   32.4900   38.8330 H   0  0  0  0  0  0  0  0  0  0  0  0
   45.6690   34.5680   37.9490 H   0  0  0  0  0  0  0  0  0  0  0  0
   38.2380   30.7120   40.6600 O   0  0  0  0  0  0  0  0  0  0  0  0
   36.4220   31.1780   38.8710 O   0  0  0  0  0  0  0  0  0  0  0  0
   36.6330   30.4360   40.1750 P   0  0  2  0  0  0  0  0  0  0  0  0
   35.6190   31.0680   41.3590 O   0  0  0  0  0  0  0  0  0  0  0  0
   35.3780   30.3020   41.9570 H   0  0  0  0  0  0  0  0  0  0  0  0
   36.3140   28.8060   39.9310 O   0  0  0  0  0  0  0  0  0  0  0  0
   36.5670   26.3910   38.7400 F   0  0  0  0  0  0  0  0  0  0  0  0
   36.7080   26.5470   40.0980 C   0  0  0  0  0  0  0  0  0  0  0  0
   36.5900   27.7640   40.7800 C   0  0  0  0  0  0  0  0  0  0  0  0
   36.7580   27.7580   42.1390 C   0  0  0  0  0  0  0  0  0  0  0  0
   36.6550   28.7180   42.5950 H   0  0  0  0  0  0  0  0  0  0  0  0
   37.0350   26.5620   42.7840 C   0  0  0  0  0  0  0  0  0  0  0  0
   37.1580   26.6100   43.8520 H   0  0  0  0  0  0  0  0  0  0  0  0
   37.1530   25.3590   42.1160 C   0  0  0  0  0  3  0  0  0  0  0  0
   36.9850   25.3710   40.7650 C   0  0  0  0  0  3  0  0  0  0  0  0
  1  2  1  0  0  0  0
  2  7  1  0  0  0  0
  3  2  2  0  0  0  0
  3  4  1  0  0  0  0
  4  5  2  0  0  0  0
  5  6  1  0  0  0  0
  5  9  1  0  0  0  0
  6 10  1  0  0  0  0
  7 23  1  0  0  0  0
  7  6  2  0  0  0  0
  8  4  1  0  0  0  0
 11 18  1  0  0  0  0
 11  3  1  0  0  0  0
 12 11  1  0  0  0  0
 13 11  1  0  0  0  0
 14 20  1  0  0  0  0
 15 14  1  0  0  0  0
 15 21  1  0  0  0  0
 16 15  2  0  0  0  0
 17 18  2  0  0  0  0
 17 16  1  0  0  0  0
 18 19  1  0  0  0  0
 19 14  2  0  0  0  0
 22 16  1  0  0  0  0
 25 24  2  6  0  0  0
 25 23  1  0  0  0  0
 25 26  1  0  0  0  0
 26 27  1  0  0  0  0
 28 25  1  0  0  0  0
 28 31  1  0  0  0  0
 29 30  1  0  0  0  0
 30 37  2  0  0  0  0
 30 31  1  0  0  0  0
 31 32  2  0  0  0  0
 32 33  1  0  0  0  0
 32 34  1  0  0  0  0
 34 35  1  0  0  0  0
 36 34  2  0  0  0  0
 37 36  1  0  0  0  0
M  END
>  <minimizedAffinity>
-5.78095055

$$$$

 OpenBabel03252502573D

 37 39  0  0  0  0  0  0  0  0999 V2000
   37.9760   32.2310   39.2550 Br  0  0  0  0  0  0  0  0  0  0  0  0
   39.2100   31.4270   40.4880 C   0  0  0  0  0  0  0  0  0  0  0  0
   40.2480   32.2220   40.8980 C   0  0  0  0  0  0  0  0  0  0  0  0
   41.1340   31.6020   41.8010 C   0  0  0  0  0  0  0  0  0  0  0  0
   40.9840   30.3090   42.2430 C   0  0  0  0  0  0  0  0  0  0  0  0
   39.9170   29.5770   41.7870 C   0  0  0  0  0  0  0  0  0  0  0  0
   39.0190   30.1250   40.9040 C   0  0  0  0  0  0  0  0  0  0  0  0
   41.9960   32.1390   42.1950 H   0  0  0  0  0  0  0  0  0  0  0  0
   41.6900   29.8730   42.9380 H   0  0  0  0  0  0  0  0  0  0  0  0
   39.8200   28.5580   42.1500 H   0  0  0  0  0  0  0  0  0  0  0  0
   40.5220   33.6010   40.5090 C   0  0  0  0  0  0  0  0  0  0  0  0
   39.5970   34.0360   40.0680 H   0  0  0  0  0  0  0  0  0  0  0  0
   40.7830   34.1940   41.3920 H   0  0  0  0  0  0  0  0  0  0  0  0
   42.3820   33.8010   37.2770 C   0  0  0  0  0  0  0  0  0  0  0  0
   43.6890   34.0080   37.7180 C   0  0  0  0  0  0  0  0  0  0  0  0
   43.9210   34.0760   39.0920 C   0  0  0  0  0  0  0  0  0  0  0  0
   42.8710   33.9390   39.9390 N   0  0  0  0  0  0  0  0  0  0  0  0
   41.5970   33.7380   39.4910 C   0  0  0  0  0  0  0  0  0  0  0  0
   41.4030   33.6760   38.1670 N   0  0  0  0  0  0  0  0  0  0  0  0
   42.2250   33.7520   36.2070 H   0  0  0  0  0  0  0  0  0  0  0  0
   44.4880   34.1100   36.9830 H   0  0  0  0  0  0  0  0  0  0  0  0
   44.9210   34.2330   39.4100 H   0  0  0  0  0  0  0  0  0  0  0  0
   37.9310   29.3780   40.4380 O   0  0  0  0  0  0  0  0  0  0  0  0
   35.3650   29.2640   40.7830 O   0  0  0  0  0  0  0  0  0  0  0  0
   36.6660   28.8580   41.4460 P   0  0  2  0  0  0  0  0  0  0  0  0
   36.8210   29.6510   42.9210 O   0  0  0  0  0  0  0  0  0  0  0  0
   37.3160   29.0230   43.5240 H   0  0  0  0  0  0  0  0  0  0  0  0
   36.6690   27.1940   41.6650 O   0  0  0  0  0  0  0  0  0  0  0  0
   36.6830   24.6080   40.8760 F   0  0  0  0  0  0  0  0  0  0  0  0
   37.6150   25.1010   41.7570 C   0  0  0  0  0  0  0  0  0  0  0  0
   37.6670   26.4250   42.2080 C   0  0  0  0  0  0  0  0  0  0  0  0
   38.6590   26.7650   43.0890 C   0  0  0  0  0  0  0  0  0  0  0  0
   38.6410   27.7890   43.3920 H   0  0  0  0  0  0  0  0  0  0  0  0
   39.5660   25.7980   43.4990 C   0  0  0  0  0  0  0  0  0  0  0  0
   40.3250   26.1150   44.1910 H   0  0  0  0  0  0  0  0  0  0  0  0
   39.5180   24.4910   43.0560 C   0  0  0  0  0  3  0  0  0  0  0  0
   38.5300   24.1590   42.1810 C   0  0  0  0  0  3  0  0  0  0  0  0
  1  2  1  0  0  0  0
  2  3  2  0  0  0  0
  2  7  1  0  0  0  0
  3  4  1  0  0  0  0
  4  8  1  0  0  0  0
  4  5  2  0  0  0  0
  5  9  1  0  0  0  0
  6 10  1  0  0  0  0
  6  5  1  0  0  0  0
  7  6  2  0  0  0  0
 11  3  1  0  0  0  0
 11 13  1  0  0  0  0
 12 11  1  0  0  0  0
 14 15  2  0  0  0  0
 14 19  1  0  0  0  0
 15 16  1  0  0  0  0
 16 22  1  0  0  0  0
 16 17  2  0  0  0  0
 18 17  1  0  0  0  0
 18 11  1  0  0  0  0
 19 18  2  0  0  0  0
 20 14  1  0  0  0  0
 21 15  1  0  0  0  0
 23  7  1  0  0  0  0
 23 25  1  0  0  0  0
 25 24  2  6  0  0  0
 25 28  1  0  0  0  0
 25 26  1  0  0  0  0
 26 27  1  0  0  0  0
 28 31  1  0  0  0  0
 29 30  1  0  0  0  0
 30 37  2  0  0  0  0
 30 31  1  0  0  0  0
 31 32  2  0  0  0  0
 32 33  1  0  0  0  0
 32 34  1  0  0  0  0
 34 35  1  0  0  0  0
 36 34  2  0  0  0  0
 37 36  1  0  0  0  0
M  END
>  <minimizedAffinity>
-5.74178791

$$$$

 OpenBabel03252502573D

 37 39  0  0  0  0  0  0  0  0999 V2000
   40.2600   29.9010   38.3740 Br  0  0  0  0  0  0  0  0  0  0  0  0
   39.1660   31.3280   39.0490 C   0  0  0  0  0  0  0  0  0  0  0  0
   38.0050   31.5670   38.3610 C   0  0  0  0  0  0  0  0  0  0  0  0
   37.2270   32.6190   38.8830 C   0  0  0  0  0  0  0  0  0  0  0  0
   37.5880   33.3560   39.9860 C   0  0  0  0  0  0  0  0  0  0  0  0
   38.7670   33.0550   40.6200 C   0  0  0  0  0  0  0  0  0  0  0  0
   39.5700   32.0400   40.1600 C   0  0  0  0  0  0  0  0  0  0  0  0
   36.2820   32.8980   38.4180 H   0  0  0  0  0  0  0  0  0  0  0  0
   36.9580   34.1560   40.3520 H   0  0  0  0  0  0  0  0  0  0  0  0
   39.0310   33.6500   41.4900 H   0  0  0  0  0  0  0  0  0  0  0  0
   37.5060   30.8650   37.1850 C   0  0  0  0  0  0  0  0  0  0  0  0
   37.1530   31.6190   36.4440 H   0  0  0  0  0  0  0  0  0  0  0  0
   38.3150   30.2920   36.7200 H   0  0  0  0  0  0  0  0  0  0  0  0
   34.9130   28.8060   38.9110 C   0  0  0  0  0  0  0  0  0  0  0  0
   34.2180   28.2650   37.8300 C   0  0  0  0  0  0  0  0  0  0  0  0
   34.6330   28.6010   36.5410 C   0  0  0  0  0  0  0  0  0  0  0  0
   35.6910   29.4370   36.3940 N   0  0  0  0  0  0  0  0  0  0  0  0
   36.3600   29.9590   37.4640 C   0  0  0  0  0  0  0  0  0  0  0  0
   35.9400   29.6190   38.6890 N   0  0  0  0  0  0  0  0  0  0  0  0
   34.5730   28.5310   39.9020 H   0  0  0  0  0  0  0  0  0  0  0  0
   33.3760   27.5980   38.0180 H   0  0  0  0  0  0  0  0  0  0  0  0
   34.0940   28.1800   35.7300 H   0  0  0  0  0  0  0  0  0  0  0  0
   40.7730   31.7330   40.8070 O   0  0  0  0  0  0  0  0  0  0  0  0
   41.7290   31.3890   43.1910 O   0  0  0  0  0  0  0  0  0  0  0  0
   40.8620   30.7020   42.1550 P   0  0  2  0  0  0  0  0  0  0  0  0
   41.5920   29.2690   41.6630 O   0  0  0  0  0  0  0  0  0  0  0  0
   40.8470   28.6340   41.4550 H   0  0  0  0  0  0  0  0  0  0  0  0
   39.3520   30.3980   42.8240 O   0  0  0  0  0  0  0  0  0  0  0  0
   36.9240   30.4770   41.6370 F   0  0  0  0  0  0  0  0  0  0  0  0
   37.4180   29.3250   42.1980 C   0  0  0  0  0  0  0  0  0  0  0  0
   38.6640   29.2120   42.8270 C   0  0  0  0  0  0  0  0  0  0  0  0
   39.0170   27.9910   43.3380 C   0  0  0  0  0  0  0  0  0  0  0  0
   39.9780   27.9760   43.8040 H   0  0  0  0  0  0  0  0  0  0  0  0
   38.1400   26.9240   43.2180 C   0  0  0  0  0  0  0  0  0  0  0  0
   38.4630   25.9870   43.6360 H   0  0  0  0  0  0  0  0  0  0  0  0
   36.9100   27.0310   42.5980 C   0  0  0  0  0  3  0  0  0  0  0  0
   36.5650   28.2460   42.0910 C   0  0  0  0  0  3  0  0  0  0  0  0
  1  2  1  0  0  0  0
  2  7  1  0  0  0  0
  3  4  1  0  0  0  0
  3  2  2  0  0  0  0
  4  5  2  0  0  0  0
  5  9  1  0  0  0  0
  5  6  1  0  0  0  0
  6 10  1  0  0  0  0
  7  6  2  0  0  0  0
  7 23  1  0  0  0  0
  8  4  1  0  0  0  0
 11 18  1  0  0  0  0
 11  3  1  0  0  0  0
 12 11  1  0  0  0  0
 13 11  1  0  0  0  0
 14 20  1  0  0  0  0
 15 21  1  0  0  0  0
 15 14  2  0  0  0  0
 16 15  1  0  0  0  0
 17 16  2  0  0  0  0
 17 18  1  0  0  0  0
 18 19  2  0  0  0  0
 19 14  1  0  0  0  0
 22 16  1  0  0  0  0
 23 25  1  0  0  0  0
 25 28  1  0  0  0  0
 25 24  2  1  0  0  0
 26 25  1  0  0  0  0
 27 26  1  0  0  0  0
 28 31  1  0  0  0  0
 29 30  1  0  0  0  0
 30 31  1  0  0  0  0
 31 32  2  0  0  0  0
 32 33  1  0  0  0  0
 34 32  1  0  0  0  0
 34 35  1  0  0  0  0
 36 34  2  0  0  0  0
 37 30  2  0  0  0  0
 37 36  1  0  0  0  0
M  END
>  <minimizedAffinity>
-5.73905373

$$$$

 OpenBabel03252502573D

 37 39  0  0  0  0  0  0  0  0999 V2000
   39.5980   29.6540   38.3470 Br  0  0  0  0  0  0  0  0  0  0  0  0
   38.8580   31.2910   39.0250 C   0  0  0  0  0  0  0  0  0  0  0  0
   39.7570   32.2980   39.2680 C   0  0  0  0  0  0  0  0  0  0  0  0
   39.1810   33.4840   39.7650 C   0  0  0  0  0  0  0  0  0  0  0  0
   37.8330   33.6360   39.9920 C   0  0  0  0  0  0  0  0  0  0  0  0
   36.9980   32.5810   39.7230 C   0  0  0  0  0  0  0  0  0  0  0  0
   37.4990   31.3980   39.2380 C   0  0  0  0  0  0  0  0  0  0  0  0
   39.7990   34.3510   39.9940 H   0  0  0  0  0  0  0  0  0  0  0  0
   37.4350   34.5660   40.3750 H   0  0  0  0  0  0  0  0  0  0  0  0
   35.9380   32.7250   39.9100 H   0  0  0  0  0  0  0  0  0  0  0  0
   41.2010   32.2690   39.0720 C   0  0  0  0  0  0  0  0  0  0  0  0
   41.4810   31.2840   38.6350 H   0  0  0  0  0  0  0  0  0  0  0  0
   41.4980   33.0470   38.3620 H   0  0  0  0  0  0  0  0  0  0  0  0
   42.6560   31.7370   42.4700 C   0  0  0  0  0  0  0  0  0  0  0  0
   43.4900   32.8470   42.5960 C   0  0  0  0  0  0  0  0  0  0  0  0
   43.5480   33.7540   41.5370 C   0  0  0  0  0  0  0  0  0  0  0  0
   42.7950   33.5200   40.4350 N   0  0  0  0  0  0  0  0  0  0  0  0
   41.9840   32.4260   40.3280 C   0  0  0  0  0  0  0  0  0  0  0  0
   41.9470   31.5720   41.3580 N   0  0  0  0  0  0  0  0  0  0  0  0
   42.6260   31.0460   43.3040 H   0  0  0  0  0  0  0  0  0  0  0  0
   44.0700   32.9770   43.5100 H   0  0  0  0  0  0  0  0  0  0  0  0
   44.1880   34.5940   41.6490 H   0  0  0  0  0  0  0  0  0  0  0  0
   36.6470   30.3220   38.9640 O   0  0  0  0  0  0  0  0  0  0  0  0
   36.3870   27.8690   39.7610 O   0  0  0  0  0  0  0  0  0  0  0  0
   36.0450   29.2880   40.1710 P   0  0  2  0  0  0  0  0  0  0  0  0
   34.3750   29.4750   40.2280 O   0  0  0  0  0  0  0  0  0  0  0  0
   34.1930   30.1350   40.9580 H   0  0  0  0  0  0  0  0  0  0  0  0
   36.7270   29.5980   41.6730 O   0  0  0  0  0  0  0  0  0  0  0  0
   36.2440   27.4220   43.2040 F   0  0  0  0  0  0  0  0  0  0  0  0
   37.5170   27.8960   43.0000 C   0  0  0  0  0  0  0  0  0  0  0  0
   37.8400   29.0140   42.2230 C   0  0  0  0  0  0  0  0  0  0  0  0
   39.1600   29.3620   42.1140 C   0  0  0  0  0  0  0  0  0  0  0  0
   39.3360   30.2230   41.5070 H   0  0  0  0  0  0  0  0  0  0  0  0
   40.1190   28.6060   42.7710 C   0  0  0  0  0  0  0  0  0  0  0  0
   41.1410   28.9200   42.6560 H   0  0  0  0  0  0  0  0  0  0  0  0
   39.8050   27.5020   43.5400 C   0  0  0  0  0  3  0  0  0  0  0  0
   38.4920   27.1600   43.6430 C   0  0  0  0  0  3  0  0  0  0  0  0
  1  2  1  0  0  0  0
  2  7  2  0  0  0  0
  2  3  1  0  0  0  0
  3  4  2  0  0  0  0
  4  5  1  0  0  0  0
  4  8  1  0  0  0  0
  5  9  1  0  0  0  0
  6 10  1  0  0  0  0
  6  5  2  0  0  0  0
  7  6  1  0  0  0  0
 11  3  1  0  0  0  0
 11 18  1  0  0  0  0
 12 11  1  0  0  0  0
 13 11  1  0  0  0  0
 14 15  1  0  0  0  0
 14 20  1  0  0  0  0
 15 21  1  0  0  0  0
 16 22  1  0  0  0  0
 16 15  2  0  0  0  0
 17 16  1  0  0  0  0
 18 17  2  0  0  0  0
 18 19  1  0  0  0  0
 19 14  2  0  0  0  0
 23  7  1  0  0  0  0
 23 25  1  0  0  0  0
 25 24  2  6  0  0  0
 25 26  1  0  0  0  0
 25 28  1  0  0  0  0
 26 27  1  0  0  0  0
 28 31  1  0  0  0  0
 30 29  1  0  0  0  0
 30 37  1  0  0  0  0
 31 30  2  0  0  0  0
 32 31  1  0  0  0  0
 32 34  2  0  0  0  0
 33 32  1  0  0  0  0
 34 36  1  0  0  0  0
 35 34  1  0  0  0  0
 36 37  2  0  0  0  0
M  END
>  <minimizedAffinity>
-5.67873096

$$$$

 OpenBabel03252502573D

 37 39  0  0  0  0  0  0  0  0999 V2000
   37.4880   31.3130   38.8150 Br  0  0  0  0  0  0  0  0  0  0  0  0
   38.8650   31.1840   40.1470 C   0  0  0  0  0  0  0  0  0  0  0  0
   40.1150   31.5890   39.7550 C   0  0  0  0  0  0  0  0  0  0  0  0
   41.1010   31.4810   40.7560 C   0  0  0  0  0  0  0  0  0  0  0  0
   40.8480   31.0120   42.0240 C   0  0  0  0  0  0  0  0  0  0  0  0
   39.5690   30.6270   42.3390 C   0  0  0  0  0  0  0  0  0  0  0  0
   38.5640   30.7070   41.4060 C   0  0  0  0  0  0  0  0  0  0  0  0
   42.1310   31.7750   40.5580 H   0  0  0  0  0  0  0  0  0  0  0  0
   41.6370   30.9470   42.7610 H   0  0  0  0  0  0  0  0  0  0  0  0
   39.3940   30.2600   43.3460 H   0  0  0  0  0  0  0  0  0  0  0  0
   40.5170   32.1030   38.4520 C   0  0  0  0  0  0  0  0  0  0  0  0
   39.6020   32.3840   37.8820 H   0  0  0  0  0  0  0  0  0  0  0  0
   41.1250   33.0050   38.5770 H   0  0  0  0  0  0  0  0  0  0  0  0
   41.6060   28.9760   36.7240 C   0  0  0  0  0  0  0  0  0  0  0  0
   42.7430   29.4130   36.0440 C   0  0  0  0  0  0  0  0  0  0  0  0
   43.1230   30.7480   36.1790 C   0  0  0  0  0  0  0  0  0  0  0  0
   42.3750   31.5640   36.9620 N   0  0  0  0  0  0  0  0  0  0  0  0
   41.2630   31.1210   37.6200 C   0  0  0  0  0  0  0  0  0  0  0  0
   40.9210   29.8340   37.4730 N   0  0  0  0  0  0  0  0  0  0  0  0
   41.3300   27.9360   36.6050 H   0  0  0  0  0  0  0  0  0  0  0  0
   43.3010   28.7040   35.4310 H   0  0  0  0  0  0  0  0  0  0  0  0
   43.9910   31.0630   35.6560 H   0  0  0  0  0  0  0  0  0  0  0  0
   37.2600   30.3130   41.7280 O   0  0  0  0  0  0  0  0  0  0  0  0
   35.5420   28.5590   40.8990 O   0  0  0  0  0  0  0  0  0  0  0  0
   36.7700   28.6860   41.7770 P   0  0  2  0  0  0  0  0  0  0  0  0
   36.3720   28.3140   43.3680 O   0  0  0  0  0  0  0  0  0  0  0  0
   37.1870   27.8910   43.7670 H   0  0  0  0  0  0  0  0  0  0  0  0
   37.9580   27.6470   41.2050 O   0  0  0  0  0  0  0  0  0  0  0  0
   36.9410   25.1520   40.9770 F   0  0  0  0  0  0  0  0  0  0  0  0
   38.0500   25.4140   41.7440 C   0  0  0  0  0  0  0  0  0  0  0  0
   38.6290   26.6780   41.9070 C   0  0  0  0  0  0  0  0  0  0  0  0
   39.7370   26.7790   42.7070 C   0  0  0  0  0  0  0  0  0  0  0  0
   40.1270   27.7700   42.7870 H   0  0  0  0  0  0  0  0  0  0  0  0
   40.2390   25.6410   43.3190 C   0  0  0  0  0  0  0  0  0  0  0  0
   41.1100   25.7730   43.9370 H   0  0  0  0  0  0  0  0  0  0  0  0
   39.6720   24.3920   43.1610 C   0  0  0  0  0  3  0  0  0  0  0  0
   38.5710   24.2970   42.3650 C   0  0  0  0  0  3  0  0  0  0  0  0
  1  2  1  0  0  0  0
  2  7  1  0  0  0  0
  3  2  2  0  0  0  0
  3  4  1  0  0  0  0
  4  5  2  0  0  0  0
  5  6  1  0  0  0  0
  5  9  1  0  0  0  0
  6 10  1  0  0  0  0
  7 23  1  0  0  0  0
  7  6  2  0  0  0  0
  8  4  1  0  0  0  0
 11 13  1  0  0  0  0
 11  3  1  0  0  0  0
 12 11  1  0  0  0  0
 14 19  1  0  0  0  0
 15 16  1  0  0  0  0
 15 14  2  0  0  0  0
 16 17  2  0  0  0  0
 17 18  1  0  0  0  0
 18 11  1  0  0  0  0
 19 18  2  0  0  0  0
 20 14  1  0  0  0  0
 21 15  1  0  0  0  0
 22 16  1  0  0  0  0
 23 25  1  0  0  0  0
 25 24  2  6  0  0  0
 25 26  1  0  0  0  0
 26 27  1  0  0  0  0
 28 25  1  0  0  0  0
 28 31  1  0  0  0  0
 29 30  1  0  0  0  0
 30 31  2  0  0  0  0
 30 37  1  0  0  0  0
 31 32  1  0  0  0  0
 32 33  1  0  0  0  0
 32 34  2  0  0  0  0
 34 35  1  0  0  0  0
 36 34  1  0  0  0  0
 37 36  2  0  0  0  0
M  END
>  <minimizedAffinity>
-5.52412319

$$$$

 OpenBabel03252502573D

 37 39  0  0  0  0  0  0  0  0999 V2000
   38.0510   25.5310   39.2800 Br  0  0  0  0  0  0  0  0  0  0  0  0
   37.0300   27.0230   39.9270 C   0  0  0  0  0  0  0  0  0  0  0  0
   36.9260   27.1290   41.2900 C   0  0  0  0  0  0  0  0  0  0  0  0
   36.1710   28.2330   41.7310 C   0  0  0  0  0  0  0  0  0  0  0  0
   35.5810   29.1380   40.8800 C   0  0  0  0  0  0  0  0  0  0  0  0
   35.7320   28.9630   39.5270 C   0  0  0  0  0  0  0  0  0  0  0  0
   36.4560   27.9050   39.0350 C   0  0  0  0  0  0  0  0  0  0  0  0
   36.0210   28.4180   42.7940 H   0  0  0  0  0  0  0  0  0  0  0  0
   35.0090   29.9730   41.2640 H   0  0  0  0  0  0  0  0  0  0  0  0
   35.2580   29.6910   38.8750 H   0  0  0  0  0  0  0  0  0  0  0  0
   37.4980   26.2450   42.2990 C   0  0  0  0  0  0  0  0  0  0  0  0
   36.8500   26.2720   43.2040 H   0  0  0  0  0  0  0  0  0  0  0  0
   37.5130   25.2150   41.9280 H   0  0  0  0  0  0  0  0  0  0  0  0
   40.9670   26.1690   43.6800 C   0  0  0  0  0  0  0  0  0  0  0  0
   41.3760   27.4880   43.4840 C   0  0  0  0  0  0  0  0  0  0  0  0
   40.4790   28.3780   42.8930 C   0  0  0  0  0  0  0  0  0  0  0  0
   39.2520   27.9260   42.5340 N   0  0  0  0  0  0  0  0  0  0  0  0
   38.8680   26.6310   42.7310 C   0  0  0  0  0  0  0  0  0  0  0  0
   39.7480   25.7980   43.3010 N   0  0  0  0  0  0  0  0  0  0  0  0
   41.6790   25.4960   44.1400 H   0  0  0  0  0  0  0  0  0  0  0  0
   42.3770   27.7860   43.7970 H   0  0  0  0  0  0  0  0  0  0  0  0
   40.8060   29.3780   42.7530 H   0  0  0  0  0  0  0  0  0  0  0  0
   36.6100   27.7270   37.6550 O   0  0  0  0  0  0  0  0  0  0  0  0
   36.2320   29.7830   36.1230 O   0  0  0  0  0  0  0  0  0  0  0  0
   37.3360   28.8880   36.6480 P   0  0  2  0  0  0  0  0  0  0  0  0
   38.0660   28.0780   35.3680 O   0  0  0  0  0  0  0  0  0  0  0  0
   39.0270   27.9630   35.6220 H   0  0  0  0  0  0  0  0  0  0  0  0
   38.4570   29.8300   37.4690 O   0  0  0  0  0  0  0  0  0  0  0  0
   39.6430   29.5160   39.8780 F   0  0  0  0  0  0  0  0  0  0  0  0
   38.8500   30.6010   39.5980 C   0  0  0  0  0  0  0  0  0  0  0  0
   38.2050   30.8270   38.3760 C   0  0  0  0  0  0  0  0  0  0  0  0
   37.4460   31.9600   38.2500 C   0  0  0  0  0  0  0  0  0  0  0  0
   36.9840   32.0710   37.2940 H   0  0  0  0  0  0  0  0  0  0  0  0
   37.3410   32.8320   39.3240 C   0  0  0  0  0  0  0  0  0  0  0  0
   36.7330   33.7060   39.1750 H   0  0  0  0  0  0  0  0  0  0  0  0
   37.9750   32.6130   40.5310 C   0  0  0  0  0  3  0  0  0  0  0  0
   38.7290   31.4860   40.6510 C   0  0  0  0  0  3  0  0  0  0  0  0
  1  2  1  0  0  0  0
  2  3  1  0  0  0  0
  3  4  2  0  0  0  0
  3 11  1  0  0  0  0
  4  8  1  0  0  0  0
  5  9  1  0  0  0  0
  5  4  1  0  0  0  0
  6  5  2  0  0  0  0
  7  6  1  0  0  0  0
  7  2  2  0  0  0  0
 10  6  1  0  0  0  0
 11 18  1  0  0  0  0
 11 12  1  0  0  0  0
 13 11  1  0  0  0  0
 14 20  1  0  0  0  0
 15 14  1  0  0  0  0
 15 21  1  0  0  0  0
 16 15  2  0  0  0  0
 17 18  2  0  0  0  0
 17 16  1  0  0  0  0
 18 19  1  0  0  0  0
 19 14  2  0  0  0  0
 22 16  1  0  0  0  0
 23  7  1  0  0  0  0
 25 24  2  6  0  0  0
 25 28  1  0  0  0  0
 25 23  1  0  0  0  0
 26 27  1  0  0  0  0
 26 25  1  0  0  0  0
 28 31  1  0  0  0  0
 30 29  1  0  0  0  0
 30 37  1  0  0  0  0
 31 30  2  0  0  0  0
 32 31  1  0  0  0  0
 32 34  2  0  0  0  0
 33 32  1  0  0  0  0
 34 36  1  0  0  0  0
 35 34  1  0  0  0  0
 36 37  2  0  0  0  0
M  END
>  <minimizedAffinity>
-5.50199938

$$$$

 OpenBabel03252502573D

 37 39  0  0  0  0  0  0  0  0999 V2000
   37.7400   28.2760   36.8180 Br  0  0  0  0  0  0  0  0  0  0  0  0
   38.7830   29.4010   37.9730 C   0  0  0  0  0  0  0  0  0  0  0  0
   40.1420   29.3360   37.8030 C   0  0  0  0  0  0  0  0  0  0  0  0
   40.8770   30.1730   38.6660 C   0  0  0  0  0  0  0  0  0  0  0  0
   40.2960   30.9920   39.6050 C   0  0  0  0  0  0  0  0  0  0  0  0
   38.9280   31.0020   39.7140 C   0  0  0  0  0  0  0  0  0  0  0  0
   38.1560   30.2070   38.9020 C   0  0  0  0  0  0  0  0  0  0  0  0
   41.9650   30.2040   38.6200 H   0  0  0  0  0  0  0  0  0  0  0  0
   40.9010   31.6190   40.2470 H   0  0  0  0  0  0  0  0  0  0  0  0
   38.4920   31.6570   40.4620 H   0  0  0  0  0  0  0  0  0  0  0  0
   40.8820   28.5160   36.8520 C   0  0  0  0  0  0  0  0  0  0  0  0
   40.8360   27.4540   37.1840 H   0  0  0  0  0  0  0  0  0  0  0  0
   40.4170   28.5780   35.8630 H   0  0  0  0  0  0  0  0  0  0  0  0
   44.5630   28.7610   37.4340 C   0  0  0  0  0  0  0  0  0  0  0  0
   44.9530   29.6240   36.4110 C   0  0  0  0  0  0  0  0  0  0  0  0
   43.9720   30.1080   35.5440 C   0  0  0  0  0  0  0  0  0  0  0  0
   42.6860   29.7210   35.7320 N   0  0  0  0  0  0  0  0  0  0  0  0
   42.3220   28.8740   36.7390 C   0  0  0  0  0  0  0  0  0  0  0  0
   43.2830   28.4250   37.5560 N   0  0  0  0  0  0  0  0  0  0  0  0
   45.3400   28.3980   38.0950 H   0  0  0  0  0  0  0  0  0  0  0  0
   46.0040   29.8960   36.3160 H   0  0  0  0  0  0  0  0  0  0  0  0
   44.2860   30.7650   34.7710 H   0  0  0  0  0  0  0  0  0  0  0  0
   36.7610   30.2170   39.0130 O   0  0  0  0  0  0  0  0  0  0  0  0
   34.6100   29.1510   39.9900 O   0  0  0  0  0  0  0  0  0  0  0  0
   35.9420   29.7310   40.4210 P   0  0  2  0  0  0  0  0  0  0  0  0
   35.6870   31.0970   41.3680 O   0  0  0  0  0  0  0  0  0  0  0  0
   36.4360   31.1210   42.0310 H   0  0  0  0  0  0  0  0  0  0  0  0
   36.7900   28.5650   41.2800 O   0  0  0  0  0  0  0  0  0  0  0  0
   37.0690   27.0500   43.5030 F   0  0  0  0  0  0  0  0  0  0  0  0
   36.9470   26.4890   42.2550 C   0  0  0  0  0  0  0  0  0  0  0  0
   36.8000   27.2110   41.0640 C   0  0  0  0  0  0  0  0  0  0  0  0
   36.6890   26.5050   39.8950 C   0  0  0  0  0  0  0  0  0  0  0  0
   36.5800   27.1170   39.0260 H   0  0  0  0  0  0  0  0  0  0  0  0
   36.7270   25.1200   39.9300 C   0  0  0  0  0  0  0  0  0  0  0  0
   36.6360   24.6130   38.9860 H   0  0  0  0  0  0  0  0  0  0  0  0
   36.8710   24.4040   41.1030 C   0  0  0  0  0  3  0  0  0  0  0  0
   36.9810   25.1090   42.2610 C   0  0  0  0  0  3  0  0  0  0  0  0
  1  2  1  0  0  0  0
  2  7  1  0  0  0  0
  3  2  2  0  0  0  0
  3  4  1  0  0  0  0
  4  5  2  0  0  0  0
  5  6  1  0  0  0  0
  5  9  1  0  0  0  0
  6 10  1  0  0  0  0
  7 23  1  0  0  0  0
  7  6  2  0  0  0  0
  8  4  1  0  0  0  0
 11 12  1  0  0  0  0
 11  3  1  0  0  0  0
 13 11  1  0  0  0  0
 14 19  1  0  0  0  0
 14 20  1  0  0  0  0
 15 14  2  0  0  0  0
 16 17  2  0  0  0  0
 16 15  1  0  0  0  0
 17 18  1  0  0  0  0
 18 11  1  0  0  0  0
 18 19  2  0  0  0  0
 21 15  1  0  0  0  0
 22 16  1  0  0  0  0
 23 25  1  0  0  0  0
 25 24  2  6  0  0  0
 25 28  1  0  0  0  0
 25 26  1  0  0  0  0
 26 27  1  0  0  0  0
 30 37  1  0  0  0  0
 30 29  1  0  0  0  0
 31 28  1  0  0  0  0
 31 30  2  0  0  0  0
 32 34  2  0  0  0  0
 32 31  1  0  0  0  0
 33 32  1  0  0  0  0
 34 36  1  0  0  0  0
 35 34  1  0  0  0  0
 36 37  2  0  0  0  0
M  END
>  <minimizedAffinity>
-5.4651289

$$$$
