
 OpenBabel03252501043D

 31 33  0  0  1  0  0  0  0  0999 V2000
   37.3150   31.4890   38.0600 C   0  0  1  0  0  0  0  0  0  0  0  0
   37.6870   30.3940   37.1310 C   0  0  0  0  0  0  0  0  0  0  0  0
   36.6200   30.2030   38.1990 C   0  0  1  0  0  0  0  0  0  0  0  0
   36.7520   32.3710   37.6520 H   0  0  0  0  0  0  0  0  0  0  0  0
   37.3620   30.4560   36.0530 H   0  0  0  0  0  0  0  0  0  0  0  0
   38.5330   29.7220   37.2680 H   0  0  0  0  0  0  0  0  0  0  0  0
   35.6150   30.1020   37.7440 H   0  0  0  0  0  0  0  0  0  0  0  0
   40.5570   31.6200   40.0070 C   0  0  0  0  0  0  0  0  0  0  0  0
   39.6380   31.2860   38.9990 C   0  0  0  0  0  0  0  0  0  0  0  0
   38.3410   31.8090   39.0930 C   0  0  0  0  0  0  0  0  0  0  0  0
   38.0320   32.6110   40.1510 N   0  0  0  0  0  0  0  0  0  0  0  0
   38.9380   32.9160   41.1100 C   0  0  0  0  0  0  0  0  0  0  0  0
   40.1970   32.4150   41.0280 N   0  0  0  0  0  0  0  0  0  0  0  0
   41.5490   31.2060   39.9130 H   0  0  0  0  0  0  0  0  0  0  0  0
   39.9570   30.6560   38.2020 H   0  0  0  0  0  0  0  0  0  0  0  0
   38.7100   33.5480   41.9540 H   0  0  0  0  0  0  0  0  0  0  0  0
   36.8220   29.4910   39.3180 O   0  0  0  0  0  0  0  0  0  0  0  0
   34.2950   29.1960   40.0740 O   0  0  0  0  0  0  0  0  0  0  0  0
   35.7000   29.5430   40.5130 P   0  0  2  0  0  0  0  0  0  0  0  0
   35.6010   31.0250   41.3120 O   0  0  0  0  0  0  0  0  0  0  0  0
   34.8530   30.9260   41.9800 H   0  0  0  0  0  0  0  0  0  0  0  0
   36.0870   28.3840   41.6850 O   0  0  0  0  0  0  0  0  0  0  0  0
   36.7530   26.0170   42.7810 F   0  0  0  0  0  0  0  0  0  0  0  0
   37.6290   27.0670   42.7190 C   0  0  0  0  0  0  0  0  0  0  0  0
   37.3850   28.3330   42.1740 C   0  0  0  0  0  0  0  0  0  0  0  0
   38.3710   29.2750   42.1930 C   0  0  0  0  0  0  0  0  0  0  0  0
   38.0660   30.2020   41.7470 H   0  0  0  0  0  0  0  0  0  0  0  0
   39.6000   28.9730   42.7460 C   0  0  0  0  0  0  0  0  0  0  0  0
   40.3430   29.7600   42.7320 H   0  0  0  0  0  0  0  0  0  0  0  0
   39.8440   27.7270   43.2850 C   0  0  0  0  0  3  0  0  0  0  0  0
   38.8670   26.7520   43.2820 C   0  0  0  0  0  3  0  0  0  0  0  0
  1  4  1  6  0  0  0
  1  3  1  0  0  0  0
  1 10  1  0  0  0  0
  2  6  1  0  0  0  0
  2  1  1  0  0  0  0
  2  3  1  0  0  0  0
  3  7  1  6  0  0  0
  3 17  1  0  0  0  0
  5  2  1  0  0  0  0
  8 13  1  0  0  0  0
  9 10  1  0  0  0  0
  9  8  2  0  0  0  0
 10 11  2  0  0  0  0
 11 12  1  0  0  0  0
 12 16  1  0  0  0  0
 13 12  2  0  0  0  0
 14  8  1  0  0  0  0
 15  9  1  0  0  0  0
 17 19  1  0  0  0  0
 19 18  2  6  0  0  0
 19 20  1  0  0  0  0
 19 22  1  0  0  0  0
 20 21  1  0  0  0  0
 22 25  1  0  0  0  0
 24 23  1  0  0  0  0
 24 31  1  0  0  0  0
 25 26  1  0  0  0  0
 25 24  2  0  0  0  0
 26 28  2  0  0  0  0
 27 26  1  0  0  0  0
 28 30  1  0  0  0  0
 29 28  1  0  0  0  0
 31 30  2  0  0  0  0
M  END
>  <minimizedAffinity>
-5.70306826

$$$$

 OpenBabel03252501043D

 31 33  0  0  1  0  0  0  0  0999 V2000
   37.1810   31.9440   38.1060 C   0  0  1  0  0  0  0  0  0  0  0  0
   37.6230   30.8840   37.1670 C   0  0  0  0  0  0  0  0  0  0  0  0
   36.7560   30.5640   38.3760 C   0  0  1  0  0  0  0  0  0  0  0  0
   36.4180   32.6890   37.7520 H   0  0  0  0  0  0  0  0  0  0  0  0
   37.1550   30.8290   36.1420 H   0  0  0  0  0  0  0  0  0  0  0  0
   38.5880   30.3800   37.2060 H   0  0  0  0  0  0  0  0  0  0  0  0
   35.7360   30.2630   38.0650 H   0  0  0  0  0  0  0  0  0  0  0  0
   39.0010   33.8430   40.8240 C   0  0  0  0  0  0  0  0  0  0  0  0
   37.9440   33.3520   40.0430 C   0  0  0  0  0  0  0  0  0  0  0  0
   38.2560   32.4960   38.9780 C   0  0  0  0  0  0  0  0  0  0  0  0
   39.5630   32.1820   38.7500 N   0  0  0  0  0  0  0  0  0  0  0  0
   40.5640   32.6710   39.5190 C   0  0  0  0  0  0  0  0  0  0  0  0
   40.2720   33.5000   40.5530 N   0  0  0  0  0  0  0  0  0  0  0  0
   38.7370   34.5000   41.6380 H   0  0  0  0  0  0  0  0  0  0  0  0
   36.9480   33.6410   40.2870 H   0  0  0  0  0  0  0  0  0  0  0  0
   41.6030   32.4330   39.3520 H   0  0  0  0  0  0  0  0  0  0  0  0
   37.2280   29.9600   39.4770 O   0  0  0  0  0  0  0  0  0  0  0  0
   34.9810   28.8490   40.3490 O   0  0  0  0  0  0  0  0  0  0  0  0
   36.2050   29.6550   40.7220 P   0  0  2  0  0  0  0  0  0  0  0  0
   35.6490   31.0320   41.5220 O   0  0  0  0  0  0  0  0  0  0  0  0
   35.0060   30.6990   42.2230 H   0  0  0  0  0  0  0  0  0  0  0  0
   37.0080   28.7130   41.8780 O   0  0  0  0  0  0  0  0  0  0  0  0
   36.0820   26.9400   43.6790 F   0  0  0  0  0  0  0  0  0  0  0  0
   36.7840   26.5560   42.5690 C   0  0  0  0  0  0  0  0  0  0  0  0
   37.3070   27.3910   41.5760 C   0  0  0  0  0  0  0  0  0  0  0  0
   37.9880   26.8460   40.5270 C   0  0  0  0  0  0  0  0  0  0  0  0
   38.3390   27.5860   39.8330 H   0  0  0  0  0  0  0  0  0  0  0  0
   38.1530   25.4770   40.4520 C   0  0  0  0  0  0  0  0  0  0  0  0
   38.7020   25.1030   39.5980 H   0  0  0  0  0  0  0  0  0  0  0  0
   37.6400   24.6510   41.4300 C   0  0  0  0  0  3  0  0  0  0  0  0
   36.9460   25.1710   42.5040 C   0  0  0  0  0  3  0  0  0  0  0  0
  1  4  1  6  0  0  0
  1  3  1  0  0  0  0
  1 10  1  0  0  0  0
  2  6  1  0  0  0  0
  2  1  1  0  0  0  0
  2  3  1  0  0  0  0
  3  7  1  6  0  0  0
  3 17  1  0  0  0  0
  5  2  1  0  0  0  0
  8 14  1  0  0  0  0
  9 15  1  0  0  0  0
  9  8  2  0  0  0  0
 10  9  1  0  0  0  0
 11 10  2  0  0  0  0
 11 12  1  0  0  0  0
 12 13  2  0  0  0  0
 13  8  1  0  0  0  0
 16 12  1  0  0  0  0
 17 19  1  0  0  0  0
 19 18  2  6  0  0  0
 19 20  1  0  0  0  0
 19 22  1  0  0  0  0
 20 21  1  0  0  0  0
 24 23  1  0  0  0  0
 25 22  1  0  0  0  0
 25 24  2  0  0  0  0
 26 25  1  0  0  0  0
 27 26  1  0  0  0  0
 28 26  2  0  0  0  0
 28 30  1  0  0  0  0
 29 28  1  0  0  0  0
 30 31  2  0  0  0  0
 31 24  1  0  0  0  0
M  END
>  <minimizedAffinity>
-5.64423466

$$$$

 OpenBabel03252501043D

 31 33  0  0  1  0  0  0  0  0999 V2000
   37.7010   30.6680   37.7880 C   0  0  1  0  0  0  0  0  0  0  0  0
   38.6920   29.5700   37.6780 C   0  0  0  0  0  0  0  0  0  0  0  0
   37.4200   29.4140   38.4980 C   0  0  1  0  0  0  0  0  0  0  0  0
   37.0890   30.9300   36.8830 H   0  0  0  0  0  0  0  0  0  0  0  0
   38.7770   29.0030   36.7060 H   0  0  0  0  0  0  0  0  0  0  0  0
   39.5910   29.4780   38.2870 H   0  0  0  0  0  0  0  0  0  0  0  0
   36.7270   28.6910   38.0240 H   0  0  0  0  0  0  0  0  0  0  0  0
   39.8410   33.1200   39.7180 C   0  0  0  0  0  0  0  0  0  0  0  0
   39.4940   32.0150   38.9240 C   0  0  0  0  0  0  0  0  0  0  0  0
   38.1390   31.8250   38.6200 C   0  0  0  0  0  0  0  0  0  0  0  0
   37.2260   32.7130   39.1060 N   0  0  0  0  0  0  0  0  0  0  0  0
   37.5880   33.7700   39.8710 C   0  0  0  0  0  0  0  0  0  0  0  0
   38.8980   33.9640   40.1700 N   0  0  0  0  0  0  0  0  0  0  0  0
   40.8900   33.2460   39.9380 H   0  0  0  0  0  0  0  0  0  0  0  0
   40.2670   31.3680   38.5790 H   0  0  0  0  0  0  0  0  0  0  0  0
   36.8800   34.4820   40.2630 H   0  0  0  0  0  0  0  0  0  0  0  0
   37.4060   29.4350   39.8400 O   0  0  0  0  0  0  0  0  0  0  0  0
   34.7680   29.1600   39.7690 O   0  0  0  0  0  0  0  0  0  0  0  0
   35.9670   29.5030   40.6230 P   0  0  2  0  0  0  0  0  0  0  0  0
   35.6340   30.9920   41.3420 O   0  0  0  0  0  0  0  0  0  0  0  0
   34.7140   30.9030   41.7430 H   0  0  0  0  0  0  0  0  0  0  0  0
   35.9600   28.3530   41.8650 O   0  0  0  0  0  0  0  0  0  0  0  0
   37.7350   29.2490   43.6800 F   0  0  0  0  0  0  0  0  0  0  0  0
   37.9230   28.0850   42.9850 C   0  0  0  0  0  0  0  0  0  0  0  0
   37.0680   27.5320   42.0260 C   0  0  0  0  0  0  0  0  0  0  0  0
   37.4050   26.3560   41.4220 C   0  0  0  0  0  0  0  0  0  0  0  0
   36.6720   26.0340   40.7070 H   0  0  0  0  0  0  0  0  0  0  0  0
   38.5830   25.7210   41.7620 C   0  0  0  0  0  0  0  0  0  0  0  0
   38.7970   24.7930   41.2490 H   0  0  0  0  0  0  0  0  0  0  0  0
   39.4290   26.2640   42.7070 C   0  0  0  0  0  3  0  0  0  0  0  0
   39.1170   27.4520   43.3360 C   0  0  0  0  0  3  0  0  0  0  0  0
  1  4  1  6  0  0  0
  1  3  1  0  0  0  0
  1 10  1  0  0  0  0
  2  1  1  0  0  0  0
  2  6  1  0  0  0  0
  2  3  1  0  0  0  0
  3  7  1  6  0  0  0
  3 17  1  0  0  0  0
  5  2  1  0  0  0  0
  8 14  1  0  0  0  0
  8 13  1  0  0  0  0
  9  8  2  0  0  0  0
 10  9  1  0  0  0  0
 10 11  2  0  0  0  0
 11 12  1  0  0  0  0
 12 13  2  0  0  0  0
 12 16  1  0  0  0  0
 15  9  1  0  0  0  0
 17 19  1  0  0  0  0
 19 18  2  6  0  0  0
 19 20  1  0  0  0  0
 19 22  1  0  0  0  0
 20 21  1  0  0  0  0
 22 25  1  0  0  0  0
 24 31  1  0  0  0  0
 24 23  1  0  0  0  0
 25 24  2  0  0  0  0
 26 28  2  0  0  0  0
 26 25  1  0  0  0  0
 27 26  1  0  0  0  0
 28 30  1  0  0  0  0
 29 28  1  0  0  0  0
 30 31  2  0  0  0  0
M  END
>  <minimizedAffinity>
-5.59191179

$$$$

 OpenBabel03252501043D

 31 33  0  0  1  0  0  0  0  0999 V2000
   37.8700   27.1830   43.2850 C   0  0  1  0  0  0  0  0  0  0  0  0
   38.9800   28.1650   43.2230 C   0  0  0  0  0  0  0  0  0  0  0  0
   37.5590   28.5450   42.8310 C   0  0  1  0  0  0  0  0  0  0  0  0
   37.5050   26.8490   44.2940 H   0  0  0  0  0  0  0  0  0  0  0  0
   39.4000   28.5790   44.1840 H   0  0  0  0  0  0  0  0  0  0  0  0
   39.6780   28.2650   42.3920 H   0  0  0  0  0  0  0  0  0  0  0  0
   37.1190   29.2510   43.5640 H   0  0  0  0  0  0  0  0  0  0  0  0
   36.9860   24.2010   41.1330 C   0  0  0  0  0  0  0  0  0  0  0  0
   36.8840   25.1770   42.1350 C   0  0  0  0  0  0  0  0  0  0  0  0
   37.9130   26.1230   42.2370 C   0  0  0  0  0  0  0  0  0  0  0  0
   38.9590   26.0530   41.3670 N   0  0  0  0  0  0  0  0  0  0  0  0
   39.0320   25.0990   40.4080 C   0  0  0  0  0  0  0  0  0  0  0  0
   38.0400   24.1780   40.3000 N   0  0  0  0  0  0  0  0  0  0  0  0
   36.1810   23.4830   41.0730 H   0  0  0  0  0  0  0  0  0  0  0  0
   36.0320   25.1680   42.7760 H   0  0  0  0  0  0  0  0  0  0  0  0
   39.8520   25.0280   39.7110 H   0  0  0  0  0  0  0  0  0  0  0  0
   37.1700   28.7160   41.5590 O   0  0  0  0  0  0  0  0  0  0  0  0
   38.2000   31.1520   41.3300 O   0  0  0  0  0  0  0  0  0  0  0  0
   37.0560   30.2370   40.9550 P   0  0  2  0  0  0  0  0  0  0  0  0
   35.6360   31.0470   41.3720 O   0  0  0  0  0  0  0  0  0  0  0  0
   35.7210   31.9690   40.9760 H   0  0  0  0  0  0  0  0  0  0  0  0
   37.0940   30.1650   39.2640 O   0  0  0  0  0  0  0  0  0  0  0  0
   37.3710   30.1230   36.5870 F   0  0  0  0  0  0  0  0  0  0  0  0
   36.2510   29.6480   37.2140 C   0  0  0  0  0  0  0  0  0  0  0  0
   36.0070   29.6240   38.5910 C   0  0  0  0  0  0  0  0  0  0  0  0
   34.8300   29.1140   39.0580 C   0  0  0  0  0  0  0  0  0  0  0  0
   34.7600   29.1490   40.1280 H   0  0  0  0  0  0  0  0  0  0  0  0
   33.8920   28.6270   38.1690 C   0  0  0  0  0  0  0  0  0  0  0  0
   32.9790   28.2360   38.5970 H   0  0  0  0  0  0  0  0  0  0  0  0
   34.1290   28.6510   36.8100 C   0  0  0  0  0  3  0  0  0  0  0  0
   35.3100   29.1590   36.3070 C   0  0  0  0  0  3  0  0  0  0  0  0
  1  4  1  1  0  0  0
  2  1  1  0  0  0  0
  2  5  1  0  0  0  0
  3  2  1  0  0  0  0
  3  1  1  0  0  0  0
  3  7  1  1  0  0  0
  6  2  1  0  0  0  0
  8  9  1  0  0  0  0
  9 10  2  0  0  0  0
  9 15  1  0  0  0  0
 10  1  1  0  0  0  0
 11 10  1  0  0  0  0
 12 11  2  0  0  0  0
 13 12  1  0  0  0  0
 13  8  2  0  0  0  0
 14  8  1  0  0  0  0
 16 12  1  0  0  0  0
 17  3  1  0  0  0  0
 19 18  2  1  0  0  0
 19 20  1  0  0  0  0
 19 17  1  0  0  0  0
 21 20  1  0  0  0  0
 22 19  1  0  0  0  0
 23 24  1  0  0  0  0
 24 25  1  0  0  0  0
 25 26  2  0  0  0  0
 25 22  1  0  0  0  0
 26 27  1  0  0  0  0
 28 29  1  0  0  0  0
 28 26  1  0  0  0  0
 30 28  2  0  0  0  0
 31 30  1  0  0  0  0
 31 24  2  0  0  0  0
M  END
>  <minimizedAffinity>
-5.40426111

$$$$

 OpenBabel03252501043D

 31 33  0  0  1  0  0  0  0  0999 V2000
   37.5120   31.9490   38.3030 C   0  0  1  0  0  0  0  0  0  0  0  0
   37.5310   30.8250   37.3360 C   0  0  0  0  0  0  0  0  0  0  0  0
   36.9150   30.6740   38.7200 C   0  0  1  0  0  0  0  0  0  0  0  0
   36.8380   32.8230   38.0960 H   0  0  0  0  0  0  0  0  0  0  0  0
   36.8420   30.8580   36.4440 H   0  0  0  0  0  0  0  0  0  0  0  0
   38.3720   30.1490   37.1820 H   0  0  0  0  0  0  0  0  0  0  0  0
   35.8140   30.5680   38.6560 H   0  0  0  0  0  0  0  0  0  0  0  0
   40.2060   33.4040   40.5250 C   0  0  0  0  0  0  0  0  0  0  0  0
   38.9280   33.1140   40.0220 C   0  0  0  0  0  0  0  0  0  0  0  0
   38.8390   32.2910   38.8920 C   0  0  0  0  0  0  0  0  0  0  0  0
   39.9870   31.8140   38.3340 N   0  0  0  0  0  0  0  0  0  0  0  0
   41.2080   32.1110   38.8390 C   0  0  0  0  0  0  0  0  0  0  0  0
   41.3050   32.9060   39.9340 N   0  0  0  0  0  0  0  0  0  0  0  0
   40.2500   34.0390   41.3960 H   0  0  0  0  0  0  0  0  0  0  0  0
   38.0770   33.5230   40.5170 H   0  0  0  0  0  0  0  0  0  0  0  0
   42.1260   31.7420   38.4110 H   0  0  0  0  0  0  0  0  0  0  0  0
   37.5050   29.9930   39.7140 O   0  0  0  0  0  0  0  0  0  0  0  0
   36.0730   28.5030   41.3790 O   0  0  0  0  0  0  0  0  0  0  0  0
   36.7300   29.8460   41.1520 P   0  0  2  0  0  0  0  0  0  0  0  0
   35.5450   31.0130   41.4280 O   0  0  0  0  0  0  0  0  0  0  0  0
   35.1290   30.7760   42.3150 H   0  0  0  0  0  0  0  0  0  0  0  0
   37.8590   29.9940   42.4050 O   0  0  0  0  0  0  0  0  0  0  0  0
   40.3360   30.0600   41.3540 F   0  0  0  0  0  0  0  0  0  0  0  0
   39.9030   29.0280   42.1420 C   0  0  0  0  0  0  0  0  0  0  0  0
   38.6430   28.8960   42.7350 C   0  0  0  0  0  0  0  0  0  0  0  0
   38.3680   27.7980   43.4970 C   0  0  0  0  0  0  0  0  0  0  0  0
   37.3720   27.8110   43.8970 H   0  0  0  0  0  0  0  0  0  0  0  0
   39.3350   26.8290   43.6780 C   0  0  0  0  0  0  0  0  0  0  0  0
   39.0590   25.9810   44.2920 H   0  0  0  0  0  0  0  0  0  0  0  0
   40.5780   26.9550   43.0950 C   0  0  0  0  0  3  0  0  0  0  0  0
   40.8870   28.0540   42.3180 C   0  0  0  0  0  3  0  0  0  0  0  0
  1  4  1  6  0  0  0
  1  3  1  0  0  0  0
  1 10  1  0  0  0  0
  2  1  1  0  0  0  0
  2  3  1  0  0  0  0
  3  7  1  1  0  0  0
  3 17  1  0  0  0  0
  5  2  1  0  0  0  0
  6  2  1  0  0  0  0
  8 14  1  0  0  0  0
  9 15  1  0  0  0  0
  9  8  1  0  0  0  0
 10  9  2  0  0  0  0
 11 12  2  0  0  0  0
 11 10  1  0  0  0  0
 12 13  1  0  0  0  0
 13  8  2  0  0  0  0
 16 12  1  0  0  0  0
 17 19  1  0  0  0  0
 19 18  2  1  0  0  0
 19 20  1  0  0  0  0
 19 22  1  0  0  0  0
 20 21  1  0  0  0  0
 22 25  1  0  0  0  0
 23 24  1  0  0  0  0
 24 31  2  0  0  0  0
 24 25  1  0  0  0  0
 25 26  2  0  0  0  0
 26 28  1  0  0  0  0
 26 27  1  0  0  0  0
 28 29  1  0  0  0  0
 30 28  2  0  0  0  0
 31 30  1  0  0  0  0
M  END
>  <minimizedAffinity>
-5.30785322

$$$$

 OpenBabel03252501043D

 31 33  0  0  1  0  0  0  0  0999 V2000
   40.3490   29.4230   42.6010 C   0  0  1  0  0  0  0  0  0  0  0  0
   41.2800   29.2360   41.4620 C   0  0  0  0  0  0  0  0  0  0  0  0
   40.4030   30.4740   41.5770 C   0  0  1  0  0  0  0  0  0  0  0  0
   40.7790   29.6310   43.6180 H   0  0  0  0  0  0  0  0  0  0  0  0
   42.3890   29.3460   41.6370 H   0  0  0  0  0  0  0  0  0  0  0  0
   41.0610   28.6560   40.5660 H   0  0  0  0  0  0  0  0  0  0  0  0
   41.0130   31.3760   41.7870 H   0  0  0  0  0  0  0  0  0  0  0  0
   36.9950   27.8720   43.4110 C   0  0  0  0  0  0  0  0  0  0  0  0
   38.0900   28.7480   43.4730 C   0  0  0  0  0  0  0  0  0  0  0  0
   39.1520   28.5340   42.5840 C   0  0  0  0  0  0  0  0  0  0  0  0
   39.0760   27.4940   41.7070 N   0  0  0  0  0  0  0  0  0  0  0  0
   38.0070   26.6630   41.6690 C   0  0  0  0  0  0  0  0  0  0  0  0
   36.9720   26.8620   42.5250 N   0  0  0  0  0  0  0  0  0  0  0  0
   36.1890   28.0560   44.1050 H   0  0  0  0  0  0  0  0  0  0  0  0
   38.0740   29.5400   44.1850 H   0  0  0  0  0  0  0  0  0  0  0  0
   37.9290   25.8350   40.9820 H   0  0  0  0  0  0  0  0  0  0  0  0
   39.3160   30.6750   40.8160 O   0  0  0  0  0  0  0  0  0  0  0  0
   39.6210   32.6570   39.0770 O   0  0  0  0  0  0  0  0  0  0  0  0
   38.9400   32.2010   40.3480 P   0  0  2  0  0  0  0  0  0  0  0  0
   39.2500   33.3840   41.5100 O   0  0  0  0  0  0  0  0  0  0  0  0
   39.0160   34.2620   41.0750 H   0  0  0  0  0  0  0  0  0  0  0  0
   37.2840   32.2810   40.0060 O   0  0  0  0  0  0  0  0  0  0  0  0
   37.1920   31.3520   37.4800 F   0  0  0  0  0  0  0  0  0  0  0  0
   36.5840   30.7040   38.5210 C   0  0  0  0  0  0  0  0  0  0  0  0
   36.5700   31.0980   39.8630 C   0  0  0  0  0  0  0  0  0  0  0  0
   35.9130   30.3340   40.7830 C   0  0  0  0  0  0  0  0  0  0  0  0
   35.9740   30.7380   41.7750 H   0  0  0  0  0  0  0  0  0  0  0  0
   35.2690   29.1800   40.3830 C   0  0  0  0  0  0  0  0  0  0  0  0
   34.7650   28.6160   41.1570 H   0  0  0  0  0  0  0  0  0  0  0  0
   35.2790   28.7890   39.0610 C   0  0  0  0  0  3  0  0  0  0  0  0
   35.9350   29.5390   38.1060 C   0  0  0  0  0  3  0  0  0  0  0  0
  1  4  1  1  0  0  0
  2  3  1  0  0  0  0
  2  5  1  0  0  0  0
  2  1  1  0  0  0  0
  3  7  1  1  0  0  0
  3  1  1  0  0  0  0
  6  2  1  0  0  0  0
  8  9  1  0  0  0  0
  8 14  1  0  0  0  0
  9 15  1  0  0  0  0
 10  1  1  0  0  0  0
 10  9  2  0  0  0  0
 11 10  1  0  0  0  0
 12 11  2  0  0  0  0
 12 13  1  0  0  0  0
 13  8  2  0  0  0  0
 16 12  1  0  0  0  0
 17  3  1  0  0  0  0
 19 18  2  6  0  0  0
 19 17  1  0  0  0  0
 19 20  1  0  0  0  0
 21 20  1  0  0  0  0
 22 19  1  0  0  0  0
 23 24  1  0  0  0  0
 24 25  1  0  0  0  0
 25 22  1  0  0  0  0
 25 26  2  0  0  0  0
 26 27  1  0  0  0  0
 28 26  1  0  0  0  0
 28 29  1  0  0  0  0
 30 28  2  0  0  0  0
 31 24  2  0  0  0  0
 31 30  1  0  0  0  0
M  END
>  <minimizedAffinity>
-5.13032436

$$$$

 OpenBabel03252501043D

 31 33  0  0  1  0  0  0  0  0999 V2000
   37.6430   28.6010   43.6790 C   0  0  1  0  0  0  0  0  0  0  0  0
   36.5800   27.5820   43.5050 C   0  0  0  0  0  0  0  0  0  0  0  0
   38.0540   27.2060   43.4820 C   0  0  1  0  0  0  0  0  0  0  0  0
   37.7760   29.0700   44.6910 H   0  0  0  0  0  0  0  0  0  0  0  0
   35.9620   27.2760   44.3980 H   0  0  0  0  0  0  0  0  0  0  0  0
   36.0810   27.3560   42.5630 H   0  0  0  0  0  0  0  0  0  0  0  0
   38.3270   26.6110   44.3770 H   0  0  0  0  0  0  0  0  0  0  0  0
   39.1150   31.1070   41.2570 C   0  0  0  0  0  0  0  0  0  0  0  0
   39.0090   30.2520   42.3650 C   0  0  0  0  0  0  0  0  0  0  0  0
   37.8230   29.5220   42.5200 C   0  0  0  0  0  0  0  0  0  0  0  0
   36.8330   29.6730   41.5960 N   0  0  0  0  0  0  0  0  0  0  0  0
   36.9620   30.5050   40.5350 C   0  0  0  0  0  0  0  0  0  0  0  0
   38.1070   31.2170   40.3760 N   0  0  0  0  0  0  0  0  0  0  0  0
   40.0370   31.6580   41.1580 H   0  0  0  0  0  0  0  0  0  0  0  0
   39.8290   30.1860   43.0420 H   0  0  0  0  0  0  0  0  0  0  0  0
   36.1890   30.6370   39.7940 H   0  0  0  0  0  0  0  0  0  0  0  0
   38.7130   26.8920   42.3560 O   0  0  0  0  0  0  0  0  0  0  0  0
   40.6490   25.6470   43.6760 O   0  0  0  0  0  0  0  0  0  0  0  0
   39.8460   25.7070   42.3960 P   0  0  2  0  0  0  0  0  0  0  0  0
   40.9610   25.7650   41.1320 O   0  0  0  0  0  0  0  0  0  0  0  0
   41.6120   25.0160   41.3080 H   0  0  0  0  0  0  0  0  0  0  0  0
   39.0760   24.2030   42.2960 O   0  0  0  0  0  0  0  0  0  0  0  0
   36.4080   24.5180   42.4700 F   0  0  0  0  0  0  0  0  0  0  0  0
   37.0200   24.0750   41.3290 C   0  0  0  0  0  0  0  0  0  0  0  0
   38.3910   23.8760   41.1330 C   0  0  0  0  0  0  0  0  0  0  0  0
   38.8410   23.4250   39.9270 C   0  0  0  0  0  0  0  0  0  0  0  0
   39.9080   23.3140   39.8990 H   0  0  0  0  0  0  0  0  0  0  0  0
   37.9420   23.1700   38.9100 C   0  0  0  0  0  0  0  0  0  0  0  0
   38.3580   22.8140   37.9760 H   0  0  0  0  0  0  0  0  0  0  0  0
   36.5900   23.3630   39.0990 C   0  0  0  0  0  3  0  0  0  0  0  0
   36.1030   23.8190   40.3080 C   0  0  0  0  0  3  0  0  0  0  0  0
  1  4  1  1  0  0  0
  2  1  1  0  0  0  0
  2  5  1  0  0  0  0
  3  2  1  0  0  0  0
  3  1  1  0  0  0  0
  3  7  1  1  0  0  0
  6  2  1  0  0  0  0
  8  9  1  0  0  0  0
  9 10  2  0  0  0  0
  9 15  1  0  0  0  0
 10  1  1  0  0  0  0
 11 10  1  0  0  0  0
 12 11  2  0  0  0  0
 13 12  1  0  0  0  0
 13  8  2  0  0  0  0
 14  8  1  0  0  0  0
 16 12  1  0  0  0  0
 17 19  1  0  0  0  0
 17  3  1  0  0  0  0
 19 18  2  1  0  0  0
 20 21  1  0  0  0  0
 20 19  1  0  0  0  0
 22 19  1  0  0  0  0
 24 23  1  0  0  0  0
 25 24  1  0  0  0  0
 25 22  1  0  0  0  0
 26 25  2  0  0  0  0
 27 26  1  0  0  0  0
 28 30  2  0  0  0  0
 28 26  1  0  0  0  0
 29 28  1  0  0  0  0
 30 31  1  0  0  0  0
 31 24  2  0  0  0  0
M  END
>  <minimizedAffinity>
-5.03287792

$$$$

 OpenBabel03252501043D

 31 33  0  0  1  0  0  0  0  0999 V2000
   38.3860   31.9790   38.6560 C   0  0  1  0  0  0  0  0  0  0  0  0
   37.7020   31.6560   37.3800 C   0  0  0  0  0  0  0  0  0  0  0  0
   37.0810   31.3090   38.7260 C   0  0  1  0  0  0  0  0  0  0  0  0
   38.4610   33.0560   38.9660 H   0  0  0  0  0  0  0  0  0  0  0  0
   37.2430   32.4910   36.7770 H   0  0  0  0  0  0  0  0  0  0  0  0
   37.8970   30.7710   36.7760 H   0  0  0  0  0  0  0  0  0  0  0  0
   36.1850   31.9310   38.9230 H   0  0  0  0  0  0  0  0  0  0  0  0
   41.3820   29.7030   38.2710 C   0  0  0  0  0  0  0  0  0  0  0  0
   40.2660   30.4800   37.9250 C   0  0  0  0  0  0  0  0  0  0  0  0
   39.5840   31.1430   38.9540 C   0  0  0  0  0  0  0  0  0  0  0  0
   40.0300   31.0060   40.2340 N   0  0  0  0  0  0  0  0  0  0  0  0
   41.1110   30.2490   40.5400 C   0  0  0  0  0  0  0  0  0  0  0  0
   41.7790   29.6020   39.5510 N   0  0  0  0  0  0  0  0  0  0  0  0
   41.8920   29.2010   37.4620 H   0  0  0  0  0  0  0  0  0  0  0  0
   39.9800   30.5400   36.9000 H   0  0  0  0  0  0  0  0  0  0  0  0
   41.4780   30.1280   41.5470 H   0  0  0  0  0  0  0  0  0  0  0  0
   37.0360   30.0590   39.2120 O   0  0  0  0  0  0  0  0  0  0  0  0
   34.9630   28.9280   40.4240 O   0  0  0  0  0  0  0  0  0  0  0  0
   36.2080   29.7700   40.5970 P   0  0  2  0  0  0  0  0  0  0  0  0
   35.7350   31.1580   41.4310 O   0  0  0  0  0  0  0  0  0  0  0  0
   35.2070   30.8340   42.2250 H   0  0  0  0  0  0  0  0  0  0  0  0
   37.1890   28.8810   41.6520 O   0  0  0  0  0  0  0  0  0  0  0  0
   36.3430   27.3160   43.6730 F   0  0  0  0  0  0  0  0  0  0  0  0
   36.8910   26.8020   42.5290 C   0  0  0  0  0  0  0  0  0  0  0  0
   37.3600   27.5220   41.4250 C   0  0  0  0  0  0  0  0  0  0  0  0
   37.8820   26.8530   40.3570 C   0  0  0  0  0  0  0  0  0  0  0  0
   38.2060   27.5130   39.5750 H   0  0  0  0  0  0  0  0  0  0  0  0
   37.9420   25.4740   40.3720 C   0  0  0  0  0  0  0  0  0  0  0  0
   38.3660   24.9990   39.4970 H   0  0  0  0  0  0  0  0  0  0  0  0
   37.4810   24.7600   41.4590 C   0  0  0  0  0  3  0  0  0  0  0  0
   36.9470   25.4070   42.5550 C   0  0  0  0  0  3  0  0  0  0  0  0
  1  3  1  0  0  0  0
  1 10  1  0  0  0  0
  1  4  1  1  0  0  0
  2  1  1  0  0  0  0
  2  3  1  0  0  0  0
  3  7  1  1  0  0  0
  3 17  1  0  0  0  0
  5  2  1  0  0  0  0
  6  2  1  0  0  0  0
  8 13  1  0  0  0  0
  9  8  2  0  0  0  0
  9 10  1  0  0  0  0
 10 11  2  0  0  0  0
 11 12  1  0  0  0  0
 12 16  1  0  0  0  0
 13 12  2  0  0  0  0
 14  8  1  0  0  0  0
 15  9  1  0  0  0  0
 17 19  1  0  0  0  0
 19 18  2  6  0  0  0
 19 20  1  0  0  0  0
 19 22  1  0  0  0  0
 20 21  1  0  0  0  0
 24 31  1  0  0  0  0
 24 23  1  0  0  0  0
 25 22  1  0  0  0  0
 25 24  2  0  0  0  0
 26 28  2  0  0  0  0
 26 25  1  0  0  0  0
 27 26  1  0  0  0  0
 28 30  1  0  0  0  0
 29 28  1  0  0  0  0
 30 31  2  0  0  0  0
M  END
>  <minimizedAffinity>
-5.0250864

$$$$

 OpenBabel03252501043D

 31 33  0  0  1  0  0  0  0  0999 V2000
   37.9440   25.2280   41.1900 C   0  0  1  0  0  0  0  0  0  0  0  0
   36.7590   24.3590   41.3930 C   0  0  0  0  0  0  0  0  0  0  0  0
   36.9760   25.1180   40.0920 C   0  0  1  0  0  0  0  0  0  0  0  0
   38.9520   24.7430   41.0780 H   0  0  0  0  0  0  0  0  0  0  0  0
   36.8930   23.2390   41.3900 H   0  0  0  0  0  0  0  0  0  0  0  0
   35.8440   24.6630   41.9010 H   0  0  0  0  0  0  0  0  0  0  0  0
   37.2080   24.4230   39.2600 H   0  0  0  0  0  0  0  0  0  0  0  0
   37.0210   27.9230   43.6800 C   0  0  0  0  0  0  0  0  0  0  0  0
   36.9870   26.7030   42.9860 C   0  0  0  0  0  0  0  0  0  0  0  0
   37.9300   26.4980   41.9700 C   0  0  0  0  0  0  0  0  0  0  0  0
   38.8310   27.4850   41.7010 N   0  0  0  0  0  0  0  0  0  0  0  0
   38.8410   28.6540   42.3860 C   0  0  0  0  0  0  0  0  0  0  0  0
   37.9320   28.8610   43.3730 N   0  0  0  0  0  0  0  0  0  0  0  0
   36.2860   28.0570   44.4580 H   0  0  0  0  0  0  0  0  0  0  0  0
   36.2540   25.9790   43.2580 H   0  0  0  0  0  0  0  0  0  0  0  0
   39.5460   29.4450   42.1870 H   0  0  0  0  0  0  0  0  0  0  0  0
   36.2730   26.2100   39.7550 O   0  0  0  0  0  0  0  0  0  0  0  0
   36.6760   26.4470   37.1420 O   0  0  0  0  0  0  0  0  0  0  0  0
   36.7760   27.1250   38.4900 P   0  0  2  0  0  0  0  0  0  0  0  0
   38.3580   27.6930   38.6250 O   0  0  0  0  0  0  0  0  0  0  0  0
   38.5430   28.1940   37.7710 H   0  0  0  0  0  0  0  0  0  0  0  0
   35.7800   28.4890   38.3650 O   0  0  0  0  0  0  0  0  0  0  0  0
   35.2960   28.9040   40.9810 F   0  0  0  0  0  0  0  0  0  0  0  0
   35.9470   29.8220   40.2030 C   0  0  0  0  0  0  0  0  0  0  0  0
   36.2480   29.7060   38.8410 C   0  0  0  0  0  0  0  0  0  0  0  0
   36.9060   30.7200   38.2080 C   0  0  0  0  0  0  0  0  0  0  0  0
   37.0800   30.5150   37.1700 H   0  0  0  0  0  0  0  0  0  0  0  0
   37.2710   31.8490   38.9150 C   0  0  0  0  0  0  0  0  0  0  0  0
   37.7910   32.6190   38.3600 H   0  0  0  0  0  0  0  0  0  0  0  0
   36.9760   31.9670   40.2570 C   0  0  0  0  0  3  0  0  0  0  0  0
   36.3110   30.9590   40.9260 C   0  0  0  0  0  3  0  0  0  0  0  0
  1  4  1  6  0  0  0
  1  2  1  0  0  0  0
  1 10  1  0  0  0  0
  2  6  1  0  0  0  0
  3  7  1  6  0  0  0
  3  1  1  0  0  0  0
  3  2  1  0  0  0  0
  5  2  1  0  0  0  0
  8 14  1  0  0  0  0
  9 15  1  0  0  0  0
  9  8  2  0  0  0  0
 10  9  1  0  0  0  0
 11 10  2  0  0  0  0
 11 12  1  0  0  0  0
 12 13  2  0  0  0  0
 13  8  1  0  0  0  0
 16 12  1  0  0  0  0
 17  3  1  0  0  0  0
 19 18  2  6  0  0  0
 19 20  1  0  0  0  0
 19 17  1  0  0  0  0
 21 20  1  0  0  0  0
 22 19  1  0  0  0  0
 22 25  1  0  0  0  0
 24 31  1  0  0  0  0
 24 23  1  0  0  0  0
 25 24  2  0  0  0  0
 26 25  1  0  0  0  0
 26 28  2  0  0  0  0
 27 26  1  0  0  0  0
 28 30  1  0  0  0  0
 29 28  1  0  0  0  0
 30 31  2  0  0  0  0
M  END
>  <minimizedAffinity>
-5.01285124

$$$$
