
 OpenBabel03252501033D

 31 33  0  0  1  0  0  0  0  0999 V2000
   47.9680   35.6130   41.9050 C   0  0  1  0  0  0  0  0  0  0  0  0
   49.3480   35.0770   41.9970 C   0  0  0  0  0  0  0  0  0  0  0  0
   48.5980   35.1190   40.6730 C   0  0  1  0  0  0  0  0  0  0  0  0
   47.8130   36.7180   42.0310 H   0  0  0  0  0  0  0  0  0  0  0  0
   50.2050   35.7940   42.1510 H   0  0  0  0  0  0  0  0  0  0  0  0
   49.6030   34.0600   42.2950 H   0  0  0  0  0  0  0  0  0  0  0  0
   49.0490   35.8620   39.9840 H   0  0  0  0  0  0  0  0  0  0  0  0
   46.2090   33.0470   44.0570 C   0  0  0  0  0  0  0  0  0  0  0  0
   47.2410   33.8390   43.5300 C   0  0  0  0  0  0  0  0  0  0  0  0
   46.9180   34.7460   42.5120 C   0  0  0  0  0  0  0  0  0  0  0  0
   45.6270   34.8180   42.0810 N   0  0  0  0  0  0  0  0  0  0  0  0
   44.6510   34.0400   42.6060 C   0  0  0  0  0  0  0  0  0  0  0  0
   44.9530   33.1590   43.5930 N   0  0  0  0  0  0  0  0  0  0  0  0
   46.4810   32.3560   44.8400 H   0  0  0  0  0  0  0  0  0  0  0  0
   48.2250   33.7270   43.9230 H   0  0  0  0  0  0  0  0  0  0  0  0
   43.6250   34.0840   42.2770 H   0  0  0  0  0  0  0  0  0  0  0  0
   48.0800   34.0280   40.0890 O   0  0  0  0  0  0  0  0  0  0  0  0
   48.9140   32.4930   38.0920 O   0  0  0  0  0  0  0  0  0  0  0  0
   48.2830   33.8120   38.4770 P   0  0  2  0  0  0  0  0  0  0  0  0
   49.1900   35.0170   37.7200 O   0  0  0  0  0  0  0  0  0  0  0  0
   49.2680   34.7350   36.7560 H   0  0  0  0  0  0  0  0  0  0  0  0
   46.7660   33.8030   37.7260 O   0  0  0  0  0  0  0  0  0  0  0  0
   46.1840   32.2800   35.5820 F   0  0  0  0  0  0  0  0  0  0  0  0
   45.6560   32.0330   36.8210 C   0  0  0  0  0  0  0  0  0  0  0  0
   45.8910   32.7580   37.9940 C   0  0  0  0  0  0  0  0  0  0  0  0
   45.2820   32.3780   39.1540 C   0  0  0  0  0  0  0  0  0  0  0  0
   45.5400   33.0100   39.9810 H   0  0  0  0  0  0  0  0  0  0  0  0
   44.4400   31.2840   39.1620 C   0  0  0  0  0  0  0  0  0  0  0  0
   43.9870   31.0310   40.1120 H   0  0  0  0  0  0  0  0  0  0  0  0
   44.2060   30.5670   38.0070 C   0  0  0  0  0  3  0  0  0  0  0  0
   44.8070   30.9250   36.8160 C   0  0  0  0  0  3  0  0  0  0  0  0
  1  2  1  0  0  0  0
  1  4  1  1  0  0  0
  1 10  1  0  0  0  0
  2  5  1  0  0  0  0
  2  6  1  0  0  0  0
  3  7  1  6  0  0  0
  3  1  1  0  0  0  0
  3  2  1  0  0  0  0
  8 14  1  0  0  0  0
  9 15  1  0  0  0  0
  9  8  2  0  0  0  0
 10  9  1  0  0  0  0
 11 10  2  0  0  0  0
 11 12  1  0  0  0  0
 12 13  2  0  0  0  0
 13  8  1  0  0  0  0
 16 12  1  0  0  0  0
 17  3  1  0  0  0  0
 19 18  2  6  0  0  0
 19 17  1  0  0  0  0
 20 19  1  0  0  0  0
 21 20  1  0  0  0  0
 22 25  1  0  0  0  0
 22 19  1  0  0  0  0
 23 24  1  0  0  0  0
 24 25  1  0  0  0  0
 25 26  2  0  0  0  0
 26 28  1  0  0  0  0
 26 27  1  0  0  0  0
 28 29  1  0  0  0  0
 30 28  2  0  0  0  0
 31 24  2  0  0  0  0
 31 30  1  0  0  0  0
M  END
>  <minimizedAffinity>
-4.25347328

>  <minimizedRMSD>
0.518798351

$$$$
