
 OpenBabel03252501033D

 31 33  0  0  1  0  0  0  0  0999 V2000
   48.2110   35.5910   42.0510 C   0  0  1  0  0  0  0  0  0  0  0  0
   49.4590   34.8110   41.8680 C   0  0  0  0  0  0  0  0  0  0  0  0
   48.5760   35.1870   40.6870 C   0  0  1  0  0  0  0  0  0  0  0  0
   48.2920   36.6740   42.3390 H   0  0  0  0  0  0  0  0  0  0  0  0
   50.4530   35.3320   41.9830 H   0  0  0  0  0  0  0  0  0  0  0  0
   49.5430   33.7320   41.9930 H   0  0  0  0  0  0  0  0  0  0  0  0
   49.0760   35.9350   40.0390 H   0  0  0  0  0  0  0  0  0  0  0  0
   46.2540   33.0420   44.0470 C   0  0  0  0  0  0  0  0  0  0  0  0
   47.3490   33.7070   43.4750 C   0  0  0  0  0  0  0  0  0  0  0  0
   47.0930   34.8420   42.6940 C   0  0  0  0  0  0  0  0  0  0  0  0
   45.8020   35.2450   42.5240 N   0  0  0  0  0  0  0  0  0  0  0  0
   44.7640   34.5830   43.0870 C   0  0  0  0  0  0  0  0  0  0  0  0
   45.0010   33.4840   43.8470 N   0  0  0  0  0  0  0  0  0  0  0  0
   46.4750   32.1710   44.6450 H   0  0  0  0  0  0  0  0  0  0  0  0
   48.3300   33.3320   43.6570 H   0  0  0  0  0  0  0  0  0  0  0  0
   43.7370   34.8880   42.9640 H   0  0  0  0  0  0  0  0  0  0  0  0
   47.7860   34.3080   40.0530 O   0  0  0  0  0  0  0  0  0  0  0  0
   49.0430   32.5300   38.5360 O   0  0  0  0  0  0  0  0  0  0  0  0
   48.2070   33.7900   38.5560 P   0  0  2  0  0  0  0  0  0  0  0  0
   49.0360   34.9310   37.6310 O   0  0  0  0  0  0  0  0  0  0  0  0
   49.2660   34.4670   36.7660 H   0  0  0  0  0  0  0  0  0  0  0  0
   46.8050   33.3930   37.6940 O   0  0  0  0  0  0  0  0  0  0  0  0
   45.4050   31.1510   38.2050 F   0  0  0  0  0  0  0  0  0  0  0  0
   46.1240   31.3180   37.0530 C   0  0  0  0  0  0  0  0  0  0  0  0
   46.8820   32.4370   36.6900 C   0  0  0  0  0  0  0  0  0  0  0  0
   47.5450   32.4430   35.4980 C   0  0  0  0  0  0  0  0  0  0  0  0
   48.0890   33.3530   35.3330 H   0  0  0  0  0  0  0  0  0  0  0  0
   47.4620   31.3490   34.6590 C   0  0  0  0  0  0  0  0  0  0  0  0
   48.0090   31.4130   33.7280 H   0  0  0  0  0  0  0  0  0  0  0  0
   46.7160   30.2450   35.0140 C   0  0  0  0  0  0  0  0  0  0  0  0
   46.0340   30.2070   36.2130 C   0  0  0  0  0  0  0  0  0  0  0  0
  1  4  1  1  0  0  0
  1 10  1  0  0  0  0
  2  5  1  0  0  0  0
  2  6  1  0  0  0  0
  2  1  1  0  0  0  0
  3  7  1  6  0  0  0
  3  2  1  0  0  0  0
  3  1  1  0  0  0  0
  8 14  1  0  0  0  0
  9 15  1  0  0  0  0
  9  8  2  0  0  0  0
 10  9  1  0  0  0  0
 11 10  2  0  0  0  0
 11 12  1  0  0  0  0
 12 13  2  0  0  0  0
 13  8  1  0  0  0  0
 16 12  1  0  0  0  0
 17  3  1  0  0  0  0
 19 18  2  1  0  0  0
 19 17  1  0  0  0  0
 20 19  1  0  0  0  0
 21 20  1  0  0  0  0
 22 19  1  0  0  0  0
 24 23  1  0  0  0  0
 25 24  1  0  0  0  0
 25 22  1  0  0  0  0
 26 25  2  0  0  0  0
 27 26  1  0  0  0  0
 28 30  2  0  0  0  0
 28 26  1  0  0  0  0
 29 28  1  0  0  0  0
 30 31  1  0  0  0  0
 31 24  2  0  0  0  0
M  END
>  <minimizedAffinity>
-4.46487045

>  <minimizedRMSD>
2.07659936

$$$$
