
 OpenBabel03252501033D

 31 33  0  0  1  0  0  0  0  0999 V2000
   48.1140   35.6060   42.0080 C   0  0  1  0  0  0  0  0  0  0  0  0
   49.4470   34.9600   41.9380 C   0  0  0  0  0  0  0  0  0  0  0  0
   48.5830   35.1380   40.6980 C   0  0  1  0  0  0  0  0  0  0  0  0
   48.0640   36.7110   42.2050 H   0  0  0  0  0  0  0  0  0  0  0  0
   50.3720   35.5980   42.0430 H   0  0  0  0  0  0  0  0  0  0  0  0
   49.6430   33.9110   42.1580 H   0  0  0  0  0  0  0  0  0  0  0  0
   49.0270   35.8820   40.0070 H   0  0  0  0  0  0  0  0  0  0  0  0
   46.3590   32.9870   44.0990 C   0  0  0  0  0  0  0  0  0  0  0  0
   47.4000   33.7210   43.5100 C   0  0  0  0  0  0  0  0  0  0  0  0
   47.0570   34.7900   42.6710 C   0  0  0  0  0  0  0  0  0  0  0  0
   45.7380   35.0680   42.4660 N   0  0  0  0  0  0  0  0  0  0  0  0
   44.7540   34.3420   43.0470 C   0  0  0  0  0  0  0  0  0  0  0  0
   45.0750   33.3050   43.8620 N   0  0  0  0  0  0  0  0  0  0  0  0
   46.6470   32.1690   44.7410 H   0  0  0  0  0  0  0  0  0  0  0  0
   48.4070   33.4440   43.7220 H   0  0  0  0  0  0  0  0  0  0  0  0
   43.7060   34.5470   42.8970 H   0  0  0  0  0  0  0  0  0  0  0  0
   47.9230   34.1260   40.1130 O   0  0  0  0  0  0  0  0  0  0  0  0
   48.9530   32.5040   38.2830 O   0  0  0  0  0  0  0  0  0  0  0  0
   48.2070   33.7950   38.5330 P   0  0  2  0  0  0  0  0  0  0  0  0
   49.0470   35.0020   37.7070 O   0  0  0  0  0  0  0  0  0  0  0  0
   49.1860   34.6490   36.7730 H   0  0  0  0  0  0  0  0  0  0  0  0
   46.7260   33.6020   37.7350 O   0  0  0  0  0  0  0  0  0  0  0  0
   44.8430   33.8170   39.6460 F   0  0  0  0  0  0  0  0  0  0  0  0
   45.0520   32.6560   38.9510 C   0  0  0  0  0  0  0  0  0  0  0  0
   45.9980   32.4390   37.9450 C   0  0  0  0  0  0  0  0  0  0  0  0
   46.0780   31.2140   37.3480 C   0  0  0  0  0  0  0  0  0  0  0  0
   46.8390   31.1720   36.5930 H   0  0  0  0  0  0  0  0  0  0  0  0
   45.2260   30.2010   37.7410 C   0  0  0  0  0  0  0  0  0  0  0  0
   45.3360   29.2530   37.2320 H   0  0  0  0  0  0  0  0  0  0  0  0
   44.2900   30.4120   38.7340 C   0  0  0  0  0  3  0  0  0  0  0  0
   44.1850   31.6390   39.3570 C   0  0  0  0  0  3  0  0  0  0  0  0
  1  4  1  1  0  0  0
  1 10  1  0  0  0  0
  2  1  1  0  0  0  0
  2  5  1  0  0  0  0
  2  6  1  0  0  0  0
  3  7  1  6  0  0  0
  3  2  1  0  0  0  0
  3  1  1  0  0  0  0
  8 14  1  0  0  0  0
  9 15  1  0  0  0  0
  9  8  2  0  0  0  0
 10  9  1  0  0  0  0
 11 10  2  0  0  0  0
 11 12  1  0  0  0  0
 12 13  2  0  0  0  0
 13  8  1  0  0  0  0
 16 12  1  0  0  0  0
 17  3  1  0  0  0  0
 19 18  2  6  0  0  0
 19 17  1  0  0  0  0
 20 19  1  0  0  0  0
 21 20  1  0  0  0  0
 22 25  1  0  0  0  0
 22 19  1  0  0  0  0
 24 31  1  0  0  0  0
 24 23  1  0  0  0  0
 25 24  2  0  0  0  0
 26 28  2  0  0  0  0
 26 25  1  0  0  0  0
 27 26  1  0  0  0  0
 28 30  1  0  0  0  0
 29 28  1  0  0  0  0
 30 31  2  0  0  0  0
M  END
>  <minimizedAffinity>
-4.29709435

>  <minimizedRMSD>
0.571611702

$$$$
