
 OpenBabel03242514213D

 49 51  0  0  0  0  0  0  0  0999 V2000
   38.8530   25.7820   42.3160 C   0  0  0  0  0  0  0  0  0  0  0  0
   38.9730   26.7860   43.2460 C   0  0  0  0  0  0  0  0  0  0  0  0
   40.1770   26.8870   43.8940 C   0  0  0  0  0  0  0  0  0  0  0  0
   41.1730   26.0220   43.6040 N   0  0  0  0  0  0  0  0  0  0  0  0
   41.0540   25.0540   42.7040 C   0  0  0  0  0  0  0  0  0  0  0  0
   39.8940   24.9550   42.0790 N   0  0  0  0  0  0  0  0  0  0  0  0
   40.4710   27.5980   44.6520 H   0  0  0  0  0  0  0  0  0  0  0  0
   41.7810   24.3240   42.4040 H   0  0  0  0  0  0  0  0  0  0  0  0
   37.5890   25.7140   41.5730 C   0  0  0  0  0  0  0  0  0  0  0  0
   36.8580   24.4320   41.8540 C   0  0  0  0  0  0  0  0  0  0  0  0
   36.7180   23.5930   40.6650 C   0  0  0  0  0  0  0  0  0  0  0  0
   36.0560   24.3340   39.5230 C   0  0  0  0  0  0  0  0  0  0  0  0
   36.5700   25.7070   39.3310 C   0  0  0  0  0  0  0  0  0  0  0  0
   37.8350   25.9520   40.1260 C   0  0  0  0  0  0  0  0  0  0  0  0
   36.9010   26.4760   41.9840 H   0  0  0  0  0  0  0  0  0  0  0  0
   35.8630   24.5920   42.3070 H   0  0  0  0  0  0  0  0  0  0  0  0
   37.4380   23.8770   42.6180 H   0  0  0  0  0  0  0  0  0  0  0  0
   37.7090   23.2770   40.2840 H   0  0  0  0  0  0  0  0  0  0  0  0
   36.0670   22.7160   40.9000 H   0  0  0  0  0  0  0  0  0  0  0  0
   36.1890   23.7220   38.6050 H   0  0  0  0  0  0  0  0  0  0  0  0
   34.9610   24.3240   39.7490 H   0  0  0  0  0  0  0  0  0  0  0  0
   36.6870   26.0250   38.2880 H   0  0  0  0  0  0  0  0  0  0  0  0
   35.8130   26.4120   39.7810 H   0  0  0  0  0  0  0  0  0  0  0  0
   38.1380   27.0120   39.9440 H   0  0  0  0  0  0  0  0  0  0  0  0
   38.5980   25.2790   39.6870 H   0  0  0  0  0  0  0  0  0  0  0  0
   38.1210   27.7210   43.6650 O   0  0  0  0  0  0  0  0  0  0  0  0
   37.7850   28.9700   43.2170 C   0  0  0  0  0  0  0  0  0  0  0  0
   36.6820   28.9590   42.9900 H   0  0  0  0  0  0  0  0  0  0  0  0
   37.9420   29.8280   43.8660 H   0  0  0  0  0  0  0  0  0  0  0  0
   38.4300   29.3300   41.8900 C   0  0  0  0  0  0  0  0  0  0  0  0
   39.5270   29.2150   41.9770 H   0  0  0  0  0  0  0  0  0  0  0  0
   38.0900   28.6420   41.1040 H   0  0  0  0  0  0  0  0  0  0  0  0
   38.1780   30.7030   41.5090 N   0  0  0  0  0  0  0  0  0  0  0  0
   38.9630   31.1220   40.9710 H   0  0  0  0  0  0  0  0  0  0  0  0
   36.7280   30.7090   40.5390 S   0  0  0  0  0  0  0  0  0  0  0  0
   36.8300   31.7020   39.4220 O   0  0  0  0  0  0  0  0  0  0  0  0
   36.0020   32.1630   39.1160 H   0  0  0  0  0  0  0  0  0  0  0  0
   35.5890   31.0590   41.4500 O   0  0  0  0  0  0  0  0  0  0  0  0
   34.8960   30.3870   41.6770 H   0  0  0  0  0  0  0  0  0  0  0  0
   36.4220   29.1850   39.9180 O   0  0  0  0  0  0  0  0  0  0  0  0
   33.7280   29.0240   40.0850 F   0  0  0  0  0  0  0  0  0  0  0  0
   34.3490   29.0350   38.8720 C   0  0  0  0  0  0  0  0  0  0  0  0
   35.7310   29.1150   38.7160 C   0  0  0  0  0  0  0  0  0  0  0  0
   36.2690   29.1190   37.4440 C   0  0  0  0  0  0  0  0  0  0  0  0
   37.3400   29.1830   37.3950 H   0  0  0  0  0  0  0  0  0  0  0  0
   35.4450   29.0450   36.3390 C   0  0  0  0  0  0  0  0  0  0  0  0
   35.8880   29.0490   35.3560 H   0  0  0  0  0  0  0  0  0  0  0  0
   34.0550   28.9620   36.4480 C   0  0  0  0  0  3  0  0  0  0  0  0
   33.5590   28.9610   37.7360 C   0  0  0  0  0  3  0  0  0  0  0  0
  1  2  1  0  0  0  0
  2 26  1  0  0  0  0
  2  3  2  0  0  0  0
  3  7  1  0  0  0  0
  4  3  1  0  0  0  0
  5  4  2  0  0  0  0
  6  1  2  0  0  0  0
  6  5  1  0  0  0  0
  8  5  1  0  0  0  0
  9 10  1  0  0  0  0
  9 15  1  0  0  0  0
  9  1  1  0  0  0  0
 10 16  1  0  0  0  0
 10 17  1  0  0  0  0
 11 19  1  0  0  0  0
 11 10  1  0  0  0  0
 12 21  1  0  0  0  0
 12 11  1  0  0  0  0
 13 12  1  0  0  0  0
 13 23  1  0  0  0  0
 13 14  1  0  0  0  0
 14  9  1  0  0  0  0
 18 11  1  0  0  0  0
 20 12  1  0  0  0  0
 22 13  1  0  0  0  0
 24 14  1  0  0  0  0
 25 14  1  0  0  0  0
 27 26  1  0  0  0  0
 27 29  1  0  0  0  0
 28 27  1  0  0  0  0
 30 31  1  0  0  0  0
 30 27  1  0  0  0  0
 32 30  1  0  0  0  0
 33 30  1  0  0  0  0
 34 33  1  0  0  0  0
 35 38  1  0  0  0  0
 35 33  1  0  0  0  0
 36 35  1  0  0  0  0
 37 36  1  0  0  0  0
 38 39  1  0  0  0  0
 40 35  1  0  0  0  0
 42 41  1  0  0  0  0
 43 42  1  0  0  0  0
 43 40  1  0  0  0  0
 44 43  2  0  0  0  0
 45 44  1  0  0  0  0
 46 48  2  0  0  0  0
 46 44  1  0  0  0  0
 47 46  1  0  0  0  0
 48 49  1  0  0  0  0
 49 42  2  0  0  0  0
M  END
>  <minimizedAffinity>
-6.08997107

$$$$

 OpenBabel03242514213D

 49 51  0  0  0  0  0  0  0  0999 V2000
   38.0940   25.4370   42.1070 C   0  0  0  0  0  0  0  0  0  0  0  0
   38.2920   26.6090   42.7980 C   0  0  0  0  0  0  0  0  0  0  0  0
   39.3820   26.6590   43.6280 C   0  0  0  0  0  0  0  0  0  0  0  0
   40.1990   25.5890   43.7340 N   0  0  0  0  0  0  0  0  0  0  0  0
   40.0050   24.4590   43.0640 C   0  0  0  0  0  0  0  0  0  0  0  0
   38.9550   24.4090   42.2640 N   0  0  0  0  0  0  0  0  0  0  0  0
   39.7100   27.4770   44.2530 H   0  0  0  0  0  0  0  0  0  0  0  0
   40.5930   23.5620   43.0790 H   0  0  0  0  0  0  0  0  0  0  0  0
   36.9660   25.4040   41.1680 C   0  0  0  0  0  0  0  0  0  0  0  0
   36.3980   24.0200   41.0440 C   0  0  0  0  0  0  0  0  0  0  0  0
   36.5450   23.4710   39.6970 C   0  0  0  0  0  0  0  0  0  0  0  0
   35.9440   24.3790   38.6460 C   0  0  0  0  0  0  0  0  0  0  0  0
   36.2750   25.8070   38.8380 C   0  0  0  0  0  0  0  0  0  0  0  0
   37.3710   25.9990   39.8660 C   0  0  0  0  0  0  0  0  0  0  0  0
   36.1260   25.9690   41.6120 H   0  0  0  0  0  0  0  0  0  0  0  0
   35.3380   23.9580   41.3500 H   0  0  0  0  0  0  0  0  0  0  0  0
   36.9430   23.3690   41.7570 H   0  0  0  0  0  0  0  0  0  0  0  0
   37.6150   23.3640   39.4280 H   0  0  0  0  0  0  0  0  0  0  0  0
   36.0030   22.4970   39.6280 H   0  0  0  0  0  0  0  0  0  0  0  0
   36.2890   24.0160   37.6530 H   0  0  0  0  0  0  0  0  0  0  0  0
   34.8420   24.1960   38.6800 H   0  0  0  0  0  0  0  0  0  0  0  0
   36.4860   26.3700   37.9210 H   0  0  0  0  0  0  0  0  0  0  0  0
   35.3690   26.3000   39.2970 H   0  0  0  0  0  0  0  0  0  0  0  0
   37.5390   27.1000   39.9670 H   0  0  0  0  0  0  0  0  0  0  0  0
   38.2760   25.5360   39.4270 H   0  0  0  0  0  0  0  0  0  0  0  0
   37.6110   27.7530   42.8280 O   0  0  0  0  0  0  0  0  0  0  0  0
   37.9010   29.0210   43.2530 C   0  0  0  0  0  0  0  0  0  0  0  0
   37.0090   29.3920   43.8330 H   0  0  0  0  0  0  0  0  0  0  0  0
   38.7580   29.1820   43.9020 H   0  0  0  0  0  0  0  0  0  0  0  0
   38.0450   30.0220   42.1200 C   0  0  0  0  0  0  0  0  0  0  0  0
   37.3540   30.8690   42.2950 H   0  0  0  0  0  0  0  0  0  0  0  0
   39.0640   30.4300   42.1020 H   0  0  0  0  0  0  0  0  0  0  0  0
   37.7000   29.4540   40.8350 N   0  0  0  0  0  0  0  0  0  0  0  0
   37.5160   28.4310   40.8820 H   0  0  0  0  0  0  0  0  0  0  0  0
   36.2750   30.2860   40.2710 S   0  0  0  0  0  0  0  0  0  0  0  0
   35.5880   31.0010   41.3940 O   0  0  0  0  0  0  0  0  0  0  0  0
   34.5960   31.0890   41.3690 H   0  0  0  0  0  0  0  0  0  0  0  0
   35.3660   29.2530   39.6730 O   0  0  0  0  0  0  0  0  0  0  0  0
   35.1940   29.2320   38.6980 H   0  0  0  0  0  0  0  0  0  0  0  0
   36.6620   31.3730   39.0580 O   0  0  0  0  0  0  0  0  0  0  0  0
   39.0360   30.6980   37.9550 F   0  0  0  0  0  0  0  0  0  0  0  0
   38.9140   31.8330   38.6980 C   0  0  0  0  0  0  0  0  0  0  0  0
   37.7220   32.2380   39.2940 C   0  0  0  0  0  0  0  0  0  0  0  0
   37.6960   33.4060   40.0300 C   0  0  0  0  0  0  0  0  0  0  0  0
   36.7460   33.6600   40.4620 H   0  0  0  0  0  0  0  0  0  0  0  0
   38.8410   34.1650   40.1730 C   0  0  0  0  0  0  0  0  0  0  0  0
   38.7970   35.0730   40.7540 H   0  0  0  0  0  0  0  0  0  0  0  0
   40.0570   33.7960   39.5940 C   0  0  0  0  0  3  0  0  0  0  0  0
   40.0390   32.6240   38.8680 C   0  0  0  0  0  3  0  0  0  0  0  0
  1  6  2  0  0  0  0
  1  2  1  0  0  0  0
  2 26  1  0  0  0  0
  2  3  2  0  0  0  0
  3  4  1  0  0  0  0
  3  7  1  0  0  0  0
  5  8  1  0  0  0  0
  5  4  2  0  0  0  0
  6  5  1  0  0  0  0
  9 15  1  0  0  0  0
  9  1  1  0  0  0  0
 10  9  1  0  0  0  0
 10 16  1  0  0  0  0
 10 17  1  0  0  0  0
 11 10  1  0  0  0  0
 12 21  1  0  0  0  0
 12 13  1  0  0  0  0
 12 11  1  0  0  0  0
 13 23  1  0  0  0  0
 13 14  1  0  0  0  0
 14 24  1  0  0  0  0
 14  9  1  0  0  0  0
 18 11  1  0  0  0  0
 19 11  1  0  0  0  0
 20 12  1  0  0  0  0
 22 13  1  0  0  0  0
 25 14  1  0  0  0  0
 26 27  1  0  0  0  0
 27 28  1  0  0  0  0
 27 29  1  0  0  0  0
 30 31  1  0  0  0  0
 30 27  1  0  0  0  0
 32 30  1  0  0  0  0
 33 34  1  0  0  0  0
 33 30  1  0  0  0  0
 35 33  1  0  0  0  0
 35 36  1  0  0  0  0
 37 36  1  0  0  0  0
 38 35  1  0  0  0  0
 39 38  1  0  0  0  0
 40 43  1  0  0  0  0
 40 35  1  0  0  0  0
 41 42  1  0  0  0  0
 42 49  2  0  0  0  0
 42 43  1  0  0  0  0
 43 44  2  0  0  0  0
 44 46  1  0  0  0  0
 44 45  1  0  0  0  0
 46 47  1  0  0  0  0
 48 46  2  0  0  0  0
 49 48  1  0  0  0  0
M  END
>  <minimizedAffinity>
-6.07987976

$$$$

 OpenBabel03242514213D

 49 51  0  0  0  0  0  0  0  0999 V2000
   40.5270   27.4920   42.5820 C   0  0  0  0  0  0  0  0  0  0  0  0
   41.3760   28.3460   41.9190 C   0  0  0  0  0  0  0  0  0  0  0  0
   42.7170   28.1860   42.1520 C   0  0  0  0  0  0  0  0  0  0  0  0
   43.1440   27.2250   42.9990 N   0  0  0  0  0  0  0  0  0  0  0  0
   42.3210   26.4020   43.6380 C   0  0  0  0  0  0  0  0  0  0  0  0
   41.0280   26.5550   43.4150 N   0  0  0  0  0  0  0  0  0  0  0  0
   43.5400   28.7490   41.7350 H   0  0  0  0  0  0  0  0  0  0  0  0
   42.5610   25.6130   44.3230 H   0  0  0  0  0  0  0  0  0  0  0  0
   39.0940   27.6170   42.2840 C   0  0  0  0  0  0  0  0  0  0  0  0
   38.4250   28.5910   43.2100 C   0  0  0  0  0  0  0  0  0  0  0  0
   37.4140   27.9580   44.0550 C   0  0  0  0  0  0  0  0  0  0  0  0
   36.3780   27.2160   43.2390 C   0  0  0  0  0  0  0  0  0  0  0  0
   36.9550   26.4050   42.1450 C   0  0  0  0  0  0  0  0  0  0  0  0
   38.4580   26.2730   42.2740 C   0  0  0  0  0  0  0  0  0  0  0  0
   38.9850   28.1100   41.2990 H   0  0  0  0  0  0  0  0  0  0  0  0
   37.9750   29.4500   42.6820 H   0  0  0  0  0  0  0  0  0  0  0  0
   39.2100   29.0290   43.8580 H   0  0  0  0  0  0  0  0  0  0  0  0
   37.8720   27.2010   44.7210 H   0  0  0  0  0  0  0  0  0  0  0  0
   36.8670   28.7410   44.6340 H   0  0  0  0  0  0  0  0  0  0  0  0
   35.7890   26.5850   43.9400 H   0  0  0  0  0  0  0  0  0  0  0  0
   35.6750   27.9970   42.8560 H   0  0  0  0  0  0  0  0  0  0  0  0
   36.4820   25.4300   41.9810 H   0  0  0  0  0  0  0  0  0  0  0  0
   36.8030   26.9820   41.1880 H   0  0  0  0  0  0  0  0  0  0  0  0
   38.8120   25.6720   41.4000 H   0  0  0  0  0  0  0  0  0  0  0  0
   38.6280   25.6930   43.2020 H   0  0  0  0  0  0  0  0  0  0  0  0
   41.1510   29.3380   41.0590 O   0  0  0  0  0  0  0  0  0  0  0  0
   41.5540   30.6430   40.9880 C   0  0  0  0  0  0  0  0  0  0  0  0
   41.6030   31.0370   42.0420 H   0  0  0  0  0  0  0  0  0  0  0  0
   42.5180   30.8800   40.5440 H   0  0  0  0  0  0  0  0  0  0  0  0
   40.5480   31.5510   40.3020 C   0  0  0  0  0  0  0  0  0  0  0  0
   41.0780   32.4260   39.8800 H   0  0  0  0  0  0  0  0  0  0  0  0
   40.0700   31.0240   39.4660 H   0  0  0  0  0  0  0  0  0  0  0  0
   39.5520   32.0630   41.2180 N   0  0  0  0  0  0  0  0  0  0  0  0
   39.9510   32.3260   42.1420 H   0  0  0  0  0  0  0  0  0  0  0  0
   38.8330   33.4630   40.4660 S   0  0  0  0  0  0  0  0  0  0  0  0
   39.6400   33.9160   39.2880 O   0  0  0  0  0  0  0  0  0  0  0  0
   39.6690   34.8890   39.0750 H   0  0  0  0  0  0  0  0  0  0  0  0
   38.7700   34.5410   41.5060 O   0  0  0  0  0  0  0  0  0  0  0  0
   37.9000   34.8470   41.8690 H   0  0  0  0  0  0  0  0  0  0  0  0
   37.2620   33.1390   39.9870 O   0  0  0  0  0  0  0  0  0  0  0  0
   37.6660   31.9250   37.6050 F   0  0  0  0  0  0  0  0  0  0  0  0
   37.1200   31.2410   38.6480 C   0  0  0  0  0  0  0  0  0  0  0  0
   36.8860   31.8060   39.9000 C   0  0  0  0  0  0  0  0  0  0  0  0
   36.3270   31.0310   40.8980 C   0  0  0  0  0  0  0  0  0  0  0  0
   36.1730   31.5280   41.8380 H   0  0  0  0  0  0  0  0  0  0  0  0
   36.0060   29.7100   40.6570 C   0  0  0  0  0  0  0  0  0  0  0  0
   35.5700   29.1260   41.4520 H   0  0  0  0  0  0  0  0  0  0  0  0
   36.2230   29.1030   39.4190 C   0  0  0  0  0  3  0  0  0  0  0  0
   36.7820   29.9120   38.4500 C   0  0  0  0  0  3  0  0  0  0  0  0
  1  6  1  0  0  0  0
  2  3  1  0  0  0  0
  2  1  2  0  0  0  0
  3  4  2  0  0  0  0
  4  5  1  0  0  0  0
  5  8  1  0  0  0  0
  6  5  2  0  0  0  0
  7  3  1  0  0  0  0
  9  1  1  0  0  0  0
  9 10  1  0  0  0  0
 10 17  1  0  0  0  0
 10 11  1  0  0  0  0
 11 19  1  0  0  0  0
 11 18  1  0  0  0  0
 12 20  1  0  0  0  0
 12 11  1  0  0  0  0
 13 14  1  0  0  0  0
 13 12  1  0  0  0  0
 14  9  1  0  0  0  0
 14 25  1  0  0  0  0
 15  9  1  0  0  0  0
 16 10  1  0  0  0  0
 21 12  1  0  0  0  0
 22 13  1  0  0  0  0
 23 13  1  0  0  0  0
 24 14  1  0  0  0  0
 26  2  1  0  0  0  0
 27 26  1  0  0  0  0
 27 28  1  0  0  0  0
 29 27  1  0  0  0  0
 30 27  1  0  0  0  0
 30 33  1  0  0  0  0
 31 30  1  0  0  0  0
 32 30  1  0  0  0  0
 33 34  1  0  0  0  0
 35 33  1  0  0  0  0
 35 38  1  0  0  0  0
 36 35  1  0  0  0  0
 37 36  1  0  0  0  0
 38 39  1  0  0  0  0
 40 35  1  0  0  0  0
 41 42  1  0  0  0  0
 42 43  1  0  0  0  0
 43 40  1  0  0  0  0
 43 44  2  0  0  0  0
 44 45  1  0  0  0  0
 46 44  1  0  0  0  0
 46 47  1  0  0  0  0
 48 46  2  0  0  0  0
 49 42  2  0  0  0  0
 49 48  1  0  0  0  0
M  END
>  <minimizedAffinity>
-6.02871609

$$$$

 OpenBabel03242514213D

 49 51  0  0  0  0  0  0  0  0999 V2000
   40.3320   28.9370   42.7180 C   0  0  0  0  0  0  0  0  0  0  0  0
   40.7940   30.1790   42.3520 C   0  0  0  0  0  0  0  0  0  0  0  0
   42.1070   30.4560   42.6340 C   0  0  0  0  0  0  0  0  0  0  0  0
   42.8760   29.5280   43.2420 N   0  0  0  0  0  0  0  0  0  0  0  0
   42.4270   28.3300   43.5940 C   0  0  0  0  0  0  0  0  0  0  0  0
   41.1620   28.0610   43.3240 N   0  0  0  0  0  0  0  0  0  0  0  0
   42.6570   31.3640   42.4310 H   0  0  0  0  0  0  0  0  0  0  0  0
   42.9550   27.5310   44.0760 H   0  0  0  0  0  0  0  0  0  0  0  0
   38.9460   28.6130   42.3580 C   0  0  0  0  0  0  0  0  0  0  0  0
   37.9840   29.0770   43.4130 C   0  0  0  0  0  0  0  0  0  0  0  0
   37.2710   27.9700   44.0500 C   0  0  0  0  0  0  0  0  0  0  0  0
   36.5580   27.0990   43.0380 C   0  0  0  0  0  0  0  0  0  0  0  0
   37.3740   26.7870   41.8460 C   0  0  0  0  0  0  0  0  0  0  0  0
   38.8280   27.1640   42.0430 C   0  0  0  0  0  0  0  0  0  0  0  0
   38.6590   29.2290   41.4860 H   0  0  0  0  0  0  0  0  0  0  0  0
   37.2520   29.8140   43.0380 H   0  0  0  0  0  0  0  0  0  0  0  0
   38.5680   29.6170   44.1850 H   0  0  0  0  0  0  0  0  0  0  0  0
   37.9750   27.3000   44.5820 H   0  0  0  0  0  0  0  0  0  0  0  0
   36.4880   28.3740   44.7350 H   0  0  0  0  0  0  0  0  0  0  0  0
   36.2380   26.1720   43.5610 H   0  0  0  0  0  0  0  0  0  0  0  0
   35.6200   27.6470   42.7720 H   0  0  0  0  0  0  0  0  0  0  0  0
   37.2770   25.7650   41.4620 H   0  0  0  0  0  0  0  0  0  0  0  0
   37.0190   27.4600   41.0130 H   0  0  0  0  0  0  0  0  0  0  0  0
   39.3630   26.9200   41.0920 H   0  0  0  0  0  0  0  0  0  0  0  0
   39.2020   26.5010   42.8470 H   0  0  0  0  0  0  0  0  0  0  0  0
   40.2010   31.2110   41.7540 O   0  0  0  0  0  0  0  0  0  0  0  0
   40.6590   32.3240   41.1050 C   0  0  0  0  0  0  0  0  0  0  0  0
   39.9960   33.1840   41.4040 H   0  0  0  0  0  0  0  0  0  0  0  0
   41.6760   32.6650   41.2830 H   0  0  0  0  0  0  0  0  0  0  0  0
   40.5060   32.2510   39.5950 C   0  0  0  0  0  0  0  0  0  0  0  0
   39.7580   32.9990   39.2700 H   0  0  0  0  0  0  0  0  0  0  0  0
   41.4560   32.5040   39.1050 H   0  0  0  0  0  0  0  0  0  0  0  0
   40.0310   30.9580   39.1510 N   0  0  0  0  0  0  0  0  0  0  0  0
   39.4320   30.4840   39.8570 H   0  0  0  0  0  0  0  0  0  0  0  0
   39.1230   31.2210   37.6850 S   0  0  0  0  0  0  0  0  0  0  0  0
   39.0560   29.9720   36.8610 O   0  0  0  0  0  0  0  0  0  0  0  0
   39.0290   30.0550   35.8690 H   0  0  0  0  0  0  0  0  0  0  0  0
   39.8130   32.3150   36.9260 O   0  0  0  0  0  0  0  0  0  0  0  0
   39.3880   33.2030   36.8170 H   0  0  0  0  0  0  0  0  0  0  0  0
   37.5750   31.7540   38.0330 O   0  0  0  0  0  0  0  0  0  0  0  0
   37.3190   32.1930   40.6890 F   0  0  0  0  0  0  0  0  0  0  0  0
   36.6560   31.1660   40.0890 C   0  0  0  0  0  0  0  0  0  0  0  0
   36.7430   30.8850   38.7270 C   0  0  0  0  0  0  0  0  0  0  0  0
   36.0320   29.8200   38.2090 C   0  0  0  0  0  0  0  0  0  0  0  0
   36.1450   29.6590   37.1530 H   0  0  0  0  0  0  0  0  0  0  0  0
   35.2420   29.0430   39.0320 C   0  0  0  0  0  0  0  0  0  0  0  0
   34.6970   28.2170   38.6050 H   0  0  0  0  0  0  0  0  0  0  0  0
   35.1250   29.2890   40.4020 C   0  0  0  0  0  3  0  0  0  0  0  0
   35.8510   30.3610   40.8780 C   0  0  0  0  0  3  0  0  0  0  0  0
  1  6  1  0  0  0  0
  2  3  1  0  0  0  0
  2  1  2  0  0  0  0
  3  4  2  0  0  0  0
  4  5  1  0  0  0  0
  5  8  1  0  0  0  0
  6  5  2  0  0  0  0
  7  3  1  0  0  0  0
  9  1  1  0  0  0  0
  9 10  1  0  0  0  0
 10 11  1  0  0  0  0
 10 17  1  0  0  0  0
 11 18  1  0  0  0  0
 11 19  1  0  0  0  0
 12 20  1  0  0  0  0
 12 11  1  0  0  0  0
 13 14  1  0  0  0  0
 13 12  1  0  0  0  0
 14  9  1  0  0  0  0
 14 25  1  0  0  0  0
 15  9  1  0  0  0  0
 16 10  1  0  0  0  0
 21 12  1  0  0  0  0
 22 13  1  0  0  0  0
 23 13  1  0  0  0  0
 24 14  1  0  0  0  0
 26  2  1  0  0  0  0
 27 29  1  0  0  0  0
 27 28  1  0  0  0  0
 27 26  1  0  0  0  0
 30 27  1  0  0  0  0
 31 30  1  0  0  0  0
 32 30  1  0  0  0  0
 33 30  1  0  0  0  0
 33 34  1  0  0  0  0
 35 40  1  0  0  0  0
 35 33  1  0  0  0  0
 36 35  1  0  0  0  0
 37 36  1  0  0  0  0
 38 35  1  0  0  0  0
 39 38  1  0  0  0  0
 40 43  1  0  0  0  0
 42 41  1  0  0  0  0
 42 49  1  0  0  0  0
 43 42  2  0  0  0  0
 44 43  1  0  0  0  0
 44 46  2  0  0  0  0
 45 44  1  0  0  0  0
 46 48  1  0  0  0  0
 47 46  1  0  0  0  0
 48 49  2  0  0  0  0
M  END
>  <minimizedAffinity>
-5.99806547

$$$$

 OpenBabel03242514213D

 49 51  0  0  0  0  0  0  0  0999 V2000
   39.3250   27.1880   42.4050 C   0  0  0  0  0  0  0  0  0  0  0  0
   39.8980   28.3970   42.0910 C   0  0  0  0  0  0  0  0  0  0  0  0
   41.0440   28.7310   42.7660 C   0  0  0  0  0  0  0  0  0  0  0  0
   41.5540   27.8860   43.6870 N   0  0  0  0  0  0  0  0  0  0  0  0
   40.9980   26.7190   43.9880 C   0  0  0  0  0  0  0  0  0  0  0  0
   39.8940   26.3960   43.3390 N   0  0  0  0  0  0  0  0  0  0  0  0
   41.6410   29.6270   42.6680 H   0  0  0  0  0  0  0  0  0  0  0  0
   41.3250   25.9840   44.6970 H   0  0  0  0  0  0  0  0  0  0  0  0
   38.1360   26.7980   41.6370 C   0  0  0  0  0  0  0  0  0  0  0  0
   37.1530   26.0530   42.4920 C   0  0  0  0  0  0  0  0  0  0  0  0
   36.9530   24.6750   42.0470 C   0  0  0  0  0  0  0  0  0  0  0  0
   36.5410   24.6040   40.5930 C   0  0  0  0  0  0  0  0  0  0  0  0
   37.3230   25.4960   39.7110 C   0  0  0  0  0  0  0  0  0  0  0  0
   38.5420   26.0560   40.4140 C   0  0  0  0  0  0  0  0  0  0  0  0
   37.5760   27.7140   41.3720 H   0  0  0  0  0  0  0  0  0  0  0  0
   36.1730   26.5590   42.5660 H   0  0  0  0  0  0  0  0  0  0  0  0
   37.5500   26.0410   43.5270 H   0  0  0  0  0  0  0  0  0  0  0  0
   37.8930   24.0940   42.1230 H   0  0  0  0  0  0  0  0  0  0  0  0
   36.1290   24.2060   42.6380 H   0  0  0  0  0  0  0  0  0  0  0  0
   36.6290   23.5430   40.2710 H   0  0  0  0  0  0  0  0  0  0  0  0
   35.4490   24.8460   40.5730 H   0  0  0  0  0  0  0  0  0  0  0  0
   37.5840   25.0810   38.7310 H   0  0  0  0  0  0  0  0  0  0  0  0
   36.6810   26.3990   39.4980 H   0  0  0  0  0  0  0  0  0  0  0  0
   39.0570   26.7340   39.6900 H   0  0  0  0  0  0  0  0  0  0  0  0
   39.1950   25.1850   40.6180 H   0  0  0  0  0  0  0  0  0  0  0  0
   39.5520   29.3510   41.2270 O   0  0  0  0  0  0  0  0  0  0  0  0
   40.1720   29.9340   40.1570 C   0  0  0  0  0  0  0  0  0  0  0  0
   41.2070   29.4950   40.0880 H   0  0  0  0  0  0  0  0  0  0  0  0
   39.7410   29.8220   39.1650 H   0  0  0  0  0  0  0  0  0  0  0  0
   40.4170   31.4230   40.3360 C   0  0  0  0  0  0  0  0  0  0  0  0
   41.4380   31.5770   40.7340 H   0  0  0  0  0  0  0  0  0  0  0  0
   40.3640   31.9350   39.3660 H   0  0  0  0  0  0  0  0  0  0  0  0
   39.5000   32.0230   41.2800 N   0  0  0  0  0  0  0  0  0  0  0  0
   39.9690   32.3330   42.1560 H   0  0  0  0  0  0  0  0  0  0  0  0
   38.7690   33.3930   40.4850 S   0  0  0  0  0  0  0  0  0  0  0  0
   39.5400   33.7820   39.2620 O   0  0  0  0  0  0  0  0  0  0  0  0
   39.5710   34.7430   39.0010 H   0  0  0  0  0  0  0  0  0  0  0  0
   38.7510   34.5210   41.4740 O   0  0  0  0  0  0  0  0  0  0  0  0
   37.8960   34.8520   41.8510 H   0  0  0  0  0  0  0  0  0  0  0  0
   37.1800   33.0630   40.0740 O   0  0  0  0  0  0  0  0  0  0  0  0
   37.4790   31.9430   37.6320 F   0  0  0  0  0  0  0  0  0  0  0  0
   36.9960   31.2130   38.6750 C   0  0  0  0  0  0  0  0  0  0  0  0
   36.8170   31.7290   39.9570 C   0  0  0  0  0  0  0  0  0  0  0  0
   36.3210   30.9100   40.9520 C   0  0  0  0  0  0  0  0  0  0  0  0
   36.2070   31.3700   41.9160 H   0  0  0  0  0  0  0  0  0  0  0  0
   36.0050   29.5940   40.6790 C   0  0  0  0  0  0  0  0  0  0  0  0
   35.6180   28.9740   41.4720 H   0  0  0  0  0  0  0  0  0  0  0  0
   36.1680   29.0360   39.4090 C   0  0  0  0  0  3  0  0  0  0  0  0
   36.6660   29.8880   38.4450 C   0  0  0  0  0  3  0  0  0  0  0  0
  1  6  1  0  0  0  0
  2  1  2  0  0  0  0
  2  3  1  0  0  0  0
  3  4  2  0  0  0  0
  4  5  1  0  0  0  0
  5  8  1  0  0  0  0
  6  5  2  0  0  0  0
  7  3  1  0  0  0  0
  9  1  1  0  0  0  0
  9 10  1  0  0  0  0
 10 16  1  0  0  0  0
 10 17  1  0  0  0  0
 11 18  1  0  0  0  0
 11 10  1  0  0  0  0
 11 19  1  0  0  0  0
 12 11  1  0  0  0  0
 13 14  1  0  0  0  0
 13 12  1  0  0  0  0
 14 25  1  0  0  0  0
 14  9  1  0  0  0  0
 15  9  1  0  0  0  0
 20 12  1  0  0  0  0
 21 12  1  0  0  0  0
 22 13  1  0  0  0  0
 23 13  1  0  0  0  0
 24 14  1  0  0  0  0
 26  2  1  0  0  0  0
 27 30  1  0  0  0  0
 27 26  1  0  0  0  0
 28 27  1  0  0  0  0
 29 27  1  0  0  0  0
 30 31  1  0  0  0  0
 30 33  1  0  0  0  0
 32 30  1  0  0  0  0
 33 34  1  0  0  0  0
 35 33  1  0  0  0  0
 35 38  1  0  0  0  0
 36 35  1  0  0  0  0
 37 36  1  0  0  0  0
 38 39  1  0  0  0  0
 40 35  1  0  0  0  0
 41 42  1  0  0  0  0
 42 43  1  0  0  0  0
 43 40  1  0  0  0  0
 43 44  2  0  0  0  0
 44 45  1  0  0  0  0
 46 44  1  0  0  0  0
 46 47  1  0  0  0  0
 48 46  2  0  0  0  0
 49 42  2  0  0  0  0
 49 48  1  0  0  0  0
M  END
>  <minimizedAffinity>
-5.99165487

$$$$

 OpenBabel03242514213D

 49 51  0  0  0  0  0  0  0  0999 V2000
   39.2270   27.7250   40.3940 C   0  0  0  0  0  0  0  0  0  0  0  0
   39.9880   28.7600   39.9050 C   0  0  0  0  0  0  0  0  0  0  0  0
   40.2050   28.7810   38.5520 C   0  0  0  0  0  0  0  0  0  0  0  0
   39.6810   27.8130   37.7700 N   0  0  0  0  0  0  0  0  0  0  0  0
   38.9460   26.8140   38.2450 C   0  0  0  0  0  0  0  0  0  0  0  0
   38.7360   26.7930   39.5490 N   0  0  0  0  0  0  0  0  0  0  0  0
   40.7710   29.5000   37.9760 H   0  0  0  0  0  0  0  0  0  0  0  0
   38.4880   26.0060   37.7110 H   0  0  0  0  0  0  0  0  0  0  0  0
   38.9370   27.7370   41.8330 C   0  0  0  0  0  0  0  0  0  0  0  0
   38.2740   26.4620   42.2680 C   0  0  0  0  0  0  0  0  0  0  0  0
   36.9170   26.6780   42.7690 C   0  0  0  0  0  0  0  0  0  0  0  0
   36.8820   27.6950   43.8890 C   0  0  0  0  0  0  0  0  0  0  0  0
   37.7090   28.8920   43.6280 C   0  0  0  0  0  0  0  0  0  0  0  0
   38.1650   28.9590   42.1860 C   0  0  0  0  0  0  0  0  0  0  0  0
   39.8960   27.7070   42.3830 H   0  0  0  0  0  0  0  0  0  0  0  0
   38.8580   25.9070   43.0230 H   0  0  0  0  0  0  0  0  0  0  0  0
   38.2280   25.7910   41.3870 H   0  0  0  0  0  0  0  0  0  0  0  0
   36.2610   27.0820   41.9730 H   0  0  0  0  0  0  0  0  0  0  0  0
   36.5170   25.7230   43.1890 H   0  0  0  0  0  0  0  0  0  0  0  0
   35.8180   27.9690   44.0580 H   0  0  0  0  0  0  0  0  0  0  0  0
   37.2130   27.1490   44.8070 H   0  0  0  0  0  0  0  0  0  0  0  0
   37.2740   29.8450   43.9530 H   0  0  0  0  0  0  0  0  0  0  0  0
   38.6610   28.7750   44.2210 H   0  0  0  0  0  0  0  0  0  0  0  0
   38.8000   29.8730   42.0830 H   0  0  0  0  0  0  0  0  0  0  0  0
   37.2440   29.0920   41.5860 H   0  0  0  0  0  0  0  0  0  0  0  0
   40.5820   29.7910   40.5050 O   0  0  0  0  0  0  0  0  0  0  0  0
   41.3910   30.8050   40.0710 C   0  0  0  0  0  0  0  0  0  0  0  0
   42.4150   30.6280   40.5070 H   0  0  0  0  0  0  0  0  0  0  0  0
   41.5480   30.9420   39.0030 H   0  0  0  0  0  0  0  0  0  0  0  0
   40.9940   32.1690   40.6090 C   0  0  0  0  0  0  0  0  0  0  0  0
   41.6520   32.4280   41.4610 H   0  0  0  0  0  0  0  0  0  0  0  0
   41.1400   32.9380   39.8380 H   0  0  0  0  0  0  0  0  0  0  0  0
   39.6340   32.1940   41.1020 N   0  0  0  0  0  0  0  0  0  0  0  0
   39.5820   32.1900   42.1400 H   0  0  0  0  0  0  0  0  0  0  0  0
   38.8880   33.6420   40.4770 S   0  0  0  0  0  0  0  0  0  0  0  0
   39.7050   34.2350   39.3710 O   0  0  0  0  0  0  0  0  0  0  0  0
   39.7090   35.2250   39.2580 H   0  0  0  0  0  0  0  0  0  0  0  0
   38.7710   34.6070   41.6200 O   0  0  0  0  0  0  0  0  0  0  0  0
   37.8840   34.8480   41.9910 H   0  0  0  0  0  0  0  0  0  0  0  0
   37.3380   33.3230   39.9310 O   0  0  0  0  0  0  0  0  0  0  0  0
   36.0330   31.3320   41.2110 F   0  0  0  0  0  0  0  0  0  0  0  0
   36.4670   31.1660   39.9310 C   0  0  0  0  0  0  0  0  0  0  0  0
   37.1450   32.1500   39.2150 C   0  0  0  0  0  0  0  0  0  0  0  0
   37.5470   31.8880   37.9190 C   0  0  0  0  0  0  0  0  0  0  0  0
   38.0640   32.6890   37.4250 H   0  0  0  0  0  0  0  0  0  0  0  0
   37.2780   30.6640   37.3400 C   0  0  0  0  0  0  0  0  0  0  0  0
   37.6030   30.4830   36.3280 H   0  0  0  0  0  0  0  0  0  0  0  0
   36.6020   29.6490   38.0210 C   0  0  0  0  0  3  0  0  0  0  0  0
   36.2180   29.9520   39.3110 C   0  0  0  0  0  3  0  0  0  0  0  0
  1  9  1  0  0  0  0
  2  1  1  0  0  0  0
  2 26  1  0  0  0  0
  3  2  2  0  0  0  0
  4  5  2  0  0  0  0
  4  3  1  0  0  0  0
  5  6  1  0  0  0  0
  6  1  2  0  0  0  0
  7  3  1  0  0  0  0
  8  5  1  0  0  0  0
  9 14  1  0  0  0  0
  9 10  1  0  0  0  0
  9 15  1  0  0  0  0
 10 11  1  0  0  0  0
 10 16  1  0  0  0  0
 11 19  1  0  0  0  0
 11 12  1  0  0  0  0
 12 20  1  0  0  0  0
 12 21  1  0  0  0  0
 13 12  1  0  0  0  0
 13 22  1  0  0  0  0
 13 23  1  0  0  0  0
 14 13  1  0  0  0  0
 17 10  1  0  0  0  0
 18 11  1  0  0  0  0
 24 14  1  0  0  0  0
 25 14  1  0  0  0  0
 27 26  1  0  0  0  0
 27 28  1  0  0  0  0
 27 30  1  0  0  0  0
 29 27  1  0  0  0  0
 30 33  1  0  0  0  0
 30 31  1  0  0  0  0
 32 30  1  0  0  0  0
 33 34  1  0  0  0  0
 35 33  1  0  0  0  0
 35 38  1  0  0  0  0
 36 35  1  0  0  0  0
 37 36  1  0  0  0  0
 38 39  1  0  0  0  0
 40 35  1  0  0  0  0
 42 41  1  0  0  0  0
 43 42  2  0  0  0  0
 43 40  1  0  0  0  0
 44 43  1  0  0  0  0
 45 44  1  0  0  0  0
 46 44  2  0  0  0  0
 46 48  1  0  0  0  0
 47 46  1  0  0  0  0
 48 49  2  0  0  0  0
 49 42  1  0  0  0  0
M  END
>  <minimizedAffinity>
-5.91654491

$$$$

 OpenBabel03242514213D

 49 51  0  0  0  0  0  0  0  0999 V2000
   38.5770   26.1240   40.3880 C   0  0  0  0  0  0  0  0  0  0  0  0
   39.0610   26.6430   39.2110 C   0  0  0  0  0  0  0  0  0  0  0  0
   39.6470   25.7590   38.3420 C   0  0  0  0  0  0  0  0  0  0  0  0
   39.7250   24.4500   38.6630 N   0  0  0  0  0  0  0  0  0  0  0  0
   39.2560   23.9520   39.8010 C   0  0  0  0  0  0  0  0  0  0  0  0
   38.6910   24.8020   40.6390 N   0  0  0  0  0  0  0  0  0  0  0  0
   40.0850   25.9630   37.3760 H   0  0  0  0  0  0  0  0  0  0  0  0
   39.2680   22.9360   40.1430 H   0  0  0  0  0  0  0  0  0  0  0  0
   37.8900   27.0560   41.2910 C   0  0  0  0  0  0  0  0  0  0  0  0
   38.8650   27.9520   41.9980 C   0  0  0  0  0  0  0  0  0  0  0  0
   38.8660   27.7490   43.4460 C   0  0  0  0  0  0  0  0  0  0  0  0
   37.4840   27.9080   44.0410 C   0  0  0  0  0  0  0  0  0  0  0  0
   36.4230   27.2370   43.2610 C   0  0  0  0  0  0  0  0  0  0  0  0
   36.9960   26.3060   42.2130 C   0  0  0  0  0  0  0  0  0  0  0  0
   37.3090   27.7710   40.6780 H   0  0  0  0  0  0  0  0  0  0  0  0
   38.7060   29.0230   41.7790 H   0  0  0  0  0  0  0  0  0  0  0  0
   39.8760   27.7240   41.6030 H   0  0  0  0  0  0  0  0  0  0  0  0
   39.1890   26.7210   43.7010 H   0  0  0  0  0  0  0  0  0  0  0  0
   39.5160   28.5180   43.9310 H   0  0  0  0  0  0  0  0  0  0  0  0
   37.5220   27.5230   45.0830 H   0  0  0  0  0  0  0  0  0  0  0  0
   37.3120   29.0100   44.1210 H   0  0  0  0  0  0  0  0  0  0  0  0
   35.6450   26.7400   43.8530 H   0  0  0  0  0  0  0  0  0  0  0  0
   35.8900   28.0350   42.6680 H   0  0  0  0  0  0  0  0  0  0  0  0
   36.1330   25.8640   41.6570 H   0  0  0  0  0  0  0  0  0  0  0  0
   37.5110   25.5030   42.7760 H   0  0  0  0  0  0  0  0  0  0  0  0
   39.0770   27.8820   38.7220 O   0  0  0  0  0  0  0  0  0  0  0  0
   39.4890   28.4310   37.5390 C   0  0  0  0  0  0  0  0  0  0  0  0
   40.2190   27.7120   37.0710 H   0  0  0  0  0  0  0  0  0  0  0  0
   38.7550   28.6460   36.7660 H   0  0  0  0  0  0  0  0  0  0  0  0
   40.2930   29.7090   37.7120 C   0  0  0  0  0  0  0  0  0  0  0  0
   41.3320   29.4480   37.9920 H   0  0  0  0  0  0  0  0  0  0  0  0
   40.3380   30.2600   36.7630 H   0  0  0  0  0  0  0  0  0  0  0  0
   39.7710   30.5510   38.7660 N   0  0  0  0  0  0  0  0  0  0  0  0
   40.4730   30.7530   39.5070 H   0  0  0  0  0  0  0  0  0  0  0  0
   39.2520   32.0420   38.0230 S   0  0  0  0  0  0  0  0  0  0  0  0
   39.7570   32.1470   36.6170 O   0  0  0  0  0  0  0  0  0  0  0  0
   39.9750   33.0490   36.2530 H   0  0  0  0  0  0  0  0  0  0  0  0
   39.7900   33.1640   38.8600 O   0  0  0  0  0  0  0  0  0  0  0  0
   39.1810   33.7390   39.3890 H   0  0  0  0  0  0  0  0  0  0  0  0
   37.5830   32.1630   38.0370 O   0  0  0  0  0  0  0  0  0  0  0  0
   37.3030   32.6790   40.6760 F   0  0  0  0  0  0  0  0  0  0  0  0
   36.7750   31.5480   40.1300 C   0  0  0  0  0  0  0  0  0  0  0  0
   36.8830   31.2230   38.7800 C   0  0  0  0  0  0  0  0  0  0  0  0
   36.3130   30.0520   38.3190 C   0  0  0  0  0  0  0  0  0  0  0  0
   36.4340   29.8620   37.2690 H   0  0  0  0  0  0  0  0  0  0  0  0
   35.6430   29.2140   39.1870 C   0  0  0  0  0  0  0  0  0  0  0  0
   35.2080   28.3050   38.8040 H   0  0  0  0  0  0  0  0  0  0  0  0
   35.5110   29.5000   40.5480 C   0  0  0  0  0  3  0  0  0  0  0  0
   36.0940   30.6790   40.9670 C   0  0  0  0  0  3  0  0  0  0  0  0
  1  6  1  0  0  0  0
  1  9  1  0  0  0  0
  2  1  2  0  0  0  0
  3  4  2  0  0  0  0
  3  2  1  0  0  0  0
  4  5  1  0  0  0  0
  5  8  1  0  0  0  0
  5  6  2  0  0  0  0
  7  3  1  0  0  0  0
  9 10  1  0  0  0  0
  9 14  1  0  0  0  0
 10 11  1  0  0  0  0
 11 18  1  0  0  0  0
 11 19  1  0  0  0  0
 11 12  1  0  0  0  0
 12 21  1  0  0  0  0
 12 20  1  0  0  0  0
 13 22  1  0  0  0  0
 13 12  1  0  0  0  0
 14 25  1  0  0  0  0
 14 13  1  0  0  0  0
 15  9  1  0  0  0  0
 16 10  1  0  0  0  0
 17 10  1  0  0  0  0
 23 13  1  0  0  0  0
 24 14  1  0  0  0  0
 26  2  1  0  0  0  0
 27 30  1  0  0  0  0
 27 26  1  0  0  0  0
 28 27  1  0  0  0  0
 29 27  1  0  0  0  0
 30 31  1  0  0  0  0
 30 33  1  0  0  0  0
 32 30  1  0  0  0  0
 33 34  1  0  0  0  0
 35 40  1  0  0  0  0
 35 33  1  0  0  0  0
 35 38  1  0  0  0  0
 36 35  1  0  0  0  0
 37 36  1  0  0  0  0
 38 39  1  0  0  0  0
 40 43  1  0  0  0  0
 42 41  1  0  0  0  0
 42 49  1  0  0  0  0
 43 42  2  0  0  0  0
 44 43  1  0  0  0  0
 44 46  2  0  0  0  0
 45 44  1  0  0  0  0
 46 48  1  0  0  0  0
 47 46  1  0  0  0  0
 48 49  2  0  0  0  0
M  END
>  <minimizedAffinity>
-5.86002731

$$$$

 OpenBabel03242514213D

 49 51  0  0  0  0  0  0  0  0999 V2000
   38.0230   27.1980   41.6410 C   0  0  0  0  0  0  0  0  0  0  0  0
   38.7040   28.3620   41.3750 C   0  0  0  0  0  0  0  0  0  0  0  0
   38.6770   29.3280   42.3480 C   0  0  0  0  0  0  0  0  0  0  0  0
   38.0030   29.1080   43.4980 N   0  0  0  0  0  0  0  0  0  0  0  0
   37.3470   27.9810   43.7510 C   0  0  0  0  0  0  0  0  0  0  0  0
   37.3720   27.0500   42.8140 N   0  0  0  0  0  0  0  0  0  0  0  0
   39.1410   30.3030   42.3350 H   0  0  0  0  0  0  0  0  0  0  0  0
   36.7890   27.7130   44.6260 H   0  0  0  0  0  0  0  0  0  0  0  0
   38.1060   26.1360   40.6290 C   0  0  0  0  0  0  0  0  0  0  0  0
   36.7480   25.5860   40.3010 C   0  0  0  0  0  0  0  0  0  0  0  0
   36.6110   24.1770   40.6640 C   0  0  0  0  0  0  0  0  0  0  0  0
   37.6880   23.3220   40.0330 C   0  0  0  0  0  0  0  0  0  0  0  0
   39.0390   23.9160   40.1140 C   0  0  0  0  0  0  0  0  0  0  0  0
   39.0790   25.0980   41.0610 C   0  0  0  0  0  0  0  0  0  0  0  0
   38.4180   26.5920   39.6710 H   0  0  0  0  0  0  0  0  0  0  0  0
   36.4730   25.7190   39.2390 H   0  0  0  0  0  0  0  0  0  0  0  0
   36.0020   26.1770   40.8690 H   0  0  0  0  0  0  0  0  0  0  0  0
   36.7160   24.0380   41.7580 H   0  0  0  0  0  0  0  0  0  0  0  0
   35.6320   23.7880   40.2910 H   0  0  0  0  0  0  0  0  0  0  0  0
   37.6560   22.3260   40.5260 H   0  0  0  0  0  0  0  0  0  0  0  0
   37.3650   23.1570   38.9750 H   0  0  0  0  0  0  0  0  0  0  0  0
   39.8520   23.2110   40.3230 H   0  0  0  0  0  0  0  0  0  0  0  0
   39.2700   24.3570   39.1020 H   0  0  0  0  0  0  0  0  0  0  0  0
   40.1230   25.4990   41.0420 H   0  0  0  0  0  0  0  0  0  0  0  0
   38.8710   24.6820   42.0660 H   0  0  0  0  0  0  0  0  0  0  0  0
   39.4150   28.7600   40.3210 O   0  0  0  0  0  0  0  0  0  0  0  0
   40.7490   28.9610   40.0950 C   0  0  0  0  0  0  0  0  0  0  0  0
   41.2060   29.3000   41.0680 H   0  0  0  0  0  0  0  0  0  0  0  0
   41.3630   28.1300   39.7570 H   0  0  0  0  0  0  0  0  0  0  0  0
   41.0350   30.1050   39.1370 C   0  0  0  0  0  0  0  0  0  0  0  0
   42.0270   30.5350   39.3730 H   0  0  0  0  0  0  0  0  0  0  0  0
   41.0760   29.7320   38.1040 H   0  0  0  0  0  0  0  0  0  0  0  0
   40.0700   31.1770   39.2530 N   0  0  0  0  0  0  0  0  0  0  0  0
   40.5130   32.0970   39.4500 H   0  0  0  0  0  0  0  0  0  0  0  0
   39.2000   31.2510   37.7430 S   0  0  0  0  0  0  0  0  0  0  0  0
   39.2510   29.9360   37.0270 O   0  0  0  0  0  0  0  0  0  0  0  0
   39.2540   29.9350   36.0310 H   0  0  0  0  0  0  0  0  0  0  0  0
   39.8400   32.3250   36.9160 O   0  0  0  0  0  0  0  0  0  0  0  0
   39.3590   33.1690   36.7180 H   0  0  0  0  0  0  0  0  0  0  0  0
   37.6070   31.6980   37.9970 O   0  0  0  0  0  0  0  0  0  0  0  0
   37.0450   32.2990   40.5720 F   0  0  0  0  0  0  0  0  0  0  0  0
   36.5450   31.1700   39.9990 C   0  0  0  0  0  0  0  0  0  0  0  0
   36.7960   30.8010   38.6790 C   0  0  0  0  0  0  0  0  0  0  0  0
   36.2440   29.6350   38.1860 C   0  0  0  0  0  0  0  0  0  0  0  0
   36.4770   29.4110   37.1620 H   0  0  0  0  0  0  0  0  0  0  0  0
   35.4520   28.8430   38.9930 C   0  0  0  0  0  0  0  0  0  0  0  0
   35.0320   27.9370   38.5860 H   0  0  0  0  0  0  0  0  0  0  0  0
   35.1740   29.1740   40.3210 C   0  0  0  0  0  3  0  0  0  0  0  0
   35.7440   30.3460   40.7740 C   0  0  0  0  0  3  0  0  0  0  0  0
  1  6  1  0  0  0  0
  2  1  2  0  0  0  0
  2  3  1  0  0  0  0
  3  4  2  0  0  0  0
  4  5  1  0  0  0  0
  5  8  1  0  0  0  0
  6  5  2  0  0  0  0
  7  3  1  0  0  0  0
  9 14  1  0  0  0  0
  9  1  1  0  0  0  0
 10  9  1  0  0  0  0
 10 11  1  0  0  0  0
 10 17  1  0  0  0  0
 11 18  1  0  0  0  0
 12 13  1  0  0  0  0
 12 20  1  0  0  0  0
 12 11  1  0  0  0  0
 13 22  1  0  0  0  0
 13 14  1  0  0  0  0
 14 25  1  0  0  0  0
 15  9  1  0  0  0  0
 16 10  1  0  0  0  0
 19 11  1  0  0  0  0
 21 12  1  0  0  0  0
 23 13  1  0  0  0  0
 24 14  1  0  0  0  0
 26  2  1  0  0  0  0
 27 26  1  0  0  0  0
 27 28  1  0  0  0  0
 29 27  1  0  0  0  0
 30 33  1  0  0  0  0
 30 31  1  0  0  0  0
 30 27  1  0  0  0  0
 32 30  1  0  0  0  0
 33 34  1  0  0  0  0
 35 40  1  0  0  0  0
 35 33  1  0  0  0  0
 36 35  1  0  0  0  0
 37 36  1  0  0  0  0
 38 35  1  0  0  0  0
 39 38  1  0  0  0  0
 40 43  1  0  0  0  0
 42 41  1  0  0  0  0
 42 49  1  0  0  0  0
 43 42  2  0  0  0  0
 44 43  1  0  0  0  0
 44 46  2  0  0  0  0
 45 44  1  0  0  0  0
 46 48  1  0  0  0  0
 47 46  1  0  0  0  0
 48 49  2  0  0  0  0
M  END
>  <minimizedAffinity>
-5.73550797

$$$$

 OpenBabel03242514213D

 49 51  0  0  0  0  0  0  0  0999 V2000
   41.6800   31.2350   39.5170 C   0  0  0  0  0  0  0  0  0  0  0  0
   41.1920   32.4490   39.0960 C   0  0  0  0  0  0  0  0  0  0  0  0
   41.3220   32.7370   37.7620 C   0  0  0  0  0  0  0  0  0  0  0  0
   41.9070   31.8450   36.9330 N   0  0  0  0  0  0  0  0  0  0  0  0
   42.3770   30.6730   37.3440 C   0  0  0  0  0  0  0  0  0  0  0  0
   42.2530   30.3950   38.6290 N   0  0  0  0  0  0  0  0  0  0  0  0
   41.0080   33.6280   37.2360 H   0  0  0  0  0  0  0  0  0  0  0  0
   42.8530   29.9040   36.7680 H   0  0  0  0  0  0  0  0  0  0  0  0
   41.4820   30.8950   40.9310 C   0  0  0  0  0  0  0  0  0  0  0  0
   42.5370   31.5220   41.7970 C   0  0  0  0  0  0  0  0  0  0  0  0
   43.3770   30.5300   42.4660 C   0  0  0  0  0  0  0  0  0  0  0  0
   42.5580   29.5440   43.2710 C   0  0  0  0  0  0  0  0  0  0  0  0
   41.3590   29.0520   42.5600 C   0  0  0  0  0  0  0  0  0  0  0  0
   41.3830   29.4200   41.0910 C   0  0  0  0  0  0  0  0  0  0  0  0
   40.5580   31.3910   41.2830 H   0  0  0  0  0  0  0  0  0  0  0  0
   42.1220   32.2170   42.5490 H   0  0  0  0  0  0  0  0  0  0  0  0
   43.1750   32.1510   41.1440 H   0  0  0  0  0  0  0  0  0  0  0  0
   43.9390   29.9250   41.7280 H   0  0  0  0  0  0  0  0  0  0  0  0
   44.0610   31.0430   43.1850 H   0  0  0  0  0  0  0  0  0  0  0  0
   43.2300   28.7060   43.5560 H   0  0  0  0  0  0  0  0  0  0  0  0
   42.2950   30.0710   44.2210 H   0  0  0  0  0  0  0  0  0  0  0  0
   41.1310   27.9890   42.7010 H   0  0  0  0  0  0  0  0  0  0  0  0
   40.4720   29.6110   42.9770 H   0  0  0  0  0  0  0  0  0  0  0  0
   40.4350   29.0340   40.6400 H   0  0  0  0  0  0  0  0  0  0  0  0
   42.2390   28.8660   40.6590 H   0  0  0  0  0  0  0  0  0  0  0  0
   40.5930   33.4440   39.7480 O   0  0  0  0  0  0  0  0  0  0  0  0
   39.4000   33.5670   40.4060 C   0  0  0  0  0  0  0  0  0  0  0  0
   39.4290   32.8650   41.2870 H   0  0  0  0  0  0  0  0  0  0  0  0
   39.1120   34.5340   40.8120 H   0  0  0  0  0  0  0  0  0  0  0  0
   38.2080   33.0880   39.5940 C   0  0  0  0  0  0  0  0  0  0  0  0
   37.9630   33.8490   38.8280 H   0  0  0  0  0  0  0  0  0  0  0  0
   38.4600   32.1590   39.0640 H   0  0  0  0  0  0  0  0  0  0  0  0
   37.0240   32.9070   40.4050 N   0  0  0  0  0  0  0  0  0  0  0  0
   36.2060   33.4410   40.0470 H   0  0  0  0  0  0  0  0  0  0  0  0
   36.6610   31.2010   40.4100 S   0  0  0  0  0  0  0  0  0  0  0  0
   36.2550   30.7320   39.0470 O   0  0  0  0  0  0  0  0  0  0  0  0
   35.5900   29.9940   38.9750 H   0  0  0  0  0  0  0  0  0  0  0  0
   35.5480   30.9890   41.3930 O   0  0  0  0  0  0  0  0  0  0  0  0
   35.7050   30.5020   42.2410 H   0  0  0  0  0  0  0  0  0  0  0  0
   37.9760   30.3150   40.9470 O   0  0  0  0  0  0  0  0  0  0  0  0
   37.4800   28.0190   39.6100 F   0  0  0  0  0  0  0  0  0  0  0  0
   37.4670   28.0450   40.9720 C   0  0  0  0  0  0  0  0  0  0  0  0
   37.7140   29.1930   41.7210 C   0  0  0  0  0  0  0  0  0  0  0  0
   37.6800   29.1220   43.1000 C   0  0  0  0  0  0  0  0  0  0  0  0
   37.8790   30.0430   43.6150 H   0  0  0  0  0  0  0  0  0  0  0  0
   37.4040   27.9250   43.7290 C   0  0  0  0  0  0  0  0  0  0  0  0
   37.3820   27.8940   44.8070 H   0  0  0  0  0  0  0  0  0  0  0  0
   37.1510   26.7490   43.0180 C   0  0  0  0  0  3  0  0  0  0  0  0
   37.1950   26.8650   41.6440 C   0  0  0  0  0  3  0  0  0  0  0  0
  1  9  1  0  0  0  0
  2  1  1  0  0  0  0
  2 26  1  0  0  0  0
  3  2  2  0  0  0  0
  4  5  2  0  0  0  0
  4  3  1  0  0  0  0
  5  6  1  0  0  0  0
  6  1  2  0  0  0  0
  7  3  1  0  0  0  0
  8  5  1  0  0  0  0
  9 14  1  0  0  0  0
  9 15  1  0  0  0  0
  9 10  1  0  0  0  0
 10 11  1  0  0  0  0
 10 16  1  0  0  0  0
 11 19  1  0  0  0  0
 11 12  1  0  0  0  0
 12 20  1  0  0  0  0
 12 21  1  0  0  0  0
 13 22  1  0  0  0  0
 13 23  1  0  0  0  0
 13 12  1  0  0  0  0
 14 13  1  0  0  0  0
 17 10  1  0  0  0  0
 18 11  1  0  0  0  0
 24 14  1  0  0  0  0
 25 14  1  0  0  0  0
 26 27  1  0  0  0  0
 27 29  1  0  0  0  0
 27 28  1  0  0  0  0
 30 33  1  0  0  0  0
 30 27  1  0  0  0  0
 31 30  1  0  0  0  0
 32 30  1  0  0  0  0
 33 35  1  0  0  0  0
 34 33  1  0  0  0  0
 35 40  1  0  0  0  0
 35 38  1  0  0  0  0
 36 35  1  0  0  0  0
 37 36  1  0  0  0  0
 38 39  1  0  0  0  0
 40 43  1  0  0  0  0
 41 42  1  0  0  0  0
 42 49  2  0  0  0  0
 42 43  1  0  0  0  0
 43 44  2  0  0  0  0
 44 45  1  0  0  0  0
 44 46  1  0  0  0  0
 46 47  1  0  0  0  0
 48 46  2  0  0  0  0
 49 48  1  0  0  0  0
M  END
>  <minimizedAffinity>
-5.71365929

$$$$
