REMARK  Name = 
REMARK  7 active torsions:
REMARK  status: ('A' for Active; 'I' for Inactive)
REMARK    1  A    between atoms: C_2  and  O_17
REMARK    2  A    between atoms: C_3  and  C_7
REMARK    3  A    between atoms: O_17  and  P_19
REMARK    4  A    between atoms: P_19  and  O_20
REMARK    5  A    between atoms: P_19  and  O_21
REMARK    6  A    between atoms: O_20  and  C_38
REMARK    7  A    between atoms: O_21  and  C_22
REMARK                            x       y       z     vdW  Elec       q    Type
REMARK                         _______ _______ _______ _____ _____    ______ ____
ROOT
ATOM      1  C   UNL     1      45.132  36.015  42.917  0.00  0.00    +0.000 A 
ATOM      2  C   UNL     1      45.371  34.648  42.908  0.00  0.00    +0.000 A 
ATOM      3  C   UNL     1      45.214  33.921  44.062  0.00  0.00    +0.000 A 
ATOM      4  N   UNL     1      44.813  34.611  45.192  0.00  0.00    +0.000 NA
ATOM      5  C   UNL     1      44.586  35.922  45.189  0.00  0.00    +0.000 A 
ATOM      6  N   UNL     1      44.750  36.614  44.040  0.00  0.00    +0.000 NA
ATOM      7  H   UNL     1      45.251  36.612  42.014  0.00  0.00    +0.000 HD
ATOM      8  H   UNL     1      44.273  36.395  46.118  0.00  0.00    +0.000 HD
ENDROOT
BRANCH   3   9
ATOM      9  C   UNL     1      45.418  32.531  44.220  0.00  0.00    +0.000 A 
ATOM     10  C   UNL     1      44.940  31.564  43.330  0.00  0.00    +0.000 A 
ATOM     11  C   UNL     1      45.080  30.211  43.516  0.00  0.00    +0.000 A 
ATOM     12  C   UNL     1      45.729  29.735  44.643  0.00  0.00    +0.000 A 
ATOM     13  C   UNL     1      46.220  30.707  45.551  0.00  0.00    +0.000 A 
ATOM     14  C   UNL     1      46.864  30.249  46.674  0.00  0.00    +0.000 A 
ATOM     15  C   UNL     1      47.371  31.136  47.605  0.00  0.00    +0.000 A 
ATOM     16  C   UNL     1      47.223  32.511  47.391  0.00  0.00    +0.000 A 
ATOM     17  C   UNL     1      46.555  32.937  46.226  0.00  0.00    +0.000 A 
ATOM     18  C   UNL     1      46.060  32.034  45.325  0.00  0.00    +0.000 A 
ATOM     19  H   UNL     1      44.430  31.942  42.446  0.00  0.00    +0.000 HD
ATOM     20  H   UNL     1      44.672  29.546  42.764  0.00  0.00    +0.000 HD
ATOM     21  H   UNL     1      45.838  28.688  44.791  0.00  0.00    +0.000 HD
ATOM     22  H   UNL     1      46.968  29.174  46.817  0.00  0.00    +0.000 HD
ATOM     23  H   UNL     1      47.858  30.697  48.452  0.00  0.00    +0.000 HD
ATOM     24  H   UNL     1      47.650  33.129  48.166  0.00  0.00    +0.000 HD
ATOM     25  H   UNL     1      46.566  34.005  46.235  0.00  0.00    +0.000 HD
ENDBRANCH   3   9
BRANCH   2  26
ATOM     26  O   UNL     1      45.756  34.092  41.727  0.00  0.00    +0.000 OA
BRANCH  26  28
ATOM     27  O   UNL     1      47.685  32.424  41.091  0.00  0.00    +0.000 OA
ATOM     28  P   UNL     1      47.363  33.880  41.237  0.00  0.00    +0.000 P 
BRANCH  28  29
ATOM     29  O   UNL     1      47.665  34.612  39.750  0.00  0.00    +0.000 OA
BRANCH  29  32
ATOM     30  F   UNL     1      44.857  34.217  39.562  0.00  0.00    +0.000 F 
ATOM     31  C   UNL     1      45.595  34.028  38.445  0.00  0.00    +0.000 A 
ATOM     32  C   UNL     1      46.938  34.242  38.638  0.00  0.00    +0.000 A 
ATOM     33  C   UNL     1      47.786  34.070  37.539  0.00  0.00    +0.000 A 
ATOM     34  H   UNL     1      48.880  34.202  37.527  0.00  0.00    +0.000 HD
ATOM     35  C   UNL     1      47.300  33.697  36.294  0.00  0.00    +0.000 A 
ATOM     36  H   UNL     1      47.922  33.554  35.424  0.00  0.00    +0.000 HD
ATOM     37  C   UNL     1      45.950  33.485  36.115  0.00  0.00    +0.000 A 
ATOM     38  C   UNL     1      45.121  33.657  37.204  0.00  0.00    +0.000 A 
ENDBRANCH  29  32
ENDBRANCH  28  29
BRANCH  28  39
ATOM     39  O   UNL     1      48.358  34.593  42.388  0.00  0.00    +0.000 OA
BRANCH  39  40
ATOM     40  C   UNL     1      49.533  35.290  42.148  0.00  0.00    +0.000 C 
ATOM     41  O   UNL     1      49.200  36.205  41.369  0.00  0.00    +0.000 OA
ATOM     42  N   UNL     1      50.636  34.706  42.865  0.00  0.00    +0.000 N 
ATOM     43  H   UNL     1      51.460  34.179  42.478  0.00  0.00    +0.000 HD
ATOM     44  H   UNL     1      50.591  34.835  43.906  0.00  0.00    +0.000 HD
ENDBRANCH  39  40
ENDBRANCH  28  39
ENDBRANCH  26  28
ENDBRANCH   2  26
TORSDOF 7
