
 OpenBabel03252508073D

 44 47  0  0  0  0  0  0  0  0999 V2000
   45.1700   35.4610   43.1700 C   0  0  0  0  0  0  0  0  0  0  0  0
   45.5620   34.1330   43.2550 C   0  0  0  0  0  0  0  0  0  0  0  0
   45.4890   33.4760   44.4590 C   0  0  0  0  0  0  0  0  0  0  0  0
   45.0120   34.1950   45.5410 N   0  0  0  0  0  0  0  0  0  0  0  0
   44.6380   35.4680   45.4480 C   0  0  0  0  0  0  0  0  0  0  0  0
   44.7230   36.0910   44.2510 N   0  0  0  0  0  0  0  0  0  0  0  0
   45.2210   36.0030   42.2270 H   0  0  0  0  0  0  0  0  0  0  0  0
   44.2740   35.9670   46.3430 H   0  0  0  0  0  0  0  0  0  0  0  0
   45.8480   32.1330   44.7130 C   0  0  0  0  0  0  0  0  0  0  0  0
   45.5380   31.0660   43.8630 C   0  0  0  0  0  0  0  0  0  0  0  0
   45.8280   29.7530   44.1400 C   0  0  0  0  0  0  0  0  0  0  0  0
   46.4680   29.4240   45.3230 C   0  0  0  0  0  0  0  0  0  0  0  0
   46.7900   30.4980   46.1900 C   0  0  0  0  0  0  0  0  0  0  0  0
   47.4230   30.1860   47.3680 C   0  0  0  0  0  0  0  0  0  0  0  0
   47.7700   31.1800   48.2650 C   0  0  0  0  0  0  0  0  0  0  0  0
   47.4700   32.5120   47.9590 C   0  0  0  0  0  0  0  0  0  0  0  0
   46.8200   32.7870   46.7400 C   0  0  0  0  0  0  0  0  0  0  0  0
   46.4850   31.7810   45.8750 C   0  0  0  0  0  0  0  0  0  0  0  0
   45.0340   31.3280   42.9350 H   0  0  0  0  0  0  0  0  0  0  0  0
   45.5430   29.0020   43.4120 H   0  0  0  0  0  0  0  0  0  0  0  0
   46.6930   28.4080   45.5410 H   0  0  0  0  0  0  0  0  0  0  0  0
   47.6470   29.1420   47.5830 H   0  0  0  0  0  0  0  0  0  0  0  0
   48.2600   30.8520   49.1590 H   0  0  0  0  0  0  0  0  0  0  0  0
   47.7780   33.2200   48.7130 H   0  0  0  0  0  0  0  0  0  0  0  0
   46.7020   33.8470   46.6830 H   0  0  0  0  0  0  0  0  0  0  0  0
   46.0080   33.5420   42.1130 O   0  0  0  0  0  0  0  0  0  0  0  0
   48.2250   32.4200   41.2580 O   0  0  0  0  0  0  0  0  0  0  0  0
   47.5570   33.7450   41.4600 P   0  0  1  0  0  0  0  0  0  0  0  0
   47.5070   34.5160   39.9630 O   0  0  0  0  0  0  0  0  0  0  0  0
   49.0220   34.5730   37.5580 F   0  0  0  0  0  0  0  0  0  0  0  0
   47.9620   33.7350   37.6140 C   0  0  0  0  0  0  0  0  0  0  0  0
   47.2950   33.7820   38.8150 C   0  0  0  0  0  0  0  0  0  0  0  0
   46.1810   32.9510   38.9690 C   0  0  0  0  0  0  0  0  0  0  0  0
   45.5430   32.8680   39.8630 H   0  0  0  0  0  0  0  0  0  0  0  0
   45.7550   32.1070   37.9540 C   0  0  0  0  0  0  0  0  0  0  0  0
   44.9010   31.4510   38.0360 H   0  0  0  0  0  0  0  0  0  0  0  0
   46.4340   32.0700   36.7550 C   0  0  0  0  0  3  0  0  0  0  0  0
   47.5310   32.8940   36.6110 C   0  0  0  0  0  3  0  0  0  0  0  0
   48.4470   34.7020   42.5170 O   0  0  0  0  0  0  0  0  0  0  0  0
   49.6620   35.3160   42.2520 C   0  0  0  0  0  0  0  0  0  0  0  0
   49.3560   36.3830   41.6840 O   0  0  0  0  0  0  0  0  0  0  0  0
   50.7600   34.5120   42.7200 N   0  0  0  0  0  0  0  0  0  0  0  0
   51.4730   33.9870   42.1510 H   0  0  0  0  0  0  0  0  0  0  0  0
   50.8410   34.4560   43.7650 H   0  0  0  0  0  0  0  0  0  0  0  0
  1  2  2  0  0  0  0
  1  6  1  0  0  0  0
  2  3  1  0  0  0  0
  3  9  1  0  0  0  0
  3  4  2  0  0  0  0
  5  4  1  0  0  0  0
  5  8  1  0  0  0  0
  6  5  2  0  0  0  0
  7  1  1  0  0  0  0
  9 18  1  0  0  0  0
 10 11  1  0  0  0  0
 10  9  2  0  0  0  0
 11 12  2  0  0  0  0
 12 21  1  0  0  0  0
 12 13  1  0  0  0  0
 13 14  1  0  0  0  0
 14 22  1  0  0  0  0
 14 15  2  0  0  0  0
 15 23  1  0  0  0  0
 16 15  1  0  0  0  0
 16 24  1  0  0  0  0
 17 16  2  0  0  0  0
 18 13  2  0  0  0  0
 18 17  1  0  0  0  0
 19 10  1  0  0  0  0
 20 11  1  0  0  0  0
 25 17  1  0  0  0  0
 26  2  1  0  0  0  0
 28 27  2  6  0  0  0
 28 26  1  0  0  0  0
 28 39  1  0  0  0  0
 29 28  1  0  0  0  0
 30 31  1  0  0  0  0
 31 32  1  0  0  0  0
 32 33  2  0  0  0  0
 32 29  1  0  0  0  0
 33 34  1  0  0  0  0
 35 36  1  0  0  0  0
 35 33  1  0  0  0  0
 37 35  2  0  0  0  0
 38 37  1  0  0  0  0
 38 31  2  0  0  0  0
 40 39  1  0  0  0  0
 40 42  1  0  0  0  0
 41 40  2  0  0  0  0
 42 44  1  0  0  0  0
 43 42  1  0  0  0  0
M  END
>  <minimizedAffinity>
-6.46495819

>  <minimizedRMSD>
0.896210074

$$$$
