
     RDKit          3D

 33 35  0  0  0  0  0  0  0  0999 V2000
   48.0360   35.6133   42.0357 C   0  0  1  0  0  0  0  0  0  0  0  0
   49.4338   35.1199   41.9841 C   0  0  0  0  0  0  0  0  0  0  0  0
   48.5646   35.1815   40.7356 C   0  0  1  0  0  0  0  0  0  0  0  0
   46.5722   32.8151   44.1191 C   0  0  0  0  0  0  0  0  0  0  0  0
   47.5293   33.6513   43.5234 C   0  0  0  0  0  0  0  0  0  0  0  0
   47.0716   34.6929   42.7052 C   0  0  0  0  0  0  0  0  0  0  0  0
   45.7301   34.8466   42.5253 N   0  0  0  0  0  0  0  0  0  0  0  0
   44.8277   34.0251   43.1123 C   0  0  0  0  0  0  0  0  0  0  0  0
   45.2599   33.0128   43.9071 N   0  0  0  0  0  0  0  0  0  0  0  0
   48.0283   34.0926   40.1633 O   0  0  0  0  0  0  0  0  0  0  0  0
   48.7164   32.5370   38.1262 O   0  0  0  0  0  0  0  0  0  0  0  0
   48.1774   33.8873   38.5426 P   0  0  2  0  0  0  0  0  0  0  0  0
   49.1367   35.0437   37.7775 O   0  0  0  0  0  0  0  0  0  0  0  0
   46.6441   33.9809   37.8306 O   0  0  0  0  0  0  0  0  0  0  0  0
   47.8603   36.7076   42.2154 H   0  0  0  0  0  0  0  0  0  0  0  0
   50.2804   35.8588   42.0847 H   0  0  0  0  0  0  0  0  0  0  0  0
   49.7451   34.1033   42.2215 H   0  0  0  0  0  0  0  0  0  0  0  0
   48.9275   35.9604   40.0363 H   0  0  0  0  0  0  0  0  0  0  0  0
   46.9468   32.0204   44.7445 H   0  0  0  0  0  0  0  0  0  0  0  0
   48.5612   33.4679   43.7145 H   0  0  0  0  0  0  0  0  0  0  0  0
   43.7631   34.1324   42.9810 H   0  0  0  0  0  0  0  0  0  0  0  0
   49.1743   34.7713   36.8090 H   0  0  0  0  0  0  0  0  0  0  0  0
   44.6701   34.5507   39.5703 F   0  0  0  0  0  0  0  0  0  0  0  0
   44.7672   33.3371   38.9456 C   0  0  0  0  0  0  0  0  0  0  0  0
   45.7472   32.9400   38.0299 C   0  0  0  0  0  0  0  0  0  0  0  0
   45.7004   31.6858   37.4944 C   0  0  0  0  0  0  0  0  0  0  0  0
   46.5029   31.4997   36.8080 H   0  0  0  0  0  0  0  0  0  0  0  0
   44.6884   30.8197   37.8597 C   0  0  0  0  0  0  0  0  0  0  0  0
   44.7038   29.8394   37.4021 H   0  0  0  0  0  0  0  0  0  0  0  0
   43.7200   31.2085   38.7628 C   0  0  0  0  0  0  0  0  0  0  0  0
   43.7395   32.4702   39.3221 C   0  0  0  0  0  0  0  0  0  0  0  0
   42.9273   30.5009   39.0355 H   0  0  0  0  0  0  0  0  0  0  0  0
   42.9613   32.7112   40.0155 H   0  0  0  0  0  0  0  0  0  0  0  0
  1  6  1  0
  2  1  1  0
  3  2  1  0
  3  1  1  0
  5  4  2  0
  6  5  1  0
  7  6  2  0
  7  8  1  0
  8  9  2  0
  9  4  1  0
 10  3  1  0
 11 12  2  0
 12 10  1  1
 13 12  1  0
 14 12  1  0
  1 15  1  6
  2 16  1  0
  2 17  1  0
  3 18  1  6
  4 19  1  0
  5 20  1  0
  8 21  1  0
 13 22  1  0
 23 24  1  0
 24 25  2  0
 25 26  1  0
 26 27  1  0
 26 28  2  0
 28 29  1  0
 28 30  1  0
 30 31  2  0
 31 24  1  0
 30 32  1  0
 31 33  1  0
 14 25  1  0
M  ISO  8  15  13  16  13  17  13  18  13  19  14  20  14  21  14  22   3
M  ISO  2  27  15  29  16
M  END
>  <DihAtoms>  (1) 
11,13,24,23

>  <DihDeg>  (1) 
-179.9995352809631

$$$$
