
 OpenBabel03242520333D

 28 30  0  0  1  0  0  0  0  0999 V2000
   46.1270   32.9980   42.5090 C   0  0  0  0  0  0  0  0  0  0  0  0
   47.4670   32.7060   42.1000 C   0  0  0  0  0  0  0  0  0  0  0  0
   48.2940   32.0440   42.9870 C   0  0  0  0  0  0  0  0  0  0  0  0
   47.7930   31.7050   44.2020 N   0  0  0  0  0  0  0  0  0  0  0  0
   46.5410   31.9850   44.5660 C   0  0  0  0  0  0  0  0  0  0  0  0
   45.7210   32.6250   43.7250 N   0  0  0  0  0  0  0  0  0  0  0  0
   45.4770   33.5160   41.8170 H   0  0  0  0  0  0  0  0  0  0  0  0
   49.3100   31.8160   42.6930 H   0  0  0  0  0  0  0  0  0  0  0  0
   46.1510   33.9070   46.5780 F   0  0  0  0  0  0  0  0  0  0  0  0
   45.8450   32.6140   46.8450 C   0  0  0  0  0  0  0  0  0  0  0  0
   46.0150   31.6080   45.8930 C   0  0  0  0  0  0  0  0  0  0  0  0
   45.6940   30.2950   46.1910 C   0  0  0  0  0  0  0  0  0  0  0  0
   45.8430   29.5380   45.4120 H   0  0  0  0  0  0  0  0  0  0  0  0
   45.1990   29.9740   47.4540 C   0  0  0  0  0  0  0  0  0  0  0  0
   44.9640   28.9540   47.6500 H   0  0  0  0  0  0  0  0  0  0  0  0
   45.0370   30.9900   48.3940 C   0  0  0  0  0  0  0  0  0  0  0  0
   45.3550   32.3080   48.1020 C   0  0  0  0  0  0  0  0  0  0  0  0
   47.9760   33.1190   40.7530 C   0  0  1  0  0  0  0  0  0  0  0  0
   47.2910   34.1460   39.9980 C   0  0  0  0  0  0  0  0  0  0  0  0
   48.5890   34.5090   40.6200 C   0  0  1  0  0  0  0  0  0  0  0  0
   48.6120   32.3410   40.3010 H   0  0  0  0  0  0  0  0  0  0  0  0
   46.3280   34.5770   40.3690 H   0  0  0  0  0  0  0  0  0  0  0  0
   47.2420   33.9720   38.8830 H   0  0  0  0  0  0  0  0  0  0  0  0
   49.4840   34.6130   39.9420 H   0  0  0  0  0  0  0  0  0  0  0  0
   48.6650   35.4160   41.7940 C   0  0  0  0  0  0  0  0  0  0  0  0
   49.3060   36.6060   41.4920 F   0  0  0  0  0  0  0  0  0  0  0  0
   49.3150   34.8190   42.8750 F   0  0  0  0  0  0  0  0  0  0  0  0
   47.3830   35.7360   42.1730 F   0  0  0  0  0  0  0  0  0  0  0  0
  1  6  1  0  0  0  0
  2  1  2  0  0  0  0
  2  3  1  0  0  0  0
  3  4  2  0  0  0  0
  4  5  1  0  0  0  0
  5 11  1  0  0  0  0
  6  5  2  0  0  0  0
  7  1  1  0  0  0  0
  8  3  1  0  0  0  0
  9 10  1  0  0  0  0
 10 17  1  0  0  0  0
 11 12  1  0  0  0  0
 11 10  2  0  0  0  0
 12 14  2  0  0  0  0
 13 12  1  0  0  0  0
 14 15  1  0  0  0  0
 14 16  1  0  0  0  0
 17 16  2  0  0  0  0
 18 21  1  6  0  0  0
 18  2  1  0  0  0  0
 19 22  1  0  0  0  0
 19 20  1  0  0  0  0
 19 18  1  0  0  0  0
 20 24  1  6  0  0  0
 20 18  1  0  0  0  0
 20 25  1  0  0  0  0
 23 19  1  0  0  0  0
 25 28  1  0  0  0  0
 25 27  1  0  0  0  0
 26 25  1  0  0  0  0
M  END
>  <minimizedAffinity>
-5.50232124

>  <minimizedRMSD>
2.29115057

$$$$
