
 OpenBabel03242519283D

 43 46  0  0  0  0  0  0  0  0999 V2000
   47.9100   33.7460   42.8530 C   0  0  0  0  0  0  0  0  0  0  0  0
   48.6060   34.9610   42.7030 C   0  0  0  0  0  0  0  0  0  0  0  0
   49.9800   34.9390   42.3920 C   0  0  0  0  0  0  0  0  0  0  0  0
   50.5490   33.6970   42.2560 N   0  0  0  0  0  0  0  0  0  0  0  0
   49.8200   32.5360   42.4150 C   0  0  0  0  0  0  0  0  0  0  0  0
   48.5330   32.5880   42.7060 N   0  0  0  0  0  0  0  0  0  0  0  0
   48.2420   35.9750   42.7910 H   0  0  0  0  0  0  0  0  0  0  0  0
   50.5780   35.8140   42.2610 H   0  0  0  0  0  0  0  0  0  0  0  0
   46.4780   33.9040   43.1860 C   0  0  0  0  0  0  0  0  0  0  0  0
   45.7840   34.9220   42.4220 C   0  0  0  0  0  0  0  0  0  0  0  0
   45.3490   36.1060   43.1880 C   0  0  0  0  0  0  0  0  0  0  0  0
   44.5310   35.7370   44.4230 C   0  0  0  0  0  0  0  0  0  0  0  0
   44.9930   34.4860   45.1170 C   0  0  0  0  0  0  0  0  0  0  0  0
   46.4220   34.1470   44.7160 C   0  0  0  0  0  0  0  0  0  0  0  0
   46.0100   32.8870   43.0570 H   0  0  0  0  0  0  0  0  0  0  0  0
   44.8590   34.4820   41.9440 H   0  0  0  0  0  0  0  0  0  0  0  0
   46.4060   35.2620   41.5830 H   0  0  0  0  0  0  0  0  0  0  0  0
   44.6060   36.6510   42.5310 H   0  0  0  0  0  0  0  0  0  0  0  0
   46.1100   36.8690   43.4090 H   0  0  0  0  0  0  0  0  0  0  0  0
   43.4480   35.7390   44.2310 H   0  0  0  0  0  0  0  0  0  0  0  0
   44.7020   36.5790   45.1420 H   0  0  0  0  0  0  0  0  0  0  0  0
   44.9810   34.5330   46.2150 H   0  0  0  0  0  0  0  0  0  0  0  0
   44.3790   33.6440   44.7320 H   0  0  0  0  0  0  0  0  0  0  0  0
   47.1420   34.9540   44.9560 H   0  0  0  0  0  0  0  0  0  0  0  0
   46.6690   33.1740   45.1830 H   0  0  0  0  0  0  0  0  0  0  0  0
   50.6050   31.3210   42.2370 C   0  0  0  0  0  0  0  0  0  0  0  0
   50.6890   30.7830   40.9990 N   0  0  0  0  0  0  0  0  0  0  0  0
   51.4630   29.6740   41.0720 C   0  0  0  0  0  0  0  0  0  0  0  0
   51.8500   29.5370   42.3600 N   0  0  0  0  0  0  0  0  0  0  0  0
   51.3310   30.5410   43.0870 N   0  0  0  0  0  0  0  0  0  0  0  0
   51.6870   29.0590   40.2170 H   0  0  0  0  0  0  0  0  0  0  0  0
   52.6980   28.4810   42.8890 C   0  0  0  0  0  0  0  0  0  0  0  0
   52.2200   28.0420   43.7620 H   0  0  0  0  0  0  0  0  0  0  0  0
   52.8310   27.7400   42.0600 H   0  0  0  0  0  0  0  0  0  0  0  0
   54.7910   29.1380   41.0450 F   0  0  0  0  0  0  0  0  0  0  0  0
   55.0090   29.3590   42.3420 C   0  0  0  0  0  0  0  0  0  0  0  0
   54.0330   29.0570   43.2370 C   0  0  0  0  0  0  0  0  0  0  0  0
   54.2830   29.2960   44.5900 C   0  0  0  0  0  0  0  0  0  0  0  0
   53.4990   29.0550   45.3220 H   0  0  0  0  0  0  0  0  0  0  0  0
   55.4880   29.8300   45.0390 C   0  0  0  0  0  0  0  0  0  0  0  0
   55.5960   29.9840   46.1180 H   0  0  0  0  0  0  0  0  0  0  0  0
   56.4430   30.1180   44.0870 C   0  0  0  0  0  0  0  0  0  0  0  0
   56.2200   29.8910   42.7570 C   0  0  0  0  0  0  0  0  0  0  0  0
  1  9  1  0  0  0  0
  2  7  1  0  0  0  0
  2  1  2  0  0  0  0
  3  2  1  0  0  0  0
  4  3  2  0  0  0  0
  4  5  1  0  0  0  0
  5  6  2  0  0  0  0
  6  1  1  0  0  0  0
  8  3  1  0  0  0  0
  9 14  1  0  0  0  0
 10  9  1  0  0  0  0
 10 11  1  0  0  0  0
 11 19  1  0  0  0  0
 11 12  1  0  0  0  0
 12 13  1  0  0  0  0
 12 21  1  0  0  0  0
 13 22  1  0  0  0  0
 14 24  1  0  0  0  0
 14 13  1  0  0  0  0
 14 25  1  0  0  0  0
 15  9  1  0  0  0  0
 16 10  1  0  0  0  0
 17 10  1  0  0  0  0
 18 11  1  0  0  0  0
 20 12  1  0  0  0  0
 23 13  1  0  0  0  0
 26  5  1  0  0  0  0
 26 30  2  0  0  0  0
 27 28  2  0  0  0  0
 27 26  1  0  0  0  0
 28 29  1  0  0  0  0
 29 32  1  0  0  0  0
 29 30  1  0  0  0  0
 31 28  1  0  0  0  0
 32 37  1  0  0  0  0
 32 33  1  0  0  0  0
 34 32  1  0  0  0  0
 35 36  1  0  0  0  0
 36 43  2  0  0  0  0
 36 37  1  0  0  0  0
 37 38  2  0  0  0  0
 38 40  1  0  0  0  0
 38 39  1  0  0  0  0
 40 41  1  0  0  0  0
 42 40  2  0  0  0  0
 43 42  1  0  0  0  0
M  END
>  <minimizedAffinity>
-4.5813303

>  <minimizedRMSD>
1.77098489

$$$$
