
 OpenBabel03252509293D

 21 22  0  0  0  0  0  0  0  0999 V2000
   47.0160   32.5730   45.4440 C   0  0  0  0  0  0  0  0  0  0  0  0
   47.7590   32.9880   46.1840 H   0  0  0  0  0  0  0  0  0  0  0  0
   47.5000   32.1070   44.5820 H   0  0  0  0  0  0  0  0  0  0  0  0
   45.6160   35.2540   43.2750 C   0  0  0  0  0  0  0  0  0  0  0  0
   46.3930   34.1610   43.7100 C   0  0  0  0  0  0  0  0  0  0  0  0
   46.1930   33.7080   45.0250 C   0  0  0  0  0  0  0  0  0  0  0  0
   45.2720   34.3370   45.7980 N   0  0  0  0  0  0  0  0  0  0  0  0
   44.5480   35.3800   45.3430 C   0  0  0  0  0  0  0  0  0  0  0  0
   44.7310   35.8250   44.0860 N   0  0  0  0  0  0  0  0  0  0  0  0
   45.7910   35.5820   42.2580 H   0  0  0  0  0  0  0  0  0  0  0  0
   47.1170   33.6940   43.0510 H   0  0  0  0  0  0  0  0  0  0  0  0
   43.8180   35.8650   45.9850 H   0  0  0  0  0  0  0  0  0  0  0  0
   46.6190   32.5840   48.2130 F   0  0  0  0  0  0  0  0  0  0  0  0
   46.0680   31.5120   47.5580 C   0  0  0  0  0  0  0  0  0  0  0  0
   46.2780   31.5260   46.1780 C   0  0  0  0  0  0  0  0  0  0  0  0
   45.7440   30.4680   45.4790 C   0  0  0  0  0  0  0  0  0  0  0  0
   45.8310   30.3530   44.4080 H   0  0  0  0  0  0  0  0  0  0  0  0
   45.0370   29.4470   46.1080 C   0  0  0  0  0  0  0  0  0  0  0  0
   44.6090   28.6060   45.5730 H   0  0  0  0  0  0  0  0  0  0  0  0
   44.8410   29.4480   47.4620 C   0  0  0  0  0  0  0  0  0  0  0  0
   45.3690   30.5020   48.1840 C   0  0  0  0  0  0  0  0  0  0  0  0
  1 15  1  0  0  0  0
  1  2  1  0  0  0  0
  3  1  1  0  0  0  0
  4  5  2  0  0  0  0
  4  9  1  0  0  0  0
  5  6  1  0  0  0  0
  6  1  1  0  0  0  0
  6  7  2  0  0  0  0
  8  7  1  0  0  0  0
  8 12  1  0  0  0  0
  9  8  2  0  0  0  0
 10  4  1  0  0  0  0
 11  5  1  0  0  0  0
 14 21  1  0  0  0  0
 14 13  1  0  0  0  0
 15 14  2  0  0  0  0
 16 18  2  0  0  0  0
 16 15  1  0  0  0  0
 17 16  1  0  0  0  0
 18 20  1  0  0  0  0
 19 18  1  0  0  0  0
 20 21  2  0  0  0  0
M  END
>  <minimizedAffinity>
-4.27236271

>  <minimizedRMSD>
5.88874197

$$$$
