
     RDKit          3D

 23 24  0  0  0  0  0  0  0  0999 V2000
   44.5599   36.0109   44.4951 C   0  0  0  0  0  0  0  0  0  0  0  0
   45.3033   35.9213   43.3011 C   0  0  0  0  0  0  0  0  0  0  0  0
   46.2001   34.8468   43.1757 C   0  0  0  0  0  0  0  0  0  0  0  0
   46.3018   33.9613   44.2005 N   0  0  0  0  0  0  0  0  0  0  0  0
   45.5722   34.0825   45.3272 C   0  0  0  0  0  0  0  0  0  0  0  0
   44.7099   35.1078   45.4585 N   0  0  0  0  0  0  0  0  0  0  0  0
   46.9548   34.7843   41.9249 C   0  0  0  0  0  0  0  0  0  0  0  0
   43.8767   36.8488   44.5644 H   0  0  0  0  0  0  0  0  0  0  0  0
   45.1829   36.6570   42.5132 H   0  0  0  0  0  0  0  0  0  0  0  0
   45.6745   33.3595   46.1297 H   0  0  0  0  0  0  0  0  0  0  0  0
   47.9003   34.2156   42.1631 H   0  0  0  0  0  0  0  0  0  0  0  0
   47.1555   35.7876   41.5426 H   0  0  0  0  0  0  0  0  0  0  0  0
   48.0644   32.5177   40.7200 F   0  0  0  0  0  0  0  0  0  0  0  0
   46.8307   32.8760   40.2400 C   0  0  0  0  0  0  0  0  0  0  0  0
   46.2951   34.0102   40.8555 C   0  0  0  0  0  0  0  0  0  0  0  0
   45.0567   34.4079   40.4057 C   0  0  0  0  0  0  0  0  0  0  0  0
   44.5277   35.2661   40.7930 H   0  0  0  0  0  0  0  0  0  0  0  0
   44.3798   33.7234   39.4009 C   0  0  0  0  0  0  0  0  0  0  0  0
   43.4035   34.0226   39.0343 H   0  0  0  0  0  0  0  0  0  0  0  0
   44.9185   32.6132   38.8077 C   0  0  0  0  0  0  0  0  0  0  0  0
   46.1625   32.1963   39.2447 C   0  0  0  0  0  0  0  0  0  0  0  0
   44.5024   32.0011   38.0288 H   0  0  0  0  0  0  0  0  0  0  0  0
   46.7368   31.3360   38.8844 H   0  0  0  0  0  0  0  0  0  0  0  0
  1  6  2  0
  2  1  1  0
  3  2  2  0
  3  4  1  0
  4  5  2  0
  5  6  1  0
  7  3  1  0
  1  8  1  0
  2  9  1  0
  5 10  1  0
  7 11  1  0
  7 12  1  0
 13 14  1  0
 14 15  2  0
 15 16  1  0
 16 17  1  0
 16 18  2  0
 18 19  1  0
 18 20  1  0
 20 21  2  0
 21 14  1  0
 20 22  1  0
 21 23  1  0
  7 15  1  0
M  ISO  7   8  14   9  14  10  14  11   8  12   8  17  15  19  16
M  END
>  <DihAtoms>  (1) 
2,6,14,13

>  <DihDeg>  (1) 
179.99771468488177

$$$$
