
 OpenBabel03252501343D

 25 26  0  0  0  0  0  0  0  0999 V2000
   44.3060   34.9820   41.8980 C   0  0  0  0  0  0  0  0  0  0  0  0
   44.2120   33.7370   42.1740 O   0  0  0  0  0  0  0  0  0  0  0  0
   45.1900   35.6820   42.7750 N   0  0  0  0  0  0  0  0  0  0  0  0
   45.3740   36.6820   42.6640 H   0  0  0  0  0  0  0  0  0  0  0  0
   45.7080   34.7300   43.7560 C   0  0  0  0  0  0  0  0  0  0  0  0
   45.2250   34.5910   45.0320 C   0  0  0  0  0  0  0  0  0  0  0  0
   45.8510   33.6250   45.8170 C   0  0  0  0  0  0  0  0  0  0  0  0
   46.8610   32.9150   45.2770 N   0  0  0  0  0  0  0  0  0  0  0  0
   47.3000   33.0890   44.0190 C   0  0  0  0  0  0  0  0  0  0  0  0
   46.7160   34.0180   43.2250 N   0  0  0  0  0  0  0  0  0  0  0  0
   45.4710   33.5140   46.8220 H   0  0  0  0  0  0  0  0  0  0  0  0
   48.1190   32.4800   43.6520 H   0  0  0  0  0  0  0  0  0  0  0  0
   44.1570   35.4240   45.4210 N   0  0  0  0  0  0  0  0  0  0  0  0
   44.4500   36.4270   45.4800 H   0  0  0  0  0  0  0  0  0  0  0  0
   43.1630   35.1960   45.6490 H   0  0  0  0  0  0  0  0  0  0  0  0
   43.6340   35.6460   40.8550 O   0  0  0  0  0  0  0  0  0  0  0  0
   42.9100   34.9820   38.3310 F   0  0  0  0  0  0  0  0  0  0  0  0
   41.9580   34.9680   39.2980 C   0  0  0  0  0  0  0  0  0  0  0  0
   42.3110   35.3060   40.5910 C   0  0  0  0  0  0  0  0  0  0  0  0
   41.3720   35.3080   41.6160 C   0  0  0  0  0  0  0  0  0  0  0  0
   41.6650   35.5710   42.6130 H   0  0  0  0  0  0  0  0  0  0  0  0
   40.0540   34.9590   41.3080 C   0  0  0  0  0  0  0  0  0  0  0  0
   39.3090   34.9560   42.0970 H   0  0  0  0  0  0  0  0  0  0  0  0
   39.7130   34.6230   40.0040 C   0  0  0  0  0  0  0  0  0  0  0  0
   40.6460   34.6190   38.9810 C   0  0  0  0  0  0  0  0  0  0  0  0
  1  2  2  0  0  0  0
  1  3  1  0  0  0  0
  3  5  1  0  0  0  0
  4  3  1  0  0  0  0
  5  6  1  0  0  0  0
  6 13  1  0  0  0  0
  6  7  2  0  0  0  0
  7 11  1  0  0  0  0
  8  7  1  0  0  0  0
  9  8  2  0  0  0  0
 10  5  2  0  0  0  0
 10  9  1  0  0  0  0
 12  9  1  0  0  0  0
 13 14  1  0  0  0  0
 13 15  1  0  0  0  0
 16  1  1  0  0  0  0
 17 18  1  0  0  0  0
 18 19  1  0  0  0  0
 19 16  1  0  0  0  0
 19 20  2  0  0  0  0
 20 21  1  0  0  0  0
 22 20  1  0  0  0  0
 22 23  1  0  0  0  0
 24 22  2  0  0  0  0
 25 18  2  0  0  0  0
 25 24  1  0  0  0  0
M  END
>  <minimizedAffinity>
-5.54396534

>  <minimizedRMSD>
1.16648161

$$$$
