
 OpenBabel03252504233D

 32 35  0  0  0  0  0  0  0  0999 V2000
   37.3310   31.0760   39.6990 C   0  0  0  0  0  0  0  0  0  0  0  0
   36.9270   30.5870   38.4510 C   0  0  0  0  0  0  0  0  0  0  0  0
   37.6920   30.9250   37.2980 C   0  0  0  0  0  0  0  0  0  0  0  0
   38.7840   31.7190   37.4990 N   0  0  0  0  0  0  0  0  0  0  0  0
   39.1370   32.1710   38.7280 C   0  0  0  0  0  0  0  0  0  0  0  0
   38.4230   31.8550   39.8170 N   0  0  0  0  0  0  0  0  0  0  0  0
   40.2950   32.9930   38.8250 N   0  0  0  0  0  0  0  0  0  0  0  0
   40.4040   34.1420   39.5380 C   0  0  0  0  0  0  0  0  0  0  0  0
   41.6580   34.6350   39.3800 N   0  0  0  0  0  0  0  0  0  0  0  0
   42.3010   33.7770   38.5690 C   0  0  0  0  0  0  0  0  0  0  0  0
   43.5750   33.7280   38.0470 C   0  0  0  0  0  0  0  0  0  0  0  0
   43.9770   32.7550   37.2520 N   0  0  0  0  0  0  0  0  0  0  0  0
   43.1680   31.7370   36.8950 C   0  0  0  0  0  0  0  0  0  0  0  0
   41.9270   31.7840   37.4030 N   0  0  0  0  0  0  0  0  0  0  0  0
   41.4640   32.7330   38.2050 C   0  0  0  0  0  0  0  0  0  0  0  0
   36.0830   29.9620   38.2390 H   0  0  0  0  0  0  0  0  0  0  0  0
   37.4080   30.5660   36.3310 H   0  0  0  0  0  0  0  0  0  0  0  0
   39.6270   34.5950   40.1340 H   0  0  0  0  0  0  0  0  0  0  0  0
   43.4840   30.9280   36.2420 H   0  0  0  0  0  0  0  0  0  0  0  0
   44.5390   34.7230   38.3250 N   0  0  0  0  0  0  0  0  0  0  0  0
   44.7460   35.6160   37.8040 H   0  0  0  0  0  0  0  0  0  0  0  0
   45.1710   34.6050   39.1680 H   0  0  0  0  0  0  0  0  0  0  0  0
   36.3040   30.5890   41.0830 S   0  0  0  0  0  0  0  0  0  0  0  0
   38.8770   30.6150   42.6900 F   0  0  0  0  0  0  0  0  0  0  0  0
   38.3280   29.3780   42.6550 C   0  0  0  0  0  0  0  0  0  0  0  0
   37.1540   29.2760   41.9440 C   0  0  0  0  0  0  0  0  0  0  0  0
   36.4950   28.0520   41.8370 C   0  0  0  0  0  0  0  0  0  0  0  0
   35.5670   27.8680   41.3000 H   0  0  0  0  0  0  0  0  0  0  0  0
   37.0030   26.8970   42.4440 C   0  0  0  0  0  0  0  0  0  0  0  0
   36.5300   25.9380   42.3860 H   0  0  0  0  0  0  0  0  0  0  0  0
   38.1830   27.0290   43.1510 C   0  0  0  0  0  3  0  0  0  0  0  0
   38.8400   28.2460   43.2590 C   0  0  0  0  0  3  0  0  0  0  0  0
  1  6  1  0  0  0  0
  1 23  1  0  0  0  0
  2  1  2  0  0  0  0
  3  4  2  0  0  0  0
  3  2  1  0  0  0  0
  4  5  1  0  0  0  0
  5  7  1  0  0  0  0
  5  6  2  0  0  0  0
  7  8  1  0  0  0  0
  8 18  1  0  0  0  0
  9  8  2  0  0  0  0
 10  9  1  0  0  0  0
 11 20  1  0  0  0  0
 11 10  2  0  0  0  0
 12 11  1  0  0  0  0
 13 12  2  0  0  0  0
 13 14  1  0  0  0  0
 14 15  2  0  0  0  0
 15 10  1  0  0  0  0
 15  7  1  0  0  0  0
 16  2  1  0  0  0  0
 17  3  1  0  0  0  0
 19 13  1  0  0  0  0
 20 22  1  0  0  0  0
 21 20  1  0  0  0  0
 23 26  1  0  0  0  0
 25 24  1  0  0  0  0
 25 32  1  0  0  0  0
 26 25  2  0  0  0  0
 27 26  1  0  0  0  0
 27 29  2  0  0  0  0
 28 27  1  0  0  0  0
 29 31  1  0  0  0  0
 30 29  1  0  0  0  0
 31 32  2  0  0  0  0
M  END
>  <minimizedAffinity>
-6.8708744

$$$$

 OpenBabel03252504233D

 32 35  0  0  0  0  0  0  0  0999 V2000
   37.8130   29.2410   41.1460 C   0  0  0  0  0  0  0  0  0  0  0  0
   38.2900   29.3610   42.4570 C   0  0  0  0  0  0  0  0  0  0  0  0
   39.4890   30.0950   42.6890 C   0  0  0  0  0  0  0  0  0  0  0  0
   40.0970   30.6380   41.5940 N   0  0  0  0  0  0  0  0  0  0  0  0
   39.5980   30.4950   40.3420 C   0  0  0  0  0  0  0  0  0  0  0  0
   38.4710   29.8070   40.1150 N   0  0  0  0  0  0  0  0  0  0  0  0
   40.3130   31.1030   39.2710 N   0  0  0  0  0  0  0  0  0  0  0  0
   40.6040   30.5300   38.0760 C   0  0  0  0  0  0  0  0  0  0  0  0
   41.2960   31.4220   37.3230 N   0  0  0  0  0  0  0  0  0  0  0  0
   41.4190   32.5320   38.0710 C   0  0  0  0  0  0  0  0  0  0  0  0
   42.0070   33.7610   37.8690 C   0  0  0  0  0  0  0  0  0  0  0  0
   41.9940   34.7120   38.7820 N   0  0  0  0  0  0  0  0  0  0  0  0
   41.4000   34.5470   39.9830 C   0  0  0  0  0  0  0  0  0  0  0  0
   40.8270   33.3510   40.1810 N   0  0  0  0  0  0  0  0  0  0  0  0
   40.8080   32.3570   39.3040 C   0  0  0  0  0  0  0  0  0  0  0  0
   37.8530   28.9570   43.3470 H   0  0  0  0  0  0  0  0  0  0  0  0
   39.8760   30.2030   43.6800 H   0  0  0  0  0  0  0  0  0  0  0  0
   40.3340   29.5320   37.7680 H   0  0  0  0  0  0  0  0  0  0  0  0
   41.3800   35.3210   40.7450 H   0  0  0  0  0  0  0  0  0  0  0  0
   42.6720   34.0850   36.6640 N   0  0  0  0  0  0  0  0  0  0  0  0
   43.6860   33.9580   36.4050 H   0  0  0  0  0  0  0  0  0  0  0  0
   42.1170   34.5210   35.8720 H   0  0  0  0  0  0  0  0  0  0  0  0
   36.2990   28.3030   40.9620 S   0  0  0  0  0  0  0  0  0  0  0  0
   36.8820   26.6150   43.4130 F   0  0  0  0  0  0  0  0  0  0  0  0
   36.9690   25.8840   42.2770 C   0  0  0  0  0  0  0  0  0  0  0  0
   36.7180   26.5750   41.1130 C   0  0  0  0  0  0  0  0  0  0  0  0
   36.7780   25.9280   39.8790 C   0  0  0  0  0  0  0  0  0  0  0  0
   36.5980   26.3830   38.9080 H   0  0  0  0  0  0  0  0  0  0  0  0
   37.0920   24.5670   39.7850 C   0  0  0  0  0  0  0  0  0  0  0  0
   37.1490   24.0320   38.8590 H   0  0  0  0  0  0  0  0  0  0  0  0
   37.3390   23.8990   40.9700 C   0  0  0  0  0  3  0  0  0  0  0  0
   37.2800   24.5400   42.1980 C   0  0  0  0  0  3  0  0  0  0  0  0
  1  2  1  0  0  0  0
  2  3  2  0  0  0  0
  2 16  1  0  0  0  0
  3 17  1  0  0  0  0
  4  3  1  0  0  0  0
  5  4  2  0  0  0  0
  6  5  1  0  0  0  0
  6  1  2  0  0  0  0
  7 15  1  0  0  0  0
  7  5  1  0  0  0  0
  8  7  1  0  0  0  0
  9 10  1  0  0  0  0
  9  8  2  0  0  0  0
 10 15  1  0  0  0  0
 11 10  2  0  0  0  0
 11 12  1  0  0  0  0
 12 13  2  0  0  0  0
 13 14  1  0  0  0  0
 13 19  1  0  0  0  0
 15 14  2  0  0  0  0
 18  8  1  0  0  0  0
 20 11  1  0  0  0  0
 21 20  1  0  0  0  0
 22 20  1  0  0  0  0
 23 26  1  0  0  0  0
 23  1  1  0  0  0  0
 25 24  1  0  0  0  0
 26 25  2  0  0  0  0
 27 26  1  0  0  0  0
 28 27  1  0  0  0  0
 29 27  2  0  0  0  0
 29 31  1  0  0  0  0
 30 29  1  0  0  0  0
 31 32  2  0  0  0  0
 32 25  1  0  0  0  0
M  END
>  <minimizedAffinity>
-6.46068954

$$$$

 OpenBabel03252504233D

 32 35  0  0  0  0  0  0  0  0999 V2000
   36.9820   28.7520   40.9150 C   0  0  0  0  0  0  0  0  0  0  0  0
   36.4290   28.3170   39.7050 C   0  0  0  0  0  0  0  0  0  0  0  0
   36.7350   29.0310   38.5110 C   0  0  0  0  0  0  0  0  0  0  0  0
   37.5630   30.1100   38.6370 N   0  0  0  0  0  0  0  0  0  0  0  0
   38.0750   30.4950   39.8320 C   0  0  0  0  0  0  0  0  0  0  0  0
   37.7920   29.8270   40.9590 N   0  0  0  0  0  0  0  0  0  0  0  0
   38.9290   31.6340   39.8500 N   0  0  0  0  0  0  0  0  0  0  0  0
   38.8800   32.6570   40.7420 C   0  0  0  0  0  0  0  0  0  0  0  0
   39.8510   33.5510   40.4300 N   0  0  0  0  0  0  0  0  0  0  0  0
   40.4810   33.0630   39.3480 C   0  0  0  0  0  0  0  0  0  0  0  0
   41.5330   33.5030   38.5750 C   0  0  0  0  0  0  0  0  0  0  0  0
   41.9800   32.8260   37.5350 N   0  0  0  0  0  0  0  0  0  0  0  0
   41.4370   31.6500   37.1560 C   0  0  0  0  0  0  0  0  0  0  0  0
   40.4130   31.2200   37.9080 N   0  0  0  0  0  0  0  0  0  0  0  0
   39.9200   31.8550   38.9620 C   0  0  0  0  0  0  0  0  0  0  0  0
   35.7770   27.4810   39.5510 H   0  0  0  0  0  0  0  0  0  0  0  0
   36.3260   28.7220   37.5720 H   0  0  0  0  0  0  0  0  0  0  0  0
   38.1880   32.7490   41.5640 H   0  0  0  0  0  0  0  0  0  0  0  0
   41.7940   31.0800   36.3030 H   0  0  0  0  0  0  0  0  0  0  0  0
   42.2040   34.7180   38.8420 N   0  0  0  0  0  0  0  0  0  0  0  0
   42.0000   35.6870   38.4800 H   0  0  0  0  0  0  0  0  0  0  0  0
   43.0390   34.7110   39.4950 H   0  0  0  0  0  0  0  0  0  0  0  0
   36.5380   27.7850   42.3550 S   0  0  0  0  0  0  0  0  0  0  0  0
   36.9930   24.9280   41.4410 F   0  0  0  0  0  0  0  0  0  0  0  0
   38.0100   25.3670   42.2190 C   0  0  0  0  0  0  0  0  0  0  0  0
   37.8840   26.6580   42.6780 C   0  0  0  0  0  0  0  0  0  0  0  0
   38.8700   27.2200   43.4880 C   0  0  0  0  0  0  0  0  0  0  0  0
   38.8640   28.2270   43.9010 H   0  0  0  0  0  0  0  0  0  0  0  0
   40.0100   26.4960   43.8570 C   0  0  0  0  0  0  0  0  0  0  0  0
   40.7900   26.8890   44.4770 H   0  0  0  0  0  0  0  0  0  0  0  0
   40.1100   25.2020   43.3810 C   0  0  0  0  0  3  0  0  0  0  0  0
   39.1300   24.6400   42.5750 C   0  0  0  0  0  3  0  0  0  0  0  0
  1  6  1  0  0  0  0
  1 23  1  0  0  0  0
  2  1  2  0  0  0  0
  3  4  2  0  0  0  0
  3  2  1  0  0  0  0
  4  5  1  0  0  0  0
  5  7  1  0  0  0  0
  5  6  2  0  0  0  0
  7  8  1  0  0  0  0
  8 18  1  0  0  0  0
  9  8  2  0  0  0  0
 10  9  1  0  0  0  0
 11 20  1  0  0  0  0
 11 10  2  0  0  0  0
 12 11  1  0  0  0  0
 13 12  2  0  0  0  0
 13 14  1  0  0  0  0
 14 15  2  0  0  0  0
 15 10  1  0  0  0  0
 15  7  1  0  0  0  0
 16  2  1  0  0  0  0
 17  3  1  0  0  0  0
 19 13  1  0  0  0  0
 20 22  1  0  0  0  0
 21 20  1  0  0  0  0
 23 26  1  0  0  0  0
 24 25  1  0  0  0  0
 25 32  2  0  0  0  0
 25 26  1  0  0  0  0
 26 27  2  0  0  0  0
 27 29  1  0  0  0  0
 27 28  1  0  0  0  0
 29 30  1  0  0  0  0
 31 29  2  0  0  0  0
 32 31  1  0  0  0  0
M  END
>  <minimizedAffinity>
-6.21018124

$$$$

 OpenBabel03252504233D

 32 35  0  0  0  0  0  0  0  0999 V2000
   37.1210   29.7330   40.9040 C   0  0  0  0  0  0  0  0  0  0  0  0
   37.6720   29.5530   42.1780 C   0  0  0  0  0  0  0  0  0  0  0  0
   38.9930   30.0230   42.4310 C   0  0  0  0  0  0  0  0  0  0  0  0
   39.6380   30.6270   41.3900 N   0  0  0  0  0  0  0  0  0  0  0  0
   39.0640   30.7790   40.1710 C   0  0  0  0  0  0  0  0  0  0  0  0
   37.8220   30.3400   39.9260 N   0  0  0  0  0  0  0  0  0  0  0  0
   39.8260   31.4240   39.1550 N   0  0  0  0  0  0  0  0  0  0  0  0
   39.9540   31.0130   37.8680 C   0  0  0  0  0  0  0  0  0  0  0  0
   40.7590   31.8860   37.2120 N   0  0  0  0  0  0  0  0  0  0  0  0
   41.1150   32.8200   38.1110 C   0  0  0  0  0  0  0  0  0  0  0  0
   41.9050   33.9480   38.0560 C   0  0  0  0  0  0  0  0  0  0  0  0
   42.1050   34.7240   39.1030 N   0  0  0  0  0  0  0  0  0  0  0  0
   41.5480   34.4680   40.3050 C   0  0  0  0  0  0  0  0  0  0  0  0
   40.7780   33.3710   40.3600 N   0  0  0  0  0  0  0  0  0  0  0  0
   40.5400   32.5520   39.3440 C   0  0  0  0  0  0  0  0  0  0  0  0
   37.2100   29.0890   43.0260 H   0  0  0  0  0  0  0  0  0  0  0  0
   39.4390   29.9000   43.3950 H   0  0  0  0  0  0  0  0  0  0  0  0
   39.4940   30.1410   37.4320 H   0  0  0  0  0  0  0  0  0  0  0  0
   41.7030   35.0970   41.1760 H   0  0  0  0  0  0  0  0  0  0  0  0
   42.5610   34.3470   36.8690 N   0  0  0  0  0  0  0  0  0  0  0  0
   43.5220   34.0930   36.5190 H   0  0  0  0  0  0  0  0  0  0  0  0
   42.0580   34.9950   36.1970 H   0  0  0  0  0  0  0  0  0  0  0  0
   35.4560   29.1100   40.6910 S   0  0  0  0  0  0  0  0  0  0  0  0
   36.6350   26.4790   39.7490 F   0  0  0  0  0  0  0  0  0  0  0  0
   35.9540   27.0990   38.7570 C   0  0  0  0  0  0  0  0  0  0  0  0
   35.3850   28.3050   39.1000 C   0  0  0  0  0  0  0  0  0  0  0  0
   34.6590   29.0370   38.1610 C   0  0  0  0  0  0  0  0  0  0  0  0
   34.1730   29.9950   38.3320 H   0  0  0  0  0  0  0  0  0  0  0  0
   34.4880   28.5740   36.8510 C   0  0  0  0  0  0  0  0  0  0  0  0
   33.9380   29.1040   36.0990 H   0  0  0  0  0  0  0  0  0  0  0  0
   35.0700   27.3610   36.5350 C   0  0  0  0  0  3  0  0  0  0  0  0
   35.7930   26.6300   37.4670 C   0  0  0  0  0  3  0  0  0  0  0  0
  1  2  1  0  0  0  0
  2  3  2  0  0  0  0
  2 16  1  0  0  0  0
  3 17  1  0  0  0  0
  4  3  1  0  0  0  0
  5  4  2  0  0  0  0
  6  5  1  0  0  0  0
  6  1  2  0  0  0  0
  7 15  1  0  0  0  0
  7  5  1  0  0  0  0
  8  7  1  0  0  0  0
  9  8  2  0  0  0  0
  9 10  1  0  0  0  0
 10 15  1  0  0  0  0
 11 10  2  0  0  0  0
 11 12  1  0  0  0  0
 12 13  2  0  0  0  0
 13 14  1  0  0  0  0
 13 19  1  0  0  0  0
 15 14  2  0  0  0  0
 18  8  1  0  0  0  0
 20 11  1  0  0  0  0
 21 20  1  0  0  0  0
 22 20  1  0  0  0  0
 23  1  1  0  0  0  0
 25 26  1  0  0  0  0
 25 24  1  0  0  0  0
 26 23  1  0  0  0  0
 27 28  1  0  0  0  0
 27 26  2  0  0  0  0
 29 27  1  0  0  0  0
 30 29  1  0  0  0  0
 31 29  2  0  0  0  0
 31 32  1  0  0  0  0
 32 25  2  0  0  0  0
M  END
>  <minimizedAffinity>
-6.15561724

$$$$

 OpenBabel03252504233D

 32 35  0  0  0  0  0  0  0  0999 V2000
   39.4130   27.1710   42.9060 C   0  0  0  0  0  0  0  0  0  0  0  0
   38.1990   27.1700   43.6030 C   0  0  0  0  0  0  0  0  0  0  0  0
   37.4620   28.3840   43.7050 C   0  0  0  0  0  0  0  0  0  0  0  0
   38.0040   29.4830   43.1030 N   0  0  0  0  0  0  0  0  0  0  0  0
   39.1850   29.4370   42.4380 C   0  0  0  0  0  0  0  0  0  0  0  0
   39.8830   28.2980   42.3370 N   0  0  0  0  0  0  0  0  0  0  0  0
   39.6600   30.6420   41.8470 N   0  0  0  0  0  0  0  0  0  0  0  0
   40.9280   31.1200   41.9110 C   0  0  0  0  0  0  0  0  0  0  0  0
   40.9870   32.2900   41.2280 N   0  0  0  0  0  0  0  0  0  0  0  0
   39.7490   32.5140   40.7550 C   0  0  0  0  0  0  0  0  0  0  0  0
   39.1800   33.5160   40.0000 C   0  0  0  0  0  0  0  0  0  0  0  0
   37.9070   33.5090   39.6560 N   0  0  0  0  0  0  0  0  0  0  0  0
   37.0700   32.5140   40.0180 C   0  0  0  0  0  0  0  0  0  0  0  0
   37.6220   31.5370   40.7530 N   0  0  0  0  0  0  0  0  0  0  0  0
   38.8930   31.4900   41.1310 C   0  0  0  0  0  0  0  0  0  0  0  0
   37.7310   26.3390   44.0910 H   0  0  0  0  0  0  0  0  0  0  0  0
   36.5310   28.4130   44.2320 H   0  0  0  0  0  0  0  0  0  0  0  0
   41.7580   30.6520   42.4180 H   0  0  0  0  0  0  0  0  0  0  0  0
   36.0200   32.4930   39.7430 H   0  0  0  0  0  0  0  0  0  0  0  0
   39.9260   34.6280   39.5450 N   0  0  0  0  0  0  0  0  0  0  0  0
   40.0860   35.5600   40.0110 H   0  0  0  0  0  0  0  0  0  0  0  0
   40.4160   34.5690   38.6070 H   0  0  0  0  0  0  0  0  0  0  0  0
   40.2590   25.5950   42.8320 S   0  0  0  0  0  0  0  0  0  0  0  0
   37.7280   23.9370   42.6300 F   0  0  0  0  0  0  0  0  0  0  0  0
   38.4060   23.9490   41.4580 C   0  0  0  0  0  0  0  0  0  0  0  0
   39.5710   24.6810   41.4620 C   0  0  0  0  0  0  0  0  0  0  0  0
   40.3560   24.7680   40.3130 C   0  0  0  0  0  0  0  0  0  0  0  0
   41.2890   25.3180   40.2140 H   0  0  0  0  0  0  0  0  0  0  0  0
   39.9860   24.1200   39.1290 C   0  0  0  0  0  0  0  0  0  0  0  0
   40.5590   24.1600   38.2240 H   0  0  0  0  0  0  0  0  0  0  0  0
   38.8110   23.3920   39.1540 C   0  0  0  0  0  3  0  0  0  0  0  0
   38.0290   23.3040   40.2960 C   0  0  0  0  0  3  0  0  0  0  0  0
  1  2  1  0  0  0  0
  2  3  2  0  0  0  0
  2 16  1  0  0  0  0
  3 17  1  0  0  0  0
  4  3  1  0  0  0  0
  5  4  2  0  0  0  0
  6  5  1  0  0  0  0
  6  1  2  0  0  0  0
  7  8  1  0  0  0  0
  7  5  1  0  0  0  0
  8 18  1  0  0  0  0
  9  8  2  0  0  0  0
 10 15  1  0  0  0  0
 10  9  1  0  0  0  0
 11 10  2  0  0  0  0
 12 11  1  0  0  0  0
 12 13  2  0  0  0  0
 13 14  1  0  0  0  0
 14 15  2  0  0  0  0
 15  7  1  0  0  0  0
 19 13  1  0  0  0  0
 20 11  1  0  0  0  0
 20 21  1  0  0  0  0
 22 20  1  0  0  0  0
 23  1  1  0  0  0  0
 25 26  1  0  0  0  0
 25 24  1  0  0  0  0
 26 23  1  0  0  0  0
 27 26  2  0  0  0  0
 28 27  1  0  0  0  0
 29 31  2  0  0  0  0
 29 27  1  0  0  0  0
 30 29  1  0  0  0  0
 31 32  1  0  0  0  0
 32 25  2  0  0  0  0
M  END
>  <minimizedAffinity>
-6.06297159

$$$$

 OpenBabel03252504233D

 32 35  0  0  0  0  0  0  0  0999 V2000
   36.9440   25.3530   39.9520 C   0  0  0  0  0  0  0  0  0  0  0  0
   36.2990   24.9970   38.7620 C   0  0  0  0  0  0  0  0  0  0  0  0
   35.7160   26.0200   37.9600 C   0  0  0  0  0  0  0  0  0  0  0  0
   35.8320   27.3000   38.4220 N   0  0  0  0  0  0  0  0  0  0  0  0
   36.4660   27.5980   39.5830 C   0  0  0  0  0  0  0  0  0  0  0  0
   37.0170   26.6410   40.3410 N   0  0  0  0  0  0  0  0  0  0  0  0
   36.5290   28.9670   39.9710 N   0  0  0  0  0  0  0  0  0  0  0  0
   36.2850   29.4590   41.2120 C   0  0  0  0  0  0  0  0  0  0  0  0
   36.4450   30.8050   41.1850 N   0  0  0  0  0  0  0  0  0  0  0  0
   36.7820   31.1200   39.9220 C   0  0  0  0  0  0  0  0  0  0  0  0
   37.0710   32.3020   39.2760 C   0  0  0  0  0  0  0  0  0  0  0  0
   37.3830   32.3510   37.9950 N   0  0  0  0  0  0  0  0  0  0  0  0
   37.4440   31.2430   37.2270 C   0  0  0  0  0  0  0  0  0  0  0  0
   37.1630   30.0920   37.8550 N   0  0  0  0  0  0  0  0  0  0  0  0
   36.8430   29.9790   39.1370 C   0  0  0  0  0  0  0  0  0  0  0  0
   36.1820   24.0130   38.3550 H   0  0  0  0  0  0  0  0  0  0  0  0
   35.2180   25.7770   37.0460 H   0  0  0  0  0  0  0  0  0  0  0  0
   36.0120   28.8810   42.0810 H   0  0  0  0  0  0  0  0  0  0  0  0
   37.7000   31.2670   36.1710 H   0  0  0  0  0  0  0  0  0  0  0  0
   37.0470   33.5480   39.9430 N   0  0  0  0  0  0  0  0  0  0  0  0
   36.2480   34.2250   40.0650 H   0  0  0  0  0  0  0  0  0  0  0  0
   37.9330   33.8980   40.4080 H   0  0  0  0  0  0  0  0  0  0  0  0
   37.6450   23.9940   40.8830 S   0  0  0  0  0  0  0  0  0  0  0  0
   40.1900   24.7240   39.4030 F   0  0  0  0  0  0  0  0  0  0  0  0
   40.3460   24.8400   40.7430 C   0  0  0  0  0  0  0  0  0  0  0  0
   39.2360   24.5270   41.4930 C   0  0  0  0  0  0  0  0  0  0  0  0
   39.2750   24.6090   42.8840 C   0  0  0  0  0  0  0  0  0  0  0  0
   38.4560   24.3840   43.5630 H   0  0  0  0  0  0  0  0  0  0  0  0
   40.4360   25.0100   43.5570 C   0  0  0  0  0  0  0  0  0  0  0  0
   40.5100   25.0860   44.6230 H   0  0  0  0  0  0  0  0  0  0  0  0
   41.5350   25.3180   42.7780 C   0  0  0  0  0  3  0  0  0  0  0  0
   41.4980   25.2370   41.3940 C   0  0  0  0  0  3  0  0  0  0  0  0
  1  6  1  0  0  0  0
  1 23  1  0  0  0  0
  2  1  2  0  0  0  0
  3  4  2  0  0  0  0
  3  2  1  0  0  0  0
  4  5  1  0  0  0  0
  5  7  1  0  0  0  0
  5  6  2  0  0  0  0
  7  8  1  0  0  0  0
  8 18  1  0  0  0  0
  9  8  2  0  0  0  0
 10  9  1  0  0  0  0
 11 10  1  0  0  0  0
 11 20  1  0  0  0  0
 12 11  2  0  0  0  0
 13 14  2  0  0  0  0
 13 12  1  0  0  0  0
 14 15  1  0  0  0  0
 15 10  2  0  0  0  0
 15  7  1  0  0  0  0
 16  2  1  0  0  0  0
 17  3  1  0  0  0  0
 19 13  1  0  0  0  0
 20 21  1  0  0  0  0
 20 22  1  0  0  0  0
 23 26  1  0  0  0  0
 24 25  1  0  0  0  0
 25 32  2  0  0  0  0
 25 26  1  0  0  0  0
 26 27  2  0  0  0  0
 27 29  1  0  0  0  0
 27 28  1  0  0  0  0
 29 30  1  0  0  0  0
 31 29  2  0  0  0  0
 32 31  1  0  0  0  0
M  END
>  <minimizedAffinity>
-5.82464457

$$$$

 OpenBabel03252504233D

 32 35  0  0  0  0  0  0  0  0999 V2000
   37.6980   30.6050   39.9500 C   0  0  0  0  0  0  0  0  0  0  0  0
   36.8540   31.6330   39.5120 C   0  0  0  0  0  0  0  0  0  0  0  0
   37.4000   32.9330   39.3080 C   0  0  0  0  0  0  0  0  0  0  0  0
   38.7340   33.0840   39.5600 N   0  0  0  0  0  0  0  0  0  0  0  0
   39.5120   32.0580   39.9840 C   0  0  0  0  0  0  0  0  0  0  0  0
   39.0060   30.8320   40.1770 N   0  0  0  0  0  0  0  0  0  0  0  0
   40.8910   32.3250   40.2170 N   0  0  0  0  0  0  0  0  0  0  0  0
   41.6150   31.9210   41.2920 C   0  0  0  0  0  0  0  0  0  0  0  0
   42.8870   32.3710   41.1540 N   0  0  0  0  0  0  0  0  0  0  0  0
   42.9240   33.0480   39.9930 C   0  0  0  0  0  0  0  0  0  0  0  0
   43.9120   33.7250   39.3130 C   0  0  0  0  0  0  0  0  0  0  0  0
   43.6930   34.3240   38.1580 N   0  0  0  0  0  0  0  0  0  0  0  0
   42.4840   34.3130   37.5600 C   0  0  0  0  0  0  0  0  0  0  0  0
   41.5220   33.6530   38.2210 N   0  0  0  0  0  0  0  0  0  0  0  0
   41.6790   33.0330   39.3820 C   0  0  0  0  0  0  0  0  0  0  0  0
   35.8060   31.5680   39.3000 H   0  0  0  0  0  0  0  0  0  0  0  0
   36.7800   33.7370   38.9740 H   0  0  0  0  0  0  0  0  0  0  0  0
   41.2470   31.3370   42.1220 H   0  0  0  0  0  0  0  0  0  0  0  0
   42.2880   34.8010   36.6090 H   0  0  0  0  0  0  0  0  0  0  0  0
   45.2300   33.8290   39.8110 N   0  0  0  0  0  0  0  0  0  0  0  0
   45.6520   34.5670   40.4360 H   0  0  0  0  0  0  0  0  0  0  0  0
   45.9380   33.0840   39.5520 H   0  0  0  0  0  0  0  0  0  0  0  0
   36.9140   29.0100   40.1720 S   0  0  0  0  0  0  0  0  0  0  0  0
   39.4610   27.3630   40.2020 F   0  0  0  0  0  0  0  0  0  0  0  0
   38.9140   27.4520   41.4380 C   0  0  0  0  0  0  0  0  0  0  0  0
   37.7520   28.1850   41.5140 C   0  0  0  0  0  0  0  0  0  0  0  0
   37.0970   28.3470   42.7340 C   0  0  0  0  0  0  0  0  0  0  0  0
   36.1770   28.9040   42.8990 H   0  0  0  0  0  0  0  0  0  0  0  0
   37.5960   27.7740   43.9100 C   0  0  0  0  0  0  0  0  0  0  0  0
   37.1250   27.8740   44.8670 H   0  0  0  0  0  0  0  0  0  0  0  0
   38.7650   27.0450   43.8030 C   0  0  0  0  0  3  0  0  0  0  0  0
   39.4180   26.8810   42.5910 C   0  0  0  0  0  3  0  0  0  0  0  0
  1 23  1  0  0  0  0
  1  6  1  0  0  0  0
  2  1  2  0  0  0  0
  3  2  1  0  0  0  0
  3  4  2  0  0  0  0
  4  5  1  0  0  0  0
  5  6  2  0  0  0  0
  5  7  1  0  0  0  0
  7  8  1  0  0  0  0
  8 18  1  0  0  0  0
  9  8  2  0  0  0  0
 10  9  1  0  0  0  0
 11 20  1  0  0  0  0
 11 10  2  0  0  0  0
 12 11  1  0  0  0  0
 13 12  2  0  0  0  0
 13 14  1  0  0  0  0
 14 15  2  0  0  0  0
 15 10  1  0  0  0  0
 15  7  1  0  0  0  0
 16  2  1  0  0  0  0
 17  3  1  0  0  0  0
 19 13  1  0  0  0  0
 20 21  1  0  0  0  0
 22 20  1  0  0  0  0
 23 26  1  0  0  0  0
 24 25  1  0  0  0  0
 25 26  2  0  0  0  0
 25 32  1  0  0  0  0
 26 27  1  0  0  0  0
 27 28  1  0  0  0  0
 27 29  2  0  0  0  0
 29 30  1  0  0  0  0
 31 29  1  0  0  0  0
 32 31  2  0  0  0  0
M  END
>  <minimizedAffinity>
-5.82253981

$$$$

 OpenBabel03252504233D

 32 35  0  0  0  0  0  0  0  0999 V2000
   38.7410   31.0870   40.6460 C   0  0  0  0  0  0  0  0  0  0  0  0
   38.0570   32.2990   40.4970 C   0  0  0  0  0  0  0  0  0  0  0  0
   37.2780   32.5110   39.3240 C   0  0  0  0  0  0  0  0  0  0  0  0
   37.2550   31.4950   38.4120 N   0  0  0  0  0  0  0  0  0  0  0  0
   37.9360   30.3370   38.5990 C   0  0  0  0  0  0  0  0  0  0  0  0
   38.6700   30.1310   39.7010 N   0  0  0  0  0  0  0  0  0  0  0  0
   37.8430   29.3430   37.5840 N   0  0  0  0  0  0  0  0  0  0  0  0
   38.8740   28.6270   37.0680 C   0  0  0  0  0  0  0  0  0  0  0  0
   38.3880   27.7830   36.1240 N   0  0  0  0  0  0  0  0  0  0  0  0
   37.0610   27.9950   36.0740 C   0  0  0  0  0  0  0  0  0  0  0  0
   36.0340   27.4570   35.3310 C   0  0  0  0  0  0  0  0  0  0  0  0
   34.7810   27.8440   35.4710 N   0  0  0  0  0  0  0  0  0  0  0  0
   34.4160   28.7950   36.3560 C   0  0  0  0  0  0  0  0  0  0  0  0
   35.4160   29.3190   37.0810 N   0  0  0  0  0  0  0  0  0  0  0  0
   36.6920   28.9740   36.9850 C   0  0  0  0  0  0  0  0  0  0  0  0
   38.0400   33.1250   41.1800 H   0  0  0  0  0  0  0  0  0  0  0  0
   36.7440   33.4270   39.1830 H   0  0  0  0  0  0  0  0  0  0  0  0
   39.9110   28.7100   37.3560 H   0  0  0  0  0  0  0  0  0  0  0  0
   33.3890   29.1240   36.4830 H   0  0  0  0  0  0  0  0  0  0  0  0
   36.2560   26.4540   34.3610 N   0  0  0  0  0  0  0  0  0  0  0  0
   36.4680   26.5540   33.3330 H   0  0  0  0  0  0  0  0  0  0  0  0
   36.2150   25.4360   34.6550 H   0  0  0  0  0  0  0  0  0  0  0  0
   39.6880   30.9200   42.1570 S   0  0  0  0  0  0  0  0  0  0  0  0
   37.1120   29.5370   42.9660 F   0  0  0  0  0  0  0  0  0  0  0  0
   38.1840   28.7270   43.1360 C   0  0  0  0  0  0  0  0  0  0  0  0
   39.3970   29.2780   42.7920 C   0  0  0  0  0  0  0  0  0  0  0  0
   40.5720   28.5390   42.9240 C   0  0  0  0  0  0  0  0  0  0  0  0
   41.5760   28.8820   42.6810 H   0  0  0  0  0  0  0  0  0  0  0  0
   40.5560   27.2250   43.4070 C   0  0  0  0  0  0  0  0  0  0  0  0
   41.4340   26.6230   43.5240 H   0  0  0  0  0  0  0  0  0  0  0  0
   39.3230   26.6980   43.7440 C   0  0  0  0  0  3  0  0  0  0  0  0
   38.1530   27.4310   43.6140 C   0  0  0  0  0  3  0  0  0  0  0  0
  1 23  1  0  0  0  0
  2  1  1  0  0  0  0
  2 16  1  0  0  0  0
  3  2  2  0  0  0  0
  4  5  2  0  0  0  0
  4  3  1  0  0  0  0
  5  6  1  0  0  0  0
  6  1  2  0  0  0  0
  7  5  1  0  0  0  0
  8 18  1  0  0  0  0
  8  7  1  0  0  0  0
  9  8  2  0  0  0  0
 10  9  1  0  0  0  0
 10 15  1  0  0  0  0
 11 12  1  0  0  0  0
 11 10  2  0  0  0  0
 12 13  2  0  0  0  0
 13 19  1  0  0  0  0
 13 14  1  0  0  0  0
 15 14  2  0  0  0  0
 15  7  1  0  0  0  0
 17  3  1  0  0  0  0
 20 22  1  0  0  0  0
 20 11  1  0  0  0  0
 21 20  1  0  0  0  0
 23 26  1  0  0  0  0
 24 25  1  0  0  0  0
 25 32  1  0  0  0  0
 26 27  1  0  0  0  0
 26 25  2  0  0  0  0
 27 29  2  0  0  0  0
 28 27  1  0  0  0  0
 29 30  1  0  0  0  0
 29 31  1  0  0  0  0
 32 31  2  0  0  0  0
M  END
>  <minimizedAffinity>
-5.78916597

$$$$

 OpenBabel03252504233D

 32 35  0  0  0  0  0  0  0  0999 V2000
   33.4960   28.4630   36.2820 C   0  0  0  0  0  0  0  0  0  0  0  0
   33.4270   27.0700   36.3980 C   0  0  0  0  0  0  0  0  0  0  0  0
   34.3470   26.4040   37.2590 C   0  0  0  0  0  0  0  0  0  0  0  0
   35.2460   27.1910   37.9200 N   0  0  0  0  0  0  0  0  0  0  0  0
   35.2760   28.5390   37.7750 C   0  0  0  0  0  0  0  0  0  0  0  0
   34.4130   29.1710   36.9680 N   0  0  0  0  0  0  0  0  0  0  0  0
   36.2560   29.2630   38.5120 N   0  0  0  0  0  0  0  0  0  0  0  0
   37.0440   30.2570   38.0320 C   0  0  0  0  0  0  0  0  0  0  0  0
   37.8470   30.6970   39.0340 N   0  0  0  0  0  0  0  0  0  0  0  0
   37.5390   29.9600   40.1150 C   0  0  0  0  0  0  0  0  0  0  0  0
   37.9970   29.9300   41.4140 C   0  0  0  0  0  0  0  0  0  0  0  0
   37.5210   29.0920   42.3140 N   0  0  0  0  0  0  0  0  0  0  0  0
   36.5470   28.2040   42.0260 C   0  0  0  0  0  0  0  0  0  0  0  0
   36.0990   28.2330   40.7620 N   0  0  0  0  0  0  0  0  0  0  0  0
   36.5380   29.0490   39.8130 C   0  0  0  0  0  0  0  0  0  0  0  0
   32.7440   26.4090   35.9050 H   0  0  0  0  0  0  0  0  0  0  0  0
   34.3180   25.3410   37.3680 H   0  0  0  0  0  0  0  0  0  0  0  0
   37.0390   30.6420   37.0240 H   0  0  0  0  0  0  0  0  0  0  0  0
   36.1440   27.5080   42.7560 H   0  0  0  0  0  0  0  0  0  0  0  0
   39.0170   30.7970   41.8700 N   0  0  0  0  0  0  0  0  0  0  0  0
   40.0620   30.6530   41.8760 H   0  0  0  0  0  0  0  0  0  0  0  0
   38.7490   31.7400   42.2710 H   0  0  0  0  0  0  0  0  0  0  0  0
   32.2940   29.2020   35.1780 S   0  0  0  0  0  0  0  0  0  0  0  0
   31.2800   31.9920   34.5530 F   0  0  0  0  0  0  0  0  0  0  0  0
   30.8800   31.5840   35.7810 C   0  0  0  0  0  0  0  0  0  0  0  0
   31.2990   30.3240   36.1460 C   0  0  0  0  0  0  0  0  0  0  0  0
   30.9500   29.7950   37.3880 C   0  0  0  0  0  0  0  0  0  0  0  0
   31.2290   28.8150   37.7680 H   0  0  0  0  0  0  0  0  0  0  0  0
   30.1700   30.5220   38.2950 C   0  0  0  0  0  0  0  0  0  0  0  0
   29.8790   30.1540   39.2580 H   0  0  0  0  0  0  0  0  0  0  0  0
   29.7640   31.7830   37.9020 C   0  0  0  0  0  3  0  0  0  0  0  0
   30.1100   32.3120   36.6670 C   0  0  0  0  0  3  0  0  0  0  0  0
  1  2  2  0  0  0  0
  1  6  1  0  0  0  0
  2  3  1  0  0  0  0
  3 17  1  0  0  0  0
  3  4  2  0  0  0  0
  5  4  1  0  0  0  0
  5  7  1  0  0  0  0
  6  5  2  0  0  0  0
  7 15  1  0  0  0  0
  8  7  1  0  0  0  0
  8  9  2  0  0  0  0
  9 10  1  0  0  0  0
 10 11  1  0  0  0  0
 11 20  1  0  0  0  0
 11 12  2  0  0  0  0
 13 12  1  0  0  0  0
 13 19  1  0  0  0  0
 14 13  2  0  0  0  0
 15 10  2  0  0  0  0
 15 14  1  0  0  0  0
 16  2  1  0  0  0  0
 18  8  1  0  0  0  0
 20 21  1  0  0  0  0
 20 22  1  0  0  0  0
 23 26  1  0  0  0  0
 23  1  1  0  0  0  0
 24 25  1  0  0  0  0
 25 26  2  0  0  0  0
 25 32  1  0  0  0  0
 26 27  1  0  0  0  0
 27 28  1  0  0  0  0
 27 29  2  0  0  0  0
 29 30  1  0  0  0  0
 31 29  1  0  0  0  0
 32 31  2  0  0  0  0
M  END
>  <minimizedAffinity>
-5.73952579

$$$$
