
 OpenBabel03242521073D

 40 43  0  0  1  0  0  0  0  0999 V2000
   46.2190   32.5670   38.8730 C   0  0  2  0  0  0  0  0  0  0  0  0
   47.1630   31.6580   38.1810 C   0  0  0  0  0  0  0  0  0  0  0  0
   46.4090   32.7720   37.4490 C   0  0  1  0  0  0  0  0  0  0  0  0
   45.2080   32.1310   39.1470 H   0  0  0  0  0  0  0  0  0  0  0  0
   48.2420   31.7130   38.3260 H   0  0  0  0  0  0  0  0  0  0  0  0
   46.7830   30.6390   37.9480 H   0  0  0  0  0  0  0  0  0  0  0  0
   47.1530   33.4450   36.9990 H   0  0  0  0  0  0  0  0  0  0  0  0
   46.5970   34.6220   41.9070 C   0  0  0  0  0  0  0  0  0  0  0  0
   47.7930   35.2290   41.5680 C   0  0  0  0  0  0  0  0  0  0  0  0
   48.5000   35.0100   40.4000 C   0  0  0  0  0  0  0  0  0  0  0  0
   47.9650   34.1100   39.4970 C   0  0  0  0  0  0  0  0  0  0  0  0
   46.7820   33.5210   39.8510 C   0  0  0  0  0  0  0  0  0  0  0  0
   46.1500   33.7710   40.9860 N   0  0  0  0  0  0  0  0  0  0  0  0
   48.2420   35.9470   42.2620 H   0  0  0  0  0  0  0  0  0  0  0  0
   49.4250   35.5220   40.2100 H   0  0  0  0  0  0  0  0  0  0  0  0
   48.5130   33.9340   38.5830 H   0  0  0  0  0  0  0  0  0  0  0  0
   44.5230   36.1110   44.6690 C   0  0  0  0  0  0  0  0  0  0  0  0
   45.1200   36.0100   43.4030 C   0  0  0  0  0  0  0  0  0  0  0  0
   45.9010   34.8940   43.1610 C   0  0  0  0  0  0  0  0  0  0  0  0
   46.0500   33.9710   44.1380 N   0  0  0  0  0  0  0  0  0  0  0  0
   45.4520   34.1090   45.3550 C   0  0  0  0  0  0  0  0  0  0  0  0
   44.7000   35.1740   45.5990 N   0  0  0  0  0  0  0  0  0  0  0  0
   43.9220   37.0100   44.7960 H   0  0  0  0  0  0  0  0  0  0  0  0
   45.0170   36.7340   42.6040 H   0  0  0  0  0  0  0  0  0  0  0  0
   45.6370   33.3090   46.0700 H   0  0  0  0  0  0  0  0  0  0  0  0
   45.4340   32.3470   36.5320 O   0  0  0  0  0  0  0  0  0  0  0  0
   45.9420   30.7080   34.6440 O   0  0  0  0  0  0  0  0  0  0  0  0
   46.0470   32.1990   34.9570 P   0  0  1  0  0  0  0  0  0  0  0  0
   45.0040   32.9810   33.8760 O   0  0  0  0  0  0  0  0  0  0  0  0
   45.5050   33.1730   33.0460 H   0  0  0  0  0  0  0  0  0  0  0  0
   47.6350   32.6380   34.7900 O   0  0  0  0  0  0  0  0  0  0  0  0
   50.0900   31.1250   35.2420 F   0  0  0  0  0  0  0  0  0  0  0  0
   49.7930   31.5110   33.9840 C   0  0  0  0  0  0  0  0  0  0  0  0
   48.6100   32.2090   33.9440 C   0  0  0  0  0  0  0  0  0  0  0  0
   48.2270   32.6510   32.6640 C   0  0  0  0  0  0  0  0  0  0  0  0
   47.3550   33.2190   32.3260 H   0  0  0  0  0  0  0  0  0  0  0  0
   49.0080   32.3860   31.5290 C   0  0  0  0  0  0  0  0  0  0  0  0
   48.8090   32.6750   30.5100 H   0  0  0  0  0  0  0  0  0  0  0  0
   50.1850   31.6760   31.6490 C   0  0  0  0  0  0  0  0  0  0  0  0
   50.5790   31.2340   32.8940 C   0  0  0  0  0  0  0  0  0  0  0  0
  1  4  1  1  0  0  0
  1 12  1  0  0  0  0
  2  5  1  0  0  0  0
  2  1  1  0  0  0  0
  3  7  1  6  0  0  0
  3  2  1  0  0  0  0
  3  1  1  0  0  0  0
  6  2  1  0  0  0  0
  8 19  1  0  0  0  0
  9  8  1  0  0  0  0
  9 14  1  0  0  0  0
 10  9  2  0  0  0  0
 11 12  2  0  0  0  0
 11 10  1  0  0  0  0
 12 13  1  0  0  0  0
 13  8  2  0  0  0  0
 15 10  1  0  0  0  0
 16 11  1  0  0  0  0
 17 23  1  0  0  0  0
 17 22  1  0  0  0  0
 18 17  2  0  0  0  0
 19 18  1  0  0  0  0
 19 20  2  0  0  0  0
 20 21  1  0  0  0  0
 21 22  2  0  0  0  0
 21 25  1  0  0  0  0
 24 18  1  0  0  0  0
 26  3  1  0  0  0  0
 28 27  2  6  0  0  0
 28 26  1  0  0  0  0
 29 28  1  0  0  0  0
 30 29  1  0  0  0  0
 31 28  1  0  0  0  0
 33 32  1  0  0  0  0
 34 33  1  0  0  0  0
 34 31  1  0  0  0  0
 35 34  2  0  0  0  0
 36 35  1  0  0  0  0
 37 39  2  0  0  0  0
 37 35  1  0  0  0  0
 38 37  1  0  0  0  0
 39 40  1  0  0  0  0
 40 33  2  0  0  0  0
M  END
>  <minimizedAffinity>
-6.95217419

>  <minimizedRMSD>
1.32228768

$$$$
