
 OpenBabel03242518443D

 35 37  0  0  1  0  0  0  0  0999 V2000
   39.4180   31.4950   39.4360 C   0  0  2  0  0  0  0  0  0  0  0  0
   39.6910   32.9260   39.2120 C   0  0  1  0  0  0  0  0  0  0  0  0
   38.7980   33.8230   40.1080 C   0  0  0  0  0  0  0  0  0  0  0  0
   37.5000   33.4100   39.7770 O   0  0  0  0  0  0  0  0  0  0  0  0
   37.2020   32.1670   40.3010 C   0  0  0  0  0  0  0  0  0  0  0  0
   38.4250   31.3150   40.5700 C   0  0  1  0  0  0  0  0  0  0  0  0
   38.9750   31.0060   38.5450 H   0  0  0  0  0  0  0  0  0  0  0  0
   39.4840   33.2080   38.1550 H   0  0  0  0  0  0  0  0  0  0  0  0
   38.9390   34.8470   39.7330 H   0  0  0  0  0  0  0  0  0  0  0  0
   39.0700   33.6860   41.1510 H   0  0  0  0  0  0  0  0  0  0  0  0
   36.5820   31.6320   39.5620 H   0  0  0  0  0  0  0  0  0  0  0  0
   36.5900   32.2290   41.2290 H   0  0  0  0  0  0  0  0  0  0  0  0
   38.9320   31.6970   41.5290 H   0  0  0  0  0  0  0  0  0  0  0  0
   42.6180   33.9440   41.1760 C   0  0  0  0  0  0  0  0  0  0  0  0
   43.6370   34.1390   40.2060 C   0  0  0  0  0  0  0  0  0  0  0  0
   43.2540   33.9080   38.8590 C   0  0  0  0  0  0  0  0  0  0  0  0
   41.9890   33.5280   38.5810 N   0  0  0  0  0  0  0  0  0  0  0  0
   41.0710   33.3600   39.5410 C   0  0  0  0  0  0  0  0  0  0  0  0
   41.3930   33.5700   40.8440 N   0  0  0  0  0  0  0  0  0  0  0  0
   44.6430   34.4450   40.4640 H   0  0  0  0  0  0  0  0  0  0  0  0
   44.0080   34.0490   38.0990 H   0  0  0  0  0  0  0  0  0  0  0  0
   42.9740   34.1610   42.4710 O   0  0  0  0  0  0  0  0  0  0  0  0
   42.5260   34.7740   43.1330 H   0  0  0  0  0  0  0  0  0  0  0  0
   40.5530   30.7250   39.7250 O   0  0  0  0  0  0  0  0  0  0  0  0
   40.6050   30.6320   40.7140 H   0  0  0  0  0  0  0  0  0  0  0  0
   38.1070   30.0000   40.7090 O   0  0  0  0  0  0  0  0  0  0  0  0
   35.6790   29.0360   41.2650 F   0  0  0  0  0  0  0  0  0  0  0  0
   36.8330   28.6450   41.8830 C   0  0  0  0  0  0  0  0  0  0  0  0
   38.1540   29.0760   41.6770 C   0  0  0  0  0  0  0  0  0  0  0  0
   39.0800   28.4700   42.4770 C   0  0  0  0  0  0  0  0  0  0  0  0
   40.0810   28.8190   42.2970 H   0  0  0  0  0  0  0  0  0  0  0  0
   38.8420   27.5110   43.4290 C   0  0  0  0  0  0  0  0  0  0  0  0
   39.6960   27.1440   43.9680 H   0  0  0  0  0  0  0  0  0  0  0  0
   37.5370   27.1220   43.5940 C   0  0  0  0  0  3  0  0  0  0  0  0
   36.5070   27.6690   42.8370 C   0  0  0  0  0  3  0  0  0  0  0  0
  1  7  1  6  0  0  0
  1 24  1  0  0  0  0
  1  6  1  0  0  0  0
  2  8  1  6  0  0  0
  2  1  1  0  0  0  0
  2 18  1  0  0  0  0
  2  3  1  0  0  0  0
  3 10  1  0  0  0  0
  4  3  1  0  0  0  0
  4  5  1  0  0  0  0
  5  6  1  0  0  0  0
  5 12  1  0  0  0  0
  6 26  1  0  0  0  0
  6 13  1  1  0  0  0
  9  3  1  0  0  0  0
 11  5  1  0  0  0  0
 14 22  1  0  0  0  0
 15 20  1  0  0  0  0
 15 14  2  0  0  0  0
 16 15  1  0  0  0  0
 17 16  2  0  0  0  0
 17 18  1  0  0  0  0
 18 19  2  0  0  0  0
 19 14  1  0  0  0  0
 21 16  1  0  0  0  0
 22 23  1  0  0  0  0
 24 25  1  0  0  0  0
 26 29  1  0  0  0  0
 27 28  1  0  0  0  0
 28 35  1  0  0  0  0
 29 28  2  0  0  0  0
 29 30  1  0  0  0  0
 30 32  2  0  0  0  0
 31 30  1  0  0  0  0
 32 34  1  0  0  0  0
 32 33  1  0  0  0  0
 35 34  2  0  0  0  0
M  END
>  <minimizedAffinity>
-5.80641985

$$$$

 OpenBabel03242518443D

 35 37  0  0  1  0  0  0  0  0999 V2000
   38.2180   29.4310   40.7610 C   0  0  2  0  0  0  0  0  0  0  0  0
   37.7620   30.4350   39.7840 C   0  0  1  0  0  0  0  0  0  0  0  0
   36.2910   30.8540   40.0410 C   0  0  0  0  0  0  0  0  0  0  0  0
   35.6020   29.6330   40.0010 O   0  0  0  0  0  0  0  0  0  0  0  0
   35.8390   28.8660   41.1240 C   0  0  0  0  0  0  0  0  0  0  0  0
   37.1500   29.1890   41.8120 C   0  0  1  0  0  0  0  0  0  0  0  0
   38.4290   28.4500   40.2900 H   0  0  0  0  0  0  0  0  0  0  0  0
   37.8110   30.0320   38.7480 H   0  0  0  0  0  0  0  0  0  0  0  0
   35.9940   31.4450   39.1630 H   0  0  0  0  0  0  0  0  0  0  0  0
   36.2210   31.3870   40.9850 H   0  0  0  0  0  0  0  0  0  0  0  0
   35.8840   27.8110   40.8060 H   0  0  0  0  0  0  0  0  0  0  0  0
   35.0130   28.9290   41.8670 H   0  0  0  0  0  0  0  0  0  0  0  0
   37.0220   30.1700   42.3980 H   0  0  0  0  0  0  0  0  0  0  0  0
   40.1070   33.0950   38.8380 C   0  0  0  0  0  0  0  0  0  0  0  0
   39.8900   34.1100   39.8060 C   0  0  0  0  0  0  0  0  0  0  0  0
   38.9060   33.8220   40.7880 C   0  0  0  0  0  0  0  0  0  0  0  0
   38.2540   32.6400   40.7520 N   0  0  0  0  0  0  0  0  0  0  0  0
   38.5040   31.7200   39.8120 C   0  0  0  0  0  0  0  0  0  0  0  0
   39.4370   31.9540   38.8520 N   0  0  0  0  0  0  0  0  0  0  0  0
   40.4310   35.0480   39.8060 H   0  0  0  0  0  0  0  0  0  0  0  0
   38.7190   34.5760   41.5380 H   0  0  0  0  0  0  0  0  0  0  0  0
   41.0460   33.3600   37.8900 O   0  0  0  0  0  0  0  0  0  0  0  0
   41.8470   32.7980   37.6500 H   0  0  0  0  0  0  0  0  0  0  0  0
   39.4100   29.7620   41.4200 O   0  0  0  0  0  0  0  0  0  0  0  0
   39.1630   30.1640   42.2960 H   0  0  0  0  0  0  0  0  0  0  0  0
   37.5390   28.1950   42.6540 O   0  0  0  0  0  0  0  0  0  0  0  0
   39.9400   27.6270   43.6790 F   0  0  0  0  0  0  0  0  0  0  0  0
   39.0890   26.7090   43.1310 C   0  0  0  0  0  0  0  0  0  0  0  0
   37.8160   26.8880   42.5670 C   0  0  0  0  0  0  0  0  0  0  0  0
   37.2330   25.7410   42.1050 C   0  0  0  0  0  0  0  0  0  0  0  0
   36.2600   25.9090   41.6800 H   0  0  0  0  0  0  0  0  0  0  0  0
   37.7640   24.4760   42.1440 C   0  0  0  0  0  0  0  0  0  0  0  0
   37.1620   23.6880   41.7320 H   0  0  0  0  0  0  0  0  0  0  0  0
   39.0100   24.3520   42.7040 C   0  0  0  0  0  3  0  0  0  0  0  0
   39.7020   25.4490   43.2070 C   0  0  0  0  0  3  0  0  0  0  0  0
  1  7  1  6  0  0  0
  1 24  1  0  0  0  0
  1  6  1  0  0  0  0
  2  8  1  6  0  0  0
  2 18  1  0  0  0  0
  2  3  1  0  0  0  0
  2  1  1  0  0  0  0
  3 10  1  0  0  0  0
  4  3  1  0  0  0  0
  4  5  1  0  0  0  0
  5  6  1  0  0  0  0
  5 12  1  0  0  0  0
  6 13  1  1  0  0  0
  6 26  1  0  0  0  0
  9  3  1  0  0  0  0
 11  5  1  0  0  0  0
 14 19  2  0  0  0  0
 14 15  1  0  0  0  0
 15 16  2  0  0  0  0
 16 21  1  0  0  0  0
 17 16  1  0  0  0  0
 18 17  2  0  0  0  0
 19 18  1  0  0  0  0
 20 15  1  0  0  0  0
 22 14  1  0  0  0  0
 23 22  1  0  0  0  0
 24 25  1  0  0  0  0
 28 35  1  0  0  0  0
 28 27  1  0  0  0  0
 29 26  1  0  0  0  0
 29 28  2  0  0  0  0
 30 32  2  0  0  0  0
 30 29  1  0  0  0  0
 31 30  1  0  0  0  0
 32 34  1  0  0  0  0
 33 32  1  0  0  0  0
 34 35  2  0  0  0  0
M  END
>  <minimizedAffinity>
-5.76252317

$$$$

 OpenBabel03242518443D

 35 37  0  0  1  0  0  0  0  0999 V2000
   39.1400   31.3320   39.1680 C   0  0  2  0  0  0  0  0  0  0  0  0
   39.3260   32.7820   38.9820 C   0  0  1  0  0  0  0  0  0  0  0  0
   38.5740   33.5960   40.0660 C   0  0  0  0  0  0  0  0  0  0  0  0
   37.2520   33.1490   39.9380 O   0  0  0  0  0  0  0  0  0  0  0  0
   37.0860   31.8710   40.4330 C   0  0  0  0  0  0  0  0  0  0  0  0
   38.3630   31.0550   40.4420 C   0  0  1  0  0  0  0  0  0  0  0  0
   38.5660   30.8710   38.3390 H   0  0  0  0  0  0  0  0  0  0  0  0
   38.9330   33.1090   37.9940 H   0  0  0  0  0  0  0  0  0  0  0  0
   38.6170   34.6430   39.7320 H   0  0  0  0  0  0  0  0  0  0  0  0
   39.0250   33.4180   41.0380 H   0  0  0  0  0  0  0  0  0  0  0  0
   36.3650   31.3490   39.7810 H   0  0  0  0  0  0  0  0  0  0  0  0
   36.6410   31.8610   41.4530 H   0  0  0  0  0  0  0  0  0  0  0  0
   39.0140   31.4090   41.3210 H   0  0  0  0  0  0  0  0  0  0  0  0
   42.6810   33.9190   38.0230 C   0  0  0  0  0  0  0  0  0  0  0  0
   43.3330   34.1600   39.2610 C   0  0  0  0  0  0  0  0  0  0  0  0
   42.5590   33.9050   40.4230 C   0  0  0  0  0  0  0  0  0  0  0  0
   41.2900   33.4620   40.2950 N   0  0  0  0  0  0  0  0  0  0  0  0
   40.7290   33.2530   39.0970 C   0  0  0  0  0  0  0  0  0  0  0  0
   41.4330   33.4840   37.9590 N   0  0  0  0  0  0  0  0  0  0  0  0
   44.3540   34.5160   39.3280 H   0  0  0  0  0  0  0  0  0  0  0  0
   43.0290   34.0790   41.3790 H   0  0  0  0  0  0  0  0  0  0  0  0
   43.4130   34.1610   36.9020 O   0  0  0  0  0  0  0  0  0  0  0  0
   43.5930   33.5260   36.1410 H   0  0  0  0  0  0  0  0  0  0  0  0
   40.3300   30.5940   39.2160 O   0  0  0  0  0  0  0  0  0  0  0  0
   40.5540   30.4530   40.1750 H   0  0  0  0  0  0  0  0  0  0  0  0
   38.1130   29.7240   40.5580 O   0  0  0  0  0  0  0  0  0  0  0  0
   40.3040   28.8440   41.8080 F   0  0  0  0  0  0  0  0  0  0  0  0
   39.0270   28.4730   42.1190 C   0  0  0  0  0  0  0  0  0  0  0  0
   37.8100   28.8640   41.5390 C   0  0  0  0  0  0  0  0  0  0  0  0
   36.7030   28.2930   42.1010 C   0  0  0  0  0  0  0  0  0  0  0  0
   35.7870   28.6110   41.6380 H   0  0  0  0  0  0  0  0  0  0  0  0
   36.6780   27.4030   43.1460 C   0  0  0  0  0  0  0  0  0  0  0  0
   35.7120   27.0550   43.4590 H   0  0  0  0  0  0  0  0  0  0  0  0
   37.8920   27.0520   43.6790 C   0  0  0  0  0  3  0  0  0  0  0  0
   39.0870   27.5670   43.1900 C   0  0  0  0  0  3  0  0  0  0  0  0
  1  7  1  6  0  0  0
  1 24  1  0  0  0  0
  1  6  1  0  0  0  0
  2  8  1  6  0  0  0
  2 18  1  0  0  0  0
  2  1  1  0  0  0  0
  2  3  1  0  0  0  0
  3 10  1  0  0  0  0
  4  3  1  0  0  0  0
  4  5  1  0  0  0  0
  5  6  1  0  0  0  0
  5 12  1  0  0  0  0
  6 26  1  0  0  0  0
  6 13  1  1  0  0  0
  9  3  1  0  0  0  0
 11  5  1  0  0  0  0
 14 15  1  0  0  0  0
 15 20  1  0  0  0  0
 15 16  2  0  0  0  0
 16 21  1  0  0  0  0
 17 16  1  0  0  0  0
 18 17  2  0  0  0  0
 19 14  2  0  0  0  0
 19 18  1  0  0  0  0
 22 14  1  0  0  0  0
 23 22  1  0  0  0  0
 24 25  1  0  0  0  0
 26 29  1  0  0  0  0
 27 28  1  0  0  0  0
 28 35  1  0  0  0  0
 29 30  1  0  0  0  0
 29 28  2  0  0  0  0
 30 32  2  0  0  0  0
 31 30  1  0  0  0  0
 32 33  1  0  0  0  0
 32 34  1  0  0  0  0
 35 34  2  0  0  0  0
M  END
>  <minimizedAffinity>
-5.76150274

$$$$

 OpenBabel03242518443D

 35 37  0  0  1  0  0  0  0  0999 V2000
   38.7120   30.0770   40.5130 C   0  0  2  0  0  0  0  0  0  0  0  0
   38.3580   31.2140   39.6450 C   0  0  1  0  0  0  0  0  0  0  0  0
   37.1590   32.0140   40.2150 C   0  0  0  0  0  0  0  0  0  0  0  0
   36.1610   31.0380   40.3480 O   0  0  0  0  0  0  0  0  0  0  0  0
   36.4090   30.1830   41.4030 C   0  0  0  0  0  0  0  0  0  0  0  0
   37.8740   30.0930   41.7790 C   0  0  1  0  0  0  0  0  0  0  0  0
   38.5300   29.0990   40.0230 H   0  0  0  0  0  0  0  0  0  0  0  0
   38.0660   30.8620   38.6310 H   0  0  0  0  0  0  0  0  0  0  0  0
   36.8580   32.7060   39.4150 H   0  0  0  0  0  0  0  0  0  0  0  0
   37.4480   32.5000   41.1420 H   0  0  0  0  0  0  0  0  0  0  0  0
   36.0830   29.1730   41.1000 H   0  0  0  0  0  0  0  0  0  0  0  0
   35.8160   30.4380   42.3100 H   0  0  0  0  0  0  0  0  0  0  0  0
   38.1590   31.0420   42.3620 H   0  0  0  0  0  0  0  0  0  0  0  0
   41.0670   33.1830   38.1440 C   0  0  0  0  0  0  0  0  0  0  0  0
   41.3900   34.1440   39.1370 C   0  0  0  0  0  0  0  0  0  0  0  0
   40.6320   34.0670   40.3350 C   0  0  0  0  0  0  0  0  0  0  0  0
   39.6800   33.1180   40.4630 N   0  0  0  0  0  0  0  0  0  0  0  0
   39.4210   32.2370   39.4880 C   0  0  0  0  0  0  0  0  0  0  0  0
   40.1220   32.2740   38.3240 N   0  0  0  0  0  0  0  0  0  0  0  0
   42.1610   34.8930   39.0020 H   0  0  0  0  0  0  0  0  0  0  0  0
   40.8560   34.7860   41.1090 H   0  0  0  0  0  0  0  0  0  0  0  0
   41.7850   33.2470   36.9900 O   0  0  0  0  0  0  0  0  0  0  0  0
   42.3090   32.5050   36.5540 H   0  0  0  0  0  0  0  0  0  0  0  0
   40.0620   30.0300   40.8870 O   0  0  0  0  0  0  0  0  0  0  0  0
   40.1360   30.4420   41.7890 H   0  0  0  0  0  0  0  0  0  0  0  0
   38.1390   28.9910   42.5300 O   0  0  0  0  0  0  0  0  0  0  0  0
   40.2930   27.7210   43.4700 F   0  0  0  0  0  0  0  0  0  0  0  0
   39.2040   27.1070   42.9200 C   0  0  0  0  0  0  0  0  0  0  0  0
   38.0260   27.6640   42.3970 C   0  0  0  0  0  0  0  0  0  0  0  0
   37.1290   26.7500   41.9190 C   0  0  0  0  0  0  0  0  0  0  0  0
   36.2380   27.2050   41.5260 H   0  0  0  0  0  0  0  0  0  0  0  0
   37.2740   25.3850   41.9070 C   0  0  0  0  0  0  0  0  0  0  0  0
   36.4630   24.8190   41.4890 H   0  0  0  0  0  0  0  0  0  0  0  0
   38.4410   24.8890   42.4280 C   0  0  0  0  0  3  0  0  0  0  0  0
   39.4290   25.7220   42.9430 C   0  0  0  0  0  3  0  0  0  0  0  0
  1  7  1  6  0  0  0
  1 24  1  0  0  0  0
  1  6  1  0  0  0  0
  2  8  1  6  0  0  0
  2  3  1  0  0  0  0
  2  1  1  0  0  0  0
  3  4  1  0  0  0  0
  3 10  1  0  0  0  0
  4  5  1  0  0  0  0
  5  6  1  0  0  0  0
  5 12  1  0  0  0  0
  6 13  1  1  0  0  0
  6 26  1  0  0  0  0
  9  3  1  0  0  0  0
 11  5  1  0  0  0  0
 14 19  2  0  0  0  0
 14 15  1  0  0  0  0
 15 16  2  0  0  0  0
 16 17  1  0  0  0  0
 16 21  1  0  0  0  0
 18  2  1  0  0  0  0
 18 17  2  0  0  0  0
 19 18  1  0  0  0  0
 20 15  1  0  0  0  0
 22 14  1  0  0  0  0
 23 22  1  0  0  0  0
 24 25  1  0  0  0  0
 28 35  1  0  0  0  0
 28 27  1  0  0  0  0
 29 26  1  0  0  0  0
 29 28  2  0  0  0  0
 30 29  1  0  0  0  0
 31 30  1  0  0  0  0
 32 30  2  0  0  0  0
 32 34  1  0  0  0  0
 33 32  1  0  0  0  0
 34 35  2  0  0  0  0
M  END
>  <minimizedAffinity>
-5.71975851

$$$$

 OpenBabel03242518443D

 35 37  0  0  1  0  0  0  0  0999 V2000
   38.6870   27.7960   41.1300 C   0  0  2  0  0  0  0  0  0  0  0  0
   38.0950   26.7090   41.9300 C   0  0  1  0  0  0  0  0  0  0  0  0
   36.8390   27.1890   42.7020 C   0  0  0  0  0  0  0  0  0  0  0  0
   37.3180   28.2770   43.4440 O   0  0  0  0  0  0  0  0  0  0  0  0
   37.5560   29.3820   42.6520 C   0  0  0  0  0  0  0  0  0  0  0  0
   37.8190   29.0400   41.1990 C   0  0  1  0  0  0  0  0  0  0  0  0
   39.6930   28.0880   41.4940 H   0  0  0  0  0  0  0  0  0  0  0  0
   38.8200   26.3330   42.6860 H   0  0  0  0  0  0  0  0  0  0  0  0
   36.5930   26.3770   43.4010 H   0  0  0  0  0  0  0  0  0  0  0  0
   36.0460   27.4300   41.9990 H   0  0  0  0  0  0  0  0  0  0  0  0
   38.4570   29.8870   43.0400 H   0  0  0  0  0  0  0  0  0  0  0  0
   36.7360   30.1320   42.7050 H   0  0  0  0  0  0  0  0  0  0  0  0
   36.8170   28.7830   40.6980 H   0  0  0  0  0  0  0  0  0  0  0  0
   37.6950   23.2590   40.7450 C   0  0  0  0  0  0  0  0  0  0  0  0
   36.7030   23.3520   39.7330 C   0  0  0  0  0  0  0  0  0  0  0  0
   36.1970   24.6550   39.4880 C   0  0  0  0  0  0  0  0  0  0  0  0
   36.6670   25.7000   40.2030 N   0  0  0  0  0  0  0  0  0  0  0  0
   37.6060   25.5480   41.1460 C   0  0  0  0  0  0  0  0  0  0  0  0
   38.1190   24.3190   41.4140 N   0  0  0  0  0  0  0  0  0  0  0  0
   36.3480   22.4930   39.1780 H   0  0  0  0  0  0  0  0  0  0  0  0
   35.4410   24.7570   38.7240 H   0  0  0  0  0  0  0  0  0  0  0  0
   38.1870   22.0150   40.9900 O   0  0  0  0  0  0  0  0  0  0  0  0
   39.1530   21.7280   40.9840 H   0  0  0  0  0  0  0  0  0  0  0  0
   38.8860   27.4800   39.7790 O   0  0  0  0  0  0  0  0  0  0  0  0
   38.1110   27.8420   39.2710 H   0  0  0  0  0  0  0  0  0  0  0  0
   38.4180   30.0650   40.5370 O   0  0  0  0  0  0  0  0  0  0  0  0
   40.2230   31.7200   41.6040 F   0  0  0  0  0  0  0  0  0  0  0  0
   39.1470   32.1150   40.8600 C   0  0  0  0  0  0  0  0  0  0  0  0
   38.1420   31.3450   40.2540 C   0  0  0  0  0  0  0  0  0  0  0  0
   37.2030   32.0690   39.5750 C   0  0  0  0  0  0  0  0  0  0  0  0
   36.4470   31.4530   39.1220 H   0  0  0  0  0  0  0  0  0  0  0  0
   37.1590   33.4340   39.4390 C   0  0  0  0  0  0  0  0  0  0  0  0
   36.3420   33.8340   38.8680 H   0  0  0  0  0  0  0  0  0  0  0  0
   38.1620   34.1430   40.0480 C   0  0  0  0  0  3  0  0  0  0  0  0
   39.1730   33.5150   40.7680 C   0  0  0  0  0  3  0  0  0  0  0  0
  1  6  1  0  0  0  0
  1  7  1  1  0  0  0
  1  2  1  0  0  0  0
  2  8  1  1  0  0  0
  2  3  1  0  0  0  0
  3  9  1  0  0  0  0
  3  4  1  0  0  0  0
  5 12  1  0  0  0  0
  5 11  1  0  0  0  0
  5  4  1  0  0  0  0
  6 13  1  6  0  0  0
  6  5  1  0  0  0  0
 10  3  1  0  0  0  0
 14 22  1  0  0  0  0
 14 19  1  0  0  0  0
 15 14  2  0  0  0  0
 16 15  1  0  0  0  0
 16 17  2  0  0  0  0
 17 18  1  0  0  0  0
 18 19  2  0  0  0  0
 18  2  1  0  0  0  0
 20 15  1  0  0  0  0
 21 16  1  0  0  0  0
 23 22  1  0  0  0  0
 24  1  1  0  0  0  0
 25 24  1  0  0  0  0
 26  6  1  0  0  0  0
 28 27  1  0  0  0  0
 29 26  1  0  0  0  0
 29 28  2  0  0  0  0
 30 29  1  0  0  0  0
 31 30  1  0  0  0  0
 32 30  2  0  0  0  0
 32 34  1  0  0  0  0
 33 32  1  0  0  0  0
 34 35  2  0  0  0  0
 35 28  1  0  0  0  0
M  END
>  <minimizedAffinity>
-5.5833807

$$$$

 OpenBabel03242518443D

 35 37  0  0  1  0  0  0  0  0999 V2000
   36.5220   28.6410   41.1540 C   0  0  2  0  0  0  0  0  0  0  0  0
   37.0800   29.8430   41.7980 C   0  0  1  0  0  0  0  0  0  0  0  0
   38.1980   29.4800   42.8100 C   0  0  0  0  0  0  0  0  0  0  0  0
   37.5600   28.5840   43.6790 O   0  0  0  0  0  0  0  0  0  0  0  0
   37.3500   27.3520   43.0930 C   0  0  0  0  0  0  0  0  0  0  0  0
   37.2920   27.4030   41.5800 C   0  0  1  0  0  0  0  0  0  0  0  0
   35.4620   28.4680   41.4300 H   0  0  0  0  0  0  0  0  0  0  0  0
   36.2930   30.3920   42.3620 H   0  0  0  0  0  0  0  0  0  0  0  0
   38.4080   30.4060   43.3640 H   0  0  0  0  0  0  0  0  0  0  0  0
   39.0540   29.0710   42.2810 H   0  0  0  0  0  0  0  0  0  0  0  0
   36.3770   26.9720   43.4490 H   0  0  0  0  0  0  0  0  0  0  0  0
   38.1070   26.5960   43.4020 H   0  0  0  0  0  0  0  0  0  0  0  0
   38.3630   27.5140   41.1780 H   0  0  0  0  0  0  0  0  0  0  0  0
   37.6100   32.7900   39.6780 C   0  0  0  0  0  0  0  0  0  0  0  0
   38.9310   32.6290   39.1830 C   0  0  0  0  0  0  0  0  0  0  0  0
   39.6110   31.4600   39.6150 C   0  0  0  0  0  0  0  0  0  0  0  0
   38.9880   30.5940   40.4420 N   0  0  0  0  0  0  0  0  0  0  0  0
   37.7380   30.8010   40.8760 C   0  0  0  0  0  0  0  0  0  0  0  0
   37.0500   31.9070   40.4880 N   0  0  0  0  0  0  0  0  0  0  0  0
   39.4020   33.3440   38.5190 H   0  0  0  0  0  0  0  0  0  0  0  0
   40.6170   31.3110   39.2550 H   0  0  0  0  0  0  0  0  0  0  0  0
   36.9500   33.9080   39.2710 O   0  0  0  0  0  0  0  0  0  0  0  0
   36.0480   33.9560   38.8250 H   0  0  0  0  0  0  0  0  0  0  0  0
   36.5120   28.6850   39.7530 O   0  0  0  0  0  0  0  0  0  0  0  0
   37.3190   28.1980   39.4340 H   0  0  0  0  0  0  0  0  0  0  0  0
   36.7130   26.2900   41.0560 O   0  0  0  0  0  0  0  0  0  0  0  0
   37.1660   24.0930   42.5060 F   0  0  0  0  0  0  0  0  0  0  0  0
   37.2960   24.1710   41.1490 C   0  0  0  0  0  0  0  0  0  0  0  0
   37.0880   25.2600   40.2870 C   0  0  0  0  0  0  0  0  0  0  0  0
   37.3110   24.9900   38.9660 C   0  0  0  0  0  0  0  0  0  0  0  0
   37.1440   25.8400   38.3310 H   0  0  0  0  0  0  0  0  0  0  0  0
   37.7070   23.7900   38.4280 C   0  0  0  0  0  0  0  0  0  0  0  0
   37.8350   23.7590   37.3630 H   0  0  0  0  0  0  0  0  0  0  0  0
   37.8970   22.7570   39.3100 C   0  0  0  0  0  3  0  0  0  0  0  0
   37.7010   22.9130   40.6780 C   0  0  0  0  0  3  0  0  0  0  0  0
  1  7  1  1  0  0  0
  1  6  1  0  0  0  0
  1  2  1  0  0  0  0
  2  8  1  1  0  0  0
  2  3  1  0  0  0  0
  3  9  1  0  0  0  0
  3  4  1  0  0  0  0
  5 12  1  0  0  0  0
  5 11  1  0  0  0  0
  5  4  1  0  0  0  0
  6 13  1  6  0  0  0
  6  5  1  0  0  0  0
 10  3  1  0  0  0  0
 14 19  1  0  0  0  0
 15 16  1  0  0  0  0
 15 14  2  0  0  0  0
 16 17  2  0  0  0  0
 17 18  1  0  0  0  0
 18  2  1  0  0  0  0
 19 18  2  0  0  0  0
 20 15  1  0  0  0  0
 21 16  1  0  0  0  0
 22 14  1  0  0  0  0
 23 22  1  0  0  0  0
 24  1  1  0  0  0  0
 25 24  1  0  0  0  0
 26  6  1  0  0  0  0
 28 27  1  0  0  0  0
 29 26  1  0  0  0  0
 29 28  2  0  0  0  0
 30 29  1  0  0  0  0
 31 30  1  0  0  0  0
 32 30  2  0  0  0  0
 32 34  1  0  0  0  0
 33 32  1  0  0  0  0
 34 35  2  0  0  0  0
 35 28  1  0  0  0  0
M  END
>  <minimizedAffinity>
-5.56199455

$$$$

 OpenBabel03242518443D

 35 37  0  0  1  0  0  0  0  0999 V2000
   33.8710   28.4540   37.8110 C   0  0  2  0  0  0  0  0  0  0  0  0
   35.3060   28.2520   38.0770 C   0  0  1  0  0  0  0  0  0  0  0  0
   36.1860   28.8830   36.9670 C   0  0  0  0  0  0  0  0  0  0  0  0
   35.7090   28.2710   35.7990 O   0  0  0  0  0  0  0  0  0  0  0  0
   34.4680   28.7510   35.4310 C   0  0  0  0  0  0  0  0  0  0  0  0
   33.6750   29.3290   36.5870 C   0  0  1  0  0  0  0  0  0  0  0  0
   33.3420   27.5000   37.6100 H   0  0  0  0  0  0  0  0  0  0  0  0
   35.5540   27.1680   38.1160 H   0  0  0  0  0  0  0  0  0  0  0  0
   37.2060   28.5180   37.1540 H   0  0  0  0  0  0  0  0  0  0  0  0
   36.0860   29.9640   36.9890 H   0  0  0  0  0  0  0  0  0  0  0  0
   33.8880   27.9050   35.0240 H   0  0  0  0  0  0  0  0  0  0  0  0
   34.5250   29.5060   34.6160 H   0  0  0  0  0  0  0  0  0  0  0  0
   34.1020   30.3660   36.8380 H   0  0  0  0  0  0  0  0  0  0  0  0
   36.3770   30.8300   40.4590 C   0  0  0  0  0  0  0  0  0  0  0  0
   36.7090   30.1030   41.6330 C   0  0  0  0  0  0  0  0  0  0  0  0
   36.5480   28.6950   41.5490 C   0  0  0  0  0  0  0  0  0  0  0  0
   36.1050   28.1420   40.4000 N   0  0  0  0  0  0  0  0  0  0  0  0
   35.8080   28.8820   39.3240 C   0  0  0  0  0  0  0  0  0  0  0  0
   35.9470   30.2330   39.3600 N   0  0  0  0  0  0  0  0  0  0  0  0
   37.0620   30.5790   42.5390 H   0  0  0  0  0  0  0  0  0  0  0  0
   36.7930   28.1160   42.4260 H   0  0  0  0  0  0  0  0  0  0  0  0
   36.5260   32.1810   40.5280 O   0  0  0  0  0  0  0  0  0  0  0  0
   37.0600   32.7690   39.9090 H   0  0  0  0  0  0  0  0  0  0  0  0
   33.1590   29.0270   38.8730 O   0  0  0  0  0  0  0  0  0  0  0  0
   33.0920   30.0040   38.6940 H   0  0  0  0  0  0  0  0  0  0  0  0
   32.3520   29.4320   36.2930 O   0  0  0  0  0  0  0  0  0  0  0  0
   32.2580   30.8480   34.0290 F   0  0  0  0  0  0  0  0  0  0  0  0
   31.4500   31.0540   35.1110 C   0  0  0  0  0  0  0  0  0  0  0  0
   31.4070   30.3800   36.3430 C   0  0  0  0  0  0  0  0  0  0  0  0
   30.4640   30.8490   37.2130 C   0  0  0  0  0  0  0  0  0  0  0  0
   30.4540   30.3150   38.1460 H   0  0  0  0  0  0  0  0  0  0  0  0
   29.5870   31.8820   36.9970 C   0  0  0  0  0  0  0  0  0  0  0  0
   28.9110   32.1150   37.7980 H   0  0  0  0  0  0  0  0  0  0  0  0
   29.6670   32.5080   35.7800 C   0  0  0  0  0  3  0  0  0  0  0  0
   30.5880   32.1200   34.8120 C   0  0  0  0  0  3  0  0  0  0  0  0
  1  7  1  6  0  0  0
  1  2  1  0  0  0  0
  1 24  1  0  0  0  0
  2  8  1  1  0  0  0
  2 18  1  0  0  0  0
  3 10  1  0  0  0  0
  3  9  1  0  0  0  0
  3  2  1  0  0  0  0
  4  3  1  0  0  0  0
  5  4  1  0  0  0  0
  5  6  1  0  0  0  0
  6 13  1  1  0  0  0
  6  1  1  0  0  0  0
 11  5  1  0  0  0  0
 12  5  1  0  0  0  0
 14 22  1  0  0  0  0
 14 15  1  0  0  0  0
 15 20  1  0  0  0  0
 16 15  2  0  0  0  0
 16 21  1  0  0  0  0
 17 16  1  0  0  0  0
 18 19  1  0  0  0  0
 18 17  2  0  0  0  0
 19 14  2  0  0  0  0
 23 22  1  0  0  0  0
 25 24  1  0  0  0  0
 26 29  1  0  0  0  0
 26  6  1  0  0  0  0
 27 28  1  0  0  0  0
 28 29  1  0  0  0  0
 29 30  2  0  0  0  0
 30 31  1  0  0  0  0
 32 30  1  0  0  0  0
 32 33  1  0  0  0  0
 34 32  2  0  0  0  0
 35 28  2  0  0  0  0
 35 34  1  0  0  0  0
M  END
>  <minimizedAffinity>
-5.52604103

$$$$

 OpenBabel03242518443D

 35 37  0  0  1  0  0  0  0  0999 V2000
   35.8570   28.5360   40.3710 C   0  0  2  0  0  0  0  0  0  0  0  0
   35.6790   29.6770   39.4560 C   0  0  1  0  0  0  0  0  0  0  0  0
   36.8160   30.7190   39.6160 C   0  0  0  0  0  0  0  0  0  0  0  0
   36.7620   31.0400   40.9790 O   0  0  0  0  0  0  0  0  0  0  0  0
   37.2500   30.0210   41.7720 C   0  0  0  0  0  0  0  0  0  0  0  0
   37.1720   28.6550   41.1190 C   0  0  1  0  0  0  0  0  0  0  0  0
   35.0580   28.4820   41.1380 H   0  0  0  0  0  0  0  0  0  0  0  0
   34.7200   30.2040   39.6610 H   0  0  0  0  0  0  0  0  0  0  0  0
   36.4930   31.6000   39.0420 H   0  0  0  0  0  0  0  0  0  0  0  0
   37.7570   30.2890   39.2840 H   0  0  0  0  0  0  0  0  0  0  0  0
   36.6350   29.9850   42.6880 H   0  0  0  0  0  0  0  0  0  0  0  0
   38.2950   30.2030   42.1100 H   0  0  0  0  0  0  0  0  0  0  0  0
   38.0140   28.5760   40.3410 H   0  0  0  0  0  0  0  0  0  0  0  0
   36.9880   28.7780   36.1480 C   0  0  0  0  0  0  0  0  0  0  0  0
   35.8300   28.6640   35.3340 C   0  0  0  0  0  0  0  0  0  0  0  0
   34.5950   28.9180   35.9860 C   0  0  0  0  0  0  0  0  0  0  0  0
   34.5870   29.2430   37.2970 N   0  0  0  0  0  0  0  0  0  0  0  0
   35.7150   29.3340   38.0120 C   0  0  0  0  0  0  0  0  0  0  0  0
   36.9190   29.1000   37.4290 N   0  0  0  0  0  0  0  0  0  0  0  0
   35.8720   28.4020   34.2850 H   0  0  0  0  0  0  0  0  0  0  0  0
   33.6970   28.8390   35.3930 H   0  0  0  0  0  0  0  0  0  0  0  0
   38.1780   28.5350   35.5340 O   0  0  0  0  0  0  0  0  0  0  0  0
   38.9840   29.1390   35.5040 H   0  0  0  0  0  0  0  0  0  0  0  0
   35.8240   27.2810   39.7480 O   0  0  0  0  0  0  0  0  0  0  0  0
   36.7660   27.0030   39.5900 H   0  0  0  0  0  0  0  0  0  0  0  0
   37.2860   27.6510   42.0290 O   0  0  0  0  0  0  0  0  0  0  0  0
   36.9390   25.0640   41.4590 F   0  0  0  0  0  0  0  0  0  0  0  0
   37.9830   25.5710   42.1810 C   0  0  0  0  0  0  0  0  0  0  0  0
   38.2670   26.8980   42.5410 C   0  0  0  0  0  0  0  0  0  0  0  0
   39.4080   27.0540   43.2760 C   0  0  0  0  0  0  0  0  0  0  0  0
   39.6000   28.0790   43.5360 H   0  0  0  0  0  0  0  0  0  0  0  0
   40.2680   26.0640   43.6800 C   0  0  0  0  0  0  0  0  0  0  0  0
   41.1210   26.3720   44.2560 H   0  0  0  0  0  0  0  0  0  0  0  0
   39.9480   24.7850   43.3040 C   0  0  0  0  0  3  0  0  0  0  0  0
   38.8110   24.5010   42.5550 C   0  0  0  0  0  3  0  0  0  0  0  0
  1  6  1  0  0  0  0
  1  7  1  1  0  0  0
  2  3  1  0  0  0  0
  2  8  1  1  0  0  0
  2  1  1  0  0  0  0
  3  4  1  0  0  0  0
  4  5  1  0  0  0  0
  5 12  1  0  0  0  0
  5 11  1  0  0  0  0
  6 13  1  6  0  0  0
  6  5  1  0  0  0  0
  6 26  1  0  0  0  0
  9  3  1  0  0  0  0
 10  3  1  0  0  0  0
 14 19  1  0  0  0  0
 15 16  1  0  0  0  0
 15 14  2  0  0  0  0
 16 17  2  0  0  0  0
 17 18  1  0  0  0  0
 18  2  1  0  0  0  0
 19 18  2  0  0  0  0
 20 15  1  0  0  0  0
 21 16  1  0  0  0  0
 22 14  1  0  0  0  0
 23 22  1  0  0  0  0
 24  1  1  0  0  0  0
 25 24  1  0  0  0  0
 26 29  1  0  0  0  0
 27 28  1  0  0  0  0
 28 29  2  0  0  0  0
 28 35  1  0  0  0  0
 29 30  1  0  0  0  0
 30 31  1  0  0  0  0
 30 32  2  0  0  0  0
 32 33  1  0  0  0  0
 34 32  1  0  0  0  0
 35 34  2  0  0  0  0
M  END
>  <minimizedAffinity>
-5.43571711

$$$$

 OpenBabel03242518443D

 35 37  0  0  1  0  0  0  0  0999 V2000
   38.4500   29.7240   39.5540 C   0  0  2  0  0  0  0  0  0  0  0  0
   37.9730   31.1100   39.4010 C   0  0  1  0  0  0  0  0  0  0  0  0
   37.1100   31.5520   40.6110 C   0  0  0  0  0  0  0  0  0  0  0  0
   36.1010   30.5790   40.6530 O   0  0  0  0  0  0  0  0  0  0  0  0
   36.5690   29.3660   41.1160 C   0  0  0  0  0  0  0  0  0  0  0  0
   38.0590   29.1740   40.9130 C   0  0  1  0  0  0  0  0  0  0  0  0
   38.0140   29.0420   38.7960 H   0  0  0  0  0  0  0  0  0  0  0  0
   37.3390   31.2120   38.4920 H   0  0  0  0  0  0  0  0  0  0  0  0
   36.6540   32.5080   40.3160 H   0  0  0  0  0  0  0  0  0  0  0  0
   37.7290   31.6070   41.5020 H   0  0  0  0  0  0  0  0  0  0  0  0
   36.0540   28.5700   40.5520 H   0  0  0  0  0  0  0  0  0  0  0  0
   36.3230   29.1920   42.1880 H   0  0  0  0  0  0  0  0  0  0  0  0
   38.6160   29.7940   41.7040 H   0  0  0  0  0  0  0  0  0  0  0  0
   40.7870   33.0950   38.1340 C   0  0  0  0  0  0  0  0  0  0  0  0
   41.0230   34.0530   39.1540 C   0  0  0  0  0  0  0  0  0  0  0  0
   40.1710   33.9680   40.2870 C   0  0  0  0  0  0  0  0  0  0  0  0
   39.2160   33.0150   40.3320 N   0  0  0  0  0  0  0  0  0  0  0  0
   39.0410   32.1380   39.3350 C   0  0  0  0  0  0  0  0  0  0  0  0
   39.8340   32.1830   38.2330 N   0  0  0  0  0  0  0  0  0  0  0  0
   41.8000   34.8050   39.0870 H   0  0  0  0  0  0  0  0  0  0  0  0
   40.3280   34.6830   41.0790 H   0  0  0  0  0  0  0  0  0  0  0  0
   41.5970   33.1680   37.0430 O   0  0  0  0  0  0  0  0  0  0  0  0
   42.1570   32.4300   36.6480 H   0  0  0  0  0  0  0  0  0  0  0  0
   39.8350   29.5670   39.4050 O   0  0  0  0  0  0  0  0  0  0  0  0
   40.2340   29.5600   40.3160 H   0  0  0  0  0  0  0  0  0  0  0  0
   38.4200   27.8670   41.0100 O   0  0  0  0  0  0  0  0  0  0  0  0
   38.0110   26.5110   38.7450 F   0  0  0  0  0  0  0  0  0  0  0  0
   37.6500   26.0770   39.9890 C   0  0  0  0  0  0  0  0  0  0  0  0
   37.8120   26.6960   41.2390 C   0  0  0  0  0  0  0  0  0  0  0  0
   37.3310   25.9750   42.2960 C   0  0  0  0  0  0  0  0  0  0  0  0
   37.4680   26.4730   43.2390 H   0  0  0  0  0  0  0  0  0  0  0  0
   36.7260   24.7440   42.2440 C   0  0  0  0  0  0  0  0  0  0  0  0
   36.4080   24.3240   43.1790 H   0  0  0  0  0  0  0  0  0  0  0  0
   36.5910   24.1800   41.0010 C   0  0  0  0  0  3  0  0  0  0  0  0
   37.0420   24.8200   39.8510 C   0  0  0  0  0  3  0  0  0  0  0  0
  1  7  1  6  0  0  0
  1  6  1  0  0  0  0
  2  8  1  6  0  0  0
  2  1  1  0  0  0  0
  2  3  1  0  0  0  0
  3  4  1  0  0  0  0
  3 10  1  0  0  0  0
  4  5  1  0  0  0  0
  5 12  1  0  0  0  0
  6 26  1  0  0  0  0
  6  5  1  0  0  0  0
  6 13  1  1  0  0  0
  9  3  1  0  0  0  0
 11  5  1  0  0  0  0
 14 19  2  0  0  0  0
 14 15  1  0  0  0  0
 15 16  2  0  0  0  0
 16 17  1  0  0  0  0
 16 21  1  0  0  0  0
 18  2  1  0  0  0  0
 18 17  2  0  0  0  0
 19 18  1  0  0  0  0
 20 15  1  0  0  0  0
 22 14  1  0  0  0  0
 23 22  1  0  0  0  0
 24  1  1  0  0  0  0
 24 25  1  0  0  0  0
 26 29  1  0  0  0  0
 27 28  1  0  0  0  0
 28 29  1  0  0  0  0
 29 30  2  0  0  0  0
 30 31  1  0  0  0  0
 32 30  1  0  0  0  0
 32 33  1  0  0  0  0
 34 32  2  0  0  0  0
 35 28  2  0  0  0  0
 35 34  1  0  0  0  0
M  END
>  <minimizedAffinity>
-5.37221193

$$$$
