
 OpenBabel03252509283D

 21 22  0  0  0  0  0  0  0  0999 V2000
   47.0980   35.0430   41.9160 C   0  0  0  0  0  0  0  0  0  0  0  0
   48.1070   34.6130   42.1780 H   0  0  0  0  0  0  0  0  0  0  0  0
   47.1630   36.0720   41.5530 H   0  0  0  0  0  0  0  0  0  0  0  0
   44.5660   35.9550   44.4860 C   0  0  0  0  0  0  0  0  0  0  0  0
   45.3480   35.9910   43.3140 C   0  0  0  0  0  0  0  0  0  0  0  0
   46.3030   34.9750   43.1420 C   0  0  0  0  0  0  0  0  0  0  0  0
   46.4210   34.0220   44.1020 N   0  0  0  0  0  0  0  0  0  0  0  0
   45.6520   34.0240   45.2090 C   0  0  0  0  0  0  0  0  0  0  0  0
   44.7340   34.9920   45.3860 N   0  0  0  0  0  0  0  0  0  0  0  0
   43.8380   36.7510   44.5920 H   0  0  0  0  0  0  0  0  0  0  0  0
   45.2140   36.7760   42.5780 H   0  0  0  0  0  0  0  0  0  0  0  0
   45.7680   33.2480   45.9610 H   0  0  0  0  0  0  0  0  0  0  0  0
   48.4400   34.6550   39.4930 F   0  0  0  0  0  0  0  0  0  0  0  0
   47.2430   33.9920   39.5980 C   0  0  0  0  0  0  0  0  0  0  0  0
   46.5900   34.2000   40.8150 C   0  0  0  0  0  0  0  0  0  0  0  0
   45.3840   33.5550   40.9670 C   0  0  0  0  0  0  0  0  0  0  0  0
   44.7740   33.6280   41.8550 H   0  0  0  0  0  0  0  0  0  0  0  0
   44.8470   32.7460   39.9700 C   0  0  0  0  0  0  0  0  0  0  0  0
   43.8990   32.2290   40.0710 H   0  0  0  0  0  0  0  0  0  0  0  0
   45.5000   32.5520   38.7810 C   0  0  0  0  0  3  0  0  0  0  0  0
   46.7150   33.1910   38.6090 C   0  0  0  0  0  3  0  0  0  0  0  0
  1  2  1  0  0  0  0
  1  6  1  0  0  0  0
  3  1  1  0  0  0  0
  4 10  1  0  0  0  0
  4  9  1  0  0  0  0
  5  4  2  0  0  0  0
  6  5  1  0  0  0  0
  6  7  2  0  0  0  0
  7  8  1  0  0  0  0
  8  9  2  0  0  0  0
  8 12  1  0  0  0  0
 11  5  1  0  0  0  0
 13 14  1  0  0  0  0
 14 15  1  0  0  0  0
 15 16  2  0  0  0  0
 15  1  1  0  0  0  0
 16 17  1  0  0  0  0
 18 19  1  0  0  0  0
 18 16  1  0  0  0  0
 20 18  2  0  0  0  0
 21 20  1  0  0  0  0
 21 14  2  0  0  0  0
M  END
>  <minimizedAffinity>
-4.24039459

>  <minimizedRMSD>
0.361829937

$$$$
