
 OpenBabel03252503223D

 40 44  0  0  1  0  0  0  0  0999 V2000
   34.5770   29.2900   37.6680 C   0  0  1  0  0  0  0  0  0  0  0  0
   34.3850   28.5810   36.4190 C   0  0  0  0  0  0  0  0  0  0  0  0
   33.2530   28.6280   37.4130 C   0  0  2  0  0  0  0  0  0  0  0  0
   34.5920   30.4190   37.7350 H   0  0  0  0  0  0  0  0  0  0  0  0
   34.9420   27.6120   36.3130 H   0  0  0  0  0  0  0  0  0  0  0  0
   34.2070   29.0820   35.4530 H   0  0  0  0  0  0  0  0  0  0  0  0
   33.0440   27.6890   37.9240 H   0  0  0  0  0  0  0  0  0  0  0  0
   32.1410   29.5550   37.0840 C   0  0  0  0  0  0  0  0  0  0  0  0
   31.1650   29.9460   38.0000 C   0  0  0  0  0  0  0  0  0  0  0  0
   30.1580   30.8210   37.6480 C   0  0  0  0  0  0  0  0  0  0  0  0
   30.1020   31.3290   36.3670 C   0  0  0  0  0  0  0  0  0  0  0  0
   29.1320   32.1980   35.9670 N   0  0  0  0  0  0  0  0  0  0  0  0
   29.1000   32.6860   34.7070 C   0  0  0  0  0  0  0  0  0  0  0  0
   30.0500   32.3420   33.7290 C   0  0  0  0  0  0  0  0  0  0  0  0
   31.0450   31.4620   34.1010 C   0  0  0  0  0  0  0  0  0  0  0  0
   31.0560   30.9690   35.4120 C   0  0  0  0  0  0  0  0  0  0  0  0
   32.0420   30.0870   35.8210 C   0  0  0  0  0  0  0  0  0  0  0  0
   31.2350   29.5320   38.9990 H   0  0  0  0  0  0  0  0  0  0  0  0
   29.3960   31.1290   38.3560 H   0  0  0  0  0  0  0  0  0  0  0  0
   28.3370   33.3780   34.3710 H   0  0  0  0  0  0  0  0  0  0  0  0
   29.9990   32.7470   32.7350 H   0  0  0  0  0  0  0  0  0  0  0  0
   31.7840   31.1770   33.3810 H   0  0  0  0  0  0  0  0  0  0  0  0
   32.7300   29.8500   35.0120 H   0  0  0  0  0  0  0  0  0  0  0  0
   36.6110   27.9980   38.4150 C   0  0  0  0  0  0  0  0  0  0  0  0
   35.4440   28.7380   38.7410 C   0  0  0  0  0  0  0  0  0  0  0  0
   35.1470   28.9250   40.0780 C   0  0  0  0  0  0  0  0  0  0  0  0
   35.9980   28.3820   40.9970 N   0  0  0  0  0  0  0  0  0  0  0  0
   37.0970   27.6850   40.6690 C   0  0  0  0  0  0  0  0  0  0  0  0
   37.4060   27.4900   39.3670 N   0  0  0  0  0  0  0  0  0  0  0  0
   36.8100   27.8730   37.3700 H   0  0  0  0  0  0  0  0  0  0  0  0
   34.2740   29.4790   40.3880 H   0  0  0  0  0  0  0  0  0  0  0  0
   38.6060   29.2740   42.4880 F   0  0  0  0  0  0  0  0  0  0  0  0
   38.7010   27.9150   42.5410 C   0  0  0  0  0  0  0  0  0  0  0  0
   37.9860   27.1180   41.6760 C   0  0  0  0  0  0  0  0  0  0  0  0
   38.1520   25.7520   41.8140 C   0  0  0  0  0  0  0  0  0  0  0  0
   37.5710   25.1380   41.1130 H   0  0  0  0  0  0  0  0  0  0  0  0
   38.9990   25.2350   42.7760 C   0  0  0  0  0  0  0  0  0  0  0  0
   39.0210   24.1490   42.7560 H   0  0  0  0  0  0  0  0  0  0  0  0
   39.7040   26.0510   43.6280 C   0  0  0  0  0  3  0  0  0  0  0  0
   39.5540   27.4230   43.5120 C   0  0  0  0  0  3  0  0  0  0  0  0
  1  4  1  6  0  0  0
  1 25  1  0  0  0  0
  2  3  1  0  0  0  0
  2  1  1  0  0  0  0
  3  1  1  0  0  0  0
  3  7  1  1  0  0  0
  5  2  1  0  0  0  0
  6  2  1  0  0  0  0
  8  3  1  0  0  0  0
  8  9  1  0  0  0  0
  9 18  1  0  0  0  0
 10  9  2  0  0  0  0
 10 19  1  0  0  0  0
 11 10  1  0  0  0  0
 12 11  1  0  0  0  0
 13 12  2  0  0  0  0
 14 15  2  0  0  0  0
 14 13  1  0  0  0  0
 15 16  1  0  0  0  0
 16 17  1  0  0  0  0
 16 11  2  0  0  0  0
 17  8  2  0  0  0  0
 20 13  1  0  0  0  0
 21 14  1  0  0  0  0
 22 15  1  0  0  0  0
 23 17  1  0  0  0  0
 24 25  2  0  0  0  0
 24 29  1  0  0  0  0
 25 26  1  0  0  0  0
 26 31  1  0  0  0  0
 26 27  2  0  0  0  0
 28 27  1  0  0  0  0
 28 34  1  0  0  0  0
 29 28  2  0  0  0  0
 30 24  1  0  0  0  0
 32 33  1  0  0  0  0
 33 40  1  0  0  0  0
 34 35  1  0  0  0  0
 34 33  2  0  0  0  0
 35 37  2  0  0  0  0
 36 35  1  0  0  0  0
 37 39  1  0  0  0  0
 38 37  1  0  0  0  0
 40 39  2  0  0  0  0
M  END
>  <minimizedAffinity>
-6.67695427

$$$$

 OpenBabel03252503223D

 40 44  0  0  1  0  0  0  0  0999 V2000
   37.9820   28.1380   41.9850 C   0  0  1  0  0  0  0  0  0  0  0  0
   36.6110   27.8750   42.3720 C   0  0  0  0  0  0  0  0  0  0  0  0
   37.0850   27.4250   41.0140 C   0  0  2  0  0  0  0  0  0  0  0  0
   38.8580   27.5620   42.4080 H   0  0  0  0  0  0  0  0  0  0  0  0
   35.9320   28.7690   42.4140 H   0  0  0  0  0  0  0  0  0  0  0  0
   36.3150   27.0790   43.0740 H   0  0  0  0  0  0  0  0  0  0  0  0
   36.6900   27.9910   40.1720 H   0  0  0  0  0  0  0  0  0  0  0  0
   37.3480   25.9710   40.8710 C   0  0  0  0  0  0  0  0  0  0  0  0
   38.3410   25.2920   41.5760 C   0  0  0  0  0  0  0  0  0  0  0  0
   38.5370   23.9360   41.4160 C   0  0  0  0  0  0  0  0  0  0  0  0
   37.7430   23.2220   40.5440 C   0  0  0  0  0  0  0  0  0  0  0  0
   37.8910   21.8820   40.3500 N   0  0  0  0  0  0  0  0  0  0  0  0
   37.0970   21.2020   39.4930 C   0  0  0  0  0  0  0  0  0  0  0  0
   36.0740   21.8150   38.7480 C   0  0  0  0  0  0  0  0  0  0  0  0
   35.8980   23.1730   38.9200 C   0  0  0  0  0  0  0  0  0  0  0  0
   36.7340   23.8540   39.8130 C   0  0  0  0  0  0  0  0  0  0  0  0
   36.5830   25.2160   40.0130 C   0  0  0  0  0  0  0  0  0  0  0  0
   38.9490   25.8790   42.2550 H   0  0  0  0  0  0  0  0  0  0  0  0
   39.3080   23.4020   41.9620 H   0  0  0  0  0  0  0  0  0  0  0  0
   37.2010   20.1370   39.3260 H   0  0  0  0  0  0  0  0  0  0  0  0
   35.4580   21.2480   38.0760 H   0  0  0  0  0  0  0  0  0  0  0  0
   35.1280   23.6710   38.3690 H   0  0  0  0  0  0  0  0  0  0  0  0
   35.7880   25.6280   39.3940 H   0  0  0  0  0  0  0  0  0  0  0  0
   38.0340   30.1210   40.4260 C   0  0  0  0  0  0  0  0  0  0  0  0
   38.4360   29.5110   41.6440 C   0  0  0  0  0  0  0  0  0  0  0  0
   39.2550   30.2340   42.4910 C   0  0  0  0  0  0  0  0  0  0  0  0
   39.6240   31.4880   42.0980 N   0  0  0  0  0  0  0  0  0  0  0  0
   39.2340   32.0470   40.9410 C   0  0  0  0  0  0  0  0  0  0  0  0
   38.4330   31.3580   40.0980 N   0  0  0  0  0  0  0  0  0  0  0  0
   37.4000   29.5320   39.7940 H   0  0  0  0  0  0  0  0  0  0  0  0
   39.5930   29.8240   43.4310 H   0  0  0  0  0  0  0  0  0  0  0  0
   41.8580   32.6640   40.0230 F   0  0  0  0  0  0  0  0  0  0  0  0
   40.9240   33.6540   40.1100 C   0  0  0  0  0  0  0  0  0  0  0  0
   39.6470   33.3900   40.5500 C   0  0  0  0  0  0  0  0  0  0  0  0
   38.7750   34.4620   40.6000 C   0  0  0  0  0  0  0  0  0  0  0  0
   37.7630   34.2260   40.9550 H   0  0  0  0  0  0  0  0  0  0  0  0
   39.1870   35.7270   40.2250 C   0  0  0  0  0  0  0  0  0  0  0  0
   38.3900   36.4590   40.3210 H   0  0  0  0  0  0  0  0  0  0  0  0
   40.4690   35.9670   39.7890 C   0  0  0  0  0  3  0  0  0  0  0  0
   41.3600   34.9100   39.7280 C   0  0  0  0  0  3  0  0  0  0  0  0
  1  2  1  0  0  0  0
  1  4  1  1  0  0  0
  2  5  1  0  0  0  0
  2  6  1  0  0  0  0
  3  7  1  6  0  0  0
  3  1  1  0  0  0  0
  3  2  1  0  0  0  0
  8  3  1  0  0  0  0
  8  9  1  0  0  0  0
  9 18  1  0  0  0  0
 10  9  2  0  0  0  0
 10 19  1  0  0  0  0
 11 10  1  0  0  0  0
 12 11  1  0  0  0  0
 13 12  2  0  0  0  0
 14 15  2  0  0  0  0
 14 13  1  0  0  0  0
 15 16  1  0  0  0  0
 16 17  1  0  0  0  0
 16 11  2  0  0  0  0
 17  8  2  0  0  0  0
 20 13  1  0  0  0  0
 21 14  1  0  0  0  0
 22 15  1  0  0  0  0
 23 17  1  0  0  0  0
 24 25  1  0  0  0  0
 25  1  1  0  0  0  0
 25 26  2  0  0  0  0
 26 31  1  0  0  0  0
 27 26  1  0  0  0  0
 28 27  2  0  0  0  0
 29 24  2  0  0  0  0
 29 28  1  0  0  0  0
 30 24  1  0  0  0  0
 32 33  1  0  0  0  0
 33 34  1  0  0  0  0
 34 35  2  0  0  0  0
 34 28  1  0  0  0  0
 35 36  1  0  0  0  0
 37 38  1  0  0  0  0
 37 35  1  0  0  0  0
 39 37  2  0  0  0  0
 40 39  1  0  0  0  0
 40 33  2  0  0  0  0
M  END
>  <minimizedAffinity>
-6.60502434

$$$$

 OpenBabel03252503223D

 40 44  0  0  1  0  0  0  0  0999 V2000
   37.6650   29.2010   41.7110 C   0  0  1  0  0  0  0  0  0  0  0  0
   38.6530   29.5260   42.7190 C   0  0  0  0  0  0  0  0  0  0  0  0
   38.9520   29.8430   41.2760 C   0  0  2  0  0  0  0  0  0  0  0  0
   36.7130   29.7950   41.5740 H   0  0  0  0  0  0  0  0  0  0  0  0
   39.1900   28.6540   43.1800 H   0  0  0  0  0  0  0  0  0  0  0  0
   38.5710   30.3880   43.4010 H   0  0  0  0  0  0  0  0  0  0  0  0
   39.7050   29.2110   40.8080 H   0  0  0  0  0  0  0  0  0  0  0  0
   38.8400   31.2720   40.8920 C   0  0  0  0  0  0  0  0  0  0  0  0
   37.6420   31.8810   40.5200 C   0  0  0  0  0  0  0  0  0  0  0  0
   37.5890   33.2170   40.1820 C   0  0  0  0  0  0  0  0  0  0  0  0
   38.7370   33.9810   40.2080 C   0  0  0  0  0  0  0  0  0  0  0  0
   38.7400   35.3060   39.8880 N   0  0  0  0  0  0  0  0  0  0  0  0
   39.8770   36.0350   39.9240 C   0  0  0  0  0  0  0  0  0  0  0  0
   41.1220   35.4940   40.2900 C   0  0  0  0  0  0  0  0  0  0  0  0
   41.1540   34.1550   40.6200 C   0  0  0  0  0  0  0  0  0  0  0  0
   39.9630   33.4200   40.5730 C   0  0  0  0  0  0  0  0  0  0  0  0
   39.9560   32.0750   40.9010 C   0  0  0  0  0  0  0  0  0  0  0  0
   36.7560   31.2560   40.5110 H   0  0  0  0  0  0  0  0  0  0  0  0
   36.6590   33.6960   39.8930 H   0  0  0  0  0  0  0  0  0  0  0  0
   39.8990   37.0890   39.6720 H   0  0  0  0  0  0  0  0  0  0  0  0
   42.0090   36.1000   40.3110 H   0  0  0  0  0  0  0  0  0  0  0  0
   42.0850   33.7100   40.9020 H   0  0  0  0  0  0  0  0  0  0  0  0
   40.9520   31.7180   41.1550 H   0  0  0  0  0  0  0  0  0  0  0  0
   37.3410   27.4390   39.9340 C   0  0  0  0  0  0  0  0  0  0  0  0
   37.4100   27.7940   41.3080 C   0  0  0  0  0  0  0  0  0  0  0  0
   37.2350   26.7940   42.2460 C   0  0  0  0  0  0  0  0  0  0  0  0
   37.0050   25.5290   41.7860 N   0  0  0  0  0  0  0  0  0  0  0  0
   36.9430   25.2130   40.4830 C   0  0  0  0  0  0  0  0  0  0  0  0
   37.1120   26.1760   39.5490 N   0  0  0  0  0  0  0  0  0  0  0  0
   37.4820   28.2390   39.2360 H   0  0  0  0  0  0  0  0  0  0  0  0
   37.2760   27.0010   43.3040 H   0  0  0  0  0  0  0  0  0  0  0  0
   38.8660   23.1240   40.6970 F   0  0  0  0  0  0  0  0  0  0  0  0
   37.6470   22.8640   40.1440 C   0  0  0  0  0  0  0  0  0  0  0  0
   36.6950   23.8510   40.0250 C   0  0  0  0  0  0  0  0  0  0  0  0
   35.4920   23.4840   39.4520 C   0  0  0  0  0  0  0  0  0  0  0  0
   34.7490   24.2880   39.3680 H   0  0  0  0  0  0  0  0  0  0  0  0
   35.2780   22.1870   39.0250 C   0  0  0  0  0  0  0  0  0  0  0  0
   34.2870   22.0580   38.5980 H   0  0  0  0  0  0  0  0  0  0  0  0
   36.2440   21.2170   39.1530 C   0  0  0  0  0  3  0  0  0  0  0  0
   37.4580   21.5590   39.7260 C   0  0  0  0  0  3  0  0  0  0  0  0
  1  4  1  6  0  0  0
  1  2  1  0  0  0  0
  2  5  1  0  0  0  0
  2  6  1  0  0  0  0
  3  7  1  6  0  0  0
  3  1  1  0  0  0  0
  3  2  1  0  0  0  0
  8 17  1  0  0  0  0
  8  3  1  0  0  0  0
  9  8  2  0  0  0  0
 10 11  2  0  0  0  0
 10  9  1  0  0  0  0
 11 16  1  0  0  0  0
 12 13  2  0  0  0  0
 12 11  1  0  0  0  0
 13 14  1  0  0  0  0
 14 21  1  0  0  0  0
 14 15  2  0  0  0  0
 15 22  1  0  0  0  0
 16 15  1  0  0  0  0
 16 17  2  0  0  0  0
 17 23  1  0  0  0  0
 18  9  1  0  0  0  0
 19 10  1  0  0  0  0
 20 13  1  0  0  0  0
 24 25  1  0  0  0  0
 25  1  1  0  0  0  0
 25 26  2  0  0  0  0
 26 31  1  0  0  0  0
 27 26  1  0  0  0  0
 28 27  2  0  0  0  0
 29 24  2  0  0  0  0
 29 28  1  0  0  0  0
 30 24  1  0  0  0  0
 33 32  1  0  0  0  0
 34 33  1  0  0  0  0
 34 28  1  0  0  0  0
 35 34  2  0  0  0  0
 36 35  1  0  0  0  0
 37 39  2  0  0  0  0
 37 35  1  0  0  0  0
 38 37  1  0  0  0  0
 39 40  1  0  0  0  0
 40 33  2  0  0  0  0
M  END
>  <minimizedAffinity>
-6.31990194

$$$$

 OpenBabel03252503223D

 40 44  0  0  1  0  0  0  0  0999 V2000
   38.0850   28.5280   42.5890 C   0  0  1  0  0  0  0  0  0  0  0  0
   37.7250   27.7350   43.7470 C   0  0  0  0  0  0  0  0  0  0  0  0
   38.8270   27.2460   42.8430 C   0  0  2  0  0  0  0  0  0  0  0  0
   38.6680   29.4930   42.6660 H   0  0  0  0  0  0  0  0  0  0  0  0
   36.7360   27.2050   43.6920 H   0  0  0  0  0  0  0  0  0  0  0  0
   38.0170   27.9910   44.7780 H   0  0  0  0  0  0  0  0  0  0  0  0
   38.5770   26.3810   42.2310 H   0  0  0  0  0  0  0  0  0  0  0  0
   40.2090   27.4140   43.3590 C   0  0  0  0  0  0  0  0  0  0  0  0
   40.8290   26.5050   44.2160 C   0  0  0  0  0  0  0  0  0  0  0  0
   42.1210   26.7010   44.6590 C   0  0  0  0  0  0  0  0  0  0  0  0
   42.8270   27.8140   44.2550 C   0  0  0  0  0  0  0  0  0  0  0  0
   44.1060   28.0540   44.6590 N   0  0  0  0  0  0  0  0  0  0  0  0
   44.7810   29.1500   44.2460 C   0  0  0  0  0  0  0  0  0  0  0  0
   44.2250   30.1100   43.3810 C   0  0  0  0  0  0  0  0  0  0  0  0
   42.9300   29.8970   42.9540 C   0  0  0  0  0  0  0  0  0  0  0  0
   42.2520   28.7550   43.3970 C   0  0  0  0  0  0  0  0  0  0  0  0
   40.9530   28.5070   42.9860 C   0  0  0  0  0  0  0  0  0  0  0  0
   40.2500   25.6390   44.5160 H   0  0  0  0  0  0  0  0  0  0  0  0
   42.6080   25.9960   45.3260 H   0  0  0  0  0  0  0  0  0  0  0  0
   45.7980   29.3580   44.5570 H   0  0  0  0  0  0  0  0  0  0  0  0
   44.7860   30.9710   43.0690 H   0  0  0  0  0  0  0  0  0  0  0  0
   42.4760   30.6080   42.2960 H   0  0  0  0  0  0  0  0  0  0  0  0
   40.5800   29.2960   42.3360 H   0  0  0  0  0  0  0  0  0  0  0  0
   36.6230   29.8390   41.0050 C   0  0  0  0  0  0  0  0  0  0  0  0
   37.1970   28.6010   41.4000 C   0  0  0  0  0  0  0  0  0  0  0  0
   36.9050   27.4810   40.6460 C   0  0  0  0  0  0  0  0  0  0  0  0
   36.0790   27.6400   39.5700 N   0  0  0  0  0  0  0  0  0  0  0  0
   35.5450   28.8190   39.2130 C   0  0  0  0  0  0  0  0  0  0  0  0
   35.8190   29.9280   39.9370 N   0  0  0  0  0  0  0  0  0  0  0  0
   36.8710   30.6860   41.6130 H   0  0  0  0  0  0  0  0  0  0  0  0
   37.3110   26.5130   40.8950 H   0  0  0  0  0  0  0  0  0  0  0  0
   32.7450   29.2900   39.4320 F   0  0  0  0  0  0  0  0  0  0  0  0
   33.3160   29.1830   38.1990 C   0  0  0  0  0  0  0  0  0  0  0  0
   34.6660   28.9550   38.0570 C   0  0  0  0  0  0  0  0  0  0  0  0
   35.1460   28.8640   36.7640 C   0  0  0  0  0  0  0  0  0  0  0  0
   36.2260   28.6820   36.6780 H   0  0  0  0  0  0  0  0  0  0  0  0
   34.2960   28.9960   35.6830 C   0  0  0  0  0  0  0  0  0  0  0  0
   34.8230   28.9000   34.7370 H   0  0  0  0  0  0  0  0  0  0  0  0
   32.9500   29.2230   35.8480 C   0  0  0  0  0  3  0  0  0  0  0  0
   32.4450   29.3200   37.1330 C   0  0  0  0  0  3  0  0  0  0  0  0
  1  4  1  1  0  0  0
  1  3  1  0  0  0  0
  1  2  1  0  0  0  0
  2  6  1  0  0  0  0
  3  7  1  6  0  0  0
  3  8  1  0  0  0  0
  3  2  1  0  0  0  0
  5  2  1  0  0  0  0
  8  9  1  0  0  0  0
  9 18  1  0  0  0  0
  9 10  2  0  0  0  0
 10 19  1  0  0  0  0
 11 12  1  0  0  0  0
 11 10  1  0  0  0  0
 13 20  1  0  0  0  0
 13 12  2  0  0  0  0
 14 13  1  0  0  0  0
 15 14  2  0  0  0  0
 15 16  1  0  0  0  0
 16 11  2  0  0  0  0
 17  8  2  0  0  0  0
 17 16  1  0  0  0  0
 21 14  1  0  0  0  0
 22 15  1  0  0  0  0
 23 17  1  0  0  0  0
 24 25  1  0  0  0  0
 24 30  1  0  0  0  0
 25  1  1  0  0  0  0
 26 31  1  0  0  0  0
 26 25  2  0  0  0  0
 27 26  1  0  0  0  0
 28 27  2  0  0  0  0
 28 29  1  0  0  0  0
 29 24  2  0  0  0  0
 33 32  1  0  0  0  0
 34 33  1  0  0  0  0
 34 28  1  0  0  0  0
 35 34  2  0  0  0  0
 36 35  1  0  0  0  0
 37 39  2  0  0  0  0
 37 35  1  0  0  0  0
 38 37  1  0  0  0  0
 39 40  1  0  0  0  0
 40 33  2  0  0  0  0
M  END
>  <minimizedAffinity>
-6.16281414

$$$$

 OpenBabel03252503223D

 40 44  0  0  1  0  0  0  0  0999 V2000
   37.3780   27.7540   41.9810 C   0  0  1  0  0  0  0  0  0  0  0  0
   38.0940   27.8510   43.2360 C   0  0  0  0  0  0  0  0  0  0  0  0
   38.8130   28.1980   41.9570 C   0  0  2  0  0  0  0  0  0  0  0  0
   36.5940   28.5040   41.6640 H   0  0  0  0  0  0  0  0  0  0  0  0
   38.3560   26.8770   43.7290 H   0  0  0  0  0  0  0  0  0  0  0  0
   37.9560   28.6730   43.9570 H   0  0  0  0  0  0  0  0  0  0  0  0
   39.5660   27.4790   41.6370 H   0  0  0  0  0  0  0  0  0  0  0  0
   39.0160   29.6460   41.7030 C   0  0  0  0  0  0  0  0  0  0  0  0
   40.1170   30.3660   42.1680 C   0  0  0  0  0  0  0  0  0  0  0  0
   40.2660   31.7090   41.8940 C   0  0  0  0  0  0  0  0  0  0  0  0
   39.3150   32.3700   41.1450 C   0  0  0  0  0  0  0  0  0  0  0  0
   39.4140   33.6950   40.8420 N   0  0  0  0  0  0  0  0  0  0  0  0
   38.4710   34.3200   40.1020 C   0  0  0  0  0  0  0  0  0  0  0  0
   37.3360   33.6630   39.5960 C   0  0  0  0  0  0  0  0  0  0  0  0
   37.2040   32.3210   39.8860 C   0  0  0  0  0  0  0  0  0  0  0  0
   38.1930   31.6960   40.6550 C   0  0  0  0  0  0  0  0  0  0  0  0
   38.0960   30.3490   40.9620 C   0  0  0  0  0  0  0  0  0  0  0  0
   40.8480   29.8200   42.7520 H   0  0  0  0  0  0  0  0  0  0  0  0
   41.1200   32.2740   42.2530 H   0  0  0  0  0  0  0  0  0  0  0  0
   38.5330   35.3730   39.8520 H   0  0  0  0  0  0  0  0  0  0  0  0
   36.6030   34.1870   39.0100 H   0  0  0  0  0  0  0  0  0  0  0  0
   36.3510   31.7900   39.5170 H   0  0  0  0  0  0  0  0  0  0  0  0
   37.1870   29.9090   40.5560 H   0  0  0  0  0  0  0  0  0  0  0  0
   36.6860   26.3310   40.0150 C   0  0  0  0  0  0  0  0  0  0  0  0
   37.0420   26.4340   41.3860 C   0  0  0  0  0  0  0  0  0  0  0  0
   37.0650   25.2750   42.1390 C   0  0  0  0  0  0  0  0  0  0  0  0
   36.7420   24.1070   41.5110 N   0  0  0  0  0  0  0  0  0  0  0  0
   36.4070   24.0290   40.2140 C   0  0  0  0  0  0  0  0  0  0  0  0
   36.3780   25.1510   39.4590 N   0  0  0  0  0  0  0  0  0  0  0  0
   36.6780   27.2490   39.4630 H   0  0  0  0  0  0  0  0  0  0  0  0
   37.3280   25.2890   43.1850 H   0  0  0  0  0  0  0  0  0  0  0  0
   38.3070   21.9610   39.7410 F   0  0  0  0  0  0  0  0  0  0  0  0
   37.0090   21.7850   39.3600 C   0  0  0  0  0  0  0  0  0  0  0  0
   36.0660   22.7640   39.5740 C   0  0  0  0  0  0  0  0  0  0  0  0
   34.7790   22.4860   39.1520 C   0  0  0  0  0  0  0  0  0  0  0  0
   34.0450   23.2830   39.3330 H   0  0  0  0  0  0  0  0  0  0  0  0
   34.4780   21.2800   38.5480 C   0  0  0  0  0  0  0  0  0  0  0  0
   33.4280   21.2140   38.2740 H   0  0  0  0  0  0  0  0  0  0  0  0
   35.4370   20.3160   38.3440 C   0  0  0  0  0  3  0  0  0  0  0  0
   36.7330   20.5700   38.7590 C   0  0  0  0  0  3  0  0  0  0  0  0
  1  4  1  6  0  0  0
  1  2  1  0  0  0  0
  2  5  1  0  0  0  0
  2  6  1  0  0  0  0
  3  7  1  6  0  0  0
  3  1  1  0  0  0  0
  3  2  1  0  0  0  0
  8  3  1  0  0  0  0
  8  9  1  0  0  0  0
  9 18  1  0  0  0  0
 10  9  2  0  0  0  0
 10 19  1  0  0  0  0
 11 10  1  0  0  0  0
 12 11  1  0  0  0  0
 13 12  2  0  0  0  0
 14 15  2  0  0  0  0
 14 13  1  0  0  0  0
 15 16  1  0  0  0  0
 16 17  1  0  0  0  0
 16 11  2  0  0  0  0
 17  8  2  0  0  0  0
 20 13  1  0  0  0  0
 21 14  1  0  0  0  0
 22 15  1  0  0  0  0
 23 17  1  0  0  0  0
 24 25  1  0  0  0  0
 25  1  1  0  0  0  0
 25 26  2  0  0  0  0
 26 31  1  0  0  0  0
 27 26  1  0  0  0  0
 28 27  2  0  0  0  0
 29 24  2  0  0  0  0
 29 28  1  0  0  0  0
 30 24  1  0  0  0  0
 33 34  1  0  0  0  0
 33 32  1  0  0  0  0
 34 28  1  0  0  0  0
 35 36  1  0  0  0  0
 35 34  2  0  0  0  0
 37 35  1  0  0  0  0
 38 37  1  0  0  0  0
 39 37  2  0  0  0  0
 39 40  1  0  0  0  0
 40 33  2  0  0  0  0
M  END
>  <minimizedAffinity>
-6.14697361

$$$$

 OpenBabel03252503223D

 40 44  0  0  1  0  0  0  0  0999 V2000
   35.6630   29.1570   39.4740 C   0  0  1  0  0  0  0  0  0  0  0  0
   34.2510   29.2850   39.1770 C   0  0  0  0  0  0  0  0  0  0  0  0
   35.1630   28.6820   38.1400 C   0  0  2  0  0  0  0  0  0  0  0  0
   36.0710   28.3800   40.1860 H   0  0  0  0  0  0  0  0  0  0  0  0
   33.8790   30.3290   38.9960 H   0  0  0  0  0  0  0  0  0  0  0  0
   33.4760   28.6190   39.5920 H   0  0  0  0  0  0  0  0  0  0  0  0
   35.3540   29.3070   37.2690 H   0  0  0  0  0  0  0  0  0  0  0  0
   35.0850   27.2070   37.9890 C   0  0  0  0  0  0  0  0  0  0  0  0
   34.2030   26.5640   37.1200 C   0  0  0  0  0  0  0  0  0  0  0  0
   34.1770   25.1900   37.0080 C   0  0  0  0  0  0  0  0  0  0  0  0
   35.0360   24.4200   37.7650 C   0  0  0  0  0  0  0  0  0  0  0  0
   35.0560   23.0600   37.6910 N   0  0  0  0  0  0  0  0  0  0  0  0
   35.9090   22.3260   38.4390 C   0  0  0  0  0  0  0  0  0  0  0  0
   36.8280   22.9000   39.3350 C   0  0  0  0  0  0  0  0  0  0  0  0
   36.8340   24.2770   39.4350 C   0  0  0  0  0  0  0  0  0  0  0  0
   35.9390   25.0140   38.6500 C   0  0  0  0  0  0  0  0  0  0  0  0
   35.9190   26.3970   38.7220 C   0  0  0  0  0  0  0  0  0  0  0  0
   33.5410   27.1950   36.5380 H   0  0  0  0  0  0  0  0  0  0  0  0
   33.4940   24.6850   36.3330 H   0  0  0  0  0  0  0  0  0  0  0  0
   35.9390   21.2440   38.3940 H   0  0  0  0  0  0  0  0  0  0  0  0
   37.4960   22.2920   39.9160 H   0  0  0  0  0  0  0  0  0  0  0  0
   37.5200   24.7470   40.1080 H   0  0  0  0  0  0  0  0  0  0  0  0
   36.6400   26.7720   39.4460 H   0  0  0  0  0  0  0  0  0  0  0  0
   37.0220   30.8620   40.7450 C   0  0  0  0  0  0  0  0  0  0  0  0
   36.5530   30.3470   39.5070 C   0  0  0  0  0  0  0  0  0  0  0  0
   36.9510   30.9840   38.3470 C   0  0  0  0  0  0  0  0  0  0  0  0
   37.7700   32.0700   38.4710 N   0  0  0  0  0  0  0  0  0  0  0  0
   38.2020   32.5420   39.6500 C   0  0  0  0  0  0  0  0  0  0  0  0
   37.8250   31.9340   40.7970 N   0  0  0  0  0  0  0  0  0  0  0  0
   36.6930   30.3430   41.6230 H   0  0  0  0  0  0  0  0  0  0  0  0
   36.6290   30.6390   37.3770 H   0  0  0  0  0  0  0  0  0  0  0  0
   40.9920   32.4450   39.0900 F   0  0  0  0  0  0  0  0  0  0  0  0
   40.4220   33.6240   39.4690 C   0  0  0  0  0  0  0  0  0  0  0  0
   39.0760   33.7050   39.7480 C   0  0  0  0  0  0  0  0  0  0  0  0
   38.5960   34.9470   40.1220 C   0  0  0  0  0  0  0  0  0  0  0  0
   37.5200   34.9850   40.3390 H   0  0  0  0  0  0  0  0  0  0  0  0
   39.4410   36.0360   40.2080 C   0  0  0  0  0  0  0  0  0  0  0  0
   38.9150   36.9360   40.5140 H   0  0  0  0  0  0  0  0  0  0  0  0
   40.7830   35.9310   39.9250 C   0  0  0  0  0  3  0  0  0  0  0  0
   41.2880   34.6990   39.5460 C   0  0  0  0  0  3  0  0  0  0  0  0
  1 25  1  0  0  0  0
  1  4  1  1  0  0  0
  2  1  1  0  0  0  0
  2  6  1  0  0  0  0
  3  7  1  6  0  0  0
  3  2  1  0  0  0  0
  3  1  1  0  0  0  0
  5  2  1  0  0  0  0
  8  3  1  0  0  0  0
  8 17  1  0  0  0  0
  9  8  2  0  0  0  0
 10  9  1  0  0  0  0
 10 11  2  0  0  0  0
 11 16  1  0  0  0  0
 12 11  1  0  0  0  0
 12 13  2  0  0  0  0
 13 14  1  0  0  0  0
 14 15  2  0  0  0  0
 14 21  1  0  0  0  0
 15 22  1  0  0  0  0
 16 17  2  0  0  0  0
 16 15  1  0  0  0  0
 17 23  1  0  0  0  0
 18  9  1  0  0  0  0
 19 10  1  0  0  0  0
 20 13  1  0  0  0  0
 24 29  1  0  0  0  0
 24 30  1  0  0  0  0
 25 24  2  0  0  0  0
 26 27  2  0  0  0  0
 26 25  1  0  0  0  0
 27 28  1  0  0  0  0
 28 34  1  0  0  0  0
 28 29  2  0  0  0  0
 31 26  1  0  0  0  0
 32 33  1  0  0  0  0
 33 40  2  0  0  0  0
 33 34  1  0  0  0  0
 34 35  2  0  0  0  0
 35 37  1  0  0  0  0
 35 36  1  0  0  0  0
 37 38  1  0  0  0  0
 39 37  2  0  0  0  0
 40 39  1  0  0  0  0
M  END
>  <minimizedAffinity>
-6.11012316

$$$$

 OpenBabel03252503223D

 40 44  0  0  1  0  0  0  0  0999 V2000
   37.4260   28.2910   42.2620 C   0  0  1  0  0  0  0  0  0  0  0  0
   37.0170   27.3670   43.3000 C   0  0  0  0  0  0  0  0  0  0  0  0
   38.1780   27.0000   42.4120 C   0  0  2  0  0  0  0  0  0  0  0  0
   37.9840   29.2500   42.4810 H   0  0  0  0  0  0  0  0  0  0  0  0
   36.0440   26.8340   43.1280 H   0  0  0  0  0  0  0  0  0  0  0  0
   37.2460   27.5080   44.3690 H   0  0  0  0  0  0  0  0  0  0  0  0
   37.9810   26.2060   41.6930 H   0  0  0  0  0  0  0  0  0  0  0  0
   39.5250   27.1270   43.0240 C   0  0  0  0  0  0  0  0  0  0  0  0
   40.1260   26.1240   43.7840 C   0  0  0  0  0  0  0  0  0  0  0  0
   41.3860   26.2870   44.3220 C   0  0  0  0  0  0  0  0  0  0  0  0
   42.0790   27.4600   44.1110 C   0  0  0  0  0  0  0  0  0  0  0  0
   43.3270   27.6710   44.6150 N   0  0  0  0  0  0  0  0  0  0  0  0
   43.9900   28.8280   44.3920 C   0  0  0  0  0  0  0  0  0  0  0  0
   43.4520   29.8840   43.6350 C   0  0  0  0  0  0  0  0  0  0  0  0
   42.1890   29.7020   43.1100 C   0  0  0  0  0  0  0  0  0  0  0  0
   41.5230   28.4950   43.3570 C   0  0  0  0  0  0  0  0  0  0  0  0
   40.2550   28.2770   42.8430 C   0  0  0  0  0  0  0  0  0  0  0  0
   39.5580   25.2130   43.9320 H   0  0  0  0  0  0  0  0  0  0  0  0
   41.8590   25.5090   44.9140 H   0  0  0  0  0  0  0  0  0  0  0  0
   44.9820   29.0140   44.7850 H   0  0  0  0  0  0  0  0  0  0  0  0
   44.0030   30.7920   43.4730 H   0  0  0  0  0  0  0  0  0  0  0  0
   41.7490   30.4860   42.5290 H   0  0  0  0  0  0  0  0  0  0  0  0
   39.8940   29.1390   42.2850 H   0  0  0  0  0  0  0  0  0  0  0  0
   36.5680   27.4900   40.0280 C   0  0  0  0  0  0  0  0  0  0  0  0
   36.6050   28.4880   41.0390 C   0  0  0  0  0  0  0  0  0  0  0  0
   35.8580   29.6340   40.8460 C   0  0  0  0  0  0  0  0  0  0  0  0
   35.1330   29.7310   39.6930 N   0  0  0  0  0  0  0  0  0  0  0  0
   35.1110   28.7770   38.7490 C   0  0  0  0  0  0  0  0  0  0  0  0
   35.8350   27.6480   38.9170 N   0  0  0  0  0  0  0  0  0  0  0  0
   37.1590   26.6160   40.2110 H   0  0  0  0  0  0  0  0  0  0  0  0
   35.8450   30.4270   41.5790 H   0  0  0  0  0  0  0  0  0  0  0  0
   36.2820   29.0550   36.1680 F   0  0  0  0  0  0  0  0  0  0  0  0
   34.9250   29.0440   36.2950 C   0  0  0  0  0  0  0  0  0  0  0  0
   34.3270   28.9120   37.5270 C   0  0  0  0  0  0  0  0  0  0  0  0
   32.9440   28.9120   37.5470 C   0  0  0  0  0  0  0  0  0  0  0  0
   32.4910   28.8050   38.5420 H   0  0  0  0  0  0  0  0  0  0  0  0
   32.2200   29.0400   36.3780 C   0  0  0  0  0  0  0  0  0  0  0  0
   31.1480   29.0230   36.5590 H   0  0  0  0  0  0  0  0  0  0  0  0
   32.8390   29.1720   35.1570 C   0  0  0  0  0  3  0  0  0  0  0  0
   34.2230   29.1740   35.1100 C   0  0  0  0  0  3  0  0  0  0  0  0
  1  3  1  0  0  0  0
  1  4  1  1  0  0  0
  1  2  1  0  0  0  0
  2  6  1  0  0  0  0
  3  7  1  6  0  0  0
  3  8  1  0  0  0  0
  3  2  1  0  0  0  0
  5  2  1  0  0  0  0
  8  9  1  0  0  0  0
  9 18  1  0  0  0  0
  9 10  2  0  0  0  0
 10 19  1  0  0  0  0
 11 10  1  0  0  0  0
 11 12  1  0  0  0  0
 13 12  2  0  0  0  0
 13 20  1  0  0  0  0
 14 13  1  0  0  0  0
 15 16  1  0  0  0  0
 15 14  2  0  0  0  0
 16 11  2  0  0  0  0
 17  8  2  0  0  0  0
 17 16  1  0  0  0  0
 21 14  1  0  0  0  0
 22 15  1  0  0  0  0
 23 17  1  0  0  0  0
 24 30  1  0  0  0  0
 24 25  1  0  0  0  0
 25  1  1  0  0  0  0
 26 25  2  0  0  0  0
 26 31  1  0  0  0  0
 27 26  1  0  0  0  0
 28 29  1  0  0  0  0
 28 27  2  0  0  0  0
 29 24  2  0  0  0  0
 32 33  1  0  0  0  0
 33 34  1  0  0  0  0
 34 35  2  0  0  0  0
 34 28  1  0  0  0  0
 35 36  1  0  0  0  0
 37 38  1  0  0  0  0
 37 35  1  0  0  0  0
 39 37  2  0  0  0  0
 40 39  1  0  0  0  0
 40 33  2  0  0  0  0
M  END
>  <minimizedAffinity>
-6.10338974

$$$$

 OpenBabel03252503223D

 40 44  0  0  1  0  0  0  0  0999 V2000
   35.4760   29.3840   37.9110 C   0  0  1  0  0  0  0  0  0  0  0  0
   35.8660   29.4720   36.5180 C   0  0  0  0  0  0  0  0  0  0  0  0
   34.7200   28.5710   36.8990 C   0  0  2  0  0  0  0  0  0  0  0  0
   34.9150   30.2090   38.4430 H   0  0  0  0  0  0  0  0  0  0  0  0
   36.8410   28.9850   36.2490 H   0  0  0  0  0  0  0  0  0  0  0  0
   35.6190   30.3260   35.8670 H   0  0  0  0  0  0  0  0  0  0  0  0
   34.9280   27.5030   36.8410 H   0  0  0  0  0  0  0  0  0  0  0  0
   33.3630   29.0790   36.5740 C   0  0  0  0  0  0  0  0  0  0  0  0
   32.8950   29.2560   35.2730 C   0  0  0  0  0  0  0  0  0  0  0  0
   31.6200   29.7200   35.0240 C   0  0  0  0  0  0  0  0  0  0  0  0
   30.7780   30.0190   36.0740 C   0  0  0  0  0  0  0  0  0  0  0  0
   29.5090   30.4770   35.8850 N   0  0  0  0  0  0  0  0  0  0  0  0
   28.6990   30.7600   36.9300 C   0  0  0  0  0  0  0  0  0  0  0  0
   29.0970   30.6040   38.2690 C   0  0  0  0  0  0  0  0  0  0  0  0
   30.3780   30.1430   38.4960 C   0  0  0  0  0  0  0  0  0  0  0  0
   31.1970   29.8590   37.3960 C   0  0  0  0  0  0  0  0  0  0  0  0
   32.4870   29.3910   37.5860 C   0  0  0  0  0  0  0  0  0  0  0  0
   33.5790   29.0120   34.4680 H   0  0  0  0  0  0  0  0  0  0  0  0
   31.2510   29.8600   34.0130 H   0  0  0  0  0  0  0  0  0  0  0  0
   27.6880   31.1250   36.7990 H   0  0  0  0  0  0  0  0  0  0  0  0
   28.4310   30.8360   39.0800 H   0  0  0  0  0  0  0  0  0  0  0  0
   30.7140   30.0140   39.5040 H   0  0  0  0  0  0  0  0  0  0  0  0
   32.7350   29.3120   38.6430 H   0  0  0  0  0  0  0  0  0  0  0  0
   35.8420   28.4380   40.2220 C   0  0  0  0  0  0  0  0  0  0  0  0
   36.3170   28.6650   38.9020 C   0  0  0  0  0  0  0  0  0  0  0  0
   37.5760   28.1970   38.5770 C   0  0  0  0  0  0  0  0  0  0  0  0
   38.2810   27.5480   39.5500 N   0  0  0  0  0  0  0  0  0  0  0  0
   37.8140   27.3440   40.7930 C   0  0  0  0  0  0  0  0  0  0  0  0
   36.5850   27.7930   41.1310 N   0  0  0  0  0  0  0  0  0  0  0  0
   34.8630   28.8150   40.4380 H   0  0  0  0  0  0  0  0  0  0  0  0
   37.9920   28.3380   37.5910 H   0  0  0  0  0  0  0  0  0  0  0  0
   38.3540   24.5490   40.6960 F   0  0  0  0  0  0  0  0  0  0  0  0
   38.8360   25.2930   41.7320 C   0  0  0  0  0  0  0  0  0  0  0  0
   38.5930   26.6460   41.8090 C   0  0  0  0  0  0  0  0  0  0  0  0
   39.1270   27.3100   42.8990 C   0  0  0  0  0  0  0  0  0  0  0  0
   38.9190   28.3870   42.9370 H   0  0  0  0  0  0  0  0  0  0  0  0
   39.8620   26.6290   43.8510 C   0  0  0  0  0  0  0  0  0  0  0  0
   40.2110   27.2880   44.6410 H   0  0  0  0  0  0  0  0  0  0  0  0
   40.0920   25.2770   43.7530 C   0  0  0  0  0  3  0  0  0  0  0  0
   39.5690   24.5900   42.6710 C   0  0  0  0  0  3  0  0  0  0  0  0
  1  4  1  1  0  0  0
  1 25  1  0  0  0  0
  2  3  1  0  0  0  0
  2  1  1  0  0  0  0
  3  7  1  6  0  0  0
  3  1  1  0  0  0  0
  5  2  1  0  0  0  0
  6  2  1  0  0  0  0
  8  3  1  0  0  0  0
  8 17  1  0  0  0  0
  9  8  2  0  0  0  0
 10  9  1  0  0  0  0
 10 11  2  0  0  0  0
 11 16  1  0  0  0  0
 12 11  1  0  0  0  0
 12 13  2  0  0  0  0
 13 14  1  0  0  0  0
 14 15  2  0  0  0  0
 14 21  1  0  0  0  0
 15 22  1  0  0  0  0
 16 17  2  0  0  0  0
 16 15  1  0  0  0  0
 17 23  1  0  0  0  0
 18  9  1  0  0  0  0
 19 10  1  0  0  0  0
 20 13  1  0  0  0  0
 24 30  1  0  0  0  0
 24 29  1  0  0  0  0
 25 24  2  0  0  0  0
 26 25  1  0  0  0  0
 26 27  2  0  0  0  0
 27 28  1  0  0  0  0
 28 29  2  0  0  0  0
 28 34  1  0  0  0  0
 31 26  1  0  0  0  0
 32 33  1  0  0  0  0
 33 34  2  0  0  0  0
 33 40  1  0  0  0  0
 34 35  1  0  0  0  0
 35 36  1  0  0  0  0
 35 37  2  0  0  0  0
 37 38  1  0  0  0  0
 39 37  1  0  0  0  0
 40 39  2  0  0  0  0
M  END
>  <minimizedAffinity>
-6.09166002

$$$$

 OpenBabel03252503223D

 40 44  0  0  1  0  0  0  0  0999 V2000
   34.5880   29.0760   36.0420 C   0  0  1  0  0  0  0  0  0  0  0  0
   34.9710   28.2330   34.9270 C   0  0  0  0  0  0  0  0  0  0  0  0
   33.5900   28.0850   35.5140 C   0  0  2  0  0  0  0  0  0  0  0  0
   34.3470   30.1740   35.9250 H   0  0  0  0  0  0  0  0  0  0  0  0
   35.7200   27.4280   35.1540 H   0  0  0  0  0  0  0  0  0  0  0  0
   35.0220   28.5850   33.8840 H   0  0  0  0  0  0  0  0  0  0  0  0
   33.4230   27.1730   36.0850 H   0  0  0  0  0  0  0  0  0  0  0  0
   32.4840   28.6740   34.7190 C   0  0  0  0  0  0  0  0  0  0  0  0
   31.6120   27.9220   33.9320 C   0  0  0  0  0  0  0  0  0  0  0  0
   30.5910   28.5160   33.2200 C   0  0  0  0  0  0  0  0  0  0  0  0
   30.4140   29.8820   33.2780 C   0  0  0  0  0  0  0  0  0  0  0  0
   29.4200   30.5200   32.5990 N   0  0  0  0  0  0  0  0  0  0  0  0
   29.2630   31.8600   32.6750 C   0  0  0  0  0  0  0  0  0  0  0  0
   30.0990   32.6860   33.4480 C   0  0  0  0  0  0  0  0  0  0  0  0
   31.1170   32.0720   34.1480 C   0  0  0  0  0  0  0  0  0  0  0  0
   31.2590   30.6820   34.0520 C   0  0  0  0  0  0  0  0  0  0  0  0
   32.2670   30.0310   34.7430 C   0  0  0  0  0  0  0  0  0  0  0  0
   31.7750   26.8500   33.9070 H   0  0  0  0  0  0  0  0  0  0  0  0
   29.9100   27.9350   32.6070 H   0  0  0  0  0  0  0  0  0  0  0  0
   28.4790   32.3850   32.1410 H   0  0  0  0  0  0  0  0  0  0  0  0
   29.9490   33.7490   33.4890 H   0  0  0  0  0  0  0  0  0  0  0  0
   31.7720   32.6700   34.7460 H   0  0  0  0  0  0  0  0  0  0  0  0
   32.8860   30.7290   35.3040 H   0  0  0  0  0  0  0  0  0  0  0  0
   36.5000   28.4570   37.5690 C   0  0  0  0  0  0  0  0  0  0  0  0
   35.1460   28.8540   37.4010 C   0  0  0  0  0  0  0  0  0  0  0  0
   34.3760   29.0260   38.5360 C   0  0  0  0  0  0  0  0  0  0  0  0
   34.9700   28.8000   39.7440 N   0  0  0  0  0  0  0  0  0  0  0  0
   36.2510   28.4240   39.8830 C   0  0  0  0  0  0  0  0  0  0  0  0
   37.0220   28.2510   38.7860 N   0  0  0  0  0  0  0  0  0  0  0  0
   37.0670   28.3340   36.6680 H   0  0  0  0  0  0  0  0  0  0  0  0
   33.3410   29.3270   38.4730 H   0  0  0  0  0  0  0  0  0  0  0  0
   36.6460   25.8240   40.9730 F   0  0  0  0  0  0  0  0  0  0  0  0
   37.0320   26.9190   41.6870 C   0  0  0  0  0  0  0  0  0  0  0  0
   36.8550   28.1910   41.1890 C   0  0  0  0  0  0  0  0  0  0  0  0
   37.2810   29.2340   41.9900 C   0  0  0  0  0  0  0  0  0  0  0  0
   37.1290   30.2370   41.5710 H   0  0  0  0  0  0  0  0  0  0  0  0
   37.8510   28.9900   43.2250 C   0  0  0  0  0  0  0  0  0  0  0  0
   38.1320   29.9090   43.7320 H   0  0  0  0  0  0  0  0  0  0  0  0
   38.0180   27.7110   43.7030 C   0  0  0  0  0  3  0  0  0  0  0  0
   37.6000   26.6490   42.9180 C   0  0  0  0  0  3  0  0  0  0  0  0
  1  4  1  6  0  0  0
  1 25  1  0  0  0  0
  2  5  1  0  0  0  0
  2  3  1  0  0  0  0
  2  1  1  0  0  0  0
  3  1  1  0  0  0  0
  3  7  1  1  0  0  0
  6  2  1  0  0  0  0
  8 17  1  0  0  0  0
  8  3  1  0  0  0  0
  9  8  2  0  0  0  0
 10 11  2  0  0  0  0
 10  9  1  0  0  0  0
 11 16  1  0  0  0  0
 12 13  2  0  0  0  0
 12 11  1  0  0  0  0
 13 14  1  0  0  0  0
 14 21  1  0  0  0  0
 14 15  2  0  0  0  0
 15 22  1  0  0  0  0
 16 15  1  0  0  0  0
 16 17  2  0  0  0  0
 17 23  1  0  0  0  0
 18  9  1  0  0  0  0
 19 10  1  0  0  0  0
 20 13  1  0  0  0  0
 24 29  1  0  0  0  0
 25 24  2  0  0  0  0
 25 26  1  0  0  0  0
 26 27  2  0  0  0  0
 27 28  1  0  0  0  0
 28 34  1  0  0  0  0
 29 28  2  0  0  0  0
 30 24  1  0  0  0  0
 31 26  1  0  0  0  0
 32 33  1  0  0  0  0
 33 40  1  0  0  0  0
 34 33  2  0  0  0  0
 34 35  1  0  0  0  0
 35 37  2  0  0  0  0
 36 35  1  0  0  0  0
 37 39  1  0  0  0  0
 37 38  1  0  0  0  0
 40 39  2  0  0  0  0
M  END
>  <minimizedAffinity>
-6.01295328

$$$$
