
 OpenBabel03252509033D

 48 50  0  0  1  0  0  0  0  0999 V2000
   47.1400   34.2730   43.0200 N   0  0  0  0  0  0  0  0  0  0  0  0
   46.8230   34.8150   41.7550 C   0  0  0  0  0  0  0  0  0  0  0  0
   45.4260   34.4990   41.2630 C   0  0  0  0  0  0  0  0  0  0  0  0
   44.3910   34.3660   42.3580 C   0  0  0  0  0  0  0  0  0  0  0  0
   44.9810   34.7310   43.7120 C   0  0  0  0  0  0  0  0  0  0  0  0
   46.1910   33.7280   43.8460 C   0  0  2  0  0  0  0  0  0  0  0  0
   46.8690   35.9390   41.8490 H   0  0  0  0  0  0  0  0  0  0  0  0
   47.5020   34.5760   40.9330 H   0  0  0  0  0  0  0  0  0  0  0  0
   45.4260   33.6130   40.5700 H   0  0  0  0  0  0  0  0  0  0  0  0
   45.0780   35.3380   40.6140 H   0  0  0  0  0  0  0  0  0  0  0  0
   43.4500   34.8770   42.1340 H   0  0  0  0  0  0  0  0  0  0  0  0
   44.1470   33.2800   42.4190 H   0  0  0  0  0  0  0  0  0  0  0  0
   44.2340   34.4760   44.4870 H   0  0  0  0  0  0  0  0  0  0  0  0
   45.3700   35.7570   43.7560 H   0  0  0  0  0  0  0  0  0  0  0  0
   45.7900   32.7200   43.6050 H   0  0  0  0  0  0  0  0  0  0  0  0
   48.5020   33.7860   43.1230 C   0  0  0  0  0  0  0  0  0  0  0  0
   48.8550   33.9120   44.1690 H   0  0  0  0  0  0  0  0  0  0  0  0
   49.1640   34.3570   42.4660 H   0  0  0  0  0  0  0  0  0  0  0  0
   48.5040   32.3260   42.8120 C   0  0  0  0  0  0  0  0  0  0  0  0
   48.7390   31.6790   43.6750 H   0  0  0  0  0  0  0  0  0  0  0  0
   47.5050   31.9940   42.4310 H   0  0  0  0  0  0  0  0  0  0  0  0
   51.6890   31.7330   40.9040 C   0  0  0  0  0  0  0  0  0  0  0  0
   50.7890   31.9780   41.9560 C   0  0  0  0  0  0  0  0  0  0  0  0
   49.4480   32.0660   41.6920 C   0  0  0  0  0  0  0  0  0  0  0  0
   49.0630   31.9090   40.4180 N   0  0  0  0  0  0  0  0  0  0  0  0
   49.9210   31.6760   39.4180 C   0  0  0  0  0  0  0  0  0  0  0  0
   51.2400   31.5840   39.6420 N   0  0  0  0  0  0  0  0  0  0  0  0
   52.7150   31.6870   41.2420 H   0  0  0  0  0  0  0  0  0  0  0  0
   51.1180   32.1040   42.9910 H   0  0  0  0  0  0  0  0  0  0  0  0
   49.6370   31.5470   38.3860 H   0  0  0  0  0  0  0  0  0  0  0  0
   46.5030   33.8600   45.1900 O   0  0  0  0  0  0  0  0  0  0  0  0
   45.6670   31.3330   45.1740 O   0  0  0  0  0  0  0  0  0  0  0  0
   46.2500   32.4370   46.0630 P   0  0  2  0  0  0  0  0  0  0  0  0
   45.0470   32.7990   47.2050 O   0  0  0  0  0  0  0  0  0  0  0  0
   45.4050   33.4380   47.8590 H   0  0  0  0  0  0  0  0  0  0  0  0
   47.6250   31.9450   46.8790 O   0  0  0  0  0  0  0  0  0  0  0  0
   47.5620   30.5510   47.0210 C   0  0  0  0  0  0  0  0  0  0  0  0
   46.5980   30.2530   47.4930 H   0  0  0  0  0  0  0  0  0  0  0  0
   47.6620   30.0150   46.0720 H   0  0  0  0  0  0  0  0  0  0  0  0
   47.4120   31.2570   49.6630 F   0  0  0  0  0  0  0  0  0  0  0  0
   48.5080   30.5720   49.2340 C   0  0  0  0  0  0  0  0  0  0  0  0
   48.6850   30.1580   47.9060 C   0  0  0  0  0  0  0  0  0  0  0  0
   49.8350   29.4700   47.5920 C   0  0  0  0  0  0  0  0  0  0  0  0
   49.8900   29.1910   46.5590 H   0  0  0  0  0  0  0  0  0  0  0  0
   50.7870   29.1910   48.5490 C   0  0  0  0  0  0  0  0  0  0  0  0
   51.6610   28.6570   48.2620 H   0  0  0  0  0  0  0  0  0  0  0  0
   50.6360   29.5910   49.8740 C   0  0  0  0  0  3  0  0  0  0  0  0
   49.4830   30.2770   50.1700 C   0  0  0  0  0  3  0  0  0  0  0  0
  1 16  1  0  0  0  0
  1  6  1  0  0  0  0
  2  7  1  0  0  0  0
  2  1  1  0  0  0  0
  3  2  1  0  0  0  0
  3  4  1  0  0  0  0
  4 12  1  0  0  0  0
  4  5  1  0  0  0  0
  5 14  1  0  0  0  0
  5  6  1  0  0  0  0
  5 13  1  0  0  0  0
  6 15  1  6  0  0  0
  6 31  1  0  0  0  0
  8  2  1  0  0  0  0
  9  3  1  0  0  0  0
 10  3  1  0  0  0  0
 11  4  1  0  0  0  0
 16 17  1  0  0  0  0
 18 16  1  0  0  0  0
 19 16  1  0  0  0  0
 19 20  1  0  0  0  0
 21 19  1  0  0  0  0
 22 28  1  0  0  0  0
 22 23  1  0  0  0  0
 23 29  1  0  0  0  0
 24 23  2  0  0  0  0
 24 19  1  0  0  0  0
 25 24  1  0  0  0  0
 26 27  1  0  0  0  0
 26 25  2  0  0  0  0
 27 22  2  0  0  0  0
 30 26  1  0  0  0  0
 31 33  1  0  0  0  0
 33 32  2  6  0  0  0
 33 36  1  0  0  0  0
 33 34  1  0  0  0  0
 34 35  1  0  0  0  0
 36 37  1  0  0  0  0
 37 38  1  0  0  0  0
 37 42  1  0  0  0  0
 39 37  1  0  0  0  0
 41 40  1  0  0  0  0
 41 48  1  0  0  0  0
 42 41  2  0  0  0  0
 43 42  1  0  0  0  0
 43 45  2  0  0  0  0
 44 43  1  0  0  0  0
 45 47  1  0  0  0  0
 46 45  1  0  0  0  0
 47 48  2  0  0  0  0
M  END
>  <minimizedAffinity>
-4.90004492

>  <minimizedRMSD>
2.603091

$$$$
