
 OpenBabel03242518103D

 24 25  0  0  0  0  0  0  0  0999 V2000
   39.0250   29.3030   42.7610 C   0  0  0  0  0  0  0  0  0  0  0  0
   39.8030   28.7320   42.2290 H   0  0  0  0  0  0  0  0  0  0  0  0
   39.4880   29.9800   43.5400 H   0  0  0  0  0  0  0  0  0  0  0  0
   38.2440   30.1650   41.8820 C   0  0  0  0  0  0  0  0  0  0  0  0
   36.9320   29.8820   41.5290 C   0  0  0  0  0  0  0  0  0  0  0  0
   36.2550   30.7910   40.6830 C   0  0  0  0  0  0  0  0  0  0  0  0
   36.9370   31.8960   40.2640 N   0  0  0  0  0  0  0  0  0  0  0  0
   38.2040   32.1220   40.6360 C   0  0  0  0  0  0  0  0  0  0  0  0
   38.8590   31.2810   41.4300 N   0  0  0  0  0  0  0  0  0  0  0  0
   36.4450   28.9900   41.8920 H   0  0  0  0  0  0  0  0  0  0  0  0
   35.2380   30.5590   40.4160 H   0  0  0  0  0  0  0  0  0  0  0  0
   38.6720   33.0280   40.2560 H   0  0  0  0  0  0  0  0  0  0  0  0
   38.0830   28.3560   43.4580 C   0  0  0  0  0  0  0  0  0  0  0  0
   37.9900   28.5690   44.5320 H   0  0  0  0  0  0  0  0  0  0  0  0
   37.0590   28.4220   43.0400 H   0  0  0  0  0  0  0  0  0  0  0  0
   36.5730   26.5810   42.0130 F   0  0  0  0  0  0  0  0  0  0  0  0
   37.7750   26.1760   42.4780 C   0  0  0  0  0  0  0  0  0  0  0  0
   38.6230   26.9720   43.2150 C   0  0  0  0  0  0  0  0  0  0  0  0
   39.8480   26.5330   43.6800 C   0  0  0  0  0  0  0  0  0  0  0  0
   40.4550   27.2220   44.2530 H   0  0  0  0  0  0  0  0  0  0  0  0
   40.2050   25.2350   43.3740 C   0  0  0  0  0  0  0  0  0  0  0  0
   41.1750   24.8620   43.7330 H   0  0  0  0  0  0  0  0  0  0  0  0
   39.3800   24.4140   42.6410 C   0  0  0  0  0  3  0  0  0  0  0  0
   38.1510   24.8650   42.1780 C   0  0  0  0  0  3  0  0  0  0  0  0
  1 13  1  0  0  0  0
  1  3  1  0  0  0  0
  2  1  1  0  0  0  0
  4  1  1  0  0  0  0
  5  4  1  0  0  0  0
  5 10  1  0  0  0  0
  6  5  2  0  0  0  0
  7  8  2  0  0  0  0
  7  6  1  0  0  0  0
  8  9  1  0  0  0  0
  9  4  2  0  0  0  0
 11  6  1  0  0  0  0
 12  8  1  0  0  0  0
 13 14  1  0  0  0  0
 15 13  1  0  0  0  0
 16 17  1  0  0  0  0
 17 18  1  0  0  0  0
 18 13  1  0  0  0  0
 18 19  2  0  0  0  0
 19 20  1  0  0  0  0
 21 19  1  0  0  0  0
 21 22  1  0  0  0  0
 23 21  2  0  0  0  0
 24 17  2  0  0  0  0
 24 23  1  0  0  0  0
M  END
>  <minimizedAffinity>
-4.76433563

$$$$

 OpenBabel03242518103D

 24 25  0  0  0  0  0  0  0  0999 V2000
   36.2960   27.6780   40.1130 C   0  0  0  0  0  0  0  0  0  0  0  0
   36.8740   27.6530   39.1750 H   0  0  0  0  0  0  0  0  0  0  0  0
   35.6420   26.7600   40.2040 H   0  0  0  0  0  0  0  0  0  0  0  0
   37.1360   27.7030   41.3040 C   0  0  0  0  0  0  0  0  0  0  0  0
   36.6140   27.8100   42.5850 C   0  0  0  0  0  0  0  0  0  0  0  0
   37.5140   27.8090   43.6770 C   0  0  0  0  0  0  0  0  0  0  0  0
   38.8460   27.7010   43.4020 N   0  0  0  0  0  0  0  0  0  0  0  0
   39.2970   27.5990   42.1440 C   0  0  0  0  0  0  0  0  0  0  0  0
   38.4700   27.5990   41.1040 N   0  0  0  0  0  0  0  0  0  0  0  0
   35.5490   27.8920   42.7410 H   0  0  0  0  0  0  0  0  0  0  0  0
   37.0950   27.8930   44.6650 H   0  0  0  0  0  0  0  0  0  0  0  0
   40.3740   27.5180   42.0160 H   0  0  0  0  0  0  0  0  0  0  0  0
   35.4080   28.8950   40.1320 C   0  0  0  0  0  0  0  0  0  0  0  0
   34.4420   28.7180   39.6400 H   0  0  0  0  0  0  0  0  0  0  0  0
   35.1740   29.2090   41.1690 H   0  0  0  0  0  0  0  0  0  0  0  0
   36.0180   31.1620   41.5490 F   0  0  0  0  0  0  0  0  0  0  0  0
   36.4270   31.0750   40.2640 C   0  0  0  0  0  0  0  0  0  0  0  0
   36.1820   29.9910   39.4500 C   0  0  0  0  0  0  0  0  0  0  0  0
   36.6100   29.9270   38.1380 C   0  0  0  0  0  0  0  0  0  0  0  0
   36.3760   29.0390   37.5660 H   0  0  0  0  0  0  0  0  0  0  0  0
   37.3100   31.0140   37.6540 C   0  0  0  0  0  0  0  0  0  0  0  0
   37.6620   30.9870   36.6140 H   0  0  0  0  0  0  0  0  0  0  0  0
   37.5700   32.1120   38.4410 C   0  0  0  0  0  3  0  0  0  0  0  0
   37.1350   32.1660   39.7590 C   0  0  0  0  0  3  0  0  0  0  0  0
  1 13  1  0  0  0  0
  1  3  1  0  0  0  0
  1  4  1  0  0  0  0
  2  1  1  0  0  0  0
  4  5  1  0  0  0  0
  5 10  1  0  0  0  0
  5  6  2  0  0  0  0
  6 11  1  0  0  0  0
  7  6  1  0  0  0  0
  8  7  2  0  0  0  0
  9  4  2  0  0  0  0
  9  8  1  0  0  0  0
 12  8  1  0  0  0  0
 13 15  1  0  0  0  0
 14 13  1  0  0  0  0
 17 16  1  0  0  0  0
 18 13  1  0  0  0  0
 18 17  2  0  0  0  0
 19 18  1  0  0  0  0
 20 19  1  0  0  0  0
 21 19  2  0  0  0  0
 21 23  1  0  0  0  0
 22 21  1  0  0  0  0
 23 24  2  0  0  0  0
 24 17  1  0  0  0  0
M  END
>  <minimizedAffinity>
-4.64198065

$$$$

 OpenBabel03242518103D

 24 25  0  0  0  0  0  0  0  0999 V2000
   39.7370   30.6730   41.1400 C   0  0  0  0  0  0  0  0  0  0  0  0
   39.5550   29.7260   40.6070 H   0  0  0  0  0  0  0  0  0  0  0  0
   40.8260   30.9700   41.0680 H   0  0  0  0  0  0  0  0  0  0  0  0
   38.9710   31.7910   40.6040 C   0  0  0  0  0  0  0  0  0  0  0  0
   37.8880   31.6180   39.7550 C   0  0  0  0  0  0  0  0  0  0  0  0
   37.2010   32.7690   39.3020 C   0  0  0  0  0  0  0  0  0  0  0  0
   37.6470   33.9840   39.7300 N   0  0  0  0  0  0  0  0  0  0  0  0
   38.7000   34.0950   40.5520 C   0  0  0  0  0  0  0  0  0  0  0  0
   39.3600   33.0280   40.9900 N   0  0  0  0  0  0  0  0  0  0  0  0
   37.5810   30.6290   39.4500 H   0  0  0  0  0  0  0  0  0  0  0  0
   36.3620   32.6190   38.6430 H   0  0  0  0  0  0  0  0  0  0  0  0
   38.9880   35.1030   40.8440 H   0  0  0  0  0  0  0  0  0  0  0  0
   39.3880   30.5130   42.5970 C   0  0  0  0  0  0  0  0  0  0  0  0
   40.2760   30.5020   43.2440 H   0  0  0  0  0  0  0  0  0  0  0  0
   38.7540   31.3480   42.9560 H   0  0  0  0  0  0  0  0  0  0  0  0
   40.7040   28.2330   43.3660 F   0  0  0  0  0  0  0  0  0  0  0  0
   39.3820   28.1550   43.0990 C   0  0  0  0  0  0  0  0  0  0  0  0
   38.6120   29.2280   42.7050 C   0  0  0  0  0  0  0  0  0  0  0  0
   37.2610   29.1210   42.4370 C   0  0  0  0  0  0  0  0  0  0  0  0
   36.7280   30.0130   42.1310 H   0  0  0  0  0  0  0  0  0  0  0  0
   36.6900   27.8730   42.5800 C   0  0  0  0  0  0  0  0  0  0  0  0
   35.6170   27.7630   42.3730 H   0  0  0  0  0  0  0  0  0  0  0  0
   37.4310   26.7820   42.9720 C   0  0  0  0  0  3  0  0  0  0  0  0
   38.7890   26.8990   43.2390 C   0  0  0  0  0  3  0  0  0  0  0  0
  1 13  1  0  0  0  0
  2  1  1  0  0  0  0
  3  1  1  0  0  0  0
  4  9  1  0  0  0  0
  4  1  1  0  0  0  0
  5  4  2  0  0  0  0
  6  7  2  0  0  0  0
  6  5  1  0  0  0  0
  7  8  1  0  0  0  0
  8 12  1  0  0  0  0
  8  9  2  0  0  0  0
 10  5  1  0  0  0  0
 11  6  1  0  0  0  0
 13 18  1  0  0  0  0
 13 15  1  0  0  0  0
 13 14  1  0  0  0  0
 17 24  1  0  0  0  0
 17 16  1  0  0  0  0
 18 17  2  0  0  0  0
 19 21  2  0  0  0  0
 19 18  1  0  0  0  0
 20 19  1  0  0  0  0
 21 23  1  0  0  0  0
 22 21  1  0  0  0  0
 23 24  2  0  0  0  0
M  END
>  <minimizedAffinity>
-4.52185917

$$$$

 OpenBabel03242518103D

 24 25  0  0  0  0  0  0  0  0999 V2000
   37.2960   30.5570   40.0240 C   0  0  0  0  0  0  0  0  0  0  0  0
   36.5160   30.5470   39.2450 H   0  0  0  0  0  0  0  0  0  0  0  0
   38.0110   29.6910   39.8840 H   0  0  0  0  0  0  0  0  0  0  0  0
   38.1080   31.7660   40.0080 C   0  0  0  0  0  0  0  0  0  0  0  0
   37.5570   33.0390   40.0550 C   0  0  0  0  0  0  0  0  0  0  0  0
   38.4340   34.1490   40.0500 C   0  0  0  0  0  0  0  0  0  0  0  0
   39.7740   33.8990   40.0000 N   0  0  0  0  0  0  0  0  0  0  0  0
   40.2540   32.6490   39.9570 C   0  0  0  0  0  0  0  0  0  0  0  0
   39.4490   31.5920   39.9600 N   0  0  0  0  0  0  0  0  0  0  0  0
   36.4870   33.1740   40.0930 H   0  0  0  0  0  0  0  0  0  0  0  0
   37.9920   35.1310   40.0860 H   0  0  0  0  0  0  0  0  0  0  0  0
   41.3360   32.5410   39.9180 H   0  0  0  0  0  0  0  0  0  0  0  0
   36.6610   30.4280   41.3840 C   0  0  0  0  0  0  0  0  0  0  0  0
   36.9110   31.2670   42.0470 H   0  0  0  0  0  0  0  0  0  0  0  0
   35.5540   30.4090   41.3140 H   0  0  0  0  0  0  0  0  0  0  0  0
   38.9000   30.4080   42.9670 F   0  0  0  0  0  0  0  0  0  0  0  0
   38.2700   29.2370   42.7260 C   0  0  0  0  0  0  0  0  0  0  0  0
   37.1390   29.1180   41.9490 C   0  0  0  0  0  0  0  0  0  0  0  0
   36.5140   27.9070   41.7180 C   0  0  0  0  0  0  0  0  0  0  0  0
   35.6290   27.8990   41.0940 H   0  0  0  0  0  0  0  0  0  0  0  0
   37.0730   26.7910   42.3060 C   0  0  0  0  0  0  0  0  0  0  0  0
   36.5940   25.8170   42.1370 H   0  0  0  0  0  0  0  0  0  0  0  0
   38.2030   26.8770   43.0870 C   0  0  0  0  0  3  0  0  0  0  0  0
   38.8240   28.0990   43.3130 C   0  0  0  0  0  3  0  0  0  0  0  0
  1 13  1  0  0  0  0
  2  1  1  0  0  0  0
  3  1  1  0  0  0  0
  4  1  1  0  0  0  0
  4  5  1  0  0  0  0
  5 10  1  0  0  0  0
  6  5  2  0  0  0  0
  6 11  1  0  0  0  0
  7  6  1  0  0  0  0
  8  9  1  0  0  0  0
  8  7  2  0  0  0  0
  9  4  2  0  0  0  0
 12  8  1  0  0  0  0
 13 18  1  0  0  0  0
 13 14  1  0  0  0  0
 15 13  1  0  0  0  0
 17 16  1  0  0  0  0
 17 24  1  0  0  0  0
 18 17  2  0  0  0  0
 19 18  1  0  0  0  0
 19 21  2  0  0  0  0
 20 19  1  0  0  0  0
 21 23  1  0  0  0  0
 22 21  1  0  0  0  0
 23 24  2  0  0  0  0
M  END
>  <minimizedAffinity>
-4.51777601

$$$$

 OpenBabel03242518103D

 24 25  0  0  0  0  0  0  0  0999 V2000
   36.4610   27.9130   39.9910 C   0  0  0  0  0  0  0  0  0  0  0  0
   37.1460   28.0860   39.1450 H   0  0  0  0  0  0  0  0  0  0  0  0
   35.8800   26.9520   39.8450 H   0  0  0  0  0  0  0  0  0  0  0  0
   37.1490   27.7850   41.2690 C   0  0  0  0  0  0  0  0  0  0  0  0
   36.4830   27.8250   42.4860 C   0  0  0  0  0  0  0  0  0  0  0  0
   37.2420   27.6760   43.6710 C   0  0  0  0  0  0  0  0  0  0  0  0
   38.5890   27.5000   43.5440 N   0  0  0  0  0  0  0  0  0  0  0  0
   39.1830   27.4690   42.3430 C   0  0  0  0  0  0  0  0  0  0  0  0
   38.4890   27.6070   41.2180 N   0  0  0  0  0  0  0  0  0  0  0  0
   35.4140   27.9670   42.5230 H   0  0  0  0  0  0  0  0  0  0  0  0
   36.7110   27.7100   44.6070 H   0  0  0  0  0  0  0  0  0  0  0  0
   40.2610   27.3250   42.3340 H   0  0  0  0  0  0  0  0  0  0  0  0
   35.4760   29.0490   40.0920 C   0  0  0  0  0  0  0  0  0  0  0  0
   34.6240   28.9290   39.4100 H   0  0  0  0  0  0  0  0  0  0  0  0
   35.0480   29.1230   41.1120 H   0  0  0  0  0  0  0  0  0  0  0  0
   36.1630   29.5910   37.4930 F   0  0  0  0  0  0  0  0  0  0  0  0
   36.5350   30.4650   38.4540 C   0  0  0  0  0  0  0  0  0  0  0  0
   36.2510   30.3030   39.7930 C   0  0  0  0  0  0  0  0  0  0  0  0
   36.6440   31.2130   40.7560 C   0  0  0  0  0  0  0  0  0  0  0  0
   36.3810   31.0110   41.7870 H   0  0  0  0  0  0  0  0  0  0  0  0
   37.3500   32.3170   40.3250 C   0  0  0  0  0  0  0  0  0  0  0  0
   37.6730   33.0540   41.0720 H   0  0  0  0  0  0  0  0  0  0  0  0
   37.6500   32.5070   38.9950 C   0  0  0  0  0  3  0  0  0  0  0  0
   37.2500   31.5870   38.0340 C   0  0  0  0  0  3  0  0  0  0  0  0
  1 13  1  0  0  0  0
  1  4  1  0  0  0  0
  2  1  1  0  0  0  0
  3  1  1  0  0  0  0
  4  5  1  0  0  0  0
  5 10  1  0  0  0  0
  5  6  2  0  0  0  0
  6 11  1  0  0  0  0
  7  6  1  0  0  0  0
  8  7  2  0  0  0  0
  9  4  2  0  0  0  0
  9  8  1  0  0  0  0
 12  8  1  0  0  0  0
 13 15  1  0  0  0  0
 14 13  1  0  0  0  0
 16 17  1  0  0  0  0
 17 18  1  0  0  0  0
 18 13  1  0  0  0  0
 18 19  2  0  0  0  0
 19 20  1  0  0  0  0
 21 19  1  0  0  0  0
 21 22  1  0  0  0  0
 23 21  2  0  0  0  0
 24 17  2  0  0  0  0
 24 23  1  0  0  0  0
M  END
>  <minimizedAffinity>
-4.51451254

$$$$

 OpenBabel03242518103D

 24 25  0  0  0  0  0  0  0  0999 V2000
   36.9470   28.8950   42.1530 C   0  0  0  0  0  0  0  0  0  0  0  0
   35.8820   29.0920   42.3560 H   0  0  0  0  0  0  0  0  0  0  0  0
   37.0640   28.1770   41.2860 H   0  0  0  0  0  0  0  0  0  0  0  0
   37.6950   30.0940   41.7940 C   0  0  0  0  0  0  0  0  0  0  0  0
   38.9950   30.3220   42.2210 C   0  0  0  0  0  0  0  0  0  0  0  0
   39.6380   31.5110   41.8040 C   0  0  0  0  0  0  0  0  0  0  0  0
   38.9380   32.3640   41.0030 N   0  0  0  0  0  0  0  0  0  0  0  0
   37.6830   32.0950   40.6180 C   0  0  0  0  0  0  0  0  0  0  0  0
   37.0590   30.9850   40.9980 N   0  0  0  0  0  0  0  0  0  0  0  0
   39.4980   29.6090   42.8560 H   0  0  0  0  0  0  0  0  0  0  0  0
   40.6470   31.6750   42.1440 H   0  0  0  0  0  0  0  0  0  0  0  0
   37.1980   32.8310   39.9790 H   0  0  0  0  0  0  0  0  0  0  0  0
   37.5930   28.2780   43.3670 C   0  0  0  0  0  0  0  0  0  0  0  0
   38.4830   28.8300   43.6960 H   0  0  0  0  0  0  0  0  0  0  0  0
   36.8990   28.2660   44.2310 H   0  0  0  0  0  0  0  0  0  0  0  0
   40.1730   27.4040   43.6800 F   0  0  0  0  0  0  0  0  0  0  0  0
   39.2550   26.5420   43.1910 C   0  0  0  0  0  0  0  0  0  0  0  0
   37.9300   26.8620   42.9880 C   0  0  0  0  0  0  0  0  0  0  0  0
   37.0110   25.9600   42.4860 C   0  0  0  0  0  0  0  0  0  0  0  0
   35.9890   26.2910   42.3560 H   0  0  0  0  0  0  0  0  0  0  0  0
   37.4740   24.6950   42.1850 C   0  0  0  0  0  0  0  0  0  0  0  0
   36.7620   23.9610   41.7840 H   0  0  0  0  0  0  0  0  0  0  0  0
   38.7910   24.3450   42.3750 C   0  0  0  0  0  3  0  0  0  0  0  0
   39.7070   25.2580   42.8810 C   0  0  0  0  0  3  0  0  0  0  0  0
  1  2  1  0  0  0  0
  1 13  1  0  0  0  0
  3  1  1  0  0  0  0
  4  1  1  0  0  0  0
  4  5  1  0  0  0  0
  5 10  1  0  0  0  0
  6 11  1  0  0  0  0
  6  5  2  0  0  0  0
  7  6  1  0  0  0  0
  8  9  1  0  0  0  0
  8  7  2  0  0  0  0
  9  4  2  0  0  0  0
 12  8  1  0  0  0  0
 13 14  1  0  0  0  0
 13 15  1  0  0  0  0
 17 16  1  0  0  0  0
 18 17  1  0  0  0  0
 18 13  1  0  0  0  0
 19 18  2  0  0  0  0
 20 19  1  0  0  0  0
 21 23  2  0  0  0  0
 21 19  1  0  0  0  0
 22 21  1  0  0  0  0
 23 24  1  0  0  0  0
 24 17  2  0  0  0  0
M  END
>  <minimizedAffinity>
-4.50602245

$$$$

 OpenBabel03242518103D

 24 25  0  0  0  0  0  0  0  0999 V2000
   39.9170   30.5970   41.1930 C   0  0  0  0  0  0  0  0  0  0  0  0
   40.1410   29.5760   40.8420 H   0  0  0  0  0  0  0  0  0  0  0  0
   40.8610   31.2200   41.2370 H   0  0  0  0  0  0  0  0  0  0  0  0
   38.9940   31.3140   40.3220 C   0  0  0  0  0  0  0  0  0  0  0  0
   38.5440   30.7930   39.1170 C   0  0  0  0  0  0  0  0  0  0  0  0
   37.6350   31.5630   38.3530 C   0  0  0  0  0  0  0  0  0  0  0  0
   37.2550   32.7750   38.8500 N   0  0  0  0  0  0  0  0  0  0  0  0
   37.7200   33.2310   40.0220 C   0  0  0  0  0  0  0  0  0  0  0  0
   38.5740   32.5250   40.7550 N   0  0  0  0  0  0  0  0  0  0  0  0
   38.8810   29.8260   38.7760 H   0  0  0  0  0  0  0  0  0  0  0  0
   37.2950   31.1460   37.4200 H   0  0  0  0  0  0  0  0  0  0  0  0
   37.3650   34.2080   40.3420 H   0  0  0  0  0  0  0  0  0  0  0  0
   39.3230   30.5430   42.5760 C   0  0  0  0  0  0  0  0  0  0  0  0
   40.0610   30.7580   43.3600 H   0  0  0  0  0  0  0  0  0  0  0  0
   38.5140   31.2920   42.6990 H   0  0  0  0  0  0  0  0  0  0  0  0
   36.6490   30.1740   42.0920 F   0  0  0  0  0  0  0  0  0  0  0  0
   37.3910   29.1060   42.4590 C   0  0  0  0  0  0  0  0  0  0  0  0
   38.7410   29.1640   42.7300 C   0  0  0  0  0  0  0  0  0  0  0  0
   39.4770   28.0560   43.1040 C   0  0  0  0  0  0  0  0  0  0  0  0
   40.5340   28.1870   43.2990 H   0  0  0  0  0  0  0  0  0  0  0  0
   38.8000   26.8570   43.2020 C   0  0  0  0  0  0  0  0  0  0  0  0
   39.3640   25.9620   43.4980 H   0  0  0  0  0  0  0  0  0  0  0  0
   37.4520   26.7670   42.9390 C   0  0  0  0  0  3  0  0  0  0  0  0
   36.7210   27.8870   42.5630 C   0  0  0  0  0  3  0  0  0  0  0  0
  1  3  1  0  0  0  0
  1 13  1  0  0  0  0
  2  1  1  0  0  0  0
  4  9  1  0  0  0  0
  4  1  1  0  0  0  0
  5  4  2  0  0  0  0
  6  7  2  0  0  0  0
  6  5  1  0  0  0  0
  7  8  1  0  0  0  0
  8 12  1  0  0  0  0
  8  9  2  0  0  0  0
 10  5  1  0  0  0  0
 11  6  1  0  0  0  0
 13 15  1  0  0  0  0
 13 18  1  0  0  0  0
 13 14  1  0  0  0  0
 16 17  1  0  0  0  0
 17 24  2  0  0  0  0
 17 18  1  0  0  0  0
 18 19  2  0  0  0  0
 19 21  1  0  0  0  0
 19 20  1  0  0  0  0
 21 22  1  0  0  0  0
 23 21  2  0  0  0  0
 24 23  1  0  0  0  0
M  END
>  <minimizedAffinity>
-4.40019512

$$$$

 OpenBabel03242518103D

 24 25  0  0  0  0  0  0  0  0999 V2000
   40.1170   30.3810   41.6550 C   0  0  0  0  0  0  0  0  0  0  0  0
   39.8410   29.5750   40.9570 H   0  0  0  0  0  0  0  0  0  0  0  0
   41.1850   30.2560   42.0080 H   0  0  0  0  0  0  0  0  0  0  0  0
   40.0370   31.7090   41.0600 C   0  0  0  0  0  0  0  0  0  0  0  0
   41.1480   32.3780   40.5670 C   0  0  0  0  0  0  0  0  0  0  0  0
   40.9610   33.6580   39.9940 C   0  0  0  0  0  0  0  0  0  0  0  0
   39.6920   34.1580   39.9600 N   0  0  0  0  0  0  0  0  0  0  0  0
   38.6530   33.4690   40.4510 C   0  0  0  0  0  0  0  0  0  0  0  0
   38.8060   32.2660   40.9930 N   0  0  0  0  0  0  0  0  0  0  0  0
   42.1290   31.9300   40.6220 H   0  0  0  0  0  0  0  0  0  0  0  0
   41.8320   34.1650   39.6170 H   0  0  0  0  0  0  0  0  0  0  0  0
   37.6760   33.9440   40.3830 H   0  0  0  0  0  0  0  0  0  0  0  0
   39.2140   30.3450   42.8610 C   0  0  0  0  0  0  0  0  0  0  0  0
   39.7600   30.5050   43.8000 H   0  0  0  0  0  0  0  0  0  0  0  0
   38.4420   31.1380   42.8120 H   0  0  0  0  0  0  0  0  0  0  0  0
   36.6470   30.1710   41.9130 F   0  0  0  0  0  0  0  0  0  0  0  0
   37.2540   29.0420   42.3410 C   0  0  0  0  0  0  0  0  0  0  0  0
   38.5380   29.0010   42.8380 C   0  0  0  0  0  0  0  0  0  0  0  0
   39.1360   27.8320   43.2700 C   0  0  0  0  0  0  0  0  0  0  0  0
   40.1490   27.8850   43.6480 H   0  0  0  0  0  0  0  0  0  0  0  0
   38.3860   26.6760   43.1870 C   0  0  0  0  0  0  0  0  0  0  0  0
   38.8400   25.7340   43.5240 H   0  0  0  0  0  0  0  0  0  0  0  0
   37.1010   26.6850   42.6960 C   0  0  0  0  0  3  0  0  0  0  0  0
   36.5090   27.8650   42.2630 C   0  0  0  0  0  3  0  0  0  0  0  0
  1  3  1  0  0  0  0
  1 13  1  0  0  0  0
  2  1  1  0  0  0  0
  4  1  1  0  0  0  0
  5 10  1  0  0  0  0
  5  4  2  0  0  0  0
  6  5  1  0  0  0  0
  7  6  2  0  0  0  0
  7  8  1  0  0  0  0
  8  9  2  0  0  0  0
  9  4  1  0  0  0  0
 11  6  1  0  0  0  0
 12  8  1  0  0  0  0
 13 14  1  0  0  0  0
 15 13  1  0  0  0  0
 16 17  1  0  0  0  0
 17 18  1  0  0  0  0
 18 13  1  0  0  0  0
 18 19  2  0  0  0  0
 19 20  1  0  0  0  0
 21 19  1  0  0  0  0
 21 22  1  0  0  0  0
 23 21  2  0  0  0  0
 24 17  2  0  0  0  0
 24 23  1  0  0  0  0
M  END
>  <minimizedAffinity>
-4.38091421

$$$$

 OpenBabel03242518103D

 24 25  0  0  0  0  0  0  0  0999 V2000
   38.9740   28.3710   43.0610 C   0  0  0  0  0  0  0  0  0  0  0  0
   39.4870   28.7030   43.9790 H   0  0  0  0  0  0  0  0  0  0  0  0
   39.4920   28.7810   42.1430 H   0  0  0  0  0  0  0  0  0  0  0  0
   38.9540   26.9210   42.9070 C   0  0  0  0  0  0  0  0  0  0  0  0
   39.9150   26.0950   43.4720 C   0  0  0  0  0  0  0  0  0  0  0  0
   39.7970   24.6990   43.2760 C   0  0  0  0  0  0  0  0  0  0  0  0
   38.7400   24.2480   42.5410 N   0  0  0  0  0  0  0  0  0  0  0  0
   37.8390   25.0910   42.0180 C   0  0  0  0  0  0  0  0  0  0  0  0
   37.9310   26.4050   42.1890 N   0  0  0  0  0  0  0  0  0  0  0  0
   40.7310   26.5110   44.0440 H   0  0  0  0  0  0  0  0  0  0  0  0
   40.5500   24.0700   43.7200 H   0  0  0  0  0  0  0  0  0  0  0  0
   37.0270   24.6460   41.4450 H   0  0  0  0  0  0  0  0  0  0  0  0
   37.5520   28.8680   43.0620 C   0  0  0  0  0  0  0  0  0  0  0  0
   36.8200   28.0510   43.0110 H   0  0  0  0  0  0  0  0  0  0  0  0
   37.3210   29.4320   43.9880 H   0  0  0  0  0  0  0  0  0  0  0  0
   35.4060   28.5890   41.3780 F   0  0  0  0  0  0  0  0  0  0  0  0
   36.3130   29.5550   41.1120 C   0  0  0  0  0  0  0  0  0  0  0  0
   37.4300   29.7940   41.8820 C   0  0  0  0  0  0  0  0  0  0  0  0
   38.3430   30.7890   41.5880 C   0  0  0  0  0  0  0  0  0  0  0  0
   39.1960   30.9110   42.2430 H   0  0  0  0  0  0  0  0  0  0  0  0
   38.0940   31.5570   40.4690 C   0  0  0  0  0  0  0  0  0  0  0  0
   38.8050   32.3550   40.2140 H   0  0  0  0  0  0  0  0  0  0  0  0
   36.9870   31.3430   39.6790 C   0  0  0  0  0  3  0  0  0  0  0  0
   36.0750   30.3410   39.9840 C   0  0  0  0  0  3  0  0  0  0  0  0
  1 13  1  0  0  0  0
  1  2  1  0  0  0  0
  3  1  1  0  0  0  0
  4  1  1  0  0  0  0
  4  5  1  0  0  0  0
  5 10  1  0  0  0  0
  6  5  2  0  0  0  0
  6 11  1  0  0  0  0
  7  6  1  0  0  0  0
  8  9  1  0  0  0  0
  8  7  2  0  0  0  0
  9  4  2  0  0  0  0
 12  8  1  0  0  0  0
 13 15  1  0  0  0  0
 14 13  1  0  0  0  0
 17 16  1  0  0  0  0
 17 18  1  0  0  0  0
 18 13  1  0  0  0  0
 19 18  2  0  0  0  0
 19 20  1  0  0  0  0
 21 19  1  0  0  0  0
 22 21  1  0  0  0  0
 23 24  1  0  0  0  0
 23 21  2  0  0  0  0
 24 17  2  0  0  0  0
M  END
>  <minimizedAffinity>
-4.33582067

$$$$
