
 OpenBabel03252500223D

 36 38  0  0  1  0  0  0  0  0999 V2000
   46.3650   35.1520   42.1320 C   0  0  1  0  0  0  0  0  0  0  0  0
   47.8970   35.0700   42.1590 C   0  0  0  0  0  0  0  0  0  0  0  0
   48.6020   34.6200   40.9580 C   0  0  0  0  0  0  0  0  0  0  0  0
   47.7230   34.2550   39.7980 C   0  0  0  0  0  0  0  0  0  0  0  0
   46.6170   33.3810   40.4000 C   0  0  0  0  0  0  0  0  0  0  0  0
   45.6920   34.4330   41.0690 C   0  0  1  0  0  0  0  0  0  0  0  0
   46.2900   36.2910   42.0590 H   0  0  0  0  0  0  0  0  0  0  0  0
   48.4190   35.3410   43.0440 H   0  0  0  0  0  0  0  0  0  0  0  0
   49.6590   34.5870   41.0400 H   0  0  0  0  0  0  0  0  0  0  0  0
   47.3120   35.1330   39.2960 H   0  0  0  0  0  0  0  0  0  0  0  0
   48.3220   33.5890   39.1880 H   0  0  0  0  0  0  0  0  0  0  0  0
   46.1010   32.9620   39.5360 H   0  0  0  0  0  0  0  0  0  0  0  0
   47.0450   32.6940   41.1210 H   0  0  0  0  0  0  0  0  0  0  0  0
   45.6260   35.1800   40.1820 H   0  0  0  0  0  0  0  0  0  0  0  0
   46.3380   33.7230   44.1680 C   0  0  0  0  0  0  0  0  0  0  0  0
   45.9440   34.8880   43.5250 C   0  0  0  0  0  0  0  0  0  0  0  0
   45.0610   35.7280   44.2270 C   0  0  0  0  0  0  0  0  0  0  0  0
   44.6400   35.3790   45.4650 N   0  0  0  0  0  0  0  0  0  0  0  0
   45.0660   34.2180   46.0380 C   0  0  0  0  0  0  0  0  0  0  0  0
   45.9170   33.3900   45.3860 N   0  0  0  0  0  0  0  0  0  0  0  0
   44.6410   33.8670   47.3290 N   0  0  0  0  0  0  0  0  0  0  0  0
   47.0340   33.0080   43.7650 H   0  0  0  0  0  0  0  0  0  0  0  0
   44.0340   33.0230   47.5300 H   0  0  0  0  0  0  0  0  0  0  0  0
   44.8860   34.4060   48.1990 H   0  0  0  0  0  0  0  0  0  0  0  0
   44.6880   36.9430   43.6010 N   0  0  0  0  0  0  0  0  0  0  0  0
   45.2670   37.6950   43.1590 H   0  0  0  0  0  0  0  0  0  0  0  0
   43.7350   37.3400   43.4530 H   0  0  0  0  0  0  0  0  0  0  0  0
   43.1910   35.8890   41.0830 F   0  0  0  0  0  0  0  0  0  0  0  0
   43.0460   34.5270   41.2170 C   0  0  0  0  0  0  0  0  0  0  0  0
   44.3290   33.9560   41.2030 C   0  0  0  0  0  0  0  0  0  0  0  0
   44.3100   32.5560   41.3410 C   0  0  0  0  0  0  0  0  0  0  0  0
   45.1850   31.8860   41.3590 H   0  0  0  0  0  0  0  0  0  0  0  0
   43.1430   31.8210   41.4760 C   0  0  0  0  0  0  0  0  0  0  0  0
   43.0980   30.7460   41.5840 H   0  0  0  0  0  0  0  0  0  0  0  0
   41.9210   32.4420   41.4830 C   0  0  0  0  0  0  0  0  0  0  0  0
   41.8820   33.8110   41.3510 C   0  0  0  0  0  0  0  0  0  0  0  0
  1  7  1  6  0  0  0
  1  2  1  0  0  0  0
  1 16  1  0  0  0  0
  2  8  1  0  0  0  0
  3  9  1  0  0  0  0
  3  2  2  0  0  0  0
  4  5  1  0  0  0  0
  4  3  1  0  0  0  0
  5  6  1  0  0  0  0
  5 13  1  0  0  0  0
  6 14  1  6  0  0  0
  6 30  1  0  0  0  0
  6  1  1  0  0  0  0
 10  4  1  0  0  0  0
 11  4  1  0  0  0  0
 12  5  1  0  0  0  0
 15 20  1  0  0  0  0
 16 15  2  0  0  0  0
 16 17  1  0  0  0  0
 17 18  2  0  0  0  0
 18 19  1  0  0  0  0
 19 21  1  0  0  0  0
 20 19  2  0  0  0  0
 21 23  1  0  0  0  0
 21 24  1  0  0  0  0
 22 15  1  0  0  0  0
 25 17  1  0  0  0  0
 26 25  1  0  0  0  0
 27 25  1  0  0  0  0
 28 29  1  0  0  0  0
 29 36  1  0  0  0  0
 30 29  2  0  0  0  0
 30 31  1  0  0  0  0
 31 32  1  0  0  0  0
 31 33  2  0  0  0  0
 33 35  1  0  0  0  0
 33 34  1  0  0  0  0
 36 35  2  0  0  0  0
M  END
>  <minimizedAffinity>
-6.95107698

>  <minimizedRMSD>
4.33848047

$$$$
