
 OpenBabel03252500223D

 36 38  0  0  1  0  0  0  0  0999 V2000
   36.0250   29.2690   39.2720 C   0  0  1  0  0  0  0  0  0  0  0  0
   35.6970   29.2650   37.7730 C   0  0  0  0  0  0  0  0  0  0  0  0
   35.4180   27.9870   37.1150 C   0  0  0  0  0  0  0  0  0  0  0  0
   35.5050   26.7790   37.9990 C   0  0  0  0  0  0  0  0  0  0  0  0
   36.8090   26.9560   38.7850 C   0  0  0  0  0  0  0  0  0  0  0  0
   36.4050   28.0010   39.8610 C   0  0  1  0  0  0  0  0  0  0  0  0
   35.0180   29.6790   39.6300 H   0  0  0  0  0  0  0  0  0  0  0  0
   35.6780   30.1830   37.2400 H   0  0  0  0  0  0  0  0  0  0  0  0
   35.1970   28.0510   36.0800 H   0  0  0  0  0  0  0  0  0  0  0  0
   34.6440   26.6880   38.6650 H   0  0  0  0  0  0  0  0  0  0  0  0
   35.6810   25.9480   37.3260 H   0  0  0  0  0  0  0  0  0  0  0  0
   36.9650   25.9950   39.2750 H   0  0  0  0  0  0  0  0  0  0  0  0
   37.5860   27.3260   38.1270 H   0  0  0  0  0  0  0  0  0  0  0  0
   35.4120   27.5080   40.2040 H   0  0  0  0  0  0  0  0  0  0  0  0
   38.0150   30.6110   38.6150 C   0  0  0  0  0  0  0  0  0  0  0  0
   36.9310   30.4230   39.4610 C   0  0  0  0  0  0  0  0  0  0  0  0
   36.8110   31.3180   40.5400 C   0  0  0  0  0  0  0  0  0  0  0  0
   37.7310   32.2960   40.7090 N   0  0  0  0  0  0  0  0  0  0  0  0
   38.7720   32.4230   39.8400 C   0  0  0  0  0  0  0  0  0  0  0  0
   38.9120   31.5770   38.7910 N   0  0  0  0  0  0  0  0  0  0  0  0
   39.7150   33.4500   40.0070 N   0  0  0  0  0  0  0  0  0  0  0  0
   38.2100   30.0240   37.7340 H   0  0  0  0  0  0  0  0  0  0  0  0
   40.7330   33.2700   40.2390 H   0  0  0  0  0  0  0  0  0  0  0  0
   39.4950   34.4750   39.9190 H   0  0  0  0  0  0  0  0  0  0  0  0
   35.6840   31.1670   41.3850 N   0  0  0  0  0  0  0  0  0  0  0  0
   34.6640   31.0870   41.1620 H   0  0  0  0  0  0  0  0  0  0  0  0
   35.6460   31.1050   42.4250 H   0  0  0  0  0  0  0  0  0  0  0  0
   39.2840   28.1350   40.1330 F   0  0  0  0  0  0  0  0  0  0  0  0
   38.6160   27.9780   41.3260 C   0  0  0  0  0  0  0  0  0  0  0  0
   37.2410   27.9200   41.0430 C   0  0  0  0  0  0  0  0  0  0  0  0
   36.4490   27.7530   42.1950 C   0  0  0  0  0  0  0  0  0  0  0  0
   35.3500   27.6800   42.2290 H   0  0  0  0  0  0  0  0  0  0  0  0
   36.9760   27.6560   43.4730 C   0  0  0  0  0  0  0  0  0  0  0  0
   36.3920   27.5270   44.3730 H   0  0  0  0  0  0  0  0  0  0  0  0
   38.3290   27.7200   43.6790 C   0  0  0  0  0  3  0  0  0  0  0  0
   39.1500   27.8840   42.5870 C   0  0  0  0  0  3  0  0  0  0  0  0
  1 16  1  0  0  0  0
  1  7  1  1  0  0  0
  1  6  1  0  0  0  0
  2  1  1  0  0  0  0
  3  2  2  0  0  0  0
  3  4  1  0  0  0  0
  4 10  1  0  0  0  0
  4  5  1  0  0  0  0
  5 12  1  0  0  0  0
  5  6  1  0  0  0  0
  6 14  1  1  0  0  0
  6 30  1  0  0  0  0
  8  2  1  0  0  0  0
  9  3  1  0  0  0  0
 11  4  1  0  0  0  0
 13  5  1  0  0  0  0
 15 20  2  0  0  0  0
 15 16  1  0  0  0  0
 16 17  2  0  0  0  0
 17 18  1  0  0  0  0
 17 25  1  0  0  0  0
 19 21  1  0  0  0  0
 19 18  2  0  0  0  0
 20 19  1  0  0  0  0
 21 23  1  0  0  0  0
 22 15  1  0  0  0  0
 24 21  1  0  0  0  0
 25 27  1  0  0  0  0
 26 25  1  0  0  0  0
 28 29  1  0  0  0  0
 29 36  1  0  0  0  0
 30 29  2  0  0  0  0
 30 31  1  0  0  0  0
 31 32  1  0  0  0  0
 31 33  2  0  0  0  0
 33 35  1  0  0  0  0
 33 34  1  0  0  0  0
 36 35  2  0  0  0  0
M  END
>  <minimizedAffinity>
-6.32402897

$$$$

 OpenBabel03252500223D

 36 38  0  0  1  0  0  0  0  0999 V2000
   38.2840   29.2760   40.4010 C   0  0  1  0  0  0  0  0  0  0  0  0
   38.3390   30.7990   40.5860 C   0  0  0  0  0  0  0  0  0  0  0  0
   39.1240   31.3470   41.6930 C   0  0  0  0  0  0  0  0  0  0  0  0
   39.7940   30.3300   42.5690 C   0  0  0  0  0  0  0  0  0  0  0  0
   38.7140   29.2800   42.8530 C   0  0  0  0  0  0  0  0  0  0  0  0
   38.6900   28.4660   41.5310 C   0  0  1  0  0  0  0  0  0  0  0  0
   38.9860   29.2230   39.4990 H   0  0  0  0  0  0  0  0  0  0  0  0
   37.8120   31.4260   39.9110 H   0  0  0  0  0  0  0  0  0  0  0  0
   39.1240   32.4050   41.7660 H   0  0  0  0  0  0  0  0  0  0  0  0
   40.6700   29.8850   42.0940 H   0  0  0  0  0  0  0  0  0  0  0  0
   39.9630   30.8370   43.5130 H   0  0  0  0  0  0  0  0  0  0  0  0
   39.1410   28.6550   43.6390 H   0  0  0  0  0  0  0  0  0  0  0  0
   37.7670   29.7710   43.0490 H   0  0  0  0  0  0  0  0  0  0  0  0
   39.8350   28.3160   41.4100 H   0  0  0  0  0  0  0  0  0  0  0  0
   36.8550   28.2650   38.6320 C   0  0  0  0  0  0  0  0  0  0  0  0
   36.9590   29.0130   39.7970 C   0  0  0  0  0  0  0  0  0  0  0  0
   35.7700   29.5730   40.2950 C   0  0  0  0  0  0  0  0  0  0  0  0
   34.6030   29.3710   39.6390 N   0  0  0  0  0  0  0  0  0  0  0  0
   34.5720   28.6260   38.4980 C   0  0  0  0  0  0  0  0  0  0  0  0
   35.7020   28.0730   37.9960 N   0  0  0  0  0  0  0  0  0  0  0  0
   33.3580   28.4030   37.8300 N   0  0  0  0  0  0  0  0  0  0  0  0
   37.6750   27.7530   38.1600 H   0  0  0  0  0  0  0  0  0  0  0  0
   33.1540   28.7750   36.8600 H   0  0  0  0  0  0  0  0  0  0  0  0
   32.5550   27.8540   38.2300 H   0  0  0  0  0  0  0  0  0  0  0  0
   35.8540   30.2990   41.5090 N   0  0  0  0  0  0  0  0  0  0  0  0
   36.2820   30.0490   42.4310 H   0  0  0  0  0  0  0  0  0  0  0  0
   35.4960   31.2530   41.7300 H   0  0  0  0  0  0  0  0  0  0  0  0
   36.3050   27.5180   42.8690 F   0  0  0  0  0  0  0  0  0  0  0  0
   37.0810   26.5160   42.3310 C   0  0  0  0  0  0  0  0  0  0  0  0
   38.1980   27.1160   41.7280 C   0  0  0  0  0  0  0  0  0  0  0  0
   39.0760   26.1830   41.1450 C   0  0  0  0  0  0  0  0  0  0  0  0
   40.0170   26.4090   40.6170 H   0  0  0  0  0  0  0  0  0  0  0  0
   38.8570   24.8150   41.1680 C   0  0  0  0  0  0  0  0  0  0  0  0
   39.5130   24.0770   40.7290 H   0  0  0  0  0  0  0  0  0  0  0  0
   37.7440   24.2940   41.7750 C   0  0  0  0  0  3  0  0  0  0  0  0
   36.8510   25.1620   42.3600 C   0  0  0  0  0  3  0  0  0  0  0  0
  1  7  1  6  0  0  0
  1  2  1  0  0  0  0
  1  6  1  0  0  0  0
  2  3  2  0  0  0  0
  3  9  1  0  0  0  0
  3  4  1  0  0  0  0
  4  5  1  0  0  0  0
  4 11  1  0  0  0  0
  5 13  1  0  0  0  0
  5 12  1  0  0  0  0
  6 14  1  6  0  0  0
  6 30  1  0  0  0  0
  6  5  1  0  0  0  0
  8  2  1  0  0  0  0
 10  4  1  0  0  0  0
 15 16  1  0  0  0  0
 16 17  2  0  0  0  0
 16  1  1  0  0  0  0
 17 25  1  0  0  0  0
 18 17  1  0  0  0  0
 19 18  2  0  0  0  0
 20 19  1  0  0  0  0
 20 15  2  0  0  0  0
 21 24  1  0  0  0  0
 21 19  1  0  0  0  0
 22 15  1  0  0  0  0
 23 21  1  0  0  0  0
 25 27  1  0  0  0  0
 25 26  1  0  0  0  0
 29 36  1  0  0  0  0
 29 28  1  0  0  0  0
 30 29  2  0  0  0  0
 31 33  2  0  0  0  0
 31 30  1  0  0  0  0
 32 31  1  0  0  0  0
 33 35  1  0  0  0  0
 34 33  1  0  0  0  0
 35 36  2  0  0  0  0
M  END
>  <minimizedAffinity>
-5.92713261

$$$$

 OpenBabel03252500223D

 36 38  0  0  1  0  0  0  0  0999 V2000
   37.3090   30.8300   38.7580 C   0  0  1  0  0  0  0  0  0  0  0  0
   37.4860   30.9580   37.2390 C   0  0  0  0  0  0  0  0  0  0  0  0
   37.0410   29.8580   36.3810 C   0  0  0  0  0  0  0  0  0  0  0  0
   36.4600   28.6780   37.1020 C   0  0  0  0  0  0  0  0  0  0  0  0
   37.4360   28.3960   38.2500 C   0  0  0  0  0  0  0  0  0  0  0  0
   37.0660   29.5000   39.2770 C   0  0  1  0  0  0  0  0  0  0  0  0
   36.4240   31.5490   38.8530 H   0  0  0  0  0  0  0  0  0  0  0  0
   37.9250   31.8370   36.8370 H   0  0  0  0  0  0  0  0  0  0  0  0
   37.1890   30.0080   35.3420 H   0  0  0  0  0  0  0  0  0  0  0  0
   35.4520   28.8720   37.4730 H   0  0  0  0  0  0  0  0  0  0  0  0
   36.5690   27.8460   36.4160 H   0  0  0  0  0  0  0  0  0  0  0  0
   37.1200   27.4310   38.6460 H   0  0  0  0  0  0  0  0  0  0  0  0
   38.4570   28.4920   37.8950 H   0  0  0  0  0  0  0  0  0  0  0  0
   35.9130   29.3640   39.2550 H   0  0  0  0  0  0  0  0  0  0  0  0
   39.7320   31.1590   39.2210 C   0  0  0  0  0  0  0  0  0  0  0  0
   38.4240   31.6100   39.3390 C   0  0  0  0  0  0  0  0  0  0  0  0
   38.2230   32.7680   40.1110 C   0  0  0  0  0  0  0  0  0  0  0  0
   39.2800   33.3810   40.6940 N   0  0  0  0  0  0  0  0  0  0  0  0
   40.5390   32.8840   40.5380 C   0  0  0  0  0  0  0  0  0  0  0  0
   40.7620   31.7700   39.7990 N   0  0  0  0  0  0  0  0  0  0  0  0
   41.6350   33.5310   41.1290 N   0  0  0  0  0  0  0  0  0  0  0  0
   40.0340   30.3090   38.6350 H   0  0  0  0  0  0  0  0  0  0  0  0
   42.2220   33.0940   41.8950 H   0  0  0  0  0  0  0  0  0  0  0  0
   41.9650   34.4950   40.8670 H   0  0  0  0  0  0  0  0  0  0  0  0
   36.9000   33.2660   40.2010 N   0  0  0  0  0  0  0  0  0  0  0  0
   36.1910   33.4740   39.4580 H   0  0  0  0  0  0  0  0  0  0  0  0
   36.3540   33.5310   41.0490 H   0  0  0  0  0  0  0  0  0  0  0  0
   36.2090   30.6100   41.8090 F   0  0  0  0  0  0  0  0  0  0  0  0
   37.0820   29.5520   41.9290 C   0  0  0  0  0  0  0  0  0  0  0  0
   37.4170   29.1250   40.6340 C   0  0  0  0  0  0  0  0  0  0  0  0
   38.3170   28.0420   40.6260 C   0  0  0  0  0  0  0  0  0  0  0  0
   38.7250   27.5350   39.7380 H   0  0  0  0  0  0  0  0  0  0  0  0
   38.8180   27.4630   41.7810 C   0  0  0  0  0  0  0  0  0  0  0  0
   39.5100   26.6330   41.8060 H   0  0  0  0  0  0  0  0  0  0  0  0
   38.4500   27.9300   43.0160 C   0  0  0  0  0  3  0  0  0  0  0  0
   37.5710   28.9870   43.0800 C   0  0  0  0  0  3  0  0  0  0  0  0
  1  7  1  1  0  0  0
  1  6  1  0  0  0  0
  1 16  1  0  0  0  0
  2  1  1  0  0  0  0
  3  4  1  0  0  0  0
  3  2  2  0  0  0  0
  4 10  1  0  0  0  0
  4  5  1  0  0  0  0
  5 12  1  0  0  0  0
  5  6  1  0  0  0  0
  6 14  1  1  0  0  0
  6 30  1  0  0  0  0
  8  2  1  0  0  0  0
  9  3  1  0  0  0  0
 11  4  1  0  0  0  0
 13  5  1  0  0  0  0
 15 16  2  0  0  0  0
 15 20  1  0  0  0  0
 16 17  1  0  0  0  0
 17 25  1  0  0  0  0
 17 18  2  0  0  0  0
 19 18  1  0  0  0  0
 19 21  1  0  0  0  0
 20 19  2  0  0  0  0
 21 23  1  0  0  0  0
 22 15  1  0  0  0  0
 24 21  1  0  0  0  0
 25 27  1  0  0  0  0
 26 25  1  0  0  0  0
 28 29  1  0  0  0  0
 29 36  1  0  0  0  0
 30 29  2  0  0  0  0
 31 30  1  0  0  0  0
 31 33  2  0  0  0  0
 32 31  1  0  0  0  0
 33 34  1  0  0  0  0
 33 35  1  0  0  0  0
 35 36  2  0  0  0  0
M  END
>  <minimizedAffinity>
-5.89850616

$$$$

 OpenBabel03252500223D

 36 38  0  0  1  0  0  0  0  0999 V2000
   36.1230   28.3160   40.5000 C   0  0  1  0  0  0  0  0  0  0  0  0
   35.4380   29.3030   39.5440 C   0  0  0  0  0  0  0  0  0  0  0  0
   34.8650   28.7940   38.2960 C   0  0  0  0  0  0  0  0  0  0  0  0
   35.0310   27.3210   38.0690 C   0  0  0  0  0  0  0  0  0  0  0  0
   36.4990   27.0320   38.4000 C   0  0  0  0  0  0  0  0  0  0  0  0
   36.4920   27.0260   39.9530 C   0  0  1  0  0  0  0  0  0  0  0  0
   35.2870   28.2810   41.2810 H   0  0  0  0  0  0  0  0  0  0  0  0
   35.3910   30.3310   39.8010 H   0  0  0  0  0  0  0  0  0  0  0  0
   34.4050   29.5240   37.6800 H   0  0  0  0  0  0  0  0  0  0  0  0
   34.3560   26.7260   38.6870 H   0  0  0  0  0  0  0  0  0  0  0  0
   34.9430   27.1890   36.9960 H   0  0  0  0  0  0  0  0  0  0  0  0
   36.6630   26.0130   38.0490 H   0  0  0  0  0  0  0  0  0  0  0  0
   37.1280   27.8180   37.9960 H   0  0  0  0  0  0  0  0  0  0  0  0
   35.5640   26.3450   40.1100 H   0  0  0  0  0  0  0  0  0  0  0  0
   38.0220   29.9220   40.4460 C   0  0  0  0  0  0  0  0  0  0  0  0
   37.1700   29.1080   41.1800 C   0  0  0  0  0  0  0  0  0  0  0  0
   37.4250   29.0110   42.5600 C   0  0  0  0  0  0  0  0  0  0  0  0
   38.4610   29.6910   43.1030 N   0  0  0  0  0  0  0  0  0  0  0  0
   39.2600   30.4730   42.3240 C   0  0  0  0  0  0  0  0  0  0  0  0
   39.0370   30.5860   40.9920 N   0  0  0  0  0  0  0  0  0  0  0  0
   40.3230   31.1910   42.8930 N   0  0  0  0  0  0  0  0  0  0  0  0
   37.9240   30.1160   39.3920 H   0  0  0  0  0  0  0  0  0  0  0  0
   41.3390   30.9970   42.6680 H   0  0  0  0  0  0  0  0  0  0  0  0
   40.2040   31.9740   43.5850 H   0  0  0  0  0  0  0  0  0  0  0  0
   36.5350   28.2210   43.3290 N   0  0  0  0  0  0  0  0  0  0  0  0
   35.4890   28.2190   43.3840 H   0  0  0  0  0  0  0  0  0  0  0  0
   36.7510   27.4630   44.0120 H   0  0  0  0  0  0  0  0  0  0  0  0
   39.3430   27.1770   39.4770 F   0  0  0  0  0  0  0  0  0  0  0  0
   38.9770   26.2030   40.3780 C   0  0  0  0  0  0  0  0  0  0  0  0
   37.5780   26.2380   40.5030 C   0  0  0  0  0  0  0  0  0  0  0  0
   37.0810   25.2740   41.4000 C   0  0  0  0  0  0  0  0  0  0  0  0
   36.0240   25.1070   41.6630 H   0  0  0  0  0  0  0  0  0  0  0  0
   37.8920   24.3850   42.0870 C   0  0  0  0  0  0  0  0  0  0  0  0
   37.5380   23.6350   42.7800 H   0  0  0  0  0  0  0  0  0  0  0  0
   39.2510   24.4040   41.9180 C   0  0  0  0  0  3  0  0  0  0  0  0
   39.7910   25.3270   41.0520 C   0  0  0  0  0  3  0  0  0  0  0  0
  1 16  1  0  0  0  0
  1  7  1  1  0  0  0
  2  8  1  0  0  0  0
  2  1  1  0  0  0  0
  3  2  2  0  0  0  0
  4  3  1  0  0  0  0
  4  5  1  0  0  0  0
  4 10  1  0  0  0  0
  5  6  1  0  0  0  0
  6 14  1  1  0  0  0
  6  1  1  0  0  0  0
  6 30  1  0  0  0  0
  9  3  1  0  0  0  0
 11  4  1  0  0  0  0
 12  5  1  0  0  0  0
 13  5  1  0  0  0  0
 15 20  2  0  0  0  0
 15 16  1  0  0  0  0
 16 17  2  0  0  0  0
 17 18  1  0  0  0  0
 17 25  1  0  0  0  0
 19 21  1  0  0  0  0
 19 18  2  0  0  0  0
 20 19  1  0  0  0  0
 21 24  1  0  0  0  0
 22 15  1  0  0  0  0
 23 21  1  0  0  0  0
 25 26  1  0  0  0  0
 25 27  1  0  0  0  0
 28 29  1  0  0  0  0
 29 30  2  0  0  0  0
 29 36  1  0  0  0  0
 30 31  1  0  0  0  0
 31 32  1  0  0  0  0
 31 33  2  0  0  0  0
 33 34  1  0  0  0  0
 35 33  1  0  0  0  0
 36 35  2  0  0  0  0
M  END
>  <minimizedAffinity>
-5.72343969

$$$$

 OpenBabel03252500223D

 36 38  0  0  1  0  0  0  0  0999 V2000
   36.7750   28.1320   40.9380 C   0  0  1  0  0  0  0  0  0  0  0  0
   37.0140   26.6750   41.3560 C   0  0  0  0  0  0  0  0  0  0  0  0
   37.5050   26.4000   42.7070 C   0  0  0  0  0  0  0  0  0  0  0  0
   37.7480   27.6100   43.5590 C   0  0  0  0  0  0  0  0  0  0  0  0
   38.5190   28.5800   42.6570 C   0  0  0  0  0  0  0  0  0  0  0  0
   37.3940   29.1560   41.7540 C   0  0  1  0  0  0  0  0  0  0  0  0
   35.6320   28.1040   40.9930 H   0  0  0  0  0  0  0  0  0  0  0  0
   36.8210   25.8940   40.6630 H   0  0  0  0  0  0  0  0  0  0  0  0
   37.6480   25.3740   42.9360 H   0  0  0  0  0  0  0  0  0  0  0  0
   36.8210   28.0540   43.9250 H   0  0  0  0  0  0  0  0  0  0  0  0
   38.4570   27.2880   44.3130 H   0  0  0  0  0  0  0  0  0  0  0  0
   38.8610   29.3670   43.3310 H   0  0  0  0  0  0  0  0  0  0  0  0
   39.2640   28.0370   42.0870 H   0  0  0  0  0  0  0  0  0  0  0  0
   36.6230   29.3970   42.5880 H   0  0  0  0  0  0  0  0  0  0  0  0
   38.3010   27.9060   38.9850 C   0  0  0  0  0  0  0  0  0  0  0  0
   37.0290   28.1570   39.4800 C   0  0  0  0  0  0  0  0  0  0  0  0
   36.0480   28.5250   38.5420 C   0  0  0  0  0  0  0  0  0  0  0  0
   36.3720   28.6200   37.2310 N   0  0  0  0  0  0  0  0  0  0  0  0
   37.6430   28.3610   36.8130 C   0  0  0  0  0  0  0  0  0  0  0  0
   38.6070   28.0030   37.6940 N   0  0  0  0  0  0  0  0  0  0  0  0
   37.9720   28.4440   35.4510 N   0  0  0  0  0  0  0  0  0  0  0  0
   39.1360   27.5840   39.5830 H   0  0  0  0  0  0  0  0  0  0  0  0
   38.6470   29.1600   35.0600 H   0  0  0  0  0  0  0  0  0  0  0  0
   37.5800   27.8100   34.7080 H   0  0  0  0  0  0  0  0  0  0  0  0
   34.7340   28.7380   39.0270 N   0  0  0  0  0  0  0  0  0  0  0  0
   34.1220   28.1460   39.6370 H   0  0  0  0  0  0  0  0  0  0  0  0
   34.0980   29.5490   38.8680 H   0  0  0  0  0  0  0  0  0  0  0  0
   35.7080   31.1920   40.5760 F   0  0  0  0  0  0  0  0  0  0  0  0
   37.0380   31.5400   40.6480 C   0  0  0  0  0  0  0  0  0  0  0  0
   37.7310   30.4640   41.2270 C   0  0  0  0  0  0  0  0  0  0  0  0
   39.1130   30.7010   41.3480 C   0  0  0  0  0  0  0  0  0  0  0  0
   39.8630   30.0110   41.7670 H   0  0  0  0  0  0  0  0  0  0  0  0
   39.7220   31.8760   40.9360 C   0  0  0  0  0  0  0  0  0  0  0  0
   40.7790   32.0850   41.0160 H   0  0  0  0  0  0  0  0  0  0  0  0
   38.9860   32.8880   40.3780 C   0  0  0  0  0  3  0  0  0  0  0  0
   37.6290   32.7090   40.2370 C   0  0  0  0  0  3  0  0  0  0  0  0
  1  7  1  1  0  0  0
  1  2  1  0  0  0  0
  1  6  1  0  0  0  0
  2  3  2  0  0  0  0
  3  9  1  0  0  0  0
  3  4  1  0  0  0  0
  4 10  1  0  0  0  0
  4 11  1  0  0  0  0
  5 12  1  0  0  0  0
  5  4  1  0  0  0  0
  6 14  1  1  0  0  0
  6  5  1  0  0  0  0
  8  2  1  0  0  0  0
 13  5  1  0  0  0  0
 15 16  1  0  0  0  0
 15 22  1  0  0  0  0
 16  1  1  0  0  0  0
 17 25  1  0  0  0  0
 17 16  2  0  0  0  0
 18 17  1  0  0  0  0
 19 18  2  0  0  0  0
 19 20  1  0  0  0  0
 20 15  2  0  0  0  0
 21 19  1  0  0  0  0
 23 21  1  0  0  0  0
 24 21  1  0  0  0  0
 25 26  1  0  0  0  0
 27 25  1  0  0  0  0
 28 29  1  0  0  0  0
 29 30  1  0  0  0  0
 30 31  2  0  0  0  0
 30  6  1  0  0  0  0
 31 32  1  0  0  0  0
 33 34  1  0  0  0  0
 33 31  1  0  0  0  0
 35 33  2  0  0  0  0
 36 35  1  0  0  0  0
 36 29  2  0  0  0  0
M  END
>  <minimizedAffinity>
-5.60379028

$$$$

 OpenBabel03252500223D

 36 38  0  0  1  0  0  0  0  0999 V2000
   38.9980   26.7660   41.0520 C   0  0  1  0  0  0  0  0  0  0  0  0
   39.8060   26.0160   42.1200 C   0  0  0  0  0  0  0  0  0  0  0  0
   39.2630   24.7730   42.6710 C   0  0  0  0  0  0  0  0  0  0  0  0
   37.9240   24.3630   42.1320 C   0  0  0  0  0  0  0  0  0  0  0  0
   37.0770   25.6400   42.1660 C   0  0  0  0  0  0  0  0  0  0  0  0
   37.5980   26.4150   40.9250 C   0  0  1  0  0  0  0  0  0  0  0  0
   39.6470   26.4710   40.1580 H   0  0  0  0  0  0  0  0  0  0  0  0
   40.7390   26.4070   42.4400 H   0  0  0  0  0  0  0  0  0  0  0  0
   39.8680   24.3010   43.4030 H   0  0  0  0  0  0  0  0  0  0  0  0
   37.9910   23.9530   41.1230 H   0  0  0  0  0  0  0  0  0  0  0  0
   37.5020   23.7120   42.8890 H   0  0  0  0  0  0  0  0  0  0  0  0
   36.0610   25.2990   41.9620 H   0  0  0  0  0  0  0  0  0  0  0  0
   37.2590   26.1760   43.0900 H   0  0  0  0  0  0  0  0  0  0  0  0
   37.5660   25.5410   40.1610 H   0  0  0  0  0  0  0  0  0  0  0  0
   39.2840   28.7620   42.5110 C   0  0  0  0  0  0  0  0  0  0  0  0
   39.3420   28.1920   41.2460 C   0  0  0  0  0  0  0  0  0  0  0  0
   39.6420   29.0560   40.1780 C   0  0  0  0  0  0  0  0  0  0  0  0
   39.8540   30.3710   40.4150 N   0  0  0  0  0  0  0  0  0  0  0  0
   39.7810   30.8660   41.6830 C   0  0  0  0  0  0  0  0  0  0  0  0
   39.4950   30.0570   42.7310 N   0  0  0  0  0  0  0  0  0  0  0  0
   40.0180   32.2280   41.9270 N   0  0  0  0  0  0  0  0  0  0  0  0
   39.0990   28.2160   43.4190 H   0  0  0  0  0  0  0  0  0  0  0  0
   39.2740   32.8910   42.2850 H   0  0  0  0  0  0  0  0  0  0  0  0
   40.9450   32.7030   41.7780 H   0  0  0  0  0  0  0  0  0  0  0  0
   39.7510   28.4790   38.8890 N   0  0  0  0  0  0  0  0  0  0  0  0
   40.2950   27.6510   38.5500 H   0  0  0  0  0  0  0  0  0  0  0  0
   39.2980   28.7730   37.9970 H   0  0  0  0  0  0  0  0  0  0  0  0
   36.1680   28.5560   42.2470 F   0  0  0  0  0  0  0  0  0  0  0  0
   35.8600   28.4180   40.9120 C   0  0  0  0  0  0  0  0  0  0  0  0
   36.6140   27.3450   40.4080 C   0  0  0  0  0  0  0  0  0  0  0  0
   36.3770   27.1010   39.0420 C   0  0  0  0  0  0  0  0  0  0  0  0
   36.8460   26.3170   38.4250 H   0  0  0  0  0  0  0  0  0  0  0  0
   35.4910   27.8440   38.2790 C   0  0  0  0  0  0  0  0  0  0  0  0
   35.2890   27.6790   37.2300 H   0  0  0  0  0  0  0  0  0  0  0  0
   34.7850   28.8790   38.8350 C   0  0  0  0  0  3  0  0  0  0  0  0
   34.9790   29.1620   40.1670 C   0  0  0  0  0  3  0  0  0  0  0  0
  1  7  1  6  0  0  0
  1 16  1  0  0  0  0
  1  2  1  0  0  0  0
  2  8  1  0  0  0  0
  2  3  2  0  0  0  0
  3  9  1  0  0  0  0
  4  5  1  0  0  0  0
  4  3  1  0  0  0  0
  4 11  1  0  0  0  0
  5 13  1  0  0  0  0
  6 14  1  6  0  0  0
  6  1  1  0  0  0  0
  6  5  1  0  0  0  0
 10  4  1  0  0  0  0
 12  5  1  0  0  0  0
 15 20  1  0  0  0  0
 15 22  1  0  0  0  0
 16 15  2  0  0  0  0
 17 18  2  0  0  0  0
 17 16  1  0  0  0  0
 18 19  1  0  0  0  0
 19 21  1  0  0  0  0
 19 20  2  0  0  0  0
 21 23  1  0  0  0  0
 24 21  1  0  0  0  0
 25 17  1  0  0  0  0
 26 25  1  0  0  0  0
 27 25  1  0  0  0  0
 29 28  1  0  0  0  0
 30 29  1  0  0  0  0
 30  6  1  0  0  0  0
 31 30  2  0  0  0  0
 32 31  1  0  0  0  0
 33 35  2  0  0  0  0
 33 31  1  0  0  0  0
 34 33  1  0  0  0  0
 35 36  1  0  0  0  0
 36 29  2  0  0  0  0
M  END
>  <minimizedAffinity>
-5.57337475

$$$$

 OpenBabel03252500223D

 36 38  0  0  1  0  0  0  0  0999 V2000
   37.6380   28.8670   41.9740 C   0  0  1  0  0  0  0  0  0  0  0  0
   37.5310   27.5800   42.8030 C   0  0  0  0  0  0  0  0  0  0  0  0
   38.7210   27.0850   43.4960 C   0  0  0  0  0  0  0  0  0  0  0  0
   39.9630   27.9040   43.2990 C   0  0  0  0  0  0  0  0  0  0  0  0
   40.0230   28.1760   41.7920 C   0  0  0  0  0  0  0  0  0  0  0  0
   38.9720   29.3060   41.6190 C   0  0  1  0  0  0  0  0  0  0  0  0
   37.0910   29.5500   42.7110 H   0  0  0  0  0  0  0  0  0  0  0  0
   36.6000   27.0720   42.8600 H   0  0  0  0  0  0  0  0  0  0  0  0
   38.5820   26.1940   44.0520 H   0  0  0  0  0  0  0  0  0  0  0  0
   39.9450   28.8320   43.8740 H   0  0  0  0  0  0  0  0  0  0  0  0
   40.7840   27.2260   43.5060 H   0  0  0  0  0  0  0  0  0  0  0  0
   41.0160   28.5960   41.6300 H   0  0  0  0  0  0  0  0  0  0  0  0
   39.7530   27.2790   41.2460 H   0  0  0  0  0  0  0  0  0  0  0  0
   39.3180   29.9860   42.4950 H   0  0  0  0  0  0  0  0  0  0  0  0
   36.6690   27.5730   40.0820 C   0  0  0  0  0  0  0  0  0  0  0  0
   36.6480   28.7040   40.8870 C   0  0  0  0  0  0  0  0  0  0  0  0
   35.7170   29.7020   40.5470 C   0  0  0  0  0  0  0  0  0  0  0  0
   34.9020   29.5290   39.4810 N   0  0  0  0  0  0  0  0  0  0  0  0
   34.9770   28.3930   38.7310 C   0  0  0  0  0  0  0  0  0  0  0  0
   35.8630   27.4140   39.0350 N   0  0  0  0  0  0  0  0  0  0  0  0
   34.1190   28.2090   37.6360 N   0  0  0  0  0  0  0  0  0  0  0  0
   37.3040   26.7200   40.2450 H   0  0  0  0  0  0  0  0  0  0  0  0
   34.4610   28.1550   36.6350 H   0  0  0  0  0  0  0  0  0  0  0  0
   33.0740   28.1090   37.7130 H   0  0  0  0  0  0  0  0  0  0  0  0
   35.6520   30.8410   41.3880 N   0  0  0  0  0  0  0  0  0  0  0  0
   35.5660   30.9240   42.4280 H   0  0  0  0  0  0  0  0  0  0  0  0
   35.6780   31.8510   41.1300 H   0  0  0  0  0  0  0  0  0  0  0  0
   38.4750   32.1170   41.1410 F   0  0  0  0  0  0  0  0  0  0  0  0
   39.0580   31.4640   40.0790 C   0  0  0  0  0  0  0  0  0  0  0  0
   39.2300   30.1190   40.4460 C   0  0  0  0  0  0  0  0  0  0  0  0
   39.8170   29.3410   39.4300 C   0  0  0  0  0  0  0  0  0  0  0  0
   40.0510   28.2660   39.4790 H   0  0  0  0  0  0  0  0  0  0  0  0
   40.1840   29.8550   38.1960 C   0  0  0  0  0  0  0  0  0  0  0  0
   40.6350   29.2830   37.3980 H   0  0  0  0  0  0  0  0  0  0  0  0
   39.9880   31.1790   37.9020 C   0  0  0  0  0  3  0  0  0  0  0  0
   39.4180   31.9850   38.8610 C   0  0  0  0  0  3  0  0  0  0  0  0
  1  7  1  1  0  0  0
  1  2  1  0  0  0  0
  2  8  1  0  0  0  0
  2  3  2  0  0  0  0
  3  9  1  0  0  0  0
  4  3  1  0  0  0  0
  4 11  1  0  0  0  0
  4 10  1  0  0  0  0
  5  4  1  0  0  0  0
  6  5  1  0  0  0  0
  6  1  1  0  0  0  0
  6 14  1  1  0  0  0
 12  5  1  0  0  0  0
 13  5  1  0  0  0  0
 15 22  1  0  0  0  0
 15 16  1  0  0  0  0
 16  1  1  0  0  0  0
 17 16  2  0  0  0  0
 17 25  1  0  0  0  0
 18 17  1  0  0  0  0
 19 20  1  0  0  0  0
 19 18  2  0  0  0  0
 20 15  2  0  0  0  0
 21 24  1  0  0  0  0
 21 19  1  0  0  0  0
 23 21  1  0  0  0  0
 25 26  1  0  0  0  0
 27 25  1  0  0  0  0
 29 30  1  0  0  0  0
 29 28  1  0  0  0  0
 30  6  1  0  0  0  0
 31 32  1  0  0  0  0
 31 30  2  0  0  0  0
 33 31  1  0  0  0  0
 34 33  1  0  0  0  0
 35 33  2  0  0  0  0
 35 36  1  0  0  0  0
 36 29  2  0  0  0  0
M  END
>  <minimizedAffinity>
-5.51533127

$$$$

 OpenBabel03252500223D

 36 38  0  0  1  0  0  0  0  0999 V2000
   38.4970   28.2450   40.7330 C   0  0  1  0  0  0  0  0  0  0  0  0
   39.0930   28.7640   42.0490 C   0  0  0  0  0  0  0  0  0  0  0  0
   38.4340   28.4160   43.3080 C   0  0  0  0  0  0  0  0  0  0  0  0
   37.1950   27.5810   43.1740 C   0  0  0  0  0  0  0  0  0  0  0  0
   36.3870   28.2490   42.0550 C   0  0  0  0  0  0  0  0  0  0  0  0
   37.1300   27.7670   40.7790 C   0  0  1  0  0  0  0  0  0  0  0  0
   39.2800   27.4330   40.5390 H   0  0  0  0  0  0  0  0  0  0  0  0
   39.9700   29.3630   42.0250 H   0  0  0  0  0  0  0  0  0  0  0  0
   38.8950   28.8030   44.1810 H   0  0  0  0  0  0  0  0  0  0  0  0
   37.4200   26.5390   42.9380 H   0  0  0  0  0  0  0  0  0  0  0  0
   36.6340   27.7580   44.0840 H   0  0  0  0  0  0  0  0  0  0  0  0
   35.4120   27.7620   42.0950 H   0  0  0  0  0  0  0  0  0  0  0  0
   36.4250   29.3260   42.1690 H   0  0  0  0  0  0  0  0  0  0  0  0
   37.2040   26.6400   41.0480 H   0  0  0  0  0  0  0  0  0  0  0  0
   38.4170   30.5850   39.8910 C   0  0  0  0  0  0  0  0  0  0  0  0
   38.8410   29.2730   39.7270 C   0  0  0  0  0  0  0  0  0  0  0  0
   39.5110   28.9730   38.5270 C   0  0  0  0  0  0  0  0  0  0  0  0
   39.7100   29.9430   37.6060 N   0  0  0  0  0  0  0  0  0  0  0  0
   39.2660   31.2120   37.8310 C   0  0  0  0  0  0  0  0  0  0  0  0
   38.6190   31.5310   38.9770 N   0  0  0  0  0  0  0  0  0  0  0  0
   39.4900   32.2200   36.8800 N   0  0  0  0  0  0  0  0  0  0  0  0
   37.9250   30.9620   40.7710 H   0  0  0  0  0  0  0  0  0  0  0  0
   38.7080   32.7000   36.3500 H   0  0  0  0  0  0  0  0  0  0  0  0
   40.4410   32.5820   36.6140 H   0  0  0  0  0  0  0  0  0  0  0  0
   39.9900   27.6490   38.3670 N   0  0  0  0  0  0  0  0  0  0  0  0
   40.5670   27.0450   38.9990 H   0  0  0  0  0  0  0  0  0  0  0  0
   39.8590   26.9960   37.5650 H   0  0  0  0  0  0  0  0  0  0  0  0
   37.2100   26.1410   38.3860 F   0  0  0  0  0  0  0  0  0  0  0  0
   36.1820   27.0550   38.4070 C   0  0  0  0  0  0  0  0  0  0  0  0
   36.2710   27.7740   39.6110 C   0  0  0  0  0  0  0  0  0  0  0  0
   35.2670   28.7510   39.7450 C   0  0  0  0  0  0  0  0  0  0  0  0
   35.1290   29.4380   40.5960 H   0  0  0  0  0  0  0  0  0  0  0  0
   34.2930   28.9780   38.7850 C   0  0  0  0  0  0  0  0  0  0  0  0
   33.5120   29.7200   38.8610 H   0  0  0  0  0  0  0  0  0  0  0  0
   34.2630   28.2400   37.6300 C   0  0  0  0  0  3  0  0  0  0  0  0
   35.2220   27.2700   37.4480 C   0  0  0  0  0  3  0  0  0  0  0  0
  1  7  1  6  0  0  0
  1  6  1  0  0  0  0
  1  2  1  0  0  0  0
  2  3  2  0  0  0  0
  3  9  1  0  0  0  0
  4  3  1  0  0  0  0
  4 11  1  0  0  0  0
  5 12  1  0  0  0  0
  5 13  1  0  0  0  0
  5  4  1  0  0  0  0
  6 14  1  1  0  0  0
  6  5  1  0  0  0  0
  8  2  1  0  0  0  0
 10  4  1  0  0  0  0
 15 22  1  0  0  0  0
 16 15  1  0  0  0  0
 16  1  1  0  0  0  0
 17 16  2  0  0  0  0
 18 19  2  0  0  0  0
 18 17  1  0  0  0  0
 19 20  1  0  0  0  0
 20 15  2  0  0  0  0
 21 19  1  0  0  0  0
 23 21  1  0  0  0  0
 24 21  1  0  0  0  0
 25 17  1  0  0  0  0
 25 26  1  0  0  0  0
 27 25  1  0  0  0  0
 28 29  1  0  0  0  0
 29 30  1  0  0  0  0
 30 31  2  0  0  0  0
 30  6  1  0  0  0  0
 31 32  1  0  0  0  0
 33 34  1  0  0  0  0
 33 31  1  0  0  0  0
 35 33  2  0  0  0  0
 36 35  1  0  0  0  0
 36 29  2  0  0  0  0
M  END
>  <minimizedAffinity>
-5.50628853

$$$$

 OpenBabel03252500223D

 36 38  0  0  1  0  0  0  0  0999 V2000
   38.5070   28.5710   41.2370 C   0  0  1  0  0  0  0  0  0  0  0  0
   38.9340   28.6380   42.7100 C   0  0  0  0  0  0  0  0  0  0  0  0
   38.2800   27.7530   43.6750 C   0  0  0  0  0  0  0  0  0  0  0  0
   37.2150   26.8610   43.1070 C   0  0  0  0  0  0  0  0  0  0  0  0
   36.3630   27.7770   42.2220 C   0  0  0  0  0  0  0  0  0  0  0  0
   37.2440   27.9210   40.9520 C   0  0  1  0  0  0  0  0  0  0  0  0
   39.4290   28.0120   40.8530 H   0  0  0  0  0  0  0  0  0  0  0  0
   39.6920   29.3210   43.0030 H   0  0  0  0  0  0  0  0  0  0  0  0
   38.6200   27.8450   44.6750 H   0  0  0  0  0  0  0  0  0  0  0  0
   37.6310   26.0270   42.5390 H   0  0  0  0  0  0  0  0  0  0  0  0
   36.5850   26.6020   43.9500 H   0  0  0  0  0  0  0  0  0  0  0  0
   35.4870   27.1780   41.9720 H   0  0  0  0  0  0  0  0  0  0  0  0
   36.2050   28.7270   42.7210 H   0  0  0  0  0  0  0  0  0  0  0  0
   37.5000   26.7990   40.8020 H   0  0  0  0  0  0  0  0  0  0  0  0
   37.9730   31.0010   41.2120 C   0  0  0  0  0  0  0  0  0  0  0  0
   38.7180   29.9400   40.7160 C   0  0  0  0  0  0  0  0  0  0  0  0
   39.5890   30.2240   39.6490 C   0  0  0  0  0  0  0  0  0  0  0  0
   39.6640   31.4830   39.1580 N   0  0  0  0  0  0  0  0  0  0  0  0
   38.9020   32.4790   39.6910 C   0  0  0  0  0  0  0  0  0  0  0  0
   38.0550   32.2350   40.7200 N   0  0  0  0  0  0  0  0  0  0  0  0
   38.9940   33.7870   39.1900 N   0  0  0  0  0  0  0  0  0  0  0  0
   37.2960   30.9360   42.0450 H   0  0  0  0  0  0  0  0  0  0  0  0
   38.1950   34.2780   38.6990 H   0  0  0  0  0  0  0  0  0  0  0  0
   39.8560   34.3870   39.2590 H   0  0  0  0  0  0  0  0  0  0  0  0
   40.3900   29.1600   39.1660 N   0  0  0  0  0  0  0  0  0  0  0  0
   41.0100   28.4820   39.6680 H   0  0  0  0  0  0  0  0  0  0  0  0
   40.5250   28.8330   38.1850 H   0  0  0  0  0  0  0  0  0  0  0  0
   37.8540   27.5790   38.1430 F   0  0  0  0  0  0  0  0  0  0  0  0
   36.6140   28.1270   38.3840 C   0  0  0  0  0  0  0  0  0  0  0  0
   36.4600   28.2430   39.7750 C   0  0  0  0  0  0  0  0  0  0  0  0
   35.2230   28.8020   40.1470 C   0  0  0  0  0  0  0  0  0  0  0  0
   34.8720   28.9930   41.1740 H   0  0  0  0  0  0  0  0  0  0  0  0
   34.2610   29.1970   39.2310 C   0  0  0  0  0  0  0  0  0  0  0  0
   33.3040   29.6290   39.4880 H   0  0  0  0  0  0  0  0  0  0  0  0
   34.4760   29.0570   37.8850 C   0  0  0  0  0  3  0  0  0  0  0  0
   35.6690   28.5140   37.4660 C   0  0  0  0  0  3  0  0  0  0  0  0
  1  7  1  6  0  0  0
  1  2  1  0  0  0  0
  2  8  1  0  0  0  0
  2  3  2  0  0  0  0
  3  9  1  0  0  0  0
  4  3  1  0  0  0  0
  4 11  1  0  0  0  0
  5 13  1  0  0  0  0
  5  4  1  0  0  0  0
  6 14  1  6  0  0  0
  6  1  1  0  0  0  0
  6  5  1  0  0  0  0
 10  4  1  0  0  0  0
 12  5  1  0  0  0  0
 15 22  1  0  0  0  0
 16 15  2  0  0  0  0
 16  1  1  0  0  0  0
 17 16  1  0  0  0  0
 18 17  2  0  0  0  0
 18 19  1  0  0  0  0
 19 20  2  0  0  0  0
 20 15  1  0  0  0  0
 21 24  1  0  0  0  0
 21 19  1  0  0  0  0
 23 21  1  0  0  0  0
 25 17  1  0  0  0  0
 25 26  1  0  0  0  0
 27 25  1  0  0  0  0
 28 29  1  0  0  0  0
 29 30  1  0  0  0  0
 30 31  2  0  0  0  0
 30  6  1  0  0  0  0
 31 32  1  0  0  0  0
 33 34  1  0  0  0  0
 33 31  1  0  0  0  0
 35 33  2  0  0  0  0
 36 35  1  0  0  0  0
 36 29  2  0  0  0  0
M  END
>  <minimizedAffinity>
-5.4539485

$$$$
