
 OpenBabel03252509043D

 48 50  0  0  1  0  0  0  0  0999 V2000
   47.0460   34.3490   43.2330 N   0  0  0  0  0  0  0  0  0  0  0  0
   46.7010   34.8790   41.9710 C   0  0  0  0  0  0  0  0  0  0  0  0
   45.2630   34.6450   41.5570 C   0  0  0  0  0  0  0  0  0  0  0  0
   44.2790   34.6080   42.7050 C   0  0  0  0  0  0  0  0  0  0  0  0
   44.9590   34.9650   44.0180 C   0  0  0  0  0  0  0  0  0  0  0  0
   46.1070   33.8880   44.1200 C   0  0  2  0  0  0  0  0  0  0  0  0
   46.8240   36.0000   42.0320 H   0  0  0  0  0  0  0  0  0  0  0  0
   47.3200   34.5770   41.1230 H   0  0  0  0  0  0  0  0  0  0  0  0
   45.1700   33.7450   40.8900 H   0  0  0  0  0  0  0  0  0  0  0  0
   44.9380   35.4910   40.9040 H   0  0  0  0  0  0  0  0  0  0  0  0
   43.3630   35.1750   42.5140 H   0  0  0  0  0  0  0  0  0  0  0  0
   43.9670   33.5420   42.8080 H   0  0  0  0  0  0  0  0  0  0  0  0
   44.2380   34.7790   44.8360 H   0  0  0  0  0  0  0  0  0  0  0  0
   45.4160   35.9640   44.0150 H   0  0  0  0  0  0  0  0  0  0  0  0
   45.6290   32.9020   43.9260 H   0  0  0  0  0  0  0  0  0  0  0  0
   48.3760   33.7740   43.2820 C   0  0  0  0  0  0  0  0  0  0  0  0
   48.7420   33.7940   44.3310 H   0  0  0  0  0  0  0  0  0  0  0  0
   49.0690   34.3560   42.6660 H   0  0  0  0  0  0  0  0  0  0  0  0
   48.2890   32.3460   42.8550 C   0  0  0  0  0  0  0  0  0  0  0  0
   48.4260   31.6190   43.6730 H   0  0  0  0  0  0  0  0  0  0  0  0
   47.2920   32.1240   42.3970 H   0  0  0  0  0  0  0  0  0  0  0  0
   51.5500   31.8860   41.0410 C   0  0  0  0  0  0  0  0  0  0  0  0
   50.6110   32.1170   42.0620 C   0  0  0  0  0  0  0  0  0  0  0  0
   49.2740   32.1000   41.7670 C   0  0  0  0  0  0  0  0  0  0  0  0
   48.9310   31.8590   40.4950 N   0  0  0  0  0  0  0  0  0  0  0  0
   49.8240   31.6400   39.5240 C   0  0  0  0  0  0  0  0  0  0  0  0
   51.1410   31.6480   39.7790 N   0  0  0  0  0  0  0  0  0  0  0  0
   52.5680   31.9260   41.4010 H   0  0  0  0  0  0  0  0  0  0  0  0
   50.9070   32.3130   43.0960 H   0  0  0  0  0  0  0  0  0  0  0  0
   49.5740   31.4440   38.4940 H   0  0  0  0  0  0  0  0  0  0  0  0
   46.4950   34.0300   45.4420 O   0  0  0  0  0  0  0  0  0  0  0  0
   45.8320   31.4530   45.4680 O   0  0  0  0  0  0  0  0  0  0  0  0
   46.2210   32.6380   46.3580 P   0  0  2  0  0  0  0  0  0  0  0  0
   44.8560   32.9710   47.3130 O   0  0  0  0  0  0  0  0  0  0  0  0
   45.0830   33.6650   47.9690 H   0  0  0  0  0  0  0  0  0  0  0  0
   47.5050   32.2880   47.3720 O   0  0  0  0  0  0  0  0  0  0  0  0
   47.6660   30.8950   47.3900 C   0  0  0  0  0  0  0  0  0  0  0  0
   46.6990   30.3950   47.6240 H   0  0  0  0  0  0  0  0  0  0  0  0
   48.0430   30.4910   46.4440 H   0  0  0  0  0  0  0  0  0  0  0  0
   48.6510   28.3430   47.5270 F   0  0  0  0  0  0  0  0  0  0  0  0
   49.0850   29.2580   48.4380 C   0  0  0  0  0  0  0  0  0  0  0  0
   48.6480   30.5890   48.4590 C   0  0  0  0  0  0  0  0  0  0  0  0
   49.1590   31.4220   49.4290 C   0  0  0  0  0  0  0  0  0  0  0  0
   48.7740   32.4200   49.3720 H   0  0  0  0  0  0  0  0  0  0  0  0
   50.0710   30.9660   50.3560 C   0  0  0  0  0  0  0  0  0  0  0  0
   50.4390   31.6440   51.0900 H   0  0  0  0  0  0  0  0  0  0  0  0
   50.5200   29.6490   50.3600 C   0  0  0  0  0  3  0  0  0  0  0  0
   50.0000   28.8310   49.3840 C   0  0  0  0  0  3  0  0  0  0  0  0
  1 16  1  0  0  0  0
  1  6  1  0  0  0  0
  2  7  1  0  0  0  0
  2  1  1  0  0  0  0
  3  2  1  0  0  0  0
  3  4  1  0  0  0  0
  4 12  1  0  0  0  0
  4  5  1  0  0  0  0
  5  6  1  0  0  0  0
  5 13  1  0  0  0  0
  6 15  1  6  0  0  0
  6 31  1  0  0  0  0
  8  2  1  0  0  0  0
  9  3  1  0  0  0  0
 10  3  1  0  0  0  0
 11  4  1  0  0  0  0
 14  5  1  0  0  0  0
 16 17  1  0  0  0  0
 18 16  1  0  0  0  0
 19 16  1  0  0  0  0
 19 20  1  0  0  0  0
 21 19  1  0  0  0  0
 22 28  1  0  0  0  0
 22 23  1  0  0  0  0
 23 29  1  0  0  0  0
 24 23  2  0  0  0  0
 24 19  1  0  0  0  0
 25 24  1  0  0  0  0
 26 27  1  0  0  0  0
 26 25  2  0  0  0  0
 27 22  2  0  0  0  0
 30 26  1  0  0  0  0
 31 33  1  0  0  0  0
 33 32  2  6  0  0  0
 33 34  1  0  0  0  0
 33 36  1  0  0  0  0
 34 35  1  0  0  0  0
 36 37  1  0  0  0  0
 37 38  1  0  0  0  0
 37 42  1  0  0  0  0
 39 37  1  0  0  0  0
 40 41  1  0  0  0  0
 41 42  2  0  0  0  0
 41 48  1  0  0  0  0
 42 43  1  0  0  0  0
 43 45  2  0  0  0  0
 44 43  1  0  0  0  0
 45 47  1  0  0  0  0
 45 46  1  0  0  0  0
 48 47  2  0  0  0  0
M  END
>  <minimizedAffinity>
-5.06648016

>  <minimizedRMSD>
2.9885819

$$$$
