
 OpenBabel03252509033D

 48 50  0  0  1  0  0  0  0  0999 V2000
   46.5950   34.5610   43.6340 N   0  0  0  0  0  0  0  0  0  0  0  0
   46.1250   35.5450   42.7390 C   0  0  0  0  0  0  0  0  0  0  0  0
   44.6190   35.7050   42.7060 C   0  0  0  0  0  0  0  0  0  0  0  0
   43.9320   35.4310   44.0260 C   0  0  0  0  0  0  0  0  0  0  0  0
   44.9490   35.1940   45.1310 C   0  0  0  0  0  0  0  0  0  0  0  0
   45.7890   33.9780   44.5780 C   0  0  2  0  0  0  0  0  0  0  0  0
   46.5320   36.5390   43.0870 H   0  0  0  0  0  0  0  0  0  0  0  0
   46.4490   35.4600   41.6980 H   0  0  0  0  0  0  0  0  0  0  0  0
   44.1630   35.1210   41.8610 H   0  0  0  0  0  0  0  0  0  0  0  0
   44.3780   36.7650   42.4520 H   0  0  0  0  0  0  0  0  0  0  0  0
   43.1650   36.1680   44.2810 H   0  0  0  0  0  0  0  0  0  0  0  0
   43.3970   34.4600   43.8970 H   0  0  0  0  0  0  0  0  0  0  0  0
   44.4000   34.8540   46.0300 H   0  0  0  0  0  0  0  0  0  0  0  0
   45.6270   36.0440   45.2900 H   0  0  0  0  0  0  0  0  0  0  0  0
   45.0510   33.2130   44.2510 H   0  0  0  0  0  0  0  0  0  0  0  0
   47.7200   33.7980   43.1280 C   0  0  0  0  0  0  0  0  0  0  0  0
   48.2490   33.3210   43.9810 H   0  0  0  0  0  0  0  0  0  0  0  0
   48.4260   34.4540   42.6090 H   0  0  0  0  0  0  0  0  0  0  0  0
   47.1950   32.7110   42.2500 C   0  0  0  0  0  0  0  0  0  0  0  0
   47.3770   31.6920   42.6320 H   0  0  0  0  0  0  0  0  0  0  0  0
   46.0880   32.8050   42.1130 H   0  0  0  0  0  0  0  0  0  0  0  0
   49.1750   32.0560   39.1220 C   0  0  0  0  0  0  0  0  0  0  0  0
   48.6310   31.9180   40.4100 C   0  0  0  0  0  0  0  0  0  0  0  0
   47.7660   32.8670   40.8840 C   0  0  0  0  0  0  0  0  0  0  0  0
   47.4820   33.8960   40.0750 N   0  0  0  0  0  0  0  0  0  0  0  0
   48.0010   34.0270   38.8490 C   0  0  0  0  0  0  0  0  0  0  0  0
   48.8510   33.1150   38.3540 N   0  0  0  0  0  0  0  0  0  0  0  0
   49.8420   31.2450   38.8670 H   0  0  0  0  0  0  0  0  0  0  0  0
   48.8720   31.0720   41.0610 H   0  0  0  0  0  0  0  0  0  0  0  0
   47.7890   34.8440   38.1780 H   0  0  0  0  0  0  0  0  0  0  0  0
   46.4790   33.5870   45.7140 O   0  0  0  0  0  0  0  0  0  0  0  0
   45.5530   31.2000   44.9890 O   0  0  0  0  0  0  0  0  0  0  0  0
   46.1650   31.9870   46.1530 P   0  0  2  0  0  0  0  0  0  0  0  0
   44.9620   32.0600   47.3490 O   0  0  0  0  0  0  0  0  0  0  0  0
   45.3350   32.4760   48.1570 H   0  0  0  0  0  0  0  0  0  0  0  0
   47.5120   31.2350   46.8000 O   0  0  0  0  0  0  0  0  0  0  0  0
   47.9370   30.2600   45.8860 C   0  0  0  0  0  0  0  0  0  0  0  0
   47.0630   29.8180   45.3570 H   0  0  0  0  0  0  0  0  0  0  0  0
   48.6360   30.6450   45.1370 H   0  0  0  0  0  0  0  0  0  0  0  0
   46.4340   28.1460   46.7680 F   0  0  0  0  0  0  0  0  0  0  0  0
   47.7610   28.1750   47.0740 C   0  0  0  0  0  0  0  0  0  0  0  0
   48.6220   29.2040   46.6720 C   0  0  0  0  0  0  0  0  0  0  0  0
   49.9460   29.1220   47.0420 C   0  0  0  0  0  0  0  0  0  0  0  0
   50.5320   29.9490   46.6930 H   0  0  0  0  0  0  0  0  0  0  0  0
   50.4160   28.0610   47.7850 C   0  0  0  0  0  0  0  0  0  0  0  0
   51.4460   28.0380   48.0500 H   0  0  0  0  0  0  0  0  0  0  0  0
   49.5830   27.0250   48.1990 C   0  0  0  0  0  3  0  0  0  0  0  0
   48.2660   27.1240   47.8200 C   0  0  0  0  0  3  0  0  0  0  0  0
  1  6  1  0  0  0  0
  2  7  1  0  0  0  0
  2  1  1  0  0  0  0
  3  2  1  0  0  0  0
  3  4  1  0  0  0  0
  4 11  1  0  0  0  0
  4  5  1  0  0  0  0
  5 14  1  0  0  0  0
  5 13  1  0  0  0  0
  6 15  1  6  0  0  0
  6  5  1  0  0  0  0
  6 31  1  0  0  0  0
  8  2  1  0  0  0  0
  9  3  1  0  0  0  0
 10  3  1  0  0  0  0
 12  4  1  0  0  0  0
 16  1  1  0  0  0  0
 16 17  1  0  0  0  0
 18 16  1  0  0  0  0
 19 20  1  0  0  0  0
 19 16  1  0  0  0  0
 21 19  1  0  0  0  0
 22 23  1  0  0  0  0
 23 24  2  0  0  0  0
 23 29  1  0  0  0  0
 24 19  1  0  0  0  0
 25 24  1  0  0  0  0
 26 25  2  0  0  0  0
 27 26  1  0  0  0  0
 27 22  2  0  0  0  0
 28 22  1  0  0  0  0
 30 26  1  0  0  0  0
 31 33  1  0  0  0  0
 33 32  2  6  0  0  0
 33 36  1  0  0  0  0
 33 34  1  0  0  0  0
 34 35  1  0  0  0  0
 37 42  1  0  0  0  0
 37 36  1  0  0  0  0
 38 37  1  0  0  0  0
 39 37  1  0  0  0  0
 40 41  1  0  0  0  0
 41 48  1  0  0  0  0
 42 43  1  0  0  0  0
 42 41  2  0  0  0  0
 43 45  2  0  0  0  0
 44 43  1  0  0  0  0
 45 46  1  0  0  0  0
 45 47  1  0  0  0  0
 48 47  2  0  0  0  0
M  END
>  <minimizedAffinity>
-4.27578068

>  <minimizedRMSD>
1.26504731

$$$$
