
 OpenBabel03252509033D

 48 50  0  0  1  0  0  0  0  0999 V2000
   47.1400   34.2730   43.0210 N   0  0  0  0  0  0  0  0  0  0  0  0
   46.8240   34.8150   41.7570 C   0  0  0  0  0  0  0  0  0  0  0  0
   45.4260   34.5010   41.2640 C   0  0  0  0  0  0  0  0  0  0  0  0
   44.3910   34.3690   42.3600 C   0  0  0  0  0  0  0  0  0  0  0  0
   44.9810   34.7330   43.7140 C   0  0  0  0  0  0  0  0  0  0  0  0
   46.1900   33.7290   43.8480 C   0  0  2  0  0  0  0  0  0  0  0  0
   46.8700   35.9390   41.8510 H   0  0  0  0  0  0  0  0  0  0  0  0
   47.5020   34.5760   40.9340 H   0  0  0  0  0  0  0  0  0  0  0  0
   45.4250   33.6150   40.5720 H   0  0  0  0  0  0  0  0  0  0  0  0
   45.0790   35.3410   40.6150 H   0  0  0  0  0  0  0  0  0  0  0  0
   43.4500   34.8810   42.1350 H   0  0  0  0  0  0  0  0  0  0  0  0
   44.1450   33.2830   42.4210 H   0  0  0  0  0  0  0  0  0  0  0  0
   44.2340   34.4790   44.4880 H   0  0  0  0  0  0  0  0  0  0  0  0
   45.3710   35.7590   43.7570 H   0  0  0  0  0  0  0  0  0  0  0  0
   45.7870   32.7210   43.6070 H   0  0  0  0  0  0  0  0  0  0  0  0
   48.5010   33.7840   43.1240 C   0  0  0  0  0  0  0  0  0  0  0  0
   48.8530   33.9080   44.1710 H   0  0  0  0  0  0  0  0  0  0  0  0
   49.1640   34.3550   42.4680 H   0  0  0  0  0  0  0  0  0  0  0  0
   48.5020   32.3240   42.8110 C   0  0  0  0  0  0  0  0  0  0  0  0
   48.7350   31.6760   43.6730 H   0  0  0  0  0  0  0  0  0  0  0  0
   47.5030   31.9940   42.4290 H   0  0  0  0  0  0  0  0  0  0  0  0
   51.6880   31.7340   40.9050 C   0  0  0  0  0  0  0  0  0  0  0  0
   50.7870   31.9780   41.9570 C   0  0  0  0  0  0  0  0  0  0  0  0
   49.4470   32.0650   41.6910 C   0  0  0  0  0  0  0  0  0  0  0  0
   49.0630   31.9080   40.4180 N   0  0  0  0  0  0  0  0  0  0  0  0
   49.9210   31.6750   39.4180 C   0  0  0  0  0  0  0  0  0  0  0  0
   51.2400   31.5840   39.6430 N   0  0  0  0  0  0  0  0  0  0  0  0
   52.7140   31.6890   41.2440 H   0  0  0  0  0  0  0  0  0  0  0  0
   51.1160   32.1050   42.9920 H   0  0  0  0  0  0  0  0  0  0  0  0
   49.6380   31.5460   38.3860 H   0  0  0  0  0  0  0  0  0  0  0  0
   46.5020   33.8600   45.1910 O   0  0  0  0  0  0  0  0  0  0  0  0
   45.6670   31.3340   45.1740 O   0  0  0  0  0  0  0  0  0  0  0  0
   46.2500   32.4370   46.0640 P   0  0  2  0  0  0  0  0  0  0  0  0
   45.0470   32.7990   47.2060 O   0  0  0  0  0  0  0  0  0  0  0  0
   45.4050   33.4370   47.8610 H   0  0  0  0  0  0  0  0  0  0  0  0
   47.6250   31.9450   46.8800 O   0  0  0  0  0  0  0  0  0  0  0  0
   47.5620   30.5510   47.0210 C   0  0  0  0  0  0  0  0  0  0  0  0
   46.5990   30.2530   47.4920 H   0  0  0  0  0  0  0  0  0  0  0  0
   47.6630   30.0150   46.0710 H   0  0  0  0  0  0  0  0  0  0  0  0
   47.4120   31.2570   49.6630 F   0  0  0  0  0  0  0  0  0  0  0  0
   48.5080   30.5710   49.2330 C   0  0  0  0  0  0  0  0  0  0  0  0
   48.6850   30.1570   47.9060 C   0  0  0  0  0  0  0  0  0  0  0  0
   49.8360   29.4690   47.5920 C   0  0  0  0  0  0  0  0  0  0  0  0
   49.8910   29.1920   46.5580 H   0  0  0  0  0  0  0  0  0  0  0  0
   50.7880   29.1920   48.5500 C   0  0  0  0  0  0  0  0  0  0  0  0
   51.6620   28.6580   48.2620 H   0  0  0  0  0  0  0  0  0  0  0  0
   50.6370   29.5900   49.8740 C   0  0  0  0  0  3  0  0  0  0  0  0
   49.4830   30.2760   50.1690 C   0  0  0  0  0  3  0  0  0  0  0  0
  1 16  1  0  0  0  0
  1  6  1  0  0  0  0
  2  7  1  0  0  0  0
  2  1  1  0  0  0  0
  3  2  1  0  0  0  0
  3  4  1  0  0  0  0
  4 12  1  0  0  0  0
  4  5  1  0  0  0  0
  5 14  1  0  0  0  0
  5  6  1  0  0  0  0
  5 13  1  0  0  0  0
  6 15  1  6  0  0  0
  6 31  1  0  0  0  0
  8  2  1  0  0  0  0
  9  3  1  0  0  0  0
 10  3  1  0  0  0  0
 11  4  1  0  0  0  0
 16 17  1  0  0  0  0
 18 16  1  0  0  0  0
 19 16  1  0  0  0  0
 19 20  1  0  0  0  0
 21 19  1  0  0  0  0
 22 28  1  0  0  0  0
 22 23  1  0  0  0  0
 23 29  1  0  0  0  0
 24 23  2  0  0  0  0
 24 19  1  0  0  0  0
 25 24  1  0  0  0  0
 26 27  1  0  0  0  0
 26 25  2  0  0  0  0
 27 22  2  0  0  0  0
 30 26  1  0  0  0  0
 31 33  1  0  0  0  0
 33 32  2  6  0  0  0
 33 36  1  0  0  0  0
 33 34  1  0  0  0  0
 34 35  1  0  0  0  0
 36 37  1  0  0  0  0
 37 38  1  0  0  0  0
 37 42  1  0  0  0  0
 39 37  1  0  0  0  0
 41 40  1  0  0  0  0
 41 48  1  0  0  0  0
 42 41  2  0  0  0  0
 43 42  1  0  0  0  0
 43 45  2  0  0  0  0
 44 43  1  0  0  0  0
 45 47  1  0  0  0  0
 46 45  1  0  0  0  0
 47 48  2  0  0  0  0
M  END
>  <minimizedAffinity>
-4.89983511

>  <minimizedRMSD>
2.62463021

$$$$
