
 OpenBabel03252508463D

 45 47  0  0  0  0  0  0  0  0999 V2000
   42.6670   31.3730   42.5760 N   0  0  0  0  0  0  0  0  0  0  0  0
   43.1130   31.4680   43.4930 H   0  0  0  0  0  0  0  0  0  0  0  0
   42.9640   32.4380   41.6610 C   0  0  0  0  0  0  0  0  0  0  0  0
   42.0220   32.9310   41.3260 H   0  0  0  0  0  0  0  0  0  0  0  0
   43.4220   32.0480   40.7220 H   0  0  0  0  0  0  0  0  0  0  0  0
   43.6570   34.8290   41.9020 C   0  0  0  0  0  0  0  0  0  0  0  0
   43.8640   33.4900   42.2180 C   0  0  0  0  0  0  0  0  0  0  0  0
   44.9060   33.1650   43.0340 C   0  0  0  0  0  0  0  0  0  0  0  0
   45.7280   34.1420   43.5290 C   0  0  0  0  0  0  0  0  0  0  0  0
   45.5520   35.4700   43.2370 C   0  0  0  0  0  0  0  0  0  0  0  0
   44.4780   35.7620   42.4020 C   0  0  0  0  0  0  0  0  0  0  0  0
   45.0790   32.1360   43.2910 H   0  0  0  0  0  0  0  0  0  0  0  0
   46.5580   33.8850   44.1800 H   0  0  0  0  0  0  0  0  0  0  0  0
   46.1860   36.2880   43.6120 H   0  0  0  0  0  0  0  0  0  0  0  0
   44.2710   36.7880   42.1210 H   0  0  0  0  0  0  0  0  0  0  0  0
   40.2430   35.7450   40.5380 C   0  0  0  0  0  0  0  0  0  0  0  0
   41.2640   35.4870   41.4920 C   0  0  0  0  0  0  0  0  0  0  0  0
   42.5160   35.1180   41.0230 C   0  0  0  0  0  0  0  0  0  0  0  0
   42.6950   35.0250   39.6880 N   0  0  0  0  0  0  0  0  0  0  0  0
   41.7050   35.2770   38.7910 C   0  0  0  0  0  0  0  0  0  0  0  0
   40.4940   35.6330   39.2360 N   0  0  0  0  0  0  0  0  0  0  0  0
   39.2600   36.0370   40.8980 H   0  0  0  0  0  0  0  0  0  0  0  0
   41.1060   35.5670   42.5410 H   0  0  0  0  0  0  0  0  0  0  0  0
   42.0460   35.1480   37.7710 H   0  0  0  0  0  0  0  0  0  0  0  0
   40.9980   31.0210   42.6650 S   0  0  0  0  0  0  0  0  0  0  0  0
   40.1660   32.2560   42.4870 O   0  0  0  0  0  0  0  0  0  0  0  0
   39.4220   32.4140   41.8770 H   0  0  0  0  0  0  0  0  0  0  0  0
   40.6670   30.3480   43.9640 O   0  0  0  0  0  0  0  0  0  0  0  0
   40.2350   30.8580   44.7060 H   0  0  0  0  0  0  0  0  0  0  0  0
   40.6350   29.9620   41.4070 O   0  0  0  0  0  0  0  0  0  0  0  0
   39.2560   29.8020   41.3820 C   0  0  0  0  0  0  0  0  0  0  0  0
   38.6920   30.4960   41.9990 H   0  0  0  0  0  0  0  0  0  0  0  0
   38.9180   29.8870   40.3190 H   0  0  0  0  0  0  0  0  0  0  0  0
   38.9020   28.3730   41.7830 C   0  0  0  0  0  0  0  0  0  0  0  0
   38.6790   28.3680   42.8740 H   0  0  0  0  0  0  0  0  0  0  0  0
   39.7220   27.6730   41.5410 H   0  0  0  0  0  0  0  0  0  0  0  0
   37.9740   25.7990   41.7900 F   0  0  0  0  0  0  0  0  0  0  0  0
   37.2760   26.7410   41.0670 C   0  0  0  0  0  0  0  0  0  0  0  0
   37.6690   28.0640   40.9960 C   0  0  0  0  0  0  0  0  0  0  0  0
   36.9310   28.9580   40.2550 C   0  0  0  0  0  0  0  0  0  0  0  0
   37.2920   29.9970   40.2350 H   0  0  0  0  0  0  0  0  0  0  0  0
   35.7970   28.5660   39.5720 C   0  0  0  0  0  0  0  0  0  0  0  0
   35.2280   29.3010   38.9940 H   0  0  0  0  0  0  0  0  0  0  0  0
   35.4210   27.2350   39.6570 C   0  0  0  0  0  0  0  0  0  0  0  0
   36.1480   26.3170   40.3980 C   0  0  0  0  0  0  0  0  0  0  0  0
  1 25  1  0  0  0  0
  1  2  1  0  0  0  0
  3  7  1  0  0  0  0
  3  1  1  0  0  0  0
  4  3  1  0  0  0  0
  5  3  1  0  0  0  0
  6  7  2  0  0  0  0
  6 11  1  0  0  0  0
  7  8  1  0  0  0  0
  8 12  1  0  0  0  0
  8  9  2  0  0  0  0
  9 13  1  0  0  0  0
 10  9  1  0  0  0  0
 10 14  1  0  0  0  0
 11 10  2  0  0  0  0
 15 11  1  0  0  0  0
 16 22  1  0  0  0  0
 16 17  1  0  0  0  0
 17 23  1  0  0  0  0
 18 17  2  0  0  0  0
 18  6  1  0  0  0  0
 19 18  1  0  0  0  0
 20 21  1  0  0  0  0
 20 19  2  0  0  0  0
 21 16  2  0  0  0  0
 24 20  1  0  0  0  0
 25 28  1  0  0  0  0
 26 25  1  0  0  0  0
 27 26  1  0  0  0  0
 28 29  1  0  0  0  0
 30 25  1  0  0  0  0
 31 30  1  0  0  0  0
 31 34  1  0  0  0  0
 31 32  1  0  0  0  0
 33 31  1  0  0  0  0
 34 35  1  0  0  0  0
 36 34  1  0  0  0  0
 38 37  1  0  0  0  0
 39 38  1  0  0  0  0
 39 34  1  0  0  0  0
 40 39  2  0  0  0  0
 41 40  1  0  0  0  0
 42 44  2  0  0  0  0
 42 40  1  0  0  0  0
 43 42  1  0  0  0  0
 44 45  1  0  0  0  0
 45 38  2  0  0  0  0
M  END
>  <minimizedAffinity>
-5.69186878

>  <minimizedRMSD>
2.21339297

$$$$
