
     RDKit          3D

 26 27  0  0  0  0  0  0  0  0999 V2000
   44.5630   36.0409   44.4797 C   0  0  0  0  0  0  0  0  0  0  0  0
   45.2231   35.9424   43.2368 C   0  0  0  0  0  0  0  0  0  0  0  0
   46.0813   34.8740   43.0225 C   0  0  0  0  0  0  0  0  0  0  0  0
   46.2339   33.9815   44.0319 N   0  0  0  0  0  0  0  0  0  0  0  0
   45.5901   34.0949   45.2181 C   0  0  0  0  0  0  0  0  0  0  0  0
   44.7631   35.1114   45.4441 N   0  0  0  0  0  0  0  0  0  0  0  0
   46.7757   34.7623   41.7234 C   0  0  0  0  0  0  0  0  0  0  0  0
   48.1879   35.3175   41.8844 C   0  0  0  0  0  0  0  0  0  0  0  0
   43.9246   36.9177   44.5205 H   0  0  0  0  0  0  0  0  0  0  0  0
   45.0905   36.6624   42.4397 H   0  0  0  0  0  0  0  0  0  0  0  0
   45.7157   33.3769   46.0214 H   0  0  0  0  0  0  0  0  0  0  0  0
   46.9101   33.6715   41.5370 H   0  0  0  0  0  0  0  0  0  0  0  0
   46.2195   35.2835   40.9432 H   0  0  0  0  0  0  0  0  0  0  0  0
   48.1351   36.3786   42.1534 H   0  0  0  0  0  0  0  0  0  0  0  0
   48.7656   34.7157   42.5997 H   0  0  0  0  0  0  0  0  0  0  0  0
   50.1442   37.1016   41.1373 F   0  0  0  0  0  0  0  0  0  0  0  0
   49.7912   36.1238   40.2641 C   0  0  0  0  0  0  0  0  0  0  0  0
   48.8134   35.1711   40.5434 C   0  0  0  0  0  0  0  0  0  0  0  0
   48.5539   34.2319   39.5623 C   0  0  0  0  0  0  0  0  0  0  0  0
   47.7895   33.5255   39.8402 H   0  0  0  0  0  0  0  0  0  0  0  0
   49.2547   34.2740   38.3773 C   0  0  0  0  0  0  0  0  0  0  0  0
   49.0143   33.5156   37.6396 H   0  0  0  0  0  0  0  0  0  0  0  0
   50.2225   35.2159   38.0995 C   0  0  0  0  0  0  0  0  0  0  0  0
   50.4861   36.1666   39.0906 C   0  0  0  0  0  0  0  0  0  0  0  0
   50.7537   35.2201   37.1600 H   0  0  0  0  0  0  0  0  0  0  0  0
   51.2477   36.8839   38.8364 H   0  0  0  0  0  0  0  0  0  0  0  0
  1  6  2  0
  2  1  1  0
  3  2  2  0
  3  4  1  0
  4  5  2  0
  5  6  1  0
  7  8  1  0
  7  3  1  0
  1  9  1  0
  2 10  1  0
  5 11  1  0
  7 12  1  0
  7 13  1  0
  8 14  1  0
  8 15  1  0
 16 17  1  0
 17 18  2  0
 18 19  1  0
 19 20  1  0
 19 21  2  0
 21 22  1  0
 21 23  1  0
 23 24  2  0
 24 17  1  0
 23 25  1  0
 24 26  1  0
  8 18  1  0
M  ISO  8   9  14  10  14  11  14  12   8  13   8  14   8  15   8  20  15
M  ISO  1  22  16
M  END
>  <DihAtoms>  (1) 
6,7,17,16

>  <DihDeg>  (1) 
76.03701545832206

$$$$
