
 OpenBabel03252501163D

 35 38  0  0  1  0  0  0  0  0999 V2000
   45.9900   32.2510   44.4800 C   0  0  1  0  0  0  0  0  0  0  0  0
   46.2650   33.6570   44.8470 C   0  0  0  0  0  0  0  0  0  0  0  0
   47.0040   32.9180   43.6660 C   0  0  2  0  0  0  0  0  0  0  0  0
   45.0000   32.0040   44.0360 H   0  0  0  0  0  0  0  0  0  0  0  0
   46.9360   33.9310   45.6680 H   0  0  0  0  0  0  0  0  0  0  0  0
   45.5730   34.4680   44.5510 H   0  0  0  0  0  0  0  0  0  0  0  0
   48.0580   32.7260   43.8470 H   0  0  0  0  0  0  0  0  0  0  0  0
   47.3010   30.6040   47.5850 C   0  0  0  0  0  0  0  0  0  0  0  0
   46.9340   31.6200   46.7230 C   0  0  0  0  0  0  0  0  0  0  0  0
   46.4090   31.2350   45.4950 C   0  0  0  0  0  0  0  0  0  0  0  0
   46.2800   29.9220   45.1990 N   0  0  0  0  0  0  0  0  0  0  0  0
   46.6550   28.9590   46.0780 C   0  0  0  0  0  0  0  0  0  0  0  0
   47.1700   29.3150   47.2790 N   0  0  0  0  0  0  0  0  0  0  0  0
   47.0270   32.6730   46.9390 H   0  0  0  0  0  0  0  0  0  0  0  0
   46.5620   27.9040   45.8600 H   0  0  0  0  0  0  0  0  0  0  0  0
   47.8600   30.9880   48.9240 C   0  0  0  0  0  0  0  0  0  0  0  0
   48.7230   29.9920   49.3140 F   0  0  0  0  0  0  0  0  0  0  0  0
   46.8050   31.0360   49.8110 F   0  0  0  0  0  0  0  0  0  0  0  0
   48.5350   32.1820   48.8560 F   0  0  0  0  0  0  0  0  0  0  0  0
   46.5500   33.4060   42.3270 C   0  0  0  0  0  0  0  0  0  0  0  0
   47.3480   33.8600   41.2820 C   0  0  0  0  0  0  0  0  0  0  0  0
   46.4090   34.1690   40.3160 C   0  0  0  0  0  0  0  0  0  0  0  0
   45.1260   33.9070   40.7780 C   0  0  0  0  0  0  0  0  0  0  0  0
   45.3020   33.4550   41.9890 O   0  0  0  0  0  0  0  0  0  0  0  0
   48.4210   33.9320   41.2800 H   0  0  0  0  0  0  0  0  0  0  0  0
   46.6700   34.5610   39.3430 H   0  0  0  0  0  0  0  0  0  0  0  0
   44.1090   32.1930   38.7240 F   0  0  0  0  0  0  0  0  0  0  0  0
   43.3710   33.2450   39.1290 C   0  0  0  0  0  0  0  0  0  0  0  0
   43.8440   34.0760   40.1120 C   0  0  0  0  0  0  0  0  0  0  0  0
   43.0210   35.1250   40.4600 C   0  0  0  0  0  0  0  0  0  0  0  0
   43.3670   35.7990   41.2340 H   0  0  0  0  0  0  0  0  0  0  0  0
   41.7970   35.3060   39.8400 C   0  0  0  0  0  0  0  0  0  0  0  0
   41.2330   36.1670   40.1950 H   0  0  0  0  0  0  0  0  0  0  0  0
   41.3400   34.4580   38.8510 C   0  0  0  0  0  0  0  0  0  0  0  0
   42.1540   33.4020   38.4930 C   0  0  0  0  0  0  0  0  0  0  0  0
  1  4  1  6  0  0  0
  1  2  1  0  0  0  0
  1 10  1  0  0  0  0
  2  5  1  0  0  0  0
  3  7  1  1  0  0  0
  3  1  1  0  0  0  0
  3  2  1  0  0  0  0
  6  2  1  0  0  0  0
  8 16  1  0  0  0  0
  9 14  1  0  0  0  0
  9  8  2  0  0  0  0
 10  9  1  0  0  0  0
 11 10  2  0  0  0  0
 11 12  1  0  0  0  0
 12 13  2  0  0  0  0
 13  8  1  0  0  0  0
 15 12  1  0  0  0  0
 16 17  1  0  0  0  0
 16 18  1  0  0  0  0
 19 16  1  0  0  0  0
 20  3  1  0  0  0  0
 21 20  2  0  0  0  0
 22 23  2  0  0  0  0
 22 21  1  0  0  0  0
 23 24  1  0  0  0  0
 24 20  1  0  0  0  0
 25 21  1  0  0  0  0
 26 22  1  0  0  0  0
 27 28  1  0  0  0  0
 28 29  1  0  0  0  0
 29 30  2  0  0  0  0
 29 23  1  0  0  0  0
 30 31  1  0  0  0  0
 32 33  1  0  0  0  0
 32 30  1  0  0  0  0
 34 32  2  0  0  0  0
 35 34  1  0  0  0  0
 35 28  2  0  0  0  0
M  END
>  <minimizedAffinity>
-5.06687117

>  <minimizedRMSD>
4.89297628

$$$$
