
     RDKit          3D

 33 35  0  0  0  0  0  0  0  0999 V2000
   44.9050   35.0387   43.5587 C   0  0  0  0  0  0  0  0  0  0  0  0
   45.2822   34.9208   42.2097 C   0  0  0  0  0  0  0  0  0  0  0  0
   46.3967   34.1269   41.8651 C   0  0  0  0  0  0  0  0  0  0  0  0
   47.0244   33.5298   42.8953 N   0  0  0  0  0  0  0  0  0  0  0  0
   46.6595   33.6476   44.1696 C   0  0  0  0  0  0  0  0  0  0  0  0
   45.5939   34.4072   44.4948 N   0  0  0  0  0  0  0  0  0  0  0  0
   43.7815   35.8446   43.8600 N   0  0  0  0  0  0  0  0  0  0  0  0
   47.9638   34.6404   40.1049 C   0  0  0  0  0  0  0  0  0  0  0  0
   46.8173   33.9811   40.4795 C   0  0  0  0  0  0  0  0  0  0  0  0
   46.1714   33.2501   39.5330 C   0  0  0  0  0  0  0  0  0  0  0  0
   46.5991   33.1340   38.2277 C   0  0  0  0  0  0  0  0  0  0  0  0
   47.7601   33.8112   37.8791 C   0  0  0  0  0  0  0  0  0  0  0  0
   48.4422   34.5607   38.8063 C   0  0  0  0  0  0  0  0  0  0  0  0
   49.3265   36.0707   41.8089 N   0  0  0  0  0  0  0  0  0  0  0  0
   48.7123   35.4383   41.0435 C   0  0  0  0  0  0  0  0  0  0  0  0
   44.7418   35.4227   41.4219 H   0  0  0  0  0  0  0  0  0  0  0  0
   47.1647   33.1673   44.9963 H   0  0  0  0  0  0  0  0  0  0  0  0
   43.5077   36.8121   43.5823 H   0  0  0  0  0  0  0  0  0  0  0  0
   42.9541   35.5991   44.4642 H   0  0  0  0  0  0  0  0  0  0  0  0
   45.2563   32.7322   39.8589 H   0  0  0  0  0  0  0  0  0  0  0  0
   46.0430   32.5371   37.5173 H   0  0  0  0  0  0  0  0  0  0  0  0
   48.1252   33.7400   36.8547 H   0  0  0  0  0  0  0  0  0  0  0  0
   48.7254   37.3509   38.9503 F   0  0  0  0  0  0  0  0  0  0  0  0
   49.7800   36.6207   38.4607 C   0  0  0  0  0  0  0  0  0  0  0  0
   49.6543   35.2497   38.3845 C   0  0  0  0  0  0  0  0  0  0  0  0
   50.7535   34.5462   37.8796 C   0  0  0  0  0  0  0  0  0  0  0  0
   50.6832   33.4687   37.8083 H   0  0  0  0  0  0  0  0  0  0  0  0
   51.8799   35.2633   37.4948 C   0  0  0  0  0  0  0  0  0  0  0  0
   52.7322   34.6958   37.1013 H   0  0  0  0  0  0  0  0  0  0  0  0
   51.9642   36.6370   37.5877 C   0  0  0  0  0  0  0  0  0  0  0  0
   50.8796   37.3635   38.0890 C   0  0  0  0  0  0  0  0  0  0  0  0
   52.8611   37.1458   37.2756 H   0  0  0  0  0  0  0  0  0  0  0  0
   50.8970   38.4393   38.1812 H   0  0  0  0  0  0  0  0  0  0  0  0
  1  7  1  0
  1  6  2  0
  2  1  1  0
  3  2  2  0
  3  4  1  0
  4  5  2  0
  5  6  1  0
  8  9  2  0
  8 15  1  0
  9  3  1  0
 10  9  1  0
 11 10  2  0
 12 11  1  0
 12 13  2  0
 13  8  1  0
 15 14  3  0
  2 16  1  0
  5 17  1  0
  7 18  1  0
  7 19  1  0
 10 20  1  0
 11 21  1  0
 12 22  1  0
 23 24  1  0
 24 25  2  0
 25 26  1  0
 26 27  1  0
 26 28  2  0
 28 29  1  0
 28 30  1  0
 30 31  2  0
 31 24  1  0
 30 32  1  0
 31 33  1  0
 13 25  1  0
M  ISO  7  16  14  17  14  20  14  21  14  22  14  27  15  29  16
M  END
>  <DihAtoms>  (1) 
11,12,24,23

>  <DihDeg>  (1) 
89.99809252751504

$$$$
