REMARK  Name = 
REMARK  2 active torsions:
REMARK  status: ('A' for Active; 'I' for Inactive)
REMARK    1  A    between atoms: C_2  and  N_12
REMARK    2  A    between atoms: C_11  and  C_26
REMARK                            x       y       z     vdW  Elec       q    Type
REMARK                         _______ _______ _______ _____ _____    ______ ____
ROOT
ATOM      1  C   UNL     1      44.475  35.745  45.018  0.00  0.00    +0.000 A 
ATOM      2  C   UNL     1      45.103  35.713  43.766  0.00  0.00    +0.000 A 
ATOM      3  C   UNL     1      46.021  34.700  43.489  0.00  0.00    +0.000 A 
ATOM      4  N   UNL     1      46.256  33.781  44.475  0.00  0.00    +0.000 NA
ATOM      5  C   UNL     1      45.642  33.840  45.655  0.00  0.00    +0.000 A 
ATOM      6  N   UNL     1      44.753  34.806  45.949  0.00  0.00    +0.000 NA
ATOM      7  N   UNL     1      45.957  32.838  46.615  0.00  0.00    +0.000 N 
ATOM      8  C   UNL     1      45.161  32.570  47.822  0.00  0.00    +0.000 C 
ATOM      9  C   UNL     1      46.233  32.223  48.815  0.00  0.00    +0.000 C 
ATOM     10  C   UNL     1      47.514  32.039  48.051  0.00  0.00    +0.000 C 
ATOM     11  C   UNL     1      47.044  31.912  46.641  0.00  0.00    +0.000 C 
ATOM     12  H   UNL     1      43.765  36.534  45.224  0.00  0.00    +0.000 HD
ATOM     13  H   UNL     1      46.495  34.693  42.516  0.00  0.00    +0.000 HD
ATOM     14  H   UNL     1      44.732  33.538  48.132  0.00  0.00    +0.000 HD
ATOM     15  H   UNL     1      44.425  31.767  47.673  0.00  0.00    +0.000 HD
ATOM     16  H   UNL     1      46.334  32.976  49.622  0.00  0.00    +0.000 HD
ATOM     17  H   UNL     1      45.936  31.271  49.299  0.00  0.00    +0.000 HD
ATOM     18  H   UNL     1      48.002  31.089  48.371  0.00  0.00    +0.000 HD
ATOM     19  H   UNL     1      48.170  32.921  48.231  0.00  0.00    +0.000 HD
ATOM     20  H   UNL     1      46.603  30.869  46.565  0.00  0.00    +0.000 HD
ENDROOT
BRANCH  11  23
ATOM     21  F   UNL     1      47.902  29.764  45.076  0.00  0.00    +0.000 F 
ATOM     22  C   UNL     1      48.520  30.970  44.891  0.00  0.00    +0.000 A 
ATOM     23  C   UNL     1      48.099  32.068  45.652  0.00  0.00    +0.000 A 
ATOM     24  C   UNL     1      48.805  33.201  45.361  0.00  0.00    +0.000 A 
ATOM     25  H   UNL     1      48.565  34.107  45.907  0.00  0.00    +0.000 HD
ATOM     26  C   UNL     1      49.822  33.307  44.435  0.00  0.00    +0.000 A 
ATOM     27  H   UNL     1      50.327  34.246  44.269  0.00  0.00    +0.000 HD
ATOM     28  C   UNL     1      50.178  32.191  43.729  0.00  0.00    +0.000 A 
ATOM     29  C   UNL     1      49.527  31.003  43.950  0.00  0.00    +0.000 A 
ENDBRANCH  11  23
BRANCH   2  30
ATOM     30  N   UNL     1      44.752  36.748  42.832  0.00  0.00    +0.000 N 
ATOM     31  H   UNL     1      44.646  36.351  41.868  0.00  0.00    +0.000 HD
ATOM     32  H   UNL     1      44.657  37.706  43.236  0.00  0.00    +0.000 HD
ENDBRANCH   2  30
TORSDOF 2
