
 OpenBabel03252506313D

 32 34  0  0  1  0  0  0  0  0999 V2000
   40.4140   33.8790   39.8400 C   0  0  0  0  0  0  0  0  0  0  0  0
   40.7630   35.1270   40.3730 C   0  0  0  0  0  0  0  0  0  0  0  0
   42.0920   35.3740   40.7170 C   0  0  0  0  0  0  0  0  0  0  0  0
   42.9910   34.3640   40.5080 N   0  0  0  0  0  0  0  0  0  0  0  0
   42.6260   33.1890   39.9990 C   0  0  0  0  0  0  0  0  0  0  0  0
   41.3520   32.9230   39.6600 N   0  0  0  0  0  0  0  0  0  0  0  0
   43.6360   32.2020   39.8230 N   0  0  0  0  0  0  0  0  0  0  0  0
   43.4760   30.9930   39.0020 C   0  0  0  0  0  0  0  0  0  0  0  0
   44.2550   29.9860   39.7990 C   0  0  0  0  0  0  0  0  0  0  0  0
   45.0290   30.7390   40.8440 C   0  0  0  0  0  0  0  0  0  0  0  0
   44.9590   32.1480   40.3590 C   0  0  2  0  0  0  0  0  0  0  0  0
   39.3810   33.6960   39.5770 H   0  0  0  0  0  0  0  0  0  0  0  0
   42.3420   36.3440   41.1270 H   0  0  0  0  0  0  0  0  0  0  0  0
   42.4120   30.7090   39.0710 H   0  0  0  0  0  0  0  0  0  0  0  0
   43.8510   31.1250   37.9770 H   0  0  0  0  0  0  0  0  0  0  0  0
   43.6140   29.1980   40.2430 H   0  0  0  0  0  0  0  0  0  0  0  0
   44.9500   29.4800   39.0990 H   0  0  0  0  0  0  0  0  0  0  0  0
   46.0890   30.3930   40.8400 H   0  0  0  0  0  0  0  0  0  0  0  0
   44.5460   30.5780   41.8350 H   0  0  0  0  0  0  0  0  0  0  0  0
   45.6820   32.1990   39.4850 H   0  0  0  0  0  0  0  0  0  0  0  0
   43.9560   32.0350   42.9620 F   0  0  0  0  0  0  0  0  0  0  0  0
   44.8040   33.0620   42.6540 C   0  0  0  0  0  0  0  0  0  0  0  0
   45.3330   33.1350   41.3590 C   0  0  0  0  0  0  0  0  0  0  0  0
   46.1610   34.2110   41.1960 C   0  0  0  0  0  0  0  0  0  0  0  0
   46.6130   34.3660   40.2220 H   0  0  0  0  0  0  0  0  0  0  0  0
   46.4720   35.1460   42.1610 C   0  0  0  0  0  0  0  0  0  0  0  0
   47.1380   35.9680   41.9450 H   0  0  0  0  0  0  0  0  0  0  0  0
   45.9170   35.0100   43.4030 C   0  0  0  0  0  3  0  0  0  0  0  0
   45.0710   33.9600   43.6650 C   0  0  0  0  0  3  0  0  0  0  0  0
   39.7060   36.0880   40.5340 N   0  0  0  0  0  0  0  0  0  0  0  0
   40.0330   37.0430   40.2490 H   0  0  0  0  0  0  0  0  0  0  0  0
   38.8030   35.7090   40.8950 H   0  0  0  0  0  0  0  0  0  0  0  0
  1  2  1  0  0  0  0
  2 30  1  0  0  0  0
  2  3  2  0  0  0  0
  3 13  1  0  0  0  0
  4  3  1  0  0  0  0
  5  4  2  0  0  0  0
  6  1  2  0  0  0  0
  6  5  1  0  0  0  0
  7  5  1  0  0  0  0
  7 11  1  0  0  0  0
  8 14  1  0  0  0  0
  8  9  1  0  0  0  0
  8  7  1  0  0  0  0
  9 16  1  0  0  0  0
  9 10  1  0  0  0  0
 10 19  1  0  0  0  0
 11 20  1  6  0  0  0
 11 10  1  0  0  0  0
 11 23  1  0  0  0  0
 12  1  1  0  0  0  0
 15  8  1  0  0  0  0
 17  9  1  0  0  0  0
 18 10  1  0  0  0  0
 22 21  1  0  0  0  0
 22 29  1  0  0  0  0
 23 22  2  0  0  0  0
 24 23  1  0  0  0  0
 24 26  2  0  0  0  0
 25 24  1  0  0  0  0
 26 28  1  0  0  0  0
 27 26  1  0  0  0  0
 28 29  2  0  0  0  0
 30 32  1  0  0  0  0
 31 30  1  0  0  0  0
M  END
>  <minimizedAffinity>
-4.00324297

>  <minimizedRMSD>
6.34463882

$$$$
