
 OpenBabel03252507223D

 47 50  0  0  1  0  0  0  0  0999 V2000
   46.7070   33.1290   43.3410 C   0  0  0  0  0  0  0  0  0  0  0  0
   47.9760   33.2110   43.4360 O   0  0  0  0  0  0  0  0  0  0  0  0
   46.0560   32.2410   42.4440 N   0  0  0  0  0  0  0  0  0  0  0  0
   44.9000   31.3560   42.6600 C   0  0  0  0  0  0  0  0  0  0  0  0
   43.8680   31.6210   41.5660 C   0  0  0  0  0  0  0  0  0  0  0  0
   44.4220   31.2080   40.2410 C   0  0  0  0  0  0  0  0  0  0  0  0
   45.9310   31.0440   40.3340 C   0  0  0  0  0  0  0  0  0  0  0  0
   46.5670   32.1460   41.1050 C   0  0  2  0  0  0  0  0  0  0  0  0
   45.2710   30.3320   42.6760 H   0  0  0  0  0  0  0  0  0  0  0  0
   44.4270   31.6480   43.6390 H   0  0  0  0  0  0  0  0  0  0  0  0
   42.9110   31.1510   41.8190 H   0  0  0  0  0  0  0  0  0  0  0  0
   43.7710   32.7470   41.5470 H   0  0  0  0  0  0  0  0  0  0  0  0
   43.9820   30.2180   39.9390 H   0  0  0  0  0  0  0  0  0  0  0  0
   44.1720   31.9200   39.4270 H   0  0  0  0  0  0  0  0  0  0  0  0
   46.2870   31.1650   39.2680 H   0  0  0  0  0  0  0  0  0  0  0  0
   46.2300   30.0380   40.6540 H   0  0  0  0  0  0  0  0  0  0  0  0
   46.3070   33.1090   40.5680 H   0  0  0  0  0  0  0  0  0  0  0  0
   45.3860   35.1580   43.6250 C   0  0  0  0  0  0  0  0  0  0  0  0
   45.9060   33.9800   44.1880 C   0  0  0  0  0  0  0  0  0  0  0  0
   45.6510   33.6550   45.5130 C   0  0  0  0  0  0  0  0  0  0  0  0
   44.8850   34.5250   46.2200 N   0  0  0  0  0  0  0  0  0  0  0  0
   44.3750   35.6620   45.7000 C   0  0  0  0  0  0  0  0  0  0  0  0
   44.6350   35.9660   44.4010 N   0  0  0  0  0  0  0  0  0  0  0  0
   45.5820   35.4170   42.5930 H   0  0  0  0  0  0  0  0  0  0  0  0
   43.7680   36.3410   46.2830 H   0  0  0  0  0  0  0  0  0  0  0  0
   46.2020   32.4430   46.0550 C   0  0  0  0  0  0  0  0  0  0  0  0
   45.6550   31.2410   45.7590 C   0  0  0  0  0  0  0  0  0  0  0  0
   46.2070   30.0970   46.2960 C   0  0  0  0  0  0  0  0  0  0  0  0
   47.3160   30.1190   47.1380 C   0  0  0  0  0  0  0  0  0  0  0  0
   47.8350   31.3720   47.4070 C   0  0  0  0  0  0  0  0  0  0  0  0
   47.2810   32.4810   46.8720 N   0  0  0  0  0  0  0  0  0  0  0  0
   44.8030   31.0730   45.1310 H   0  0  0  0  0  0  0  0  0  0  0  0
   45.8040   29.1150   46.0890 H   0  0  0  0  0  0  0  0  0  0  0  0
   47.7560   29.2480   47.5610 H   0  0  0  0  0  0  0  0  0  0  0  0
   48.6850   31.5440   48.0360 H   0  0  0  0  0  0  0  0  0  0  0  0
   48.0620   32.0470   41.0200 C   0  0  0  0  0  0  0  0  0  0  0  0
   48.4530   31.0330   41.0910 H   0  0  0  0  0  0  0  0  0  0  0  0
   48.5980   32.7620   41.7160 H   0  0  0  0  0  0  0  0  0  0  0  0
   47.4790   34.7280   40.3000 F   0  0  0  0  0  0  0  0  0  0  0  0
   48.1060   33.9510   39.3540 C   0  0  0  0  0  0  0  0  0  0  0  0
   48.4030   32.6440   39.6720 C   0  0  0  0  0  0  0  0  0  0  0  0
   49.0230   31.8940   38.7280 C   0  0  0  0  0  0  0  0  0  0  0  0
   49.2480   30.8710   38.9960 H   0  0  0  0  0  0  0  0  0  0  0  0
   49.3870   32.3260   37.4560 C   0  0  0  0  0  0  0  0  0  0  0  0
   49.8800   31.7210   36.7080 H   0  0  0  0  0  0  0  0  0  0  0  0
   49.0460   33.6580   37.2280 C   0  0  0  0  0  3  0  0  0  0  0  0
   48.4180   34.4930   38.1270 C   0  0  0  0  0  3  0  0  0  0  0  0
  1  2  2  0  0  0  0
  1 19  1  0  0  0  0
  3  4  1  0  0  0  0
  3  1  1  0  0  0  0
  4  9  1  0  0  0  0
  4 10  1  0  0  0  0
  5 11  1  0  0  0  0
  5  4  1  0  0  0  0
  6  7  1  0  0  0  0
  6  5  1  0  0  0  0
  7 16  1  0  0  0  0
  7  8  1  0  0  0  0
  8 17  1  6  0  0  0
  8  3  1  0  0  0  0
 12  5  1  0  0  0  0
 13  6  1  0  0  0  0
 14  6  1  0  0  0  0
 15  7  1  0  0  0  0
 18 19  2  0  0  0  0
 18 23  1  0  0  0  0
 19 20  1  0  0  0  0
 20 26  1  0  0  0  0
 20 21  2  0  0  0  0
 22 21  1  0  0  0  0
 22 25  1  0  0  0  0
 23 22  2  0  0  0  0
 24 18  1  0  0  0  0
 26 31  1  0  0  0  0
 27 26  2  0  0  0  0
 27 28  1  0  0  0  0
 28 29  2  0  0  0  0
 29 30  1  0  0  0  0
 29 34  1  0  0  0  0
 30 35  1  0  0  0  0
 31 30  2  0  0  0  0
 32 27  1  0  0  0  0
 33 28  1  0  0  0  0
 36 37  1  0  0  0  0
 36  8  1  0  0  0  0
 36 38  1  0  0  0  0
 40 41  1  0  0  0  0
 40 39  1  0  0  0  0
 41 36  1  0  0  0  0
 42 43  1  0  0  0  0
 42 41  2  0  0  0  0
 44 42  1  0  0  0  0
 45 44  1  0  0  0  0
 46 44  2  0  0  0  0
 46 47  1  0  0  0  0
 47 40  2  0  0  0  0
M  END
>  <minimizedAffinity>
-5.2723546

>  <minimizedRMSD>
1.80986702

$$$$
