REMARK  Name = 
REMARK  3 active torsions:
REMARK  status: ('A' for Active; 'I' for Inactive)
REMARK    1  A    between atoms: C_3  and  C_9
REMARK    2  A    between atoms: C_8  and  C_15
REMARK    3  A    between atoms: C_13  and  C_25
REMARK                            x       y       z     vdW  Elec       q    Type
REMARK                         _______ _______ _______ _____ _____    ______ ____
ROOT
ATOM      1  C   UNL     1      47.964  34.640  40.105  0.00  0.00    +0.000 A 
ATOM      2  C   UNL     1      46.817  33.981  40.480  0.00  0.00    +0.000 A 
ATOM      3  C   UNL     1      46.171  33.250  39.533  0.00  0.00    +0.000 A 
ATOM      4  C   UNL     1      46.599  33.134  38.228  0.00  0.00    +0.000 A 
ATOM      5  C   UNL     1      47.760  33.811  37.879  0.00  0.00    +0.000 A 
ATOM      6  C   UNL     1      48.442  34.561  38.806  0.00  0.00    +0.000 A 
ATOM      7  H   UNL     1      45.256  32.732  39.859  0.00  0.00    +0.000 HD
ATOM      8  H   UNL     1      46.043  32.537  37.517  0.00  0.00    +0.000 HD
ATOM      9  H   UNL     1      48.125  33.740  36.855  0.00  0.00    +0.000 HD
ENDROOT
BRANCH   2  12
ATOM     10  C   UNL     1      44.905  35.039  43.559  0.00  0.00    +0.000 A 
ATOM     11  C   UNL     1      45.282  34.921  42.210  0.00  0.00    +0.000 A 
ATOM     12  C   UNL     1      46.397  34.127  41.865  0.00  0.00    +0.000 A 
ATOM     13  N   UNL     1      47.024  33.530  42.895  0.00  0.00    +0.000 NA
ATOM     14  C   UNL     1      46.660  33.648  44.170  0.00  0.00    +0.000 A 
ATOM     15  N   UNL     1      45.594  34.407  44.495  0.00  0.00    +0.000 NA
ATOM     16  N   UNL     1      43.782  35.845  43.860  0.00  0.00    +0.000 N 
ATOM     17  H   UNL     1      44.742  35.423  41.422  0.00  0.00    +0.000 HD
ATOM     18  H   UNL     1      47.165  33.167  44.996  0.00  0.00    +0.000 HD
ATOM     19  H   UNL     1      43.508  36.812  43.582  0.00  0.00    +0.000 HD
ATOM     20  H   UNL     1      42.954  35.599  44.464  0.00  0.00    +0.000 HD
ENDBRANCH   2  12
BRANCH   6  23
ATOM     21  F   UNL     1      48.725  37.351  38.950  0.00  0.00    +0.000 F 
ATOM     22  C   UNL     1      49.780  36.621  38.461  0.00  0.00    +0.000 A 
ATOM     23  C   UNL     1      49.654  35.250  38.385  0.00  0.00    +0.000 A 
ATOM     24  C   UNL     1      50.754  34.546  37.880  0.00  0.00    +0.000 A 
ATOM     25  H   UNL     1      50.683  33.469  37.808  0.00  0.00    +0.000 HD
ATOM     26  C   UNL     1      51.880  35.263  37.495  0.00  0.00    +0.000 A 
ATOM     27  H   UNL     1      52.732  34.696  37.101  0.00  0.00    +0.000 HD
ATOM     28  C   UNL     1      51.964  36.637  37.588  0.00  0.00    +0.000 A 
ATOM     29  C   UNL     1      50.880  37.364  38.089  0.00  0.00    +0.000 A 
ENDBRANCH   6  23
BRANCH   1  31
ATOM     30  N   UNL     1      49.327  36.071  41.809  0.00  0.00    +0.000 NA
ATOM     31  C   UNL     1      48.712  35.438  41.044  0.00  0.00    +0.000 C 
ENDBRANCH   1  31
TORSDOF 3
