
 OpenBabel03242518183D

 23 24  0  0  0  0  0  0  0  0999 V2000
   36.4790   30.5540   41.1480 C   0  0  0  0  0  0  0  0  0  0  0  0
   36.5380   31.3020   41.9870 H   0  0  0  0  0  0  0  0  0  0  0  0
   35.4130   30.4810   40.8290 H   0  0  0  0  0  0  0  0  0  0  0  0
   35.7960   28.0040   40.0450 F   0  0  0  0  0  0  0  0  0  0  0  0
   36.5500   27.9850   41.1700 C   0  0  0  0  0  0  0  0  0  0  0  0
   36.8620   29.2400   41.6780 C   0  0  0  0  0  0  0  0  0  0  0  0
   37.6330   29.2860   42.8320 C   0  0  0  0  0  0  0  0  0  0  0  0
   37.9370   30.1960   43.3160 H   0  0  0  0  0  0  0  0  0  0  0  0
   38.0740   28.1270   43.4530 C   0  0  0  0  0  0  0  0  0  0  0  0
   38.6770   28.1180   44.3530 H   0  0  0  0  0  0  0  0  0  0  0  0
   37.7650   26.8800   42.9500 C   0  0  0  0  0  3  0  0  0  0  0  0
   36.9960   26.8470   41.8000 C   0  0  0  0  0  3  0  0  0  0  0  0
   37.5630   31.3690   37.7520 C   0  0  0  0  0  0  0  0  0  0  0  0
   38.8820   31.8620   37.9290 C   0  0  0  0  0  0  0  0  0  0  0  0
   39.3610   31.9010   39.2170 C   0  0  0  0  0  0  0  0  0  0  0  0
   38.5940   31.4840   40.2330 N   0  0  0  0  0  0  0  0  0  0  0  0
   37.3400   31.0190   40.0310 C   0  0  0  0  0  0  0  0  0  0  0  0
   36.8120   30.9570   38.7840 N   0  0  0  0  0  0  0  0  0  0  0  0
   37.1130   31.3070   36.7740 H   0  0  0  0  0  0  0  0  0  0  0  0
   40.3590   32.2800   39.2940 H   0  0  0  0  0  0  0  0  0  0  0  0
   39.5220   32.2510   36.7240 N   0  0  0  0  0  0  0  0  0  0  0  0
   39.2090   33.1300   36.2240 H   0  0  0  0  0  0  0  0  0  0  0  0
   40.2960   31.6650   36.3390 H   0  0  0  0  0  0  0  0  0  0  0  0
  1  6  1  0  0  0  0
  1  2  1  0  0  0  0
  3  1  1  0  0  0  0
  4  5  1  0  0  0  0
  5  6  2  0  0  0  0
  5 12  1  0  0  0  0
  6  7  1  0  0  0  0
  7  8  1  0  0  0  0
  7  9  2  0  0  0  0
  9 10  1  0  0  0  0
 11  9  1  0  0  0  0
 12 11  2  0  0  0  0
 13 14  2  0  0  0  0
 13 18  1  0  0  0  0
 14 15  1  0  0  0  0
 15 20  1  0  0  0  0
 15 16  2  0  0  0  0
 17 16  1  0  0  0  0
 17  1  1  0  0  0  0
 18 17  2  0  0  0  0
 19 13  1  0  0  0  0
 21 14  1  0  0  0  0
 22 21  1  0  0  0  0
 23 21  1  0  0  0  0
M  END
>  <minimizedAffinity>
-5.05390215

$$$$

 OpenBabel03242518183D

 23 24  0  0  0  0  0  0  0  0999 V2000
   36.6200   30.5620   41.3560 C   0  0  0  0  0  0  0  0  0  0  0  0
   36.7310   31.3920   42.1070 H   0  0  0  0  0  0  0  0  0  0  0  0
   35.5310   30.3910   41.1920 H   0  0  0  0  0  0  0  0  0  0  0  0
   38.8330   30.3710   43.1600 F   0  0  0  0  0  0  0  0  0  0  0  0
   38.2340   29.2030   42.8230 C   0  0  0  0  0  0  0  0  0  0  0  0
   37.1650   29.3340   41.9460 C   0  0  0  0  0  0  0  0  0  0  0  0
   36.5100   28.1700   41.5640 C   0  0  0  0  0  0  0  0  0  0  0  0
   35.6710   28.1450   40.8920 H   0  0  0  0  0  0  0  0  0  0  0  0
   36.9080   26.9280   42.0370 C   0  0  0  0  0  0  0  0  0  0  0  0
   36.4240   25.9980   41.7640 H   0  0  0  0  0  0  0  0  0  0  0  0
   37.9690   26.7970   42.9070 C   0  0  0  0  0  3  0  0  0  0  0  0
   38.6140   27.9630   43.2810 C   0  0  0  0  0  3  0  0  0  0  0  0
   39.0830   32.0400   39.0930 C   0  0  0  0  0  0  0  0  0  0  0  0
   38.5800   31.7330   37.8010 C   0  0  0  0  0  0  0  0  0  0  0  0
   37.4030   31.0240   37.7470 C   0  0  0  0  0  0  0  0  0  0  0  0
   36.7870   30.6560   38.8780 N   0  0  0  0  0  0  0  0  0  0  0  0
   37.2920   30.9640   40.0950 C   0  0  0  0  0  0  0  0  0  0  0  0
   38.4490   31.6610   40.2130 N   0  0  0  0  0  0  0  0  0  0  0  0
   40.0000   32.5930   39.2220 H   0  0  0  0  0  0  0  0  0  0  0  0
   37.0700   30.8200   36.7510 H   0  0  0  0  0  0  0  0  0  0  0  0
   39.3850   32.2150   36.7370 N   0  0  0  0  0  0  0  0  0  0  0  0
   40.3170   31.7560   36.5350 H   0  0  0  0  0  0  0  0  0  0  0  0
   39.0510   33.0200   36.1620 H   0  0  0  0  0  0  0  0  0  0  0  0
  1  6  1  0  0  0  0
  1  2  1  0  0  0  0
  3  1  1  0  0  0  0
  5  4  1  0  0  0  0
  5 12  1  0  0  0  0
  6  5  2  0  0  0  0
  7  6  1  0  0  0  0
  7  9  2  0  0  0  0
  8  7  1  0  0  0  0
  9 11  1  0  0  0  0
 10  9  1  0  0  0  0
 11 12  2  0  0  0  0
 13 19  1  0  0  0  0
 13 18  1  0  0  0  0
 14 13  2  0  0  0  0
 15 14  1  0  0  0  0
 15 16  2  0  0  0  0
 16 17  1  0  0  0  0
 17 18  2  0  0  0  0
 17  1  1  0  0  0  0
 20 15  1  0  0  0  0
 21 14  1  0  0  0  0
 22 21  1  0  0  0  0
 23 21  1  0  0  0  0
M  END
>  <minimizedAffinity>
-5.04436207

$$$$

 OpenBabel03242518183D

 23 24  0  0  0  0  0  0  0  0999 V2000
   38.5470   28.5870   43.0320 C   0  0  0  0  0  0  0  0  0  0  0  0
   39.6660   28.6680   43.1180 H   0  0  0  0  0  0  0  0  0  0  0  0
   38.1190   28.6280   44.0600 H   0  0  0  0  0  0  0  0  0  0  0  0
   36.2090   27.0320   43.5850 F   0  0  0  0  0  0  0  0  0  0  0  0
   37.1030   26.4830   42.7280 C   0  0  0  0  0  0  0  0  0  0  0  0
   38.2240   27.2640   42.4830 C   0  0  0  0  0  0  0  0  0  0  0  0
   39.1780   26.7530   41.6120 C   0  0  0  0  0  0  0  0  0  0  0  0
   40.0850   27.2660   41.3460 H   0  0  0  0  0  0  0  0  0  0  0  0
   39.0180   25.5140   41.0110 C   0  0  0  0  0  0  0  0  0  0  0  0
   39.7360   25.0800   40.3260 H   0  0  0  0  0  0  0  0  0  0  0  0
   37.9040   24.7360   41.2530 C   0  0  0  0  0  3  0  0  0  0  0  0
   36.9620   25.2550   42.1230 C   0  0  0  0  0  3  0  0  0  0  0  0
   38.5320   31.6950   41.1040 C   0  0  0  0  0  0  0  0  0  0  0  0
   37.1870   31.8140   40.6680 C   0  0  0  0  0  0  0  0  0  0  0  0
   36.3210   30.8170   41.0500 C   0  0  0  0  0  0  0  0  0  0  0  0
   36.7590   29.7960   41.8000 N   0  0  0  0  0  0  0  0  0  0  0  0
   38.0480   29.7120   42.2010 C   0  0  0  0  0  0  0  0  0  0  0  0
   38.9490   30.6640   41.8550 N   0  0  0  0  0  0  0  0  0  0  0  0
   39.2740   32.4350   40.8470 H   0  0  0  0  0  0  0  0  0  0  0  0
   35.3220   30.9550   40.6940 H   0  0  0  0  0  0  0  0  0  0  0  0
   36.9320   32.9690   39.8840 N   0  0  0  0  0  0  0  0  0  0  0  0
   37.3090   33.0250   38.8960 H   0  0  0  0  0  0  0  0  0  0  0  0
   36.3770   33.7540   40.2890 H   0  0  0  0  0  0  0  0  0  0  0  0
  1  2  1  0  0  0  0
  1  3  1  0  0  0  0
  5  4  1  0  0  0  0
  6  5  1  0  0  0  0
  6  1  1  0  0  0  0
  7  6  2  0  0  0  0
  8  7  1  0  0  0  0
  9 11  2  0  0  0  0
  9  7  1  0  0  0  0
 10  9  1  0  0  0  0
 11 12  1  0  0  0  0
 12  5  2  0  0  0  0
 13 18  1  0  0  0  0
 14 15  1  0  0  0  0
 14 13  2  0  0  0  0
 15 16  2  0  0  0  0
 16 17  1  0  0  0  0
 17  1  1  0  0  0  0
 18 17  2  0  0  0  0
 19 13  1  0  0  0  0
 20 15  1  0  0  0  0
 21 23  1  0  0  0  0
 21 14  1  0  0  0  0
 22 21  1  0  0  0  0
M  END
>  <minimizedAffinity>
-5.03626633

$$$$

 OpenBabel03242518183D

 23 24  0  0  0  0  0  0  0  0999 V2000
   39.4720   30.7430   42.3240 C   0  0  0  0  0  0  0  0  0  0  0  0
   40.4960   30.5830   42.7630 H   0  0  0  0  0  0  0  0  0  0  0  0
   38.9790   31.5640   42.8940 H   0  0  0  0  0  0  0  0  0  0  0  0
   36.6790   30.3990   41.8040 F   0  0  0  0  0  0  0  0  0  0  0  0
   37.3290   29.3240   42.3090 C   0  0  0  0  0  0  0  0  0  0  0  0
   38.6820   29.5260   42.5500 C   0  0  0  0  0  0  0  0  0  0  0  0
   39.4030   28.4590   43.0700 C   0  0  0  0  0  0  0  0  0  0  0  0
   40.4530   28.4960   43.2960 H   0  0  0  0  0  0  0  0  0  0  0  0
   38.7980   27.2410   43.3380 C   0  0  0  0  0  0  0  0  0  0  0  0
   39.3230   26.3840   43.7430 H   0  0  0  0  0  0  0  0  0  0  0  0
   37.4550   27.0380   43.1000 C   0  0  0  0  0  3  0  0  0  0  0  0
   36.7460   28.1080   42.5830 C   0  0  0  0  0  3  0  0  0  0  0  0
   39.3200   32.6930   39.2340 C   0  0  0  0  0  0  0  0  0  0  0  0
   39.8570   31.8160   38.2560 C   0  0  0  0  0  0  0  0  0  0  0  0
   40.2570   30.5740   38.6900 C   0  0  0  0  0  0  0  0  0  0  0  0
   40.1320   30.2410   39.9820 N   0  0  0  0  0  0  0  0  0  0  0  0
   39.6160   31.1000   40.8900 C   0  0  0  0  0  0  0  0  0  0  0  0
   39.2040   32.3380   40.5220 N   0  0  0  0  0  0  0  0  0  0  0  0
   38.9830   33.6850   38.9750 H   0  0  0  0  0  0  0  0  0  0  0  0
   40.6530   29.9540   37.9130 H   0  0  0  0  0  0  0  0  0  0  0  0
   39.9010   32.3640   36.9480 N   0  0  0  0  0  0  0  0  0  0  0  0
   40.6030   33.1240   36.7220 H   0  0  0  0  0  0  0  0  0  0  0  0
   39.2390   32.0150   36.2200 H   0  0  0  0  0  0  0  0  0  0  0  0
  1  6  1  0  0  0  0
  1  2  1  0  0  0  0
  1  3  1  0  0  0  0
  4  5  1  0  0  0  0
  5  6  2  0  0  0  0
  5 12  1  0  0  0  0
  6  7  1  0  0  0  0
  7  8  1  0  0  0  0
  7  9  2  0  0  0  0
  9 10  1  0  0  0  0
 11  9  1  0  0  0  0
 12 11  2  0  0  0  0
 13 18  1  0  0  0  0
 14 15  1  0  0  0  0
 14 13  2  0  0  0  0
 15 16  2  0  0  0  0
 16 17  1  0  0  0  0
 17  1  1  0  0  0  0
 18 17  2  0  0  0  0
 19 13  1  0  0  0  0
 20 15  1  0  0  0  0
 21 14  1  0  0  0  0
 22 21  1  0  0  0  0
 23 21  1  0  0  0  0
M  END
>  <minimizedAffinity>
-4.90005875

$$$$

 OpenBabel03242518183D

 23 24  0  0  0  0  0  0  0  0999 V2000
   36.6380   27.3880   43.1010 C   0  0  0  0  0  0  0  0  0  0  0  0
   36.9530   27.7510   44.1190 H   0  0  0  0  0  0  0  0  0  0  0  0
   35.6320   26.9190   43.2000 H   0  0  0  0  0  0  0  0  0  0  0  0
   39.4420   27.2620   43.6600 F   0  0  0  0  0  0  0  0  0  0  0  0
   38.9300   26.2370   42.9370 C   0  0  0  0  0  0  0  0  0  0  0  0
   37.5680   26.3310   42.6850 C   0  0  0  0  0  0  0  0  0  0  0  0
   36.9860   25.3090   41.9470 C   0  0  0  0  0  0  0  0  0  0  0  0
   35.9420   25.2720   41.6890 H   0  0  0  0  0  0  0  0  0  0  0  0
   37.7330   24.2380   41.4800 C   0  0  0  0  0  0  0  0  0  0  0  0
   37.3180   23.4200   40.9030 H   0  0  0  0  0  0  0  0  0  0  0  0
   39.0860   24.1430   41.7310 C   0  0  0  0  0  3  0  0  0  0  0  0
   39.6550   25.1670   42.4660 C   0  0  0  0  0  3  0  0  0  0  0  0
   37.5220   30.5730   41.5350 C   0  0  0  0  0  0  0  0  0  0  0  0
   36.5770   30.7050   40.4850 C   0  0  0  0  0  0  0  0  0  0  0  0
   35.6600   29.6900   40.3450 C   0  0  0  0  0  0  0  0  0  0  0  0
   35.6850   28.6410   41.1790 N   0  0  0  0  0  0  0  0  0  0  0  0
   36.5990   28.5450   42.1710 C   0  0  0  0  0  0  0  0  0  0  0  0
   37.5300   29.5130   42.3580 N   0  0  0  0  0  0  0  0  0  0  0  0
   38.2750   31.3250   41.7110 H   0  0  0  0  0  0  0  0  0  0  0  0
   34.9720   29.8400   39.5400 H   0  0  0  0  0  0  0  0  0  0  0  0
   36.7240   31.8910   39.7190 N   0  0  0  0  0  0  0  0  0  0  0  0
   37.5450   31.9880   39.0570 H   0  0  0  0  0  0  0  0  0  0  0  0
   36.0220   32.6570   39.8160 H   0  0  0  0  0  0  0  0  0  0  0  0
  1  3  1  0  0  0  0
  1  2  1  0  0  0  0
  5  4  1  0  0  0  0
  6  5  1  0  0  0  0
  6  1  1  0  0  0  0
  7  6  2  0  0  0  0
  8  7  1  0  0  0  0
  9 11  2  0  0  0  0
  9  7  1  0  0  0  0
 10  9  1  0  0  0  0
 11 12  1  0  0  0  0
 12  5  2  0  0  0  0
 13 19  1  0  0  0  0
 13 18  1  0  0  0  0
 14 13  2  0  0  0  0
 15 14  1  0  0  0  0
 15 16  2  0  0  0  0
 16 17  1  0  0  0  0
 17 18  2  0  0  0  0
 17  1  1  0  0  0  0
 20 15  1  0  0  0  0
 21 23  1  0  0  0  0
 21 14  1  0  0  0  0
 22 21  1  0  0  0  0
M  END
>  <minimizedAffinity>
-4.85308266

$$$$

 OpenBabel03242518183D

 23 24  0  0  0  0  0  0  0  0999 V2000
   39.4430   29.4200   40.8930 C   0  0  0  0  0  0  0  0  0  0  0  0
   39.7130   28.8390   39.9680 H   0  0  0  0  0  0  0  0  0  0  0  0
   40.3770   29.5880   41.4780 H   0  0  0  0  0  0  0  0  0  0  0  0
   38.6440   29.9290   43.5940 F   0  0  0  0  0  0  0  0  0  0  0  0
   38.1540   28.8000   43.0280 C   0  0  0  0  0  0  0  0  0  0  0  0
   38.5620   28.5850   41.7180 C   0  0  0  0  0  0  0  0  0  0  0  0
   38.0910   27.4420   41.0840 C   0  0  0  0  0  0  0  0  0  0  0  0
   38.3370   27.1710   40.0740 H   0  0  0  0  0  0  0  0  0  0  0  0
   37.2480   26.5520   41.7320 C   0  0  0  0  0  0  0  0  0  0  0  0
   36.8580   25.6510   41.2740 H   0  0  0  0  0  0  0  0  0  0  0  0
   36.8420   26.7640   43.0330 C   0  0  0  0  0  3  0  0  0  0  0  0
   37.3170   27.9040   43.6550 C   0  0  0  0  0  3  0  0  0  0  0  0
   37.3080   31.8060   39.1260 C   0  0  0  0  0  0  0  0  0  0  0  0
   37.6610   33.0580   39.6940 C   0  0  0  0  0  0  0  0  0  0  0  0
   38.6260   33.0450   40.6720 C   0  0  0  0  0  0  0  0  0  0  0  0
   39.1870   31.8870   41.0480 N   0  0  0  0  0  0  0  0  0  0  0  0
   38.8290   30.7100   40.4870 C   0  0  0  0  0  0  0  0  0  0  0  0
   37.8830   30.6590   39.5170 N   0  0  0  0  0  0  0  0  0  0  0  0
   36.5590   31.7300   38.3530 H   0  0  0  0  0  0  0  0  0  0  0  0
   38.8540   34.0130   41.0660 H   0  0  0  0  0  0  0  0  0  0  0  0
   36.9480   34.1600   39.1550 N   0  0  0  0  0  0  0  0  0  0  0  0
   35.9230   34.2870   39.3910 H   0  0  0  0  0  0  0  0  0  0  0  0
   37.4390   34.8350   38.5290 H   0  0  0  0  0  0  0  0  0  0  0  0
  1  3  1  0  0  0  0
  1  6  1  0  0  0  0
  2  1  1  0  0  0  0
  5  4  1  0  0  0  0
  5 12  1  0  0  0  0
  6  5  2  0  0  0  0
  7  6  1  0  0  0  0
  7  9  2  0  0  0  0
  8  7  1  0  0  0  0
  9 11  1  0  0  0  0
 10  9  1  0  0  0  0
 11 12  2  0  0  0  0
 13 18  2  0  0  0  0
 13 14  1  0  0  0  0
 14 15  2  0  0  0  0
 15 16  1  0  0  0  0
 15 20  1  0  0  0  0
 17  1  1  0  0  0  0
 17 16  2  0  0  0  0
 18 17  1  0  0  0  0
 19 13  1  0  0  0  0
 21 22  1  0  0  0  0
 21 14  1  0  0  0  0
 23 21  1  0  0  0  0
M  END
>  <minimizedAffinity>
-4.85264492

$$$$

 OpenBabel03242518183D

 23 24  0  0  0  0  0  0  0  0999 V2000
   39.5670   30.7810   42.4580 C   0  0  0  0  0  0  0  0  0  0  0  0
   40.6280   30.7210   42.8290 H   0  0  0  0  0  0  0  0  0  0  0  0
   39.0180   31.5020   43.1060 H   0  0  0  0  0  0  0  0  0  0  0  0
   40.8700   28.3740   43.2970 F   0  0  0  0  0  0  0  0  0  0  0  0
   39.5410   28.2810   43.0530 C   0  0  0  0  0  0  0  0  0  0  0  0
   38.9420   29.4670   42.6480 C   0  0  0  0  0  0  0  0  0  0  0  0
   37.5790   29.4330   42.3820 C   0  0  0  0  0  0  0  0  0  0  0  0
   37.0070   30.2860   42.0620 H   0  0  0  0  0  0  0  0  0  0  0  0
   36.8450   28.2640   42.5140 C   0  0  0  0  0  0  0  0  0  0  0  0
   35.7820   28.1950   42.3170 H   0  0  0  0  0  0  0  0  0  0  0  0
   37.4380   27.0850   42.9160 C   0  0  0  0  0  3  0  0  0  0  0  0
   38.7960   27.1300   43.1770 C   0  0  0  0  0  3  0  0  0  0  0  0
   40.3170   30.8650   38.8800 C   0  0  0  0  0  0  0  0  0  0  0  0
   39.6370   32.0240   38.4210 C   0  0  0  0  0  0  0  0  0  0  0  0
   38.9380   32.7440   39.3600 C   0  0  0  0  0  0  0  0  0  0  0  0
   38.9200   32.3440   40.6390 N   0  0  0  0  0  0  0  0  0  0  0  0
   39.5790   31.2350   41.0450 C   0  0  0  0  0  0  0  0  0  0  0  0
   40.2850   30.4830   40.1650 N   0  0  0  0  0  0  0  0  0  0  0  0
   40.8880   30.2450   38.2070 H   0  0  0  0  0  0  0  0  0  0  0  0
   38.4440   33.6060   38.9610 H   0  0  0  0  0  0  0  0  0  0  0  0
   39.7840   32.2700   37.0310 N   0  0  0  0  0  0  0  0  0  0  0  0
   39.2900   31.6440   36.3340 H   0  0  0  0  0  0  0  0  0  0  0  0
   40.3790   33.0640   36.7080 H   0  0  0  0  0  0  0  0  0  0  0  0
  1  6  1  0  0  0  0
  1  2  1  0  0  0  0
  1  3  1  0  0  0  0
  5 12  1  0  0  0  0
  5  4  1  0  0  0  0
  6  5  2  0  0  0  0
  7  9  2  0  0  0  0
  7  6  1  0  0  0  0
  8  7  1  0  0  0  0
  9 11  1  0  0  0  0
 10  9  1  0  0  0  0
 11 12  2  0  0  0  0
 13 18  1  0  0  0  0
 14 13  2  0  0  0  0
 14 15  1  0  0  0  0
 15 16  2  0  0  0  0
 16 17  1  0  0  0  0
 17  1  1  0  0  0  0
 18 17  2  0  0  0  0
 19 13  1  0  0  0  0
 20 15  1  0  0  0  0
 21 14  1  0  0  0  0
 22 21  1  0  0  0  0
 23 21  1  0  0  0  0
M  END
>  <minimizedAffinity>
-4.79846191

$$$$

 OpenBabel03242518183D

 23 24  0  0  0  0  0  0  0  0999 V2000
   36.5810   27.5460   42.8820 C   0  0  0  0  0  0  0  0  0  0  0  0
   36.5700   28.0910   43.8670 H   0  0  0  0  0  0  0  0  0  0  0  0
   35.6420   26.9500   42.8090 H   0  0  0  0  0  0  0  0  0  0  0  0
   36.6240   24.9470   41.6850 F   0  0  0  0  0  0  0  0  0  0  0  0
   37.7530   25.3270   42.3300 C   0  0  0  0  0  0  0  0  0  0  0  0
   37.6970   26.5930   42.8990 C   0  0  0  0  0  0  0  0  0  0  0  0
   38.8250   27.0370   43.5750 C   0  0  0  0  0  0  0  0  0  0  0  0
   38.9000   27.9970   44.0540 H   0  0  0  0  0  0  0  0  0  0  0  0
   39.9630   26.2500   43.6790 C   0  0  0  0  0  0  0  0  0  0  0  0
   40.8630   26.5600   44.1960 H   0  0  0  0  0  0  0  0  0  0  0  0
   40.0200   24.9930   43.1140 C   0  0  0  0  0  3  0  0  0  0  0  0
   38.8900   24.5600   42.4440 C   0  0  0  0  0  3  0  0  0  0  0  0
   36.3690   28.9990   39.5330 C   0  0  0  0  0  0  0  0  0  0  0  0
   36.8070   30.3370   39.7180 C   0  0  0  0  0  0  0  0  0  0  0  0
   37.1620   30.7010   40.9950 C   0  0  0  0  0  0  0  0  0  0  0  0
   37.0880   29.8110   41.9940 N   0  0  0  0  0  0  0  0  0  0  0  0
   36.6670   28.5420   41.7840 C   0  0  0  0  0  0  0  0  0  0  0  0
   36.3030   28.1240   40.5470 N   0  0  0  0  0  0  0  0  0  0  0  0
   36.0720   28.6340   38.5620 H   0  0  0  0  0  0  0  0  0  0  0  0
   37.4840   31.7180   41.0780 H   0  0  0  0  0  0  0  0  0  0  0  0
   36.8100   31.1150   38.5310 N   0  0  0  0  0  0  0  0  0  0  0  0
   35.8920   31.4230   38.1040 H   0  0  0  0  0  0  0  0  0  0  0  0
   37.7190   31.3750   38.0890 H   0  0  0  0  0  0  0  0  0  0  0  0
  1  6  1  0  0  0  0
  1  2  1  0  0  0  0
  3  1  1  0  0  0  0
  4  5  1  0  0  0  0
  5 12  2  0  0  0  0
  5  6  1  0  0  0  0
  6  7  2  0  0  0  0
  7  9  1  0  0  0  0
  7  8  1  0  0  0  0
  9 10  1  0  0  0  0
 11  9  2  0  0  0  0
 12 11  1  0  0  0  0
 13 14  2  0  0  0  0
 13 18  1  0  0  0  0
 14 15  1  0  0  0  0
 15 20  1  0  0  0  0
 15 16  2  0  0  0  0
 17 16  1  0  0  0  0
 17  1  1  0  0  0  0
 18 17  2  0  0  0  0
 19 13  1  0  0  0  0
 21 14  1  0  0  0  0
 22 21  1  0  0  0  0
 23 21  1  0  0  0  0
M  END
>  <minimizedAffinity>
-4.77642059

$$$$

 OpenBabel03242518183D

 23 24  0  0  0  0  0  0  0  0999 V2000
   35.3300   29.2420   40.4790 C   0  0  0  0  0  0  0  0  0  0  0  0
   34.6110   28.8520   39.7070 H   0  0  0  0  0  0  0  0  0  0  0  0
   34.7360   29.7290   41.2870 H   0  0  0  0  0  0  0  0  0  0  0  0
   36.0310   29.4380   37.7120 F   0  0  0  0  0  0  0  0  0  0  0  0
   36.5080   30.4150   38.5190 C   0  0  0  0  0  0  0  0  0  0  0  0
   36.1490   30.2880   39.8550 C   0  0  0  0  0  0  0  0  0  0  0  0
   36.6090   31.2610   40.7330 C   0  0  0  0  0  0  0  0  0  0  0  0
   36.3970   31.2690   41.7870 H   0  0  0  0  0  0  0  0  0  0  0  0
   37.3960   32.3160   40.2950 C   0  0  0  0  0  0  0  0  0  0  0  0
   37.7750   33.0950   40.9460 H   0  0  0  0  0  0  0  0  0  0  0  0
   37.7540   32.4430   38.9690 C   0  0  0  0  0  3  0  0  0  0  0  0
   37.2900   31.4680   38.1040 C   0  0  0  0  0  3  0  0  0  0  0  0
   37.2210   26.1130   40.5730 C   0  0  0  0  0  0  0  0  0  0  0  0
   37.5890   25.9840   41.9380 C   0  0  0  0  0  0  0  0  0  0  0  0
   37.1750   26.9810   42.7890 C   0  0  0  0  0  0  0  0  0  0  0  0
   36.4590   28.0110   42.3190 N   0  0  0  0  0  0  0  0  0  0  0  0
   36.1230   28.1060   41.0120 C   0  0  0  0  0  0  0  0  0  0  0  0
   36.5030   27.1540   40.1250 N   0  0  0  0  0  0  0  0  0  0  0  0
   37.5060   25.3740   39.8410 H   0  0  0  0  0  0  0  0  0  0  0  0
   37.4800   26.8340   43.8030 H   0  0  0  0  0  0  0  0  0  0  0  0
   38.3470   24.8190   42.2250 N   0  0  0  0  0  0  0  0  0  0  0  0
   39.3520   24.7530   41.8970 H   0  0  0  0  0  0  0  0  0  0  0  0
   37.9070   24.0350   42.7550 H   0  0  0  0  0  0  0  0  0  0  0  0
  1 17  1  0  0  0  0
  1  3  1  0  0  0  0
  2  1  1  0  0  0  0
  4  5  1  0  0  0  0
  5  6  1  0  0  0  0
  6  1  1  0  0  0  0
  6  7  2  0  0  0  0
  7  8  1  0  0  0  0
  9  7  1  0  0  0  0
  9 10  1  0  0  0  0
 11  9  2  0  0  0  0
 12  5  2  0  0  0  0
 12 11  1  0  0  0  0
 13 14  1  0  0  0  0
 14 21  1  0  0  0  0
 14 15  2  0  0  0  0
 15 20  1  0  0  0  0
 16 15  1  0  0  0  0
 17 16  2  0  0  0  0
 18 13  2  0  0  0  0
 18 17  1  0  0  0  0
 19 13  1  0  0  0  0
 21 23  1  0  0  0  0
 22 21  1  0  0  0  0
M  END
>  <minimizedAffinity>
-4.57332945

$$$$
