
     RDKit          3D

 34 36  0  0  0  0  0  0  0  0999 V2000
   44.4750   35.7449   45.0182 C   0  0  0  0  0  0  0  0  0  0  0  0
   45.1034   35.7128   43.7659 C   0  0  0  0  0  0  0  0  0  0  0  0
   46.0208   34.6995   43.4888 C   0  0  0  0  0  0  0  0  0  0  0  0
   46.2559   33.7805   44.4753 N   0  0  0  0  0  0  0  0  0  0  0  0
   45.6417   33.8396   45.6548 C   0  0  0  0  0  0  0  0  0  0  0  0
   44.7528   34.8059   45.9485 N   0  0  0  0  0  0  0  0  0  0  0  0
   45.9567   32.8381   46.6148 N   0  0  0  0  0  0  0  0  0  0  0  0
   45.1611   32.5700   47.8222 C   0  0  0  0  0  0  0  0  0  0  0  0
   46.2328   32.2228   48.8152 C   0  0  0  0  0  0  0  0  0  0  0  0
   47.5144   32.0389   48.0509 C   0  0  0  0  0  0  0  0  0  0  0  0
   47.0436   31.9116   46.6413 C   0  0  2  0  0  0  0  0  0  0  0  0
   44.7518   36.7475   42.8320 N   0  0  0  0  0  0  0  0  0  0  0  0
   43.7653   36.5342   45.2239 H   0  0  0  0  0  0  0  0  0  0  0  0
   46.4946   34.6933   42.5162 H   0  0  0  0  0  0  0  0  0  0  0  0
   44.7318   33.5375   48.1316 H   0  0  0  0  0  0  0  0  0  0  0  0
   44.4246   31.7671   47.6730 H   0  0  0  0  0  0  0  0  0  0  0  0
   46.3341   32.9756   49.6219 H   0  0  0  0  0  0  0  0  0  0  0  0
   45.9358   31.2714   49.2986 H   0  0  0  0  0  0  0  0  0  0  0  0
   48.0018   31.0889   48.3713 H   0  0  0  0  0  0  0  0  0  0  0  0
   48.1696   32.9206   48.2308 H   0  0  0  0  0  0  0  0  0  0  0  0
   46.6034   30.8689   46.5646 H   0  0  0  0  0  0  0  0  0  0  0  0
   44.6460   36.3512   41.8683 H   0  0  0  0  0  0  0  0  0  0  0  0
   44.6571   37.7055   43.2359 H   0  0  0  0  0  0  0  0  0  0  0  0
   47.8714   34.4361   45.7797 F   0  0  0  0  0  0  0  0  0  0  0  0
   48.4848   33.3455   45.2276 C   0  0  0  0  0  0  0  0  0  0  0  0
   48.0995   32.0675   45.6522 C   0  0  0  0  0  0  0  0  0  0  0  0
   48.7949   31.0781   45.0156 C   0  0  0  0  0  0  0  0  0  0  0  0
   48.5621   30.0480   45.2639 H   0  0  0  0  0  0  0  0  0  0  0  0
   49.7724   31.2607   44.0599 C   0  0  0  0  0  0  0  0  0  0  0  0
   50.2731   30.4187   43.6073 H   0  0  0  0  0  0  0  0  0  0  0  0
   50.0954   32.5391   43.6960 C   0  0  0  0  0  0  0  0  0  0  0  0
   49.4514   33.6015   44.2792 C   0  0  0  0  0  0  0  0  0  0  0  0
   50.8446   32.7781   42.9597 H   0  0  0  0  0  0  0  0  0  0  0  0
   49.6911   34.6206   44.0061 H   0  0  0  0  0  0  0  0  0  0  0  0
  1  6  2  0
  2  1  1  0
  3  2  2  0
  3  4  1  0
  4  5  2  0
  5  6  1  0
  5  7  1  0
  7 11  1  0
  7  8  1  0
  8  9  1  0
 10  9  1  0
 11 10  1  0
 12  2  1  0
  1 13  1  0
  3 14  1  0
  8 15  1  0
  8 16  1  0
  9 17  1  0
  9 18  1  0
 10 19  1  0
 10 20  1  0
 11 21  1  1
 12 22  1  0
 12 23  1  0
 24 25  1  0
 25 26  2  0
 26 27  1  0
 27 28  1  0
 27 29  2  0
 29 30  1  0
 29 31  1  0
 31 32  2  0
 32 25  1  0
 31 33  1  0
 32 34  1  0
 11 26  1  0
M  ISO  8  13  14  14  14  15  13  16  13  17  13  18  13  19  13  20  13
M  ISO  3  21  13  28  15  30  16
M  END
>  <DihAtoms>  (1) 
6,10,25,24

>  <DihDeg>  (1) 
-129.99784254873137

$$$$
