
 OpenBabel03252508363D

 31 33  0  0  0  0  0  0  0  0999 V2000
   45.1040   31.9270   39.2200 C   0  0  0  0  0  0  0  0  0  0  0  0
   45.0840   32.8420   38.1940 C   0  0  0  0  0  0  0  0  0  0  0  0
   43.9590   33.5880   38.0350 C   0  0  0  0  0  0  0  0  0  0  0  0
   42.8450   33.4790   38.8400 C   0  0  0  0  0  0  0  0  0  0  0  0
   42.8950   32.5460   39.8670 C   0  0  0  0  0  0  0  0  0  0  0  0
   44.0130   31.7720   40.0610 C   0  0  0  0  0  0  0  0  0  0  0  0
   43.9680   34.3130   37.2070 H   0  0  0  0  0  0  0  0  0  0  0  0
   41.9760   34.1000   38.6660 H   0  0  0  0  0  0  0  0  0  0  0  0
   42.0300   32.4350   40.5210 H   0  0  0  0  0  0  0  0  0  0  0  0
   47.5500   32.3170   35.3830 C   0  0  0  0  0  0  0  0  0  0  0  0
   46.3810   32.2090   36.1570 C   0  0  0  0  0  0  0  0  0  0  0  0
   46.2770   32.9290   37.3660 C   0  0  0  0  0  0  0  0  0  0  0  0
   47.3440   33.6850   37.6840 N   0  0  0  0  0  0  0  0  0  0  0  0
   48.4470   33.7810   36.9440 C   0  0  0  0  0  0  0  0  0  0  0  0
   48.5420   33.0920   35.7900 N   0  0  0  0  0  0  0  0  0  0  0  0
   47.6120   31.5780   34.1780 N   0  0  0  0  0  0  0  0  0  0  0  0
   45.5540   31.5860   35.8540 H   0  0  0  0  0  0  0  0  0  0  0  0
   49.3030   34.3900   37.2010 H   0  0  0  0  0  0  0  0  0  0  0  0
   47.4170   30.5800   33.9480 H   0  0  0  0  0  0  0  0  0  0  0  0
   47.8850   31.9240   33.2210 H   0  0  0  0  0  0  0  0  0  0  0  0
   43.0670   29.1450   39.7630 F   0  0  0  0  0  0  0  0  0  0  0  0
   43.5430   29.5230   40.9940 C   0  0  0  0  0  0  0  0  0  0  0  0
   44.0100   30.8100   41.1540 C   0  0  0  0  0  0  0  0  0  0  0  0
   44.4850   31.1520   42.4260 C   0  0  0  0  0  0  0  0  0  0  0  0
   44.8580   32.1550   42.5810 H   0  0  0  0  0  0  0  0  0  0  0  0
   44.4550   30.1880   43.4260 C   0  0  0  0  0  0  0  0  0  0  0  0
   44.8300   30.4720   44.4170 H   0  0  0  0  0  0  0  0  0  0  0  0
   43.9770   28.9090   43.2230 C   0  0  0  0  0  3  0  0  0  0  0  0
   43.4970   28.5420   41.9620 C   0  0  0  0  0  3  0  0  0  0  0  0
   47.1960   30.4320   39.6650 N   0  0  0  0  0  0  0  0  0  0  0  0
   46.2560   31.0950   39.4600 C   0  0  0  0  0  0  0  0  0  0  0  0
  1 31  1  0  0  0  0
  1  6  1  0  0  0  0
  2  1  2  0  0  0  0
  3  2  1  0  0  0  0
  3  4  2  0  0  0  0
  4  5  1  0  0  0  0
  5  6  2  0  0  0  0
  5  9  1  0  0  0  0
  6 23  1  0  0  0  0
  7  3  1  0  0  0  0
  8  4  1  0  0  0  0
 10 15  2  0  0  0  0
 10 11  1  0  0  0  0
 11 12  2  0  0  0  0
 12 13  1  0  0  0  0
 12  2  1  0  0  0  0
 14 18  1  0  0  0  0
 14 13  2  0  0  0  0
 15 14  1  0  0  0  0
 16 10  1  0  0  0  0
 17 11  1  0  0  0  0
 19 16  1  0  0  0  0
 20 16  1  0  0  0  0
 21 22  1  0  0  0  0
 22 23  2  0  0  0  0
 22 29  1  0  0  0  0
 23 24  1  0  0  0  0
 24 25  1  0  0  0  0
 24 26  2  0  0  0  0
 26 27  1  0  0  0  0
 28 26  1  0  0  0  0
 29 28  2  0  0  0  0
 31 30  3  0  0  0  0
M  END
>  <minimizedAffinity>
-2.61641979

>  <minimizedRMSD>
7.87113953

$$$$
