REMARK  Name = 
REMARK  3 active torsions:
REMARK  status: ('A' for Active; 'I' for Inactive)
REMARK    1  A    between atoms: C_3  and  C_7
REMARK    2  A    between atoms: C_7  and  C_8
REMARK    3  A    between atoms: C_8  and  C_18
REMARK                            x       y       z     vdW  Elec       q    Type
REMARK                         _______ _______ _______ _____ _____    ______ ____
ROOT
ATOM      1  C   UNL     1      46.776  34.762  41.723  0.00  0.00    +0.000 C 
ATOM      2  H   UNL     1      46.910  33.672  41.537  0.00  0.00    +0.000 HD
ATOM      3  H   UNL     1      46.219  35.283  40.943  0.00  0.00    +0.000 HD
ENDROOT
BRANCH   1   6
ATOM      4  C   UNL     1      44.563  36.041  44.480  0.00  0.00    +0.000 A 
ATOM      5  C   UNL     1      45.223  35.942  43.237  0.00  0.00    +0.000 A 
ATOM      6  C   UNL     1      46.081  34.874  43.023  0.00  0.00    +0.000 A 
ATOM      7  N   UNL     1      46.234  33.981  44.032  0.00  0.00    +0.000 NA
ATOM      8  C   UNL     1      45.590  34.095  45.218  0.00  0.00    +0.000 A 
ATOM      9  N   UNL     1      44.763  35.111  45.444  0.00  0.00    +0.000 NA
ATOM     10  H   UNL     1      43.925  36.918  44.520  0.00  0.00    +0.000 HD
ATOM     11  H   UNL     1      45.090  36.662  42.440  0.00  0.00    +0.000 HD
ATOM     12  H   UNL     1      45.716  33.377  46.021  0.00  0.00    +0.000 HD
ENDBRANCH   1   6
BRANCH   1  13
ATOM     13  C   UNL     1      48.188  35.318  41.884  0.00  0.00    +0.000 C 
ATOM     14  H   UNL     1      48.135  36.379  42.153  0.00  0.00    +0.000 HD
ATOM     15  H   UNL     1      48.766  34.716  42.600  0.00  0.00    +0.000 HD
BRANCH  13  18
ATOM     16  F   UNL     1      47.826  32.963  40.508  0.00  0.00    +0.000 F 
ATOM     17  C   UNL     1      48.569  33.943  39.932  0.00  0.00    +0.000 A 
ATOM     18  C   UNL     1      48.813  35.171  40.543  0.00  0.00    +0.000 A 
ATOM     19  C   UNL     1      49.588  36.078  39.843  0.00  0.00    +0.000 A 
ATOM     20  H   UNL     1      49.739  37.005  40.369  0.00  0.00    +0.000 HD
ATOM     21  C   UNL     1      50.075  35.739  38.600  0.00  0.00    +0.000 A 
ATOM     22  H   UNL     1      50.677  36.485  38.091  0.00  0.00    +0.000 HD
ATOM     23  C   UNL     1      49.834  34.525  37.994  0.00  0.00    +0.000 A 
ATOM     24  C   UNL     1      49.051  33.606  38.701  0.00  0.00    +0.000 A 
ENDBRANCH  13  18
ENDBRANCH   1  13
TORSDOF 3
