
 OpenBabel03242519313D

 48 51  0  0  0  0  0  0  0  0999 V2000
   47.9050   33.7040   42.8510 C   0  0  0  0  0  0  0  0  0  0  0  0
   48.6380   34.9090   42.6990 C   0  0  0  0  0  0  0  0  0  0  0  0
   50.0040   34.8550   42.4010 C   0  0  0  0  0  0  0  0  0  0  0  0
   50.5520   33.6050   42.2740 N   0  0  0  0  0  0  0  0  0  0  0  0
   49.7990   32.4680   42.4320 C   0  0  0  0  0  0  0  0  0  0  0  0
   48.5110   32.5390   42.7120 N   0  0  0  0  0  0  0  0  0  0  0  0
   48.2680   35.9300   42.7850 H   0  0  0  0  0  0  0  0  0  0  0  0
   50.6050   35.7440   42.2740 H   0  0  0  0  0  0  0  0  0  0  0  0
   46.4820   33.8970   43.1660 C   0  0  0  0  0  0  0  0  0  0  0  0
   45.8190   34.9270   42.4090 C   0  0  0  0  0  0  0  0  0  0  0  0
   45.3960   36.1130   43.1870 C   0  0  0  0  0  0  0  0  0  0  0  0
   44.5060   35.6960   44.3530 C   0  0  0  0  0  0  0  0  0  0  0  0
   44.9980   34.4960   45.0990 C   0  0  0  0  0  0  0  0  0  0  0  0
   46.4280   34.1510   44.7100 C   0  0  0  0  0  0  0  0  0  0  0  0
   45.9880   32.8870   43.0840 H   0  0  0  0  0  0  0  0  0  0  0  0
   44.9310   34.5260   41.8680 H   0  0  0  0  0  0  0  0  0  0  0  0
   46.4950   35.3010   41.5860 H   0  0  0  0  0  0  0  0  0  0  0  0
   44.7490   36.7430   42.5080 H   0  0  0  0  0  0  0  0  0  0  0  0
   46.1660   36.7820   43.5550 H   0  0  0  0  0  0  0  0  0  0  0  0
   44.3270   36.5210   45.0500 H   0  0  0  0  0  0  0  0  0  0  0  0
   43.5060   35.4300   43.9120 H   0  0  0  0  0  0  0  0  0  0  0  0
   45.0290   34.6620   46.1920 H   0  0  0  0  0  0  0  0  0  0  0  0
   44.3910   33.5780   44.9010 H   0  0  0  0  0  0  0  0  0  0  0  0
   47.0690   35.0490   44.8340 H   0  0  0  0  0  0  0  0  0  0  0  0
   46.7680   33.2640   45.2490 H   0  0  0  0  0  0  0  0  0  0  0  0
   50.5580   31.2350   42.2610 C   0  0  0  0  0  0  0  0  0  0  0  0
   50.5080   30.5920   41.0860 N   0  0  0  0  0  0  0  0  0  0  0  0
   51.2860   29.4780   41.1520 C   0  0  0  0  0  0  0  0  0  0  0  0
   51.8140   29.4520   42.3920 N   0  0  0  0  0  0  0  0  0  0  0  0
   51.3770   30.5190   43.0770 N   0  0  0  0  0  0  0  0  0  0  0  0
   51.4840   28.7290   40.4080 H   0  0  0  0  0  0  0  0  0  0  0  0
   52.7290   28.4770   42.9320 C   0  0  0  0  0  0  0  0  0  0  0  0
   53.0060   27.6910   42.2470 H   0  0  0  0  0  0  0  0  0  0  0  0
   52.2350   27.9760   43.7990 H   0  0  0  0  0  0  0  0  0  0  0  0
   53.9120   29.1570   43.4590 C   0  0  0  0  0  0  0  0  0  0  0  0
   54.5520   29.1290   44.6190 C   0  0  0  0  0  0  0  0  0  0  0  0
   55.8580   29.8710   44.9640 C   0  0  0  0  0  0  0  0  0  0  0  0
   56.0940   29.7090   46.0200 H   0  0  0  0  0  0  0  0  0  0  0  0
   55.6380   30.9210   44.6850 H   0  0  0  0  0  0  0  0  0  0  0  0
   57.1820   31.5990   43.3020 F   0  0  0  0  0  0  0  0  0  0  0  0
   57.5740   30.2820   43.2540 C   0  0  0  0  0  0  0  0  0  0  0  0
   56.9240   29.3640   44.0850 C   0  0  0  0  0  0  0  0  0  0  0  0
   57.3830   28.0490   43.9750 C   0  0  0  0  0  0  0  0  0  0  0  0
   56.8760   27.3460   44.6210 H   0  0  0  0  0  0  0  0  0  0  0  0
   58.4000   27.7440   43.0970 C   0  0  0  0  0  0  0  0  0  0  0  0
   58.7320   26.6960   43.0410 H   0  0  0  0  0  0  0  0  0  0  0  0
   59.0220   28.6680   42.2900 C   0  0  0  0  0  0  0  0  0  0  0  0
   58.5850   29.9850   42.3800 C   0  0  0  0  0  0  0  0  0  0  0  0
  1  9  1  0  0  0  0
  2  7  1  0  0  0  0
  2  1  2  0  0  0  0
  3  2  1  0  0  0  0
  4  3  2  0  0  0  0
  4  5  1  0  0  0  0
  5  6  2  0  0  0  0
  6  1  1  0  0  0  0
  8  3  1  0  0  0  0
  9 14  1  0  0  0  0
 10  9  1  0  0  0  0
 10 11  1  0  0  0  0
 11 19  1  0  0  0  0
 11 12  1  0  0  0  0
 12 20  1  0  0  0  0
 12 13  1  0  0  0  0
 13 22  1  0  0  0  0
 14 24  1  0  0  0  0
 14 13  1  0  0  0  0
 14 25  1  0  0  0  0
 15  9  1  0  0  0  0
 16 10  1  0  0  0  0
 17 10  1  0  0  0  0
 18 11  1  0  0  0  0
 21 12  1  0  0  0  0
 23 13  1  0  0  0  0
 26  5  1  0  0  0  0
 26 30  2  0  0  0  0
 27 28  2  0  0  0  0
 27 26  1  0  0  0  0
 28 29  1  0  0  0  0
 29 32  1  0  0  0  0
 29 30  1  0  0  0  0
 31 28  1  0  0  0  0
 32 35  1  0  0  0  0
 32 34  1  0  0  0  0
 33 32  1  0  0  0  0
 35 36  2  0  0  0  0
 36 37  1  0  0  0  0
 37 38  1  0  0  0  0
 39 37  1  0  0  0  0
 41 40  1  0  0  0  0
 41 42  1  0  0  0  0
 42 37  1  0  0  0  0
 43 42  2  0  0  0  0
 43 44  1  0  0  0  0
 45 43  1  0  0  0  0
 46 45  1  0  0  0  0
 47 48  1  0  0  0  0
 47 45  2  0  0  0  0
 48 41  2  0  0  0  0
M  END
>  <minimizedAffinity>
-4.20393705

>  <minimizedRMSD>
0.828954577

$$$$
