
 OpenBabel03252506593D

 24 25  0  0  0  0  0  0  0  0999 V2000
   45.6910   33.0350   44.9210 C   0  0  0  0  0  0  0  0  0  0  0  0
   44.6420   33.3680   44.9750 H   0  0  0  0  0  0  0  0  0  0  0  0
   45.7490   31.9420   44.6350 H   0  0  0  0  0  0  0  0  0  0  0  0
   46.4740   33.7610   43.9300 C   0  0  0  0  0  0  0  0  0  0  0  0
   47.7890   33.4350   43.6290 C   0  0  0  0  0  0  0  0  0  0  0  0
   48.4570   34.1920   42.6380 C   0  0  0  0  0  0  0  0  0  0  0  0
   47.7640   35.2010   42.0360 N   0  0  0  0  0  0  0  0  0  0  0  0
   46.4940   35.4740   42.3640 C   0  0  0  0  0  0  0  0  0  0  0  0
   45.8470   34.7760   43.2920 N   0  0  0  0  0  0  0  0  0  0  0  0
   48.2850   32.6240   44.1400 H   0  0  0  0  0  0  0  0  0  0  0  0
   49.4770   33.9280   42.4160 H   0  0  0  0  0  0  0  0  0  0  0  0
   46.0170   36.2960   41.8340 H   0  0  0  0  0  0  0  0  0  0  0  0
   46.3500   33.2050   46.2660 C   0  0  0  0  0  0  0  0  0  0  0  0
   47.2350   33.8540   46.2210 H   0  0  0  0  0  0  0  0  0  0  0  0
   45.6610   33.6720   46.9980 H   0  0  0  0  0  0  0  0  0  0  0  0
   48.0780   32.9310   48.3760 F   0  0  0  0  0  0  0  0  0  0  0  0
   47.5780   31.8140   47.8030 C   0  0  0  0  0  0  0  0  0  0  0  0
   46.7030   31.8210   46.7390 C   0  0  0  0  0  0  0  0  0  0  0  0
   46.2060   30.6640   46.1700 C   0  0  0  0  0  0  0  0  0  0  0  0
   45.5230   30.7560   45.3350 H   0  0  0  0  0  0  0  0  0  0  0  0
   46.6250   29.4680   46.7160 C   0  0  0  0  0  0  0  0  0  0  0  0
   46.2440   28.5340   46.2800 H   0  0  0  0  0  0  0  0  0  0  0  0
   47.4980   29.4260   47.7790 C   0  0  0  0  0  3  0  0  0  0  0  0
   47.9920   30.5960   48.3430 C   0  0  0  0  0  3  0  0  0  0  0  0
  1  2  1  0  0  0  0
  1 13  1  0  0  0  0
  3  1  1  0  0  0  0
  4  1  1  0  0  0  0
  5  4  1  0  0  0  0
  5 10  1  0  0  0  0
  6  5  2  0  0  0  0
  7  8  2  0  0  0  0
  7  6  1  0  0  0  0
  8  9  1  0  0  0  0
  9  4  2  0  0  0  0
 11  6  1  0  0  0  0
 12  8  1  0  0  0  0
 13 18  1  0  0  0  0
 13 15  1  0  0  0  0
 14 13  1  0  0  0  0
 17 24  1  0  0  0  0
 17 16  1  0  0  0  0
 18 17  2  0  0  0  0
 19 21  2  0  0  0  0
 19 18  1  0  0  0  0
 20 19  1  0  0  0  0
 21 23  1  0  0  0  0
 22 21  1  0  0  0  0
 23 24  2  0  0  0  0
M  END
>  <minimizedAffinity>
-3.79195857

>  <minimizedRMSD>
5.79033756

$$$$
