
     RDKit          3D

 34 36  0  0  0  0  0  0  0  0999 V2000
   44.4750   35.7449   45.0182 C   0  0  0  0  0  0  0  0  0  0  0  0
   45.1034   35.7128   43.7659 C   0  0  0  0  0  0  0  0  0  0  0  0
   46.0208   34.6995   43.4888 C   0  0  0  0  0  0  0  0  0  0  0  0
   46.2559   33.7805   44.4753 N   0  0  0  0  0  0  0  0  0  0  0  0
   45.6417   33.8396   45.6548 C   0  0  0  0  0  0  0  0  0  0  0  0
   44.7528   34.8059   45.9485 N   0  0  0  0  0  0  0  0  0  0  0  0
   45.9567   32.8381   46.6148 N   0  0  0  0  0  0  0  0  0  0  0  0
   45.1611   32.5700   47.8222 C   0  0  0  0  0  0  0  0  0  0  0  0
   46.2328   32.2228   48.8152 C   0  0  0  0  0  0  0  0  0  0  0  0
   47.5144   32.0389   48.0509 C   0  0  0  0  0  0  0  0  0  0  0  0
   47.0436   31.9116   46.6413 C   0  0  2  0  0  0  0  0  0  0  0  0
   44.7518   36.7475   42.8320 N   0  0  0  0  0  0  0  0  0  0  0  0
   43.7653   36.5342   45.2239 H   0  0  0  0  0  0  0  0  0  0  0  0
   46.4946   34.6933   42.5162 H   0  0  0  0  0  0  0  0  0  0  0  0
   44.7318   33.5375   48.1316 H   0  0  0  0  0  0  0  0  0  0  0  0
   44.4246   31.7671   47.6730 H   0  0  0  0  0  0  0  0  0  0  0  0
   46.3341   32.9756   49.6219 H   0  0  0  0  0  0  0  0  0  0  0  0
   45.9358   31.2714   49.2986 H   0  0  0  0  0  0  0  0  0  0  0  0
   48.0018   31.0889   48.3713 H   0  0  0  0  0  0  0  0  0  0  0  0
   48.1696   32.9206   48.2308 H   0  0  0  0  0  0  0  0  0  0  0  0
   46.6034   30.8689   46.5646 H   0  0  0  0  0  0  0  0  0  0  0  0
   44.6460   36.3512   41.8683 H   0  0  0  0  0  0  0  0  0  0  0  0
   44.6571   37.7055   43.2359 H   0  0  0  0  0  0  0  0  0  0  0  0
   47.9019   29.7638   45.0758 F   0  0  0  0  0  0  0  0  0  0  0  0
   48.5201   30.9696   44.8909 C   0  0  0  0  0  0  0  0  0  0  0  0
   48.0995   32.0675   45.6522 C   0  0  0  0  0  0  0  0  0  0  0  0
   48.8054   33.2010   45.3614 C   0  0  0  0  0  0  0  0  0  0  0  0
   48.5654   34.1073   45.9072 H   0  0  0  0  0  0  0  0  0  0  0  0
   49.8219   33.3075   44.4354 C   0  0  0  0  0  0  0  0  0  0  0  0
   50.3274   34.2462   44.2685 H   0  0  0  0  0  0  0  0  0  0  0  0
   50.1776   32.1914   43.7290 C   0  0  0  0  0  0  0  0  0  0  0  0
   49.5270   31.0035   43.9504 C   0  0  0  0  0  0  0  0  0  0  0  0
   50.9583   32.1794   42.9867 H   0  0  0  0  0  0  0  0  0  0  0  0
   49.7924   30.1088   43.4030 H   0  0  0  0  0  0  0  0  0  0  0  0
  1  6  2  0
  2  1  1  0
  3  2  2  0
  3  4  1  0
  4  5  2  0
  5  6  1  0
  5  7  1  0
  7 11  1  0
  7  8  1  0
  8  9  1  0
 10  9  1  0
 11 10  1  0
 12  2  1  0
  1 13  1  0
  3 14  1  0
  8 15  1  0
  8 16  1  0
  9 17  1  0
  9 18  1  0
 10 19  1  0
 10 20  1  0
 11 21  1  1
 12 22  1  0
 12 23  1  0
 24 25  1  0
 25 26  2  0
 26 27  1  0
 27 28  1  0
 27 29  2  0
 29 30  1  0
 29 31  1  0
 31 32  2  0
 32 25  1  0
 31 33  1  0
 32 34  1  0
 11 26  1  0
M  ISO  8  13  14  14  14  15  13  16  13  17  13  18  13  19  13  20  13
M  ISO  3  21  13  28  15  30  16
M  END
>  <DihAtoms>  (1) 
6,10,25,24

>  <DihDeg>  (1) 
-129.99784254873137

$$$$
