
 OpenBabel03252509233D

 27 29  0  0  1  0  0  0  0  0999 V2000
   46.4090   34.9160   42.0220 C   0  0  1  0  0  0  0  0  0  0  0  0
   47.9050   35.3030   41.9060 C   0  0  0  0  0  0  0  0  0  0  0  0
   47.2590   33.9920   41.3620 C   0  0  2  0  0  0  0  0  0  0  0  0
   45.7320   35.6250   41.5260 H   0  0  0  0  0  0  0  0  0  0  0  0
   48.5610   35.1730   42.7620 H   0  0  0  0  0  0  0  0  0  0  0  0
   48.0960   36.0840   41.1680 H   0  0  0  0  0  0  0  0  0  0  0  0
   47.6030   33.0580   41.8760 H   0  0  0  0  0  0  0  0  0  0  0  0
   45.2530   32.6330   39.7750 F   0  0  0  0  0  0  0  0  0  0  0  0
   46.2640   33.2080   39.1030 C   0  0  0  0  0  0  0  0  0  0  0  0
   47.1910   33.8380   39.9060 C   0  0  0  0  0  0  0  0  0  0  0  0
   48.2510   34.4380   39.2140 C   0  0  0  0  0  0  0  0  0  0  0  0
   49.0510   34.9670   39.7110 H   0  0  0  0  0  0  0  0  0  0  0  0
   48.3840   34.4180   37.8420 C   0  0  0  0  0  0  0  0  0  0  0  0
   49.1870   34.8730   37.3150 H   0  0  0  0  0  0  0  0  0  0  0  0
   47.4300   33.7760   37.0850 C   0  0  0  0  0  3  0  0  0  0  0  0
   46.3770   33.1770   37.7440 C   0  0  0  0  0  3  0  0  0  0  0  0
   44.7470   35.1240   45.3870 C   0  0  0  0  0  0  0  0  0  0  0  0
   45.0880   35.4670   44.0320 C   0  0  0  0  0  0  0  0  0  0  0  0
   46.0490   34.6620   43.4800 C   0  0  0  0  0  0  0  0  0  0  0  0
   46.6410   33.6100   44.1700 N   0  0  0  0  0  0  0  0  0  0  0  0
   46.2770   33.3460   45.4290 C   0  0  0  0  0  0  0  0  0  0  0  0
   45.3270   34.1060   46.0400 N   0  0  0  0  0  0  0  0  0  0  0  0
   44.0010   35.7180   45.8690 H   0  0  0  0  0  0  0  0  0  0  0  0
   46.8320   32.5040   45.8090 H   0  0  0  0  0  0  0  0  0  0  0  0
   44.4920   36.5600   43.3460 N   0  0  0  0  0  0  0  0  0  0  0  0
   43.9070   36.3550   42.5010 H   0  0  0  0  0  0  0  0  0  0  0  0
   44.6810   37.5120   43.7390 H   0  0  0  0  0  0  0  0  0  0  0  0
  1  4  1  6  0  0  0
  1 19  1  0  0  0  0
  2  1  1  0  0  0  0
  2  5  1  0  0  0  0
  3  7  1  1  0  0  0
  3  2  1  0  0  0  0
  3  1  1  0  0  0  0
  6  2  1  0  0  0  0
  9  8  1  0  0  0  0
  9 10  1  0  0  0  0
 10  3  1  0  0  0  0
 11 12  1  0  0  0  0
 11 10  2  0  0  0  0
 13 11  1  0  0  0  0
 14 13  1  0  0  0  0
 15 16  1  0  0  0  0
 15 13  2  0  0  0  0
 16  9  2  0  0  0  0
 17 23  1  0  0  0  0
 17 22  1  0  0  0  0
 18 17  2  0  0  0  0
 19 18  1  0  0  0  0
 19 20  2  0  0  0  0
 20 21  1  0  0  0  0
 21 24  1  0  0  0  0
 21 22  2  0  0  0  0
 25 27  1  0  0  0  0
 25 18  1  0  0  0  0
 26 25  1  0  0  0  0
M  END
>  <minimizedAffinity>
-5.5034318

>  <minimizedRMSD>
0.523371518

$$$$
