
 OpenBabel03252504143D

 35 37  0  0  0  0  0  0  0  0999 V2000
   47.6910   30.0860   44.9040 F   0  0  0  0  0  0  0  0  0  0  0  0
   47.5340   30.8530   46.0400 C   0  0  0  0  0  0  0  0  0  0  0  0
   46.9300   32.0830   45.9510 C   0  0  0  0  0  0  0  0  0  0  0  0
   46.8070   32.8010   47.1460 C   0  0  0  0  0  0  0  0  0  0  0  0
   47.2740   32.2780   48.3320 C   0  0  0  0  0  0  0  0  0  0  0  0
   47.8740   31.0300   48.3570 C   0  0  0  0  0  0  0  0  0  0  0  0
   48.0170   30.2890   47.2040 C   0  0  0  0  0  0  0  0  0  0  0  0
   46.3380   33.7820   47.1400 H   0  0  0  0  0  0  0  0  0  0  0  0
   47.1780   32.8340   49.2540 H   0  0  0  0  0  0  0  0  0  0  0  0
   48.2410   30.6240   49.2920 H   0  0  0  0  0  0  0  0  0  0  0  0
   46.4170   28.1200   47.6240 F   0  0  0  0  0  0  0  0  0  0  0  0
   47.7440   27.9410   47.4180 C   0  0  0  0  0  0  0  0  0  0  0  0
   48.6510   28.9560   47.1950 C   0  0  0  0  0  0  0  0  0  0  0  0
   49.9960   28.7280   46.9880 C   0  0  0  0  0  0  0  0  0  0  0  0
   50.6250   29.5940   46.8220 H   0  0  0  0  0  0  0  0  0  0  0  0
   50.4700   27.4150   47.0050 C   0  0  0  0  0  0  0  0  0  0  0  0
   51.5250   27.2420   46.8440 H   0  0  0  0  0  0  0  0  0  0  0  0
   49.5890   26.3550   47.2270 C   0  0  0  0  0  0  0  0  0  0  0  0
   48.2350   26.6350   47.4310 C   0  0  0  0  0  0  0  0  0  0  0  0
   46.7590   34.1290   42.9400 C   0  0  0  0  0  0  0  0  0  0  0  0
   45.6260   33.6900   42.2870 C   0  0  0  0  0  0  0  0  0  0  0  0
   44.8910   32.6470   42.9100 C   0  0  0  0  0  0  0  0  0  0  0  0
   45.3270   32.1430   44.0890 N   0  0  0  0  0  0  0  0  0  0  0  0
   46.4420   32.6140   44.6770 C   0  0  0  0  0  0  0  0  0  0  0  0
   47.1600   33.6100   44.1010 N   0  0  0  0  0  0  0  0  0  0  0  0
   44.0070   32.2950   42.4110 H   0  0  0  0  0  0  0  0  0  0  0  0
   45.2120   34.2870   41.0050 C   0  0  0  0  0  0  0  0  0  0  0  0
   44.8850   35.6200   41.1930 F   0  0  0  0  0  0  0  0  0  0  0  0
   46.3270   34.2690   40.1570 F   0  0  0  0  0  0  0  0  0  0  0  0
   44.1780   33.6720   40.3790 F   0  0  0  0  0  0  0  0  0  0  0  0
   47.4670   35.1350   42.3400 O   0  0  0  0  0  0  0  0  0  0  0  0
   48.7810   35.0730   41.8520 C   0  0  0  0  0  0  0  0  0  0  0  0
   49.6270   35.3830   42.9180 F   0  0  0  0  0  0  0  0  0  0  0  0
   49.0260   33.8220   41.3200 F   0  0  0  0  0  0  0  0  0  0  0  0
   48.9920   36.0840   40.9420 F   0  0  0  0  0  0  0  0  0  0  0  0
  1  2  1  0  0  0  0
  2  7  1  0  0  0  0
  3  2  2  0  0  0  0
  3  4  1  0  0  0  0
  4  5  2  0  0  0  0
  5  6  1  0  0  0  0
  5  9  1  0  0  0  0
  6 10  1  0  0  0  0
  7  6  2  0  0  0  0
  8  4  1  0  0  0  0
 12 19  1  0  0  0  0
 12 11  1  0  0  0  0
 13  7  1  0  0  0  0
 13 12  2  0  0  0  0
 14 16  2  0  0  0  0
 14 13  1  0  0  0  0
 15 14  1  0  0  0  0
 16 18  1  0  0  0  0
 17 16  1  0  0  0  0
 18 19  2  0  0  0  0
 20 25  1  0  0  0  0
 21 22  1  0  0  0  0
 21 20  2  0  0  0  0
 22 23  2  0  0  0  0
 23 24  1  0  0  0  0
 24  3  1  0  0  0  0
 25 24  2  0  0  0  0
 26 22  1  0  0  0  0
 27 28  1  0  0  0  0
 27 21  1  0  0  0  0
 29 27  1  0  0  0  0
 30 27  1  0  0  0  0
 31 20  1  0  0  0  0
 32 31  1  0  0  0  0
 32 33  1  0  0  0  0
 34 32  1  0  0  0  0
 35 32  1  0  0  0  0
M  END
>  <minimizedAffinity>
-5.77191496

>  <minimizedRMSD>
0.837934256

$$$$
