
 OpenBabel03252509233D

 27 29  0  0  1  0  0  0  0  0999 V2000
   46.9070   34.7890   41.9790 C   0  0  1  0  0  0  0  0  0  0  0  0
   48.2810   35.4980   42.0790 C   0  0  0  0  0  0  0  0  0  0  0  0
   48.0570   33.9880   41.7570 C   0  0  2  0  0  0  0  0  0  0  0  0
   46.2570   35.2000   41.1960 H   0  0  0  0  0  0  0  0  0  0  0  0
   48.7100   35.7020   43.0560 H   0  0  0  0  0  0  0  0  0  0  0  0
   48.5020   36.1410   41.2250 H   0  0  0  0  0  0  0  0  0  0  0  0
   48.4300   33.2860   42.5460 H   0  0  0  0  0  0  0  0  0  0  0  0
   49.5110   31.6200   40.9430 F   0  0  0  0  0  0  0  0  0  0  0  0
   49.0750   32.4260   39.9600 C   0  0  0  0  0  0  0  0  0  0  0  0
   48.3920   33.5400   40.4030 C   0  0  0  0  0  0  0  0  0  0  0  0
   47.9370   34.3870   39.3860 C   0  0  0  0  0  0  0  0  0  0  0  0
   47.3880   35.2970   39.5820 H   0  0  0  0  0  0  0  0  0  0  0  0
   48.1390   34.1530   38.0420 C   0  0  0  0  0  0  0  0  0  0  0  0
   47.7940   34.7960   37.2690 H   0  0  0  0  0  0  0  0  0  0  0  0
   48.8270   33.0280   37.6510 C   0  0  0  0  0  3  0  0  0  0  0  0
   49.2850   32.1780   38.6360 C   0  0  0  0  0  3  0  0  0  0  0  0
   44.6070   35.5000   44.8650 C   0  0  0  0  0  0  0  0  0  0  0  0
   45.2350   35.6460   43.5800 C   0  0  0  0  0  0  0  0  0  0  0  0
   46.2430   34.7460   43.3500 C   0  0  0  0  0  0  0  0  0  0  0  0
   46.6210   33.7820   44.2760 N   0  0  0  0  0  0  0  0  0  0  0  0
   45.9940   33.7030   45.4540 C   0  0  0  0  0  0  0  0  0  0  0  0
   44.9820   34.5650   45.7490 N   0  0  0  0  0  0  0  0  0  0  0  0
   43.8120   36.1750   45.1000 H   0  0  0  0  0  0  0  0  0  0  0  0
   46.4110   32.9050   46.0460 H   0  0  0  0  0  0  0  0  0  0  0  0
   44.8550   36.6510   42.6500 N   0  0  0  0  0  0  0  0  0  0  0  0
   44.4450   36.3490   41.7350 H   0  0  0  0  0  0  0  0  0  0  0  0
   45.0120   37.6420   42.9490 H   0  0  0  0  0  0  0  0  0  0  0  0
  1  4  1  6  0  0  0
  1  2  1  0  0  0  0
  1 19  1  0  0  0  0
  2  5  1  0  0  0  0
  3  1  1  0  0  0  0
  3  2  1  0  0  0  0
  3  7  1  1  0  0  0
  6  2  1  0  0  0  0
  9 10  1  0  0  0  0
  9  8  1  0  0  0  0
 10  3  1  0  0  0  0
 11 12  1  0  0  0  0
 11 10  2  0  0  0  0
 13 11  1  0  0  0  0
 14 13  1  0  0  0  0
 15 13  2  0  0  0  0
 15 16  1  0  0  0  0
 16  9  2  0  0  0  0
 17 23  1  0  0  0  0
 17 22  1  0  0  0  0
 18 17  2  0  0  0  0
 19 18  1  0  0  0  0
 19 20  2  0  0  0  0
 20 21  1  0  0  0  0
 21 22  2  0  0  0  0
 21 24  1  0  0  0  0
 25 27  1  0  0  0  0
 25 18  1  0  0  0  0
 26 25  1  0  0  0  0
M  END
>  <minimizedAffinity>
-5.20879793

>  <minimizedRMSD>
0.989979804

$$$$
