
 OpenBabel03252509233D

 27 29  0  0  1  0  0  0  0  0999 V2000
   46.2770   34.7180   41.9230 C   0  0  1  0  0  0  0  0  0  0  0  0
   47.7860   35.0500   41.8180 C   0  0  0  0  0  0  0  0  0  0  0  0
   47.1260   33.6880   41.4430 C   0  0  2  0  0  0  0  0  0  0  0  0
   45.6410   35.3610   41.2990 H   0  0  0  0  0  0  0  0  0  0  0  0
   48.4030   35.0320   42.7120 H   0  0  0  0  0  0  0  0  0  0  0  0
   48.0290   35.7090   40.9830 H   0  0  0  0  0  0  0  0  0  0  0  0
   47.4220   32.8320   42.1020 H   0  0  0  0  0  0  0  0  0  0  0  0
   49.3390   32.8750   39.7610 F   0  0  0  0  0  0  0  0  0  0  0  0
   48.1300   32.9270   39.1790 C   0  0  0  0  0  0  0  0  0  0  0  0
   47.1120   33.3230   40.0230 C   0  0  0  0  0  0  0  0  0  0  0  0
   45.8480   33.3840   39.4250 C   0  0  0  0  0  0  0  0  0  0  0  0
   44.9580   33.6770   39.9620 H   0  0  0  0  0  0  0  0  0  0  0  0
   45.6070   33.0770   38.1020 C   0  0  0  0  0  0  0  0  0  0  0  0
   44.6480   33.1220   37.6470 H   0  0  0  0  0  0  0  0  0  0  0  0
   46.6560   32.6870   37.3010 C   0  0  0  0  0  3  0  0  0  0  0  0
   47.9120   32.6200   37.8680 C   0  0  0  0  0  3  0  0  0  0  0  0
   44.5990   35.5580   45.1790 C   0  0  0  0  0  0  0  0  0  0  0  0
   45.0170   35.6900   43.8100 C   0  0  0  0  0  0  0  0  0  0  0  0
   45.8510   34.6890   43.3850 C   0  0  0  0  0  0  0  0  0  0  0  0
   46.2550   33.6420   44.2060 N   0  0  0  0  0  0  0  0  0  0  0  0
   45.8280   33.5820   45.4720 C   0  0  0  0  0  0  0  0  0  0  0  0
   44.9970   34.5430   45.9600 N   0  0  0  0  0  0  0  0  0  0  0  0
   43.9460   36.3110   45.5650 H   0  0  0  0  0  0  0  0  0  0  0  0
   46.2340   32.7130   45.9620 H   0  0  0  0  0  0  0  0  0  0  0  0
   44.6160   36.7770   42.9870 N   0  0  0  0  0  0  0  0  0  0  0  0
   44.0240   36.5710   42.1470 H   0  0  0  0  0  0  0  0  0  0  0  0
   44.9450   37.7270   43.2810 H   0  0  0  0  0  0  0  0  0  0  0  0
  1  4  1  6  0  0  0
  1 19  1  0  0  0  0
  2  1  1  0  0  0  0
  2  5  1  0  0  0  0
  3  2  1  0  0  0  0
  3  1  1  0  0  0  0
  3  7  1  1  0  0  0
  6  2  1  0  0  0  0
  9  8  1  0  0  0  0
  9 10  1  0  0  0  0
 10  3  1  0  0  0  0
 11 12  1  0  0  0  0
 11 10  2  0  0  0  0
 13 11  1  0  0  0  0
 14 13  1  0  0  0  0
 15 16  1  0  0  0  0
 15 13  2  0  0  0  0
 16  9  2  0  0  0  0
 17 23  1  0  0  0  0
 17 22  1  0  0  0  0
 18 17  2  0  0  0  0
 19 18  1  0  0  0  0
 19 20  2  0  0  0  0
 20 21  1  0  0  0  0
 21 22  2  0  0  0  0
 21 24  1  0  0  0  0
 25 27  1  0  0  0  0
 25 18  1  0  0  0  0
 26 25  1  0  0  0  0
M  END
>  <minimizedAffinity>
-4.81271648

>  <minimizedRMSD>
0.516948402

$$$$
