
 OpenBabel03252509243D

 27 29  0  0  1  0  0  0  0  0999 V2000
   46.6100   34.7410   42.0320 C   0  0  1  0  0  0  0  0  0  0  0  0
   48.0530   35.3050   42.0600 C   0  0  0  0  0  0  0  0  0  0  0  0
   47.6580   33.8300   41.7440 C   0  0  2  0  0  0  0  0  0  0  0  0
   45.9640   35.2240   41.2870 H   0  0  0  0  0  0  0  0  0  0  0  0
   48.5520   35.4550   43.0130 H   0  0  0  0  0  0  0  0  0  0  0  0
   48.2910   35.9310   41.1980 H   0  0  0  0  0  0  0  0  0  0  0  0
   48.0000   33.0850   42.5080 H   0  0  0  0  0  0  0  0  0  0  0  0
   49.9880   32.5320   40.6160 F   0  0  0  0  0  0  0  0  0  0  0  0
   48.9540   32.7390   39.7850 C   0  0  0  0  0  0  0  0  0  0  0  0
   47.8730   33.3630   40.3720 C   0  0  0  0  0  0  0  0  0  0  0  0
   46.7900   33.5870   39.5120 C   0  0  0  0  0  0  0  0  0  0  0  0
   45.8770   34.0650   39.8300 H   0  0  0  0  0  0  0  0  0  0  0  0
   46.7770   33.2240   38.1810 C   0  0  0  0  0  0  0  0  0  0  0  0
   45.9580   33.3920   37.5280 H   0  0  0  0  0  0  0  0  0  0  0  0
   47.8810   32.6030   37.6420 C   0  0  0  0  0  3  0  0  0  0  0  0
   48.9600   32.3720   38.4710 C   0  0  0  0  0  3  0  0  0  0  0  0
   44.5230   35.6250   45.0310 C   0  0  0  0  0  0  0  0  0  0  0  0
   45.0900   35.7190   43.7120 C   0  0  0  0  0  0  0  0  0  0  0  0
   46.0200   34.7520   43.4370 C   0  0  0  0  0  0  0  0  0  0  0  0
   46.3830   33.7700   44.3510 N   0  0  0  0  0  0  0  0  0  0  0  0
   45.8160   33.7410   45.5620 C   0  0  0  0  0  0  0  0  0  0  0  0
   44.8830   34.6720   45.9030 N   0  0  0  0  0  0  0  0  0  0  0  0
   43.7900   36.3540   45.3010 H   0  0  0  0  0  0  0  0  0  0  0  0
   46.2100   32.9210   46.1390 H   0  0  0  0  0  0  0  0  0  0  0  0
   44.7280   36.7420   42.7940 N   0  0  0  0  0  0  0  0  0  0  0  0
   44.2490   36.4630   41.9050 H   0  0  0  0  0  0  0  0  0  0  0  0
   44.9680   37.7220   43.0740 H   0  0  0  0  0  0  0  0  0  0  0  0
  1  4  1  6  0  0  0
  1  2  1  0  0  0  0
  1 19  1  0  0  0  0
  2  5  1  0  0  0  0
  3  1  1  0  0  0  0
  3  2  1  0  0  0  0
  3  7  1  1  0  0  0
  6  2  1  0  0  0  0
  9 10  1  0  0  0  0
  9  8  1  0  0  0  0
 10  3  1  0  0  0  0
 11 12  1  0  0  0  0
 11 10  2  0  0  0  0
 13 11  1  0  0  0  0
 14 13  1  0  0  0  0
 15 13  2  0  0  0  0
 15 16  1  0  0  0  0
 16  9  2  0  0  0  0
 17 23  1  0  0  0  0
 17 22  1  0  0  0  0
 18 17  2  0  0  0  0
 19 18  1  0  0  0  0
 19 20  2  0  0  0  0
 20 21  1  0  0  0  0
 21 22  2  0  0  0  0
 21 24  1  0  0  0  0
 25 27  1  0  0  0  0
 25 18  1  0  0  0  0
 26 25  1  0  0  0  0
M  END
>  <minimizedAffinity>
-4.96137094

>  <minimizedRMSD>
0.846534491

$$$$
