
 OpenBabel03252509253D

 27 29  0  0  1  0  0  0  0  0999 V2000
   38.7060   29.1960   42.5990 C   0  0  1  0  0  0  0  0  0  0  0  0
   37.4800   28.8590   43.4840 C   0  0  0  0  0  0  0  0  0  0  0  0
   37.9500   28.0530   42.2340 C   0  0  2  0  0  0  0  0  0  0  0  0
   39.6590   29.1820   43.1450 H   0  0  0  0  0  0  0  0  0  0  0  0
   36.5550   29.4140   43.3540 H   0  0  0  0  0  0  0  0  0  0  0  0
   37.7470   28.4360   44.4540 H   0  0  0  0  0  0  0  0  0  0  0  0
   37.2390   28.0850   41.3690 H   0  0  0  0  0  0  0  0  0  0  0  0
   36.7650   25.4920   41.5830 F   0  0  0  0  0  0  0  0  0  0  0  0
   37.9690   25.4630   42.1800 C   0  0  0  0  0  0  0  0  0  0  0  0
   38.4840   26.7090   42.4710 C   0  0  0  0  0  0  0  0  0  0  0  0
   39.7370   26.6910   43.0960 C   0  0  0  0  0  0  0  0  0  0  0  0
   40.2630   27.5890   43.3830 H   0  0  0  0  0  0  0  0  0  0  0  0
   40.4240   25.5360   43.4090 C   0  0  0  0  0  0  0  0  0  0  0  0
   41.3750   25.5200   43.8830 H   0  0  0  0  0  0  0  0  0  0  0  0
   39.8660   24.3170   43.0970 C   0  0  0  0  0  3  0  0  0  0  0  0
   38.6320   24.3110   42.4800 C   0  0  0  0  0  3  0  0  0  0  0  0
   39.1920   32.6140   41.1130 C   0  0  0  0  0  0  0  0  0  0  0  0
   39.4570   31.4410   41.9010 C   0  0  0  0  0  0  0  0  0  0  0  0
   38.4630   30.5000   41.8490 C   0  0  0  0  0  0  0  0  0  0  0  0
   37.3030   30.6670   41.1010 N   0  0  0  0  0  0  0  0  0  0  0  0
   37.1200   31.7840   40.3900 C   0  0  0  0  0  0  0  0  0  0  0  0
   38.0680   32.7610   40.3960 N   0  0  0  0  0  0  0  0  0  0  0  0
   39.9340   33.3830   41.1140 H   0  0  0  0  0  0  0  0  0  0  0  0
   36.1750   31.7480   39.8750 H   0  0  0  0  0  0  0  0  0  0  0  0
   40.6370   31.2930   42.6800 N   0  0  0  0  0  0  0  0  0  0  0  0
   41.3050   30.5270   42.4260 H   0  0  0  0  0  0  0  0  0  0  0  0
   40.7600   31.9700   43.4680 H   0  0  0  0  0  0  0  0  0  0  0  0
  1  4  1  1  0  0  0
  1  2  1  0  0  0  0
  2  6  1  0  0  0  0
  3  7  1  6  0  0  0
  3 10  1  0  0  0  0
  3  1  1  0  0  0  0
  3  2  1  0  0  0  0
  5  2  1  0  0  0  0
  8  9  1  0  0  0  0
  9 10  2  0  0  0  0
  9 16  1  0  0  0  0
 10 11  1  0  0  0  0
 11 12  1  0  0  0  0
 11 13  2  0  0  0  0
 13 14  1  0  0  0  0
 15 13  1  0  0  0  0
 16 15  2  0  0  0  0
 17 23  1  0  0  0  0
 17 18  1  0  0  0  0
 18 25  1  0  0  0  0
 19 18  2  0  0  0  0
 19  1  1  0  0  0  0
 20 19  1  0  0  0  0
 21 22  1  0  0  0  0
 21 20  2  0  0  0  0
 22 17  2  0  0  0  0
 24 21  1  0  0  0  0
 25 27  1  0  0  0  0
 26 25  1  0  0  0  0
M  END
>  <minimizedAffinity>
-5.26438665

$$$$

 OpenBabel03252509253D

 27 29  0  0  1  0  0  0  0  0999 V2000
   36.0950   28.7130   39.6940 C   0  0  1  0  0  0  0  0  0  0  0  0
   35.2840   28.0010   38.5820 C   0  0  0  0  0  0  0  0  0  0  0  0
   36.6640   27.5370   39.1410 C   0  0  2  0  0  0  0  0  0  0  0  0
   35.5660   28.7740   40.6540 H   0  0  0  0  0  0  0  0  0  0  0  0
   35.3050   28.3910   37.5690 H   0  0  0  0  0  0  0  0  0  0  0  0
   34.4110   27.4640   38.9580 H   0  0  0  0  0  0  0  0  0  0  0  0
   37.5050   27.5960   38.4040 H   0  0  0  0  0  0  0  0  0  0  0  0
   36.0160   24.8510   38.2740 F   0  0  0  0  0  0  0  0  0  0  0  0
   36.3910   24.9940   39.5560 C   0  0  0  0  0  0  0  0  0  0  0  0
   36.6840   26.2930   39.9160 C   0  0  0  0  0  0  0  0  0  0  0  0
   37.0740   26.4550   41.2520 C   0  0  0  0  0  0  0  0  0  0  0  0
   37.3330   27.4120   41.6760 H   0  0  0  0  0  0  0  0  0  0  0  0
   37.1650   25.4180   42.1560 C   0  0  0  0  0  0  0  0  0  0  0  0
   37.4610   25.5380   43.1700 H   0  0  0  0  0  0  0  0  0  0  0  0
   36.8610   24.1390   41.7470 C   0  0  0  0  0  3  0  0  0  0  0  0
   36.4760   23.9560   40.4350 C   0  0  0  0  0  3  0  0  0  0  0  0
   37.0170   32.3540   39.5390 C   0  0  0  0  0  0  0  0  0  0  0  0
   36.4660   31.1270   40.0490 C   0  0  0  0  0  0  0  0  0  0  0  0
   36.5880   30.0650   39.1930 C   0  0  0  0  0  0  0  0  0  0  0  0
   37.1900   30.1670   37.9440 N   0  0  0  0  0  0  0  0  0  0  0  0
   37.6810   31.3400   37.5310 C   0  0  0  0  0  0  0  0  0  0  0  0
   37.5940   32.4370   38.3320 N   0  0  0  0  0  0  0  0  0  0  0  0
   36.9510   33.2170   40.1660 H   0  0  0  0  0  0  0  0  0  0  0  0
   38.1090   31.2400   36.5470 H   0  0  0  0  0  0  0  0  0  0  0  0
   35.8330   31.0410   41.3190 N   0  0  0  0  0  0  0  0  0  0  0  0
   36.2720   30.4350   42.0520 H   0  0  0  0  0  0  0  0  0  0  0  0
   34.9550   31.5990   41.4370 H   0  0  0  0  0  0  0  0  0  0  0  0
  1  4  1  1  0  0  0
  2  6  1  0  0  0  0
  2  3  1  0  0  0  0
  2  1  1  0  0  0  0
  3  7  1  6  0  0  0
  3  1  1  0  0  0  0
  3 10  1  0  0  0  0
  5  2  1  0  0  0  0
  8  9  1  0  0  0  0
  9 10  2  0  0  0  0
  9 16  1  0  0  0  0
 10 11  1  0  0  0  0
 11 12  1  0  0  0  0
 11 13  2  0  0  0  0
 13 14  1  0  0  0  0
 15 13  1  0  0  0  0
 16 15  2  0  0  0  0
 17 18  1  0  0  0  0
 17 23  1  0  0  0  0
 18 25  1  0  0  0  0
 19  1  1  0  0  0  0
 19 18  2  0  0  0  0
 20 19  1  0  0  0  0
 21 20  2  0  0  0  0
 21 22  1  0  0  0  0
 22 17  2  0  0  0  0
 24 21  1  0  0  0  0
 25 27  1  0  0  0  0
 25 26  1  0  0  0  0
M  END
>  <minimizedAffinity>
-5.24255514

$$$$

 OpenBabel03252509253D

 27 29  0  0  1  0  0  0  0  0999 V2000
   38.1930   31.3580   40.5670 C   0  0  1  0  0  0  0  0  0  0  0  0
   37.0030   30.9670   39.6560 C   0  0  0  0  0  0  0  0  0  0  0  0
   38.0570   29.9830   40.2480 C   0  0  2  0  0  0  0  0  0  0  0  0
   37.8870   31.8260   41.5130 H   0  0  0  0  0  0  0  0  0  0  0  0
   37.0720   31.1270   38.5840 H   0  0  0  0  0  0  0  0  0  0  0  0
   36.0370   30.9970   40.1650 H   0  0  0  0  0  0  0  0  0  0  0  0
   38.7200   29.5010   39.4850 H   0  0  0  0  0  0  0  0  0  0  0  0
   36.5270   27.5510   39.8810 F   0  0  0  0  0  0  0  0  0  0  0  0
   36.8630   27.8660   41.1440 C   0  0  0  0  0  0  0  0  0  0  0  0
   37.5870   29.0340   41.2610 C   0  0  0  0  0  0  0  0  0  0  0  0
   37.9400   29.3730   42.5740 C   0  0  0  0  0  0  0  0  0  0  0  0
   38.5060   30.2580   42.8200 H   0  0  0  0  0  0  0  0  0  0  0  0
   37.6040   28.6190   43.6790 C   0  0  0  0  0  0  0  0  0  0  0  0
   37.8710   28.8740   44.6760 H   0  0  0  0  0  0  0  0  0  0  0  0
   36.8800   27.4600   43.5080 C   0  0  0  0  0  3  0  0  0  0  0  0
   36.5230   27.1070   42.2240 C   0  0  0  0  0  3  0  0  0  0  0  0
   40.4930   34.1400   39.5210 C   0  0  0  0  0  0  0  0  0  0  0  0
   39.4860   33.4390   40.2710 C   0  0  0  0  0  0  0  0  0  0  0  0
   39.1970   32.1920   39.7820 C   0  0  0  0  0  0  0  0  0  0  0  0
   39.8220   31.6560   38.6620 N   0  0  0  0  0  0  0  0  0  0  0  0
   40.7510   32.3640   38.0110 C   0  0  0  0  0  0  0  0  0  0  0  0
   41.0880   33.6100   38.4420 N   0  0  0  0  0  0  0  0  0  0  0  0
   40.7610   35.1190   39.8570 H   0  0  0  0  0  0  0  0  0  0  0  0
   41.1300   31.8010   37.1730 H   0  0  0  0  0  0  0  0  0  0  0  0
   38.8370   34.0080   41.4000 N   0  0  0  0  0  0  0  0  0  0  0  0
   38.9790   33.5540   42.3330 H   0  0  0  0  0  0  0  0  0  0  0  0
   38.2520   34.8570   41.2200 H   0  0  0  0  0  0  0  0  0  0  0  0
  1  4  1  1  0  0  0
  2  6  1  0  0  0  0
  2  3  1  0  0  0  0
  2  1  1  0  0  0  0
  3  7  1  6  0  0  0
  3  1  1  0  0  0  0
  3 10  1  0  0  0  0
  5  2  1  0  0  0  0
  8  9  1  0  0  0  0
  9 10  2  0  0  0  0
  9 16  1  0  0  0  0
 10 11  1  0  0  0  0
 11 12  1  0  0  0  0
 11 13  2  0  0  0  0
 13 14  1  0  0  0  0
 15 13  1  0  0  0  0
 16 15  2  0  0  0  0
 17 23  1  0  0  0  0
 17 18  1  0  0  0  0
 18 25  1  0  0  0  0
 19 18  2  0  0  0  0
 19  1  1  0  0  0  0
 20 19  1  0  0  0  0
 21 22  1  0  0  0  0
 21 20  2  0  0  0  0
 22 17  2  0  0  0  0
 24 21  1  0  0  0  0
 25 26  1  0  0  0  0
 27 25  1  0  0  0  0
M  END
>  <minimizedAffinity>
-5.20179605

$$$$

 OpenBabel03252509253D

 27 29  0  0  1  0  0  0  0  0999 V2000
   36.9380   29.2080   41.4800 C   0  0  1  0  0  0  0  0  0  0  0  0
   35.6300   29.0470   40.6650 C   0  0  0  0  0  0  0  0  0  0  0  0
   36.9430   28.2330   40.4510 C   0  0  2  0  0  0  0  0  0  0  0  0
   36.8150   29.0020   42.5520 H   0  0  0  0  0  0  0  0  0  0  0  0
   35.3970   29.7590   39.8790 H   0  0  0  0  0  0  0  0  0  0  0  0
   34.8360   28.5370   41.2140 H   0  0  0  0  0  0  0  0  0  0  0  0
   37.4560   28.4290   39.4750 H   0  0  0  0  0  0  0  0  0  0  0  0
   37.5330   26.9500   42.9790 F   0  0  0  0  0  0  0  0  0  0  0  0
   37.1690   26.1440   41.9670 C   0  0  0  0  0  0  0  0  0  0  0  0
   36.9040   26.8060   40.7860 C   0  0  0  0  0  0  0  0  0  0  0  0
   36.5250   25.9760   39.7240 C   0  0  0  0  0  0  0  0  0  0  0  0
   36.2870   26.3520   38.7410 H   0  0  0  0  0  0  0  0  0  0  0  0
   36.4190   24.6040   39.8200 C   0  0  0  0  0  0  0  0  0  0  0  0
   36.1320   23.9720   39.0150 H   0  0  0  0  0  0  0  0  0  0  0  0
   36.6950   23.9910   41.0210 C   0  0  0  0  0  3  0  0  0  0  0  0
   37.0690   24.7900   42.0820 C   0  0  0  0  0  3  0  0  0  0  0  0
   39.3820   32.0580   41.3100 C   0  0  0  0  0  0  0  0  0  0  0  0
   38.8290   30.7820   41.6750 C   0  0  0  0  0  0  0  0  0  0  0  0
   37.5620   30.5690   41.1980 C   0  0  0  0  0  0  0  0  0  0  0  0
   36.8770   31.5030   40.4310 N   0  0  0  0  0  0  0  0  0  0  0  0
   37.4520   32.6720   40.1280 C   0  0  0  0  0  0  0  0  0  0  0  0
   38.7090   32.9500   40.5690 N   0  0  0  0  0  0  0  0  0  0  0  0
   40.3690   32.2800   41.6540 H   0  0  0  0  0  0  0  0  0  0  0  0
   36.7850   33.2720   39.5310 H   0  0  0  0  0  0  0  0  0  0  0  0
   39.5310   29.8440   42.4800 N   0  0  0  0  0  0  0  0  0  0  0  0
   39.7920   28.9240   42.0540 H   0  0  0  0  0  0  0  0  0  0  0  0
   39.7440   30.1430   43.4610 H   0  0  0  0  0  0  0  0  0  0  0  0
  1  4  1  1  0  0  0
  2  6  1  0  0  0  0
  2  1  1  0  0  0  0
  3  7  1  6  0  0  0
  3  2  1  0  0  0  0
  3 10  1  0  0  0  0
  3  1  1  0  0  0  0
  5  2  1  0  0  0  0
  9 16  1  0  0  0  0
  9  8  1  0  0  0  0
 10  9  2  0  0  0  0
 11 13  2  0  0  0  0
 11 10  1  0  0  0  0
 12 11  1  0  0  0  0
 13 15  1  0  0  0  0
 14 13  1  0  0  0  0
 15 16  2  0  0  0  0
 17 23  1  0  0  0  0
 17 18  1  0  0  0  0
 18 25  1  0  0  0  0
 19  1  1  0  0  0  0
 19 18  2  0  0  0  0
 20 19  1  0  0  0  0
 21 20  2  0  0  0  0
 21 22  1  0  0  0  0
 22 17  2  0  0  0  0
 24 21  1  0  0  0  0
 25 27  1  0  0  0  0
 26 25  1  0  0  0  0
M  END
>  <minimizedAffinity>
-5.12325048

$$$$

 OpenBabel03252509253D

 27 29  0  0  1  0  0  0  0  0999 V2000
   36.9360   28.6140   40.4500 C   0  0  1  0  0  0  0  0  0  0  0  0
   35.9480   28.0560   39.3950 C   0  0  0  0  0  0  0  0  0  0  0  0
   37.3620   27.4800   39.7130 C   0  0  2  0  0  0  0  0  0  0  0  0
   36.5410   28.5970   41.4740 H   0  0  0  0  0  0  0  0  0  0  0  0
   35.8560   28.5470   38.4310 H   0  0  0  0  0  0  0  0  0  0  0  0
   35.1040   27.5190   39.8330 H   0  0  0  0  0  0  0  0  0  0  0  0
   38.1010   27.5800   38.8780 H   0  0  0  0  0  0  0  0  0  0  0  0
   36.6920   26.7620   42.4370 F   0  0  0  0  0  0  0  0  0  0  0  0
   37.1060   25.7650   41.6380 C   0  0  0  0  0  0  0  0  0  0  0  0
   37.4160   26.1630   40.3540 C   0  0  0  0  0  0  0  0  0  0  0  0
   37.8510   25.1310   39.5120 C   0  0  0  0  0  0  0  0  0  0  0  0
   38.1280   25.2920   38.4820 H   0  0  0  0  0  0  0  0  0  0  0  0
   37.9720   23.8160   39.9080 C   0  0  0  0  0  0  0  0  0  0  0  0
   38.3020   23.0310   39.2710 H   0  0  0  0  0  0  0  0  0  0  0  0
   37.6510   23.4700   41.2010 C   0  0  0  0  0  3  0  0  0  0  0  0
   37.2180   24.4700   42.0480 C   0  0  0  0  0  3  0  0  0  0  0  0
   37.3540   32.3380   40.1590 C   0  0  0  0  0  0  0  0  0  0  0  0
   36.7880   31.0760   40.5510 C   0  0  0  0  0  0  0  0  0  0  0  0
   37.4310   29.9900   40.0200 C   0  0  0  0  0  0  0  0  0  0  0  0
   38.5320   30.1010   39.1780 N   0  0  0  0  0  0  0  0  0  0  0  0
   39.0070   31.3080   38.8530 C   0  0  0  0  0  0  0  0  0  0  0  0
   38.4160   32.4300   39.3460 N   0  0  0  0  0  0  0  0  0  0  0  0
   36.8930   33.2220   40.5450 H   0  0  0  0  0  0  0  0  0  0  0  0
   39.8560   31.2100   38.1970 H   0  0  0  0  0  0  0  0  0  0  0  0
   35.6480   30.9760   41.3950 N   0  0  0  0  0  0  0  0  0  0  0  0
   35.7640   30.5220   42.3320 H   0  0  0  0  0  0  0  0  0  0  0  0
   34.7550   31.3710   41.0160 H   0  0  0  0  0  0  0  0  0  0  0  0
  1  4  1  1  0  0  0
  2  3  1  0  0  0  0
  2  6  1  0  0  0  0
  2  1  1  0  0  0  0
  3  7  1  6  0  0  0
  3 10  1  0  0  0  0
  3  1  1  0  0  0  0
  5  2  1  0  0  0  0
  9 16  1  0  0  0  0
  9  8  1  0  0  0  0
 10  9  2  0  0  0  0
 11 13  2  0  0  0  0
 11 10  1  0  0  0  0
 12 11  1  0  0  0  0
 13 15  1  0  0  0  0
 14 13  1  0  0  0  0
 15 16  2  0  0  0  0
 17 23  1  0  0  0  0
 17 18  1  0  0  0  0
 18 25  1  0  0  0  0
 19  1  1  0  0  0  0
 19 18  2  0  0  0  0
 20 19  1  0  0  0  0
 21 20  2  0  0  0  0
 21 22  1  0  0  0  0
 22 17  2  0  0  0  0
 24 21  1  0  0  0  0
 25 26  1  0  0  0  0
 27 25  1  0  0  0  0
M  END
>  <minimizedAffinity>
-5.12078381

$$$$

 OpenBabel03252509253D

 27 29  0  0  1  0  0  0  0  0999 V2000
   37.7410   29.3140   41.8520 C   0  0  1  0  0  0  0  0  0  0  0  0
   38.9180   29.8970   42.6730 C   0  0  0  0  0  0  0  0  0  0  0  0
   38.6990   30.0800   41.1390 C   0  0  2  0  0  0  0  0  0  0  0  0
   36.7560   29.6710   42.1800 H   0  0  0  0  0  0  0  0  0  0  0  0
   39.7510   29.2570   42.9460 H   0  0  0  0  0  0  0  0  0  0  0  0
   38.6320   30.7440   43.3000 H   0  0  0  0  0  0  0  0  0  0  0  0
   39.4720   29.5830   40.4990 H   0  0  0  0  0  0  0  0  0  0  0  0
   36.4110   30.9410   39.5880 F   0  0  0  0  0  0  0  0  0  0  0  0
   37.2930   31.8930   39.9370 C   0  0  0  0  0  0  0  0  0  0  0  0
   38.3640   31.4270   40.6700 C   0  0  0  0  0  0  0  0  0  0  0  0
   39.2920   32.4110   41.0380 C   0  0  0  0  0  0  0  0  0  0  0  0
   40.1790   32.1950   41.6120 H   0  0  0  0  0  0  0  0  0  0  0  0
   39.1700   33.7440   40.7060 C   0  0  0  0  0  0  0  0  0  0  0  0
   39.8730   34.4920   40.9830 H   0  0  0  0  0  0  0  0  0  0  0  0
   38.0820   34.1570   39.9710 C   0  0  0  0  0  3  0  0  0  0  0  0
   37.1550   33.2060   39.6000 C   0  0  0  0  0  3  0  0  0  0  0  0
   37.1090   25.6630   42.4840 C   0  0  0  0  0  0  0  0  0  0  0  0
   37.0100   27.0900   42.6330 C   0  0  0  0  0  0  0  0  0  0  0  0
   37.8430   27.7940   41.8050 C   0  0  0  0  0  0  0  0  0  0  0  0
   38.7060   27.1820   40.9030 N   0  0  0  0  0  0  0  0  0  0  0  0
   38.7470   25.8490   40.8160 C   0  0  0  0  0  0  0  0  0  0  0  0
   37.9460   25.0860   41.6090 N   0  0  0  0  0  0  0  0  0  0  0  0
   36.4800   25.0610   43.1050 H   0  0  0  0  0  0  0  0  0  0  0  0
   39.4660   25.5450   40.0720 H   0  0  0  0  0  0  0  0  0  0  0  0
   36.1400   27.7030   43.5760 N   0  0  0  0  0  0  0  0  0  0  0  0
   35.3590   28.3000   43.2140 H   0  0  0  0  0  0  0  0  0  0  0  0
   36.3430   27.5130   44.5850 H   0  0  0  0  0  0  0  0  0  0  0  0
  1  4  1  1  0  0  0
  1  2  1  0  0  0  0
  2  5  1  0  0  0  0
  2  6  1  0  0  0  0
  3  7  1  6  0  0  0
  3  1  1  0  0  0  0
  3  2  1  0  0  0  0
  8  9  1  0  0  0  0
  9 10  1  0  0  0  0
 10 11  2  0  0  0  0
 10  3  1  0  0  0  0
 11 12  1  0  0  0  0
 13 14  1  0  0  0  0
 13 11  1  0  0  0  0
 15 13  2  0  0  0  0
 16  9  2  0  0  0  0
 16 15  1  0  0  0  0
 17 18  1  0  0  0  0
 17 23  1  0  0  0  0
 18 25  1  0  0  0  0
 19  1  1  0  0  0  0
 19 18  2  0  0  0  0
 20 19  1  0  0  0  0
 21 20  2  0  0  0  0
 21 22  1  0  0  0  0
 22 17  2  0  0  0  0
 24 21  1  0  0  0  0
 25 27  1  0  0  0  0
 26 25  1  0  0  0  0
M  END
>  <minimizedAffinity>
-4.98400211

$$$$

 OpenBabel03252509253D

 27 29  0  0  1  0  0  0  0  0999 V2000
   37.3280   26.5410   41.8320 C   0  0  1  0  0  0  0  0  0  0  0  0
   36.4980   27.5680   42.6420 C   0  0  0  0  0  0  0  0  0  0  0  0
   37.1270   27.8120   41.2360 C   0  0  2  0  0  0  0  0  0  0  0  0
   36.7740   25.6260   41.5830 H   0  0  0  0  0  0  0  0  0  0  0  0
   36.9660   28.1130   43.4570 H   0  0  0  0  0  0  0  0  0  0  0  0
   35.4290   27.3480   42.6560 H   0  0  0  0  0  0  0  0  0  0  0  0
   37.9450   28.5770   41.2210 H   0  0  0  0  0  0  0  0  0  0  0  0
   35.2770   29.9710   40.6830 F   0  0  0  0  0  0  0  0  0  0  0  0
   35.3060   28.9620   39.7960 C   0  0  0  0  0  0  0  0  0  0  0  0
   36.2000   27.9600   40.1100 C   0  0  0  0  0  0  0  0  0  0  0  0
   36.2370   26.9020   39.1930 C   0  0  0  0  0  0  0  0  0  0  0  0
   36.8870   26.0480   39.3070 H   0  0  0  0  0  0  0  0  0  0  0  0
   35.4530   26.8390   38.0600 C   0  0  0  0  0  0  0  0  0  0  0  0
   35.4790   26.0370   37.3630 H   0  0  0  0  0  0  0  0  0  0  0  0
   34.5750   27.8650   37.7920 C   0  0  0  0  0  3  0  0  0  0  0  0
   34.5240   28.9190   38.6810 C   0  0  0  0  0  3  0  0  0  0  0  0
   40.3440   24.7870   43.2290 C   0  0  0  0  0  0  0  0  0  0  0  0
   39.0560   24.9620   42.6160 C   0  0  0  0  0  0  0  0  0  0  0  0
   38.6510   26.2690   42.5370 C   0  0  0  0  0  0  0  0  0  0  0  0
   39.4180   27.3270   43.0090 N   0  0  0  0  0  0  0  0  0  0  0  0
   40.6090   27.0930   43.5700 C   0  0  0  0  0  0  0  0  0  0  0  0
   41.0740   25.8180   43.6800 N   0  0  0  0  0  0  0  0  0  0  0  0
   40.7130   23.7880   43.3170 H   0  0  0  0  0  0  0  0  0  0  0  0
   41.0660   28.0190   43.8770 H   0  0  0  0  0  0  0  0  0  0  0  0
   38.2700   23.8700   42.1580 N   0  0  0  0  0  0  0  0  0  0  0  0
   38.0700   23.7990   41.1320 H   0  0  0  0  0  0  0  0  0  0  0  0
   37.9400   23.1980   42.8900 H   0  0  0  0  0  0  0  0  0  0  0  0
  1  4  1  6  0  0  0
  1 19  1  0  0  0  0
  1  2  1  0  0  0  0
  2  6  1  0  0  0  0
  2  5  1  0  0  0  0
  3  7  1  6  0  0  0
  3  1  1  0  0  0  0
  3  2  1  0  0  0  0
  9 10  1  0  0  0  0
  9  8  1  0  0  0  0
 10  3  1  0  0  0  0
 11 12  1  0  0  0  0
 11 10  2  0  0  0  0
 13 11  1  0  0  0  0
 14 13  1  0  0  0  0
 15 13  2  0  0  0  0
 15 16  1  0  0  0  0
 16  9  2  0  0  0  0
 17 23  1  0  0  0  0
 17 22  1  0  0  0  0
 18 17  2  0  0  0  0
 19 18  1  0  0  0  0
 19 20  2  0  0  0  0
 20 21  1  0  0  0  0
 21 22  2  0  0  0  0
 21 24  1  0  0  0  0
 25 18  1  0  0  0  0
 25 27  1  0  0  0  0
 26 25  1  0  0  0  0
M  END
>  <minimizedAffinity>
-4.94405985

$$$$

 OpenBabel03252509253D

 27 29  0  0  1  0  0  0  0  0999 V2000
   38.4450   30.6330   40.6950 C   0  0  1  0  0  0  0  0  0  0  0  0
   38.4980   29.7360   39.4330 C   0  0  0  0  0  0  0  0  0  0  0  0
   39.0280   29.3490   40.8470 C   0  0  2  0  0  0  0  0  0  0  0  0
   37.4260   30.9100   40.9950 H   0  0  0  0  0  0  0  0  0  0  0  0
   39.2670   29.9080   38.6840 H   0  0  0  0  0  0  0  0  0  0  0  0
   37.5280   29.3200   39.1550 H   0  0  0  0  0  0  0  0  0  0  0  0
   40.1390   29.2240   40.9080 H   0  0  0  0  0  0  0  0  0  0  0  0
   38.0740   29.3360   43.5820 F   0  0  0  0  0  0  0  0  0  0  0  0
   37.8260   28.2340   42.8540 C   0  0  0  0  0  0  0  0  0  0  0  0
   38.3060   28.2920   41.5620 C   0  0  0  0  0  0  0  0  0  0  0  0
   38.0550   27.1470   40.7940 C   0  0  0  0  0  0  0  0  0  0  0  0
   38.3710   27.0480   39.7670 H   0  0  0  0  0  0  0  0  0  0  0  0
   37.3880   26.0360   41.2660 C   0  0  0  0  0  0  0  0  0  0  0  0
   37.1970   25.1660   40.6860 H   0  0  0  0  0  0  0  0  0  0  0  0
   36.9300   26.0280   42.5640 C   0  0  0  0  0  3  0  0  0  0  0  0
   37.1640   27.1460   43.3380 C   0  0  0  0  0  3  0  0  0  0  0  0
   39.7060   34.1580   40.3640 C   0  0  0  0  0  0  0  0  0  0  0  0
   38.7740   33.0680   40.4570 C   0  0  0  0  0  0  0  0  0  0  0  0
   39.3660   31.8340   40.5190 C   0  0  0  0  0  0  0  0  0  0  0  0
   40.7450   31.6560   40.4920 N   0  0  0  0  0  0  0  0  0  0  0  0
   41.5550   32.7160   40.4040 C   0  0  0  0  0  0  0  0  0  0  0  0
   41.0340   33.9710   40.3400 N   0  0  0  0  0  0  0  0  0  0  0  0
   39.3000   35.1460   40.3140 H   0  0  0  0  0  0  0  0  0  0  0  0
   42.5850   32.3980   40.3950 H   0  0  0  0  0  0  0  0  0  0  0  0
   37.3660   33.2610   40.4600 N   0  0  0  0  0  0  0  0  0  0  0  0
   36.8300   32.9910   41.3190 H   0  0  0  0  0  0  0  0  0  0  0  0
   36.9520   33.6690   39.5890 H   0  0  0  0  0  0  0  0  0  0  0  0
  1  3  1  0  0  0  0
  1  4  1  1  0  0  0
  2  1  1  0  0  0  0
  2  3  1  0  0  0  0
  3  7  1  1  0  0  0
  3 10  1  0  0  0  0
  5  2  1  0  0  0  0
  6  2  1  0  0  0  0
  9 16  1  0  0  0  0
  9  8  1  0  0  0  0
 10  9  2  0  0  0  0
 11 13  2  0  0  0  0
 11 10  1  0  0  0  0
 12 11  1  0  0  0  0
 13 15  1  0  0  0  0
 14 13  1  0  0  0  0
 15 16  2  0  0  0  0
 17 18  1  0  0  0  0
 18 25  1  0  0  0  0
 18 19  2  0  0  0  0
 19  1  1  0  0  0  0
 20 19  1  0  0  0  0
 21 20  2  0  0  0  0
 22 17  2  0  0  0  0
 22 21  1  0  0  0  0
 23 17  1  0  0  0  0
 24 21  1  0  0  0  0
 25 26  1  0  0  0  0
 27 25  1  0  0  0  0
M  END
>  <minimizedAffinity>
-4.93556786

$$$$

 OpenBabel03252509253D

 27 29  0  0  1  0  0  0  0  0999 V2000
   36.8690   29.0790   41.3560 C   0  0  1  0  0  0  0  0  0  0  0  0
   35.5470   29.0260   40.5500 C   0  0  0  0  0  0  0  0  0  0  0  0
   36.8360   28.2040   40.2410 C   0  0  2  0  0  0  0  0  0  0  0  0
   36.7560   28.7770   42.4060 H   0  0  0  0  0  0  0  0  0  0  0  0
   35.3210   29.8140   39.8380 H   0  0  0  0  0  0  0  0  0  0  0  0
   34.7480   28.4870   41.0610 H   0  0  0  0  0  0  0  0  0  0  0  0
   37.3400   28.4780   39.2790 H   0  0  0  0  0  0  0  0  0  0  0  0
   36.0210   26.1520   38.3670 F   0  0  0  0  0  0  0  0  0  0  0  0
   36.3910   25.7360   39.5910 C   0  0  0  0  0  0  0  0  0  0  0  0
   36.7650   26.7540   40.4430 C   0  0  0  0  0  0  0  0  0  0  0  0
   37.1510   26.3330   41.7210 C   0  0  0  0  0  0  0  0  0  0  0  0
   37.4690   27.0160   42.4940 H   0  0  0  0  0  0  0  0  0  0  0  0
   37.1640   25.0140   42.1250 C   0  0  0  0  0  0  0  0  0  0  0  0
   37.4560   24.6920   43.0950 H   0  0  0  0  0  0  0  0  0  0  0  0
   36.7810   24.0350   41.2360 C   0  0  0  0  0  3  0  0  0  0  0  0
   36.3980   24.4270   39.9700 C   0  0  0  0  0  3  0  0  0  0  0  0
   39.3570   31.8940   41.4800 C   0  0  0  0  0  0  0  0  0  0  0  0
   38.7710   30.6060   41.7360 C   0  0  0  0  0  0  0  0  0  0  0  0
   37.5240   30.4450   41.1920 C   0  0  0  0  0  0  0  0  0  0  0  0
   36.8850   31.4390   40.4600 N   0  0  0  0  0  0  0  0  0  0  0  0
   37.4890   32.6150   40.2600 C   0  0  0  0  0  0  0  0  0  0  0  0
   38.7290   32.8430   40.7720 N   0  0  0  0  0  0  0  0  0  0  0  0
   40.3310   32.0760   41.8800 H   0  0  0  0  0  0  0  0  0  0  0  0
   36.8560   33.2650   39.6760 H   0  0  0  0  0  0  0  0  0  0  0  0
   39.4250   29.6060   42.5060 N   0  0  0  0  0  0  0  0  0  0  0  0
   39.6920   28.7110   42.0310 H   0  0  0  0  0  0  0  0  0  0  0  0
   39.5990   29.8360   43.5120 H   0  0  0  0  0  0  0  0  0  0  0  0
  1  4  1  1  0  0  0
  2  6  1  0  0  0  0
  2  1  1  0  0  0  0
  3  7  1  6  0  0  0
  3 10  1  0  0  0  0
  3  2  1  0  0  0  0
  3  1  1  0  0  0  0
  5  2  1  0  0  0  0
  8  9  1  0  0  0  0
  9 16  2  0  0  0  0
  9 10  1  0  0  0  0
 10 11  2  0  0  0  0
 11 13  1  0  0  0  0
 11 12  1  0  0  0  0
 13 14  1  0  0  0  0
 15 13  2  0  0  0  0
 16 15  1  0  0  0  0
 17 18  1  0  0  0  0
 17 23  1  0  0  0  0
 18 25  1  0  0  0  0
 19  1  1  0  0  0  0
 19 18  2  0  0  0  0
 20 19  1  0  0  0  0
 21 20  2  0  0  0  0
 21 22  1  0  0  0  0
 22 17  2  0  0  0  0
 24 21  1  0  0  0  0
 25 27  1  0  0  0  0
 26 25  1  0  0  0  0
M  END
>  <minimizedAffinity>
-4.93492794

$$$$
