
 OpenBabel03242516053D

 36 39  0  0  0  0  0  0  0  0999 V2000
   45.1650   32.9390   41.2320 Cl  0  0  0  0  0  0  0  0  0  0  0  0
   46.5710   33.9650   41.0690 C   0  0  0  0  0  0  0  0  0  0  0  0
   46.9990   34.7790   42.0750 C   0  0  0  0  0  0  0  0  0  0  0  0
   48.1080   35.5290   41.8250 C   0  0  0  0  0  0  0  0  0  0  0  0
   48.7720   35.4930   40.6480 C   0  0  0  0  0  0  0  0  0  0  0  0
   48.3480   34.6780   39.6310 C   0  0  0  0  0  0  0  0  0  0  0  0
   47.2160   33.8990   39.8630 C   0  0  0  0  0  0  0  0  0  0  0  0
   48.4790   36.1900   42.6020 H   0  0  0  0  0  0  0  0  0  0  0  0
   49.6440   36.1010   40.4890 H   0  0  0  0  0  0  0  0  0  0  0  0
   48.8810   34.6490   38.6890 H   0  0  0  0  0  0  0  0  0  0  0  0
   44.5450   35.6760   44.8160 C   0  0  0  0  0  0  0  0  0  0  0  0
   45.2540   35.6960   43.6100 C   0  0  0  0  0  0  0  0  0  0  0  0
   46.2560   34.7800   43.3100 C   0  0  0  0  0  0  0  0  0  0  0  0
   46.4780   33.8670   44.2990 N   0  0  0  0  0  0  0  0  0  0  0  0
   45.7970   33.8540   45.4520 C   0  0  0  0  0  0  0  0  0  0  0  0
   44.8390   34.7500   45.7060 N   0  0  0  0  0  0  0  0  0  0  0  0
   43.7740   36.4320   44.9700 H   0  0  0  0  0  0  0  0  0  0  0  0
   45.0090   36.4550   42.8840 H   0  0  0  0  0  0  0  0  0  0  0  0
   46.0880   33.0640   46.1450 H   0  0  0  0  0  0  0  0  0  0  0  0
   46.7450   33.0110   38.7710 C   0  0  0  0  0  0  0  0  0  0  0  0
   47.5900   32.0790   38.1430 C   0  0  0  0  0  0  0  0  0  0  0  0
   46.5180   31.2870   36.9180 S   0  0  0  0  0  0  0  0  0  0  0  0
   45.0350   32.3770   37.4660 C   0  0  0  0  0  0  0  0  0  0  0  0
   45.5410   32.9750   38.2720 N   0  0  0  0  0  0  0  0  0  0  0  0
   43.7180   32.3390   36.9210 N   0  0  0  0  0  0  0  0  0  0  0  0
   43.2780   32.9830   36.2450 H   0  0  0  0  0  0  0  0  0  0  0  0
   43.1740   31.5140   37.3020 H   0  0  0  0  0  0  0  0  0  0  0  0
   48.2470   30.7100   40.4260 F   0  0  0  0  0  0  0  0  0  0  0  0
   49.2240   31.0640   39.5460 C   0  0  0  0  0  0  0  0  0  0  0  0
   48.9910   31.7630   38.3550 C   0  0  0  0  0  0  0  0  0  0  0  0
   50.0780   32.0690   37.5340 C   0  0  0  0  0  0  0  0  0  0  0  0
   49.7930   32.6120   36.6360 H   0  0  0  0  0  0  0  0  0  0  0  0
   51.3470   31.6790   37.9110 C   0  0  0  0  0  0  0  0  0  0  0  0
   52.1460   31.9460   37.2330 H   0  0  0  0  0  0  0  0  0  0  0  0
   51.5480   30.9890   39.0930 C   0  0  0  0  0  0  0  0  0  0  0  0
   50.4860   30.6810   39.9110 C   0  0  0  0  0  0  0  0  0  0  0  0
  2  1  1  0  0  0  0
  2  3  1  0  0  0  0
  3 13  1  0  0  0  0
  4  3  2  0  0  0  0
  4  8  1  0  0  0  0
  5  4  1  0  0  0  0
  6  7  1  0  0  0  0
  6  5  2  0  0  0  0
  7  2  2  0  0  0  0
  9  5  1  0  0  0  0
 10  6  1  0  0  0  0
 11 17  1  0  0  0  0
 11 16  1  0  0  0  0
 12 11  2  0  0  0  0
 13 12  1  0  0  0  0
 13 14  2  0  0  0  0
 14 15  1  0  0  0  0
 15 16  2  0  0  0  0
 15 19  1  0  0  0  0
 18 12  1  0  0  0  0
 20  7  1  0  0  0  0
 21 30  1  0  0  0  0
 21 20  2  0  0  0  0
 22 23  1  0  0  0  0
 22 21  1  0  0  0  0
 23 24  2  0  0  0  0
 24 20  1  0  0  0  0
 25 27  1  0  0  0  0
 25 23  1  0  0  0  0
 26 25  1  0  0  0  0
 29 36  1  0  0  0  0
 29 28  1  0  0  0  0
 30 29  2  0  0  0  0
 31 33  2  0  0  0  0
 31 30  1  0  0  0  0
 32 31  1  0  0  0  0
 33 35  1  0  0  0  0
 34 33  1  0  0  0  0
 35 36  2  0  0  0  0
M  END
>  <minimizedAffinity>
-6.28945589

>  <minimizedRMSD>
2.07742834

$$$$
