
 OpenBabel03252503503D

 21 22  0  0  0  0  0  0  0  0999 V2000
   47.4560   34.7930   41.9190 C   0  0  0  0  0  0  0  0  0  0  0  0
   47.4990   34.2330   43.2100 C   0  0  0  0  0  0  0  0  0  0  0  0
   46.3340   33.6870   43.7480 C   0  0  0  0  0  0  0  0  0  0  0  0
   45.2130   33.7290   42.9790 N   0  0  0  0  0  0  0  0  0  0  0  0
   45.1960   34.2670   41.7530 C   0  0  0  0  0  0  0  0  0  0  0  0
   46.3100   34.7970   41.2210 N   0  0  0  0  0  0  0  0  0  0  0  0
   48.4090   34.2360   43.7510 H   0  0  0  0  0  0  0  0  0  0  0  0
   44.2820   34.2780   41.1790 H   0  0  0  0  0  0  0  0  0  0  0  0
   44.7810   34.8090   45.7960 F   0  0  0  0  0  0  0  0  0  0  0  0
   45.5280   33.6850   46.0480 C   0  0  0  0  0  0  0  0  0  0  0  0
   46.3090   33.0920   45.0780 C   0  0  0  0  0  0  0  0  0  0  0  0
   47.0100   31.9680   45.4580 C   0  0  0  0  0  0  0  0  0  0  0  0
   47.6270   31.4810   44.7280 H   0  0  0  0  0  0  0  0  0  0  0  0
   46.9510   31.4440   46.7320 C   0  0  0  0  0  0  0  0  0  0  0  0
   47.5190   30.5600   46.9870 H   0  0  0  0  0  0  0  0  0  0  0  0
   46.1650   32.0610   47.6680 C   0  0  0  0  0  0  0  0  0  0  0  0
   45.4390   33.1930   47.3420 C   0  0  0  0  0  0  0  0  0  0  0  0
   48.7280   35.3670   41.3850 C   0  0  0  0  0  0  0  0  0  0  0  0
   48.6970   35.5150   40.0310 F   0  0  0  0  0  0  0  0  0  0  0  0
   48.9540   36.5760   42.0500 F   0  0  0  0  0  0  0  0  0  0  0  0
   49.7990   34.5530   41.7720 F   0  0  0  0  0  0  0  0  0  0  0  0
  1  2  1  0  0  0  0
  2  3  2  0  0  0  0
  2  7  1  0  0  0  0
  3 11  1  0  0  0  0
  4  3  1  0  0  0  0
  5  4  2  0  0  0  0
  6  5  1  0  0  0  0
  6  1  2  0  0  0  0
  8  5  1  0  0  0  0
  9 10  1  0  0  0  0
 10 17  1  0  0  0  0
 11 12  1  0  0  0  0
 11 10  2  0  0  0  0
 12 14  2  0  0  0  0
 13 12  1  0  0  0  0
 14 15  1  0  0  0  0
 14 16  1  0  0  0  0
 17 16  2  0  0  0  0
 18 21  1  0  0  0  0
 18  1  1  0  0  0  0
 18 20  1  0  0  0  0
 19 18  1  0  0  0  0
M  END
>  <minimizedAffinity>
-5.40663099

>  <minimizedRMSD>
1.25321043

$$$$
