
 OpenBabel03252507343D

 49 52  0  0  1  0  0  0  0  0999 V2000
   38.0170   31.3400   40.9880 C   0  0  0  0  0  0  0  0  0  0  0  0
   36.6710   31.4560   40.6810 C   0  0  0  0  0  0  0  0  0  0  0  0
   35.8240   30.3300   40.8060 C   0  0  0  0  0  0  0  0  0  0  0  0
   36.4230   29.1510   41.2420 N   0  0  0  0  0  0  0  0  0  0  0  0
   37.7320   29.1050   41.5200 C   0  0  0  0  0  0  0  0  0  0  0  0
   38.5130   30.1770   41.3970 N   0  0  0  0  0  0  0  0  0  0  0  0
   36.0290   32.2260   40.3070 H   0  0  0  0  0  0  0  0  0  0  0  0
   34.7720   30.2530   40.6150 H   0  0  0  0  0  0  0  0  0  0  0  0
   38.8370   32.5290   40.8670 C   0  0  2  0  0  0  0  0  0  0  0  0
   38.0880   33.6660   40.1080 C   0  0  0  0  0  0  0  0  0  0  0  0
   38.9080   34.9110   40.1510 C   0  0  0  0  0  0  0  0  0  0  0  0
   40.3620   34.7480   39.8720 C   0  0  0  0  0  0  0  0  0  0  0  0
   40.9420   33.5460   40.4170 C   0  0  0  0  0  0  0  0  0  0  0  0
   40.0900   32.2780   40.1830 C   0  0  2  0  0  0  0  0  0  0  0  0
   38.9960   32.9980   41.8670 H   0  0  0  0  0  0  0  0  0  0  0  0
   37.1510   33.7990   40.6860 H   0  0  0  0  0  0  0  0  0  0  0  0
   37.8010   33.3460   39.1010 H   0  0  0  0  0  0  0  0  0  0  0  0
   38.6350   35.4300   41.0900 H   0  0  0  0  0  0  0  0  0  0  0  0
   38.5000   35.5820   39.3430 H   0  0  0  0  0  0  0  0  0  0  0  0
   40.7910   35.2820   39.0220 H   0  0  0  0  0  0  0  0  0  0  0  0
   40.7790   35.5180   40.6390 H   0  0  0  0  0  0  0  0  0  0  0  0
   41.1910   33.5110   41.5070 H   0  0  0  0  0  0  0  0  0  0  0  0
   41.9150   33.3270   39.9010 H   0  0  0  0  0  0  0  0  0  0  0  0
   40.7370   31.5110   40.6120 H   0  0  0  0  0  0  0  0  0  0  0  0
   39.8570   32.1360   38.7440 N   0  0  0  0  0  0  0  0  0  0  0  0
   39.9040   31.0150   37.8970 C   0  0  0  0  0  0  0  0  0  0  0  0
   38.9670   30.1390   37.8460 O   0  0  0  0  0  0  0  0  0  0  0  0
   41.0750   30.9270   37.0860 N   0  0  0  0  0  0  0  0  0  0  0  0
   39.6660   32.9970   38.1050 H   0  0  0  0  0  0  0  0  0  0  0  0
   41.4060   31.6470   36.3800 H   0  0  0  0  0  0  0  0  0  0  0  0
   41.9110   30.3610   36.8280 H   0  0  0  0  0  0  0  0  0  0  0  0
   38.3060   27.8270   41.9530 C   0  0  0  0  0  0  0  0  0  0  0  0
   39.0120   27.7290   43.1320 C   0  0  0  0  0  0  0  0  0  0  0  0
   39.5750   26.5600   43.5960 C   0  0  0  0  0  0  0  0  0  0  0  0
   39.3850   25.4550   42.7860 C   0  0  0  0  0  0  0  0  0  0  0  0
   38.6830   25.5410   41.6090 C   0  0  0  0  0  0  0  0  0  0  0  0
   38.1460   26.7290   41.1970 N   0  0  0  0  0  0  0  0  0  0  0  0
   39.1050   28.6480   43.6920 H   0  0  0  0  0  0  0  0  0  0  0  0
   40.1170   26.5050   44.5110 H   0  0  0  0  0  0  0  0  0  0  0  0
   39.8190   24.5300   43.1340 H   0  0  0  0  0  0  0  0  0  0  0  0
   36.3140   24.0360   41.6180 F   0  0  0  0  0  0  0  0  0  0  0  0
   37.3030   23.6620   40.7710 C   0  0  0  0  0  0  0  0  0  0  0  0
   38.4770   24.3850   40.7470 C   0  0  0  0  0  0  0  0  0  0  0  0
   39.4080   23.9110   39.8480 C   0  0  0  0  0  0  0  0  0  0  0  0
   40.3520   24.4050   39.7550 H   0  0  0  0  0  0  0  0  0  0  0  0
   39.1990   22.8140   39.0380 C   0  0  0  0  0  0  0  0  0  0  0  0
   39.9520   22.4710   38.3440 H   0  0  0  0  0  0  0  0  0  0  0  0
   38.0020   22.1330   39.1090 C   0  0  0  0  0  3  0  0  0  0  0  0
   37.0250   22.5580   39.9920 C   0  0  0  0  0  3  0  0  0  0  0  0
  1  6  1  0  0  0  0
  2  3  1  0  0  0  0
  2  1  2  0  0  0  0
  3  4  2  0  0  0  0
  4  5  1  0  0  0  0
  5 32  1  0  0  0  0
  6  5  2  0  0  0  0
  7  2  1  0  0  0  0
  8  3  1  0  0  0  0
  9  1  1  0  0  0  0
  9 15  1  1  0  0  0
 10 11  1  0  0  0  0
 10 16  1  0  0  0  0
 10  9  1  0  0  0  0
 11 18  1  0  0  0  0
 12 11  1  0  0  0  0
 12 13  1  0  0  0  0
 12 21  1  0  0  0  0
 13 22  1  0  0  0  0
 14 13  1  0  0  0  0
 14 24  1  1  0  0  0
 14  9  1  0  0  0  0
 17 10  1  0  0  0  0
 19 11  1  0  0  0  0
 20 12  1  0  0  0  0
 23 13  1  0  0  0  0
 25 14  1  0  0  0  0
 26 25  1  0  0  0  0
 27 26  2  0  0  0  0
 28 26  1  0  0  0  0
 29 25  1  0  0  0  0
 30 28  1  0  0  0  0
 31 28  1  0  0  0  0
 32 33  1  0  0  0  0
 33 34  2  0  0  0  0
 33 38  1  0  0  0  0
 34 39  1  0  0  0  0
 35 40  1  0  0  0  0
 35 34  1  0  0  0  0
 36 35  2  0  0  0  0
 37 36  1  0  0  0  0
 37 32  2  0  0  0  0
 42 41  1  0  0  0  0
 43 42  1  0  0  0  0
 43 36  1  0  0  0  0
 44 43  2  0  0  0  0
 45 44  1  0  0  0  0
 46 48  2  0  0  0  0
 46 44  1  0  0  0  0
 47 46  1  0  0  0  0
 48 49  1  0  0  0  0
 49 42  2  0  0  0  0
M  END
>  <minimizedAffinity>
-7.02151537

$$$$

 OpenBabel03252507343D

 49 52  0  0  1  0  0  0  0  0999 V2000
   40.7870   31.4180   40.5550 C   0  0  0  0  0  0  0  0  0  0  0  0
   42.0810   31.9030   40.4620 C   0  0  0  0  0  0  0  0  0  0  0  0
   43.1490   31.1590   41.0160 C   0  0  0  0  0  0  0  0  0  0  0  0
   42.8120   29.9580   41.6330 N   0  0  0  0  0  0  0  0  0  0  0  0
   41.5390   29.5460   41.6910 C   0  0  0  0  0  0  0  0  0  0  0  0
   40.5470   30.2600   41.1620 N   0  0  0  0  0  0  0  0  0  0  0  0
   42.5480   32.7860   40.0780 H   0  0  0  0  0  0  0  0  0  0  0  0
   44.1960   31.3890   41.0260 H   0  0  0  0  0  0  0  0  0  0  0  0
   39.7300   32.2050   39.9490 C   0  0  2  0  0  0  0  0  0  0  0  0
   39.3280   33.4110   40.8510 C   0  0  0  0  0  0  0  0  0  0  0  0
   38.3580   34.2740   40.1160 C   0  0  0  0  0  0  0  0  0  0  0  0
   37.2620   33.5640   39.3980 C   0  0  0  0  0  0  0  0  0  0  0  0
   37.6630   32.3260   38.7760 C   0  0  0  0  0  0  0  0  0  0  0  0
   38.5380   31.4270   39.6780 C   0  0  2  0  0  0  0  0  0  0  0  0
   40.1040   32.7250   39.0360 H   0  0  0  0  0  0  0  0  0  0  0  0
   40.2830   33.9530   41.0120 H   0  0  0  0  0  0  0  0  0  0  0  0
   38.9810   33.0730   41.8320 H   0  0  0  0  0  0  0  0  0  0  0  0
   38.9640   34.9850   39.5230 H   0  0  0  0  0  0  0  0  0  0  0  0
   37.8640   34.9210   40.8940 H   0  0  0  0  0  0  0  0  0  0  0  0
   36.2310   33.7800   39.6810 H   0  0  0  0  0  0  0  0  0  0  0  0
   37.2040   34.2360   38.4500 H   0  0  0  0  0  0  0  0  0  0  0  0
   38.2170   32.3630   37.8050 H   0  0  0  0  0  0  0  0  0  0  0  0
   36.7560   31.7020   38.5560 H   0  0  0  0  0  0  0  0  0  0  0  0
   38.6610   30.5500   39.0390 H   0  0  0  0  0  0  0  0  0  0  0  0
   37.8100   31.1700   40.9220 N   0  0  0  0  0  0  0  0  0  0  0  0
   36.8460   30.2050   41.2580 C   0  0  0  0  0  0  0  0  0  0  0  0
   37.1400   28.9820   41.5130 O   0  0  0  0  0  0  0  0  0  0  0  0
   35.5040   30.6900   41.3020 N   0  0  0  0  0  0  0  0  0  0  0  0
   37.9110   31.8200   41.7910 H   0  0  0  0  0  0  0  0  0  0  0  0
   35.1380   31.4720   41.9210 H   0  0  0  0  0  0  0  0  0  0  0  0
   34.5360   30.6030   40.9250 H   0  0  0  0  0  0  0  0  0  0  0  0
   41.2470   28.2830   42.3760 C   0  0  0  0  0  0  0  0  0  0  0  0
   41.8890   27.9460   43.5460 C   0  0  0  0  0  0  0  0  0  0  0  0
   41.6610   26.7770   44.2400 C   0  0  0  0  0  0  0  0  0  0  0  0
   40.7200   25.9340   43.6760 C   0  0  0  0  0  0  0  0  0  0  0  0
   40.0740   26.2600   42.5090 C   0  0  0  0  0  0  0  0  0  0  0  0
   40.3400   27.4350   41.8640 N   0  0  0  0  0  0  0  0  0  0  0  0
   42.6070   28.6690   43.9050 H   0  0  0  0  0  0  0  0  0  0  0  0
   42.1690   26.5340   45.1440 H   0  0  0  0  0  0  0  0  0  0  0  0
   40.5280   25.0130   44.2060 H   0  0  0  0  0  0  0  0  0  0  0  0
   37.3420   26.3830   43.1420 F   0  0  0  0  0  0  0  0  0  0  0  0
   37.7440   25.4620   42.2340 C   0  0  0  0  0  0  0  0  0  0  0  0
   39.0810   25.3810   41.9060 C   0  0  0  0  0  0  0  0  0  0  0  0
   39.3710   24.4080   40.9730 C   0  0  0  0  0  0  0  0  0  0  0  0
   40.3810   24.2670   40.6530 H   0  0  0  0  0  0  0  0  0  0  0  0
   38.4200   23.5820   40.4100 C   0  0  0  0  0  0  0  0  0  0  0  0
   38.6830   22.8300   39.6810 H   0  0  0  0  0  0  0  0  0  0  0  0
   37.0980   23.7130   40.7800 C   0  0  0  0  0  3  0  0  0  0  0  0
   36.7410   24.6720   41.7130 C   0  0  0  0  0  3  0  0  0  0  0  0
  1  6  1  0  0  0  0
  2  1  2  0  0  0  0
  2  3  1  0  0  0  0
  3  8  1  0  0  0  0
  3  4  2  0  0  0  0
  4  5  1  0  0  0  0
  5 32  1  0  0  0  0
  6  5  2  0  0  0  0
  7  2  1  0  0  0  0
  9 15  1  6  0  0  0
  9  1  1  0  0  0  0
  9 10  1  0  0  0  0
 10 16  1  0  0  0  0
 10 17  1  0  0  0  0
 11 10  1  0  0  0  0
 11 19  1  0  0  0  0
 12 20  1  0  0  0  0
 12 11  1  0  0  0  0
 13 12  1  0  0  0  0
 13 14  1  0  0  0  0
 14 24  1  6  0  0  0
 14  9  1  0  0  0  0
 14 25  1  0  0  0  0
 18 11  1  0  0  0  0
 21 12  1  0  0  0  0
 22 13  1  0  0  0  0
 23 13  1  0  0  0  0
 25 26  1  0  0  0  0
 25 29  1  0  0  0  0
 26 28  1  0  0  0  0
 26 27  2  0  0  0  0
 28 30  1  0  0  0  0
 31 28  1  0  0  0  0
 32 33  1  0  0  0  0
 33 38  1  0  0  0  0
 33 34  2  0  0  0  0
 34 39  1  0  0  0  0
 35 40  1  0  0  0  0
 35 34  1  0  0  0  0
 36 35  2  0  0  0  0
 37 32  2  0  0  0  0
 37 36  1  0  0  0  0
 42 41  1  0  0  0  0
 43 42  1  0  0  0  0
 43 36  1  0  0  0  0
 44 43  2  0  0  0  0
 45 44  1  0  0  0  0
 46 48  2  0  0  0  0
 46 44  1  0  0  0  0
 47 46  1  0  0  0  0
 48 49  1  0  0  0  0
 49 42  2  0  0  0  0
M  END
>  <minimizedAffinity>
-6.9141736

$$$$

 OpenBabel03252507343D

 49 52  0  0  1  0  0  0  0  0999 V2000
   37.6080   30.9930   39.6490 C   0  0  0  0  0  0  0  0  0  0  0  0
   36.6830   31.0200   38.6180 C   0  0  0  0  0  0  0  0  0  0  0  0
   36.0670   29.8180   38.1980 C   0  0  0  0  0  0  0  0  0  0  0  0
   36.4460   28.6600   38.8720 N   0  0  0  0  0  0  0  0  0  0  0  0
   37.3490   28.7020   39.8600 C   0  0  0  0  0  0  0  0  0  0  0  0
   37.9170   29.8440   40.2420 N   0  0  0  0  0  0  0  0  0  0  0  0
   36.2840   31.7620   37.9590 H   0  0  0  0  0  0  0  0  0  0  0  0
   35.3370   29.6670   37.4280 H   0  0  0  0  0  0  0  0  0  0  0  0
   38.1920   32.2550   40.0580 C   0  0  2  0  0  0  0  0  0  0  0  0
   37.4830   33.4620   39.3730 C   0  0  0  0  0  0  0  0  0  0  0  0
   38.0110   34.7340   39.9460 C   0  0  0  0  0  0  0  0  0  0  0  0
   39.4900   34.8150   40.1100 C   0  0  0  0  0  0  0  0  0  0  0  0
   40.1100   33.5820   40.5290 C   0  0  0  0  0  0  0  0  0  0  0  0
   39.6100   32.3370   39.7650 C   0  0  2  0  0  0  0  0  0  0  0  0
   37.9790   32.4530   41.1350 H   0  0  0  0  0  0  0  0  0  0  0  0
   36.4150   33.3310   39.6420 H   0  0  0  0  0  0  0  0  0  0  0  0
   37.5510   33.3930   38.2830 H   0  0  0  0  0  0  0  0  0  0  0  0
   37.3980   34.9480   40.8430 H   0  0  0  0  0  0  0  0  0  0  0  0
   37.7250   35.5470   39.2210 H   0  0  0  0  0  0  0  0  0  0  0  0
   40.0290   35.6010   39.5790 H   0  0  0  0  0  0  0  0  0  0  0  0
   39.5270   35.3920   41.1200 H   0  0  0  0  0  0  0  0  0  0  0  0
   40.0510   33.2850   41.6060 H   0  0  0  0  0  0  0  0  0  0  0  0
   41.2110   33.6190   40.3110 H   0  0  0  0  0  0  0  0  0  0  0  0
   40.2440   31.5600   40.1950 H   0  0  0  0  0  0  0  0  0  0  0  0
   39.8140   32.5600   38.3320 N   0  0  0  0  0  0  0  0  0  0  0  0
   40.9480   32.4090   37.5170 C   0  0  0  0  0  0  0  0  0  0  0  0
   41.3690   31.2670   37.1080 O   0  0  0  0  0  0  0  0  0  0  0  0
   41.5990   33.6300   37.1660 N   0  0  0  0  0  0  0  0  0  0  0  0
   39.0310   32.9740   37.6970 H   0  0  0  0  0  0  0  0  0  0  0  0
   41.1640   34.4480   36.6470 H   0  0  0  0  0  0  0  0  0  0  0  0
   42.4820   34.1840   37.1980 H   0  0  0  0  0  0  0  0  0  0  0  0
   37.7220   27.4440   40.5150 C   0  0  0  0  0  0  0  0  0  0  0  0
   36.9200   26.3290   40.4190 C   0  0  0  0  0  0  0  0  0  0  0  0
   37.2130   25.1180   41.0070 C   0  0  0  0  0  0  0  0  0  0  0  0
   38.3970   25.0840   41.7220 C   0  0  0  0  0  0  0  0  0  0  0  0
   39.2040   26.1890   41.8240 C   0  0  0  0  0  0  0  0  0  0  0  0
   38.8630   27.3660   41.2190 N   0  0  0  0  0  0  0  0  0  0  0  0
   36.0180   26.4580   39.8400 H   0  0  0  0  0  0  0  0  0  0  0  0
   36.5790   24.2670   40.9220 H   0  0  0  0  0  0  0  0  0  0  0  0
   38.6430   24.1420   42.1900 H   0  0  0  0  0  0  0  0  0  0  0  0
   39.9070   28.1760   43.6780 F   0  0  0  0  0  0  0  0  0  0  0  0
   40.7740   27.1540   43.4810 C   0  0  0  0  0  0  0  0  0  0  0  0
   40.4530   26.1650   42.5750 C   0  0  0  0  0  0  0  0  0  0  0  0
   41.4090   25.1800   42.4590 C   0  0  0  0  0  0  0  0  0  0  0  0
   41.2520   24.3680   41.7810 H   0  0  0  0  0  0  0  0  0  0  0  0
   42.5880   25.1700   43.1770 C   0  0  0  0  0  0  0  0  0  0  0  0
   43.3150   24.3810   43.0600 H   0  0  0  0  0  0  0  0  0  0  0  0
   42.8510   26.1890   44.0680 C   0  0  0  0  0  3  0  0  0  0  0  0
   41.9300   27.2090   44.2310 C   0  0  0  0  0  3  0  0  0  0  0  0
  1  9  1  0  0  0  0
  1  6  1  0  0  0  0
  2  1  2  0  0  0  0
  3  2  1  0  0  0  0
  3  4  2  0  0  0  0
  4  5  1  0  0  0  0
  5  6  2  0  0  0  0
  5 32  1  0  0  0  0
  7  2  1  0  0  0  0
  8  3  1  0  0  0  0
  9 15  1  1  0  0  0
 10 16  1  0  0  0  0
 10 11  1  0  0  0  0
 10  9  1  0  0  0  0
 11 12  1  0  0  0  0
 11 18  1  0  0  0  0
 12 13  1  0  0  0  0
 12 21  1  0  0  0  0
 13 22  1  0  0  0  0
 14  9  1  0  0  0  0
 14 24  1  1  0  0  0
 14 13  1  0  0  0  0
 17 10  1  0  0  0  0
 19 11  1  0  0  0  0
 20 12  1  0  0  0  0
 23 13  1  0  0  0  0
 25 14  1  0  0  0  0
 26 25  1  0  0  0  0
 27 26  2  0  0  0  0
 28 31  1  0  0  0  0
 28 26  1  0  0  0  0
 29 25  1  0  0  0  0
 30 28  1  0  0  0  0
 32 37  1  0  0  0  0
 33 32  2  0  0  0  0
 33 34  1  0  0  0  0
 34 35  2  0  0  0  0
 35 36  1  0  0  0  0
 35 40  1  0  0  0  0
 36 43  1  0  0  0  0
 37 36  2  0  0  0  0
 38 33  1  0  0  0  0
 39 34  1  0  0  0  0
 42 41  1  0  0  0  0
 42 49  1  0  0  0  0
 43 42  2  0  0  0  0
 44 43  1  0  0  0  0
 44 46  2  0  0  0  0
 45 44  1  0  0  0  0
 46 48  1  0  0  0  0
 47 46  1  0  0  0  0
 48 49  2  0  0  0  0
M  END
>  <minimizedAffinity>
-6.8783288

$$$$

 OpenBabel03252507343D

 49 52  0  0  1  0  0  0  0  0999 V2000
   41.4770   30.6690   41.3460 C   0  0  0  0  0  0  0  0  0  0  0  0
   42.6310   30.3160   42.0250 C   0  0  0  0  0  0  0  0  0  0  0  0
   42.6130   29.2170   42.9150 C   0  0  0  0  0  0  0  0  0  0  0  0
   41.3990   28.5500   43.0490 N   0  0  0  0  0  0  0  0  0  0  0  0
   40.3170   28.9430   42.3640 C   0  0  0  0  0  0  0  0  0  0  0  0
   40.3550   29.9800   41.5300 N   0  0  0  0  0  0  0  0  0  0  0  0
   43.6290   30.6970   42.1000 H   0  0  0  0  0  0  0  0  0  0  0  0
   43.4100   28.8170   43.5090 H   0  0  0  0  0  0  0  0  0  0  0  0
   41.5540   31.7870   40.4260 C   0  0  2  0  0  0  0  0  0  0  0  0
   41.8770   33.1180   41.1710 C   0  0  0  0  0  0  0  0  0  0  0  0
   42.1030   34.2000   40.1690 C   0  0  0  0  0  0  0  0  0  0  0  0
   41.1280   34.2670   39.0450 C   0  0  0  0  0  0  0  0  0  0  0  0
   40.6950   32.9810   38.5560 C   0  0  0  0  0  0  0  0  0  0  0  0
   40.3310   31.9770   39.6710 C   0  0  2  0  0  0  0  0  0  0  0  0
   42.4420   31.6840   39.7600 H   0  0  0  0  0  0  0  0  0  0  0  0
   42.8160   32.8950   41.7180 H   0  0  0  0  0  0  0  0  0  0  0  0
   41.1140   33.3460   41.9210 H   0  0  0  0  0  0  0  0  0  0  0  0
   43.1750   34.1520   39.8970 H   0  0  0  0  0  0  0  0  0  0  0  0
   42.0090   35.1710   40.7320 H   0  0  0  0  0  0  0  0  0  0  0  0
   40.5410   35.1780   38.9200 H   0  0  0  0  0  0  0  0  0  0  0  0
   41.8610   34.5520   38.1880 H   0  0  0  0  0  0  0  0  0  0  0  0
   41.3720   32.4040   37.8770 H   0  0  0  0  0  0  0  0  0  0  0  0
   39.7450   33.1000   37.9680 H   0  0  0  0  0  0  0  0  0  0  0  0
   39.9840   31.1270   39.0810 H   0  0  0  0  0  0  0  0  0  0  0  0
   39.3040   32.5810   40.5220 N   0  0  0  0  0  0  0  0  0  0  0  0
   37.9020   32.4770   40.5100 C   0  0  0  0  0  0  0  0  0  0  0  0
   37.2740   31.4550   40.9670 O   0  0  0  0  0  0  0  0  0  0  0  0
   37.2240   33.6040   39.9570 N   0  0  0  0  0  0  0  0  0  0  0  0
   39.5520   33.3050   41.2970 H   0  0  0  0  0  0  0  0  0  0  0  0
   37.2850   34.6070   40.3020 H   0  0  0  0  0  0  0  0  0  0  0  0
   36.5680   33.9480   39.2230 H   0  0  0  0  0  0  0  0  0  0  0  0
   39.0620   28.2120   42.5670 C   0  0  0  0  0  0  0  0  0  0  0  0
   38.1550   28.6120   43.5230 C   0  0  0  0  0  0  0  0  0  0  0  0
   36.9580   27.9710   43.7630 C   0  0  0  0  0  0  0  0  0  0  0  0
   36.7120   26.8690   42.9640 C   0  0  0  0  0  0  0  0  0  0  0  0
   37.6090   26.4620   42.0080 C   0  0  0  0  0  0  0  0  0  0  0  0
   38.7820   27.1360   41.8130 N   0  0  0  0  0  0  0  0  0  0  0  0
   38.4390   29.4820   44.0950 H   0  0  0  0  0  0  0  0  0  0  0  0
   36.2690   28.2950   44.5080 H   0  0  0  0  0  0  0  0  0  0  0  0
   35.7780   26.3540   43.1380 H   0  0  0  0  0  0  0  0  0  0  0  0
   38.7050   23.9310   42.5280 F   0  0  0  0  0  0  0  0  0  0  0  0
   37.9110   24.0690   41.4390 C   0  0  0  0  0  0  0  0  0  0  0  0
   37.3610   25.3030   41.1610 C   0  0  0  0  0  0  0  0  0  0  0  0
   36.5720   25.3220   40.0300 C   0  0  0  0  0  0  0  0  0  0  0  0
   36.1010   26.2330   39.7310 H   0  0  0  0  0  0  0  0  0  0  0  0
   36.3460   24.2160   39.2380 C   0  0  0  0  0  0  0  0  0  0  0  0
   35.7220   24.2680   38.3580 H   0  0  0  0  0  0  0  0  0  0  0  0
   36.9260   23.0090   39.5690 C   0  0  0  0  0  3  0  0  0  0  0  0
   37.7290   22.9240   40.6940 C   0  0  0  0  0  3  0  0  0  0  0  0
  1  6  2  0  0  0  0
  1  2  1  0  0  0  0
  2  7  1  0  0  0  0
  2  3  2  0  0  0  0
  3  4  1  0  0  0  0
  3  8  1  0  0  0  0
  5 32  1  0  0  0  0
  5  4  2  0  0  0  0
  6  5  1  0  0  0  0
  9 15  1  6  0  0  0
  9 10  1  0  0  0  0
  9  1  1  0  0  0  0
 10 16  1  0  0  0  0
 10 17  1  0  0  0  0
 11 19  1  0  0  0  0
 11 10  1  0  0  0  0
 12 11  1  0  0  0  0
 13 12  1  0  0  0  0
 13 14  1  0  0  0  0
 14 24  1  6  0  0  0
 14  9  1  0  0  0  0
 14 25  1  0  0  0  0
 18 11  1  0  0  0  0
 20 12  1  0  0  0  0
 21 12  1  0  0  0  0
 22 13  1  0  0  0  0
 23 13  1  0  0  0  0
 25 29  1  0  0  0  0
 26 25  1  0  0  0  0
 26 27  2  0  0  0  0
 28 30  1  0  0  0  0
 28 26  1  0  0  0  0
 31 28  1  0  0  0  0
 32 33  1  0  0  0  0
 33 34  2  0  0  0  0
 33 38  1  0  0  0  0
 34 39  1  0  0  0  0
 35 40  1  0  0  0  0
 35 34  1  0  0  0  0
 36 35  2  0  0  0  0
 37 36  1  0  0  0  0
 37 32  2  0  0  0  0
 42 41  1  0  0  0  0
 43 42  1  0  0  0  0
 43 36  1  0  0  0  0
 44 43  2  0  0  0  0
 45 44  1  0  0  0  0
 46 48  2  0  0  0  0
 46 44  1  0  0  0  0
 47 46  1  0  0  0  0
 48 49  1  0  0  0  0
 49 42  2  0  0  0  0
M  END
>  <minimizedAffinity>
-6.83421135

$$$$

 OpenBabel03252507343D

 49 52  0  0  1  0  0  0  0  0999 V2000
   39.2830   32.1370   40.7730 C   0  0  0  0  0  0  0  0  0  0  0  0
   38.2590   32.8290   40.1450 C   0  0  0  0  0  0  0  0  0  0  0  0
   36.9520   32.2880   40.1360 C   0  0  0  0  0  0  0  0  0  0  0  0
   36.7840   31.0640   40.7760 N   0  0  0  0  0  0  0  0  0  0  0  0
   37.8170   30.4450   41.3630 C   0  0  0  0  0  0  0  0  0  0  0  0
   39.0410   30.9710   41.3620 N   0  0  0  0  0  0  0  0  0  0  0  0
   38.1730   33.7330   39.5810 H   0  0  0  0  0  0  0  0  0  0  0  0
   36.0590   32.6920   39.7020 H   0  0  0  0  0  0  0  0  0  0  0  0
   40.5990   32.7460   40.7770 C   0  0  2  0  0  0  0  0  0  0  0  0
   40.5550   34.2060   40.2330 C   0  0  0  0  0  0  0  0  0  0  0  0
   41.8950   34.8370   40.4070 C   0  0  0  0  0  0  0  0  0  0  0  0
   43.0680   34.0010   40.0250 C   0  0  0  0  0  0  0  0  0  0  0  0
   42.9370   32.6040   40.3580 C   0  0  0  0  0  0  0  0  0  0  0  0
   41.5630   32.0000   39.9930 C   0  0  2  0  0  0  0  0  0  0  0  0
   40.9500   32.9090   41.8230 H   0  0  0  0  0  0  0  0  0  0  0  0
   39.8040   34.7070   40.8770 H   0  0  0  0  0  0  0  0  0  0  0  0
   40.1700   34.2340   39.2090 H   0  0  0  0  0  0  0  0  0  0  0  0
   41.9030   35.2710   41.4250 H   0  0  0  0  0  0  0  0  0  0  0  0
   41.9080   35.7360   39.7290 H   0  0  0  0  0  0  0  0  0  0  0  0
   43.7300   34.3650   39.2380 H   0  0  0  0  0  0  0  0  0  0  0  0
   43.8010   34.3240   40.8700 H   0  0  0  0  0  0  0  0  0  0  0  0
   43.1060   32.2820   41.4160 H   0  0  0  0  0  0  0  0  0  0  0  0
   43.6740   32.0020   39.7620 H   0  0  0  0  0  0  0  0  0  0  0  0
   41.7160   30.9550   40.2710 H   0  0  0  0  0  0  0  0  0  0  0  0
   41.3250   32.2170   38.5650 N   0  0  0  0  0  0  0  0  0  0  0  0
   40.8200   31.3710   37.5640 C   0  0  0  0  0  0  0  0  0  0  0  0
   39.5700   31.1050   37.4390 O   0  0  0  0  0  0  0  0  0  0  0  0
   41.8050   30.8310   36.6830 N   0  0  0  0  0  0  0  0  0  0  0  0
   41.6120   33.1440   38.0690 H   0  0  0  0  0  0  0  0  0  0  0  0
   42.4720   31.3860   36.0710 H   0  0  0  0  0  0  0  0  0  0  0  0
   42.2460   29.9690   36.2980 H   0  0  0  0  0  0  0  0  0  0  0  0
   37.5790   29.1470   42.0000 C   0  0  0  0  0  0  0  0  0  0  0  0
   37.4700   29.0380   43.3690 C   0  0  0  0  0  0  0  0  0  0  0  0
   37.2450   27.8500   44.0310 C   0  0  0  0  0  0  0  0  0  0  0  0
   37.1310   26.7370   43.2160 C   0  0  0  0  0  0  0  0  0  0  0  0
   37.2370   26.8340   41.8510 C   0  0  0  0  0  0  0  0  0  0  0  0
   37.4610   28.0400   41.2490 N   0  0  0  0  0  0  0  0  0  0  0  0
   37.5750   29.9630   43.9160 H   0  0  0  0  0  0  0  0  0  0  0  0
   37.1650   27.7860   45.0910 H   0  0  0  0  0  0  0  0  0  0  0  0
   36.9540   25.7970   43.7180 H   0  0  0  0  0  0  0  0  0  0  0  0
   38.3160   24.3280   42.5080 F   0  0  0  0  0  0  0  0  0  0  0  0
   37.6570   24.4490   41.3310 C   0  0  0  0  0  0  0  0  0  0  0  0
   37.1180   25.6690   40.9840 C   0  0  0  0  0  0  0  0  0  0  0  0
   36.4720   25.6710   39.7660 C   0  0  0  0  0  0  0  0  0  0  0  0
   36.0210   26.5710   39.4080 H   0  0  0  0  0  0  0  0  0  0  0  0
   36.3680   24.5590   38.9550 C   0  0  0  0  0  0  0  0  0  0  0  0
   35.8540   24.5970   38.0060 H   0  0  0  0  0  0  0  0  0  0  0  0
   36.9290   23.3660   39.3590 C   0  0  0  0  0  3  0  0  0  0  0  0
   37.5910   23.2990   40.5730 C   0  0  0  0  0  3  0  0  0  0  0  0
  1  9  1  0  0  0  0
  1  6  1  0  0  0  0
  2  1  2  0  0  0  0
  3  2  1  0  0  0  0
  3  4  2  0  0  0  0
  4  5  1  0  0  0  0
  5 32  1  0  0  0  0
  6  5  2  0  0  0  0
  7  2  1  0  0  0  0
  8  3  1  0  0  0  0
  9 15  1  1  0  0  0
 10 11  1  0  0  0  0
 10  9  1  0  0  0  0
 10 16  1  0  0  0  0
 11 18  1  0  0  0  0
 12 13  1  0  0  0  0
 12 11  1  0  0  0  0
 12 21  1  0  0  0  0
 13 22  1  0  0  0  0
 14 24  1  1  0  0  0
 14 13  1  0  0  0  0
 14  9  1  0  0  0  0
 17 10  1  0  0  0  0
 19 11  1  0  0  0  0
 20 12  1  0  0  0  0
 23 13  1  0  0  0  0
 25 14  1  0  0  0  0
 26 25  1  0  0  0  0
 27 26  2  0  0  0  0
 28 26  1  0  0  0  0
 29 25  1  0  0  0  0
 30 28  1  0  0  0  0
 31 28  1  0  0  0  0
 32 33  1  0  0  0  0
 33 38  1  0  0  0  0
 33 34  2  0  0  0  0
 34 39  1  0  0  0  0
 35 40  1  0  0  0  0
 35 34  1  0  0  0  0
 36 35  2  0  0  0  0
 37 36  1  0  0  0  0
 37 32  2  0  0  0  0
 42 41  1  0  0  0  0
 43 42  1  0  0  0  0
 43 36  1  0  0  0  0
 44 43  2  0  0  0  0
 45 44  1  0  0  0  0
 46 48  2  0  0  0  0
 46 44  1  0  0  0  0
 47 46  1  0  0  0  0
 48 49  1  0  0  0  0
 49 42  2  0  0  0  0
M  END
>  <minimizedAffinity>
-6.79455996

$$$$

 OpenBabel03252507343D

 49 52  0  0  1  0  0  0  0  0999 V2000
   38.4510   31.4060   40.1310 C   0  0  0  0  0  0  0  0  0  0  0  0
   37.1290   31.7800   40.3030 C   0  0  0  0  0  0  0  0  0  0  0  0
   36.2520   30.9410   41.0300 C   0  0  0  0  0  0  0  0  0  0  0  0
   36.7980   29.7640   41.5340 N   0  0  0  0  0  0  0  0  0  0  0  0
   38.0870   29.4590   41.3300 C   0  0  0  0  0  0  0  0  0  0  0  0
   38.8970   30.2630   40.6440 N   0  0  0  0  0  0  0  0  0  0  0  0
   36.5090   32.5920   39.9830 H   0  0  0  0  0  0  0  0  0  0  0  0
   35.2140   31.0830   41.2540 H   0  0  0  0  0  0  0  0  0  0  0  0
   39.3160   32.3120   39.4000 C   0  0  2  0  0  0  0  0  0  0  0  0
   40.2440   31.5430   38.4110 C   0  0  0  0  0  0  0  0  0  0  0  0
   40.9940   32.5250   37.5750 C   0  0  0  0  0  0  0  0  0  0  0  0
   41.5810   33.6890   38.2980 C   0  0  0  0  0  0  0  0  0  0  0  0
   40.7560   34.2060   39.3610 C   0  0  0  0  0  0  0  0  0  0  0  0
   40.1500   33.1150   40.2720 C   0  0  2  0  0  0  0  0  0  0  0  0
   38.7180   32.9420   38.7000 H   0  0  0  0  0  0  0  0  0  0  0  0
   39.5400   30.9590   37.7850 H   0  0  0  0  0  0  0  0  0  0  0  0
   40.8760   30.8240   38.9420 H   0  0  0  0  0  0  0  0  0  0  0  0
   40.3450   32.7530   36.7080 H   0  0  0  0  0  0  0  0  0  0  0  0
   41.8580   31.9580   37.1270 H   0  0  0  0  0  0  0  0  0  0  0  0
   42.6620   33.8300   38.2620 H   0  0  0  0  0  0  0  0  0  0  0  0
   41.3880   34.5120   37.4980 H   0  0  0  0  0  0  0  0  0  0  0  0
   39.8860   34.8610   39.1020 H   0  0  0  0  0  0  0  0  0  0  0  0
   41.3800   34.8320   40.0540 H   0  0  0  0  0  0  0  0  0  0  0  0
   39.6340   33.7270   41.0150 H   0  0  0  0  0  0  0  0  0  0  0  0
   41.2420   32.3030   40.8110 N   0  0  0  0  0  0  0  0  0  0  0  0
   41.6410   32.0340   42.1320 C   0  0  0  0  0  0  0  0  0  0  0  0
   41.0280   31.2010   42.8910 O   0  0  0  0  0  0  0  0  0  0  0  0
   42.7940   32.7560   42.5660 N   0  0  0  0  0  0  0  0  0  0  0  0
   41.9760   31.8240   40.1640 H   0  0  0  0  0  0  0  0  0  0  0  0
   43.7580   32.7270   42.1220 H   0  0  0  0  0  0  0  0  0  0  0  0
   43.1870   33.4270   43.2600 H   0  0  0  0  0  0  0  0  0  0  0  0
   38.5950   28.1930   41.8670 C   0  0  0  0  0  0  0  0  0  0  0  0
   39.1930   28.1380   43.1070 C   0  0  0  0  0  0  0  0  0  0  0  0
   39.6900   26.9830   43.6710 C   0  0  0  0  0  0  0  0  0  0  0  0
   39.5500   25.8450   42.8970 C   0  0  0  0  0  0  0  0  0  0  0  0
   38.9550   25.8880   41.6600 C   0  0  0  0  0  0  0  0  0  0  0  0
   38.4800   27.0640   41.1500 N   0  0  0  0  0  0  0  0  0  0  0  0
   39.2560   29.0800   43.6320 H   0  0  0  0  0  0  0  0  0  0  0  0
   40.1500   26.9610   44.6310 H   0  0  0  0  0  0  0  0  0  0  0  0
   39.9330   24.9300   43.3230 H   0  0  0  0  0  0  0  0  0  0  0  0
   36.8960   24.0210   42.0480 F   0  0  0  0  0  0  0  0  0  0  0  0
   37.7810   23.7940   41.0470 C   0  0  0  0  0  0  0  0  0  0  0  0
   38.8020   24.6960   40.8360 C   0  0  0  0  0  0  0  0  0  0  0  0
   39.6380   24.3620   39.7920 C   0  0  0  0  0  0  0  0  0  0  0  0
   40.4610   24.9990   39.5490 H   0  0  0  0  0  0  0  0  0  0  0  0
   39.4800   23.2290   39.0200 C   0  0  0  0  0  0  0  0  0  0  0  0
   40.1550   22.9980   38.2100 H   0  0  0  0  0  0  0  0  0  0  0  0
   38.4380   22.3650   39.2820 C   0  0  0  0  0  3  0  0  0  0  0  0
   37.5620   22.6450   40.3170 C   0  0  0  0  0  3  0  0  0  0  0  0
  1  2  2  0  0  0  0
  1  6  1  0  0  0  0
  2  3  1  0  0  0  0
  3  8  1  0  0  0  0
  3  4  2  0  0  0  0
  5  4  1  0  0  0  0
  5 32  1  0  0  0  0
  6  5  2  0  0  0  0
  7  2  1  0  0  0  0
  9 15  1  6  0  0  0
  9  1  1  0  0  0  0
  9 14  1  0  0  0  0
 10 17  1  0  0  0  0
 10  9  1  0  0  0  0
 11 12  1  0  0  0  0
 11 10  1  0  0  0  0
 12 13  1  0  0  0  0
 13 23  1  0  0  0  0
 13 14  1  0  0  0  0
 14 25  1  0  0  0  0
 14 24  1  1  0  0  0
 16 10  1  0  0  0  0
 18 11  1  0  0  0  0
 19 11  1  0  0  0  0
 20 12  1  0  0  0  0
 21 12  1  0  0  0  0
 22 13  1  0  0  0  0
 25 26  1  0  0  0  0
 26 28  1  0  0  0  0
 26 27  2  0  0  0  0
 28 31  1  0  0  0  0
 29 25  1  0  0  0  0
 30 28  1  0  0  0  0
 32 33  1  0  0  0  0
 33 38  1  0  0  0  0
 33 34  2  0  0  0  0
 34 39  1  0  0  0  0
 35 40  1  0  0  0  0
 35 34  1  0  0  0  0
 36 35  2  0  0  0  0
 37 36  1  0  0  0  0
 37 32  2  0  0  0  0
 42 41  1  0  0  0  0
 43 42  1  0  0  0  0
 43 36  1  0  0  0  0
 44 43  2  0  0  0  0
 45 44  1  0  0  0  0
 46 48  2  0  0  0  0
 46 44  1  0  0  0  0
 47 46  1  0  0  0  0
 48 49  1  0  0  0  0
 49 42  2  0  0  0  0
M  END
>  <minimizedAffinity>
-6.72086811

$$$$

 OpenBabel03252507343D

 49 52  0  0  1  0  0  0  0  0999 V2000
   37.3630   27.0730   39.0560 C   0  0  0  0  0  0  0  0  0  0  0  0
   38.2090   28.1220   38.7360 C   0  0  0  0  0  0  0  0  0  0  0  0
   37.7710   29.1270   37.8420 C   0  0  0  0  0  0  0  0  0  0  0  0
   36.4840   28.9850   37.3330 N   0  0  0  0  0  0  0  0  0  0  0  0
   35.7160   27.9440   37.6810 C   0  0  0  0  0  0  0  0  0  0  0  0
   36.1460   27.0080   38.5250 N   0  0  0  0  0  0  0  0  0  0  0  0
   39.2140   28.4020   38.9720 H   0  0  0  0  0  0  0  0  0  0  0  0
   38.2940   29.9970   37.4970 H   0  0  0  0  0  0  0  0  0  0  0  0
   37.8490   26.0820   39.9960 C   0  0  2  0  0  0  0  0  0  0  0  0
   36.7400   25.0480   40.3600 C   0  0  0  0  0  0  0  0  0  0  0  0
   37.3320   23.9660   41.1980 C   0  0  0  0  0  0  0  0  0  0  0  0
   38.2390   24.4070   42.2940 C   0  0  0  0  0  0  0  0  0  0  0  0
   39.0810   25.5280   41.9550 C   0  0  0  0  0  0  0  0  0  0  0  0
   38.3390   26.6700   41.2260 C   0  0  2  0  0  0  0  0  0  0  0  0
   38.6130   25.4280   39.5140 H   0  0  0  0  0  0  0  0  0  0  0  0
   36.4190   24.6450   39.3770 H   0  0  0  0  0  0  0  0  0  0  0  0
   35.8700   25.5420   40.8040 H   0  0  0  0  0  0  0  0  0  0  0  0
   37.7320   23.2110   40.4930 H   0  0  0  0  0  0  0  0  0  0  0  0
   36.4650   23.4430   41.6910 H   0  0  0  0  0  0  0  0  0  0  0  0
   37.9740   24.1530   43.3210 H   0  0  0  0  0  0  0  0  0  0  0  0
   39.0300   23.5560   42.2270 H   0  0  0  0  0  0  0  0  0  0  0  0
   39.9920   25.3510   41.3300 H   0  0  0  0  0  0  0  0  0  0  0  0
   39.4740   26.0040   42.8930 H   0  0  0  0  0  0  0  0  0  0  0  0
   39.1380   27.4090   41.1310 H   0  0  0  0  0  0  0  0  0  0  0  0
   37.2150   27.1000   42.0610 N   0  0  0  0  0  0  0  0  0  0  0  0
   36.6990   28.3750   42.3460 C   0  0  0  0  0  0  0  0  0  0  0  0
   35.9670   29.0330   41.5220 O   0  0  0  0  0  0  0  0  0  0  0  0
   37.0440   28.8860   43.6340 N   0  0  0  0  0  0  0  0  0  0  0  0
   36.6450   26.3950   42.6640 H   0  0  0  0  0  0  0  0  0  0  0  0
   36.8210   28.4340   44.5690 H   0  0  0  0  0  0  0  0  0  0  0  0
   37.5050   29.6520   44.1690 H   0  0  0  0  0  0  0  0  0  0  0  0
   34.3780   27.8390   37.0920 C   0  0  0  0  0  0  0  0  0  0  0  0
   33.8790   26.6250   36.6740 C   0  0  0  0  0  0  0  0  0  0  0  0
   32.6310   26.4580   36.1150 C   0  0  0  0  0  0  0  0  0  0  0  0
   31.8820   27.6150   35.9930 C   0  0  0  0  0  0  0  0  0  0  0  0
   32.3690   28.8300   36.4060 C   0  0  0  0  0  0  0  0  0  0  0  0
   33.6160   28.9370   36.9550 N   0  0  0  0  0  0  0  0  0  0  0  0
   34.5410   25.7830   36.8110 H   0  0  0  0  0  0  0  0  0  0  0  0
   32.2630   25.5100   35.7970 H   0  0  0  0  0  0  0  0  0  0  0  0
   30.9010   27.5020   35.5560 H   0  0  0  0  0  0  0  0  0  0  0  0
   30.9400   29.9510   38.5460 F   0  0  0  0  0  0  0  0  0  0  0  0
   30.8970   30.5860   37.3500 C   0  0  0  0  0  0  0  0  0  0  0  0
   31.5900   30.0550   36.2830 C   0  0  0  0  0  0  0  0  0  0  0  0
   31.4720   30.7860   35.1200 C   0  0  0  0  0  0  0  0  0  0  0  0
   31.9730   30.4560   34.2350 H   0  0  0  0  0  0  0  0  0  0  0  0
   30.7300   31.9450   35.0180 C   0  0  0  0  0  0  0  0  0  0  0  0
   30.6600   32.4920   34.0890 H   0  0  0  0  0  0  0  0  0  0  0  0
   30.0590   32.4250   36.1230 C   0  0  0  0  0  3  0  0  0  0  0  0
   30.1380   31.7360   37.3220 C   0  0  0  0  0  3  0  0  0  0  0  0
  1  9  1  0  0  0  0
  2  7  1  0  0  0  0
  2  1  1  0  0  0  0
  3  2  2  0  0  0  0
  4  5  2  0  0  0  0
  4  3  1  0  0  0  0
  5  6  1  0  0  0  0
  6  1  2  0  0  0  0
  8  3  1  0  0  0  0
  9 15  1  6  0  0  0
  9 10  1  0  0  0  0
  9 14  1  0  0  0  0
 10 17  1  0  0  0  0
 10 11  1  0  0  0  0
 11 19  1  0  0  0  0
 11 12  1  0  0  0  0
 12 20  1  0  0  0  0
 13 12  1  0  0  0  0
 13 23  1  0  0  0  0
 14 24  1  6  0  0  0
 14 13  1  0  0  0  0
 14 25  1  0  0  0  0
 16 10  1  0  0  0  0
 18 11  1  0  0  0  0
 21 12  1  0  0  0  0
 22 13  1  0  0  0  0
 25 26  1  0  0  0  0
 25 29  1  0  0  0  0
 26 28  1  0  0  0  0
 27 26  2  0  0  0  0
 28 31  1  0  0  0  0
 28 30  1  0  0  0  0
 32  5  1  0  0  0  0
 33 38  1  0  0  0  0
 33 32  2  0  0  0  0
 34 33  1  0  0  0  0
 35 34  2  0  0  0  0
 35 36  1  0  0  0  0
 36 37  2  0  0  0  0
 37 32  1  0  0  0  0
 39 34  1  0  0  0  0
 40 35  1  0  0  0  0
 42 41  1  0  0  0  0
 43 36  1  0  0  0  0
 43 42  2  0  0  0  0
 44 43  1  0  0  0  0
 45 44  1  0  0  0  0
 46 44  2  0  0  0  0
 46 48  1  0  0  0  0
 47 46  1  0  0  0  0
 48 49  2  0  0  0  0
 49 42  1  0  0  0  0
M  END
>  <minimizedAffinity>
-6.62558031

$$$$

 OpenBabel03252507343D

 49 52  0  0  1  0  0  0  0  0999 V2000
   38.7970   31.6790   38.8320 C   0  0  0  0  0  0  0  0  0  0  0  0
   37.9640   31.5240   37.7360 C   0  0  0  0  0  0  0  0  0  0  0  0
   37.0470   30.4470   37.7010 C   0  0  0  0  0  0  0  0  0  0  0  0
   37.0490   29.5960   38.8020 N   0  0  0  0  0  0  0  0  0  0  0  0
   37.8830   29.8020   39.8300 C   0  0  0  0  0  0  0  0  0  0  0  0
   38.7380   30.8220   39.8460 N   0  0  0  0  0  0  0  0  0  0  0  0
   37.8230   32.0180   36.7970 H   0  0  0  0  0  0  0  0  0  0  0  0
   36.3390   30.1890   36.9380 H   0  0  0  0  0  0  0  0  0  0  0  0
   39.7010   32.8130   38.8310 C   0  0  2  0  0  0  0  0  0  0  0  0
   40.9900   32.5160   38.0050 C   0  0  0  0  0  0  0  0  0  0  0  0
   41.8070   33.7590   37.9030 C   0  0  0  0  0  0  0  0  0  0  0  0
   41.9680   34.5430   39.1600 C   0  0  0  0  0  0  0  0  0  0  0  0
   40.7910   34.5820   39.9920 C   0  0  0  0  0  0  0  0  0  0  0  0
   40.1020   33.2100   40.1660 C   0  0  2  0  0  0  0  0  0  0  0  0
   39.2610   33.6630   38.2590 H   0  0  0  0  0  0  0  0  0  0  0  0
   40.6040   32.2230   37.0070 H   0  0  0  0  0  0  0  0  0  0  0  0
   41.5260   31.6520   38.4090 H   0  0  0  0  0  0  0  0  0  0  0  0
   41.4290   34.3070   37.0190 H   0  0  0  0  0  0  0  0  0  0  0  0
   42.8400   33.4300   37.5970 H   0  0  0  0  0  0  0  0  0  0  0  0
   42.9750   34.7000   39.5480 H   0  0  0  0  0  0  0  0  0  0  0  0
   41.9110   35.6150   38.7110 H   0  0  0  0  0  0  0  0  0  0  0  0
   39.9560   35.2750   39.7170 H   0  0  0  0  0  0  0  0  0  0  0  0
   41.0740   34.8860   41.0350 H   0  0  0  0  0  0  0  0  0  0  0  0
   39.3000   33.4670   40.8620 H   0  0  0  0  0  0  0  0  0  0  0  0
   41.0830   32.2630   40.7000 N   0  0  0  0  0  0  0  0  0  0  0  0
   41.3610   31.8470   42.0130 C   0  0  0  0  0  0  0  0  0  0  0  0
   40.6280   31.0070   42.6490 O   0  0  0  0  0  0  0  0  0  0  0  0
   42.5310   32.4270   42.5890 N   0  0  0  0  0  0  0  0  0  0  0  0
   41.8220   31.7810   40.0610 H   0  0  0  0  0  0  0  0  0  0  0  0
   43.5200   32.3540   42.2090 H   0  0  0  0  0  0  0  0  0  0  0  0
   42.9240   32.9990   43.3660 H   0  0  0  0  0  0  0  0  0  0  0  0
   37.8510   28.8560   40.9510 C   0  0  0  0  0  0  0  0  0  0  0  0
   36.6660   28.5350   41.5740 C   0  0  0  0  0  0  0  0  0  0  0  0
   36.5660   27.6540   42.6290 C   0  0  0  0  0  0  0  0  0  0  0  0
   37.7620   27.0930   43.0410 C   0  0  0  0  0  0  0  0  0  0  0  0
   38.9490   27.4060   42.4260 C   0  0  0  0  0  0  0  0  0  0  0  0
   38.9880   28.2880   41.3830 N   0  0  0  0  0  0  0  0  0  0  0  0
   35.7890   29.0260   41.1800 H   0  0  0  0  0  0  0  0  0  0  0  0
   35.6400   27.4180   43.0990 H   0  0  0  0  0  0  0  0  0  0  0  0
   37.7030   26.4000   43.8670 H   0  0  0  0  0  0  0  0  0  0  0  0
   40.0220   25.0850   41.2690 F   0  0  0  0  0  0  0  0  0  0  0  0
   40.7200   25.6810   42.2650 C   0  0  0  0  0  0  0  0  0  0  0  0
   40.2150   26.8220   42.8510 C   0  0  0  0  0  0  0  0  0  0  0  0
   41.0110   27.3380   43.8500 C   0  0  0  0  0  0  0  0  0  0  0  0
   40.7050   28.2230   44.3660 H   0  0  0  0  0  0  0  0  0  0  0  0
   42.2080   26.7730   44.2420 C   0  0  0  0  0  0  0  0  0  0  0  0
   42.8060   27.2050   45.0300 H   0  0  0  0  0  0  0  0  0  0  0  0
   42.6600   25.6300   43.6160 C   0  0  0  0  0  3  0  0  0  0  0  0
   41.9060   25.0630   42.6030 C   0  0  0  0  0  3  0  0  0  0  0  0
  1  6  1  0  0  0  0
  2  1  2  0  0  0  0
  3  2  1  0  0  0  0
  3  4  2  0  0  0  0
  4  5  1  0  0  0  0
  5  6  2  0  0  0  0
  5 32  1  0  0  0  0
  7  2  1  0  0  0  0
  8  3  1  0  0  0  0
  9 15  1  6  0  0  0
  9  1  1  0  0  0  0
  9 14  1  0  0  0  0
 10 17  1  0  0  0  0
 10  9  1  0  0  0  0
 11 10  1  0  0  0  0
 11 12  1  0  0  0  0
 12 20  1  0  0  0  0
 12 13  1  0  0  0  0
 13 14  1  0  0  0  0
 13 23  1  0  0  0  0
 14 25  1  0  0  0  0
 14 24  1  1  0  0  0
 16 10  1  0  0  0  0
 18 11  1  0  0  0  0
 19 11  1  0  0  0  0
 21 12  1  0  0  0  0
 22 13  1  0  0  0  0
 25 26  1  0  0  0  0
 26 28  1  0  0  0  0
 26 27  2  0  0  0  0
 28 31  1  0  0  0  0
 29 25  1  0  0  0  0
 30 28  1  0  0  0  0
 32 37  2  0  0  0  0
 32 33  1  0  0  0  0
 33 34  2  0  0  0  0
 34 35  1  0  0  0  0
 34 39  1  0  0  0  0
 35 40  1  0  0  0  0
 36 43  1  0  0  0  0
 36 35  2  0  0  0  0
 37 36  1  0  0  0  0
 38 33  1  0  0  0  0
 41 42  1  0  0  0  0
 42 49  2  0  0  0  0
 42 43  1  0  0  0  0
 43 44  2  0  0  0  0
 44 46  1  0  0  0  0
 44 45  1  0  0  0  0
 46 47  1  0  0  0  0
 48 46  2  0  0  0  0
 49 48  1  0  0  0  0
M  END
>  <minimizedAffinity>
-6.57894611

$$$$

 OpenBabel03252507343D

 49 52  0  0  1  0  0  0  0  0999 V2000
   38.6810   30.4820   41.5110 C   0  0  0  0  0  0  0  0  0  0  0  0
   38.9640   29.9930   42.7760 C   0  0  0  0  0  0  0  0  0  0  0  0
   38.5640   28.6810   43.1250 C   0  0  0  0  0  0  0  0  0  0  0  0
   37.8950   27.9560   42.1430 N   0  0  0  0  0  0  0  0  0  0  0  0
   37.6510   28.4900   40.9390 C   0  0  0  0  0  0  0  0  0  0  0  0
   38.0360   29.7260   40.6290 N   0  0  0  0  0  0  0  0  0  0  0  0
   39.4170   30.3740   43.6670 H   0  0  0  0  0  0  0  0  0  0  0  0
   38.7060   28.1570   44.0490 H   0  0  0  0  0  0  0  0  0  0  0  0
   39.1330   31.8230   41.1940 C   0  0  2  0  0  0  0  0  0  0  0  0
   37.9920   32.6760   40.5610 C   0  0  0  0  0  0  0  0  0  0  0  0
   38.4590   34.0830   40.4030 C   0  0  0  0  0  0  0  0  0  0  0  0
   39.8310   34.2610   39.8490 C   0  0  0  0  0  0  0  0  0  0  0  0
   40.7880   33.2840   40.3070 C   0  0  0  0  0  0  0  0  0  0  0  0
   40.2620   31.8320   40.2850 C   0  0  2  0  0  0  0  0  0  0  0  0
   39.3470   32.3940   42.1280 H   0  0  0  0  0  0  0  0  0  0  0  0
   37.1740   32.6210   41.3090 H   0  0  0  0  0  0  0  0  0  0  0  0
   37.6180   32.2160   39.6420 H   0  0  0  0  0  0  0  0  0  0  0  0
   38.2400   34.5930   41.3610 H   0  0  0  0  0  0  0  0  0  0  0  0
   37.7530   34.5670   39.6700 H   0  0  0  0  0  0  0  0  0  0  0  0
   39.9460   34.8130   38.9150 H   0  0  0  0  0  0  0  0  0  0  0  0
   40.1700   35.1670   40.4940 H   0  0  0  0  0  0  0  0  0  0  0  0
   41.2330   33.3990   41.3270 H   0  0  0  0  0  0  0  0  0  0  0  0
   41.6740   33.2700   39.6170 H   0  0  0  0  0  0  0  0  0  0  0  0
   41.1510   31.2840   40.6020 H   0  0  0  0  0  0  0  0  0  0  0  0
   39.8150   31.5220   38.9250 N   0  0  0  0  0  0  0  0  0  0  0  0
   40.5260   31.3450   37.7260 C   0  0  0  0  0  0  0  0  0  0  0  0
   41.1740   30.2720   37.4510 O   0  0  0  0  0  0  0  0  0  0  0  0
   40.4660   32.4510   36.8260 N   0  0  0  0  0  0  0  0  0  0  0  0
   38.7580   31.4550   38.6690 H   0  0  0  0  0  0  0  0  0  0  0  0
   39.5870   32.8720   36.4040 H   0  0  0  0  0  0  0  0  0  0  0  0
   41.0050   33.1690   36.2960 H   0  0  0  0  0  0  0  0  0  0  0  0
   36.9220   27.6820   39.9560 C   0  0  0  0  0  0  0  0  0  0  0  0
   37.0350   26.3100   39.9410 C   0  0  0  0  0  0  0  0  0  0  0  0
   36.3770   25.4930   39.0470 C   0  0  0  0  0  0  0  0  0  0  0  0
   35.5700   26.1500   38.1360 C   0  0  0  0  0  0  0  0  0  0  0  0
   35.4490   27.5180   38.1420 C   0  0  0  0  0  0  0  0  0  0  0  0
   36.1260   28.2780   39.0530 N   0  0  0  0  0  0  0  0  0  0  0  0
   37.6900   25.8920   40.6910 H   0  0  0  0  0  0  0  0  0  0  0  0
   36.4790   24.4330   39.0510 H   0  0  0  0  0  0  0  0  0  0  0  0
   35.0460   25.5260   37.4270 H   0  0  0  0  0  0  0  0  0  0  0  0
   36.2770   28.1300   35.5310 F   0  0  0  0  0  0  0  0  0  0  0  0
   35.0320   28.5090   35.9090 C   0  0  0  0  0  0  0  0  0  0  0  0
   34.6020   28.2210   37.1870 C   0  0  0  0  0  0  0  0  0  0  0  0
   33.3220   28.6550   37.4580 C   0  0  0  0  0  0  0  0  0  0  0  0
   32.8970   28.4790   38.4230 H   0  0  0  0  0  0  0  0  0  0  0  0
   32.5310   29.3200   36.5430 C   0  0  0  0  0  0  0  0  0  0  0  0
   31.5320   29.6450   36.7900 H   0  0  0  0  0  0  0  0  0  0  0  0
   33.0200   29.5780   35.2800 C   0  0  0  0  0  3  0  0  0  0  0  0
   34.2990   29.1670   34.9450 C   0  0  0  0  0  3  0  0  0  0  0  0
  1  2  1  0  0  0  0
  2  3  2  0  0  0  0
  2  7  1  0  0  0  0
  3  8  1  0  0  0  0
  4  3  1  0  0  0  0
  5  4  2  0  0  0  0
  6  5  1  0  0  0  0
  6  1  2  0  0  0  0
  9  1  1  0  0  0  0
  9 15  1  1  0  0  0
 10  9  1  0  0  0  0
 10 16  1  0  0  0  0
 11 10  1  0  0  0  0
 11 18  1  0  0  0  0
 12 13  1  0  0  0  0
 12 11  1  0  0  0  0
 12 21  1  0  0  0  0
 13 22  1  0  0  0  0
 14 13  1  0  0  0  0
 14 24  1  1  0  0  0
 14  9  1  0  0  0  0
 17 10  1  0  0  0  0
 19 11  1  0  0  0  0
 20 12  1  0  0  0  0
 23 13  1  0  0  0  0
 25 14  1  0  0  0  0
 26 25  1  0  0  0  0
 27 26  2  0  0  0  0
 28 26  1  0  0  0  0
 29 25  1  0  0  0  0
 30 28  1  0  0  0  0
 31 28  1  0  0  0  0
 32  5  1  0  0  0  0
 33 32  1  0  0  0  0
 33 38  1  0  0  0  0
 34 39  1  0  0  0  0
 34 33  2  0  0  0  0
 35 36  2  0  0  0  0
 35 34  1  0  0  0  0
 36 37  1  0  0  0  0
 37 32  2  0  0  0  0
 40 35  1  0  0  0  0
 41 42  1  0  0  0  0
 42 43  1  0  0  0  0
 43 44  2  0  0  0  0
 43 36  1  0  0  0  0
 44 45  1  0  0  0  0
 46 47  1  0  0  0  0
 46 44  1  0  0  0  0
 48 46  2  0  0  0  0
 49 48  1  0  0  0  0
 49 42  2  0  0  0  0
M  END
>  <minimizedAffinity>
-6.56626368

$$$$
