
 OpenBabel03242516073D

 36 39  0  0  0  0  0  0  0  0999 V2000
   40.7110   30.5810   38.5810 Cl  0  0  0  0  0  0  0  0  0  0  0  0
   39.4300   31.6710   39.0580 C   0  0  0  0  0  0  0  0  0  0  0  0
   39.6800   32.8800   39.6350 C   0  0  0  0  0  0  0  0  0  0  0  0
   38.5960   33.6380   39.9600 C   0  0  0  0  0  0  0  0  0  0  0  0
   37.3240   33.2390   39.7350 C   0  0  0  0  0  0  0  0  0  0  0  0
   37.0640   32.0260   39.1550 C   0  0  0  0  0  0  0  0  0  0  0  0
   38.1570   31.2320   38.8130 C   0  0  0  0  0  0  0  0  0  0  0  0
   38.7550   34.6080   40.4220 H   0  0  0  0  0  0  0  0  0  0  0  0
   36.4950   33.8680   40.0060 H   0  0  0  0  0  0  0  0  0  0  0  0
   36.0450   31.7080   38.9750 H   0  0  0  0  0  0  0  0  0  0  0  0
   43.2040   34.1610   39.1060 C   0  0  0  0  0  0  0  0  0  0  0  0
   41.8730   33.8010   38.8700 C   0  0  0  0  0  0  0  0  0  0  0  0
   41.0540   33.2570   39.8530 C   0  0  0  0  0  0  0  0  0  0  0  0
   41.6700   33.1110   41.0620 N   0  0  0  0  0  0  0  0  0  0  0  0
   42.9450   33.4570   41.2810 C   0  0  0  0  0  0  0  0  0  0  0  0
   43.7040   33.9770   40.3120 N   0  0  0  0  0  0  0  0  0  0  0  0
   43.7760   34.5810   38.2780 H   0  0  0  0  0  0  0  0  0  0  0  0
   41.4680   33.9540   37.8820 H   0  0  0  0  0  0  0  0  0  0  0  0
   43.2970   33.2790   42.2980 H   0  0  0  0  0  0  0  0  0  0  0  0
   37.8910   29.9140   38.1840 C   0  0  0  0  0  0  0  0  0  0  0  0
   37.7760   28.7310   38.9370 C   0  0  0  0  0  0  0  0  0  0  0  0
   37.4590   27.4580   37.6900 S   0  0  0  0  0  0  0  0  0  0  0  0
   37.5320   28.7700   36.2890 C   0  0  0  0  0  0  0  0  0  0  0  0
   37.7340   29.6850   36.9100 N   0  0  0  0  0  0  0  0  0  0  0  0
   37.3600   28.5200   34.8950 N   0  0  0  0  0  0  0  0  0  0  0  0
   38.0790   28.4440   34.1580 H   0  0  0  0  0  0  0  0  0  0  0  0
   36.3350   28.4080   34.6530 H   0  0  0  0  0  0  0  0  0  0  0  0
   35.4380   28.4060   40.3320 F   0  0  0  0  0  0  0  0  0  0  0  0
   36.6300   28.3410   40.9880 C   0  0  0  0  0  0  0  0  0  0  0  0
   37.8760   28.4950   40.3660 C   0  0  0  0  0  0  0  0  0  0  0  0
   39.0300   28.4070   41.1470 C   0  0  0  0  0  0  0  0  0  0  0  0
   39.9430   28.5390   40.5720 H   0  0  0  0  0  0  0  0  0  0  0  0
   38.9190   28.1730   42.5020 C   0  0  0  0  0  0  0  0  0  0  0  0
   39.8480   28.1160   43.0520 H   0  0  0  0  0  0  0  0  0  0  0  0
   37.6750   28.0250   43.0900 C   0  0  0  0  0  3  0  0  0  0  0  0
   36.5290   28.1100   42.3320 C   0  0  0  0  0  3  0  0  0  0  0  0
  1  2  1  0  0  0  0
  2  3  1  0  0  0  0
  3 13  1  0  0  0  0
  3  4  2  0  0  0  0
  4  8  1  0  0  0  0
  5  4  1  0  0  0  0
  5  9  1  0  0  0  0
  6  5  2  0  0  0  0
  7  2  2  0  0  0  0
  7  6  1  0  0  0  0
 10  6  1  0  0  0  0
 11 16  1  0  0  0  0
 12 11  2  0  0  0  0
 12 13  1  0  0  0  0
 13 14  2  0  0  0  0
 14 15  1  0  0  0  0
 15 19  1  0  0  0  0
 16 15  2  0  0  0  0
 17 11  1  0  0  0  0
 18 12  1  0  0  0  0
 20  7  1  0  0  0  0
 20 21  2  0  0  0  0
 21 30  1  0  0  0  0
 22 21  1  0  0  0  0
 23 24  2  0  0  0  0
 23 22  1  0  0  0  0
 24 20  1  0  0  0  0
 25 23  1  0  0  0  0
 26 25  1  0  0  0  0
 27 25  1  0  0  0  0
 28 29  1  0  0  0  0
 29 36  1  0  0  0  0
 30 29  2  0  0  0  0
 30 31  1  0  0  0  0
 31 33  2  0  0  0  0
 32 31  1  0  0  0  0
 33 34  1  0  0  0  0
 33 35  1  0  0  0  0
 36 35  2  0  0  0  0
M  END
>  <minimizedAffinity>
-6.18844795

$$$$

 OpenBabel03242516073D

 36 39  0  0  0  0  0  0  0  0999 V2000
   38.3330   28.9710   38.0870 Cl  0  0  0  0  0  0  0  0  0  0  0  0
   36.7170   29.0060   38.7520 C   0  0  0  0  0  0  0  0  0  0  0  0
   35.6050   28.9560   37.9660 C   0  0  0  0  0  0  0  0  0  0  0  0
   34.4020   28.9900   38.6040 C   0  0  0  0  0  0  0  0  0  0  0  0
   34.2840   29.0690   39.9490 C   0  0  0  0  0  0  0  0  0  0  0  0
   35.3960   29.1200   40.7460 C   0  0  0  0  0  0  0  0  0  0  0  0
   36.6390   29.0860   40.1160 C   0  0  0  0  0  0  0  0  0  0  0  0
   33.4930   28.9520   38.0110 H   0  0  0  0  0  0  0  0  0  0  0  0
   33.3150   29.0930   40.4150 H   0  0  0  0  0  0  0  0  0  0  0  0
   35.3000   29.1830   41.8230 H   0  0  0  0  0  0  0  0  0  0  0  0
   35.7570   27.6570   34.4120 C   0  0  0  0  0  0  0  0  0  0  0  0
   35.5760   27.7140   35.7980 C   0  0  0  0  0  0  0  0  0  0  0  0
   35.7860   28.8710   36.5380 C   0  0  0  0  0  0  0  0  0  0  0  0
   36.1830   29.9390   35.7860 N   0  0  0  0  0  0  0  0  0  0  0  0
   36.3550   29.8780   34.4600 C   0  0  0  0  0  0  0  0  0  0  0  0
   36.1440   28.7470   33.7800 N   0  0  0  0  0  0  0  0  0  0  0  0
   35.5710   26.7080   33.9090 H   0  0  0  0  0  0  0  0  0  0  0  0
   35.2600   26.8190   36.3110 H   0  0  0  0  0  0  0  0  0  0  0  0
   36.6750   30.8130   33.9980 H   0  0  0  0  0  0  0  0  0  0  0  0
   37.8540   29.1400   40.9670 C   0  0  0  0  0  0  0  0  0  0  0  0
   38.4990   27.9790   41.4300 C   0  0  0  0  0  0  0  0  0  0  0  0
   39.8900   28.6190   42.3980 S   0  0  0  0  0  0  0  0  0  0  0  0
   39.3650   30.4260   42.0120 C   0  0  0  0  0  0  0  0  0  0  0  0
   38.4590   30.2180   41.3800 N   0  0  0  0  0  0  0  0  0  0  0  0
   40.0260   31.6060   42.4630 N   0  0  0  0  0  0  0  0  0  0  0  0
   39.7640   32.2410   43.2340 H   0  0  0  0  0  0  0  0  0  0  0  0
   40.8920   31.8000   41.8860 H   0  0  0  0  0  0  0  0  0  0  0  0
   36.6820   26.8240   43.1290 F   0  0  0  0  0  0  0  0  0  0  0  0
   37.2590   26.0770   42.1470 C   0  0  0  0  0  0  0  0  0  0  0  0
   38.1960   26.5730   41.2330 C   0  0  0  0  0  0  0  0  0  0  0  0
   38.7170   25.7060   40.2700 C   0  0  0  0  0  0  0  0  0  0  0  0
   39.4350   26.1860   39.6100 H   0  0  0  0  0  0  0  0  0  0  0  0
   38.3010   24.3910   40.2420 C   0  0  0  0  0  0  0  0  0  0  0  0
   38.7410   23.7700   39.4740 H   0  0  0  0  0  0  0  0  0  0  0  0
   37.3730   23.9280   41.1580 C   0  0  0  0  0  3  0  0  0  0  0  0
   36.8520   24.7710   42.1120 C   0  0  0  0  0  3  0  0  0  0  0  0
  1  2  1  0  0  0  0
  2  7  1  0  0  0  0
  3  4  1  0  0  0  0
  3  2  2  0  0  0  0
  4  5  2  0  0  0  0
  5  9  1  0  0  0  0
  5  6  1  0  0  0  0
  6 10  1  0  0  0  0
  7  6  2  0  0  0  0
  7 20  1  0  0  0  0
  8  4  1  0  0  0  0
 11 12  1  0  0  0  0
 12 18  1  0  0  0  0
 12 13  2  0  0  0  0
 13  3  1  0  0  0  0
 14 13  1  0  0  0  0
 15 14  2  0  0  0  0
 16 11  2  0  0  0  0
 16 15  1  0  0  0  0
 17 11  1  0  0  0  0
 19 15  1  0  0  0  0
 20 24  1  0  0  0  0
 20 21  2  0  0  0  0
 21 22  1  0  0  0  0
 23 22  1  0  0  0  0
 23 25  1  0  0  0  0
 24 23  2  0  0  0  0
 25 26  1  0  0  0  0
 27 25  1  0  0  0  0
 29 28  1  0  0  0  0
 30 21  1  0  0  0  0
 30 29  2  0  0  0  0
 31 30  1  0  0  0  0
 32 31  1  0  0  0  0
 33 31  2  0  0  0  0
 33 35  1  0  0  0  0
 34 33  1  0  0  0  0
 35 36  2  0  0  0  0
 36 29  1  0  0  0  0
M  END
>  <minimizedAffinity>
-6.06929541

$$$$

 OpenBabel03242516073D

 36 39  0  0  0  0  0  0  0  0999 V2000
   39.7850   26.8630   40.4510 Cl  0  0  0  0  0  0  0  0  0  0  0  0
   38.6430   27.2930   41.7020 C   0  0  0  0  0  0  0  0  0  0  0  0
   37.5380   26.5410   41.9690 C   0  0  0  0  0  0  0  0  0  0  0  0
   36.7250   26.9810   42.9690 C   0  0  0  0  0  0  0  0  0  0  0  0
   36.9730   28.1040   43.6800 C   0  0  0  0  0  0  0  0  0  0  0  0
   38.0810   28.8660   43.4180 C   0  0  0  0  0  0  0  0  0  0  0  0
   38.9300   28.4350   42.4000 C   0  0  0  0  0  0  0  0  0  0  0  0
   35.8340   26.4080   43.2110 H   0  0  0  0  0  0  0  0  0  0  0  0
   36.3060   28.4180   44.4630 H   0  0  0  0  0  0  0  0  0  0  0  0
   38.2790   29.7650   43.9890 H   0  0  0  0  0  0  0  0  0  0  0  0
   37.6330   22.9700   40.7120 C   0  0  0  0  0  0  0  0  0  0  0  0
   37.8600   24.1100   41.4900 C   0  0  0  0  0  0  0  0  0  0  0  0
   37.3190   25.3530   41.1830 C   0  0  0  0  0  0  0  0  0  0  0  0
   36.5500   25.3520   40.0550 N   0  0  0  0  0  0  0  0  0  0  0  0
   36.3370   24.2580   39.3140 C   0  0  0  0  0  0  0  0  0  0  0  0
   36.8730   23.0790   39.6400 N   0  0  0  0  0  0  0  0  0  0  0  0
   38.0960   22.0340   41.0250 H   0  0  0  0  0  0  0  0  0  0  0  0
   38.4830   24.0160   42.3670 H   0  0  0  0  0  0  0  0  0  0  0  0
   35.7010   24.4150   38.4420 H   0  0  0  0  0  0  0  0  0  0  0  0
   40.1340   29.2510   42.1050 C   0  0  0  0  0  0  0  0  0  0  0  0
   40.1370   30.2580   41.1230 C   0  0  0  0  0  0  0  0  0  0  0  0
   41.8240   30.9130   41.1870 S   0  0  0  0  0  0  0  0  0  0  0  0
   42.2830   29.6770   42.5850 C   0  0  0  0  0  0  0  0  0  0  0  0
   41.2950   29.1500   42.6880 N   0  0  0  0  0  0  0  0  0  0  0  0
   43.5520   29.5660   43.2240 N   0  0  0  0  0  0  0  0  0  0  0  0
   44.2970   28.8680   43.0680 H   0  0  0  0  0  0  0  0  0  0  0  0
   43.6840   30.3330   43.9420 H   0  0  0  0  0  0  0  0  0  0  0  0
   38.9780   32.6790   41.6870 F   0  0  0  0  0  0  0  0  0  0  0  0
   38.5660   31.9690   40.6000 C   0  0  0  0  0  0  0  0  0  0  0  0
   39.0930   30.7260   40.2290 C   0  0  0  0  0  0  0  0  0  0  0  0
   38.5860   30.0950   39.0920 C   0  0  0  0  0  0  0  0  0  0  0  0
   39.0610   29.1380   38.8890 H   0  0  0  0  0  0  0  0  0  0  0  0
   37.5850   30.7040   38.3640 C   0  0  0  0  0  0  0  0  0  0  0  0
   37.2340   30.1660   37.4940 H   0  0  0  0  0  0  0  0  0  0  0  0
   37.0820   31.9330   38.7530 C   0  0  0  0  0  3  0  0  0  0  0  0
   37.5730   32.5660   39.8730 C   0  0  0  0  0  3  0  0  0  0  0  0
  1  2  1  0  0  0  0
  2  3  2  0  0  0  0
  2  7  1  0  0  0  0
  3  4  1  0  0  0  0
  4  8  1  0  0  0  0
  4  5  2  0  0  0  0
  5  9  1  0  0  0  0
  6  5  1  0  0  0  0
  6 10  1  0  0  0  0
  7  6  2  0  0  0  0
 11 17  1  0  0  0  0
 11 12  1  0  0  0  0
 12 18  1  0  0  0  0
 13 12  2  0  0  0  0
 13  3  1  0  0  0  0
 14 13  1  0  0  0  0
 15 16  1  0  0  0  0
 15 14  2  0  0  0  0
 16 11  2  0  0  0  0
 19 15  1  0  0  0  0
 20  7  1  0  0  0  0
 20 24  1  0  0  0  0
 21 22  1  0  0  0  0
 21 20  2  0  0  0  0
 22 23  1  0  0  0  0
 23 24  2  0  0  0  0
 23 25  1  0  0  0  0
 25 27  1  0  0  0  0
 26 25  1  0  0  0  0
 29 28  1  0  0  0  0
 30 29  1  0  0  0  0
 30 21  1  0  0  0  0
 31 30  2  0  0  0  0
 32 31  1  0  0  0  0
 33 35  2  0  0  0  0
 33 31  1  0  0  0  0
 34 33  1  0  0  0  0
 35 36  1  0  0  0  0
 36 29  2  0  0  0  0
M  END
>  <minimizedAffinity>
-6.05519342

$$$$

 OpenBabel03242516073D

 36 39  0  0  0  0  0  0  0  0999 V2000
   38.1010   27.8260   39.2960 Cl  0  0  0  0  0  0  0  0  0  0  0  0
   37.8130   28.0200   41.0100 C   0  0  0  0  0  0  0  0  0  0  0  0
   37.7920   29.2430   41.6110 C   0  0  0  0  0  0  0  0  0  0  0  0
   37.5560   29.2610   42.9530 C   0  0  0  0  0  0  0  0  0  0  0  0
   37.3510   28.1400   43.6800 C   0  0  0  0  0  0  0  0  0  0  0  0
   37.3700   26.9070   43.0830 C   0  0  0  0  0  0  0  0  0  0  0  0
   37.6080   26.8620   41.7110 C   0  0  0  0  0  0  0  0  0  0  0  0
   37.5330   30.2170   43.4670 H   0  0  0  0  0  0  0  0  0  0  0  0
   37.1680   28.1970   44.7380 H   0  0  0  0  0  0  0  0  0  0  0  0
   37.2050   26.0100   43.6670 H   0  0  0  0  0  0  0  0  0  0  0  0
   37.2420   32.2950   39.4380 C   0  0  0  0  0  0  0  0  0  0  0  0
   36.9980   31.1670   40.2300 C   0  0  0  0  0  0  0  0  0  0  0  0
   38.0170   30.4070   40.7910 C   0  0  0  0  0  0  0  0  0  0  0  0
   39.2690   30.8630   40.4950 N   0  0  0  0  0  0  0  0  0  0  0  0
   39.4950   31.9420   39.7360 C   0  0  0  0  0  0  0  0  0  0  0  0
   38.4910   32.6500   39.2130 N   0  0  0  0  0  0  0  0  0  0  0  0
   36.3840   32.8350   39.0370 H   0  0  0  0  0  0  0  0  0  0  0  0
   35.9740   30.8800   40.4120 H   0  0  0  0  0  0  0  0  0  0  0  0
   40.5490   32.1830   39.5880 H   0  0  0  0  0  0  0  0  0  0  0  0
   37.6330   25.5330   41.0500 C   0  0  0  0  0  0  0  0  0  0  0  0
   38.8260   24.8170   40.8470 C   0  0  0  0  0  0  0  0  0  0  0  0
   38.2800   23.3010   40.0210 S   0  0  0  0  0  0  0  0  0  0  0  0
   36.4530   23.8900   40.0810 C   0  0  0  0  0  0  0  0  0  0  0  0
   36.6010   24.8800   40.5930 N   0  0  0  0  0  0  0  0  0  0  0  0
   35.3240   23.1770   39.5820 N   0  0  0  0  0  0  0  0  0  0  0  0
   34.8030   23.3230   38.7030 H   0  0  0  0  0  0  0  0  0  0  0  0
   35.0350   22.4090   40.2500 H   0  0  0  0  0  0  0  0  0  0  0  0
   39.6270   24.4120   43.4390 F   0  0  0  0  0  0  0  0  0  0  0  0
   40.5140   24.8960   42.5250 C   0  0  0  0  0  0  0  0  0  0  0  0
   40.2020   25.1370   41.1810 C   0  0  0  0  0  0  0  0  0  0  0  0
   41.2000   25.6350   40.3410 C   0  0  0  0  0  0  0  0  0  0  0  0
   40.8580   25.7880   39.3200 H   0  0  0  0  0  0  0  0  0  0  0  0
   42.4600   25.8770   40.8490 C   0  0  0  0  0  0  0  0  0  0  0  0
   43.1880   26.2630   40.1490 H   0  0  0  0  0  0  0  0  0  0  0  0
   42.7400   25.6300   42.1810 C   0  0  0  0  0  3  0  0  0  0  0  0
   41.7660   25.1390   43.0200 C   0  0  0  0  0  3  0  0  0  0  0  0
  1  2  1  0  0  0  0
  2  3  2  0  0  0  0
  2  7  1  0  0  0  0
  3  4  1  0  0  0  0
  4  8  1  0  0  0  0
  4  5  2  0  0  0  0
  5  9  1  0  0  0  0
  6 10  1  0  0  0  0
  6  5  1  0  0  0  0
  7  6  2  0  0  0  0
 11 12  1  0  0  0  0
 12 18  1  0  0  0  0
 12 13  2  0  0  0  0
 13  3  1  0  0  0  0
 14 13  1  0  0  0  0
 15 14  2  0  0  0  0
 16 11  2  0  0  0  0
 16 15  1  0  0  0  0
 17 11  1  0  0  0  0
 19 15  1  0  0  0  0
 20  7  1  0  0  0  0
 21 20  2  0  0  0  0
 21 30  1  0  0  0  0
 22 23  1  0  0  0  0
 22 21  1  0  0  0  0
 23 24  2  0  0  0  0
 24 20  1  0  0  0  0
 25 23  1  0  0  0  0
 25 27  1  0  0  0  0
 26 25  1  0  0  0  0
 29 36  1  0  0  0  0
 29 28  1  0  0  0  0
 30 29  2  0  0  0  0
 31 33  2  0  0  0  0
 31 30  1  0  0  0  0
 32 31  1  0  0  0  0
 33 35  1  0  0  0  0
 34 33  1  0  0  0  0
 35 36  2  0  0  0  0
M  END
>  <minimizedAffinity>
-6.01219559

$$$$

 OpenBabel03242516073D

 36 39  0  0  0  0  0  0  0  0999 V2000
   38.2430   26.8160   39.2590 Cl  0  0  0  0  0  0  0  0  0  0  0  0
   37.6060   26.9280   40.8830 C   0  0  0  0  0  0  0  0  0  0  0  0
   37.1590   25.8370   41.5660 C   0  0  0  0  0  0  0  0  0  0  0  0
   36.6860   26.0550   42.8250 C   0  0  0  0  0  0  0  0  0  0  0  0
   36.6490   27.2800   43.3960 C   0  0  0  0  0  0  0  0  0  0  0  0
   37.0960   28.3820   42.7160 C   0  0  0  0  0  0  0  0  0  0  0  0
   37.5860   28.1850   41.4260 C   0  0  0  0  0  0  0  0  0  0  0  0
   36.3210   25.2100   43.4010 H   0  0  0  0  0  0  0  0  0  0  0  0
   36.2680   27.4110   44.3930 H   0  0  0  0  0  0  0  0  0  0  0  0
   37.0660   29.3630   43.1750 H   0  0  0  0  0  0  0  0  0  0  0  0
   36.2500   22.7470   39.5750 C   0  0  0  0  0  0  0  0  0  0  0  0
   36.1650   23.9940   40.2040 C   0  0  0  0  0  0  0  0  0  0  0  0
   37.2210   24.5540   40.9130 C   0  0  0  0  0  0  0  0  0  0  0  0
   38.3410   23.7740   40.9360 N   0  0  0  0  0  0  0  0  0  0  0  0
   38.4160   22.5810   40.3340 C   0  0  0  0  0  0  0  0  0  0  0  0
   37.3800   22.0730   39.6600 N   0  0  0  0  0  0  0  0  0  0  0  0
   35.3740   22.3820   39.0400 H   0  0  0  0  0  0  0  0  0  0  0  0
   35.2390   24.5420   40.1310 H   0  0  0  0  0  0  0  0  0  0  0  0
   39.3760   22.0750   40.4420 H   0  0  0  0  0  0  0  0  0  0  0  0
   38.0740   29.3690   40.6770 C   0  0  0  0  0  0  0  0  0  0  0  0
   37.3450   29.9410   39.6180 C   0  0  0  0  0  0  0  0  0  0  0  0
   38.3830   31.3250   39.0830 S   0  0  0  0  0  0  0  0  0  0  0  0
   39.6910   30.9020   40.4240 C   0  0  0  0  0  0  0  0  0  0  0  0
   39.1890   30.0100   40.8890 N   0  0  0  0  0  0  0  0  0  0  0  0
   40.9110   31.6020   40.6560 N   0  0  0  0  0  0  0  0  0  0  0  0
   41.8700   31.3430   40.3740 H   0  0  0  0  0  0  0  0  0  0  0  0
   40.7380   32.4970   41.1950 H   0  0  0  0  0  0  0  0  0  0  0  0
   37.2860   29.4550   36.9190 F   0  0  0  0  0  0  0  0  0  0  0  0
   36.1420   29.3490   37.6500 C   0  0  0  0  0  0  0  0  0  0  0  0
   36.0680   29.5780   39.0300 C   0  0  0  0  0  0  0  0  0  0  0  0
   34.8340   29.4380   39.6680 C   0  0  0  0  0  0  0  0  0  0  0  0
   34.8830   29.6360   40.7360 H   0  0  0  0  0  0  0  0  0  0  0  0
   33.7230   29.0820   38.9310 C   0  0  0  0  0  0  0  0  0  0  0  0
   32.7970   28.9900   39.4820 H   0  0  0  0  0  0  0  0  0  0  0  0
   33.8250   28.8620   37.5690 C   0  0  0  0  0  3  0  0  0  0  0  0
   35.0350   28.9960   36.9270 C   0  0  0  0  0  3  0  0  0  0  0  0
  1  2  1  0  0  0  0
  2  7  2  0  0  0  0
  2  3  1  0  0  0  0
  3  4  2  0  0  0  0
  4  5  1  0  0  0  0
  4  8  1  0  0  0  0
  5  9  1  0  0  0  0
  6 10  1  0  0  0  0
  6  5  2  0  0  0  0
  7  6  1  0  0  0  0
 11 16  2  0  0  0  0
 11 12  1  0  0  0  0
 12 13  2  0  0  0  0
 13 14  1  0  0  0  0
 13  3  1  0  0  0  0
 15 19  1  0  0  0  0
 15 14  2  0  0  0  0
 16 15  1  0  0  0  0
 17 11  1  0  0  0  0
 18 12  1  0  0  0  0
 20 24  1  0  0  0  0
 20  7  1  0  0  0  0
 21 20  2  0  0  0  0
 22 21  1  0  0  0  0
 22 23  1  0  0  0  0
 23 25  1  0  0  0  0
 23 24  2  0  0  0  0
 25 27  1  0  0  0  0
 26 25  1  0  0  0  0
 28 29  1  0  0  0  0
 29 30  1  0  0  0  0
 30 21  1  0  0  0  0
 30 31  2  0  0  0  0
 31 32  1  0  0  0  0
 33 34  1  0  0  0  0
 33 31  1  0  0  0  0
 35 33  2  0  0  0  0
 36 35  1  0  0  0  0
 36 29  2  0  0  0  0
M  END
>  <minimizedAffinity>
-5.96747541

$$$$

 OpenBabel03242516073D

 36 39  0  0  0  0  0  0  0  0999 V2000
   40.5310   30.4860   38.0200 Cl  0  0  0  0  0  0  0  0  0  0  0  0
   39.3120   31.4900   38.7710 C   0  0  0  0  0  0  0  0  0  0  0  0
   39.5990   32.7170   39.2910 C   0  0  0  0  0  0  0  0  0  0  0  0
   38.5620   33.4030   39.8480 C   0  0  0  0  0  0  0  0  0  0  0  0
   37.3010   32.9170   39.9010 C   0  0  0  0  0  0  0  0  0  0  0  0
   37.0050   31.6850   39.3810 C   0  0  0  0  0  0  0  0  0  0  0  0
   38.0490   30.9640   38.8030 C   0  0  0  0  0  0  0  0  0  0  0  0
   38.7510   34.3840   40.2730 H   0  0  0  0  0  0  0  0  0  0  0  0
   36.5100   33.4900   40.3500 H   0  0  0  0  0  0  0  0  0  0  0  0
   35.9940   31.2980   39.4230 H   0  0  0  0  0  0  0  0  0  0  0  0
   43.1740   33.6100   40.1650 C   0  0  0  0  0  0  0  0  0  0  0  0
   41.8570   33.1480   40.2690 C   0  0  0  0  0  0  0  0  0  0  0  0
   40.9590   33.1880   39.2090 C   0  0  0  0  0  0  0  0  0  0  0  0
   41.4820   33.7190   38.0660 N   0  0  0  0  0  0  0  0  0  0  0  0
   42.7430   34.1600   37.9730 C   0  0  0  0  0  0  0  0  0  0  0  0
   43.5790   34.1060   39.0130 N   0  0  0  0  0  0  0  0  0  0  0  0
   43.8120   33.5410   41.0460 H   0  0  0  0  0  0  0  0  0  0  0  0
   41.5290   32.7430   41.2140 H   0  0  0  0  0  0  0  0  0  0  0  0
   43.0160   34.5580   36.9940 H   0  0  0  0  0  0  0  0  0  0  0  0
   37.7430   29.6280   38.2360 C   0  0  0  0  0  0  0  0  0  0  0  0
   37.5610   28.4920   39.0460 C   0  0  0  0  0  0  0  0  0  0  0  0
   37.2190   27.1690   37.8570 S   0  0  0  0  0  0  0  0  0  0  0  0
   37.3810   28.4020   36.3930 C   0  0  0  0  0  0  0  0  0  0  0  0
   37.6070   29.3390   36.9720 N   0  0  0  0  0  0  0  0  0  0  0  0
   37.2320   28.0870   35.0110 N   0  0  0  0  0  0  0  0  0  0  0  0
   37.9640   27.9440   34.2970 H   0  0  0  0  0  0  0  0  0  0  0  0
   36.2090   28.0040   34.7480 H   0  0  0  0  0  0  0  0  0  0  0  0
   40.0330   28.1840   40.1920 F   0  0  0  0  0  0  0  0  0  0  0  0
   38.9190   28.1780   40.9760 C   0  0  0  0  0  0  0  0  0  0  0  0
   37.6160   28.3260   40.4870 C   0  0  0  0  0  0  0  0  0  0  0  0
   36.5530   28.3010   41.3930 C   0  0  0  0  0  0  0  0  0  0  0  0
   35.5850   28.4250   40.9150 H   0  0  0  0  0  0  0  0  0  0  0  0
   36.8090   28.1330   42.7380 C   0  0  0  0  0  0  0  0  0  0  0  0
   35.9460   28.1220   43.3890 H   0  0  0  0  0  0  0  0  0  0  0  0
   38.1080   27.9890   43.1930 C   0  0  0  0  0  3  0  0  0  0  0  0
   39.1640   28.0110   42.3110 C   0  0  0  0  0  3  0  0  0  0  0  0
  1  2  1  0  0  0  0
  2  7  2  0  0  0  0
  2  3  1  0  0  0  0
  3  4  2  0  0  0  0
  4  5  1  0  0  0  0
  4  8  1  0  0  0  0
  5  9  1  0  0  0  0
  6 10  1  0  0  0  0
  6  5  2  0  0  0  0
  7  6  1  0  0  0  0
 11 12  1  0  0  0  0
 11 17  1  0  0  0  0
 12 18  1  0  0  0  0
 13  3  1  0  0  0  0
 13 12  2  0  0  0  0
 14 13  1  0  0  0  0
 15 14  2  0  0  0  0
 15 16  1  0  0  0  0
 16 11  2  0  0  0  0
 19 15  1  0  0  0  0
 20  7  1  0  0  0  0
 20 21  2  0  0  0  0
 21 30  1  0  0  0  0
 22 21  1  0  0  0  0
 23 24  2  0  0  0  0
 23 22  1  0  0  0  0
 24 20  1  0  0  0  0
 25 23  1  0  0  0  0
 26 25  1  0  0  0  0
 27 25  1  0  0  0  0
 28 29  1  0  0  0  0
 29 36  1  0  0  0  0
 30 29  2  0  0  0  0
 30 31  1  0  0  0  0
 31 33  2  0  0  0  0
 32 31  1  0  0  0  0
 33 35  1  0  0  0  0
 33 34  1  0  0  0  0
 36 35  2  0  0  0  0
M  END
>  <minimizedAffinity>
-5.96704435

$$$$

 OpenBabel03242516073D

 36 39  0  0  0  0  0  0  0  0999 V2000
   39.9390   30.2370   37.7780 Cl  0  0  0  0  0  0  0  0  0  0  0  0
   39.0800   31.4540   38.6920 C   0  0  0  0  0  0  0  0  0  0  0  0
   39.6840   32.5920   39.1380 C   0  0  0  0  0  0  0  0  0  0  0  0
   38.9060   33.4630   39.8390 C   0  0  0  0  0  0  0  0  0  0  0  0
   37.5980   33.2390   40.0970 C   0  0  0  0  0  0  0  0  0  0  0  0
   36.9830   32.0980   39.6530 C   0  0  0  0  0  0  0  0  0  0  0  0
   37.7580   31.1910   38.9330 C   0  0  0  0  0  0  0  0  0  0  0  0
   39.3520   34.3810   40.2100 H   0  0  0  0  0  0  0  0  0  0  0  0
   37.0180   33.9530   40.6540 H   0  0  0  0  0  0  0  0  0  0  0  0
   35.9350   31.9200   39.8610 H   0  0  0  0  0  0  0  0  0  0  0  0
   43.4650   32.5540   39.3420 C   0  0  0  0  0  0  0  0  0  0  0  0
   42.1160   32.3590   39.6580 C   0  0  0  0  0  0  0  0  0  0  0  0
   41.0800   32.7820   38.8350 C   0  0  0  0  0  0  0  0  0  0  0  0
   41.5040   33.4020   37.6950 N   0  0  0  0  0  0  0  0  0  0  0  0
   42.7960   33.5870   37.3980 C   0  0  0  0  0  0  0  0  0  0  0  0
   43.7660   33.1660   38.2140 N   0  0  0  0  0  0  0  0  0  0  0  0
   44.2140   32.1900   40.0450 H   0  0  0  0  0  0  0  0  0  0  0  0
   41.8740   31.8570   40.5820 H   0  0  0  0  0  0  0  0  0  0  0  0
   42.9780   34.0990   36.4520 H   0  0  0  0  0  0  0  0  0  0  0  0
   37.1060   29.9500   38.4460 C   0  0  0  0  0  0  0  0  0  0  0  0
   37.0760   28.7680   39.2080 C   0  0  0  0  0  0  0  0  0  0  0  0
   36.1750   27.6030   38.1550 S   0  0  0  0  0  0  0  0  0  0  0  0
   35.9690   28.9430   36.7950 C   0  0  0  0  0  0  0  0  0  0  0  0
   36.5000   29.7950   37.3020 N   0  0  0  0  0  0  0  0  0  0  0  0
   35.3070   28.7750   35.5440 N   0  0  0  0  0  0  0  0  0  0  0  0
   35.7190   28.6250   34.6090 H   0  0  0  0  0  0  0  0  0  0  0  0
   34.2560   28.8200   35.6620 H   0  0  0  0  0  0  0  0  0  0  0  0
   35.3000   28.6220   41.2930 F   0  0  0  0  0  0  0  0  0  0  0  0
   36.6270   28.4110   41.5190 C   0  0  0  0  0  0  0  0  0  0  0  0
   37.6100   28.4650   40.5230 C   0  0  0  0  0  0  0  0  0  0  0  0
   38.9390   28.2310   40.8800 C   0  0  0  0  0  0  0  0  0  0  0  0
   39.6230   28.2950   40.0380 H   0  0  0  0  0  0  0  0  0  0  0  0
   39.2530   27.9550   42.1960 C   0  0  0  0  0  0  0  0  0  0  0  0
   40.2980   27.7830   42.4090 H   0  0  0  0  0  0  0  0  0  0  0  0
   38.2610   27.9080   43.1590 C   0  0  0  0  0  3  0  0  0  0  0  0
   36.9470   28.1370   42.8210 C   0  0  0  0  0  3  0  0  0  0  0  0
  1  2  1  0  0  0  0
  2  7  2  0  0  0  0
  2  3  1  0  0  0  0
  3  4  2  0  0  0  0
  4  5  1  0  0  0  0
  4  8  1  0  0  0  0
  5  9  1  0  0  0  0
  6 10  1  0  0  0  0
  6  5  2  0  0  0  0
  7  6  1  0  0  0  0
 11 12  1  0  0  0  0
 11 17  1  0  0  0  0
 12 18  1  0  0  0  0
 13  3  1  0  0  0  0
 13 12  2  0  0  0  0
 14 13  1  0  0  0  0
 15 14  2  0  0  0  0
 15 16  1  0  0  0  0
 16 11  2  0  0  0  0
 19 15  1  0  0  0  0
 20  7  1  0  0  0  0
 20 21  2  0  0  0  0
 21 30  1  0  0  0  0
 22 21  1  0  0  0  0
 23 24  2  0  0  0  0
 23 22  1  0  0  0  0
 24 20  1  0  0  0  0
 25 27  1  0  0  0  0
 25 23  1  0  0  0  0
 26 25  1  0  0  0  0
 28 29  1  0  0  0  0
 29 36  1  0  0  0  0
 30 31  1  0  0  0  0
 30 29  2  0  0  0  0
 31 33  2  0  0  0  0
 32 31  1  0  0  0  0
 33 34  1  0  0  0  0
 33 35  1  0  0  0  0
 36 35  2  0  0  0  0
M  END
>  <minimizedAffinity>
-5.92299366

$$$$

 OpenBabel03242516073D

 36 39  0  0  0  0  0  0  0  0999 V2000
   38.5000   28.1340   39.3830 Cl  0  0  0  0  0  0  0  0  0  0  0  0
   38.0290   27.9780   41.0590 C   0  0  0  0  0  0  0  0  0  0  0  0
   37.6600   26.7840   41.6040 C   0  0  0  0  0  0  0  0  0  0  0  0
   37.3150   26.7920   42.9210 C   0  0  0  0  0  0  0  0  0  0  0  0
   37.3270   27.9120   43.6780 C   0  0  0  0  0  0  0  0  0  0  0  0
   37.6960   29.1160   43.1400 C   0  0  0  0  0  0  0  0  0  0  0  0
   38.0550   29.1330   41.7930 C   0  0  0  0  0  0  0  0  0  0  0  0
   37.0150   25.8600   43.3900 H   0  0  0  0  0  0  0  0  0  0  0  0
   37.0480   27.8770   44.7160 H   0  0  0  0  0  0  0  0  0  0  0  0
   37.7060   30.0130   43.7470 H   0  0  0  0  0  0  0  0  0  0  0  0
   36.6160   24.0960   39.1480 C   0  0  0  0  0  0  0  0  0  0  0  0
   36.5860   25.2300   39.9680 C   0  0  0  0  0  0  0  0  0  0  0  0
   37.6650   25.6200   40.7530 C   0  0  0  0  0  0  0  0  0  0  0  0
   38.7470   24.7940   40.6480 N   0  0  0  0  0  0  0  0  0  0  0  0
   38.7680   23.7100   39.8630 C   0  0  0  0  0  0  0  0  0  0  0  0
   37.7120   23.3650   39.1210 N   0  0  0  0  0  0  0  0  0  0  0  0
   35.7250   23.8630   38.5640 H   0  0  0  0  0  0  0  0  0  0  0  0
   35.6870   25.8250   39.9870 H   0  0  0  0  0  0  0  0  0  0  0  0
   39.7030   23.1490   39.8850 H   0  0  0  0  0  0  0  0  0  0  0  0
   38.4570   30.4310   41.1950 C   0  0  0  0  0  0  0  0  0  0  0  0
   39.8050   30.7900   41.0180 C   0  0  0  0  0  0  0  0  0  0  0  0
   39.7140   32.4340   40.2640 S   0  0  0  0  0  0  0  0  0  0  0  0
   37.7940   32.3790   40.3040 C   0  0  0  0  0  0  0  0  0  0  0  0
   37.6540   31.3660   40.7710 N   0  0  0  0  0  0  0  0  0  0  0  0
   36.9160   33.4020   39.8410 N   0  0  0  0  0  0  0  0  0  0  0  0
   36.3930   34.1040   40.3890 H   0  0  0  0  0  0  0  0  0  0  0  0
   36.8330   33.3820   38.7860 H   0  0  0  0  0  0  0  0  0  0  0  0
   40.9390   31.2560   43.4710 F   0  0  0  0  0  0  0  0  0  0  0  0
   41.5320   30.3860   42.6060 C   0  0  0  0  0  0  0  0  0  0  0  0
   41.0330   30.0830   41.3340 C   0  0  0  0  0  0  0  0  0  0  0  0
   41.7330   29.1750   40.5380 C   0  0  0  0  0  0  0  0  0  0  0  0
   41.2650   29.0070   39.5710 H   0  0  0  0  0  0  0  0  0  0  0  0
   42.8920   28.6000   41.0190 C   0  0  0  0  0  0  0  0  0  0  0  0
   43.3890   27.9060   40.3560 H   0  0  0  0  0  0  0  0  0  0  0  0
   43.3630   28.9180   42.2810 C   0  0  0  0  0  3  0  0  0  0  0  0
   42.6820   29.8130   43.0750 C   0  0  0  0  0  3  0  0  0  0  0  0
  1  2  1  0  0  0  0
  2  3  2  0  0  0  0
  2  7  1  0  0  0  0
  3  4  1  0  0  0  0
  4  8  1  0  0  0  0
  4  5  2  0  0  0  0
  5  9  1  0  0  0  0
  6  5  1  0  0  0  0
  6 10  1  0  0  0  0
  7  6  2  0  0  0  0
 11 12  1  0  0  0  0
 12 18  1  0  0  0  0
 12 13  2  0  0  0  0
 13  3  1  0  0  0  0
 14 13  1  0  0  0  0
 15 19  1  0  0  0  0
 15 14  2  0  0  0  0
 16 11  2  0  0  0  0
 16 15  1  0  0  0  0
 17 11  1  0  0  0  0
 20  7  1  0  0  0  0
 21 20  2  0  0  0  0
 21 30  1  0  0  0  0
 22 23  1  0  0  0  0
 22 21  1  0  0  0  0
 23 24  2  0  0  0  0
 24 20  1  0  0  0  0
 25 23  1  0  0  0  0
 25 26  1  0  0  0  0
 27 25  1  0  0  0  0
 29 36  1  0  0  0  0
 29 28  1  0  0  0  0
 30 29  2  0  0  0  0
 31 33  2  0  0  0  0
 31 30  1  0  0  0  0
 32 31  1  0  0  0  0
 33 35  1  0  0  0  0
 34 33  1  0  0  0  0
 35 36  2  0  0  0  0
M  END
>  <minimizedAffinity>
-5.7848053

$$$$

 OpenBabel03242516073D

 36 39  0  0  0  0  0  0  0  0999 V2000
   39.5850   26.8780   40.0080 Cl  0  0  0  0  0  0  0  0  0  0  0  0
   38.6010   27.2390   41.4070 C   0  0  0  0  0  0  0  0  0  0  0  0
   39.1030   27.2250   42.6740 C   0  0  0  0  0  0  0  0  0  0  0  0
   38.2340   27.5250   43.6800 C   0  0  0  0  0  0  0  0  0  0  0  0
   36.9340   27.8250   43.4650 C   0  0  0  0  0  0  0  0  0  0  0  0
   36.4210   27.8420   42.1940 C   0  0  0  0  0  0  0  0  0  0  0  0
   37.2900   27.5390   41.1480 C   0  0  0  0  0  0  0  0  0  0  0  0
   38.5980   27.5230   44.7030 H   0  0  0  0  0  0  0  0  0  0  0  0
   36.2800   28.0570   44.2860 H   0  0  0  0  0  0  0  0  0  0  0  0
   35.3790   28.0830   42.0240 H   0  0  0  0  0  0  0  0  0  0  0  0
   42.8550   27.5060   43.1020 C   0  0  0  0  0  0  0  0  0  0  0  0
   41.5090   27.8470   42.9300 C   0  0  0  0  0  0  0  0  0  0  0  0
   40.4960   26.8990   42.8480 C   0  0  0  0  0  0  0  0  0  0  0  0
   40.9390   25.6120   42.9500 N   0  0  0  0  0  0  0  0  0  0  0  0
   42.2290   25.2920   43.1130 C   0  0  0  0  0  0  0  0  0  0  0  0
   43.1770   26.2300   43.1880 N   0  0  0  0  0  0  0  0  0  0  0  0
   43.5860   28.3130   43.1560 H   0  0  0  0  0  0  0  0  0  0  0  0
   41.2500   28.8920   42.8610 H   0  0  0  0  0  0  0  0  0  0  0  0
   42.4290   24.2210   43.1760 H   0  0  0  0  0  0  0  0  0  0  0  0
   36.7490   27.5530   39.7660 C   0  0  0  0  0  0  0  0  0  0  0  0
   36.7490   28.7130   38.9710 C   0  0  0  0  0  0  0  0  0  0  0  0
   35.9910   28.1680   37.4190 S   0  0  0  0  0  0  0  0  0  0  0  0
   35.7850   26.3880   38.1100 C   0  0  0  0  0  0  0  0  0  0  0  0
   36.2280   26.5400   39.1320 N   0  0  0  0  0  0  0  0  0  0  0  0
   35.2150   25.2800   37.4180 N   0  0  0  0  0  0  0  0  0  0  0  0
   34.2710   24.8720   37.5130 H   0  0  0  0  0  0  0  0  0  0  0  0
   35.9050   24.8670   36.7290 H   0  0  0  0  0  0  0  0  0  0  0  0
   39.1680   29.4520   37.9100 F   0  0  0  0  0  0  0  0  0  0  0  0
   38.4580   30.3410   38.6590 C   0  0  0  0  0  0  0  0  0  0  0  0
   37.2170   30.0600   39.2440 C   0  0  0  0  0  0  0  0  0  0  0  0
   36.5870   31.0560   39.9920 C   0  0  0  0  0  0  0  0  0  0  0  0
   35.6320   30.7400   40.4020 H   0  0  0  0  0  0  0  0  0  0  0  0
   37.1970   32.2860   40.1380 C   0  0  0  0  0  0  0  0  0  0  0  0
   36.6600   33.0150   40.7280 H   0  0  0  0  0  0  0  0  0  0  0  0
   38.4240   32.5360   39.5490 C   0  0  0  0  0  3  0  0  0  0  0  0
   39.0560   31.5630   38.8100 C   0  0  0  0  0  3  0  0  0  0  0  0
  1  2  1  0  0  0  0
  2  3  1  0  0  0  0
  3 13  1  0  0  0  0
  3  4  2  0  0  0  0
  4  8  1  0  0  0  0
  5  4  1  0  0  0  0
  5  9  1  0  0  0  0
  6  5  2  0  0  0  0
  7  2  2  0  0  0  0
  7  6  1  0  0  0  0
 10  6  1  0  0  0  0
 11 17  1  0  0  0  0
 11 16  1  0  0  0  0
 12 11  2  0  0  0  0
 13 12  1  0  0  0  0
 13 14  2  0  0  0  0
 14 15  1  0  0  0  0
 15 19  1  0  0  0  0
 15 16  2  0  0  0  0
 18 12  1  0  0  0  0
 20  7  1  0  0  0  0
 21 30  1  0  0  0  0
 21 20  2  0  0  0  0
 22 23  1  0  0  0  0
 22 21  1  0  0  0  0
 23 24  2  0  0  0  0
 24 20  1  0  0  0  0
 25 26  1  0  0  0  0
 25 23  1  0  0  0  0
 27 25  1  0  0  0  0
 28 29  1  0  0  0  0
 29 36  2  0  0  0  0
 29 30  1  0  0  0  0
 30 31  2  0  0  0  0
 31 33  1  0  0  0  0
 31 32  1  0  0  0  0
 33 34  1  0  0  0  0
 35 33  2  0  0  0  0
 36 35  1  0  0  0  0
M  END
>  <minimizedAffinity>
-5.76512003

$$$$
