
 OpenBabel03252507313D

 49 52  0  0  1  0  0  0  0  0999 V2000
   46.9410   32.8130   45.5120 C   0  0  0  0  0  0  0  0  0  0  0  0
   45.8450   33.4850   46.0280 C   0  0  0  0  0  0  0  0  0  0  0  0
   45.1620   34.4300   45.2260 C   0  0  0  0  0  0  0  0  0  0  0  0
   45.6550   34.6220   43.9390 N   0  0  0  0  0  0  0  0  0  0  0  0
   46.7220   33.9400   43.5020 C   0  0  0  0  0  0  0  0  0  0  0  0
   47.3510   33.0540   44.2710 N   0  0  0  0  0  0  0  0  0  0  0  0
   45.3330   33.5210   46.9670 H   0  0  0  0  0  0  0  0  0  0  0  0
   44.3050   35.0260   45.4690 H   0  0  0  0  0  0  0  0  0  0  0  0
   47.5910   31.8370   46.3640 C   0  0  2  0  0  0  0  0  0  0  0  0
   47.3590   30.3840   45.8480 C   0  0  0  0  0  0  0  0  0  0  0  0
   48.1760   29.4370   46.6610 C   0  0  0  0  0  0  0  0  0  0  0  0
   48.1520   29.6490   48.1360 C   0  0  0  0  0  0  0  0  0  0  0  0
   48.1350   31.0340   48.5370 C   0  0  0  0  0  0  0  0  0  0  0  0
   47.1390   31.9050   47.7400 C   0  0  2  0  0  0  0  0  0  0  0  0
   48.7000   31.9270   46.2850 H   0  0  0  0  0  0  0  0  0  0  0  0
   47.7260   30.4120   44.8020 H   0  0  0  0  0  0  0  0  0  0  0  0
   46.2920   30.1450   45.8080 H   0  0  0  0  0  0  0  0  0  0  0  0
   49.1720   29.3940   46.1800 H   0  0  0  0  0  0  0  0  0  0  0  0
   47.7420   28.4130   46.4780 H   0  0  0  0  0  0  0  0  0  0  0  0
   47.7830   28.8420   48.7700 H   0  0  0  0  0  0  0  0  0  0  0  0
   49.2640   29.4020   48.3700 H   0  0  0  0  0  0  0  0  0  0  0  0
   49.0900   31.6160   48.5120 H   0  0  0  0  0  0  0  0  0  0  0  0
   47.7860   31.1150   49.6020 H   0  0  0  0  0  0  0  0  0  0  0  0
   47.2540   32.8660   48.2450 H   0  0  0  0  0  0  0  0  0  0  0  0
   45.8050   31.3140   47.8610 N   0  0  0  0  0  0  0  0  0  0  0  0
   45.1410   30.7250   48.9500 C   0  0  0  0  0  0  0  0  0  0  0  0
   44.6110   31.4100   49.8980 O   0  0  0  0  0  0  0  0  0  0  0  0
   45.0910   29.2990   48.9210 N   0  0  0  0  0  0  0  0  0  0  0  0
   45.1460   31.2010   47.0010 H   0  0  0  0  0  0  0  0  0  0  0  0
   44.6590   28.7010   48.1560 H   0  0  0  0  0  0  0  0  0  0  0  0
   45.3360   28.4110   49.4090 H   0  0  0  0  0  0  0  0  0  0  0  0
   47.2070   34.2040   42.1430 C   0  0  0  0  0  0  0  0  0  0  0  0
   48.2080   35.1210   41.9130 C   0  0  0  0  0  0  0  0  0  0  0  0
   48.7100   35.4150   40.6630 C   0  0  0  0  0  0  0  0  0  0  0  0
   48.1320   34.7150   39.6200 C   0  0  0  0  0  0  0  0  0  0  0  0
   47.1330   33.7990   39.8380 C   0  0  0  0  0  0  0  0  0  0  0  0
   46.6740   33.5470   41.1000 N   0  0  0  0  0  0  0  0  0  0  0  0
   48.5930   35.6150   42.7930 H   0  0  0  0  0  0  0  0  0  0  0  0
   49.4850   36.1280   40.5060 H   0  0  0  0  0  0  0  0  0  0  0  0
   48.5130   34.9320   38.6330 H   0  0  0  0  0  0  0  0  0  0  0  0
   47.5770   34.4110   37.1350 F   0  0  0  0  0  0  0  0  0  0  0  0
   46.7520   33.3770   37.4260 C   0  0  0  0  0  0  0  0  0  0  0  0
   46.5170   33.0560   38.7460 C   0  0  0  0  0  0  0  0  0  0  0  0
   45.6640   31.9870   38.9190 C   0  0  0  0  0  0  0  0  0  0  0  0
   45.4190   31.6610   39.9070 H   0  0  0  0  0  0  0  0  0  0  0  0
   45.0880   31.2930   37.8750 C   0  0  0  0  0  0  0  0  0  0  0  0
   44.4220   30.4600   38.0480 H   0  0  0  0  0  0  0  0  0  0  0  0
   45.3630   31.6630   36.5750 C   0  0  0  0  0  0  0  0  0  0  0  0
   46.2130   32.7290   36.3350 C   0  0  0  0  0  0  0  0  0  0  0  0
  1  2  1  0  0  0  0
  1  9  1  0  0  0  0
  2  7  1  0  0  0  0
  3  8  1  0  0  0  0
  3  2  2  0  0  0  0
  4  3  1  0  0  0  0
  5  4  2  0  0  0  0
  5  6  1  0  0  0  0
  6  1  2  0  0  0  0
  9 15  1  6  0  0  0
  9 14  1  0  0  0  0
 10  9  1  0  0  0  0
 10 11  1  0  0  0  0
 11 12  1  0  0  0  0
 12 21  1  0  0  0  0
 12 13  1  0  0  0  0
 12 20  1  0  0  0  0
 13 23  1  0  0  0  0
 14 25  1  0  0  0  0
 14 24  1  1  0  0  0
 14 13  1  0  0  0  0
 16 10  1  0  0  0  0
 17 10  1  0  0  0  0
 18 11  1  0  0  0  0
 19 11  1  0  0  0  0
 22 13  1  0  0  0  0
 25 26  1  0  0  0  0
 26 27  2  0  0  0  0
 28 26  1  0  0  0  0
 28 31  1  0  0  0  0
 29 25  1  0  0  0  0
 30 28  1  0  0  0  0
 32  5  1  0  0  0  0
 33 32  1  0  0  0  0
 33 38  1  0  0  0  0
 34 33  2  0  0  0  0
 35 36  2  0  0  0  0
 35 34  1  0  0  0  0
 36 37  1  0  0  0  0
 37 32  2  0  0  0  0
 39 34  1  0  0  0  0
 40 35  1  0  0  0  0
 41 42  1  0  0  0  0
 42 43  1  0  0  0  0
 43 44  2  0  0  0  0
 43 36  1  0  0  0  0
 44 45  1  0  0  0  0
 46 47  1  0  0  0  0
 46 44  1  0  0  0  0
 48 46  2  0  0  0  0
 49 48  1  0  0  0  0
 49 42  2  0  0  0  0
M  END
>  <minimizedAffinity>
-6.74760675

>  <minimizedRMSD>
0.198150232

$$$$
