
 OpenBabel03252509233D

 27 29  0  0  1  0  0  0  0  0999 V2000
   46.4410   34.9680   41.9860 C   0  0  1  0  0  0  0  0  0  0  0  0
   47.9570   35.2760   41.9050 C   0  0  0  0  0  0  0  0  0  0  0  0
   47.2560   33.9990   41.3460 C   0  0  2  0  0  0  0  0  0  0  0  0
   45.8130   35.7100   41.4740 H   0  0  0  0  0  0  0  0  0  0  0  0
   48.5850   35.1130   42.7760 H   0  0  0  0  0  0  0  0  0  0  0  0
   48.2050   36.0440   41.1710 H   0  0  0  0  0  0  0  0  0  0  0  0
   47.5390   33.0500   41.8680 H   0  0  0  0  0  0  0  0  0  0  0  0
   45.2930   32.6210   39.7240 F   0  0  0  0  0  0  0  0  0  0  0  0
   46.3080   33.2090   39.0690 C   0  0  0  0  0  0  0  0  0  0  0  0
   47.2140   33.8470   39.8890 C   0  0  0  0  0  0  0  0  0  0  0  0
   48.2790   34.4600   39.2160 C   0  0  0  0  0  0  0  0  0  0  0  0
   49.0660   34.9960   39.7260 H   0  0  0  0  0  0  0  0  0  0  0  0
   48.4340   34.4440   37.8460 C   0  0  0  0  0  0  0  0  0  0  0  0
   49.2410   34.9090   37.3330 H   0  0  0  0  0  0  0  0  0  0  0  0
   47.5010   33.7930   37.0710 C   0  0  0  0  0  3  0  0  0  0  0  0
   46.4440   33.1810   37.7130 C   0  0  0  0  0  3  0  0  0  0  0  0
   44.7090   35.2610   45.3090 C   0  0  0  0  0  0  0  0  0  0  0  0
   45.0970   35.5840   43.9630 C   0  0  0  0  0  0  0  0  0  0  0  0
   46.0340   34.7340   43.4350 C   0  0  0  0  0  0  0  0  0  0  0  0
   46.5600   33.6580   44.1410 N   0  0  0  0  0  0  0  0  0  0  0  0
   46.1530   33.4150   45.3910 C   0  0  0  0  0  0  0  0  0  0  0  0
   45.2250   34.2190   45.9770 N   0  0  0  0  0  0  0  0  0  0  0  0
   43.9790   35.8900   45.7720 H   0  0  0  0  0  0  0  0  0  0  0  0
   46.6590   32.5490   45.7860 H   0  0  0  0  0  0  0  0  0  0  0  0
   44.5700   36.7020   43.2600 N   0  0  0  0  0  0  0  0  0  0  0  0
   43.9970   36.5210   42.4020 H   0  0  0  0  0  0  0  0  0  0  0  0
   44.7930   37.6450   43.6560 H   0  0  0  0  0  0  0  0  0  0  0  0
  1  4  1  6  0  0  0
  1 19  1  0  0  0  0
  2  1  1  0  0  0  0
  2  5  1  0  0  0  0
  3  7  1  1  0  0  0
  3  2  1  0  0  0  0
  3  1  1  0  0  0  0
  6  2  1  0  0  0  0
  9  8  1  0  0  0  0
  9 10  1  0  0  0  0
 10  3  1  0  0  0  0
 11 12  1  0  0  0  0
 11 10  2  0  0  0  0
 13 11  1  0  0  0  0
 14 13  1  0  0  0  0
 15 16  1  0  0  0  0
 15 13  2  0  0  0  0
 16  9  2  0  0  0  0
 17 23  1  0  0  0  0
 17 22  1  0  0  0  0
 18 17  2  0  0  0  0
 19 18  1  0  0  0  0
 19 20  2  0  0  0  0
 20 21  1  0  0  0  0
 21 24  1  0  0  0  0
 21 22  2  0  0  0  0
 25 27  1  0  0  0  0
 25 18  1  0  0  0  0
 26 25  1  0  0  0  0
M  END
>  <minimizedAffinity>
-5.53419828

>  <minimizedRMSD>
0.33089295

$$$$
