REMARK  Name = 
REMARK  3 active torsions:
REMARK  status: ('A' for Active; 'I' for Inactive)
REMARK    1  A    between atoms: C_2  and  N_10
REMARK    2  A    between atoms: C_3  and  C_7
REMARK    3  A    between atoms: C_9  and  C_21
REMARK                            x       y       z     vdW  Elec       q    Type
REMARK                         _______ _______ _______ _____ _____    ______ ____
ROOT
ATOM      1  C   UNL     1      46.542  34.982  41.936  0.00  0.00    +0.000 C 
ATOM      2  C   UNL     1      48.064  35.271  41.935  0.00  0.00    +0.000 C 
ATOM      3  C   UNL     1      47.383  33.976  41.395  0.00  0.00    +0.000 C 
ATOM      4  H   UNL     1      45.957  35.705  41.352  0.00  0.00    +0.000 HD
ATOM      5  H   UNL     1      48.635  35.144  42.850  0.00  0.00    +0.000 HD
ATOM      6  H   UNL     1      48.367  36.001  41.182  0.00  0.00    +0.000 HD
ATOM      7  H   UNL     1      47.621  33.050  41.978  0.00  0.00    +0.000 HD
ENDROOT
BRANCH   3  10
ATOM      8  F   UNL     1      45.185  33.572  39.553  0.00  0.00    +0.000 F 
ATOM      9  C   UNL     1      46.421  33.560  39.026  0.00  0.00    +0.000 A 
ATOM     10  C   UNL     1      47.429  33.754  39.947  0.00  0.00    +0.000 A 
ATOM     11  C   UNL     1      48.722  33.741  39.408  0.00  0.00    +0.000 A 
ATOM     12  H   UNL     1      49.609  33.879  40.008  0.00  0.00    +0.000 HD
ATOM     13  C   UNL     1      48.996  33.552  38.070  0.00  0.00    +0.000 A 
ATOM     14  H   UNL     1      49.976  33.541  37.659  0.00  0.00    +0.000 HD
ATOM     15  C   UNL     1      47.953  33.363  37.191  0.00  0.00    +0.000 A 
ATOM     16  C   UNL     1      46.671  33.372  37.699  0.00  0.00    +0.000 A 
ENDBRANCH   3  10
BRANCH   1  19
ATOM     17  C   UNL     1      44.623  35.462  45.132  0.00  0.00    +0.000 A 
ATOM     18  C   UNL     1      45.099  35.716  43.799  0.00  0.00    +0.000 A 
ATOM     19  C   UNL     1      46.044  34.823  43.367  0.00  0.00    +0.000 A 
ATOM     20  N   UNL     1      46.500  33.768  44.149  0.00  0.00    +0.000 NA
ATOM     21  C   UNL     1      46.014  33.590  45.382  0.00  0.00    +0.000 A 
ATOM     22  N   UNL     1      45.072  34.440  45.875  0.00  0.00    +0.000 NA
ATOM     23  H   UNL     1      43.883  36.127  45.522  0.00  0.00    +0.000 HD
ATOM     24  H   UNL     1      46.474  32.732  45.844  0.00  0.00    +0.000 HD
BRANCH  18  25
ATOM     25  N   UNL     1      44.642  36.812  43.018  0.00  0.00    +0.000 N 
ATOM     26  H   UNL     1      44.117  36.606  42.135  0.00  0.00    +0.000 HD
ATOM     27  H   UNL     1      44.864  37.767  43.385  0.00  0.00    +0.000 HD
ENDBRANCH  18  25
ENDBRANCH   1  19
TORSDOF 3
