
 OpenBabel03242513493D

 31 33  0  0  1  0  0  0  0  0999 V2000
   45.1360   34.4420   41.4510 C   0  0  2  0  0  0  0  0  0  0  0  0
   44.0380   33.6130   40.8470 C   0  0  0  0  0  0  0  0  0  0  0  0
   44.5970   33.3820   39.4520 C   0  0  0  0  0  0  0  0  0  0  0  0
   46.1160   33.3610   39.6290 C   0  0  0  0  0  0  0  0  0  0  0  0
   46.3140   33.5600   41.1010 C   0  0  1  0  0  0  0  0  0  0  0  0
   45.1470   35.3950   40.8840 H   0  0  0  0  0  0  0  0  0  0  0  0
   43.9290   32.6350   41.3560 H   0  0  0  0  0  0  0  0  0  0  0  0
   43.0940   34.1870   40.7810 H   0  0  0  0  0  0  0  0  0  0  0  0
   44.2650   32.4180   39.0350 H   0  0  0  0  0  0  0  0  0  0  0  0
   44.3660   34.2400   38.7900 H   0  0  0  0  0  0  0  0  0  0  0  0
   46.5060   32.3500   39.3360 H   0  0  0  0  0  0  0  0  0  0  0  0
   46.6010   34.1180   39.0030 H   0  0  0  0  0  0  0  0  0  0  0  0
   46.0750   32.5680   41.5700 H   0  0  0  0  0  0  0  0  0  0  0  0
   44.5300   36.0390   44.8010 C   0  0  0  0  0  0  0  0  0  0  0  0
   44.6050   35.9270   43.4100 C   0  0  0  0  0  0  0  0  0  0  0  0
   45.0190   34.7110   42.8850 C   0  0  0  0  0  0  0  0  0  0  0  0
   45.3290   33.6950   43.7530 N   0  0  0  0  0  0  0  0  0  0  0  0
   45.2480   33.8280   45.0870 C   0  0  0  0  0  0  0  0  0  0  0  0
   44.8470   35.0020   45.6200 N   0  0  0  0  0  0  0  0  0  0  0  0
   44.2000   37.0140   45.1380 H   0  0  0  0  0  0  0  0  0  0  0  0
   44.3630   36.7210   42.7360 H   0  0  0  0  0  0  0  0  0  0  0  0
   45.4950   33.0180   45.7600 H   0  0  0  0  0  0  0  0  0  0  0  0
   48.3060   31.9730   42.5490 F   0  0  0  0  0  0  0  0  0  0  0  0
   48.5610   33.2670   42.2450 C   0  0  0  0  0  0  0  0  0  0  0  0
   47.6100   33.9650   41.5660 C   0  0  0  0  0  0  0  0  0  0  0  0
   48.0420   35.2850   41.3280 C   0  0  0  0  0  0  0  0  0  0  0  0
   47.3730   35.9720   40.7850 H   0  0  0  0  0  0  0  0  0  0  0  0
   49.2430   35.8200   41.7110 C   0  0  0  0  0  0  0  0  0  0  0  0
   49.4920   36.8450   41.4850 H   0  0  0  0  0  0  0  0  0  0  0  0
   50.1280   35.0290   42.3910 C   0  0  0  0  0  0  0  0  0  0  0  0
   49.7920   33.7200   42.6710 C   0  0  0  0  0  0  0  0  0  0  0  0
  1  6  1  6  0  0  0
  1 16  1  0  0  0  0
  2  7  1  0  0  0  0
  2  1  1  0  0  0  0
  3  4  1  0  0  0  0
  3  2  1  0  0  0  0
  4  5  1  0  0  0  0
  5  1  1  0  0  0  0
  5 25  1  0  0  0  0
  5 13  1  1  0  0  0
  8  2  1  0  0  0  0
  9  3  1  0  0  0  0
 10  3  1  0  0  0  0
 11  4  1  0  0  0  0
 12  4  1  0  0  0  0
 14 20  1  0  0  0  0
 14 19  1  0  0  0  0
 15 14  2  0  0  0  0
 16 15  1  0  0  0  0
 16 17  2  0  0  0  0
 17 18  1  0  0  0  0
 18 19  2  0  0  0  0
 18 22  1  0  0  0  0
 21 15  1  0  0  0  0
 24 23  1  0  0  0  0
 24 31  1  0  0  0  0
 25 24  2  0  0  0  0
 26 25  1  0  0  0  0
 26 28  2  0  0  0  0
 27 26  1  0  0  0  0
 28 30  1  0  0  0  0
 29 28  1  0  0  0  0
 30 31  2  0  0  0  0
M  END
>  <minimizedAffinity>
-5.51094246

>  <minimizedRMSD>
2.93038821

$$$$
