
 OpenBabel03242521503D

 20 21  0  0  0  0  0  0  0  0999 V2000
   37.7240   30.4870   38.0770 C   0  0  0  0  0  0  0  0  0  0  0  0
   37.4550   31.8410   38.2920 C   0  0  0  0  0  0  0  0  0  0  0  0
   37.2430   32.2670   39.5980 C   0  0  0  0  0  0  0  0  0  0  0  0
   37.3090   31.3460   40.5940 N   0  0  0  0  0  0  0  0  0  0  0  0
   37.5690   30.0490   40.3560 C   0  0  0  0  0  0  0  0  0  0  0  0
   37.7750   29.6270   39.1100 N   0  0  0  0  0  0  0  0  0  0  0  0
   37.8740   30.2470   37.0340 H   0  0  0  0  0  0  0  0  0  0  0  0
   37.3970   32.5980   37.5140 H   0  0  0  0  0  0  0  0  0  0  0  0
   35.3870   28.6110   41.1920 F   0  0  0  0  0  0  0  0  0  0  0  0
   36.5150   28.4190   41.9010 C   0  0  0  0  0  0  0  0  0  0  0  0
   37.6190   29.1340   41.4930 C   0  0  0  0  0  0  0  0  0  0  0  0
   38.7990   28.9720   42.1890 C   0  0  0  0  0  0  0  0  0  0  0  0
   39.6810   29.5410   41.8660 H   0  0  0  0  0  0  0  0  0  0  0  0
   38.9750   28.1490   43.2680 C   0  0  0  0  0  0  0  0  0  0  0  0
   39.9230   28.0570   43.7800 H   0  0  0  0  0  0  0  0  0  0  0  0
   37.8400   27.4420   43.6530 C   0  0  0  0  0  3  0  0  0  0  0  0
   36.6410   27.5760   42.9840 C   0  0  0  0  0  3  0  0  0  0  0  0
   36.9680   33.6240   39.8680 N   0  0  0  0  0  0  0  0  0  0  0  0
   37.8220   34.1680   39.5840 H   0  0  0  0  0  0  0  0  0  0  0  0
   36.1090   34.0860   40.2720 H   0  0  0  0  0  0  0  0  0  0  0  0
  1  2  2  0  0  0  0
  1  6  1  0  0  0  0
  2  3  1  0  0  0  0
  3 18  1  0  0  0  0
  3  4  2  0  0  0  0
  5  4  1  0  0  0  0
  5 11  1  0  0  0  0
  6  5  2  0  0  0  0
  7  1  1  0  0  0  0
  8  2  1  0  0  0  0
  9 10  1  0  0  0  0
 10 17  1  0  0  0  0
 11 10  2  0  0  0  0
 11 12  1  0  0  0  0
 12 14  2  0  0  0  0
 13 12  1  0  0  0  0
 14 16  1  0  0  0  0
 14 15  1  0  0  0  0
 17 16  2  0  0  0  0
 18 20  1  0  0  0  0
 19 18  1  0  0  0  0
M  END
>  <minimizedAffinity>
-5.07003021

$$$$

 OpenBabel03242521503D

 20 21  0  0  0  0  0  0  0  0999 V2000
   39.8370   31.4550   39.3640 C   0  0  0  0  0  0  0  0  0  0  0  0
   39.0370   32.5920   39.2160 C   0  0  0  0  0  0  0  0  0  0  0  0
   37.8210   32.6280   39.8880 C   0  0  0  0  0  0  0  0  0  0  0  0
   37.4740   31.5580   40.6490 N   0  0  0  0  0  0  0  0  0  0  0  0
   38.2650   30.4780   40.7710 C   0  0  0  0  0  0  0  0  0  0  0  0
   39.4330   30.4300   40.1340 N   0  0  0  0  0  0  0  0  0  0  0  0
   40.7620   31.5150   38.8080 H   0  0  0  0  0  0  0  0  0  0  0  0
   39.2910   33.4610   38.6140 H   0  0  0  0  0  0  0  0  0  0  0  0
   38.9380   30.2660   43.4230 F   0  0  0  0  0  0  0  0  0  0  0  0
   38.1520   29.2840   42.9430 C   0  0  0  0  0  0  0  0  0  0  0  0
   37.8050   29.3760   41.6130 C   0  0  0  0  0  0  0  0  0  0  0  0
   37.0020   28.3930   41.0760 C   0  0  0  0  0  0  0  0  0  0  0  0
   36.7240   28.4640   40.0150 H   0  0  0  0  0  0  0  0  0  0  0  0
   36.5080   27.3140   41.7570 C   0  0  0  0  0  0  0  0  0  0  0  0
   35.8800   26.5690   41.2870 H   0  0  0  0  0  0  0  0  0  0  0  0
   36.8780   27.2520   43.0960 C   0  0  0  0  0  3  0  0  0  0  0  0
   37.6800   28.2140   43.6730 C   0  0  0  0  0  3  0  0  0  0  0  0
   36.9770   33.7520   39.7720 N   0  0  0  0  0  0  0  0  0  0  0  0
   37.4960   34.5640   40.1920 H   0  0  0  0  0  0  0  0  0  0  0  0
   36.0090   33.8480   39.3610 H   0  0  0  0  0  0  0  0  0  0  0  0
  1  6  1  0  0  0  0
  2  1  2  0  0  0  0
  2  3  1  0  0  0  0
  3  4  2  0  0  0  0
  4  5  1  0  0  0  0
  5 11  1  0  0  0  0
  6  5  2  0  0  0  0
  7  1  1  0  0  0  0
  8  2  1  0  0  0  0
 10  9  1  0  0  0  0
 10 17  1  0  0  0  0
 11 10  2  0  0  0  0
 12 11  1  0  0  0  0
 12 14  2  0  0  0  0
 13 12  1  0  0  0  0
 14 16  1  0  0  0  0
 15 14  1  0  0  0  0
 16 17  2  0  0  0  0
 18  3  1  0  0  0  0
 18 19  1  0  0  0  0
 20 18  1  0  0  0  0
M  END
>  <minimizedAffinity>
-4.8386879

$$$$

 OpenBabel03242521503D

 20 21  0  0  0  0  0  0  0  0999 V2000
   39.0270   29.7400   40.8040 C   0  0  0  0  0  0  0  0  0  0  0  0
   38.0160   30.6880   40.9790 C   0  0  0  0  0  0  0  0  0  0  0  0
   36.7140   30.2330   41.1470 C   0  0  0  0  0  0  0  0  0  0  0  0
   36.4940   28.8920   41.1300 N   0  0  0  0  0  0  0  0  0  0  0  0
   37.4870   28.0040   40.9580 C   0  0  0  0  0  0  0  0  0  0  0  0
   38.7400   28.4260   40.7970 N   0  0  0  0  0  0  0  0  0  0  0  0
   40.0050   30.1830   40.6810 H   0  0  0  0  0  0  0  0  0  0  0  0
   38.1650   31.7650   40.9970 H   0  0  0  0  0  0  0  0  0  0  0  0
   37.7390   26.4210   43.1860 F   0  0  0  0  0  0  0  0  0  0  0  0
   37.2830   25.8010   42.0810 C   0  0  0  0  0  0  0  0  0  0  0  0
   37.1510   26.5820   40.9550 C   0  0  0  0  0  0  0  0  0  0  0  0
   36.6870   25.9920   39.7980 C   0  0  0  0  0  0  0  0  0  0  0  0
   36.5810   26.6130   38.8980 H   0  0  0  0  0  0  0  0  0  0  0  0
   36.3400   24.6750   39.6650 C   0  0  0  0  0  0  0  0  0  0  0  0
   35.9810   24.2610   38.7330 H   0  0  0  0  0  0  0  0  0  0  0  0
   36.4860   23.9150   40.8220 C   0  0  0  0  0  3  0  0  0  0  0  0
   36.9460   24.4670   41.9990 C   0  0  0  0  0  3  0  0  0  0  0  0
   35.6570   31.1490   41.3280 N   0  0  0  0  0  0  0  0  0  0  0  0
   35.8440   31.6500   42.2330 H   0  0  0  0  0  0  0  0  0  0  0  0
   34.8120   31.3550   40.7280 H   0  0  0  0  0  0  0  0  0  0  0  0
  1  2  1  0  0  0  0
  2  8  1  0  0  0  0
  2  3  2  0  0  0  0
  3 18  1  0  0  0  0
  4  3  1  0  0  0  0
  5  4  2  0  0  0  0
  6  1  2  0  0  0  0
  6  5  1  0  0  0  0
  7  1  1  0  0  0  0
 10  9  1  0  0  0  0
 11  5  1  0  0  0  0
 11 10  2  0  0  0  0
 12 11  1  0  0  0  0
 13 12  1  0  0  0  0
 14 12  2  0  0  0  0
 14 16  1  0  0  0  0
 15 14  1  0  0  0  0
 16 17  2  0  0  0  0
 17 10  1  0  0  0  0
 18 19  1  0  0  0  0
 20 18  1  0  0  0  0
M  END
>  <minimizedAffinity>
-4.80271959

$$$$

 OpenBabel03242521503D

 20 21  0  0  0  0  0  0  0  0999 V2000
   37.6080   30.3500   38.1230 C   0  0  0  0  0  0  0  0  0  0  0  0
   37.3470   31.7050   38.3430 C   0  0  0  0  0  0  0  0  0  0  0  0
   37.2150   32.1410   39.6560 C   0  0  0  0  0  0  0  0  0  0  0  0
   37.3450   31.2280   40.6530 N   0  0  0  0  0  0  0  0  0  0  0  0
   37.5960   29.9310   40.4100 C   0  0  0  0  0  0  0  0  0  0  0  0
   37.7260   29.4990   39.1570 N   0  0  0  0  0  0  0  0  0  0  0  0
   37.6950   30.1010   37.0750 H   0  0  0  0  0  0  0  0  0  0  0  0
   37.2380   32.4550   37.5630 H   0  0  0  0  0  0  0  0  0  0  0  0
   39.9380   29.6260   41.8070 F   0  0  0  0  0  0  0  0  0  0  0  0
   38.9030   28.8830   42.2410 C   0  0  0  0  0  0  0  0  0  0  0  0
   37.7200   29.0260   41.5500 C   0  0  0  0  0  0  0  0  0  0  0  0
   36.6300   28.2850   41.9570 C   0  0  0  0  0  0  0  0  0  0  0  0
   35.6850   28.3960   41.4070 H   0  0  0  0  0  0  0  0  0  0  0  0
   36.6170   27.4050   43.0050 C   0  0  0  0  0  0  0  0  0  0  0  0
   35.7330   26.8470   43.2830 H   0  0  0  0  0  0  0  0  0  0  0  0
   37.8280   27.2860   43.6800 C   0  0  0  0  0  3  0  0  0  0  0  0
   38.9410   28.0080   43.3060 C   0  0  0  0  0  3  0  0  0  0  0  0
   36.9510   33.4990   39.9310 N   0  0  0  0  0  0  0  0  0  0  0  0
   37.7830   34.0430   39.5900 H   0  0  0  0  0  0  0  0  0  0  0  0
   36.1160   33.9620   40.3830 H   0  0  0  0  0  0  0  0  0  0  0  0
  1  2  2  0  0  0  0
  1  6  1  0  0  0  0
  2  3  1  0  0  0  0
  3 18  1  0  0  0  0
  3  4  2  0  0  0  0
  5  4  1  0  0  0  0
  5 11  1  0  0  0  0
  6  5  2  0  0  0  0
  7  1  1  0  0  0  0
  8  2  1  0  0  0  0
  9 10  1  0  0  0  0
 10 17  1  0  0  0  0
 11 12  1  0  0  0  0
 11 10  2  0  0  0  0
 12 14  2  0  0  0  0
 13 12  1  0  0  0  0
 14 15  1  0  0  0  0
 14 16  1  0  0  0  0
 17 16  2  0  0  0  0
 18 20  1  0  0  0  0
 19 18  1  0  0  0  0
M  END
>  <minimizedAffinity>
-4.79422045

$$$$

 OpenBabel03242521503D

 20 21  0  0  0  0  0  0  0  0999 V2000
   37.9200   29.3490   38.9610 C   0  0  0  0  0  0  0  0  0  0  0  0
   36.9520   30.2160   39.4760 C   0  0  0  0  0  0  0  0  0  0  0  0
   36.6160   30.0990   40.8200 C   0  0  0  0  0  0  0  0  0  0  0  0
   37.2450   29.1480   41.5590 N   0  0  0  0  0  0  0  0  0  0  0  0
   38.1710   28.3280   41.0360 C   0  0  0  0  0  0  0  0  0  0  0  0
   38.5040   28.4300   39.7500 N   0  0  0  0  0  0  0  0  0  0  0  0
   38.1170   29.5120   37.9110 H   0  0  0  0  0  0  0  0  0  0  0  0
   36.4350   30.9840   38.9060 H   0  0  0  0  0  0  0  0  0  0  0  0
   39.9660   29.0090   42.9970 F   0  0  0  0  0  0  0  0  0  0  0  0
   39.6920   27.6960   42.8920 C   0  0  0  0  0  0  0  0  0  0  0  0
   38.7920   27.3380   41.9120 C   0  0  0  0  0  0  0  0  0  0  0  0
   38.4790   26.0030   41.7650 C   0  0  0  0  0  0  0  0  0  0  0  0
   37.7620   25.7150   40.9840 H   0  0  0  0  0  0  0  0  0  0  0  0
   38.9910   24.9820   42.5190 C   0  0  0  0  0  0  0  0  0  0  0  0
   38.7110   23.9490   42.3630 H   0  0  0  0  0  0  0  0  0  0  0  0
   39.8960   25.3790   43.4990 C   0  0  0  0  0  3  0  0  0  0  0  0
   40.2360   26.7030   43.6790 C   0  0  0  0  0  3  0  0  0  0  0  0
   35.6460   30.9500   41.3870 N   0  0  0  0  0  0  0  0  0  0  0  0
   36.0300   31.9270   41.3300 H   0  0  0  0  0  0  0  0  0  0  0  0
   34.7000   30.7350   41.8070 H   0  0  0  0  0  0  0  0  0  0  0  0
  1  2  2  0  0  0  0
  1  6  1  0  0  0  0
  2  3  1  0  0  0  0
  3 18  1  0  0  0  0
  3  4  2  0  0  0  0
  5  4  1  0  0  0  0
  5 11  1  0  0  0  0
  6  5  2  0  0  0  0
  7  1  1  0  0  0  0
  8  2  1  0  0  0  0
 10  9  1  0  0  0  0
 10 17  1  0  0  0  0
 11 10  2  0  0  0  0
 12 11  1  0  0  0  0
 12 14  2  0  0  0  0
 13 12  1  0  0  0  0
 14 16  1  0  0  0  0
 15 14  1  0  0  0  0
 16 17  2  0  0  0  0
 18 20  1  0  0  0  0
 19 18  1  0  0  0  0
M  END
>  <minimizedAffinity>
-4.6105957

$$$$

 OpenBabel03242521503D

 20 21  0  0  0  0  0  0  0  0999 V2000
   37.2990   27.7440   39.8750 C   0  0  0  0  0  0  0  0  0  0  0  0
   36.8370   27.2950   41.1160 C   0  0  0  0  0  0  0  0  0  0  0  0
   36.6990   28.2260   42.1380 C   0  0  0  0  0  0  0  0  0  0  0  0
   37.0220   29.5200   41.8780 N   0  0  0  0  0  0  0  0  0  0  0  0
   37.4650   29.9210   40.6750 C   0  0  0  0  0  0  0  0  0  0  0  0
   37.6010   29.0400   39.6850 N   0  0  0  0  0  0  0  0  0  0  0  0
   37.3750   26.9530   39.1420 H   0  0  0  0  0  0  0  0  0  0  0  0
   36.5720   26.2670   41.3490 H   0  0  0  0  0  0  0  0  0  0  0  0
   39.6220   31.1140   41.8830 F   0  0  0  0  0  0  0  0  0  0  0  0
   38.8730   31.9180   41.1060 C   0  0  0  0  0  0  0  0  0  0  0  0
   37.7870   31.3340   40.4920 C   0  0  0  0  0  0  0  0  0  0  0  0
   36.9880   32.1190   39.6870 C   0  0  0  0  0  0  0  0  0  0  0  0
   36.1210   31.6550   39.1970 H   0  0  0  0  0  0  0  0  0  0  0  0
   37.1810   33.4500   39.4360 C   0  0  0  0  0  0  0  0  0  0  0  0
   36.5240   34.0210   38.7950 H   0  0  0  0  0  0  0  0  0  0  0  0
   38.2860   34.0080   40.0720 C   0  0  0  0  0  3  0  0  0  0  0  0
   39.1100   33.2590   40.8850 C   0  0  0  0  0  3  0  0  0  0  0  0
   36.2360   27.8250   43.4080 N   0  0  0  0  0  0  0  0  0  0  0  0
   35.2520   27.4810   43.2760 H   0  0  0  0  0  0  0  0  0  0  0  0
   36.7140   27.8330   44.3510 H   0  0  0  0  0  0  0  0  0  0  0  0
  1  2  1  0  0  0  0
  2  8  1  0  0  0  0
  2  3  2  0  0  0  0
  3 18  1  0  0  0  0
  4  3  1  0  0  0  0
  5  4  2  0  0  0  0
  6  1  2  0  0  0  0
  6  5  1  0  0  0  0
  7  1  1  0  0  0  0
 10  9  1  0  0  0  0
 11  5  1  0  0  0  0
 11 10  2  0  0  0  0
 12 11  1  0  0  0  0
 13 12  1  0  0  0  0
 14 12  2  0  0  0  0
 14 16  1  0  0  0  0
 15 14  1  0  0  0  0
 16 17  2  0  0  0  0
 17 10  1  0  0  0  0
 18 20  1  0  0  0  0
 19 18  1  0  0  0  0
M  END
>  <minimizedAffinity>
-4.53237295

$$$$

 OpenBabel03242521503D

 20 21  0  0  0  0  0  0  0  0999 V2000
   36.9190   29.3330   38.2810 C   0  0  0  0  0  0  0  0  0  0  0  0
   36.4250   30.3200   39.1400 C   0  0  0  0  0  0  0  0  0  0  0  0
   36.1320   29.9610   40.4500 C   0  0  0  0  0  0  0  0  0  0  0  0
   36.3380   28.6720   40.8250 N   0  0  0  0  0  0  0  0  0  0  0  0
   36.8130   27.7440   39.9760 C   0  0  0  0  0  0  0  0  0  0  0  0
   37.0990   28.0750   38.7180 N   0  0  0  0  0  0  0  0  0  0  0  0
   37.1180   29.7010   37.2850 H   0  0  0  0  0  0  0  0  0  0  0  0
   36.2510   31.3570   38.8650 H   0  0  0  0  0  0  0  0  0  0  0  0
   35.7170   25.5540   38.7380 F   0  0  0  0  0  0  0  0  0  0  0  0
   36.4450   25.2940   39.8410 C   0  0  0  0  0  0  0  0  0  0  0  0
   37.0020   26.3840   40.4730 C   0  0  0  0  0  0  0  0  0  0  0  0
   37.7560   26.1690   41.6080 C   0  0  0  0  0  0  0  0  0  0  0  0
   38.2000   27.0360   42.1140 H   0  0  0  0  0  0  0  0  0  0  0  0
   38.0060   24.9480   42.1730 C   0  0  0  0  0  0  0  0  0  0  0  0
   38.6050   24.8330   43.0660 H   0  0  0  0  0  0  0  0  0  0  0  0
   37.4280   23.8700   41.5090 C   0  0  0  0  0  3  0  0  0  0  0  0
   36.6670   24.0410   40.3710 C   0  0  0  0  0  3  0  0  0  0  0  0
   35.6330   30.9190   41.3550 N   0  0  0  0  0  0  0  0  0  0  0  0
   36.3870   31.6410   41.4780 H   0  0  0  0  0  0  0  0  0  0  0  0
   34.7030   30.9780   41.8550 H   0  0  0  0  0  0  0  0  0  0  0  0
  1  6  2  0  0  0  0
  1  2  1  0  0  0  0
  2  3  2  0  0  0  0
  3  4  1  0  0  0  0
  3 18  1  0  0  0  0
  5 11  1  0  0  0  0
  5  4  2  0  0  0  0
  6  5  1  0  0  0  0
  7  1  1  0  0  0  0
  8  2  1  0  0  0  0
  9 10  1  0  0  0  0
 10 17  2  0  0  0  0
 10 11  1  0  0  0  0
 11 12  2  0  0  0  0
 12 13  1  0  0  0  0
 12 14  1  0  0  0  0
 14 15  1  0  0  0  0
 16 14  2  0  0  0  0
 17 16  1  0  0  0  0
 18 19  1  0  0  0  0
 18 20  1  0  0  0  0
M  END
>  <minimizedAffinity>
-4.52968216

$$$$

 OpenBabel03242521503D

 20 21  0  0  0  0  0  0  0  0999 V2000
   38.2040   29.6280   39.0460 C   0  0  0  0  0  0  0  0  0  0  0  0
   37.1690   30.4310   39.5340 C   0  0  0  0  0  0  0  0  0  0  0  0
   36.7110   30.1940   40.8250 C   0  0  0  0  0  0  0  0  0  0  0  0
   37.2910   29.1970   41.5410 N   0  0  0  0  0  0  0  0  0  0  0  0
   38.2850   28.4410   41.0440 C   0  0  0  0  0  0  0  0  0  0  0  0
   38.7350   28.6570   39.8090 N   0  0  0  0  0  0  0  0  0  0  0  0
   38.4950   29.8820   38.0370 H   0  0  0  0  0  0  0  0  0  0  0  0
   36.6880   31.2340   38.9820 H   0  0  0  0  0  0  0  0  0  0  0  0
   37.4860   25.8210   40.8760 F   0  0  0  0  0  0  0  0  0  0  0  0
   38.4340   26.0810   41.7960 C   0  0  0  0  0  0  0  0  0  0  0  0
   38.8460   27.3920   41.8920 C   0  0  0  0  0  0  0  0  0  0  0  0
   39.8160   27.7080   42.8200 C   0  0  0  0  0  0  0  0  0  0  0  0
   40.1460   28.7530   42.8980 H   0  0  0  0  0  0  0  0  0  0  0  0
   40.4180   26.8210   43.6700 C   0  0  0  0  0  0  0  0  0  0  0  0
   41.1750   27.1210   44.3810 H   0  0  0  0  0  0  0  0  0  0  0  0
   39.9780   25.5070   43.5460 C   0  0  0  0  0  3  0  0  0  0  0  0
   39.0100   25.1480   42.6310 C   0  0  0  0  0  3  0  0  0  0  0  0
   35.6690   30.9760   41.3640 N   0  0  0  0  0  0  0  0  0  0  0  0
   36.0300   31.9610   41.4250 H   0  0  0  0  0  0  0  0  0  0  0  0
   34.6940   30.7090   41.6710 H   0  0  0  0  0  0  0  0  0  0  0  0
  1  2  2  0  0  0  0
  1  6  1  0  0  0  0
  2  3  1  0  0  0  0
  3 18  1  0  0  0  0
  3  4  2  0  0  0  0
  5  4  1  0  0  0  0
  5 11  1  0  0  0  0
  6  5  2  0  0  0  0
  7  1  1  0  0  0  0
  8  2  1  0  0  0  0
  9 10  1  0  0  0  0
 10 11  2  0  0  0  0
 10 17  1  0  0  0  0
 11 12  1  0  0  0  0
 12 13  1  0  0  0  0
 12 14  2  0  0  0  0
 14 15  1  0  0  0  0
 16 14  1  0  0  0  0
 17 16  2  0  0  0  0
 18 19  1  0  0  0  0
 18 20  1  0  0  0  0
M  END
>  <minimizedAffinity>
-4.52116871

$$$$

 OpenBabel03242521503D

 20 21  0  0  0  0  0  0  0  0999 V2000
   41.9650   26.0280   40.3580 C   0  0  0  0  0  0  0  0  0  0  0  0
   42.8610   25.4710   41.2750 C   0  0  0  0  0  0  0  0  0  0  0  0
   42.4550   25.3570   42.5990 C   0  0  0  0  0  0  0  0  0  0  0  0
   41.2130   25.7950   42.9310 N   0  0  0  0  0  0  0  0  0  0  0  0
   40.3740   26.3270   42.0270 C   0  0  0  0  0  0  0  0  0  0  0  0
   40.7490   26.4420   40.7540 N   0  0  0  0  0  0  0  0  0  0  0  0
   42.3650   26.0770   39.3550 H   0  0  0  0  0  0  0  0  0  0  0  0
   43.8590   25.1130   41.0360 H   0  0  0  0  0  0  0  0  0  0  0  0
   39.9540   28.7850   43.1730 F   0  0  0  0  0  0  0  0  0  0  0  0
   38.8630   28.0060   43.0550 C   0  0  0  0  0  0  0  0  0  0  0  0
   39.0570   26.7690   42.4800 C   0  0  0  0  0  0  0  0  0  0  0  0
   37.9690   25.9340   42.3380 C   0  0  0  0  0  0  0  0  0  0  0  0
   38.1220   24.9470   41.8810 H   0  0  0  0  0  0  0  0  0  0  0  0
   36.6890   26.2290   42.7210 C   0  0  0  0  0  0  0  0  0  0  0  0
   35.8690   25.5370   42.5860 H   0  0  0  0  0  0  0  0  0  0  0  0
   36.5290   27.4860   43.2970 C   0  0  0  0  0  3  0  0  0  0  0  0
   37.5910   28.3510   43.4580 C   0  0  0  0  0  3  0  0  0  0  0  0
   43.3210   24.8010   43.5630 N   0  0  0  0  0  0  0  0  0  0  0  0
   43.4800   23.8000   43.2850 H   0  0  0  0  0  0  0  0  0  0  0  0
   43.7650   25.2300   44.4210 H   0  0  0  0  0  0  0  0  0  0  0  0
  1  6  2  0  0  0  0
  1  2  1  0  0  0  0
  2  3  2  0  0  0  0
  3  4  1  0  0  0  0
  3 18  1  0  0  0  0
  5 11  1  0  0  0  0
  5  4  2  0  0  0  0
  6  5  1  0  0  0  0
  7  1  1  0  0  0  0
  8  2  1  0  0  0  0
 10  9  1  0  0  0  0
 10 17  1  0  0  0  0
 11 10  2  0  0  0  0
 12 11  1  0  0  0  0
 12 14  2  0  0  0  0
 13 12  1  0  0  0  0
 14 16  1  0  0  0  0
 15 14  1  0  0  0  0
 16 17  2  0  0  0  0
 18 20  1  0  0  0  0
 19 18  1  0  0  0  0
M  END
>  <minimizedAffinity>
-4.48897886

$$$$
