
 OpenBabel03252500183D

 20 21  0  0  0  0  0  0  0  0999 V2000
   44.4120   36.1490   44.7600 C   0  0  0  0  0  0  0  0  0  0  0  0
   45.1130   36.0470   43.5350 C   0  0  0  0  0  0  0  0  0  0  0  0
   45.9730   34.9720   43.3440 C   0  0  0  0  0  0  0  0  0  0  0  0
   46.0810   34.0820   44.3620 N   0  0  0  0  0  0  0  0  0  0  0  0
   45.4060   34.2010   45.5130 C   0  0  0  0  0  0  0  0  0  0  0  0
   44.5650   35.2380   45.7190 N   0  0  0  0  0  0  0  0  0  0  0  0
   45.5420   33.2530   46.5550 N   0  0  0  0  0  0  0  0  0  0  0  0
   43.7490   36.9840   44.8960 H   0  0  0  0  0  0  0  0  0  0  0  0
   44.9740   36.7960   42.7700 H   0  0  0  0  0  0  0  0  0  0  0  0
   45.8090   33.3630   47.5730 H   0  0  0  0  0  0  0  0  0  0  0  0
   45.3340   32.2620   46.2310 H   0  0  0  0  0  0  0  0  0  0  0  0
   44.9590   33.4780   41.3000 F   0  0  0  0  0  0  0  0  0  0  0  0
   46.1870   34.0350   41.1050 C   0  0  0  0  0  0  0  0  0  0  0  0
   46.7260   34.7950   42.1210 C   0  0  0  0  0  0  0  0  0  0  0  0
   47.9610   35.3300   41.8740 C   0  0  0  0  0  0  0  0  0  0  0  0
   48.4330   35.9290   42.6200 H   0  0  0  0  0  0  0  0  0  0  0  0
   48.6540   35.1410   40.6900 C   0  0  0  0  0  0  0  0  0  0  0  0
   49.6320   35.5670   40.5000 H   0  0  0  0  0  0  0  0  0  0  0  0
   48.0350   34.3640   39.7290 C   0  0  0  0  0  0  0  0  0  0  0  0
   46.7930   33.7870   39.8960 C   0  0  0  0  0  0  0  0  0  0  0  0
  1  8  1  0  0  0  0
  1  6  1  0  0  0  0
  2  1  2  0  0  0  0
  3  2  1  0  0  0  0
  3  4  2  0  0  0  0
  4  5  1  0  0  0  0
  5  6  2  0  0  0  0
  5  7  1  0  0  0  0
  7 10  1  0  0  0  0
  9  2  1  0  0  0  0
 11  7  1  0  0  0  0
 13 12  1  0  0  0  0
 13 14  1  0  0  0  0
 14  3  1  0  0  0  0
 15 14  2  0  0  0  0
 15 16  1  0  0  0  0
 17 15  1  0  0  0  0
 18 17  1  0  0  0  0
 19 20  1  0  0  0  0
 19 17  2  0  0  0  0
 20 13  2  0  0  0  0
M  END
>  <minimizedAffinity>
-5.53228092

>  <minimizedRMSD>
1.31128097

$$$$
