
 OpenBabel03242516133D

 41 44  0  0  0  0  0  0  0  0999 V2000
   48.3940   34.1090   42.1650 C   0  0  0  0  0  0  0  0  0  0  0  0
   49.5960   35.0290   42.3870 C   0  0  0  0  0  0  0  0  0  0  0  0
   49.5120   33.6970   42.9890 C   0  0  0  0  0  0  0  0  0  0  0  0
   50.2140   35.2640   41.5040 H   0  0  0  0  0  0  0  0  0  0  0  0
   49.4400   35.9280   43.0150 H   0  0  0  0  0  0  0  0  0  0  0  0
   50.2260   32.9540   42.5080 H   0  0  0  0  0  0  0  0  0  0  0  0
   49.5520   33.6720   44.0770 H   0  0  0  0  0  0  0  0  0  0  0  0
   48.3010   33.5760   40.7530 C   0  0  0  0  0  0  0  0  0  0  0  0
   48.1820   34.6520   39.6880 C   0  0  0  0  0  0  0  0  0  0  0  0
   48.2630   33.8880   38.3620 C   0  0  0  0  0  0  0  0  0  0  0  0
   47.0300   33.2540   38.2030 O   0  0  0  0  0  0  0  0  0  0  0  0
   47.0850   32.1720   39.1410 C   0  0  0  0  0  0  0  0  0  0  0  0
   47.0300   32.7580   40.5490 C   0  0  0  0  0  0  0  0  0  0  0  0
   49.1760   32.9510   40.4560 H   0  0  0  0  0  0  0  0  0  0  0  0
   47.2560   35.2150   39.7470 H   0  0  0  0  0  0  0  0  0  0  0  0
   49.1030   35.3090   39.6710 H   0  0  0  0  0  0  0  0  0  0  0  0
   48.3180   34.6400   37.5320 H   0  0  0  0  0  0  0  0  0  0  0  0
   49.0980   33.1820   38.3520 H   0  0  0  0  0  0  0  0  0  0  0  0
   48.0530   31.6530   39.0300 H   0  0  0  0  0  0  0  0  0  0  0  0
   46.2640   31.4790   38.9730 H   0  0  0  0  0  0  0  0  0  0  0  0
   46.9860   31.9010   41.2480 H   0  0  0  0  0  0  0  0  0  0  0  0
   46.1620   33.4510   40.6280 H   0  0  0  0  0  0  0  0  0  0  0  0
   46.4400   35.6360   42.3580 C   0  0  0  0  0  0  0  0  0  0  0  0
   47.1290   34.5360   42.8250 C   0  0  0  0  0  0  0  0  0  0  0  0
   46.5470   33.8380   43.9020 C   0  0  0  0  0  0  0  0  0  0  0  0
   45.3760   34.2720   44.4060 N   0  0  0  0  0  0  0  0  0  0  0  0
   44.7480   35.3430   43.9170 C   0  0  0  0  0  0  0  0  0  0  0  0
   45.2470   36.0210   42.9190 N   0  0  0  0  0  0  0  0  0  0  0  0
   43.5380   35.8130   44.4840 N   0  0  0  0  0  0  0  0  0  0  0  0
   46.8680   36.1660   41.5430 H   0  0  0  0  0  0  0  0  0  0  0  0
   42.7430   35.1350   44.6920 H   0  0  0  0  0  0  0  0  0  0  0  0
   43.4630   36.8380   44.6610 H   0  0  0  0  0  0  0  0  0  0  0  0
   47.4380   31.1560   43.0520 F   0  0  0  0  0  0  0  0  0  0  0  0
   47.3310   31.3150   44.4110 C   0  0  0  0  0  0  0  0  0  0  0  0
   47.0280   32.6360   44.5600 C   0  0  0  0  0  0  0  0  0  0  0  0
   46.9060   33.0280   45.9230 C   0  0  0  0  0  0  0  0  0  0  0  0
   46.6700   34.0000   46.4300 H   0  0  0  0  0  0  0  0  0  0  0  0
   47.0650   32.1710   47.0130 C   0  0  0  0  0  0  0  0  0  0  0  0
   46.9850   32.3520   48.1030 H   0  0  0  0  0  0  0  0  0  0  0  0
   47.3720   30.8300   46.7700 C   0  0  0  0  0  0  0  0  0  0  0  0
   47.4970   30.4340   45.4730 C   0  0  0  0  0  0  0  0  0  0  0  0
  1  2  1  0  0  0  0
  1 24  1  0  0  0  0
  1  3  1  0  0  0  0
  2  3  1  0  0  0  0
  2  5  1  0  0  0  0
  3  7  1  0  0  0  0
  4  2  1  0  0  0  0
  6  3  1  0  0  0  0
  8  1  1  0  0  0  0
  9 15  1  0  0  0  0
  9  8  1  0  0  0  0
 10  9  1  0  0  0  0
 11 10  1  0  0  0  0
 11 12  1  0  0  0  0
 12 13  1  0  0  0  0
 13 22  1  0  0  0  0
 13  8  1  0  0  0  0
 13 21  1  0  0  0  0
 14  8  1  0  0  0  0
 16  9  1  0  0  0  0
 17 10  1  0  0  0  0
 18 10  1  0  0  0  0
 19 12  1  0  0  0  0
 20 12  1  0  0  0  0
 23 24  2  0  0  0  0
 23 28  1  0  0  0  0
 24 25  1  0  0  0  0
 25 26  2  0  0  0  0
 25 35  1  0  0  0  0
 27 26  1  0  0  0  0
 27 29  1  0  0  0  0
 28 27  2  0  0  0  0
 29 32  1  0  0  0  0
 29 31  1  0  0  0  0
 30 23  1  0  0  0  0
 33 34  1  0  0  0  0
 34 35  2  0  0  0  0
 34 41  1  0  0  0  0
 35 36  1  0  0  0  0
 36 37  1  0  0  0  0
 36 38  2  0  0  0  0
 38 39  1  0  0  0  0
 40 38  1  0  0  0  0
 41 40  2  0  0  0  0
M  END
>  <minimizedAffinity>
-5.99187517

>  <minimizedRMSD>
1.11998141

$$$$
