
 OpenBabel03252508173D

 47 51  0  0  1  0  0  0  0  0999 V2000
   47.9110   31.8490   47.8670 C   0  0  0  0  0  0  0  0  0  0  0  0
   48.0400   31.1930   47.0280 H   0  0  0  0  0  0  0  0  0  0  0  0
   48.4160   32.8320   47.6330 H   0  0  0  0  0  0  0  0  0  0  0  0
   46.5440   32.1730   48.3430 C   0  0  1  0  0  0  0  0  0  0  0  0
   45.6410   32.7740   47.3210 C   0  0  0  0  0  0  0  0  0  0  0  0
   45.3750   31.4360   47.8260 C   0  0  1  0  0  0  0  0  0  0  0  0
   46.5110   32.8070   49.2770 H   0  0  0  0  0  0  0  0  0  0  0  0
   44.9360   33.5960   47.5560 H   0  0  0  0  0  0  0  0  0  0  0  0
   45.9900   32.8390   46.2510 H   0  0  0  0  0  0  0  0  0  0  0  0
   44.5240   31.3460   48.5330 H   0  0  0  0  0  0  0  0  0  0  0  0
   45.6310   30.2030   47.0150 C   0  0  2  0  0  0  0  0  0  0  0  0
   44.4540   29.1940   47.0220 C   0  0  0  0  0  0  0  0  0  0  0  0
   45.6720   28.8740   47.7740 C   0  0  1  0  0  0  0  0  0  0  0  0
   46.0920   30.2400   46.0280 H   0  0  0  0  0  0  0  0  0  0  0  0
   43.5290   29.5060   47.5670 H   0  0  0  0  0  0  0  0  0  0  0  0
   44.2200   28.6290   46.1220 H   0  0  0  0  0  0  0  0  0  0  0  0
   45.5500   28.9790   48.8930 H   0  0  0  0  0  0  0  0  0  0  0  0
   45.7510   26.0650   48.4420 F   0  0  0  0  0  0  0  0  0  0  0  0
   46.7630   26.5280   47.6720 C   0  0  0  0  0  0  0  0  0  0  0  0
   46.6650   27.8750   47.3920 C   0  0  0  0  0  0  0  0  0  0  0  0
   47.6980   28.3910   46.5960 C   0  0  0  0  0  0  0  0  0  0  0  0
   47.7590   29.4470   46.2890 H   0  0  0  0  0  0  0  0  0  0  0  0
   48.7320   27.6380   46.1220 C   0  0  0  0  0  0  0  0  0  0  0  0
   49.5300   28.0290   45.5100 H   0  0  0  0  0  0  0  0  0  0  0  0
   48.8060   26.2960   46.4160 C   0  0  0  0  0  3  0  0  0  0  0  0
   47.8060   25.7650   47.1950 C   0  0  0  0  0  3  0  0  0  0  0  0
   49.5380   32.0110   49.5680 C   0  0  0  0  0  3  0  0  0  0  0  0
   48.7330   31.2330   48.9780 C   0  0  0  0  0  3  0  0  0  0  0  0
   51.7120   31.6420   52.5200 C   0  0  0  0  0  0  0  0  0  0  0  0
   51.9910   30.2760   52.5310 C   0  0  0  0  0  0  0  0  0  0  0  0
   51.4320   29.5370   51.5340 C   0  0  0  0  0  0  0  0  0  0  0  0
   50.6500   30.1350   50.5960 N   0  0  0  0  0  0  0  0  0  0  0  0
   50.3980   31.4570   50.6120 C   0  0  0  0  0  0  0  0  0  0  0  0
   50.9420   32.1770   51.5810 N   0  0  0  0  0  0  0  0  0  0  0  0
   52.1190   32.2820   53.2720 H   0  0  0  0  0  0  0  0  0  0  0  0
   52.6170   29.8280   53.2920 H   0  0  0  0  0  0  0  0  0  0  0  0
   51.6390   28.1010   51.4180 C   0  0  0  0  0  0  0  0  0  0  0  0
   52.6420   27.4050   52.0260 C   0  0  0  0  0  0  0  0  0  0  0  0
   52.8180   26.0410   51.9010 C   0  0  0  0  0  0  0  0  0  0  0  0
   51.9500   25.3040   51.1250 C   0  0  0  0  0  0  0  0  0  0  0  0
   50.9210   25.9460   50.4880 C   0  0  0  0  0  0  0  0  0  0  0  0
   50.7930   27.3100   50.6490 C   0  0  0  0  0  0  0  0  0  0  0  0
   53.3510   27.9490   52.6480 H   0  0  0  0  0  0  0  0  0  0  0  0
   53.6410   25.5460   52.4130 H   0  0  0  0  0  0  0  0  0  0  0  0
   52.0830   24.2340   51.0230 H   0  0  0  0  0  0  0  0  0  0  0  0
   50.2200   25.3920   49.8700 H   0  0  0  0  0  0  0  0  0  0  0  0
   49.9500   27.7800   50.1170 H   0  0  0  0  0  0  0  0  0  0  0  0
  1  4  1  0  0  0  0
  1 28  1  0  0  0  0
  2  1  1  0  0  0  0
  3  1  1  0  0  0  0
  4  7  1  1  0  0  0
  5  8  1  0  0  0  0
  5  6  1  0  0  0  0
  5  4  1  0  0  0  0
  6  4  1  0  0  0  0
  6 10  1  1  0  0  0
  9  5  1  0  0  0  0
 11 14  1  6  0  0  0
 11 12  1  0  0  0  0
 11 13  1  0  0  0  0
 11  6  1  0  0  0  0
 12 15  1  0  0  0  0
 12 13  1  0  0  0  0
 13 17  1  1  0  0  0
 16 12  1  0  0  0  0
 19 18  1  0  0  0  0
 20 19  1  0  0  0  0
 20 13  1  0  0  0  0
 21 20  2  0  0  0  0
 22 21  1  0  0  0  0
 23 25  2  0  0  0  0
 23 21  1  0  0  0  0
 24 23  1  0  0  0  0
 25 26  1  0  0  0  0
 26 19  2  0  0  0  0
 27 33  1  0  0  0  0
 28 27  2  0  0  0  0
 29 30  1  0  0  0  0
 29 35  1  0  0  0  0
 30 36  1  0  0  0  0
 31 30  2  0  0  0  0
 32 33  2  0  0  0  0
 32 31  1  0  0  0  0
 33 34  1  0  0  0  0
 34 29  2  0  0  0  0
 37 31  1  0  0  0  0
 37 38  1  0  0  0  0
 38 43  1  0  0  0  0
 39 38  2  0  0  0  0
 39 44  1  0  0  0  0
 40 39  1  0  0  0  0
 41 42  1  0  0  0  0
 41 40  2  0  0  0  0
 42 37  2  0  0  0  0
 45 40  1  0  0  0  0
 46 41  1  0  0  0  0
 47 42  1  0  0  0  0
M  END
>  <minimizedAffinity>
-4.91183853

>  <minimizedRMSD>
9.02816772

$$$$
