
 OpenBabel03242516153D

 41 44  0  0  0  0  0  0  0  0999 V2000
   37.7730   27.7100   42.5810 C   0  0  0  0  0  0  0  0  0  0  0  0
   36.6190   27.3000   43.5000 C   0  0  0  0  0  0  0  0  0  0  0  0
   37.3510   28.5560   43.6800 C   0  0  0  0  0  0  0  0  0  0  0  0
   35.6170   27.2350   43.0430 H   0  0  0  0  0  0  0  0  0  0  0  0
   36.7970   26.4540   44.1930 H   0  0  0  0  0  0  0  0  0  0  0  0
   36.7350   29.4660   43.3870 H   0  0  0  0  0  0  0  0  0  0  0  0
   37.8440   28.6750   44.6430 H   0  0  0  0  0  0  0  0  0  0  0  0
   37.3240   28.0660   41.1810 C   0  0  0  0  0  0  0  0  0  0  0  0
   38.4460   28.5210   40.2640 C   0  0  0  0  0  0  0  0  0  0  0  0
   37.7810   28.6670   38.8910 C   0  0  0  0  0  0  0  0  0  0  0  0
   37.0260   29.8390   38.9470 O   0  0  0  0  0  0  0  0  0  0  0  0
   35.9000   29.4740   39.7550 C   0  0  0  0  0  0  0  0  0  0  0  0
   36.3850   29.2670   41.1860 C   0  0  0  0  0  0  0  0  0  0  0  0
   36.8200   27.2250   40.6490 H   0  0  0  0  0  0  0  0  0  0  0  0
   38.8980   29.4590   40.5700 H   0  0  0  0  0  0  0  0  0  0  0  0
   39.2010   27.6940   40.1060 H   0  0  0  0  0  0  0  0  0  0  0  0
   38.5870   28.8700   38.1370 H   0  0  0  0  0  0  0  0  0  0  0  0
   37.1740   27.7930   38.6400 H   0  0  0  0  0  0  0  0  0  0  0  0
   35.4990   28.5110   39.3920 H   0  0  0  0  0  0  0  0  0  0  0  0
   35.1320   30.2430   39.7080 H   0  0  0  0  0  0  0  0  0  0  0  0
   35.4850   29.0730   41.8010 H   0  0  0  0  0  0  0  0  0  0  0  0
   36.9710   30.1570   41.5110 H   0  0  0  0  0  0  0  0  0  0  0  0
   40.0630   27.3810   43.4940 C   0  0  0  0  0  0  0  0  0  0  0  0
   39.0200   26.9100   42.7230 C   0  0  0  0  0  0  0  0  0  0  0  0
   39.1910   25.6380   42.1400 C   0  0  0  0  0  0  0  0  0  0  0  0
   40.3370   24.9660   42.3620 N   0  0  0  0  0  0  0  0  0  0  0  0
   41.3170   25.4660   43.1170 C   0  0  0  0  0  0  0  0  0  0  0  0
   41.2040   26.6380   43.6800 N   0  0  0  0  0  0  0  0  0  0  0  0
   42.5330   24.7660   43.3070 N   0  0  0  0  0  0  0  0  0  0  0  0
   39.9410   28.3360   43.9420 H   0  0  0  0  0  0  0  0  0  0  0  0
   42.5250   23.7340   43.5690 H   0  0  0  0  0  0  0  0  0  0  0  0
   43.4160   25.3120   43.2030 H   0  0  0  0  0  0  0  0  0  0  0  0
   36.5340   24.4150   42.5300 F   0  0  0  0  0  0  0  0  0  0  0  0
   37.1160   24.1360   41.3180 C   0  0  0  0  0  0  0  0  0  0  0  0
   38.2530   24.8890   41.3230 C   0  0  0  0  0  0  0  0  0  0  0  0
   39.0020   24.7720   40.1200 C   0  0  0  0  0  0  0  0  0  0  0  0
   39.9650   25.2210   39.7610 H   0  0  0  0  0  0  0  0  0  0  0  0
   38.6410   23.9720   39.0330 C   0  0  0  0  0  0  0  0  0  0  0  0
   39.1400   23.7920   38.0620 H   0  0  0  0  0  0  0  0  0  0  0  0
   37.4610   23.2300   39.1130 C   0  0  0  0  0  3  0  0  0  0  0  0
   36.7260   23.3300   40.2550 C   0  0  0  0  0  3  0  0  0  0  0  0
  1 24  1  0  0  0  0
  1  2  1  0  0  0  0
  1  3  1  0  0  0  0
  2  3  1  0  0  0  0
  2  5  1  0  0  0  0
  3  7  1  0  0  0  0
  4  2  1  0  0  0  0
  6  3  1  0  0  0  0
  8 13  1  0  0  0  0
  8  1  1  0  0  0  0
  9 15  1  0  0  0  0
  9  8  1  0  0  0  0
 10 11  1  0  0  0  0
 10  9  1  0  0  0  0
 11 12  1  0  0  0  0
 12 13  1  0  0  0  0
 13 22  1  0  0  0  0
 13 21  1  0  0  0  0
 14  8  1  0  0  0  0
 16  9  1  0  0  0  0
 17 10  1  0  0  0  0
 18 10  1  0  0  0  0
 19 12  1  0  0  0  0
 20 12  1  0  0  0  0
 23 28  1  0  0  0  0
 23 30  1  0  0  0  0
 24 23  2  0  0  0  0
 25 26  2  0  0  0  0
 25 24  1  0  0  0  0
 26 27  1  0  0  0  0
 27 29  1  0  0  0  0
 27 28  2  0  0  0  0
 29 31  1  0  0  0  0
 32 29  1  0  0  0  0
 34 35  1  0  0  0  0
 34 33  1  0  0  0  0
 35 25  1  0  0  0  0
 36 35  2  0  0  0  0
 37 36  1  0  0  0  0
 38 40  2  0  0  0  0
 38 36  1  0  0  0  0
 39 38  1  0  0  0  0
 40 41  1  0  0  0  0
 41 34  2  0  0  0  0
M  END
>  <minimizedAffinity>
-6.14274454

$$$$

 OpenBabel03242516153D

 41 44  0  0  0  0  0  0  0  0999 V2000
   36.4040   29.4030   39.2830 C   0  0  0  0  0  0  0  0  0  0  0  0
   35.6980   28.5560   40.3440 C   0  0  0  0  0  0  0  0  0  0  0  0
   34.9580   29.3680   39.3760 C   0  0  0  0  0  0  0  0  0  0  0  0
   35.8120   27.4610   40.2640 H   0  0  0  0  0  0  0  0  0  0  0  0
   35.7770   28.8900   41.3970 H   0  0  0  0  0  0  0  0  0  0  0  0
   34.4330   28.7390   38.5880 H   0  0  0  0  0  0  0  0  0  0  0  0
   34.3090   30.1300   39.8040 H   0  0  0  0  0  0  0  0  0  0  0  0
   37.0800   28.5780   38.2110 C   0  0  0  0  0  0  0  0  0  0  0  0
   38.2920   29.2430   37.5840 C   0  0  0  0  0  0  0  0  0  0  0  0
   38.8840   28.1700   36.6630 C   0  0  0  0  0  0  0  0  0  0  0  0
   38.0430   28.1050   35.5520 O   0  0  0  0  0  0  0  0  0  0  0  0
   36.8830   27.4260   36.0480 C   0  0  0  0  0  0  0  0  0  0  0  0
   36.1600   28.3580   37.0150 C   0  0  0  0  0  0  0  0  0  0  0  0
   37.4330   27.5840   38.5730 H   0  0  0  0  0  0  0  0  0  0  0  0
   38.0480   30.1370   37.0190 H   0  0  0  0  0  0  0  0  0  0  0  0
   39.1060   29.4100   38.3520 H   0  0  0  0  0  0  0  0  0  0  0  0
   39.8630   28.5520   36.2720 H   0  0  0  0  0  0  0  0  0  0  0  0
   38.9760   27.2070   37.1720 H   0  0  0  0  0  0  0  0  0  0  0  0
   37.2070   26.5360   36.6150 H   0  0  0  0  0  0  0  0  0  0  0  0
   36.2330   27.1320   35.2270 H   0  0  0  0  0  0  0  0  0  0  0  0
   35.2270   27.8440   37.3130 H   0  0  0  0  0  0  0  0  0  0  0  0
   35.9960   29.3450   36.5250 H   0  0  0  0  0  0  0  0  0  0  0  0
   36.8120   31.8560   39.3340 C   0  0  0  0  0  0  0  0  0  0  0  0
   37.1320   30.5960   39.7960 C   0  0  0  0  0  0  0  0  0  0  0  0
   38.1270   30.5230   40.7920 C   0  0  0  0  0  0  0  0  0  0  0  0
   38.6980   31.6610   41.2300 N   0  0  0  0  0  0  0  0  0  0  0  0
   38.3530   32.8580   40.7500 C   0  0  0  0  0  0  0  0  0  0  0  0
   37.4360   32.9760   39.8290 N   0  0  0  0  0  0  0  0  0  0  0  0
   38.9930   34.0420   41.1900 N   0  0  0  0  0  0  0  0  0  0  0  0
   36.0600   31.9230   38.5870 H   0  0  0  0  0  0  0  0  0  0  0  0
   39.1300   34.2250   42.2300 H   0  0  0  0  0  0  0  0  0  0  0  0
   39.2930   34.7200   40.4550 H   0  0  0  0  0  0  0  0  0  0  0  0
   39.9510   28.2950   40.1480 F   0  0  0  0  0  0  0  0  0  0  0  0
   39.3030   28.1690   41.3510 C   0  0  0  0  0  0  0  0  0  0  0  0
   38.6260   29.3460   41.4800 C   0  0  0  0  0  0  0  0  0  0  0  0
   37.9020   29.4400   42.7010 C   0  0  0  0  0  0  0  0  0  0  0  0
   37.2430   30.2280   43.1510 H   0  0  0  0  0  0  0  0  0  0  0  0
   37.8620   28.4450   43.6800 C   0  0  0  0  0  0  0  0  0  0  0  0
   37.3330   28.3970   44.6510 H   0  0  0  0  0  0  0  0  0  0  0  0
   38.5830   27.2680   43.4660 C   0  0  0  0  0  3  0  0  0  0  0  0
   39.2870   27.1580   42.3050 C   0  0  0  0  0  3  0  0  0  0  0  0
  1  3  1  0  0  0  0
  1 24  1  0  0  0  0
  1  2  1  0  0  0  0
  2  5  1  0  0  0  0
  3  7  1  0  0  0  0
  3  2  1  0  0  0  0
  4  2  1  0  0  0  0
  6  3  1  0  0  0  0
  8 14  1  0  0  0  0
  8  1  1  0  0  0  0
  9  8  1  0  0  0  0
  9 16  1  0  0  0  0
 10 18  1  0  0  0  0
 10  9  1  0  0  0  0
 11 12  1  0  0  0  0
 11 10  1  0  0  0  0
 12 19  1  0  0  0  0
 12 13  1  0  0  0  0
 13 21  1  0  0  0  0
 13  8  1  0  0  0  0
 15  9  1  0  0  0  0
 17 10  1  0  0  0  0
 20 12  1  0  0  0  0
 22 13  1  0  0  0  0
 23 24  2  0  0  0  0
 23 28  1  0  0  0  0
 24 25  1  0  0  0  0
 25 26  2  0  0  0  0
 25 35  1  0  0  0  0
 27 29  1  0  0  0  0
 27 26  1  0  0  0  0
 28 27  2  0  0  0  0
 29 31  1  0  0  0  0
 30 23  1  0  0  0  0
 32 29  1  0  0  0  0
 33 34  1  0  0  0  0
 34 35  2  0  0  0  0
 34 41  1  0  0  0  0
 35 36  1  0  0  0  0
 36 37  1  0  0  0  0
 36 38  2  0  0  0  0
 38 39  1  0  0  0  0
 40 38  1  0  0  0  0
 41 40  2  0  0  0  0
M  END
>  <minimizedAffinity>
-5.75871944

$$$$

 OpenBabel03242516153D

 41 44  0  0  0  0  0  0  0  0999 V2000
   37.3700   27.6650   42.3180 C   0  0  0  0  0  0  0  0  0  0  0  0
   38.1550   27.5630   43.6290 C   0  0  0  0  0  0  0  0  0  0  0  0
   36.6940   27.4560   43.5840 C   0  0  0  0  0  0  0  0  0  0  0  0
   38.8280   26.6960   43.7410 H   0  0  0  0  0  0  0  0  0  0  0  0
   38.6280   28.4880   44.0120 H   0  0  0  0  0  0  0  0  0  0  0  0
   36.3270   26.3970   43.7730 H   0  0  0  0  0  0  0  0  0  0  0  0
   36.1530   28.1980   44.1680 H   0  0  0  0  0  0  0  0  0  0  0  0
   37.5770   26.4770   41.4040 C   0  0  0  0  0  0  0  0  0  0  0  0
   36.8880   26.6020   40.0570 C   0  0  0  0  0  0  0  0  0  0  0  0
   37.3670   25.3770   39.2690 C   0  0  0  0  0  0  0  0  0  0  0  0
   36.6750   24.2840   39.7930 O   0  0  0  0  0  0  0  0  0  0  0  0
   37.3120   24.0580   41.0560 C   0  0  0  0  0  0  0  0  0  0  0  0
   36.9530   25.2130   41.9860 C   0  0  0  0  0  0  0  0  0  0  0  0
   38.6490   26.2720   41.1790 H   0  0  0  0  0  0  0  0  0  0  0  0
   35.8050   26.6110   40.1260 H   0  0  0  0  0  0  0  0  0  0  0  0
   37.3040   27.4730   39.4680 H   0  0  0  0  0  0  0  0  0  0  0  0
   37.0010   25.4810   38.2140 H   0  0  0  0  0  0  0  0  0  0  0  0
   38.4510   25.2530   39.3330 H   0  0  0  0  0  0  0  0  0  0  0  0
   38.4060   24.0690   40.9110 H   0  0  0  0  0  0  0  0  0  0  0  0
   36.9980   23.1050   41.4760 H   0  0  0  0  0  0  0  0  0  0  0  0
   37.3840   24.9690   42.9760 H   0  0  0  0  0  0  0  0  0  0  0  0
   35.8480   25.3510   41.9950 H   0  0  0  0  0  0  0  0  0  0  0  0
   36.1470   29.7090   41.6030 C   0  0  0  0  0  0  0  0  0  0  0  0
   37.3370   29.0170   41.6960 C   0  0  0  0  0  0  0  0  0  0  0  0
   38.4890   29.6770   41.2230 C   0  0  0  0  0  0  0  0  0  0  0  0
   38.3700   30.9190   40.7180 N   0  0  0  0  0  0  0  0  0  0  0  0
   37.1940   31.5470   40.6500 C   0  0  0  0  0  0  0  0  0  0  0  0
   36.1000   30.9770   41.0770 N   0  0  0  0  0  0  0  0  0  0  0  0
   37.0770   32.8370   40.0780 N   0  0  0  0  0  0  0  0  0  0  0  0
   35.2740   29.2220   41.9620 H   0  0  0  0  0  0  0  0  0  0  0  0
   37.7530   33.6120   40.3550 H   0  0  0  0  0  0  0  0  0  0  0  0
   36.2950   32.9880   39.4040 H   0  0  0  0  0  0  0  0  0  0  0  0
   40.0620   27.6610   39.7490 F   0  0  0  0  0  0  0  0  0  0  0  0
   40.7300   28.2510   40.7930 C   0  0  0  0  0  0  0  0  0  0  0  0
   39.8630   29.2070   41.2340 C   0  0  0  0  0  0  0  0  0  0  0  0
   40.3840   29.9750   42.3120 C   0  0  0  0  0  0  0  0  0  0  0  0
   39.9790   30.8230   42.9240 H   0  0  0  0  0  0  0  0  0  0  0  0
   41.6430   29.7880   42.8860 C   0  0  0  0  0  0  0  0  0  0  0  0
   42.1490   30.3060   43.7240 H   0  0  0  0  0  0  0  0  0  0  0  0
   42.4680   28.7830   42.3740 C   0  0  0  0  0  3  0  0  0  0  0  0
   41.9900   28.0380   41.3390 C   0  0  0  0  0  3  0  0  0  0  0  0
  1  3  1  0  0  0  0
  1  2  1  0  0  0  0
  2  4  1  0  0  0  0
  2  5  1  0  0  0  0
  3  2  1  0  0  0  0
  3  6  1  0  0  0  0
  3  7  1  0  0  0  0
  8 13  1  0  0  0  0
  8  1  1  0  0  0  0
  9 15  1  0  0  0  0
  9  8  1  0  0  0  0
 10 18  1  0  0  0  0
 10 11  1  0  0  0  0
 10  9  1  0  0  0  0
 11 12  1  0  0  0  0
 12 20  1  0  0  0  0
 12 13  1  0  0  0  0
 13 22  1  0  0  0  0
 13 21  1  0  0  0  0
 14  8  1  0  0  0  0
 16  9  1  0  0  0  0
 17 10  1  0  0  0  0
 19 12  1  0  0  0  0
 23 24  1  0  0  0  0
 23 30  1  0  0  0  0
 24  1  1  0  0  0  0
 25 35  1  0  0  0  0
 25 24  2  0  0  0  0
 26 25  1  0  0  0  0
 27 26  2  0  0  0  0
 27 28  1  0  0  0  0
 28 23  2  0  0  0  0
 29 31  1  0  0  0  0
 29 27  1  0  0  0  0
 32 29  1  0  0  0  0
 33 34  1  0  0  0  0
 34 35  2  0  0  0  0
 34 41  1  0  0  0  0
 35 36  1  0  0  0  0
 36 38  2  0  0  0  0
 36 37  1  0  0  0  0
 38 39  1  0  0  0  0
 40 38  1  0  0  0  0
 41 40  2  0  0  0  0
M  END
>  <minimizedAffinity>
-5.68926144

$$$$

 OpenBabel03242516153D

 41 44  0  0  0  0  0  0  0  0999 V2000
   38.4950   29.0790   38.3900 C   0  0  0  0  0  0  0  0  0  0  0  0
   39.6480   28.8590   37.4080 C   0  0  0  0  0  0  0  0  0  0  0  0
   39.4810   28.0400   38.6110 C   0  0  0  0  0  0  0  0  0  0  0  0
   39.3810   28.5170   36.3930 H   0  0  0  0  0  0  0  0  0  0  0  0
   40.4410   29.6310   37.3730 H   0  0  0  0  0  0  0  0  0  0  0  0
   39.1380   26.9820   38.3760 H   0  0  0  0  0  0  0  0  0  0  0  0
   40.3130   28.0650   39.3120 H   0  0  0  0  0  0  0  0  0  0  0  0
   37.1470   28.6880   37.8250 C   0  0  0  0  0  0  0  0  0  0  0  0
   36.0440   29.6970   38.0920 C   0  0  0  0  0  0  0  0  0  0  0  0
   34.8420   29.1660   37.3030 C   0  0  0  0  0  0  0  0  0  0  0  0
   34.3530   28.0780   38.0270 O   0  0  0  0  0  0  0  0  0  0  0  0
   35.3160   27.0470   37.7760 C   0  0  0  0  0  0  0  0  0  0  0  0
   36.6130   27.4220   38.4880 C   0  0  0  0  0  0  0  0  0  0  0  0
   37.1560   28.5330   36.7210 H   0  0  0  0  0  0  0  0  0  0  0  0
   35.7960   29.7960   39.1440 H   0  0  0  0  0  0  0  0  0  0  0  0
   36.2710   30.6870   37.5930 H   0  0  0  0  0  0  0  0  0  0  0  0
   34.0310   29.9390   37.3470 H   0  0  0  0  0  0  0  0  0  0  0  0
   35.1170   28.8950   36.2800 H   0  0  0  0  0  0  0  0  0  0  0  0
   35.5250   27.0100   36.6930 H   0  0  0  0  0  0  0  0  0  0  0  0
   34.9440   26.0850   38.1210 H   0  0  0  0  0  0  0  0  0  0  0  0
   37.3080   26.5720   38.3500 H   0  0  0  0  0  0  0  0  0  0  0  0
   36.3950   27.6610   39.5530 H   0  0  0  0  0  0  0  0  0  0  0  0
   38.8810   31.5280   38.5880 C   0  0  0  0  0  0  0  0  0  0  0  0
   38.5690   30.3290   39.1950 C   0  0  0  0  0  0  0  0  0  0  0  0
   38.2850   30.3760   40.5750 C   0  0  0  0  0  0  0  0  0  0  0  0
   38.3310   31.5610   41.2120 N   0  0  0  0  0  0  0  0  0  0  0  0
   38.6390   32.6950   40.5790 C   0  0  0  0  0  0  0  0  0  0  0  0
   38.9080   32.7020   39.3010 N   0  0  0  0  0  0  0  0  0  0  0  0
   38.7250   33.9270   41.2710 N   0  0  0  0  0  0  0  0  0  0  0  0
   39.0920   31.5040   37.5470 H   0  0  0  0  0  0  0  0  0  0  0  0
   37.9530   34.2230   41.9410 H   0  0  0  0  0  0  0  0  0  0  0  0
   39.5570   34.5260   41.0720 H   0  0  0  0  0  0  0  0  0  0  0  0
   35.7650   29.0010   41.2640 F   0  0  0  0  0  0  0  0  0  0  0  0
   36.8470   28.6190   42.0180 C   0  0  0  0  0  0  0  0  0  0  0  0
   37.8910   29.2860   41.4490 C   0  0  0  0  0  0  0  0  0  0  0  0
   39.1390   28.9970   42.0700 C   0  0  0  0  0  0  0  0  0  0  0  0
   40.1900   29.3440   41.8910 H   0  0  0  0  0  0  0  0  0  0  0  0
   39.3060   28.1330   43.1540 C   0  0  0  0  0  0  0  0  0  0  0  0
   40.2100   27.8410   43.7230 H   0  0  0  0  0  0  0  0  0  0  0  0
   38.1800   27.4930   43.6780 C   0  0  0  0  0  3  0  0  0  0  0  0
   36.9770   27.7520   43.0970 C   0  0  0  0  0  3  0  0  0  0  0  0
  1  3  1  0  0  0  0
  1 24  1  0  0  0  0
  2  1  1  0  0  0  0
  2  3  1  0  0  0  0
  3  7  1  0  0  0  0
  4  2  1  0  0  0  0
  5  2  1  0  0  0  0
  6  3  1  0  0  0  0
  8  9  1  0  0  0  0
  8  1  1  0  0  0  0
  8 13  1  0  0  0  0
  9 15  1  0  0  0  0
 10 17  1  0  0  0  0
 10 11  1  0  0  0  0
 10  9  1  0  0  0  0
 12 11  1  0  0  0  0
 12 20  1  0  0  0  0
 12 13  1  0  0  0  0
 13 22  1  0  0  0  0
 14  8  1  0  0  0  0
 16  9  1  0  0  0  0
 18 10  1  0  0  0  0
 19 12  1  0  0  0  0
 21 13  1  0  0  0  0
 23 24  2  0  0  0  0
 23 28  1  0  0  0  0
 24 25  1  0  0  0  0
 25 26  2  0  0  0  0
 25 35  1  0  0  0  0
 27 26  1  0  0  0  0
 27 29  1  0  0  0  0
 28 27  2  0  0  0  0
 29 31  1  0  0  0  0
 30 23  1  0  0  0  0
 32 29  1  0  0  0  0
 33 34  1  0  0  0  0
 34 41  1  0  0  0  0
 35 34  2  0  0  0  0
 35 36  1  0  0  0  0
 36 38  2  0  0  0  0
 37 36  1  0  0  0  0
 38 40  1  0  0  0  0
 38 39  1  0  0  0  0
 41 40  2  0  0  0  0
M  END
>  <minimizedAffinity>
-5.64166594

$$$$

 OpenBabel03242516153D

 41 44  0  0  0  0  0  0  0  0999 V2000
   37.1740   29.4400   38.0510 C   0  0  0  0  0  0  0  0  0  0  0  0
   35.7160   28.9970   38.1940 C   0  0  0  0  0  0  0  0  0  0  0  0
   36.2040   29.7000   37.0060 C   0  0  0  0  0  0  0  0  0  0  0  0
   35.5270   27.9110   38.2280 H   0  0  0  0  0  0  0  0  0  0  0  0
   35.0910   29.5350   38.9340 H   0  0  0  0  0  0  0  0  0  0  0  0
   36.2740   29.0230   36.0950 H   0  0  0  0  0  0  0  0  0  0  0  0
   35.7120   30.6470   36.7880 H   0  0  0  0  0  0  0  0  0  0  0  0
   38.1360   28.2860   37.8750 C   0  0  0  0  0  0  0  0  0  0  0  0
   39.5970   28.6620   38.0390 C   0  0  0  0  0  0  0  0  0  0  0  0
   40.3450   27.3260   37.9750 C   0  0  0  0  0  0  0  0  0  0  0  0
   40.3440   26.9440   36.6330 O   0  0  0  0  0  0  0  0  0  0  0  0
   38.9970   26.5100   36.4090 C   0  0  0  0  0  0  0  0  0  0  0  0
   38.0870   27.7340   36.4540 C   0  0  0  0  0  0  0  0  0  0  0  0
   37.9570   27.4470   38.5870 H   0  0  0  0  0  0  0  0  0  0  0  0
   39.9570   29.3370   37.2680 H   0  0  0  0  0  0  0  0  0  0  0  0
   39.8060   29.0320   39.0870 H   0  0  0  0  0  0  0  0  0  0  0  0
   41.4210   27.5200   38.2260 H   0  0  0  0  0  0  0  0  0  0  0  0
   39.8860   26.5740   38.6220 H   0  0  0  0  0  0  0  0  0  0  0  0
   38.6980   25.8370   37.2310 H   0  0  0  0  0  0  0  0  0  0  0  0
   38.9150   25.9970   35.4530 H   0  0  0  0  0  0  0  0  0  0  0  0
   37.0700   27.3830   36.1930 H   0  0  0  0  0  0  0  0  0  0  0  0
   38.4850   28.5170   35.7700 H   0  0  0  0  0  0  0  0  0  0  0  0
   37.8560   31.8050   38.4110 C   0  0  0  0  0  0  0  0  0  0  0  0
   37.5940   30.5580   38.9410 C   0  0  0  0  0  0  0  0  0  0  0  0
   37.6980   30.4320   40.3400 C   0  0  0  0  0  0  0  0  0  0  0  0
   38.0390   31.5110   41.0700 N   0  0  0  0  0  0  0  0  0  0  0  0
   38.2830   32.6980   40.5100 C   0  0  0  0  0  0  0  0  0  0  0  0
   38.1980   32.8640   39.2180 N   0  0  0  0  0  0  0  0  0  0  0  0
   38.6820   33.8130   41.2860 N   0  0  0  0  0  0  0  0  0  0  0  0
   37.7760   31.9120   37.3580 H   0  0  0  0  0  0  0  0  0  0  0  0
   38.1540   34.0660   42.1760 H   0  0  0  0  0  0  0  0  0  0  0  0
   39.4880   34.3740   40.9320 H   0  0  0  0  0  0  0  0  0  0  0  0
   35.3190   28.9040   41.1870 F   0  0  0  0  0  0  0  0  0  0  0  0
   36.4910   28.5080   41.7830 C   0  0  0  0  0  0  0  0  0  0  0  0
   37.4420   29.2610   41.1600 C   0  0  0  0  0  0  0  0  0  0  0  0
   38.7610   28.9760   41.6130 C   0  0  0  0  0  0  0  0  0  0  0  0
   39.7730   29.3790   41.3480 H   0  0  0  0  0  0  0  0  0  0  0  0
   39.0780   28.0370   42.5960 C   0  0  0  0  0  0  0  0  0  0  0  0
   40.0490   27.7390   43.0350 H   0  0  0  0  0  0  0  0  0  0  0  0
   38.0400   27.3110   43.1860 C   0  0  0  0  0  3  0  0  0  0  0  0
   36.7710   27.5650   42.7640 C   0  0  0  0  0  3  0  0  0  0  0  0
  1  2  1  0  0  0  0
  1 24  1  0  0  0  0
  2  4  1  0  0  0  0
  2  5  1  0  0  0  0
  3  1  1  0  0  0  0
  3  2  1  0  0  0  0
  6  3  1  0  0  0  0
  7  3  1  0  0  0  0
  8  9  1  0  0  0  0
  8  1  1  0  0  0  0
  8 14  1  0  0  0  0
  9 16  1  0  0  0  0
 10  9  1  0  0  0  0
 10 17  1  0  0  0  0
 10 18  1  0  0  0  0
 11 10  1  0  0  0  0
 12 13  1  0  0  0  0
 12 11  1  0  0  0  0
 12 19  1  0  0  0  0
 13  8  1  0  0  0  0
 15  9  1  0  0  0  0
 20 12  1  0  0  0  0
 21 13  1  0  0  0  0
 22 13  1  0  0  0  0
 23 24  2  0  0  0  0
 23 28  1  0  0  0  0
 24 25  1  0  0  0  0
 25 26  2  0  0  0  0
 25 35  1  0  0  0  0
 27 26  1  0  0  0  0
 27 29  1  0  0  0  0
 28 27  2  0  0  0  0
 29 31  1  0  0  0  0
 30 23  1  0  0  0  0
 32 29  1  0  0  0  0
 33 34  1  0  0  0  0
 34 41  1  0  0  0  0
 35 36  1  0  0  0  0
 35 34  2  0  0  0  0
 36 38  2  0  0  0  0
 37 36  1  0  0  0  0
 38 39  1  0  0  0  0
 38 40  1  0  0  0  0
 41 40  2  0  0  0  0
M  END
>  <minimizedAffinity>
-5.6210742

$$$$

 OpenBabel03242516153D

 41 44  0  0  0  0  0  0  0  0999 V2000
   38.3760   29.9120   38.5870 C   0  0  0  0  0  0  0  0  0  0  0  0
   39.3220   28.7590   38.9320 C   0  0  0  0  0  0  0  0  0  0  0  0
   39.3790   29.4580   37.6450 C   0  0  0  0  0  0  0  0  0  0  0  0
   40.0370   28.9310   39.7540 H   0  0  0  0  0  0  0  0  0  0  0  0
   38.8860   27.7430   38.9870 H   0  0  0  0  0  0  0  0  0  0  0  0
   40.2970   30.1230   37.5500 H   0  0  0  0  0  0  0  0  0  0  0  0
   39.2210   28.8340   36.7670 H   0  0  0  0  0  0  0  0  0  0  0  0
   38.6480   31.1680   39.3850 C   0  0  0  0  0  0  0  0  0  0  0  0
   37.5970   32.2510   39.2200 C   0  0  0  0  0  0  0  0  0  0  0  0
   38.0020   33.3330   40.2270 C   0  0  0  0  0  0  0  0  0  0  0  0
   39.1060   33.9840   39.6740 O   0  0  0  0  0  0  0  0  0  0  0  0
   40.1720   33.0420   39.8460 C   0  0  0  0  0  0  0  0  0  0  0  0
   39.9220   31.8610   38.9130 C   0  0  0  0  0  0  0  0  0  0  0  0
   38.7290   30.9880   40.4820 H   0  0  0  0  0  0  0  0  0  0  0  0
   37.5540   32.6610   38.2160 H   0  0  0  0  0  0  0  0  0  0  0  0
   36.5910   31.9000   39.6010 H   0  0  0  0  0  0  0  0  0  0  0  0
   37.1880   34.1030   40.2530 H   0  0  0  0  0  0  0  0  0  0  0  0
   38.2190   32.9100   41.2110 H   0  0  0  0  0  0  0  0  0  0  0  0
   40.1480   32.6630   40.8830 H   0  0  0  0  0  0  0  0  0  0  0  0
   41.1320   33.5090   39.6380 H   0  0  0  0  0  0  0  0  0  0  0  0
   40.8010   31.1940   39.0030 H   0  0  0  0  0  0  0  0  0  0  0  0
   39.7430   32.2370   37.8800 H   0  0  0  0  0  0  0  0  0  0  0  0
   36.3940   29.6310   37.1100 C   0  0  0  0  0  0  0  0  0  0  0  0
   36.9530   29.5300   38.3670 C   0  0  0  0  0  0  0  0  0  0  0  0
   36.1290   29.0090   39.3840 C   0  0  0  0  0  0  0  0  0  0  0  0
   34.8680   28.6460   39.0820 N   0  0  0  0  0  0  0  0  0  0  0  0
   34.3730   28.7630   37.8480 C   0  0  0  0  0  0  0  0  0  0  0  0
   35.0990   29.2380   36.8730 N   0  0  0  0  0  0  0  0  0  0  0  0
   33.0320   28.4160   37.5540 N   0  0  0  0  0  0  0  0  0  0  0  0
   37.0090   30.0170   36.3350 H   0  0  0  0  0  0  0  0  0  0  0  0
   32.6290   27.4900   37.8930 H   0  0  0  0  0  0  0  0  0  0  0  0
   32.4820   29.0920   36.9800 H   0  0  0  0  0  0  0  0  0  0  0  0
   36.5320   30.6460   41.8070 F   0  0  0  0  0  0  0  0  0  0  0  0
   36.8360   29.3160   41.9620 C   0  0  0  0  0  0  0  0  0  0  0  0
   36.4650   28.7580   40.7750 C   0  0  0  0  0  0  0  0  0  0  0  0
   36.6660   27.3500   40.7350 C   0  0  0  0  0  0  0  0  0  0  0  0
   36.4900   26.5650   39.9540 H   0  0  0  0  0  0  0  0  0  0  0  0
   37.1940   26.5930   41.7830 C   0  0  0  0  0  0  0  0  0  0  0  0
   37.4070   25.5100   41.8670 H   0  0  0  0  0  0  0  0  0  0  0  0
   37.5510   27.2460   42.9650 C   0  0  0  0  0  3  0  0  0  0  0  0
   37.3630   28.5930   43.0260 C   0  0  0  0  0  3  0  0  0  0  0  0
  1  2  1  0  0  0  0
  1  8  1  0  0  0  0
  2  5  1  0  0  0  0
  2  4  1  0  0  0  0
  3  1  1  0  0  0  0
  3  2  1  0  0  0  0
  6  3  1  0  0  0  0
  7  3  1  0  0  0  0
  8 14  1  0  0  0  0
  9  8  1  0  0  0  0
  9 16  1  0  0  0  0
  9 10  1  0  0  0  0
 10 17  1  0  0  0  0
 10 18  1  0  0  0  0
 11 12  1  0  0  0  0
 11 10  1  0  0  0  0
 12 19  1  0  0  0  0
 13 21  1  0  0  0  0
 13  8  1  0  0  0  0
 13 12  1  0  0  0  0
 15  9  1  0  0  0  0
 20 12  1  0  0  0  0
 22 13  1  0  0  0  0
 23 24  1  0  0  0  0
 24  1  1  0  0  0  0
 24 25  2  0  0  0  0
 25 35  1  0  0  0  0
 26 25  1  0  0  0  0
 27 26  2  0  0  0  0
 28 23  2  0  0  0  0
 28 27  1  0  0  0  0
 29 27  1  0  0  0  0
 29 31  1  0  0  0  0
 30 23  1  0  0  0  0
 32 29  1  0  0  0  0
 33 34  1  0  0  0  0
 34 41  1  0  0  0  0
 35 34  2  0  0  0  0
 36 35  1  0  0  0  0
 36 38  2  0  0  0  0
 37 36  1  0  0  0  0
 38 39  1  0  0  0  0
 38 40  1  0  0  0  0
 40 41  2  0  0  0  0
M  END
>  <minimizedAffinity>
-5.59682655

$$$$

 OpenBabel03242516153D

 41 44  0  0  0  0  0  0  0  0999 V2000
   39.7680   26.8450   42.3110 C   0  0  0  0  0  0  0  0  0  0  0  0
   40.4700   26.9710   43.6650 C   0  0  0  0  0  0  0  0  0  0  0  0
   39.5890   25.8450   43.3450 C   0  0  0  0  0  0  0  0  0  0  0  0
   41.5720   26.9060   43.6620 H   0  0  0  0  0  0  0  0  0  0  0  0
   40.1190   27.7690   44.3480 H   0  0  0  0  0  0  0  0  0  0  0  0
   40.1600   24.8740   43.1900 H   0  0  0  0  0  0  0  0  0  0  0  0
   38.7280   25.7260   44.0000 H   0  0  0  0  0  0  0  0  0  0  0  0
   40.7160   26.5440   41.1710 C   0  0  0  0  0  0  0  0  0  0  0  0
   40.5500   27.4550   39.9670 C   0  0  0  0  0  0  0  0  0  0  0  0
   41.7010   27.0660   39.0330 C   0  0  0  0  0  0  0  0  0  0  0  0
   41.3420   25.8440   38.4620 O   0  0  0  0  0  0  0  0  0  0  0  0
   41.5320   24.9060   39.5290 C   0  0  0  0  0  0  0  0  0  0  0  0
   40.4590   25.1600   40.5850 C   0  0  0  0  0  0  0  0  0  0  0  0
   41.7910   26.6140   41.4580 H   0  0  0  0  0  0  0  0  0  0  0  0
   39.5950   27.3350   39.4650 H   0  0  0  0  0  0  0  0  0  0  0  0
   40.7800   28.5290   40.2360 H   0  0  0  0  0  0  0  0  0  0  0  0
   41.7170   27.7960   38.1820 H   0  0  0  0  0  0  0  0  0  0  0  0
   42.6540   27.0120   39.5660 H   0  0  0  0  0  0  0  0  0  0  0  0
   42.5150   25.0920   39.9950 H   0  0  0  0  0  0  0  0  0  0  0  0
   41.4780   23.8870   39.1540 H   0  0  0  0  0  0  0  0  0  0  0  0
   40.5750   24.3700   41.3510 H   0  0  0  0  0  0  0  0  0  0  0  0
   39.4580   25.1760   40.0980 H   0  0  0  0  0  0  0  0  0  0  0  0
   38.8630   29.1610   42.3630 C   0  0  0  0  0  0  0  0  0  0  0  0
   38.6780   27.8280   42.0600 C   0  0  0  0  0  0  0  0  0  0  0  0
   37.4460   27.4800   41.4710 C   0  0  0  0  0  0  0  0  0  0  0  0
   36.5360   28.4450   41.2390 N   0  0  0  0  0  0  0  0  0  0  0  0
   36.7640   29.7230   41.5500 C   0  0  0  0  0  0  0  0  0  0  0  0
   37.8900   30.0940   42.0960 N   0  0  0  0  0  0  0  0  0  0  0  0
   35.7820   30.7210   41.3390 N   0  0  0  0  0  0  0  0  0  0  0  0
   39.7900   29.4340   42.8030 H   0  0  0  0  0  0  0  0  0  0  0  0
   35.2690   30.7830   40.4080 H   0  0  0  0  0  0  0  0  0  0  0  0
   35.6100   31.3910   42.1210 H   0  0  0  0  0  0  0  0  0  0  0  0
   36.5770   24.9650   42.7480 F   0  0  0  0  0  0  0  0  0  0  0  0
   36.7170   24.8910   41.3850 C   0  0  0  0  0  0  0  0  0  0  0  0
   37.0020   26.1730   41.0180 C   0  0  0  0  0  0  0  0  0  0  0  0
   37.1530   26.3290   39.6120 C   0  0  0  0  0  0  0  0  0  0  0  0
   37.3860   27.2040   38.9510 H   0  0  0  0  0  0  0  0  0  0  0  0
   37.0370   25.2940   38.6810 C   0  0  0  0  0  0  0  0  0  0  0  0
   37.1430   25.2880   37.5790 H   0  0  0  0  0  0  0  0  0  0  0  0
   36.7460   24.0090   39.1430 C   0  0  0  0  0  3  0  0  0  0  0  0
   36.5930   23.8390   40.4860 C   0  0  0  0  0  3  0  0  0  0  0  0
  1  3  1  0  0  0  0
  1  2  1  0  0  0  0
  2  5  1  0  0  0  0
  3  2  1  0  0  0  0
  3  7  1  0  0  0  0
  4  2  1  0  0  0  0
  6  3  1  0  0  0  0
  8 14  1  0  0  0  0
  8  1  1  0  0  0  0
  9 16  1  0  0  0  0
  9  8  1  0  0  0  0
 10 18  1  0  0  0  0
 10  9  1  0  0  0  0
 11 10  1  0  0  0  0
 11 12  1  0  0  0  0
 12 19  1  0  0  0  0
 12 13  1  0  0  0  0
 13  8  1  0  0  0  0
 13 21  1  0  0  0  0
 15  9  1  0  0  0  0
 17 10  1  0  0  0  0
 20 12  1  0  0  0  0
 22 13  1  0  0  0  0
 23 30  1  0  0  0  0
 24  1  1  0  0  0  0
 24 23  2  0  0  0  0
 25 24  1  0  0  0  0
 26 25  2  0  0  0  0
 26 27  1  0  0  0  0
 27 28  2  0  0  0  0
 28 23  1  0  0  0  0
 29 27  1  0  0  0  0
 29 32  1  0  0  0  0
 31 29  1  0  0  0  0
 34 33  1  0  0  0  0
 35 34  1  0  0  0  0
 35 25  1  0  0  0  0
 36 35  2  0  0  0  0
 37 36  1  0  0  0  0
 38 40  2  0  0  0  0
 38 36  1  0  0  0  0
 39 38  1  0  0  0  0
 40 41  1  0  0  0  0
 41 34  2  0  0  0  0
M  END
>  <minimizedAffinity>
-5.55740118

$$$$

 OpenBabel03242516153D

 41 44  0  0  0  0  0  0  0  0999 V2000
   35.6430   29.0230   39.0360 C   0  0  0  0  0  0  0  0  0  0  0  0
   34.1620   28.9440   38.6590 C   0  0  0  0  0  0  0  0  0  0  0  0
   34.6060   29.1260   40.0430 C   0  0  0  0  0  0  0  0  0  0  0  0
   33.7630   29.7590   38.0320 H   0  0  0  0  0  0  0  0  0  0  0  0
   33.7720   27.9600   38.3310 H   0  0  0  0  0  0  0  0  0  0  0  0
   34.4050   30.1750   40.4320 H   0  0  0  0  0  0  0  0  0  0  0  0
   34.2900   28.3530   40.7410 H   0  0  0  0  0  0  0  0  0  0  0  0
   36.3150   30.2910   38.5570 C   0  0  0  0  0  0  0  0  0  0  0  0
   37.6260   30.0630   37.8250 C   0  0  0  0  0  0  0  0  0  0  0  0
   38.0230   31.4510   37.3110 C   0  0  0  0  0  0  0  0  0  0  0  0
   38.4860   32.1580   38.4210 O   0  0  0  0  0  0  0  0  0  0  0  0
   37.2890   32.4700   39.1440 C   0  0  0  0  0  0  0  0  0  0  0  0
   36.7320   31.1750   39.7270 C   0  0  0  0  0  0  0  0  0  0  0  0
   35.6820   30.8940   37.8650 H   0  0  0  0  0  0  0  0  0  0  0  0
   38.4070   29.6540   38.4580 H   0  0  0  0  0  0  0  0  0  0  0  0
   37.4630   29.4670   36.8770 H   0  0  0  0  0  0  0  0  0  0  0  0
   38.9150   31.3300   36.6430 H   0  0  0  0  0  0  0  0  0  0  0  0
   37.1860   31.9540   36.8170 H   0  0  0  0  0  0  0  0  0  0  0  0
   36.5410   32.8720   38.4390 H   0  0  0  0  0  0  0  0  0  0  0  0
   37.4950   33.1960   39.9280 H   0  0  0  0  0  0  0  0  0  0  0  0
   35.8610   31.4570   40.3500 H   0  0  0  0  0  0  0  0  0  0  0  0
   37.5360   30.6450   40.2860 H   0  0  0  0  0  0  0  0  0  0  0  0
   36.2660   26.9660   37.7840 C   0  0  0  0  0  0  0  0  0  0  0  0
   36.4050   27.7490   38.9110 C   0  0  0  0  0  0  0  0  0  0  0  0
   37.3240   27.3020   39.8810 C   0  0  0  0  0  0  0  0  0  0  0  0
   38.0030   26.1610   39.6610 N   0  0  0  0  0  0  0  0  0  0  0  0
   37.8330   25.4370   38.5520 C   0  0  0  0  0  0  0  0  0  0  0  0
   36.9950   25.8120   37.6240 N   0  0  0  0  0  0  0  0  0  0  0  0
   38.5230   24.2170   38.3530 N   0  0  0  0  0  0  0  0  0  0  0  0
   35.5800   27.2970   37.0440 H   0  0  0  0  0  0  0  0  0  0  0  0
   39.5720   24.1580   38.5260 H   0  0  0  0  0  0  0  0  0  0  0  0
   37.9630   23.4050   38.0120 H   0  0  0  0  0  0  0  0  0  0  0  0
   36.0900   27.6620   42.5380 F   0  0  0  0  0  0  0  0  0  0  0  0
   37.2650   28.3500   42.3590 C   0  0  0  0  0  0  0  0  0  0  0  0
   37.6950   27.9410   41.1310 C   0  0  0  0  0  0  0  0  0  0  0  0
   38.9410   28.5190   40.7590 C   0  0  0  0  0  0  0  0  0  0  0  0
   39.5940   28.4320   39.8510 H   0  0  0  0  0  0  0  0  0  0  0  0
   39.6660   29.4190   41.5430 C   0  0  0  0  0  0  0  0  0  0  0  0
   40.6260   29.9380   41.3600 H   0  0  0  0  0  0  0  0  0  0  0  0
   39.1500   29.7860   42.7880 C   0  0  0  0  0  3  0  0  0  0  0  0
   37.9600   29.2420   43.1660 C   0  0  0  0  0  3  0  0  0  0  0  0
  1  3  1  0  0  0  0
  2  1  1  0  0  0  0
  2  3  1  0  0  0  0
  3  6  1  0  0  0  0
  3  7  1  0  0  0  0
  4  2  1  0  0  0  0
  5  2  1  0  0  0  0
  8  1  1  0  0  0  0
  8 13  1  0  0  0  0
  9 15  1  0  0  0  0
  9  8  1  0  0  0  0
 10  9  1  0  0  0  0
 10 11  1  0  0  0  0
 11 12  1  0  0  0  0
 12 13  1  0  0  0  0
 12 20  1  0  0  0  0
 13 22  1  0  0  0  0
 13 21  1  0  0  0  0
 14  8  1  0  0  0  0
 16  9  1  0  0  0  0
 17 10  1  0  0  0  0
 18 10  1  0  0  0  0
 19 12  1  0  0  0  0
 23 24  1  0  0  0  0
 24  1  1  0  0  0  0
 24 25  2  0  0  0  0
 25 35  1  0  0  0  0
 26 25  1  0  0  0  0
 27 26  2  0  0  0  0
 28 23  2  0  0  0  0
 28 27  1  0  0  0  0
 29 31  1  0  0  0  0
 29 27  1  0  0  0  0
 30 23  1  0  0  0  0
 32 29  1  0  0  0  0
 34 33  1  0  0  0  0
 34 41  1  0  0  0  0
 35 34  2  0  0  0  0
 36 35  1  0  0  0  0
 36 38  2  0  0  0  0
 37 36  1  0  0  0  0
 38 40  1  0  0  0  0
 39 38  1  0  0  0  0
 40 41  2  0  0  0  0
M  END
>  <minimizedAffinity>
-5.48108387

$$$$

 OpenBabel03242516153D

 41 44  0  0  0  0  0  0  0  0999 V2000
   37.3500   30.9010   39.3200 C   0  0  0  0  0  0  0  0  0  0  0  0
   36.9510   31.6150   40.6140 C   0  0  0  0  0  0  0  0  0  0  0  0
   37.2920   32.3480   39.3930 C   0  0  0  0  0  0  0  0  0  0  0  0
   35.9170   31.4630   40.9680 H   0  0  0  0  0  0  0  0  0  0  0  0
   37.6700   31.5820   41.4560 H   0  0  0  0  0  0  0  0  0  0  0  0
   36.3850   32.8260   38.9020 H   0  0  0  0  0  0  0  0  0  0  0  0
   38.1320   33.0350   39.4800 H   0  0  0  0  0  0  0  0  0  0  0  0
   36.2030   30.1640   38.6650 C   0  0  0  0  0  0  0  0  0  0  0  0
   35.3220   29.3960   39.6350 C   0  0  0  0  0  0  0  0  0  0  0  0
   34.1670   28.8770   38.7720 C   0  0  0  0  0  0  0  0  0  0  0  0
   34.6840   27.8180   38.0260 O   0  0  0  0  0  0  0  0  0  0  0  0
   35.4900   28.4670   37.0350 C   0  0  0  0  0  0  0  0  0  0  0  0
   36.7080   29.0700   37.7300 C   0  0  0  0  0  0  0  0  0  0  0  0
   35.5160   30.8300   38.0940 H   0  0  0  0  0  0  0  0  0  0  0  0
   35.8340   28.5720   40.1220 H   0  0  0  0  0  0  0  0  0  0  0  0
   34.8140   30.0970   40.3630 H   0  0  0  0  0  0  0  0  0  0  0  0
   33.4070   28.4150   39.4550 H   0  0  0  0  0  0  0  0  0  0  0  0
   33.7480   29.6650   38.1400 H   0  0  0  0  0  0  0  0  0  0  0  0
   34.9110   29.2950   36.5910 H   0  0  0  0  0  0  0  0  0  0  0  0
   35.7900   27.7600   36.2640 H   0  0  0  0  0  0  0  0  0  0  0  0
   37.3530   29.4870   36.9330 H   0  0  0  0  0  0  0  0  0  0  0  0
   37.2030   28.2910   38.3520 H   0  0  0  0  0  0  0  0  0  0  0  0
   39.6360   30.5540   38.4040 C   0  0  0  0  0  0  0  0  0  0  0  0
   38.6790   30.2300   39.3430 C   0  0  0  0  0  0  0  0  0  0  0  0
   39.0500   29.2880   40.3230 C   0  0  0  0  0  0  0  0  0  0  0  0
   40.2910   28.7670   40.2930 N   0  0  0  0  0  0  0  0  0  0  0  0
   41.1830   29.1140   39.3620 C   0  0  0  0  0  0  0  0  0  0  0  0
   40.8860   29.9840   38.4350 N   0  0  0  0  0  0  0  0  0  0  0  0
   42.4710   28.5270   39.3170 N   0  0  0  0  0  0  0  0  0  0  0  0
   39.3680   31.2670   37.6640 H   0  0  0  0  0  0  0  0  0  0  0  0
   43.0580   28.4490   40.2020 H   0  0  0  0  0  0  0  0  0  0  0  0
   42.8130   28.2040   38.3860 H   0  0  0  0  0  0  0  0  0  0  0  0
   38.5020   30.1680   43.0870 F   0  0  0  0  0  0  0  0  0  0  0  0
   37.9950   28.9310   42.7730 C   0  0  0  0  0  0  0  0  0  0  0  0
   38.2660   28.7980   41.4430 C   0  0  0  0  0  0  0  0  0  0  0  0
   37.7830   27.5760   40.8980 C   0  0  0  0  0  0  0  0  0  0  0  0
   37.8150   27.1200   39.8740 H   0  0  0  0  0  0  0  0  0  0  0  0
   37.1090   26.5920   41.6240 C   0  0  0  0  0  0  0  0  0  0  0  0
   36.7010   25.6090   41.3190 H   0  0  0  0  0  0  0  0  0  0  0  0
   36.8770   26.8080   42.9840 C   0  0  0  0  0  3  0  0  0  0  0  0
   37.3260   27.9740   43.5260 C   0  0  0  0  0  3  0  0  0  0  0  0
  1 24  1  0  0  0  0
  1  3  1  0  0  0  0
  1  2  1  0  0  0  0
  2  4  1  0  0  0  0
  2  5  1  0  0  0  0
  3  7  1  0  0  0  0
  3  2  1  0  0  0  0
  6  3  1  0  0  0  0
  8  1  1  0  0  0  0
  8  9  1  0  0  0  0
  9 15  1  0  0  0  0
  9 16  1  0  0  0  0
 10 17  1  0  0  0  0
 10  9  1  0  0  0  0
 11 10  1  0  0  0  0
 12 13  1  0  0  0  0
 12 11  1  0  0  0  0
 13 22  1  0  0  0  0
 13  8  1  0  0  0  0
 14  8  1  0  0  0  0
 18 10  1  0  0  0  0
 19 12  1  0  0  0  0
 20 12  1  0  0  0  0
 21 13  1  0  0  0  0
 23 28  2  0  0  0  0
 23 24  1  0  0  0  0
 24 25  2  0  0  0  0
 25 35  1  0  0  0  0
 26 25  1  0  0  0  0
 27 26  2  0  0  0  0
 28 27  1  0  0  0  0
 29 27  1  0  0  0  0
 29 31  1  0  0  0  0
 30 23  1  0  0  0  0
 32 29  1  0  0  0  0
 34 33  1  0  0  0  0
 34 41  1  0  0  0  0
 35 34  2  0  0  0  0
 36 35  1  0  0  0  0
 36 38  2  0  0  0  0
 37 36  1  0  0  0  0
 38 40  1  0  0  0  0
 39 38  1  0  0  0  0
 40 41  2  0  0  0  0
M  END
>  <minimizedAffinity>
-5.47238302

$$$$
