
 OpenBabel03252506423D

 40 43  0  0  1  0  0  0  0  0999 V2000
   49.3050   33.4370   41.0900 N   0  0  1  0  0  0  0  0  0  0  0  0
   50.3760   32.7070   41.7160 C   0  0  0  0  0  0  0  0  0  0  0  0
   50.7270   31.4140   41.0740 C   0  0  0  0  0  0  0  0  0  0  0  0
   49.5520   30.4680   41.1490 C   0  0  0  0  0  0  0  0  0  0  0  0
   48.2720   31.2030   41.1210 C   0  0  0  0  0  0  0  0  0  0  0  0
   48.4190   32.5110   40.4110 C   0  0  2  0  0  0  0  0  0  0  0  0
   50.1080   32.4660   42.7870 H   0  0  0  0  0  0  0  0  0  0  0  0
   51.2900   33.3570   41.8060 H   0  0  0  0  0  0  0  0  0  0  0  0
   51.5130   30.9450   41.7420 H   0  0  0  0  0  0  0  0  0  0  0  0
   51.1800   31.4840   40.0740 H   0  0  0  0  0  0  0  0  0  0  0  0
   49.6390   29.7190   41.9540 H   0  0  0  0  0  0  0  0  0  0  0  0
   49.6030   29.8610   40.1980 H   0  0  0  0  0  0  0  0  0  0  0  0
   48.0270   31.4700   42.1910 H   0  0  0  0  0  0  0  0  0  0  0  0
   47.4060   30.6450   40.7550 H   0  0  0  0  0  0  0  0  0  0  0  0
   47.3920   33.0080   40.5920 H   0  0  0  0  0  0  0  0  0  0  0  0
   47.9720   34.8180   39.0090 F   0  0  0  0  0  0  0  0  0  0  0  0
   48.3190   33.6860   38.3100 C   0  0  0  0  0  0  0  0  0  0  0  0
   48.5500   32.4690   38.9630 C   0  0  0  0  0  0  0  0  0  0  0  0
   48.8810   31.4790   38.0810 C   0  0  0  0  0  0  0  0  0  0  0  0
   49.0830   30.5260   38.5410 H   0  0  0  0  0  0  0  0  0  0  0  0
   48.9870   31.6070   36.7150 C   0  0  0  0  0  0  0  0  0  0  0  0
   49.2620   30.7130   36.1540 H   0  0  0  0  0  0  0  0  0  0  0  0
   48.7500   32.8180   36.1310 C   0  0  0  0  0  0  0  0  0  0  0  0
   48.4090   33.8760   36.9470 C   0  0  0  0  0  0  0  0  0  0  0  0
   47.3230   34.8610   41.9210 C   0  0  1  0  0  0  0  0  0  0  0  0
   48.5310   35.6530   41.8430 C   0  0  0  0  0  0  0  0  0  0  0  0
   48.6750   34.1940   42.1400 C   0  0  2  0  0  0  0  0  0  0  0  0
   46.8170   34.4380   41.0250 H   0  0  0  0  0  0  0  0  0  0  0  0
   48.7030   36.4000   42.6520 H   0  0  0  0  0  0  0  0  0  0  0  0
   48.8320   36.0410   40.8440 H   0  0  0  0  0  0  0  0  0  0  0  0
   48.8660   33.9120   43.1940 H   0  0  0  0  0  0  0  0  0  0  0  0
   45.5100   36.0500   43.2000 C   0  0  0  0  0  0  0  0  0  0  0  0
   46.4030   34.9480   43.0830 C   0  0  0  0  0  0  0  0  0  0  0  0
   46.3790   33.9870   44.0770 C   0  0  0  0  0  0  0  0  0  0  0  0
   45.5050   34.1530   45.1030 N   0  0  0  0  0  0  0  0  0  0  0  0
   44.6650   35.1990   45.2030 C   0  0  0  0  0  0  0  0  0  0  0  0
   44.6570   36.1690   44.2430 N   0  0  0  0  0  0  0  0  0  0  0  0
   45.5540   36.7880   42.4030 H   0  0  0  0  0  0  0  0  0  0  0  0
   47.0440   33.1360   44.0230 H   0  0  0  0  0  0  0  0  0  0  0  0
   43.9830   35.2950   46.0360 H   0  0  0  0  0  0  0  0  0  0  0  0
  1  2  1  1  0  0  0
  1 27  1  0  0  0  0
  2  8  1  0  0  0  0
  2  7  1  0  0  0  0
  3  4  1  0  0  0  0
  3  2  1  0  0  0  0
  3  9  1  0  0  0  0
  4 11  1  0  0  0  0
  5  4  1  0  0  0  0
  5 13  1  0  0  0  0
  6 15  1  1  0  0  0
  6  1  1  0  0  0  0
  6  5  1  0  0  0  0
 10  3  1  0  0  0  0
 12  4  1  0  0  0  0
 14  5  1  0  0  0  0
 17 18  1  0  0  0  0
 17 16  1  0  0  0  0
 18  6  1  0  0  0  0
 19 20  1  0  0  0  0
 19 18  2  0  0  0  0
 21 19  1  0  0  0  0
 22 21  1  0  0  0  0
 23 21  2  0  0  0  0
 23 24  1  0  0  0  0
 24 17  2  0  0  0  0
 25 28  1  6  0  0  0
 25 27  1  0  0  0  0
 25 33  1  0  0  0  0
 26 25  1  0  0  0  0
 26 27  1  0  0  0  0
 26 29  1  0  0  0  0
 27 31  1  1  0  0  0
 30 26  1  0  0  0  0
 32 37  1  0  0  0  0
 33 32  2  0  0  0  0
 33 34  1  0  0  0  0
 34 35  2  0  0  0  0
 35 36  1  0  0  0  0
 36 40  1  0  0  0  0
 37 36  2  0  0  0  0
 38 32  1  0  0  0  0
 39 34  1  0  0  0  0
M  END
>  <minimizedAffinity>
-5.55034018

>  <minimizedRMSD>
1.38539302

$$$$
