
 OpenBabel03252507583D

 27 29  0  0  1  0  0  0  0  0999 V2000
   46.5960   32.4620   46.2010 C   0  0  1  0  0  0  0  0  0  0  0  0
   47.0220   32.7180   47.6050 C   0  0  0  0  0  0  0  0  0  0  0  0
   45.6870   32.1530   47.3560 C   0  0  2  0  0  0  0  0  0  0  0  0
   47.1900   31.7320   45.6600 H   0  0  0  0  0  0  0  0  0  0  0  0
   47.0480   33.8010   47.8720 H   0  0  0  0  0  0  0  0  0  0  0  0
   47.8910   32.1890   47.9770 H   0  0  0  0  0  0  0  0  0  0  0  0
   44.8030   32.7850   47.5390 H   0  0  0  0  0  0  0  0  0  0  0  0
   45.3730   30.6430   49.7650 F   0  0  0  0  0  0  0  0  0  0  0  0
   45.2310   29.9570   48.6240 C   0  0  0  0  0  0  0  0  0  0  0  0
   45.3870   30.7100   47.4740 C   0  0  0  0  0  0  0  0  0  0  0  0
   45.2470   30.0410   46.2520 C   0  0  0  0  0  0  0  0  0  0  0  0
   45.3530   30.5550   45.2970 H   0  0  0  0  0  0  0  0  0  0  0  0
   44.9650   28.6870   46.1720 C   0  0  0  0  0  0  0  0  0  0  0  0
   44.8650   28.2070   45.1900 H   0  0  0  0  0  0  0  0  0  0  0  0
   44.8120   27.9510   47.3340 C   0  0  0  0  0  0  0  0  0  0  0  0
   44.9500   28.6100   48.5340 C   0  0  0  0  0  0  0  0  0  0  0  0
   46.2170   34.7330   43.3530 C   0  0  0  0  0  0  0  0  0  0  0  0
   45.2060   35.6170   43.7670 C   0  0  0  0  0  0  0  0  0  0  0  0
   44.6440   35.4240   45.0480 C   0  0  0  0  0  0  0  0  0  0  0  0
   45.1100   34.4000   45.8030 N   0  0  0  0  0  0  0  0  0  0  0  0
   46.0940   33.5800   45.3360 C   0  0  0  0  0  0  0  0  0  0  0  0
   46.6590   33.7170   44.1340 N   0  0  0  0  0  0  0  0  0  0  0  0
   44.8380   36.4200   43.1800 H   0  0  0  0  0  0  0  0  0  0  0  0
   43.8720   36.0580   45.4280 H   0  0  0  0  0  0  0  0  0  0  0  0
   46.7330   35.0010   42.0470 C   0  0  0  0  0  0  0  0  0  0  0  0
   47.9130   35.4040   41.7990 O   0  0  0  0  0  0  0  0  0  0  0  0
   45.9150   34.7870   41.3540 H   0  0  0  0  0  0  0  0  0  0  0  0
  1  4  1  6  0  0  0
  1  3  1  0  0  0  0
  1  2  1  0  0  0  0
  2  5  1  0  0  0  0
  2  6  1  0  0  0  0
  3 10  1  0  0  0  0
  3  7  1  1  0  0  0
  3  2  1  0  0  0  0
  9  8  1  0  0  0  0
 10  9  2  0  0  0  0
 11 10  1  0  0  0  0
 12 11  1  0  0  0  0
 13 11  2  0  0  0  0
 13 15  1  0  0  0  0
 14 13  1  0  0  0  0
 15 16  2  0  0  0  0
 16  9  1  0  0  0  0
 17 18  2  0  0  0  0
 17 22  1  0  0  0  0
 18 19  1  0  0  0  0
 19 24  1  0  0  0  0
 19 20  2  0  0  0  0
 21 20  1  0  0  0  0
 21  1  1  0  0  0  0
 22 21  2  0  0  0  0
 23 18  1  0  0  0  0
 25 17  1  0  0  0  0
 26 25  2  0  0  0  0
 27 25  1  0  0  0  0
M  END
>  <minimizedAffinity>
-5.17711496

>  <minimizedRMSD>
1.03047764

$$$$
