
 OpenBabel03252500003D

 21 22  0  0  0  0  0  0  0  0999 V2000
   36.9580   30.7590   41.4160 C   0  0  0  0  0  0  0  0  0  0  0  0
   36.3160   30.5970   40.1570 C   0  0  0  0  0  0  0  0  0  0  0  0
   35.9080   29.3200   39.8010 C   0  0  0  0  0  0  0  0  0  0  0  0
   36.1440   28.3110   40.6700 N   0  0  0  0  0  0  0  0  0  0  0  0
   36.7500   28.4900   41.8470 C   0  0  0  0  0  0  0  0  0  0  0  0
   37.1610   29.7070   42.2300 N   0  0  0  0  0  0  0  0  0  0  0  0
   37.2890   31.7480   41.7230 H   0  0  0  0  0  0  0  0  0  0  0  0
   36.1630   31.4420   39.5210 H   0  0  0  0  0  0  0  0  0  0  0  0
   33.1560   29.2490   39.6080 F   0  0  0  0  0  0  0  0  0  0  0  0
   33.8650   29.0280   38.4830 C   0  0  0  0  0  0  0  0  0  0  0  0
   35.2420   29.0540   38.5320 C   0  0  0  0  0  0  0  0  0  0  0  0
   35.8920   28.8210   37.3430 C   0  0  0  0  0  0  0  0  0  0  0  0
   36.9660   28.8290   37.3200 H   0  0  0  0  0  0  0  0  0  0  0  0
   35.2540   28.5710   36.1500 C   0  0  0  0  0  0  0  0  0  0  0  0
   35.8010   28.3910   35.2320 H   0  0  0  0  0  0  0  0  0  0  0  0
   33.8570   28.5490   36.1250 C   0  0  0  0  0  3  0  0  0  0  0  0
   33.1900   28.7820   37.3090 C   0  0  0  0  0  3  0  0  0  0  0  0
   36.8940   27.2200   42.6250 C   0  0  0  0  0  0  0  0  0  0  0  0
   35.9830   27.1600   43.6600 F   0  0  0  0  0  0  0  0  0  0  0  0
   38.1650   27.1150   43.1620 F   0  0  0  0  0  0  0  0  0  0  0  0
   36.7270   26.1340   41.7770 F   0  0  0  0  0  0  0  0  0  0  0  0
  1  7  1  0  0  0  0
  1  6  1  0  0  0  0
  2  1  2  0  0  0  0
  3  2  1  0  0  0  0
  3  4  2  0  0  0  0
  4  5  1  0  0  0  0
  5  6  2  0  0  0  0
  5 18  1  0  0  0  0
  8  2  1  0  0  0  0
 10 11  1  0  0  0  0
 10  9  1  0  0  0  0
 11  3  1  0  0  0  0
 12 11  2  0  0  0  0
 13 12  1  0  0  0  0
 14 12  1  0  0  0  0
 15 14  1  0  0  0  0
 16 14  2  0  0  0  0
 16 17  1  0  0  0  0
 17 10  2  0  0  0  0
 18 20  1  0  0  0  0
 18 19  1  0  0  0  0
 21 18  1  0  0  0  0
M  END
>  <minimizedAffinity>
-5.0649724

$$$$

 OpenBabel03252500003D

 21 22  0  0  0  0  0  0  0  0999 V2000
   36.5710   27.7970   39.2520 C   0  0  0  0  0  0  0  0  0  0  0  0
   36.9320   29.1660   39.1100 C   0  0  0  0  0  0  0  0  0  0  0  0
   37.3170   29.8530   40.2510 C   0  0  0  0  0  0  0  0  0  0  0  0
   37.3270   29.1810   41.4260 N   0  0  0  0  0  0  0  0  0  0  0  0
   36.9820   27.8950   41.5310 C   0  0  0  0  0  0  0  0  0  0  0  0
   36.6030   27.1940   40.4540 N   0  0  0  0  0  0  0  0  0  0  0  0
   36.2640   27.2330   38.3740 H   0  0  0  0  0  0  0  0  0  0  0  0
   36.9000   29.6310   38.1480 H   0  0  0  0  0  0  0  0  0  0  0  0
   39.6930   30.7250   41.3500 F   0  0  0  0  0  0  0  0  0  0  0  0
   38.9010   31.6470   40.7680 C   0  0  0  0  0  0  0  0  0  0  0  0
   37.7050   31.2570   40.2060 C   0  0  0  0  0  0  0  0  0  0  0  0
   36.9550   32.2560   39.6310 C   0  0  0  0  0  0  0  0  0  0  0  0
   36.0120   32.0120   39.1770 H   0  0  0  0  0  0  0  0  0  0  0  0
   37.3310   33.5790   39.5940 C   0  0  0  0  0  0  0  0  0  0  0  0
   36.7110   34.3390   39.1310 H   0  0  0  0  0  0  0  0  0  0  0  0
   38.5470   33.9510   40.1700 C   0  0  0  0  0  3  0  0  0  0  0  0
   39.3120   32.9610   40.7500 C   0  0  0  0  0  3  0  0  0  0  0  0
   37.0750   27.3830   42.9350 C   0  0  0  0  0  0  0  0  0  0  0  0
   37.5520   26.0890   42.9660 F   0  0  0  0  0  0  0  0  0  0  0  0
   35.8350   27.4010   43.5460 F   0  0  0  0  0  0  0  0  0  0  0  0
   37.9000   28.2150   43.6790 F   0  0  0  0  0  0  0  0  0  0  0  0
  1  6  1  0  0  0  0
  2  1  2  0  0  0  0
  2  3  1  0  0  0  0
  3  4  2  0  0  0  0
  4  5  1  0  0  0  0
  5 18  1  0  0  0  0
  6  5  2  0  0  0  0
  7  1  1  0  0  0  0
  8  2  1  0  0  0  0
 10  9  1  0  0  0  0
 11  3  1  0  0  0  0
 11 10  2  0  0  0  0
 12 11  1  0  0  0  0
 13 12  1  0  0  0  0
 14 12  2  0  0  0  0
 14 16  1  0  0  0  0
 15 14  1  0  0  0  0
 16 17  2  0  0  0  0
 17 10  1  0  0  0  0
 18 19  1  0  0  0  0
 18 20  1  0  0  0  0
 18 21  1  0  0  0  0
M  END
>  <minimizedAffinity>
-5.01080561

$$$$

 OpenBabel03252500003D

 21 22  0  0  0  0  0  0  0  0999 V2000
   38.2920   28.6250   43.3100 C   0  0  0  0  0  0  0  0  0  0  0  0
   38.5820   27.3140   42.8370 C   0  0  0  0  0  0  0  0  0  0  0  0
   37.9550   26.8960   41.6730 C   0  0  0  0  0  0  0  0  0  0  0  0
   37.1090   27.7560   41.0610 N   0  0  0  0  0  0  0  0  0  0  0  0
   36.8530   28.9810   41.5270 C   0  0  0  0  0  0  0  0  0  0  0  0
   37.4370   29.4260   42.6480 N   0  0  0  0  0  0  0  0  0  0  0  0
   38.7680   28.9810   44.2200 H   0  0  0  0  0  0  0  0  0  0  0  0
   39.2620   26.6890   43.3740 H   0  0  0  0  0  0  0  0  0  0  0  0
   36.4670   24.7110   42.4650 F   0  0  0  0  0  0  0  0  0  0  0  0
   37.4210   24.5100   41.5350 C   0  0  0  0  0  0  0  0  0  0  0  0
   38.1890   25.5720   41.1100 C   0  0  0  0  0  0  0  0  0  0  0  0
   39.1410   25.2850   40.1590 C   0  0  0  0  0  0  0  0  0  0  0  0
   39.7690   26.0750   39.7890 H   0  0  0  0  0  0  0  0  0  0  0  0
   39.3540   24.0330   39.6340 C   0  0  0  0  0  0  0  0  0  0  0  0
   40.1150   23.8460   38.8850 H   0  0  0  0  0  0  0  0  0  0  0  0
   38.5640   22.9710   40.0800 C   0  0  0  0  0  3  0  0  0  0  0  0
   37.6040   23.2400   41.0330 C   0  0  0  0  0  3  0  0  0  0  0  0
   35.8850   29.7370   40.6720 C   0  0  0  0  0  0  0  0  0  0  0  0
   34.6540   29.1150   40.6380 F   0  0  0  0  0  0  0  0  0  0  0  0
   36.3530   29.8390   39.3740 F   0  0  0  0  0  0  0  0  0  0  0  0
   35.7540   31.0330   41.1520 F   0  0  0  0  0  0  0  0  0  0  0  0
  1  7  1  0  0  0  0
  2  1  1  0  0  0  0
  2  8  1  0  0  0  0
  3  2  2  0  0  0  0
  4  5  2  0  0  0  0
  4  3  1  0  0  0  0
  5  6  1  0  0  0  0
  6  1  2  0  0  0  0
 10  9  1  0  0  0  0
 11 10  1  0  0  0  0
 11  3  1  0  0  0  0
 12 11  2  0  0  0  0
 13 12  1  0  0  0  0
 14 16  2  0  0  0  0
 14 12  1  0  0  0  0
 15 14  1  0  0  0  0
 16 17  1  0  0  0  0
 17 10  2  0  0  0  0
 18 21  1  0  0  0  0
 18  5  1  0  0  0  0
 19 18  1  0  0  0  0
 20 18  1  0  0  0  0
M  END
>  <minimizedAffinity>
-4.92170334

$$$$

 OpenBabel03252500003D

 21 22  0  0  0  0  0  0  0  0999 V2000
   35.8210   30.4520   40.7010 C   0  0  0  0  0  0  0  0  0  0  0  0
   35.7540   29.0300   40.6800 C   0  0  0  0  0  0  0  0  0  0  0  0
   36.8980   28.3270   41.0260 C   0  0  0  0  0  0  0  0  0  0  0  0
   38.0030   29.0320   41.3620 N   0  0  0  0  0  0  0  0  0  0  0  0
   38.0390   30.3670   41.3730 C   0  0  0  0  0  0  0  0  0  0  0  0
   36.9570   31.0860   41.0450 N   0  0  0  0  0  0  0  0  0  0  0  0
   34.9400   31.0310   40.4340 H   0  0  0  0  0  0  0  0  0  0  0  0
   34.8450   28.5410   40.4040 H   0  0  0  0  0  0  0  0  0  0  0  0
   36.9700   26.9030   43.3890 F   0  0  0  0  0  0  0  0  0  0  0  0
   36.9630   26.2000   42.2390 C   0  0  0  0  0  0  0  0  0  0  0  0
   36.9270   26.8700   41.0350 C   0  0  0  0  0  0  0  0  0  0  0  0
   36.9210   26.0820   39.9070 C   0  0  0  0  0  0  0  0  0  0  0  0
   36.8940   26.5480   38.9390 H   0  0  0  0  0  0  0  0  0  0  0  0
   36.9490   24.7070   39.9270 C   0  0  0  0  0  0  0  0  0  0  0  0
   36.9440   24.1190   39.0150 H   0  0  0  0  0  0  0  0  0  0  0  0
   36.9850   24.0500   41.1590 C   0  0  0  0  0  3  0  0  0  0  0  0
   36.9910   24.8250   42.2990 C   0  0  0  0  0  3  0  0  0  0  0  0
   39.3740   30.9080   41.7780 C   0  0  0  0  0  0  0  0  0  0  0  0
   39.5420   30.8540   43.1470 F   0  0  0  0  0  0  0  0  0  0  0  0
   39.5110   32.2250   41.3780 F   0  0  0  0  0  0  0  0  0  0  0  0
   40.3780   30.1910   41.1430 F   0  0  0  0  0  0  0  0  0  0  0  0
  1  6  1  0  0  0  0
  2  1  2  0  0  0  0
  2  3  1  0  0  0  0
  3 11  1  0  0  0  0
  3  4  2  0  0  0  0
  4  5  1  0  0  0  0
  5 18  1  0  0  0  0
  6  5  2  0  0  0  0
  7  1  1  0  0  0  0
  8  2  1  0  0  0  0
 10 17  1  0  0  0  0
 10  9  1  0  0  0  0
 11 10  2  0  0  0  0
 12 14  2  0  0  0  0
 12 11  1  0  0  0  0
 13 12  1  0  0  0  0
 14 16  1  0  0  0  0
 15 14  1  0  0  0  0
 16 17  2  0  0  0  0
 18 19  1  0  0  0  0
 20 18  1  0  0  0  0
 21 18  1  0  0  0  0
M  END
>  <minimizedAffinity>
-4.90581083

$$$$

 OpenBabel03252500003D

 21 22  0  0  0  0  0  0  0  0999 V2000
   39.9480   29.8860   42.5490 C   0  0  0  0  0  0  0  0  0  0  0  0
   39.7160   28.4850   42.4510 C   0  0  0  0  0  0  0  0  0  0  0  0
   38.5840   28.0660   41.7690 C   0  0  0  0  0  0  0  0  0  0  0  0
   37.7740   29.0100   41.2390 N   0  0  0  0  0  0  0  0  0  0  0  0
   38.0150   30.3200   41.3460 C   0  0  0  0  0  0  0  0  0  0  0  0
   39.0960   30.7690   41.9970 N   0  0  0  0  0  0  0  0  0  0  0  0
   40.8270   30.2450   43.0790 H   0  0  0  0  0  0  0  0  0  0  0  0
   40.4020   27.7960   42.8950 H   0  0  0  0  0  0  0  0  0  0  0  0
   36.5030   26.9040   43.1590 F   0  0  0  0  0  0  0  0  0  0  0  0
   37.2140   26.1150   42.3280 C   0  0  0  0  0  0  0  0  0  0  0  0
   38.2620   26.6530   41.6140 C   0  0  0  0  0  0  0  0  0  0  0  0
   38.9380   25.7840   40.7890 C   0  0  0  0  0  0  0  0  0  0  0  0
   39.7650   26.1470   40.2070 H   0  0  0  0  0  0  0  0  0  0  0  0
   38.6250   24.4520   40.6500 C   0  0  0  0  0  0  0  0  0  0  0  0
   39.1820   23.7970   39.9890 H   0  0  0  0  0  0  0  0  0  0  0  0
   37.5590   23.9290   41.3840 C   0  0  0  0  0  3  0  0  0  0  0  0
   36.8710   24.7860   42.2160 C   0  0  0  0  0  3  0  0  0  0  0  0
   36.9710   31.1580   40.6760 C   0  0  0  0  0  0  0  0  0  0  0  0
   36.7680   30.7590   39.3710 F   0  0  0  0  0  0  0  0  0  0  0  0
   37.3450   32.4900   40.6660 F   0  0  0  0  0  0  0  0  0  0  0  0
   35.7840   31.0820   41.3920 F   0  0  0  0  0  0  0  0  0  0  0  0
  1  7  1  0  0  0  0
  2  1  1  0  0  0  0
  2  8  1  0  0  0  0
  3  2  2  0  0  0  0
  4  5  2  0  0  0  0
  4  3  1  0  0  0  0
  5  6  1  0  0  0  0
  6  1  2  0  0  0  0
 10  9  1  0  0  0  0
 11  3  1  0  0  0  0
 11 10  2  0  0  0  0
 12 11  1  0  0  0  0
 13 12  1  0  0  0  0
 14 12  2  0  0  0  0
 14 16  1  0  0  0  0
 15 14  1  0  0  0  0
 16 17  2  0  0  0  0
 17 10  1  0  0  0  0
 18  5  1  0  0  0  0
 18 21  1  0  0  0  0
 19 18  1  0  0  0  0
 20 18  1  0  0  0  0
M  END
>  <minimizedAffinity>
-4.89076567

$$$$

 OpenBabel03252500003D

 21 22  0  0  0  0  0  0  0  0999 V2000
   37.3390   32.8800   39.6800 C   0  0  0  0  0  0  0  0  0  0  0  0
   36.9080   31.7150   40.3760 C   0  0  0  0  0  0  0  0  0  0  0  0
   37.8810   30.9100   40.9480 C   0  0  0  0  0  0  0  0  0  0  0  0
   39.1750   31.2790   40.8120 N   0  0  0  0  0  0  0  0  0  0  0  0
   39.5530   32.3780   40.1540 C   0  0  0  0  0  0  0  0  0  0  0  0
   38.6470   33.1840   39.5840 N   0  0  0  0  0  0  0  0  0  0  0  0
   36.6000   33.5310   39.2200 H   0  0  0  0  0  0  0  0  0  0  0  0
   35.8670   31.4870   40.4420 H   0  0  0  0  0  0  0  0  0  0  0  0
   39.0330   30.3260   43.3870 F   0  0  0  0  0  0  0  0  0  0  0  0
   38.1380   29.4470   42.8950 C   0  0  0  0  0  0  0  0  0  0  0  0
   37.5370   29.6970   41.6810 C   0  0  0  0  0  0  0  0  0  0  0  0
   36.6350   28.7530   41.2480 C   0  0  0  0  0  0  0  0  0  0  0  0
   36.1350   28.8950   40.3080 H   0  0  0  0  0  0  0  0  0  0  0  0
   36.3170   27.6120   41.9470 C   0  0  0  0  0  0  0  0  0  0  0  0
   35.6010   26.8900   41.5730 H   0  0  0  0  0  0  0  0  0  0  0  0
   36.9390   27.3790   43.1760 C   0  0  0  0  0  3  0  0  0  0  0  0
   37.8460   28.3160   43.6250 C   0  0  0  0  0  3  0  0  0  0  0  0
   41.0380   32.5670   40.1440 C   0  0  0  0  0  0  0  0  0  0  0  0
   41.3900   33.7400   39.5100 F   0  0  0  0  0  0  0  0  0  0  0  0
   41.6610   31.5190   39.4910 F   0  0  0  0  0  0  0  0  0  0  0  0
   41.5150   32.5650   41.4480 F   0  0  0  0  0  0  0  0  0  0  0  0
  1  2  1  0  0  0  0
  2  8  1  0  0  0  0
  2  3  2  0  0  0  0
  3 11  1  0  0  0  0
  4  3  1  0  0  0  0
  5  4  2  0  0  0  0
  6  1  2  0  0  0  0
  6  5  1  0  0  0  0
  7  1  1  0  0  0  0
 10  9  1  0  0  0  0
 10 17  1  0  0  0  0
 11 10  2  0  0  0  0
 12 11  1  0  0  0  0
 12 14  2  0  0  0  0
 13 12  1  0  0  0  0
 14 16  1  0  0  0  0
 15 14  1  0  0  0  0
 16 17  2  0  0  0  0
 18  5  1  0  0  0  0
 18 21  1  0  0  0  0
 19 18  1  0  0  0  0
 20 18  1  0  0  0  0
M  END
>  <minimizedAffinity>
-4.88549185

$$$$

 OpenBabel03252500003D

 21 22  0  0  0  0  0  0  0  0999 V2000
   38.6910   30.3020   38.0510 C   0  0  0  0  0  0  0  0  0  0  0  0
   38.4710   29.3530   39.0880 C   0  0  0  0  0  0  0  0  0  0  0  0
   38.3030   29.8350   40.3770 C   0  0  0  0  0  0  0  0  0  0  0  0
   38.3580   31.1730   40.5690 N   0  0  0  0  0  0  0  0  0  0  0  0
   38.5660   32.0430   39.5770 C   0  0  0  0  0  0  0  0  0  0  0  0
   38.7340   31.6210   38.3170 N   0  0  0  0  0  0  0  0  0  0  0  0
   38.8260   29.9540   37.0300 H   0  0  0  0  0  0  0  0  0  0  0  0
   38.4400   28.3090   38.8620 H   0  0  0  0  0  0  0  0  0  0  0  0
   35.7590   29.0290   41.0780 F   0  0  0  0  0  0  0  0  0  0  0  0
   36.7850   28.5650   41.8190 C   0  0  0  0  0  0  0  0  0  0  0  0
   38.0720   28.9420   41.5060 C   0  0  0  0  0  0  0  0  0  0  0  0
   39.0640   28.4260   42.3090 C   0  0  0  0  0  0  0  0  0  0  0  0
   40.0880   28.6840   42.1120 H   0  0  0  0  0  0  0  0  0  0  0  0
   38.8350   27.5830   43.3710 C   0  0  0  0  0  0  0  0  0  0  0  0
   39.6430   27.1970   43.9820 H   0  0  0  0  0  0  0  0  0  0  0  0
   37.5210   27.2160   43.6700 C   0  0  0  0  0  3  0  0  0  0  0  0
   36.5160   27.7230   42.8750 C   0  0  0  0  0  3  0  0  0  0  0  0
   38.5830   33.4640   40.0450 C   0  0  0  0  0  0  0  0  0  0  0  0
   37.4220   34.1220   39.6950 F   0  0  0  0  0  0  0  0  0  0  0  0
   39.6510   34.1490   39.4940 F   0  0  0  0  0  0  0  0  0  0  0  0
   38.7550   33.4980   41.4220 F   0  0  0  0  0  0  0  0  0  0  0  0
  1  6  2  0  0  0  0
  1  2  1  0  0  0  0
  2  3  2  0  0  0  0
  3  4  1  0  0  0  0
  3 11  1  0  0  0  0
  5 18  1  0  0  0  0
  5  4  2  0  0  0  0
  6  5  1  0  0  0  0
  7  1  1  0  0  0  0
  8  2  1  0  0  0  0
  9 10  1  0  0  0  0
 10 17  1  0  0  0  0
 11 10  2  0  0  0  0
 11 12  1  0  0  0  0
 12 14  2  0  0  0  0
 13 12  1  0  0  0  0
 14 16  1  0  0  0  0
 14 15  1  0  0  0  0
 17 16  2  0  0  0  0
 18 21  1  0  0  0  0
 19 18  1  0  0  0  0
 20 18  1  0  0  0  0
M  END
>  <minimizedAffinity>
-4.83686161

$$$$

 OpenBabel03252500003D

 21 22  0  0  0  0  0  0  0  0999 V2000
   38.4330   27.6700   39.3340 C   0  0  0  0  0  0  0  0  0  0  0  0
   38.5490   29.0800   39.1770 C   0  0  0  0  0  0  0  0  0  0  0  0
   38.3330   29.8730   40.2950 C   0  0  0  0  0  0  0  0  0  0  0  0
   38.0280   29.2590   41.4610 N   0  0  0  0  0  0  0  0  0  0  0  0
   37.9250   27.9330   41.5810 C   0  0  0  0  0  0  0  0  0  0  0  0
   38.1250   27.1300   40.5280 N   0  0  0  0  0  0  0  0  0  0  0  0
   38.5970   27.0230   38.4760 H   0  0  0  0  0  0  0  0  0  0  0  0
   38.7930   29.4950   38.2230 H   0  0  0  0  0  0  0  0  0  0  0  0
   36.2040   31.4230   39.4690 F   0  0  0  0  0  0  0  0  0  0  0  0
   37.3410   32.0600   39.8160 C   0  0  0  0  0  0  0  0  0  0  0  0
   38.4290   31.3260   40.2340 C   0  0  0  0  0  0  0  0  0  0  0  0
   39.5510   32.0480   40.5700 C   0  0  0  0  0  0  0  0  0  0  0  0
   40.4310   31.5290   40.9040 H   0  0  0  0  0  0  0  0  0  0  0  0
   39.6310   33.4200   40.5100 C   0  0  0  0  0  0  0  0  0  0  0  0
   40.5340   33.9550   40.7830 H   0  0  0  0  0  0  0  0  0  0  0  0
   38.5160   34.1430   40.0820 C   0  0  0  0  0  3  0  0  0  0  0  0
   37.3830   33.4340   39.7410 C   0  0  0  0  0  3  0  0  0  0  0  0
   37.5790   27.5010   42.9720 C   0  0  0  0  0  0  0  0  0  0  0  0
   38.6770   26.9810   43.6240 F   0  0  0  0  0  0  0  0  0  0  0  0
   36.5900   26.5340   42.9520 F   0  0  0  0  0  0  0  0  0  0  0  0
   37.0680   28.5810   43.6800 F   0  0  0  0  0  0  0  0  0  0  0  0
  1  6  1  0  0  0  0
  2  1  2  0  0  0  0
  2  3  1  0  0  0  0
  3  4  2  0  0  0  0
  4  5  1  0  0  0  0
  5 18  1  0  0  0  0
  6  5  2  0  0  0  0
  7  1  1  0  0  0  0
  8  2  1  0  0  0  0
  9 10  1  0  0  0  0
 10 11  1  0  0  0  0
 11  3  1  0  0  0  0
 11 12  2  0  0  0  0
 12 13  1  0  0  0  0
 14 12  1  0  0  0  0
 14 15  1  0  0  0  0
 16 14  2  0  0  0  0
 17 10  2  0  0  0  0
 17 16  1  0  0  0  0
 18 19  1  0  0  0  0
 18 21  1  0  0  0  0
 20 18  1  0  0  0  0
M  END
>  <minimizedAffinity>
-4.71246433

$$$$

 OpenBabel03252500003D

 21 22  0  0  0  0  0  0  0  0999 V2000
   36.0260   27.6920   34.7110 C   0  0  0  0  0  0  0  0  0  0  0  0
   35.9370   27.9000   36.1160 C   0  0  0  0  0  0  0  0  0  0  0  0
   35.9890   29.2060   36.5780 C   0  0  0  0  0  0  0  0  0  0  0  0
   36.1190   30.1990   35.6680 N   0  0  0  0  0  0  0  0  0  0  0  0
   36.2010   29.9760   34.3540 C   0  0  0  0  0  0  0  0  0  0  0  0
   36.1560   28.7300   33.8640 N   0  0  0  0  0  0  0  0  0  0  0  0
   35.9890   26.6780   34.3180 H   0  0  0  0  0  0  0  0  0  0  0  0
   35.8340   27.0660   36.7750 H   0  0  0  0  0  0  0  0  0  0  0  0
   37.5780   31.1530   37.7190 F   0  0  0  0  0  0  0  0  0  0  0  0
   36.7170   30.5000   38.5250 C   0  0  0  0  0  0  0  0  0  0  0  0
   35.9040   29.5200   37.9990 C   0  0  0  0  0  0  0  0  0  0  0  0
   35.0530   28.9020   38.8850 C   0  0  0  0  0  0  0  0  0  0  0  0
   34.3950   28.1290   38.5320 H   0  0  0  0  0  0  0  0  0  0  0  0
   34.9810   29.2060   40.2250 C   0  0  0  0  0  0  0  0  0  0  0  0
   34.2970   28.6950   40.8930 H   0  0  0  0  0  0  0  0  0  0  0  0
   35.8150   30.2020   40.7360 C   0  0  0  0  0  3  0  0  0  0  0  0
   36.6740   30.8330   39.8610 C   0  0  0  0  0  3  0  0  0  0  0  0
   36.3410   31.2370   33.5590 C   0  0  0  0  0  0  0  0  0  0  0  0
   37.0170   31.0120   32.3780 F   0  0  0  0  0  0  0  0  0  0  0  0
   37.0330   32.1950   34.2770 F   0  0  0  0  0  0  0  0  0  0  0  0
   35.0830   31.7630   33.2980 F   0  0  0  0  0  0  0  0  0  0  0  0
  1  2  1  0  0  0  0
  2  3  2  0  0  0  0
  2  8  1  0  0  0  0
  3 11  1  0  0  0  0
  4  3  1  0  0  0  0
  5  4  2  0  0  0  0
  6  5  1  0  0  0  0
  6  1  2  0  0  0  0
  7  1  1  0  0  0  0
  9 10  1  0  0  0  0
 10 17  1  0  0  0  0
 11 10  2  0  0  0  0
 11 12  1  0  0  0  0
 12 14  2  0  0  0  0
 13 12  1  0  0  0  0
 14 16  1  0  0  0  0
 14 15  1  0  0  0  0
 17 16  2  0  0  0  0
 18 20  1  0  0  0  0
 18  5  1  0  0  0  0
 19 18  1  0  0  0  0
 21 18  1  0  0  0  0
M  END
>  <minimizedAffinity>
-4.64514065

$$$$
