
 OpenBabel03252507583D

 27 29  0  0  1  0  0  0  0  0999 V2000
   46.5850   32.4270   46.1770 C   0  0  1  0  0  0  0  0  0  0  0  0
   46.9080   32.6390   47.6150 C   0  0  0  0  0  0  0  0  0  0  0  0
   45.6190   32.0280   47.2550 C   0  0  2  0  0  0  0  0  0  0  0  0
   47.2450   31.7490   45.6460 H   0  0  0  0  0  0  0  0  0  0  0  0
   46.8680   33.7090   47.9280 H   0  0  0  0  0  0  0  0  0  0  0  0
   47.7750   32.1310   48.0210 H   0  0  0  0  0  0  0  0  0  0  0  0
   44.6970   32.6130   47.4060 H   0  0  0  0  0  0  0  0  0  0  0  0
   45.2660   30.3920   49.5750 F   0  0  0  0  0  0  0  0  0  0  0  0
   45.2040   29.7570   48.3980 C   0  0  0  0  0  0  0  0  0  0  0  0
   45.3790   30.5700   47.2930 C   0  0  0  0  0  0  0  0  0  0  0  0
   45.3240   29.9560   46.0350 C   0  0  0  0  0  0  0  0  0  0  0  0
   45.4500   30.5190   45.1120 H   0  0  0  0  0  0  0  0  0  0  0  0
   45.1060   28.5950   45.8800 C   0  0  0  0  0  0  0  0  0  0  0  0
   45.0710   28.1610   44.8730 H   0  0  0  0  0  0  0  0  0  0  0  0
   44.9340   27.7990   46.9970 C   0  0  0  0  0  3  0  0  0  0  0  0
   44.9880   28.4040   48.2330 C   0  0  0  0  0  3  0  0  0  0  0  0
   46.2110   34.7350   43.3580 C   0  0  0  0  0  0  0  0  0  0  0  0
   45.2110   35.6230   43.7880 C   0  0  0  0  0  0  0  0  0  0  0  0
   44.6550   35.4210   45.0700 C   0  0  0  0  0  0  0  0  0  0  0  0
   45.1150   34.3840   45.8110 N   0  0  0  0  0  0  0  0  0  0  0  0
   46.0890   33.5600   45.3270 C   0  0  0  0  0  0  0  0  0  0  0  0
   46.6480   33.7060   44.1240 N   0  0  0  0  0  0  0  0  0  0  0  0
   44.8470   36.4370   43.2130 H   0  0  0  0  0  0  0  0  0  0  0  0
   43.8920   36.0580   45.4620 H   0  0  0  0  0  0  0  0  0  0  0  0
   46.7220   35.0130   42.0520 C   0  0  0  0  0  0  0  0  0  0  0  0
   47.9040   35.4070   41.8010 O   0  0  0  0  0  0  0  0  0  0  0  0
   45.8980   34.8160   41.3610 H   0  0  0  0  0  0  0  0  0  0  0  0
  1  4  1  6  0  0  0
  1  3  1  0  0  0  0
  1  2  1  0  0  0  0
  2  5  1  0  0  0  0
  2  6  1  0  0  0  0
  3 10  1  0  0  0  0
  3  7  1  1  0  0  0
  3  2  1  0  0  0  0
  9  8  1  0  0  0  0
 10  9  2  0  0  0  0
 11 10  1  0  0  0  0
 12 11  1  0  0  0  0
 13 11  2  0  0  0  0
 13 15  1  0  0  0  0
 14 13  1  0  0  0  0
 15 16  2  0  0  0  0
 16  9  1  0  0  0  0
 17 18  2  0  0  0  0
 17 22  1  0  0  0  0
 18 19  1  0  0  0  0
 19 24  1  0  0  0  0
 19 20  2  0  0  0  0
 21 20  1  0  0  0  0
 21  1  1  0  0  0  0
 22 21  2  0  0  0  0
 23 18  1  0  0  0  0
 25 17  1  0  0  0  0
 26 25  2  0  0  0  0
 27 25  1  0  0  0  0
M  END
>  <minimizedAffinity>
-5.13649178

>  <minimizedRMSD>
1.30820477

$$$$
