
 OpenBabel03252507583D

 27 29  0  0  1  0  0  0  0  0999 V2000
   39.3830   28.9920   41.6170 C   0  0  1  0  0  0  0  0  0  0  0  0
   40.0850   28.9890   42.9300 C   0  0  0  0  0  0  0  0  0  0  0  0
   38.7580   28.3610   42.8280 C   0  0  2  0  0  0  0  0  0  0  0  0
   39.8840   28.4540   40.8190 H   0  0  0  0  0  0  0  0  0  0  0  0
   40.1100   29.9900   43.4230 H   0  0  0  0  0  0  0  0  0  0  0  0
   41.0390   28.4810   42.9940 H   0  0  0  0  0  0  0  0  0  0  0  0
   37.9020   28.8510   43.3190 H   0  0  0  0  0  0  0  0  0  0  0  0
   36.5730   27.0280   41.5510 F   0  0  0  0  0  0  0  0  0  0  0  0
   37.5210   26.2340   42.0630 C   0  0  0  0  0  0  0  0  0  0  0  0
   38.5660   26.9030   42.6750 C   0  0  0  0  0  0  0  0  0  0  0  0
   39.5870   26.1190   43.2270 C   0  0  0  0  0  0  0  0  0  0  0  0
   40.4470   26.5610   43.7280 H   0  0  0  0  0  0  0  0  0  0  0  0
   39.5720   24.7340   43.1770 C   0  0  0  0  0  0  0  0  0  0  0  0
   40.3960   24.1630   43.6250 H   0  0  0  0  0  0  0  0  0  0  0  0
   38.5180   24.0840   42.5600 C   0  0  0  0  0  3  0  0  0  0  0  0
   37.5160   24.8560   42.0170 C   0  0  0  0  0  3  0  0  0  0  0  0
   38.6770   32.4620   40.6810 C   0  0  0  0  0  0  0  0  0  0  0  0
   37.3250   32.4330   40.3000 C   0  0  0  0  0  0  0  0  0  0  0  0
   36.6470   31.1970   40.3650 C   0  0  0  0  0  0  0  0  0  0  0  0
   37.3360   30.1100   40.7870 N   0  0  0  0  0  0  0  0  0  0  0  0
   38.6490   30.2120   41.1410 C   0  0  0  0  0  0  0  0  0  0  0  0
   39.3380   31.3550   41.1000 N   0  0  0  0  0  0  0  0  0  0  0  0
   36.7800   33.2810   39.9690 H   0  0  0  0  0  0  0  0  0  0  0  0
   35.6180   31.1020   40.0900 H   0  0  0  0  0  0  0  0  0  0  0  0
   39.2860   33.7520   40.5920 C   0  0  0  0  0  0  0  0  0  0  0  0
   39.9960   34.1570   39.6170 O   0  0  0  0  0  0  0  0  0  0  0  0
   39.0100   34.2770   41.5100 H   0  0  0  0  0  0  0  0  0  0  0  0
  1  4  1  6  0  0  0
  1  3  1  0  0  0  0
  1  2  1  0  0  0  0
  2  6  1  0  0  0  0
  2  5  1  0  0  0  0
  3  2  1  0  0  0  0
  3  7  1  1  0  0  0
  8  9  1  0  0  0  0
  9 10  1  0  0  0  0
 10  3  1  0  0  0  0
 10 11  2  0  0  0  0
 11 12  1  0  0  0  0
 13 11  1  0  0  0  0
 13 14  1  0  0  0  0
 15 13  2  0  0  0  0
 16  9  2  0  0  0  0
 16 15  1  0  0  0  0
 17 22  1  0  0  0  0
 18 19  1  0  0  0  0
 18 17  2  0  0  0  0
 19 20  2  0  0  0  0
 20 21  1  0  0  0  0
 21  1  1  0  0  0  0
 22 21  2  0  0  0  0
 23 18  1  0  0  0  0
 24 19  1  0  0  0  0
 25 17  1  0  0  0  0
 25 27  1  0  0  0  0
 26 25  2  0  0  0  0
M  END
>  <minimizedAffinity>
-4.90452576

$$$$

 OpenBabel03252507583D

 27 29  0  0  1  0  0  0  0  0999 V2000
   40.3750   30.0840   41.3930 C   0  0  1  0  0  0  0  0  0  0  0  0
   41.1650   29.5770   42.5490 C   0  0  0  0  0  0  0  0  0  0  0  0
   39.7290   29.8390   42.7260 C   0  0  2  0  0  0  0  0  0  0  0  0
   40.3180   29.4190   40.5380 H   0  0  0  0  0  0  0  0  0  0  0  0
   41.8550   30.3380   42.9850 H   0  0  0  0  0  0  0  0  0  0  0  0
   41.6400   28.6080   42.4530 H   0  0  0  0  0  0  0  0  0  0  0  0
   39.4210   30.6940   43.3500 H   0  0  0  0  0  0  0  0  0  0  0  0
   36.9470   30.1470   42.1340 F   0  0  0  0  0  0  0  0  0  0  0  0
   37.3540   28.8980   42.3910 C   0  0  0  0  0  0  0  0  0  0  0  0
   38.7030   28.7760   42.6740 C   0  0  0  0  0  0  0  0  0  0  0  0
   39.1810   27.4890   42.9500 C   0  0  0  0  0  0  0  0  0  0  0  0
   40.2280   27.3010   43.1830 H   0  0  0  0  0  0  0  0  0  0  0  0
   38.3600   26.3730   42.9450 C   0  0  0  0  0  0  0  0  0  0  0  0
   38.7820   25.3840   43.1680 H   0  0  0  0  0  0  0  0  0  0  0  0
   37.0130   26.5160   42.6600 C   0  0  0  0  0  3  0  0  0  0  0  0
   36.5450   27.7810   42.3890 C   0  0  0  0  0  3  0  0  0  0  0  0
   39.2940   33.4130   40.3150 C   0  0  0  0  0  0  0  0  0  0  0  0
   40.4840   34.1610   40.3070 C   0  0  0  0  0  0  0  0  0  0  0  0
   41.6770   33.5070   40.6820 C   0  0  0  0  0  0  0  0  0  0  0  0
   41.6080   32.1990   41.0290 N   0  0  0  0  0  0  0  0  0  0  0  0
   40.4160   31.5360   41.0140 C   0  0  0  0  0  0  0  0  0  0  0  0
   39.2600   32.1060   40.6680 N   0  0  0  0  0  0  0  0  0  0  0  0
   40.5440   35.1850   40.0350 H   0  0  0  0  0  0  0  0  0  0  0  0
   42.6180   34.0130   40.6990 H   0  0  0  0  0  0  0  0  0  0  0  0
   38.1350   34.1500   39.9170 C   0  0  0  0  0  0  0  0  0  0  0  0
   37.0650   33.6350   39.4640 O   0  0  0  0  0  0  0  0  0  0  0  0
   38.3770   35.2020   40.0880 H   0  0  0  0  0  0  0  0  0  0  0  0
  1  4  1  6  0  0  0
  1  2  1  0  0  0  0
  1  3  1  0  0  0  0
  2  3  1  0  0  0  0
  2  5  1  0  0  0  0
  3  7  1  1  0  0  0
  6  2  1  0  0  0  0
  8  9  1  0  0  0  0
  9 10  1  0  0  0  0
 10  3  1  0  0  0  0
 10 11  2  0  0  0  0
 11 12  1  0  0  0  0
 13 11  1  0  0  0  0
 13 14  1  0  0  0  0
 15 13  2  0  0  0  0
 16  9  2  0  0  0  0
 16 15  1  0  0  0  0
 17 22  1  0  0  0  0
 18 17  2  0  0  0  0
 18 19  1  0  0  0  0
 19 24  1  0  0  0  0
 19 20  2  0  0  0  0
 21 20  1  0  0  0  0
 21  1  1  0  0  0  0
 22 21  2  0  0  0  0
 23 18  1  0  0  0  0
 25 27  1  0  0  0  0
 25 17  1  0  0  0  0
 26 25  2  0  0  0  0
M  END
>  <minimizedAffinity>
-4.88842154

$$$$

 OpenBabel03252507583D

 27 29  0  0  1  0  0  0  0  0999 V2000
   39.0510   29.9860   42.6890 C   0  0  1  0  0  0  0  0  0  0  0  0
   40.2580   30.8550   42.7590 C   0  0  0  0  0  0  0  0  0  0  0  0
   39.6890   30.5290   41.4430 C   0  0  2  0  0  0  0  0  0  0  0  0
   38.1600   30.3860   43.1610 H   0  0  0  0  0  0  0  0  0  0  0  0
   41.1880   30.3030   43.0350 H   0  0  0  0  0  0  0  0  0  0  0  0
   40.1750   31.7980   43.2860 H   0  0  0  0  0  0  0  0  0  0  0  0
   40.2500   29.8530   40.7770 H   0  0  0  0  0  0  0  0  0  0  0  0
   37.5360   29.8140   39.6990 F   0  0  0  0  0  0  0  0  0  0  0  0
   37.7520   31.1260   39.8520 C   0  0  0  0  0  0  0  0  0  0  0  0
   38.7980   31.4450   40.7000 C   0  0  0  0  0  0  0  0  0  0  0  0
   39.0650   32.8050   40.8960 C   0  0  0  0  0  0  0  0  0  0  0  0
   39.8700   33.1470   41.5470 H   0  0  0  0  0  0  0  0  0  0  0  0
   38.3300   33.8050   40.2800 C   0  0  0  0  0  0  0  0  0  0  0  0
   38.5790   34.8590   40.4650 H   0  0  0  0  0  0  0  0  0  0  0  0
   37.2880   33.4660   39.4350 C   0  0  0  0  0  3  0  0  0  0  0  0
   37.0260   32.1290   39.2440 C   0  0  0  0  0  3  0  0  0  0  0  0
   38.2380   26.4200   42.5050 C   0  0  0  0  0  0  0  0  0  0  0  0
   39.3700   25.7930   43.0530 C   0  0  0  0  0  0  0  0  0  0  0  0
   40.4310   26.6140   43.4910 C   0  0  0  0  0  0  0  0  0  0  0  0
   40.3000   27.9560   43.3560 N   0  0  0  0  0  0  0  0  0  0  0  0
   39.1710   28.4950   42.8140 C   0  0  0  0  0  0  0  0  0  0  0  0
   38.1380   27.7660   42.3840 N   0  0  0  0  0  0  0  0  0  0  0  0
   39.4780   24.7430   43.1610 H   0  0  0  0  0  0  0  0  0  0  0  0
   41.3220   26.2070   43.9180 H   0  0  0  0  0  0  0  0  0  0  0  0
   37.2090   25.5170   42.0920 C   0  0  0  0  0  0  0  0  0  0  0  0
   37.2400   24.2550   42.2480 O   0  0  0  0  0  0  0  0  0  0  0  0
   36.4330   26.1370   41.6360 H   0  0  0  0  0  0  0  0  0  0  0  0
  1  2  1  0  0  0  0
  1 21  1  0  0  0  0
  1  4  1  1  0  0  0
  2  5  1  0  0  0  0
  2  6  1  0  0  0  0
  3  7  1  6  0  0  0
  3  1  1  0  0  0  0
  3  2  1  0  0  0  0
  8  9  1  0  0  0  0
  9 10  1  0  0  0  0
 10 11  2  0  0  0  0
 10  3  1  0  0  0  0
 11 12  1  0  0  0  0
 13 14  1  0  0  0  0
 13 11  1  0  0  0  0
 15 13  2  0  0  0  0
 16 15  1  0  0  0  0
 16  9  2  0  0  0  0
 17 18  1  0  0  0  0
 18 23  1  0  0  0  0
 18 19  2  0  0  0  0
 19 24  1  0  0  0  0
 20 19  1  0  0  0  0
 21 20  2  0  0  0  0
 22 17  2  0  0  0  0
 22 21  1  0  0  0  0
 25 26  2  0  0  0  0
 25 17  1  0  0  0  0
 27 25  1  0  0  0  0
M  END
>  <minimizedAffinity>
-4.87442732

$$$$

 OpenBabel03252507583D

 27 29  0  0  1  0  0  0  0  0999 V2000
   38.7240   29.2150   41.8760 C   0  0  1  0  0  0  0  0  0  0  0  0
   38.3260   29.3550   43.3040 C   0  0  0  0  0  0  0  0  0  0  0  0
   37.7690   28.2480   42.5120 C   0  0  2  0  0  0  0  0  0  0  0  0
   39.7790   29.0300   41.7010 H   0  0  0  0  0  0  0  0  0  0  0  0
   37.6370   30.2120   43.4930 H   0  0  0  0  0  0  0  0  0  0  0  0
   39.1030   29.2870   44.0570 H   0  0  0  0  0  0  0  0  0  0  0  0
   36.7000   28.2770   42.2420 H   0  0  0  0  0  0  0  0  0  0  0  0
   36.9340   26.0090   40.9400 F   0  0  0  0  0  0  0  0  0  0  0  0
   37.9180   25.7720   41.8150 C   0  0  0  0  0  0  0  0  0  0  0  0
   38.3030   26.8710   42.5630 C   0  0  0  0  0  0  0  0  0  0  0  0
   39.3310   26.6770   43.4940 C   0  0  0  0  0  0  0  0  0  0  0  0
   39.6970   27.4860   44.1250 H   0  0  0  0  0  0  0  0  0  0  0  0
   39.9490   25.4510   43.6780 C   0  0  0  0  0  0  0  0  0  0  0  0
   40.7510   25.3490   44.4210 H   0  0  0  0  0  0  0  0  0  0  0  0
   39.5500   24.3640   42.9200 C   0  0  0  0  0  3  0  0  0  0  0  0
   38.5400   24.5560   42.0050 C   0  0  0  0  0  3  0  0  0  0  0  0
   37.2000   30.2310   38.7040 C   0  0  0  0  0  0  0  0  0  0  0  0
   36.9490   31.6020   38.8820 C   0  0  0  0  0  0  0  0  0  0  0  0
   37.3100   32.1850   40.1160 C   0  0  0  0  0  0  0  0  0  0  0  0
   37.8740   31.3910   41.0580 N   0  0  0  0  0  0  0  0  0  0  0  0
   38.0870   30.0660   40.8160 C   0  0  0  0  0  0  0  0  0  0  0  0
   37.7660   29.4650   39.6680 N   0  0  0  0  0  0  0  0  0  0  0  0
   36.5080   32.2290   38.1470 H   0  0  0  0  0  0  0  0  0  0  0  0
   37.1480   33.2210   40.3200 H   0  0  0  0  0  0  0  0  0  0  0  0
   36.8100   29.7230   37.4260 C   0  0  0  0  0  0  0  0  0  0  0  0
   35.6620   29.2510   37.1480 O   0  0  0  0  0  0  0  0  0  0  0  0
   37.6860   29.8320   36.7820 H   0  0  0  0  0  0  0  0  0  0  0  0
  1  4  1  6  0  0  0
  1  3  1  0  0  0  0
  1  2  1  0  0  0  0
  2  5  1  0  0  0  0
  2  6  1  0  0  0  0
  3  7  1  6  0  0  0
  3 10  1  0  0  0  0
  3  2  1  0  0  0  0
  8  9  1  0  0  0  0
  9 16  2  0  0  0  0
  9 10  1  0  0  0  0
 10 11  2  0  0  0  0
 11 13  1  0  0  0  0
 11 12  1  0  0  0  0
 13 14  1  0  0  0  0
 15 13  2  0  0  0  0
 16 15  1  0  0  0  0
 17 18  2  0  0  0  0
 17 22  1  0  0  0  0
 18 19  1  0  0  0  0
 19 24  1  0  0  0  0
 19 20  2  0  0  0  0
 21 20  1  0  0  0  0
 21  1  1  0  0  0  0
 22 21  2  0  0  0  0
 23 18  1  0  0  0  0
 25 17  1  0  0  0  0
 26 25  2  0  0  0  0
 27 25  1  0  0  0  0
M  END
>  <minimizedAffinity>
-4.86395264

$$$$

 OpenBabel03252507583D

 27 29  0  0  1  0  0  0  0  0999 V2000
   39.0510   31.6040   39.7900 C   0  0  1  0  0  0  0  0  0  0  0  0
   38.2320   32.5960   40.5420 C   0  0  0  0  0  0  0  0  0  0  0  0
   37.6990   32.0270   39.2940 C   0  0  2  0  0  0  0  0  0  0  0  0
   39.2640   30.6800   40.3170 H   0  0  0  0  0  0  0  0  0  0  0  0
   38.6210   33.6390   40.4720 H   0  0  0  0  0  0  0  0  0  0  0  0
   37.9290   32.3440   41.5510 H   0  0  0  0  0  0  0  0  0  0  0  0
   37.6200   32.6780   38.4080 H   0  0  0  0  0  0  0  0  0  0  0  0
   36.0710   31.0960   41.4550 F   0  0  0  0  0  0  0  0  0  0  0  0
   35.9310   30.4420   40.2960 C   0  0  0  0  0  0  0  0  0  0  0  0
   36.7280   30.9120   39.2670 C   0  0  0  0  0  0  0  0  0  0  0  0
   36.6200   30.2630   38.0310 C   0  0  0  0  0  0  0  0  0  0  0  0
   37.2100   30.5660   37.1670 H   0  0  0  0  0  0  0  0  0  0  0  0
   35.7600   29.1960   37.8230 C   0  0  0  0  0  0  0  0  0  0  0  0
   35.7110   28.7200   36.8350 H   0  0  0  0  0  0  0  0  0  0  0  0
   34.9710   28.7410   38.8640 C   0  0  0  0  0  3  0  0  0  0  0  0
   35.0780   29.3810   40.0780 C   0  0  0  0  0  3  0  0  0  0  0  0
   41.7600   31.5270   37.3270 C   0  0  0  0  0  0  0  0  0  0  0  0
   42.2220   32.8540   37.3010 C   0  0  0  0  0  0  0  0  0  0  0  0
   41.5880   33.7900   38.1460 C   0  0  0  0  0  0  0  0  0  0  0  0
   40.5700   33.3580   38.9300 N   0  0  0  0  0  0  0  0  0  0  0  0
   40.1740   32.0540   38.9020 C   0  0  0  0  0  0  0  0  0  0  0  0
   40.7390   31.1280   38.1230 N   0  0  0  0  0  0  0  0  0  0  0  0
   43.0190   33.1970   36.6900 H   0  0  0  0  0  0  0  0  0  0  0  0
   41.8870   34.8160   38.1780 H   0  0  0  0  0  0  0  0  0  0  0  0
   42.4600   30.6440   36.4470 C   0  0  0  0  0  0  0  0  0  0  0  0
   43.6440   30.8260   36.0220 O   0  0  0  0  0  0  0  0  0  0  0  0
   41.7700   29.8210   36.2400 H   0  0  0  0  0  0  0  0  0  0  0  0
  1  4  1  1  0  0  0
  1  2  1  0  0  0  0
  2  6  1  0  0  0  0
  3  7  1  6  0  0  0
  3  1  1  0  0  0  0
  3  2  1  0  0  0  0
  5  2  1  0  0  0  0
  9  8  1  0  0  0  0
 10  3  1  0  0  0  0
 10  9  2  0  0  0  0
 11 10  1  0  0  0  0
 12 11  1  0  0  0  0
 13 11  2  0  0  0  0
 13 15  1  0  0  0  0
 14 13  1  0  0  0  0
 15 16  2  0  0  0  0
 16  9  1  0  0  0  0
 17 22  1  0  0  0  0
 18 17  2  0  0  0  0
 18 19  1  0  0  0  0
 19 24  1  0  0  0  0
 19 20  2  0  0  0  0
 21 20  1  0  0  0  0
 21  1  1  0  0  0  0
 22 21  2  0  0  0  0
 23 18  1  0  0  0  0
 25 17  1  0  0  0  0
 26 25  2  0  0  0  0
 27 25  1  0  0  0  0
M  END
>  <minimizedAffinity>
-4.84589863

$$$$

 OpenBabel03252507583D

 27 29  0  0  1  0  0  0  0  0999 V2000
   38.3280   30.3020   39.8690 C   0  0  1  0  0  0  0  0  0  0  0  0
   39.0040   29.1670   39.1810 C   0  0  0  0  0  0  0  0  0  0  0  0
   39.1510   29.3090   40.6380 C   0  0  2  0  0  0  0  0  0  0  0  0
   37.2450   30.3050   39.8090 H   0  0  0  0  0  0  0  0  0  0  0  0
   39.8860   29.4760   38.5720 H   0  0  0  0  0  0  0  0  0  0  0  0
   38.3840   28.4480   38.6600 H   0  0  0  0  0  0  0  0  0  0  0  0
   40.1310   29.6090   41.0430 H   0  0  0  0  0  0  0  0  0  0  0  0
   38.5610   30.0150   43.3470 F   0  0  0  0  0  0  0  0  0  0  0  0
   38.0480   28.8540   42.9220 C   0  0  0  0  0  0  0  0  0  0  0  0
   38.3480   28.5360   41.6090 C   0  0  0  0  0  0  0  0  0  0  0  0
   37.8350   27.3310   41.1130 C   0  0  0  0  0  0  0  0  0  0  0  0
   38.0210   27.0010   40.0920 H   0  0  0  0  0  0  0  0  0  0  0  0
   37.0600   26.4790   41.8840 C   0  0  0  0  0  0  0  0  0  0  0  0
   36.6800   25.5440   41.4500 H   0  0  0  0  0  0  0  0  0  0  0  0
   36.7710   26.8140   43.1950 C   0  0  0  0  0  3  0  0  0  0  0  0
   37.2760   27.9990   43.6800 C   0  0  0  0  0  3  0  0  0  0  0  0
   40.4790   33.1280   38.9730 C   0  0  0  0  0  0  0  0  0  0  0  0
   40.0360   34.1610   39.8160 C   0  0  0  0  0  0  0  0  0  0  0  0
   38.9770   33.8790   40.7060 C   0  0  0  0  0  0  0  0  0  0  0  0
   38.4470   32.6320   40.6950 N   0  0  0  0  0  0  0  0  0  0  0  0
   38.9280   31.6780   39.8480 C   0  0  0  0  0  0  0  0  0  0  0  0
   39.9270   31.8910   38.9880 N   0  0  0  0  0  0  0  0  0  0  0  0
   40.4470   35.1390   39.8290 H   0  0  0  0  0  0  0  0  0  0  0  0
   38.5890   34.6170   41.3750 H   0  0  0  0  0  0  0  0  0  0  0  0
   41.5570   33.4960   38.1090 C   0  0  0  0  0  0  0  0  0  0  0  0
   41.9000   32.8630   37.0610 O   0  0  0  0  0  0  0  0  0  0  0  0
   41.9890   34.4020   38.5410 H   0  0  0  0  0  0  0  0  0  0  0  0
  1  4  1  1  0  0  0
  1  3  1  0  0  0  0
  2  1  1  0  0  0  0
  2  3  1  0  0  0  0
  3  7  1  1  0  0  0
  3 10  1  0  0  0  0
  5  2  1  0  0  0  0
  6  2  1  0  0  0  0
  9  8  1  0  0  0  0
  9 16  1  0  0  0  0
 10  9  2  0  0  0  0
 11 10  1  0  0  0  0
 11 13  2  0  0  0  0
 12 11  1  0  0  0  0
 13 15  1  0  0  0  0
 14 13  1  0  0  0  0
 15 16  2  0  0  0  0
 17 22  2  0  0  0  0
 17 18  1  0  0  0  0
 18 23  1  0  0  0  0
 18 19  2  0  0  0  0
 19 24  1  0  0  0  0
 20 19  1  0  0  0  0
 21  1  1  0  0  0  0
 21 20  2  0  0  0  0
 22 21  1  0  0  0  0
 25 27  1  0  0  0  0
 25 17  1  0  0  0  0
 26 25  2  0  0  0  0
M  END
>  <minimizedAffinity>
-4.82580519

$$$$

 OpenBabel03252507583D

 27 29  0  0  1  0  0  0  0  0999 V2000
   38.4130   29.0350   41.4610 C   0  0  1  0  0  0  0  0  0  0  0  0
   37.9240   28.9330   42.8640 C   0  0  0  0  0  0  0  0  0  0  0  0
   37.0560   28.4720   41.7690 C   0  0  2  0  0  0  0  0  0  0  0  0
   39.2970   28.4490   41.2320 H   0  0  0  0  0  0  0  0  0  0  0  0
   37.6540   29.9180   43.3150 H   0  0  0  0  0  0  0  0  0  0  0  0
   38.4830   28.3120   43.5530 H   0  0  0  0  0  0  0  0  0  0  0  0
   36.1540   29.0580   41.5280 H   0  0  0  0  0  0  0  0  0  0  0  0
   36.5490   27.4250   39.1560 F   0  0  0  0  0  0  0  0  0  0  0  0
   36.6850   26.5190   40.1310 C   0  0  0  0  0  0  0  0  0  0  0  0
   36.9290   27.0500   41.3850 C   0  0  0  0  0  0  0  0  0  0  0  0
   37.0800   26.1440   42.4410 C   0  0  0  0  0  0  0  0  0  0  0  0
   37.2750   26.4750   43.4610 H   0  0  0  0  0  0  0  0  0  0  0  0
   36.9920   24.7730   42.2650 C   0  0  0  0  0  0  0  0  0  0  0  0
   37.1180   24.1020   43.1250 H   0  0  0  0  0  0  0  0  0  0  0  0
   36.7470   24.2600   41.0030 C   0  0  0  0  0  3  0  0  0  0  0  0
   36.6000   25.1520   39.9650 C   0  0  0  0  0  3  0  0  0  0  0  0
   38.0190   31.4670   38.7510 C   0  0  0  0  0  0  0  0  0  0  0  0
   38.2750   32.7000   39.3730 C   0  0  0  0  0  0  0  0  0  0  0  0
   38.5870   32.6930   40.7500 C   0  0  0  0  0  0  0  0  0  0  0  0
   38.6190   31.5010   41.3920 N   0  0  0  0  0  0  0  0  0  0  0  0
   38.3580   30.3410   40.7230 C   0  0  0  0  0  0  0  0  0  0  0  0
   38.0590   30.2910   39.4230 N   0  0  0  0  0  0  0  0  0  0  0  0
   38.2520   33.6370   38.8750 H   0  0  0  0  0  0  0  0  0  0  0  0
   38.7920   33.5940   41.2870 H   0  0  0  0  0  0  0  0  0  0  0  0
   37.7170   31.5630   37.3560 C   0  0  0  0  0  0  0  0  0  0  0  0
   37.2820   30.6090   36.6370 O   0  0  0  0  0  0  0  0  0  0  0  0
   37.9380   32.5960   37.0750 H   0  0  0  0  0  0  0  0  0  0  0  0
  1  4  1  6  0  0  0
  1  3  1  0  0  0  0
  1  2  1  0  0  0  0
  2  5  1  0  0  0  0
  2  6  1  0  0  0  0
  3  7  1  6  0  0  0
  3  2  1  0  0  0  0
  8  9  1  0  0  0  0
  9 10  1  0  0  0  0
 10  3  1  0  0  0  0
 10 11  2  0  0  0  0
 11 12  1  0  0  0  0
 13 11  1  0  0  0  0
 13 14  1  0  0  0  0
 15 13  2  0  0  0  0
 16  9  2  0  0  0  0
 16 15  1  0  0  0  0
 17 18  2  0  0  0  0
 17 22  1  0  0  0  0
 18 19  1  0  0  0  0
 19 24  1  0  0  0  0
 19 20  2  0  0  0  0
 21 20  1  0  0  0  0
 21  1  1  0  0  0  0
 22 21  2  0  0  0  0
 23 18  1  0  0  0  0
 25 17  1  0  0  0  0
 26 25  2  0  0  0  0
 27 25  1  0  0  0  0
M  END
>  <minimizedAffinity>
-4.78787565

$$$$

 OpenBabel03252507583D

 27 29  0  0  1  0  0  0  0  0999 V2000
   38.0760   28.8790   40.8530 C   0  0  1  0  0  0  0  0  0  0  0  0
   37.6450   28.9050   42.2780 C   0  0  0  0  0  0  0  0  0  0  0  0
   36.8050   28.2110   41.2900 C   0  0  2  0  0  0  0  0  0  0  0  0
   39.0150   28.3720   40.6580 H   0  0  0  0  0  0  0  0  0  0  0  0
   37.2750   29.9030   42.6130 H   0  0  0  0  0  0  0  0  0  0  0  0
   38.2950   28.4460   43.0130 H   0  0  0  0  0  0  0  0  0  0  0  0
   35.8330   28.6540   41.0190 H   0  0  0  0  0  0  0  0  0  0  0  0
   36.3510   26.7830   38.8530 F   0  0  0  0  0  0  0  0  0  0  0  0
   36.6200   26.0320   39.9280 C   0  0  0  0  0  0  0  0  0  0  0  0
   36.8350   26.7460   41.0930 C   0  0  0  0  0  0  0  0  0  0  0  0
   37.1210   26.0080   42.2480 C   0  0  0  0  0  0  0  0  0  0  0  0
   37.3040   26.4870   43.2090 H   0  0  0  0  0  0  0  0  0  0  0  0
   37.1900   24.6240   42.2490 C   0  0  0  0  0  0  0  0  0  0  0  0
   37.4170   24.0890   43.1810 H   0  0  0  0  0  0  0  0  0  0  0  0
   36.9710   23.9270   41.0730 C   0  0  0  0  0  3  0  0  0  0  0  0
   36.6910   24.6550   39.9390 C   0  0  0  0  0  3  0  0  0  0  0  0
   37.7940   32.3450   39.7020 C   0  0  0  0  0  0  0  0  0  0  0  0
   37.4090   32.2160   38.3560 C   0  0  0  0  0  0  0  0  0  0  0  0
   37.2460   30.9130   37.8380 C   0  0  0  0  0  0  0  0  0  0  0  0
   37.4720   29.8630   38.6640 N   0  0  0  0  0  0  0  0  0  0  0  0
   37.8450   30.0630   39.9600 C   0  0  0  0  0  0  0  0  0  0  0  0
   38.0130   31.2720   40.5010 N   0  0  0  0  0  0  0  0  0  0  0  0
   37.2310   33.0350   37.7050 H   0  0  0  0  0  0  0  0  0  0  0  0
   36.9550   30.7410   36.8240 H   0  0  0  0  0  0  0  0  0  0  0  0
   37.9310   33.6960   40.1470 C   0  0  0  0  0  0  0  0  0  0  0  0
   38.8860   34.1350   40.8630 O   0  0  0  0  0  0  0  0  0  0  0  0
   37.0660   34.2310   39.7460 H   0  0  0  0  0  0  0  0  0  0  0  0
  1  4  1  6  0  0  0
  1  3  1  0  0  0  0
  1  2  1  0  0  0  0
  2  5  1  0  0  0  0
  2  6  1  0  0  0  0
  3  7  1  6  0  0  0
  3  2  1  0  0  0  0
  8  9  1  0  0  0  0
  9 16  2  0  0  0  0
  9 10  1  0  0  0  0
 10  3  1  0  0  0  0
 10 11  2  0  0  0  0
 11 13  1  0  0  0  0
 11 12  1  0  0  0  0
 13 14  1  0  0  0  0
 15 13  2  0  0  0  0
 16 15  1  0  0  0  0
 17 25  1  0  0  0  0
 17 22  1  0  0  0  0
 18 17  2  0  0  0  0
 19 18  1  0  0  0  0
 19 20  2  0  0  0  0
 20 21  1  0  0  0  0
 21 22  2  0  0  0  0
 21  1  1  0  0  0  0
 23 18  1  0  0  0  0
 24 19  1  0  0  0  0
 25 26  2  0  0  0  0
 27 25  1  0  0  0  0
M  END
>  <minimizedAffinity>
-4.78400373

$$$$

 OpenBabel03252507583D

 27 29  0  0  1  0  0  0  0  0999 V2000
   36.5130   29.0440   40.9230 C   0  0  1  0  0  0  0  0  0  0  0  0
   35.7570   28.8910   39.6490 C   0  0  0  0  0  0  0  0  0  0  0  0
   36.9400   28.0490   39.8830 C   0  0  2  0  0  0  0  0  0  0  0  0
   35.9590   28.8080   41.8260 H   0  0  0  0  0  0  0  0  0  0  0  0
   35.8990   29.7410   38.9420 H   0  0  0  0  0  0  0  0  0  0  0  0
   34.7200   28.5820   39.7080 H   0  0  0  0  0  0  0  0  0  0  0  0
   37.8480   28.2360   39.2870 H   0  0  0  0  0  0  0  0  0  0  0  0
   37.7740   27.0380   42.4260 F   0  0  0  0  0  0  0  0  0  0  0  0
   37.2500   26.1390   41.5850 C   0  0  0  0  0  0  0  0  0  0  0  0
   36.8550   26.6530   40.3630 C   0  0  0  0  0  0  0  0  0  0  0  0
   36.2980   25.7540   39.4450 C   0  0  0  0  0  0  0  0  0  0  0  0
   35.9590   26.0710   38.4590 H   0  0  0  0  0  0  0  0  0  0  0  0
   36.1400   24.4060   39.7250 C   0  0  0  0  0  0  0  0  0  0  0  0
   35.6990   23.7390   38.9720 H   0  0  0  0  0  0  0  0  0  0  0  0
   36.5420   23.9110   40.9530 C   0  0  0  0  0  3  0  0  0  0  0  0
   37.0890   24.7960   41.8540 C   0  0  0  0  0  3  0  0  0  0  0  0
   38.1150   32.3230   40.6140 C   0  0  0  0  0  0  0  0  0  0  0  0
   39.2680   32.2040   41.4080 C   0  0  0  0  0  0  0  0  0  0  0  0
   39.4950   30.9740   42.0620 C   0  0  0  0  0  0  0  0  0  0  0  0
   38.5900   29.9800   41.8890 N   0  0  0  0  0  0  0  0  0  0  0  0
   37.4910   30.1680   41.1030 C   0  0  0  0  0  0  0  0  0  0  0  0
   37.2290   31.3090   40.4620 N   0  0  0  0  0  0  0  0  0  0  0  0
   39.9810   32.9780   41.5460 H   0  0  0  0  0  0  0  0  0  0  0  0
   40.3510   30.8130   42.6810 H   0  0  0  0  0  0  0  0  0  0  0  0
   37.9640   33.5970   39.9840 C   0  0  0  0  0  0  0  0  0  0  0  0
   36.9690   33.9460   39.2730 O   0  0  0  0  0  0  0  0  0  0  0  0
   38.8590   34.1670   40.2460 H   0  0  0  0  0  0  0  0  0  0  0  0
  1 21  1  0  0  0  0
  1  4  1  1  0  0  0
  2  6  1  0  0  0  0
  2  3  1  0  0  0  0
  2  1  1  0  0  0  0
  3  7  1  6  0  0  0
  3 10  1  0  0  0  0
  3  1  1  0  0  0  0
  5  2  1  0  0  0  0
  9 16  1  0  0  0  0
  9  8  1  0  0  0  0
 10  9  2  0  0  0  0
 11 13  2  0  0  0  0
 11 10  1  0  0  0  0
 12 11  1  0  0  0  0
 13 15  1  0  0  0  0
 14 13  1  0  0  0  0
 15 16  2  0  0  0  0
 17 18  1  0  0  0  0
 18 23  1  0  0  0  0
 18 19  2  0  0  0  0
 19 24  1  0  0  0  0
 20 19  1  0  0  0  0
 21 20  2  0  0  0  0
 22 17  2  0  0  0  0
 22 21  1  0  0  0  0
 25 27  1  0  0  0  0
 25 17  1  0  0  0  0
 26 25  2  0  0  0  0
M  END
>  <minimizedAffinity>
-4.78177786

$$$$
