
 OpenBabel03252507253D

 27 29  0  0  0  0  0  0  0  0999 V2000
   46.0250   33.1280   45.5180 C   0  0  0  0  0  0  0  0  0  0  0  0
   45.1330   34.0870   45.9990 C   0  0  0  0  0  0  0  0  0  0  0  0
   44.8610   35.2020   45.1730 C   0  0  0  0  0  0  0  0  0  0  0  0
   45.4790   35.2940   43.9450 N   0  0  0  0  0  0  0  0  0  0  0  0
   46.3310   34.3260   43.5480 C   0  0  0  0  0  0  0  0  0  0  0  0
   46.5960   33.2740   44.3110 N   0  0  0  0  0  0  0  0  0  0  0  0
   44.6520   34.0280   46.9390 H   0  0  0  0  0  0  0  0  0  0  0  0
   44.1990   35.9930   45.4390 H   0  0  0  0  0  0  0  0  0  0  0  0
   46.9700   34.4500   42.2440 C   0  0  0  0  0  0  0  0  0  0  0  0
   48.0730   35.2790   42.0810 C   0  0  0  0  0  0  0  0  0  0  0  0
   48.7440   35.4630   40.8910 C   0  0  0  0  0  0  0  0  0  0  0  0
   48.2310   34.7400   39.8210 C   0  0  0  0  0  0  0  0  0  0  0  0
   47.1320   33.9070   39.9550 C   0  0  0  0  0  0  0  0  0  0  0  0
   46.5250   33.7810   41.1760 N   0  0  0  0  0  0  0  0  0  0  0  0
   48.4090   35.8060   42.9650 H   0  0  0  0  0  0  0  0  0  0  0  0
   49.5940   36.1120   40.7990 H   0  0  0  0  0  0  0  0  0  0  0  0
   48.6870   34.8150   38.8420 H   0  0  0  0  0  0  0  0  0  0  0  0
   46.7810   33.3710   39.0850 H   0  0  0  0  0  0  0  0  0  0  0  0
   47.6370   33.2970   47.7650 F   0  0  0  0  0  0  0  0  0  0  0  0
   47.1510   32.0760   47.4340 C   0  0  0  0  0  0  0  0  0  0  0  0
   46.3450   31.9560   46.3210 C   0  0  0  0  0  0  0  0  0  0  0  0
   45.9060   30.6790   46.0740 C   0  0  0  0  0  0  0  0  0  0  0  0
   45.2720   30.5060   45.2220 H   0  0  0  0  0  0  0  0  0  0  0  0
   46.2370   29.5970   46.8640 C   0  0  0  0  0  0  0  0  0  0  0  0
   45.8460   28.6130   46.6000 H   0  0  0  0  0  0  0  0  0  0  0  0
   47.0490   29.7760   47.9690 C   0  0  0  0  0  3  0  0  0  0  0  0
   47.5180   31.0370   48.2650 C   0  0  0  0  0  3  0  0  0  0  0  0
  1  2  1  0  0  0  0
  1 21  1  0  0  0  0
  2  7  1  0  0  0  0
  3  8  1  0  0  0  0
  3  2  2  0  0  0  0
  4  3  1  0  0  0  0
  5  4  2  0  0  0  0
  5  6  1  0  0  0  0
  6  1  2  0  0  0  0
  9  5  1  0  0  0  0
 10  9  1  0  0  0  0
 10 15  1  0  0  0  0
 11 10  2  0  0  0  0
 12 13  2  0  0  0  0
 12 11  1  0  0  0  0
 13 14  1  0  0  0  0
 14  9  2  0  0  0  0
 16 11  1  0  0  0  0
 17 12  1  0  0  0  0
 18 13  1  0  0  0  0
 20 19  1  0  0  0  0
 20 27  1  0  0  0  0
 21 20  2  0  0  0  0
 22 21  1  0  0  0  0
 22 24  2  0  0  0  0
 23 22  1  0  0  0  0
 24 26  1  0  0  0  0
 25 24  1  0  0  0  0
 26 27  2  0  0  0  0
M  END
>  <minimizedAffinity>
-5.54386234

>  <minimizedRMSD>
0.909727693

$$$$
