REMARK  Name = 
REMARK  4 active torsions:
REMARK  status: ('A' for Active; 'I' for Inactive)
REMARK    1  A    between atoms: C_1  and  C_4
REMARK    2  A    between atoms: C_1  and  C_8
REMARK    3  A    between atoms: C_8  and  C_9
REMARK    4  A    between atoms: C_14  and  C_28
REMARK                            x       y       z     vdW  Elec       q    Type
REMARK                         _______ _______ _______ _____ _____    ______ ____
ROOT
ATOM      1  C   UNL     1      46.048  34.392  41.427  0.00  0.00    +0.000 A 
ATOM      2  C   UNL     1      46.636  34.045  40.240  0.00  0.00    +0.000 A 
ATOM      3  C   UNL     1      47.929  34.351  39.862  0.00  0.00    +0.000 A 
ATOM      4  C   UNL     1      48.672  35.081  40.806  0.00  0.00    +0.000 A 
ATOM      5  C   UNL     1      48.103  35.450  42.025  0.00  0.00    +0.000 A 
ATOM      6  C   UNL     1      46.814  35.121  42.350  0.00  0.00    +0.000 A 
ATOM      7  H   UNL     1      46.033  33.480  39.531  0.00  0.00    +0.000 HD
ATOM      8  H   UNL     1      48.358  34.062  38.919  0.00  0.00    +0.000 HD
ATOM      9  H   UNL     1      49.685  35.370  40.613  0.00  0.00    +0.000 HD
ATOM     10  H   UNL     1      48.686  36.010  42.738  0.00  0.00    +0.000 HD
ENDROOT
BRANCH   6  13
ATOM     11  F   UNL     1      47.590  33.796  44.643  0.00  0.00    +0.000 F 
ATOM     12  C   UNL     1      46.700  34.830  44.731  0.00  0.00    +0.000 A 
ATOM     13  C   UNL     1      46.272  35.531  43.635  0.00  0.00    +0.000 A 
ATOM     14  C   UNL     1      45.362  36.576  43.787  0.00  0.00    +0.000 A 
ATOM     15  H   UNL     1      45.045  37.111  42.885  0.00  0.00    +0.000 HD
ATOM     16  C   UNL     1      44.896  36.901  45.048  0.00  0.00    +0.000 A 
ATOM     17  H   UNL     1      44.184  37.721  45.149  0.00  0.00    +0.000 HD
ATOM     18  C   UNL     1      45.344  36.176  46.148  0.00  0.00    +0.000 A 
ATOM     19  C   UNL     1      46.239  35.149  45.986  0.00  0.00    +0.000 A 
ENDBRANCH   6  13
BRANCH   1  20
ATOM     20  C   UNL     1      44.673  34.063  41.822  0.00  0.00    +0.000 C 
ATOM     21  H   UNL     1      44.152  34.997  42.184  0.00  0.00    +0.000 HD
ATOM     22  H   UNL     1      44.612  33.261  42.575  0.00  0.00    +0.000 HD
BRANCH  20  23
ATOM     23  C   UNL     1      43.856  33.613  40.624  0.00  0.00    +0.000 C 
ATOM     24  H   UNL     1      43.970  34.374  39.819  0.00  0.00    +0.000 HD
ATOM     25  H   UNL     1      44.178  32.648  40.219  0.00  0.00    +0.000 HD
BRANCH  23  28
ATOM     26  C   UNL     1      40.385  34.798  41.473  0.00  0.00    +0.000 A 
ATOM     27  C   UNL     1      41.742  34.839  41.096  0.00  0.00    +0.000 A 
ATOM     28  C   UNL     1      42.419  33.618  41.019  0.00  0.00    +0.000 A 
ATOM     29  N   UNL     1      41.727  32.459  41.313  0.00  0.00    +0.000 NA
ATOM     30  C   UNL     1      40.436  32.481  41.666  0.00  0.00    +0.000 A 
ATOM     31  N   UNL     1      39.757  33.638  41.750  0.00  0.00    +0.000 NA
ATOM     32  H   UNL     1      39.791  35.685  41.557  0.00  0.00    +0.000 HD
ATOM     33  H   UNL     1      42.202  35.786  40.885  0.00  0.00    +0.000 HD
ATOM     34  H   UNL     1      39.994  31.516  41.874  0.00  0.00    +0.000 HD
ENDBRANCH  23  28
ENDBRANCH  20  23
ENDBRANCH   1  20
TORSDOF 4
