
 OpenBabel03252507263D

 27 29  0  0  0  0  0  0  0  0999 V2000
   45.7240   33.9550   45.4180 C   0  0  0  0  0  0  0  0  0  0  0  0
   44.7720   34.9450   45.6600 C   0  0  0  0  0  0  0  0  0  0  0  0
   44.5160   35.8760   44.6260 C   0  0  0  0  0  0  0  0  0  0  0  0
   45.2080   35.7680   43.4390 N   0  0  0  0  0  0  0  0  0  0  0  0
   46.1150   34.7830   43.2790 C   0  0  0  0  0  0  0  0  0  0  0  0
   46.3660   33.9020   44.2390 N   0  0  0  0  0  0  0  0  0  0  0  0
   44.2330   35.0390   46.5660 H   0  0  0  0  0  0  0  0  0  0  0  0
   43.8110   36.6720   44.7020 H   0  0  0  0  0  0  0  0  0  0  0  0
   46.8320   34.6930   42.0140 C   0  0  0  0  0  0  0  0  0  0  0  0
   48.0200   35.3890   41.8310 C   0  0  0  0  0  0  0  0  0  0  0  0
   48.7690   35.3690   40.6730 C   0  0  0  0  0  0  0  0  0  0  0  0
   48.2420   34.5790   39.6590 C   0  0  0  0  0  0  0  0  0  0  0  0
   47.0590   33.8750   39.8130 C   0  0  0  0  0  0  0  0  0  0  0  0
   46.3780   33.9500   40.9990 N   0  0  0  0  0  0  0  0  0  0  0  0
   48.3610   35.9810   42.6720 H   0  0  0  0  0  0  0  0  0  0  0  0
   49.6840   35.9190   40.5660 H   0  0  0  0  0  0  0  0  0  0  0  0
   48.7550   34.4960   38.7090 H   0  0  0  0  0  0  0  0  0  0  0  0
   46.7020   33.2770   38.9870 H   0  0  0  0  0  0  0  0  0  0  0  0
   44.3040   33.8280   47.7930 F   0  0  0  0  0  0  0  0  0  0  0  0
   45.3040   32.9320   47.6140 C   0  0  0  0  0  0  0  0  0  0  0  0
   46.0310   32.9660   46.4420 C   0  0  0  0  0  0  0  0  0  0  0  0
   47.0210   32.0180   46.3600 C   0  0  0  0  0  0  0  0  0  0  0  0
   47.6310   31.9830   45.4730 H   0  0  0  0  0  0  0  0  0  0  0  0
   47.2760   31.1000   47.3580 C   0  0  0  0  0  0  0  0  0  0  0  0
   48.0820   30.3790   47.2160 H   0  0  0  0  0  0  0  0  0  0  0  0
   46.5160   31.1110   48.5120 C   0  0  0  0  0  0  0  0  0  0  0  0
   45.5080   32.0410   48.6490 C   0  0  0  0  0  0  0  0  0  0  0  0
  1  2  1  0  0  0  0
  1 21  1  0  0  0  0
  2  7  1  0  0  0  0
  3  8  1  0  0  0  0
  3  2  2  0  0  0  0
  4  3  1  0  0  0  0
  5  4  2  0  0  0  0
  5  6  1  0  0  0  0
  6  1  2  0  0  0  0
  9  5  1  0  0  0  0
 10  9  1  0  0  0  0
 10 15  1  0  0  0  0
 11 10  2  0  0  0  0
 12 13  2  0  0  0  0
 12 11  1  0  0  0  0
 13 14  1  0  0  0  0
 14  9  2  0  0  0  0
 16 11  1  0  0  0  0
 17 12  1  0  0  0  0
 18 13  1  0  0  0  0
 20 19  1  0  0  0  0
 20 27  1  0  0  0  0
 21 20  2  0  0  0  0
 22 21  1  0  0  0  0
 22 24  2  0  0  0  0
 23 22  1  0  0  0  0
 24 26  1  0  0  0  0
 25 24  1  0  0  0  0
 26 27  2  0  0  0  0
M  END
>  <minimizedAffinity>
-6.6297307

>  <minimizedRMSD>
0.470677227

$$$$
