
 OpenBabel03252509173D

 25 27  0  0  0  0  0  0  0  0999 V2000
   37.8010   30.4860   40.6210 C   0  0  0  0  0  0  0  0  0  0  0  0
   36.4490   30.2260   40.9610 C   0  0  0  0  0  0  0  0  0  0  0  0
   36.0340   28.9430   41.0510 C   0  0  0  0  0  0  0  0  0  0  0  0
   36.9690   27.9110   40.8010 C   0  0  0  0  0  0  0  0  0  0  0  0
   38.4860   28.8300   40.4260 S   0  0  0  0  0  0  0  0  0  0  0  0
   35.7750   31.0690   41.1420 H   0  0  0  0  0  0  0  0  0  0  0  0
   35.0480   28.6600   41.2980 H   0  0  0  0  0  0  0  0  0  0  0  0
   38.3900   34.1220   40.1300 C   0  0  0  0  0  0  0  0  0  0  0  0
   39.7960   34.1610   40.3200 C   0  0  0  0  0  0  0  0  0  0  0  0
   40.4640   32.9530   40.6040 C   0  0  0  0  0  0  0  0  0  0  0  0
   39.7100   31.8070   40.6790 N   0  0  0  0  0  0  0  0  0  0  0  0
   38.3750   31.8230   40.4910 C   0  0  0  0  0  0  0  0  0  0  0  0
   37.7120   32.9740   40.2160 N   0  0  0  0  0  0  0  0  0  0  0  0
   37.8670   35.0410   39.9110 H   0  0  0  0  0  0  0  0  0  0  0  0
   40.3630   35.0720   40.2560 H   0  0  0  0  0  0  0  0  0  0  0  0
   41.5300   32.9100   40.7600 H   0  0  0  0  0  0  0  0  0  0  0  0
   37.5270   26.2720   43.0080 F   0  0  0  0  0  0  0  0  0  0  0  0
   37.1470   25.6510   41.8740 C   0  0  0  0  0  0  0  0  0  0  0  0
   36.8790   26.4800   40.8060 C   0  0  0  0  0  0  0  0  0  0  0  0
   36.4890   25.8550   39.6410 C   0  0  0  0  0  0  0  0  0  0  0  0
   36.2490   26.4130   38.7220 H   0  0  0  0  0  0  0  0  0  0  0  0
   36.3670   24.4890   39.5270 C   0  0  0  0  0  0  0  0  0  0  0  0
   36.0600   24.0230   38.6010 H   0  0  0  0  0  0  0  0  0  0  0  0
   36.6520   23.7220   40.6370 C   0  0  0  0  0  3  0  0  0  0  0  0
   37.0470   24.2780   41.8350 C   0  0  0  0  0  3  0  0  0  0  0  0
  1  2  2  0  0  0  0
  2  3  1  0  0  0  0
  2  6  1  0  0  0  0
  3  7  1  0  0  0  0
  4 19  1  0  0  0  0
  4  3  2  0  0  0  0
  5  1  1  0  0  0  0
  5  4  1  0  0  0  0
  8 13  2  0  0  0  0
  8  9  1  0  0  0  0
  9 10  2  0  0  0  0
 10 11  1  0  0  0  0
 10 16  1  0  0  0  0
 12  1  1  0  0  0  0
 12 11  2  0  0  0  0
 13 12  1  0  0  0  0
 14  8  1  0  0  0  0
 15  9  1  0  0  0  0
 18 17  1  0  0  0  0
 19 18  2  0  0  0  0
 20 19  1  0  0  0  0
 21 20  1  0  0  0  0
 22 20  2  0  0  0  0
 22 24  1  0  0  0  0
 23 22  1  0  0  0  0
 24 25  2  0  0  0  0
 25 18  1  0  0  0  0
M  END
>  <minimizedAffinity>
-5.11620617

$$$$

 OpenBabel03252509173D

 25 27  0  0  0  0  0  0  0  0999 V2000
   37.8500   30.0920   40.9490 C   0  0  0  0  0  0  0  0  0  0  0  0
   37.3000   29.5820   42.1530 C   0  0  0  0  0  0  0  0  0  0  0  0
   37.0730   28.2530   42.2550 C   0  0  0  0  0  0  0  0  0  0  0  0
   37.3960   27.4260   41.1530 C   0  0  0  0  0  0  0  0  0  0  0  0
   38.0430   28.6090   39.9420 S   0  0  0  0  0  0  0  0  0  0  0  0
   37.0710   30.2740   42.9680 H   0  0  0  0  0  0  0  0  0  0  0  0
   36.6670   27.7900   43.1110 H   0  0  0  0  0  0  0  0  0  0  0  0
   39.3410   33.4930   40.8380 C   0  0  0  0  0  0  0  0  0  0  0  0
   38.3540   34.1580   40.0640 C   0  0  0  0  0  0  0  0  0  0  0  0
   37.2400   33.4150   39.6240 C   0  0  0  0  0  0  0  0  0  0  0  0
   37.1770   32.0890   39.9730 N   0  0  0  0  0  0  0  0  0  0  0  0
   38.1420   31.5030   40.7100 C   0  0  0  0  0  0  0  0  0  0  0  0
   39.2230   32.1990   41.1440 N   0  0  0  0  0  0  0  0  0  0  0  0
   40.1990   34.0520   41.1810 H   0  0  0  0  0  0  0  0  0  0  0  0
   38.4270   35.1990   39.8050 H   0  0  0  0  0  0  0  0  0  0  0  0
   36.4530   33.8580   39.0330 H   0  0  0  0  0  0  0  0  0  0  0  0
   38.5790   25.4400   42.7420 F   0  0  0  0  0  0  0  0  0  0  0  0
   37.8610   25.0180   41.6810 C   0  0  0  0  0  0  0  0  0  0  0  0
   37.2910   26.0150   40.9190 C   0  0  0  0  0  0  0  0  0  0  0  0
   36.5550   25.5950   39.8320 C   0  0  0  0  0  0  0  0  0  0  0  0
   36.0530   26.3000   39.1490 H   0  0  0  0  0  0  0  0  0  0  0  0
   36.3850   24.2680   39.5080 C   0  0  0  0  0  0  0  0  0  0  0  0
   35.8030   23.9650   38.6490 H   0  0  0  0  0  0  0  0  0  0  0  0
   36.9850   23.3270   40.3170 C   0  0  0  0  0  3  0  0  0  0  0  0
   37.7350   23.6720   41.4210 C   0  0  0  0  0  3  0  0  0  0  0  0
  1  2  2  0  0  0  0
  2  3  1  0  0  0  0
  2  6  1  0  0  0  0
  3  7  1  0  0  0  0
  4  3  2  0  0  0  0
  5  1  1  0  0  0  0
  5  4  1  0  0  0  0
  8 13  1  0  0  0  0
  8 14  1  0  0  0  0
  9  8  2  0  0  0  0
 10 11  2  0  0  0  0
 10  9  1  0  0  0  0
 11 12  1  0  0  0  0
 12  1  1  0  0  0  0
 12 13  2  0  0  0  0
 15  9  1  0  0  0  0
 16 10  1  0  0  0  0
 18 17  1  0  0  0  0
 19  4  1  0  0  0  0
 19 18  2  0  0  0  0
 20 19  1  0  0  0  0
 21 20  1  0  0  0  0
 22 20  2  0  0  0  0
 22 24  1  0  0  0  0
 23 22  1  0  0  0  0
 24 25  2  0  0  0  0
 25 18  1  0  0  0  0
M  END
>  <minimizedAffinity>
-4.93674517

$$$$

 OpenBabel03252509173D

 25 27  0  0  0  0  0  0  0  0999 V2000
   37.3990   27.4360   40.9720 C   0  0  0  0  0  0  0  0  0  0  0  0
   36.5670   28.1810   41.8470 C   0  0  0  0  0  0  0  0  0  0  0  0
   36.6420   29.5310   41.8280 C   0  0  0  0  0  0  0  0  0  0  0  0
   37.5500   30.1440   40.9330 C   0  0  0  0  0  0  0  0  0  0  0  0
   38.3130   28.7240   40.1020 S   0  0  0  0  0  0  0  0  0  0  0  0
   35.8850   27.6470   42.5150 H   0  0  0  0  0  0  0  0  0  0  0  0
   36.0610   30.1610   42.4420 H   0  0  0  0  0  0  0  0  0  0  0  0
   36.7450   23.8630   40.1950 C   0  0  0  0  0  0  0  0  0  0  0  0
   37.7430   23.2580   41.0020 C   0  0  0  0  0  0  0  0  0  0  0  0
   38.5810   24.0970   41.7640 C   0  0  0  0  0  0  0  0  0  0  0  0
   38.3790   25.4530   41.6780 N   0  0  0  0  0  0  0  0  0  0  0  0
   37.4160   25.9780   40.8950 C   0  0  0  0  0  0  0  0  0  0  0  0
   36.5980   25.1890   40.1530 N   0  0  0  0  0  0  0  0  0  0  0  0
   36.0960   23.2300   39.6070 H   0  0  0  0  0  0  0  0  0  0  0  0
   37.8800   22.1940   41.0520 H   0  0  0  0  0  0  0  0  0  0  0  0
   39.3610   23.7050   42.3990 H   0  0  0  0  0  0  0  0  0  0  0  0
   39.7940   31.4910   41.9420 F   0  0  0  0  0  0  0  0  0  0  0  0
   38.9770   32.1970   41.1340 C   0  0  0  0  0  0  0  0  0  0  0  0
   37.8830   31.5100   40.6530 C   0  0  0  0  0  0  0  0  0  0  0  0
   37.0410   32.2230   39.8260 C   0  0  0  0  0  0  0  0  0  0  0  0
   36.1350   31.7800   39.3810 H   0  0  0  0  0  0  0  0  0  0  0  0
   37.2590   33.5390   39.4880 C   0  0  0  0  0  0  0  0  0  0  0  0
   36.5820   34.0760   38.8380 H   0  0  0  0  0  0  0  0  0  0  0  0
   38.3740   34.1610   40.0070 C   0  0  0  0  0  3  0  0  0  0  0  0
   39.2600   33.5120   40.8400 C   0  0  0  0  0  3  0  0  0  0  0  0
  1  2  2  0  0  0  0
  2  6  1  0  0  0  0
  3  2  1  0  0  0  0
  3  7  1  0  0  0  0
  4  3  2  0  0  0  0
  5  4  1  0  0  0  0
  5  1  1  0  0  0  0
  8  9  1  0  0  0  0
  9 15  1  0  0  0  0
  9 10  2  0  0  0  0
 10 16  1  0  0  0  0
 11 10  1  0  0  0  0
 12  1  1  0  0  0  0
 12 11  2  0  0  0  0
 13  8  2  0  0  0  0
 13 12  1  0  0  0  0
 14  8  1  0  0  0  0
 18 17  1  0  0  0  0
 19  4  1  0  0  0  0
 19 18  2  0  0  0  0
 20 19  1  0  0  0  0
 21 20  1  0  0  0  0
 22 20  2  0  0  0  0
 22 24  1  0  0  0  0
 23 22  1  0  0  0  0
 24 25  2  0  0  0  0
 25 18  1  0  0  0  0
M  END
>  <minimizedAffinity>
-4.87624168

$$$$

 OpenBabel03252509173D

 25 27  0  0  0  0  0  0  0  0999 V2000
   38.1260   27.3850   41.1380 C   0  0  0  0  0  0  0  0  0  0  0  0
   37.8530   28.0980   42.3340 C   0  0  0  0  0  0  0  0  0  0  0  0
   37.8140   29.4490   42.2950 C   0  0  0  0  0  0  0  0  0  0  0  0
   38.0460   30.0950   41.0580 C   0  0  0  0  0  0  0  0  0  0  0  0
   38.3290   28.7060   39.9280 S   0  0  0  0  0  0  0  0  0  0  0  0
   37.6820   27.5380   43.2580 H   0  0  0  0  0  0  0  0  0  0  0  0
   37.6180   30.0560   43.1350 H   0  0  0  0  0  0  0  0  0  0  0  0
   37.6820   23.7220   41.5710 C   0  0  0  0  0  0  0  0  0  0  0  0
   38.5960   23.2560   40.5890 C   0  0  0  0  0  0  0  0  0  0  0  0
   39.3090   24.2110   39.8370 C   0  0  0  0  0  0  0  0  0  0  0  0
   39.0760   25.5380   40.1010 N   0  0  0  0  0  0  0  0  0  0  0  0
   38.1970   25.9300   41.0450 C   0  0  0  0  0  0  0  0  0  0  0  0
   37.5000   25.0280   41.7810 N   0  0  0  0  0  0  0  0  0  0  0  0
   37.1300   23.0000   42.1540 H   0  0  0  0  0  0  0  0  0  0  0  0
   38.7600   22.2100   40.4030 H   0  0  0  0  0  0  0  0  0  0  0  0
   40.0180   23.9260   39.0760 H   0  0  0  0  0  0  0  0  0  0  0  0
   36.2250   31.3070   39.3010 F   0  0  0  0  0  0  0  0  0  0  0  0
   37.2000   32.0940   39.8000 C   0  0  0  0  0  0  0  0  0  0  0  0
   38.0800   31.4720   40.6600 C   0  0  0  0  0  0  0  0  0  0  0  0
   39.0810   32.2680   41.1760 C   0  0  0  0  0  0  0  0  0  0  0  0
   39.8430   31.8830   41.8730 H   0  0  0  0  0  0  0  0  0  0  0  0
   39.2140   33.6020   40.8650 C   0  0  0  0  0  0  0  0  0  0  0  0
   40.0080   34.2040   41.2830 H   0  0  0  0  0  0  0  0  0  0  0  0
   38.2970   34.1550   39.9980 C   0  0  0  0  0  3  0  0  0  0  0  0
   37.2690   33.4220   39.4430 C   0  0  0  0  0  3  0  0  0  0  0  0
  1  2  2  0  0  0  0
  2  6  1  0  0  0  0
  3  2  1  0  0  0  0
  3  7  1  0  0  0  0
  4  3  2  0  0  0  0
  5  4  1  0  0  0  0
  5  1  1  0  0  0  0
  8 13  1  0  0  0  0
  8 14  1  0  0  0  0
  9  8  2  0  0  0  0
 10 11  2  0  0  0  0
 10  9  1  0  0  0  0
 11 12  1  0  0  0  0
 12  1  1  0  0  0  0
 12 13  2  0  0  0  0
 15  9  1  0  0  0  0
 16 10  1  0  0  0  0
 17 18  1  0  0  0  0
 18 19  1  0  0  0  0
 19  4  1  0  0  0  0
 19 20  2  0  0  0  0
 20 21  1  0  0  0  0
 22 20  1  0  0  0  0
 22 23  1  0  0  0  0
 24 22  2  0  0  0  0
 25 18  2  0  0  0  0
 25 24  1  0  0  0  0
M  END
>  <minimizedAffinity>
-4.74107361

$$$$

 OpenBabel03252509173D

 25 27  0  0  0  0  0  0  0  0999 V2000
   35.2640   28.5490   38.7050 C   0  0  0  0  0  0  0  0  0  0  0  0
   34.9840   29.1460   39.9610 C   0  0  0  0  0  0  0  0  0  0  0  0
   35.7360   28.8000   41.0300 C   0  0  0  0  0  0  0  0  0  0  0  0
   36.7730   27.8540   40.8500 C   0  0  0  0  0  0  0  0  0  0  0  0
   36.6500   27.4600   39.0840 S   0  0  0  0  0  0  0  0  0  0  0  0
   34.1680   29.8710   40.0350 H   0  0  0  0  0  0  0  0  0  0  0  0
   35.5970   29.1940   41.9990 H   0  0  0  0  0  0  0  0  0  0  0  0
   34.2290   29.2180   35.2000 C   0  0  0  0  0  0  0  0  0  0  0  0
   32.8330   29.3830   35.3940 C   0  0  0  0  0  0  0  0  0  0  0  0
   32.3220   29.2580   36.7010 C   0  0  0  0  0  0  0  0  0  0  0  0
   33.2110   28.9830   37.7120 N   0  0  0  0  0  0  0  0  0  0  0  0
   34.5300   28.8350   37.4760 C   0  0  0  0  0  0  0  0  0  0  0  0
   35.0430   28.9520   36.2250 N   0  0  0  0  0  0  0  0  0  0  0  0
   34.6320   29.3130   34.2030 H   0  0  0  0  0  0  0  0  0  0  0  0
   32.1590   29.5980   34.5850 H   0  0  0  0  0  0  0  0  0  0  0  0
   31.2720   29.3710   36.9200 H   0  0  0  0  0  0  0  0  0  0  0  0
   36.9990   25.1140   41.4040 F   0  0  0  0  0  0  0  0  0  0  0  0
   37.8720   25.9320   42.0270 C   0  0  0  0  0  0  0  0  0  0  0  0
   37.7370   27.2720   41.7360 C   0  0  0  0  0  0  0  0  0  0  0  0
   38.6250   28.1180   42.3680 C   0  0  0  0  0  0  0  0  0  0  0  0
   38.6140   29.2090   42.2140 H   0  0  0  0  0  0  0  0  0  0  0  0
   39.5930   27.6730   43.2400 C   0  0  0  0  0  0  0  0  0  0  0  0
   40.2760   28.3570   43.7230 H   0  0  0  0  0  0  0  0  0  0  0  0
   39.6670   26.3190   43.4830 C   0  0  0  0  0  3  0  0  0  0  0  0
   38.8140   25.4140   42.8870 C   0  0  0  0  0  3  0  0  0  0  0  0
  1  5  1  0  0  0  0
  1  2  2  0  0  0  0
  2  6  1  0  0  0  0
  2  3  1  0  0  0  0
  3  7  1  0  0  0  0
  4  3  2  0  0  0  0
  4 19  1  0  0  0  0
  5  4  1  0  0  0  0
  8  9  2  0  0  0  0
  8 13  1  0  0  0  0
  9 10  1  0  0  0  0
 10 16  1  0  0  0  0
 10 11  2  0  0  0  0
 12 11  1  0  0  0  0
 12  1  1  0  0  0  0
 13 12  2  0  0  0  0
 14  8  1  0  0  0  0
 15  9  1  0  0  0  0
 17 18  1  0  0  0  0
 18 25  1  0  0  0  0
 19 18  2  0  0  0  0
 19 20  1  0  0  0  0
 20 22  2  0  0  0  0
 21 20  1  0  0  0  0
 22 24  1  0  0  0  0
 22 23  1  0  0  0  0
 25 24  2  0  0  0  0
M  END
>  <minimizedAffinity>
-4.69404793

$$$$

 OpenBabel03252509173D

 25 27  0  0  0  0  0  0  0  0999 V2000
   34.3090   28.7290   37.9760 C   0  0  0  0  0  0  0  0  0  0  0  0
   35.4180   27.8900   37.6980 C   0  0  0  0  0  0  0  0  0  0  0  0
   36.2840   27.6010   38.6950 C   0  0  0  0  0  0  0  0  0  0  0  0
   36.0460   28.1500   39.9770 C   0  0  0  0  0  0  0  0  0  0  0  0
   34.5280   29.1090   39.7250 S   0  0  0  0  0  0  0  0  0  0  0  0
   35.5460   27.4970   36.6850 H   0  0  0  0  0  0  0  0  0  0  0  0
   37.1340   26.9870   38.5760 H   0  0  0  0  0  0  0  0  0  0  0  0
   32.4290   29.5490   34.8780 C   0  0  0  0  0  0  0  0  0  0  0  0
   31.1770   29.9000   35.4480 C   0  0  0  0  0  0  0  0  0  0  0  0
   31.0420   29.8380   36.8490 C   0  0  0  0  0  0  0  0  0  0  0  0
   32.1340   29.4410   37.5800 N   0  0  0  0  0  0  0  0  0  0  0  0
   33.3030   29.1170   36.9910 C   0  0  0  0  0  0  0  0  0  0  0  0
   33.4550   29.1700   35.6440 N   0  0  0  0  0  0  0  0  0  0  0  0
   32.5450   29.5930   33.8050 H   0  0  0  0  0  0  0  0  0  0  0  0
   30.3370   30.2080   34.8520 H   0  0  0  0  0  0  0  0  0  0  0  0
   30.1190   30.0900   37.3480 H   0  0  0  0  0  0  0  0  0  0  0  0
   36.8760   30.3400   41.5210 F   0  0  0  0  0  0  0  0  0  0  0  0
   37.1570   29.1150   42.0080 C   0  0  0  0  0  0  0  0  0  0  0  0
   36.7370   28.0580   41.2290 C   0  0  0  0  0  0  0  0  0  0  0  0
   37.0190   26.8000   41.7190 C   0  0  0  0  0  0  0  0  0  0  0  0
   36.7340   25.8790   41.1840 H   0  0  0  0  0  0  0  0  0  0  0  0
   37.6780   26.5880   42.9090 C   0  0  0  0  0  0  0  0  0  0  0  0
   37.8880   25.5920   43.2700 H   0  0  0  0  0  0  0  0  0  0  0  0
   38.0670   27.6940   43.6340 C   0  0  0  0  0  3  0  0  0  0  0  0
   37.8190   28.9810   43.2080 C   0  0  0  0  0  3  0  0  0  0  0  0
  1  5  1  0  0  0  0
  2  1  2  0  0  0  0
  2  3  1  0  0  0  0
  3  4  2  0  0  0  0
  4 19  1  0  0  0  0
  5  4  1  0  0  0  0
  6  2  1  0  0  0  0
  7  3  1  0  0  0  0
  8  9  2  0  0  0  0
  8 13  1  0  0  0  0
  9 10  1  0  0  0  0
 10 16  1  0  0  0  0
 10 11  2  0  0  0  0
 12 11  1  0  0  0  0
 12  1  1  0  0  0  0
 13 12  2  0  0  0  0
 14  8  1  0  0  0  0
 15  9  1  0  0  0  0
 17 18  1  0  0  0  0
 18 25  1  0  0  0  0
 19 20  1  0  0  0  0
 19 18  2  0  0  0  0
 20 22  2  0  0  0  0
 21 20  1  0  0  0  0
 22 23  1  0  0  0  0
 22 24  1  0  0  0  0
 25 24  2  0  0  0  0
M  END
>  <minimizedAffinity>
-4.61036539

$$$$

 OpenBabel03252509173D

 25 27  0  0  0  0  0  0  0  0999 V2000
   41.0510   31.8600   40.1660 C   0  0  0  0  0  0  0  0  0  0  0  0
   40.0510   32.4820   40.9570 C   0  0  0  0  0  0  0  0  0  0  0  0
   39.1690   31.7050   41.6250 C   0  0  0  0  0  0  0  0  0  0  0  0
   39.2830   30.2990   41.5060 C   0  0  0  0  0  0  0  0  0  0  0  0
   40.7030   30.1050   40.3970 S   0  0  0  0  0  0  0  0  0  0  0  0
   40.0170   33.5740   41.0070 H   0  0  0  0  0  0  0  0  0  0  0  0
   38.3970   32.0830   42.2340 H   0  0  0  0  0  0  0  0  0  0  0  0
   44.1600   33.4610   38.9120 C   0  0  0  0  0  0  0  0  0  0  0  0
   43.6710   34.0020   37.6930 C   0  0  0  0  0  0  0  0  0  0  0  0
   42.3160   33.7930   37.3670 C   0  0  0  0  0  0  0  0  0  0  0  0
   41.5490   33.0760   38.2520 N   0  0  0  0  0  0  0  0  0  0  0  0
   42.0600   32.5820   39.3970 C   0  0  0  0  0  0  0  0  0  0  0  0
   43.3620   32.7710   39.7310 N   0  0  0  0  0  0  0  0  0  0  0  0
   45.1960   33.6150   39.1730 H   0  0  0  0  0  0  0  0  0  0  0  0
   44.2940   34.5610   37.0190 H   0  0  0  0  0  0  0  0  0  0  0  0
   41.8800   34.1760   36.4580 H   0  0  0  0  0  0  0  0  0  0  0  0
   40.2860   28.4490   43.3600 F   0  0  0  0  0  0  0  0  0  0  0  0
   39.0070   28.2800   42.9680 C   0  0  0  0  0  0  0  0  0  0  0  0
   38.5410   29.2040   42.0580 C   0  0  0  0  0  0  0  0  0  0  0  0
   37.2330   29.0410   41.6510 C   0  0  0  0  0  0  0  0  0  0  0  0
   36.7510   29.7160   40.9260 H   0  0  0  0  0  0  0  0  0  0  0  0
   36.4250   28.0260   42.1120 C   0  0  0  0  0  0  0  0  0  0  0  0
   35.4030   27.9190   41.7760 H   0  0  0  0  0  0  0  0  0  0  0  0
   36.9610   27.1390   43.0210 C   0  0  0  0  0  3  0  0  0  0  0  0
   38.2590   27.2400   43.4740 C   0  0  0  0  0  3  0  0  0  0  0  0
  1  5  1  0  0  0  0
  1  2  2  0  0  0  0
  2  6  1  0  0  0  0
  2  3  1  0  0  0  0
  3  7  1  0  0  0  0
  4  3  2  0  0  0  0
  4 19  1  0  0  0  0
  5  4  1  0  0  0  0
  8 14  1  0  0  0  0
  8 13  1  0  0  0  0
  9  8  2  0  0  0  0
 10  9  1  0  0  0  0
 10 11  2  0  0  0  0
 11 12  1  0  0  0  0
 12 13  2  0  0  0  0
 12  1  1  0  0  0  0
 15  9  1  0  0  0  0
 16 10  1  0  0  0  0
 18 17  1  0  0  0  0
 18 25  1  0  0  0  0
 19 18  2  0  0  0  0
 20 19  1  0  0  0  0
 20 22  2  0  0  0  0
 21 20  1  0  0  0  0
 22 24  1  0  0  0  0
 23 22  1  0  0  0  0
 24 25  2  0  0  0  0
M  END
>  <minimizedAffinity>
-4.56631184

$$$$

 OpenBabel03252509173D

 25 27  0  0  0  0  0  0  0  0999 V2000
   36.7270   29.9910   40.0630 C   0  0  0  0  0  0  0  0  0  0  0  0
   35.5460   29.3940   40.5770 C   0  0  0  0  0  0  0  0  0  0  0  0
   34.5710   29.0300   39.7140 C   0  0  0  0  0  0  0  0  0  0  0  0
   34.7710   29.2590   38.3320 C   0  0  0  0  0  0  0  0  0  0  0  0
   36.4140   30.0240   38.2880 S   0  0  0  0  0  0  0  0  0  0  0  0
   35.4530   29.2440   41.6560 H   0  0  0  0  0  0  0  0  0  0  0  0
   33.6640   28.5800   40.0090 H   0  0  0  0  0  0  0  0  0  0  0  0
   39.6560   31.7590   41.5100 C   0  0  0  0  0  0  0  0  0  0  0  0
   39.8770   30.9510   42.6560 C   0  0  0  0  0  0  0  0  0  0  0  0
   39.0200   29.8530   42.8730 C   0  0  0  0  0  0  0  0  0  0  0  0
   38.0200   29.6320   41.9580 N   0  0  0  0  0  0  0  0  0  0  0  0
   37.8510   30.4300   40.8840 C   0  0  0  0  0  0  0  0  0  0  0  0
   38.6650   31.4920   40.6570 N   0  0  0  0  0  0  0  0  0  0  0  0
   40.3060   32.6030   41.3340 H   0  0  0  0  0  0  0  0  0  0  0  0
   40.6680   31.1470   43.3570 H   0  0  0  0  0  0  0  0  0  0  0  0
   39.1310   29.1980   43.7230 H   0  0  0  0  0  0  0  0  0  0  0  0
   31.9890   29.5860   38.1880 F   0  0  0  0  0  0  0  0  0  0  0  0
   32.6060   29.1570   37.0690 C   0  0  0  0  0  0  0  0  0  0  0  0
   33.9720   29.0060   37.1690 C   0  0  0  0  0  0  0  0  0  0  0  0
   34.6140   28.5680   36.0300 C   0  0  0  0  0  0  0  0  0  0  0  0
   35.7040   28.4090   35.9890 H   0  0  0  0  0  0  0  0  0  0  0  0
   33.9520   28.2920   34.8550 C   0  0  0  0  0  0  0  0  0  0  0  0
   34.4790   27.9490   33.9750 H   0  0  0  0  0  0  0  0  0  0  0  0
   32.5850   28.4670   34.8300 C   0  0  0  0  0  3  0  0  0  0  0  0
   31.8770   28.9020   35.9300 C   0  0  0  0  0  3  0  0  0  0  0  0
  1  2  2  0  0  0  0
  1 12  1  0  0  0  0
  2  6  1  0  0  0  0
  3  7  1  0  0  0  0
  3  2  1  0  0  0  0
  4  3  2  0  0  0  0
  5  4  1  0  0  0  0
  5  1  1  0  0  0  0
  8  9  1  0  0  0  0
  9 10  2  0  0  0  0
  9 15  1  0  0  0  0
 10 16  1  0  0  0  0
 11 10  1  0  0  0  0
 12 11  2  0  0  0  0
 13 12  1  0  0  0  0
 13  8  2  0  0  0  0
 14  8  1  0  0  0  0
 18 19  1  0  0  0  0
 18 17  1  0  0  0  0
 19  4  1  0  0  0  0
 20 19  2  0  0  0  0
 21 20  1  0  0  0  0
 22 20  1  0  0  0  0
 23 22  1  0  0  0  0
 24 22  2  0  0  0  0
 24 25  1  0  0  0  0
 25 18  2  0  0  0  0
M  END
>  <minimizedAffinity>
-4.40252018

$$$$

 OpenBabel03252509173D

 25 27  0  0  0  0  0  0  0  0999 V2000
   40.9520   31.0120   37.4960 C   0  0  0  0  0  0  0  0  0  0  0  0
   40.1460   32.1580   37.7180 C   0  0  0  0  0  0  0  0  0  0  0  0
   38.8730   31.9890   38.1400 C   0  0  0  0  0  0  0  0  0  0  0  0
   38.3980   30.6720   38.3440 C   0  0  0  0  0  0  0  0  0  0  0  0
   39.8370   29.6570   37.9100 S   0  0  0  0  0  0  0  0  0  0  0  0
   40.5730   33.1500   37.5420 H   0  0  0  0  0  0  0  0  0  0  0  0
   38.2060   32.7840   38.3290 H   0  0  0  0  0  0  0  0  0  0  0  0
   44.5500   31.7790   36.9760 C   0  0  0  0  0  0  0  0  0  0  0  0
   44.8400   30.8580   35.9350 C   0  0  0  0  0  0  0  0  0  0  0  0
   43.7980   30.0310   35.4690 C   0  0  0  0  0  0  0  0  0  0  0  0
   42.5630   30.1660   36.0530 N   0  0  0  0  0  0  0  0  0  0  0  0
   42.3390   31.0560   37.0410 C   0  0  0  0  0  0  0  0  0  0  0  0
   43.3270   31.8630   37.5040 N   0  0  0  0  0  0  0  0  0  0  0  0
   45.3400   32.4190   37.3410 H   0  0  0  0  0  0  0  0  0  0  0  0
   45.8160   30.7730   35.4940 H   0  0  0  0  0  0  0  0  0  0  0  0
   43.9480   29.3100   34.6810 H   0  0  0  0  0  0  0  0  0  0  0  0
   36.3790   29.7370   36.6360 F   0  0  0  0  0  0  0  0  0  0  0  0
   36.1310   29.6710   37.9600 C   0  0  0  0  0  0  0  0  0  0  0  0
   37.1400   30.1370   38.7740 C   0  0  0  0  0  0  0  0  0  0  0  0
   36.8970   30.0730   40.1300 C   0  0  0  0  0  0  0  0  0  0  0  0
   37.6280   30.4160   40.8790 H   0  0  0  0  0  0  0  0  0  0  0  0
   35.7260   29.5800   40.6600 C   0  0  0  0  0  0  0  0  0  0  0  0
   35.5590   29.5420   41.7270 H   0  0  0  0  0  0  0  0  0  0  0  0
   34.7610   29.1320   39.7830 C   0  0  0  0  0  3  0  0  0  0  0  0
   34.9350   29.1640   38.4160 C   0  0  0  0  0  3  0  0  0  0  0  0
  1  2  2  0  0  0  0
  1  5  1  0  0  0  0
  2  3  1  0  0  0  0
  3  7  1  0  0  0  0
  3  4  2  0  0  0  0
  4 19  1  0  0  0  0
  5  4  1  0  0  0  0
  6  2  1  0  0  0  0
  8 14  1  0  0  0  0
  8 13  1  0  0  0  0
  9  8  2  0  0  0  0
 10  9  1  0  0  0  0
 10 11  2  0  0  0  0
 11 12  1  0  0  0  0
 12  1  1  0  0  0  0
 12 13  2  0  0  0  0
 15  9  1  0  0  0  0
 16 10  1  0  0  0  0
 17 18  1  0  0  0  0
 18 25  2  0  0  0  0
 18 19  1  0  0  0  0
 19 20  2  0  0  0  0
 20 22  1  0  0  0  0
 20 21  1  0  0  0  0
 22 23  1  0  0  0  0
 24 22  2  0  0  0  0
 25 24  1  0  0  0  0
M  END
>  <minimizedAffinity>
-4.39594269

$$$$
