
     RDKit          3D

 27 29  0  0  0  0  0  0  0  0999 V2000
   44.5762   35.7907   44.7229 C   0  0  0  0  0  0  0  0  0  0  0  0
   45.2753   35.5718   43.5065 C   0  0  0  0  0  0  0  0  0  0  0  0
   46.1449   34.4658   43.4294 C   0  0  0  0  0  0  0  0  0  0  0  0
   46.2634   33.6654   44.5378 N   0  0  0  0  0  0  0  0  0  0  0  0
   45.5766   33.9164   45.6708 C   0  0  0  0  0  0  0  0  0  0  0  0
   44.7338   34.9754   45.7678 N   0  0  0  0  0  0  0  0  0  0  0  0
   45.8699   32.9271   46.7038 C   0  0  0  0  0  0  0  0  0  0  0  0
   45.1327   32.7849   47.9081 C   0  0  0  0  0  0  0  0  0  0  0  0
   45.5012   31.8294   48.7899 C   0  0  0  0  0  0  0  0  0  0  0  0
   46.6097   31.0087   48.4743 C   0  0  0  0  0  0  0  0  0  0  0  0
   47.1272   31.6435   46.8558 S   0  0  0  0  0  0  0  0  0  0  0  0
   43.9060   36.6353   44.7955 H   0  0  0  0  0  0  0  0  0  0  0  0
   45.1636   36.2150   42.6532 H   0  0  0  0  0  0  0  0  0  0  0  0
   46.7066   34.2414   42.5358 H   0  0  0  0  0  0  0  0  0  0  0  0
   44.2852   33.4511   48.0935 H   0  0  0  0  0  0  0  0  0  0  0  0
   45.0097   31.6552   49.7068 H   0  0  0  0  0  0  0  0  0  0  0  0
   47.4022   28.5980   47.2803 F   0  0  0  0  0  0  0  0  0  0  0  0
   47.6591   28.7348   48.5970 C   0  0  0  0  0  0  0  0  0  0  0  0
   47.2592   29.9279   49.1563 C   0  0  0  0  0  0  0  0  0  0  0  0
   47.5168   30.0790   50.5025 C   0  0  0  0  0  0  0  0  0  0  0  0
   47.2435   30.9889   51.0599 H   0  0  0  0  0  0  0  0  0  0  0  0
   48.1349   29.1094   51.2605 C   0  0  0  0  0  0  0  0  0  0  0  0
   48.3256   29.2522   52.3150 H   0  0  0  0  0  0  0  0  0  0  0  0
   48.5072   27.9403   50.6319 C   0  0  0  0  0  0  0  0  0  0  0  0
   48.2815   27.7204   49.2899 C   0  0  0  0  0  0  0  0  0  0  0  0
   48.9957   27.1488   51.1841 H   0  0  0  0  0  0  0  0  0  0  0  0
   48.5416   26.8359   48.7248 H   0  0  0  0  0  0  0  0  0  0  0  0
  1  6  2  0
  2  1  1  0
  3  2  2  0
  3  4  1  0
  4  5  2  0
  5  6  1  0
  5  7  1  0
  7 11  1  0
  7  8  2  0
  8  9  1  0
 10  9  2  0
 11 10  1  0
  1 12  1  0
  2 13  1  0
  3 14  1  0
  8 15  1  0
  9 16  1  0
 17 18  1  0
 18 19  2  0
 19 20  1  0
 20 21  1  0
 20 22  2  0
 22 23  1  0
 22 24  1  0
 24 25  2  0
 25 18  1  0
 24 26  1  0
 25 27  1  0
 10 19  1  0
M  ISO  7  12  14  13  14  14  14  15  14  16  14  21  15  23  16
M  END
>  <DihAtoms>  (1) 
8,9,18,17

>  <DihDeg>  (1) 
0.008568990587834143

$$$$
