
 OpenBabel03252509163D

 25 27  0  0  0  0  0  0  0  0999 V2000
   46.0730   32.9250   45.9810 C   0  0  0  0  0  0  0  0  0  0  0  0
   45.6950   32.6810   47.3260 C   0  0  0  0  0  0  0  0  0  0  0  0
   46.1720   31.5800   47.9490 C   0  0  0  0  0  0  0  0  0  0  0  0
   47.0320   30.7160   47.2300 C   0  0  0  0  0  0  0  0  0  0  0  0
   47.1460   31.5240   45.6110 S   0  0  0  0  0  0  0  0  0  0  0  0
   45.0270   33.3880   47.8270 H   0  0  0  0  0  0  0  0  0  0  0  0
   45.9430   31.3230   48.9460 H   0  0  0  0  0  0  0  0  0  0  0  0
   44.4530   36.0290   44.7380 C   0  0  0  0  0  0  0  0  0  0  0  0
   45.0260   36.0910   43.4410 C   0  0  0  0  0  0  0  0  0  0  0  0
   45.9290   35.0780   43.0630 C   0  0  0  0  0  0  0  0  0  0  0  0
   46.1990   34.0880   43.9750 N   0  0  0  0  0  0  0  0  0  0  0  0
   45.6290   34.0740   45.1960 C   0  0  0  0  0  0  0  0  0  0  0  0
   44.7570   35.0390   45.5820 N   0  0  0  0  0  0  0  0  0  0  0  0
   43.7590   36.8000   45.0400 H   0  0  0  0  0  0  0  0  0  0  0  0
   44.7970   36.8780   42.7450 H   0  0  0  0  0  0  0  0  0  0  0  0
   46.4010   35.0640   42.0930 H   0  0  0  0  0  0  0  0  0  0  0  0
   46.0960   28.1440   46.6150 F   0  0  0  0  0  0  0  0  0  0  0  0
   47.2680   28.2210   47.2770 C   0  0  0  0  0  0  0  0  0  0  0  0
   47.7030   29.4950   47.5650 C   0  0  0  0  0  0  0  0  0  0  0  0
   48.9020   29.5850   48.2420 C   0  0  0  0  0  0  0  0  0  0  0  0
   49.3500   30.5490   48.5280 H   0  0  0  0  0  0  0  0  0  0  0  0
   49.6340   28.4810   48.6160 C   0  0  0  0  0  0  0  0  0  0  0  0
   50.5720   28.5780   49.1470 H   0  0  0  0  0  0  0  0  0  0  0  0
   49.1370   27.2370   48.2930 C   0  0  0  0  0  3  0  0  0  0  0  0
   47.9470   27.0710   47.6180 C   0  0  0  0  0  3  0  0  0  0  0  0
  1  2  2  0  0  0  0
  2  6  1  0  0  0  0
  2  3  1  0  0  0  0
  3  7  1  0  0  0  0
  4 19  1  0  0  0  0
  4  3  2  0  0  0  0
  5  1  1  0  0  0  0
  5  4  1  0  0  0  0
  8 14  1  0  0  0  0
  8 13  1  0  0  0  0
  9  8  2  0  0  0  0
 10  9  1  0  0  0  0
 10 11  2  0  0  0  0
 11 12  1  0  0  0  0
 12 13  2  0  0  0  0
 12  1  1  0  0  0  0
 15  9  1  0  0  0  0
 16 10  1  0  0  0  0
 17 18  1  0  0  0  0
 18 19  2  0  0  0  0
 18 25  1  0  0  0  0
 19 20  1  0  0  0  0
 20 21  1  0  0  0  0
 20 22  2  0  0  0  0
 22 23  1  0  0  0  0
 24 22  1  0  0  0  0
 25 24  2  0  0  0  0
M  END
>  <minimizedAffinity>
-4.73040915

>  <minimizedRMSD>
1.42675292

$$$$
