
 OpenBabel03242522033D

 35 37  0  0  1  0  0  0  0  0999 V2000
   46.3990   34.1240   42.8320 N   0  0  0  0  0  0  0  0  0  0  0  0
   45.5980   34.3120   41.6480 C   0  0  0  0  0  0  0  0  0  0  0  0
   46.2010   33.6240   40.4520 C   0  0  0  0  0  0  0  0  0  0  0  0
   47.5610   33.9230   40.2360 N   0  0  0  0  0  0  0  0  0  0  0  0
   48.3790   34.0970   41.3770 C   0  0  2  0  0  0  0  0  0  0  0  0
   47.7870   33.7940   42.7010 C   0  0  0  0  0  0  0  0  0  0  0  0
   44.5440   34.0050   41.7620 H   0  0  0  0  0  0  0  0  0  0  0  0
   45.6200   35.4080   41.4390 H   0  0  0  0  0  0  0  0  0  0  0  0
   45.6120   33.9900   39.5610 H   0  0  0  0  0  0  0  0  0  0  0  0
   45.9510   32.5340   40.4860 H   0  0  0  0  0  0  0  0  0  0  0  0
   47.9440   33.2350   39.5480 H   0  0  0  0  0  0  0  0  0  0  0  0
   49.2760   33.4520   41.2520 H   0  0  0  0  0  0  0  0  0  0  0  0
   48.3450   34.3380   43.4930 H   0  0  0  0  0  0  0  0  0  0  0  0
   47.9060   32.7050   42.9620 H   0  0  0  0  0  0  0  0  0  0  0  0
   44.4010   35.2910   45.7860 C   0  0  0  0  0  0  0  0  0  0  0  0
   44.8940   35.2490   44.4740 C   0  0  0  0  0  0  0  0  0  0  0  0
   45.8340   34.2630   44.1240 C   0  0  0  0  0  0  0  0  0  0  0  0
   46.1970   33.4080   45.1120 N   0  0  0  0  0  0  0  0  0  0  0  0
   45.7010   33.4770   46.3680 C   0  0  0  0  0  0  0  0  0  0  0  0
   44.8050   34.4160   46.7050 N   0  0  0  0  0  0  0  0  0  0  0  0
   43.6770   36.0680   46.0200 H   0  0  0  0  0  0  0  0  0  0  0  0
   44.6030   35.9260   43.7020 H   0  0  0  0  0  0  0  0  0  0  0  0
   43.9520   32.1570   48.1590 F   0  0  0  0  0  0  0  0  0  0  0  0
   45.2740   31.8900   48.2070 C   0  0  0  0  0  0  0  0  0  0  0  0
   46.1600   32.5060   47.3590 C   0  0  0  0  0  0  0  0  0  0  0  0
   47.5330   32.2410   47.3960 C   0  0  0  0  0  0  0  0  0  0  0  0
   48.2250   32.7230   46.7330 H   0  0  0  0  0  0  0  0  0  0  0  0
   48.0460   31.3370   48.3030 C   0  0  0  0  0  0  0  0  0  0  0  0
   49.1040   31.1200   48.3450 H   0  0  0  0  0  0  0  0  0  0  0  0
   47.1270   30.7250   49.1540 C   0  0  0  0  0  0  0  0  0  0  0  0
   45.7740   30.9930   49.1090 C   0  0  0  0  0  0  0  0  0  0  0  0
   48.8680   35.5270   41.4070 C   0  0  0  0  0  0  0  0  0  0  0  0
   50.0890   35.5920   42.0840 F   0  0  0  0  0  0  0  0  0  0  0  0
   47.9700   36.2240   42.1870 F   0  0  0  0  0  0  0  0  0  0  0  0
   49.0340   36.0620   40.1630 F   0  0  0  0  0  0  0  0  0  0  0  0
  1 17  1  0  0  0  0
  2  7  1  0  0  0  0
  2  1  1  0  0  0  0
  3 10  1  0  0  0  0
  3  2  1  0  0  0  0
  4  3  1  0  0  0  0
  4  5  1  0  0  0  0
  5 12  1  6  0  0  0
  5 32  1  0  0  0  0
  5  6  1  0  0  0  0
  6  1  1  0  0  0  0
  6 14  1  0  0  0  0
  6 13  1  0  0  0  0
  8  2  1  0  0  0  0
  9  3  1  0  0  0  0
 11  4  1  0  0  0  0
 15 21  1  0  0  0  0
 15 20  1  0  0  0  0
 16 15  2  0  0  0  0
 17 16  1  0  0  0  0
 17 18  2  0  0  0  0
 18 19  1  0  0  0  0
 19 20  2  0  0  0  0
 19 25  1  0  0  0  0
 22 16  1  0  0  0  0
 23 24  1  0  0  0  0
 24 31  1  0  0  0  0
 25 26  1  0  0  0  0
 25 24  2  0  0  0  0
 26 28  2  0  0  0  0
 27 26  1  0  0  0  0
 28 29  1  0  0  0  0
 28 30  1  0  0  0  0
 31 30  2  0  0  0  0
 32 33  1  0  0  0  0
 32 34  1  0  0  0  0
 35 32  1  0  0  0  0
M  END
>  <minimizedAffinity>
-6.60707474

>  <minimizedRMSD>
1.70256543

$$$$
