
 OpenBabel03252503123D

 34 37  0  0  0  0  0  0  0  0999 V2000
   47.1080   34.7840   41.9880 C   0  0  0  0  0  0  0  0  0  0  0  0
   48.3210   35.1170   42.2030 O   0  0  0  0  0  0  0  0  0  0  0  0
   45.6130   36.2730   43.2330 C   0  0  0  0  0  0  0  0  0  0  0  0
   46.2140   35.0100   43.0710 C   0  0  0  0  0  0  0  0  0  0  0  0
   45.8580   34.0700   44.0270 C   0  0  0  0  0  0  0  0  0  0  0  0
   45.0060   34.3500   45.0240 N   0  0  0  0  0  0  0  0  0  0  0  0
   44.4520   35.5820   45.1380 C   0  0  0  0  0  0  0  0  0  0  0  0
   44.7550   36.5360   44.2450 N   0  0  0  0  0  0  0  0  0  0  0  0
   45.8200   37.0800   42.5440 H   0  0  0  0  0  0  0  0  0  0  0  0
   43.7710   35.7440   45.9660 H   0  0  0  0  0  0  0  0  0  0  0  0
   46.4180   32.7860   43.9410 C   0  0  0  0  0  0  0  0  0  0  0  0
   47.6000   32.2350   44.3800 C   0  0  0  0  0  0  0  0  0  0  0  0
   47.9030   30.9610   44.1660 C   0  0  0  0  0  0  0  0  0  0  0  0
   46.9930   30.2100   43.4890 C   0  0  0  0  0  0  0  0  0  0  0  0
   45.6270   31.4140   43.1440 S   0  0  0  0  0  0  0  0  0  0  0  0
   48.2680   32.9380   44.9220 H   0  0  0  0  0  0  0  0  0  0  0  0
   48.8110   30.4660   44.4830 H   0  0  0  0  0  0  0  0  0  0  0  0
   47.0040   29.1480   43.1880 H   0  0  0  0  0  0  0  0  0  0  0  0
   46.6110   34.1970   40.7110 C   0  0  0  0  0  0  0  0  0  0  0  0
   45.3030   34.0020   40.3590 C   0  0  0  0  0  0  0  0  0  0  0  0
   45.3430   33.4520   39.1280 N   0  0  0  0  0  0  0  0  0  0  0  0
   46.6330   33.3200   38.7500 C   0  0  0  0  0  0  0  0  0  0  0  0
   47.4120   33.7820   39.7320 N   0  0  0  0  0  0  0  0  0  0  0  0
   44.4720   34.2640   40.9970 H   0  0  0  0  0  0  0  0  0  0  0  0
   44.4760   33.1960   38.6130 H   0  0  0  0  0  0  0  0  0  0  0  0
   48.4290   34.6690   36.9620 F   0  0  0  0  0  0  0  0  0  0  0  0
   48.0040   33.4260   36.6470 C   0  0  0  0  0  0  0  0  0  0  0  0
   47.1430   32.7750   37.5000 C   0  0  0  0  0  0  0  0  0  0  0  0
   46.7860   31.5160   37.0660 C   0  0  0  0  0  0  0  0  0  0  0  0
   46.0980   30.9330   37.6990 H   0  0  0  0  0  0  0  0  0  0  0  0
   47.2210   30.9240   35.8990 C   0  0  0  0  0  0  0  0  0  0  0  0
   46.8720   29.9260   35.6610 H   0  0  0  0  0  0  0  0  0  0  0  0
   48.0830   31.6270   35.0860 C   0  0  0  0  0  0  0  0  0  0  0  0
   48.4770   32.8920   35.4670 C   0  0  0  0  0  0  0  0  0  0  0  0
  1  2  2  0  0  0  0
  1  4  1  0  0  0  0
  3  8  1  0  0  0  0
  4  3  2  0  0  0  0
  4  5  1  0  0  0  0
  5  6  2  0  0  0  0
  6  7  1  0  0  0  0
  7 10  1  0  0  0  0
  8  7  2  0  0  0  0
  9  3  1  0  0  0  0
 11  5  1  0  0  0  0
 11 12  2  0  0  0  0
 12 16  1  0  0  0  0
 13 12  1  0  0  0  0
 13 17  1  0  0  0  0
 14 13  2  0  0  0  0
 15 14  1  0  0  0  0
 15 11  1  0  0  0  0
 18 14  1  0  0  0  0
 19  1  1  0  0  0  0
 20 19  2  0  0  0  0
 20 24  1  0  0  0  0
 21 20  1  0  0  0  0
 22 21  1  0  0  0  0
 22 23  2  0  0  0  0
 23 19  1  0  0  0  0
 25 21  1  0  0  0  0
 27 26  1  0  0  0  0
 27 28  1  0  0  0  0
 28 22  1  0  0  0  0
 29 28  2  0  0  0  0
 29 30  1  0  0  0  0
 31 29  1  0  0  0  0
 32 31  1  0  0  0  0
 33 34  1  0  0  0  0
 33 31  2  0  0  0  0
 34 27  2  0  0  0  0
M  END
>  <minimizedAffinity>
-5.24478817

>  <minimizedRMSD>
1.38307536

$$$$
