
 OpenBabel03252508213D

 34 36  0  0  0  0  0  0  0  0999 V2000
   46.2860   34.0350   41.0470 C   0  0  0  0  0  0  0  0  0  0  0  0
   47.0200   34.0460   39.8910 C   0  0  0  0  0  0  0  0  0  0  0  0
   48.2390   34.6720   39.7170 C   0  0  0  0  0  0  0  0  0  0  0  0
   48.7340   35.3440   40.8480 C   0  0  0  0  0  0  0  0  0  0  0  0
   48.0120   35.3530   42.0410 C   0  0  0  0  0  0  0  0  0  0  0  0
   46.8060   34.7150   42.1600 C   0  0  0  0  0  0  0  0  0  0  0  0
   46.6080   33.5160   39.0340 H   0  0  0  0  0  0  0  0  0  0  0  0
   48.7870   34.6600   38.7920 H   0  0  0  0  0  0  0  0  0  0  0  0
   49.6710   35.8630   40.8200 H   0  0  0  0  0  0  0  0  0  0  0  0
   48.4050   35.8730   42.8990 H   0  0  0  0  0  0  0  0  0  0  0  0
   45.0210   36.7600   42.6560 F   0  0  0  0  0  0  0  0  0  0  0  0
   45.2240   35.7980   43.6070 C   0  0  0  0  0  0  0  0  0  0  0  0
   46.0960   34.7560   43.4280 C   0  0  0  0  0  0  0  0  0  0  0  0
   46.2620   33.8060   44.4340 C   0  0  0  0  0  0  0  0  0  0  0  0
   46.9670   32.9880   44.2500 H   0  0  0  0  0  0  0  0  0  0  0  0
   45.5450   33.9210   45.6110 C   0  0  0  0  0  0  0  0  0  0  0  0
   45.6870   33.1690   46.3870 H   0  0  0  0  0  0  0  0  0  0  0  0
   44.6660   34.9880   45.7720 C   0  0  0  0  0  3  0  0  0  0  0  0
   44.5100   35.9170   44.7750 C   0  0  0  0  0  3  0  0  0  0  0  0
   44.9910   33.3670   41.2260 C   0  0  0  0  0  0  0  0  0  0  0  0
   44.4400   33.8390   42.0910 H   0  0  0  0  0  0  0  0  0  0  0  0
   45.0740   32.2760   41.3600 H   0  0  0  0  0  0  0  0  0  0  0  0
   44.0890   33.6010   40.0270 C   0  0  0  0  0  0  0  0  0  0  0  0
   44.4900   34.4670   39.4530 H   0  0  0  0  0  0  0  0  0  0  0  0
   44.0410   32.7440   39.3480 H   0  0  0  0  0  0  0  0  0  0  0  0
   41.2950   35.6380   41.5180 C   0  0  0  0  0  0  0  0  0  0  0  0
   42.5800   35.2960   41.0500 C   0  0  0  0  0  0  0  0  0  0  0  0
   42.7470   34.0070   40.5340 C   0  0  0  0  0  0  0  0  0  0  0  0
   41.6590   33.1570   40.5140 N   0  0  0  0  0  0  0  0  0  0  0  0
   40.4600   33.5370   40.9730 C   0  0  0  0  0  0  0  0  0  0  0  0
   40.2660   34.7680   41.4760 N   0  0  0  0  0  0  0  0  0  0  0  0
   41.0780   36.6030   41.9290 H   0  0  0  0  0  0  0  0  0  0  0  0
   43.3710   36.0200   41.1040 H   0  0  0  0  0  0  0  0  0  0  0  0
   39.6790   32.7910   40.9090 H   0  0  0  0  0  0  0  0  0  0  0  0
  1 20  1  0  0  0  0
  1  6  1  0  0  0  0
  2  1  2  0  0  0  0
  3  2  1  0  0  0  0
  3  4  2  0  0  0  0
  4  5  1  0  0  0  0
  5  6  2  0  0  0  0
  5 10  1  0  0  0  0
  6 13  1  0  0  0  0
  7  2  1  0  0  0  0
  8  3  1  0  0  0  0
  9  4  1  0  0  0  0
 11 12  1  0  0  0  0
 12 19  1  0  0  0  0
 13 12  2  0  0  0  0
 13 14  1  0  0  0  0
 14 16  2  0  0  0  0
 15 14  1  0  0  0  0
 16 18  1  0  0  0  0
 16 17  1  0  0  0  0
 19 18  2  0  0  0  0
 20 22  1  0  0  0  0
 20 21  1  0  0  0  0
 23 28  1  0  0  0  0
 23 20  1  0  0  0  0
 24 23  1  0  0  0  0
 25 23  1  0  0  0  0
 26 32  1  0  0  0  0
 27 33  1  0  0  0  0
 27 26  2  0  0  0  0
 28 27  1  0  0  0  0
 29 28  2  0  0  0  0
 29 30  1  0  0  0  0
 30 31  2  0  0  0  0
 31 26  1  0  0  0  0
 34 30  1  0  0  0  0
M  END
>  <minimizedAffinity>
-6.49035168

>  <minimizedRMSD>
0.953008294

$$$$
