REMARK  Name = 
REMARK  2 active torsions:
REMARK  status: ('A' for Active; 'I' for Inactive)
REMARK    1  A    between atoms: C_2  and  C_14
REMARK    2  A    between atoms: C_3  and  C_25
REMARK                            x       y       z     vdW  Elec       q    Type
REMARK                         _______ _______ _______ _____ _____    ______ ____
ROOT
ATOM      1  C   UNL     1      47.232  31.367  45.079  0.00  0.00    +0.000 A 
ATOM      2  C   UNL     1      46.888  32.714  45.097  0.00  0.00    +0.000 A 
ATOM      3  C   UNL     1      46.287  33.310  46.188  0.00  0.00    +0.000 A 
ATOM      4  C   UNL     1      45.997  32.571  47.334  0.00  0.00    +0.000 A 
ATOM      5  N   UNL     1      45.435  32.805  48.545  0.00  0.00    +0.000 N 
ATOM      6  C   UNL     1      45.428  31.652  49.257  0.00  0.00    +0.000 A 
ATOM      7  N   UNL     1      45.990  30.709  48.470  0.00  0.00    +0.000 NA
ATOM      8  C   UNL     1      46.351  31.233  47.285  0.00  0.00    +0.000 A 
ATOM      9  C   UNL     1      46.948  30.611  46.221  0.00  0.00    +0.000 A 
ATOM     10  H   UNL     1      47.702  30.938  44.204  0.00  0.00    +0.000 HD
ATOM     11  H   UNL     1      45.102  33.759  48.774  0.00  0.00    +0.000 HD
ATOM     12  H   UNL     1      45.021  31.626  50.251  0.00  0.00    +0.000 HD
ATOM     13  H   UNL     1      47.206  29.561  46.232  0.00  0.00    +0.000 HD
ENDROOT
BRANCH   2  18
ATOM     14  C   UNL     1      46.508  35.208  42.423  0.00  0.00    +0.000 A 
ATOM     15  C   UNL     1      47.718  35.045  41.705  0.00  0.00    +0.000 A 
ATOM     16  C   UNL     1      48.641  34.089  42.146  0.00  0.00    +0.000 A 
ATOM     17  N   UNL     1      48.310  33.368  43.254  0.00  0.00    +0.000 NA
ATOM     18  C   UNL     1      47.167  33.526  43.928  0.00  0.00    +0.000 A 
ATOM     19  N   UNL     1      46.267  34.445  43.513  0.00  0.00    +0.000 NA
ATOM     20  H   UNL     1      45.831  35.958  42.042  0.00  0.00    +0.000 HD
ATOM     21  H   UNL     1      47.965  35.626  40.825  0.00  0.00    +0.000 HD
ATOM     22  H   UNL     1      49.581  33.905  41.658  0.00  0.00    +0.000 HD
ENDBRANCH   2  18
BRANCH   3  25
ATOM     23  F   UNL     1      47.596  35.019  44.514  0.00  0.00    +0.000 F 
ATOM     24  C   UNL     1      46.633  35.493  45.358  0.00  0.00    +0.000 A 
ATOM     25  C   UNL     1      45.907  34.715  46.248  0.00  0.00    +0.000 A 
ATOM     26  C   UNL     1      44.960  35.295  47.053  0.00  0.00    +0.000 A 
ATOM     27  H   UNL     1      44.443  34.627  47.715  0.00  0.00    +0.000 HD
ATOM     28  C   UNL     1      44.764  36.659  46.943  0.00  0.00    +0.000 A 
ATOM     29  H   UNL     1      44.014  37.083  47.591  0.00  0.00    +0.000 HD
ATOM     30  C   UNL     1      45.475  37.438  46.068  0.00  0.00    +0.000 A 
ATOM     31  C   UNL     1      46.431  36.858  45.254  0.00  0.00    +0.000 A 
ENDBRANCH   3  25
TORSDOF 2
