
     RDKit          3D

 29 31  0  0  0  0  0  0  0  0999 V2000
   45.6346   33.9498   45.4455 C   0  0  0  0  0  0  0  0  0  0  0  0
   44.7219   34.9738   45.7001 C   0  0  0  0  0  0  0  0  0  0  0  0
   44.5202   35.9393   44.6864 C   0  0  0  0  0  0  0  0  0  0  0  0
   45.2233   35.8301   43.5063 N   0  0  0  0  0  0  0  0  0  0  0  0
   46.0895   34.8113   43.3325 C   0  0  0  0  0  0  0  0  0  0  0  0
   46.2897   33.8979   44.2736 N   0  0  0  0  0  0  0  0  0  0  0  0
   46.8192   34.7207   42.0753 C   0  0  0  0  0  0  0  0  0  0  0  0
   48.0162   35.4066   41.9090 C   0  0  0  0  0  0  0  0  0  0  0  0
   48.7772   35.3858   40.7593 C   0  0  0  0  0  0  0  0  0  0  0  0
   48.2541   34.6060   39.7349 C   0  0  0  0  0  0  0  0  0  0  0  0
   47.0634   33.9118   39.8732 C   0  0  0  0  0  0  0  0  0  0  0  0
   46.3697   33.9879   41.0519 N   0  0  0  0  0  0  0  0  0  0  0  0
   44.1761   35.0687   46.6014 H   0  0  0  0  0  0  0  0  0  0  0  0
   43.8489   36.7618   44.7734 H   0  0  0  0  0  0  0  0  0  0  0  0
   48.3528   35.9906   42.7561 H   0  0  0  0  0  0  0  0  0  0  0  0
   49.6981   35.9280   40.6645 H   0  0  0  0  0  0  0  0  0  0  0  0
   48.7755   34.5230   38.7896 H   0  0  0  0  0  0  0  0  0  0  0  0
   46.7086   33.3223   39.0400 H   0  0  0  0  0  0  0  0  0  0  0  0
   48.1587   33.5460   46.5150 F   0  0  0  0  0  0  0  0  0  0  0  0
   47.1557   32.7509   46.9608 C   0  0  0  0  0  0  0  0  0  0  0  0
   45.8865   32.9255   46.4491 C   0  0  0  0  0  0  0  0  0  0  0  0
   44.9437   32.0706   46.9662 C   0  0  0  0  0  0  0  0  0  0  0  0
   43.9292   32.1470   46.6147 H   0  0  0  0  0  0  0  0  0  0  0  0
   45.2295   31.1135   47.9179 C   0  0  0  0  0  0  0  0  0  0  0  0
   44.4238   30.4723   48.2784 H   0  0  0  0  0  0  0  0  0  0  0  0
   46.5203   30.9830   48.3956 C   0  0  0  0  0  0  0  0  0  0  0  0
   47.5070   31.8146   47.9118 C   0  0  0  0  0  0  0  0  0  0  0  0
   46.6740   30.2117   49.1412 H   0  0  0  0  0  0  0  0  0  0  0  0
   48.5118   31.7092   48.2871 H   0  0  0  0  0  0  0  0  0  0  0  0
  1  2  2  0
  3  2  1  0
  4  3  2  0
  5  4  1  0
  5  6  2  0
  6  1  1  0
  7  5  1  0
  8  7  2  0
  9  8  1  0
 10 11  1  0
 10  9  2  0
 11 12  2  0
 12  7  1  0
  2 13  1  0
  3 14  1  0
  8 15  1  0
  9 16  1  0
 10 17  1  0
 11 18  1  0
 19 20  1  0
 20 21  2  0
 21 22  1  0
 22 23  1  0
 22 24  2  0
 24 25  1  0
 24 26  1  0
 26 27  2  0
 27 20  1  0
 26 28  1  0
 27 29  1  0
  1 21  1  0
M  ISO  8  13  14  14  14  15  14  16  14  17  14  18  14  23  15  25  16
M  END
>  <DihAtoms>  (1) 
1,0,20,19

>  <DihDeg>  (1) 
179.98820811253518

$$$$
