
 OpenBabel03252509113D

 31 34  0  0  0  0  0  0  0  0999 V2000
   46.0640   31.4680   44.5680 C   0  0  0  0  0  0  0  0  0  0  0  0
   46.4600   32.5420   43.7770 C   0  0  0  0  0  0  0  0  0  0  0  0
   47.6800   32.5750   43.1310 C   0  0  0  0  0  0  0  0  0  0  0  0
   48.5780   31.5160   43.2480 C   0  0  0  0  0  0  0  0  0  0  0  0
   49.8130   31.2110   42.7810 N   0  0  0  0  0  0  0  0  0  0  0  0
   50.1770   29.9960   43.2590 C   0  0  0  0  0  0  0  0  0  0  0  0
   49.1530   29.5600   44.0240 N   0  0  0  0  0  0  0  0  0  0  0  0
   48.1560   30.4620   44.0420 C   0  0  0  0  0  0  0  0  0  0  0  0
   46.9540   30.3960   44.6960 C   0  0  0  0  0  0  0  0  0  0  0  0
   45.1000   31.4800   45.0570 H   0  0  0  0  0  0  0  0  0  0  0  0
   50.3020   31.8830   42.1620 H   0  0  0  0  0  0  0  0  0  0  0  0
   51.1300   29.5710   43.0030 H   0  0  0  0  0  0  0  0  0  0  0  0
   46.6700   29.5490   45.3050 H   0  0  0  0  0  0  0  0  0  0  0  0
   44.7000   35.7000   44.4400 C   0  0  0  0  0  0  0  0  0  0  0  0
   43.8440   35.7930   43.3150 C   0  0  0  0  0  0  0  0  0  0  0  0
   43.8840   34.7780   42.3510 C   0  0  0  0  0  0  0  0  0  0  0  0
   44.7560   33.7530   42.5620 N   0  0  0  0  0  0  0  0  0  0  0  0
   45.5620   33.6700   43.6250 C   0  0  0  0  0  0  0  0  0  0  0  0
   45.5330   34.6430   44.5630 N   0  0  0  0  0  0  0  0  0  0  0  0
   44.6310   36.5080   45.1530 H   0  0  0  0  0  0  0  0  0  0  0  0
   43.1550   36.6150   43.1640 H   0  0  0  0  0  0  0  0  0  0  0  0
   43.2680   34.7750   41.4700 H   0  0  0  0  0  0  0  0  0  0  0  0
   47.0870   32.4460   40.4720 F   0  0  0  0  0  0  0  0  0  0  0  0
   47.7810   33.5130   40.9660 C   0  0  0  0  0  0  0  0  0  0  0  0
   48.1350   33.6800   42.2970 C   0  0  0  0  0  0  0  0  0  0  0  0
   48.8350   34.7930   42.6870 C   0  0  0  0  0  0  0  0  0  0  0  0
   49.0720   34.8480   43.7320 H   0  0  0  0  0  0  0  0  0  0  0  0
   49.1670   35.7210   41.7180 C   0  0  0  0  0  0  0  0  0  0  0  0
   49.7190   36.5830   42.0580 H   0  0  0  0  0  0  0  0  0  0  0  0
   48.8230   35.5670   40.4010 C   0  0  0  0  0  3  0  0  0  0  0  0
   48.1170   34.4470   40.0020 C   0  0  0  0  0  3  0  0  0  0  0  0
  1  9  1  0  0  0  0
  1 10  1  0  0  0  0
  2  1  2  0  0  0  0
  3  4  2  0  0  0  0
  3  2  1  0  0  0  0
  4  8  1  0  0  0  0
  5  4  1  0  0  0  0
  5  6  1  0  0  0  0
  6  7  2  0  0  0  0
  7  8  1  0  0  0  0
  8  9  2  0  0  0  0
  9 13  1  0  0  0  0
 11  5  1  0  0  0  0
 12  6  1  0  0  0  0
 14 19  1  0  0  0  0
 14 20  1  0  0  0  0
 15 14  2  0  0  0  0
 16 17  2  0  0  0  0
 16 15  1  0  0  0  0
 17 18  1  0  0  0  0
 18  2  1  0  0  0  0
 18 19  2  0  0  0  0
 21 15  1  0  0  0  0
 22 16  1  0  0  0  0
 23 24  1  0  0  0  0
 24 25  1  0  0  0  0
 25 26  2  0  0  0  0
 25  3  1  0  0  0  0
 26 27  1  0  0  0  0
 28 29  1  0  0  0  0
 28 26  1  0  0  0  0
 30 28  2  0  0  0  0
 31 30  1  0  0  0  0
 31 24  2  0  0  0  0
M  END
>  <minimizedAffinity>
-5.13717985

>  <minimizedRMSD>
4.79002047

$$$$
