REMARK  Name = 
REMARK  2 active torsions:
REMARK  status: ('A' for Active; 'I' for Inactive)
REMARK    1  A    between atoms: C_2  and  C_19
REMARK    2  A    between atoms: C_3  and  C_7
REMARK                            x       y       z     vdW  Elec       q    Type
REMARK                         _______ _______ _______ _____ _____    ______ ____
ROOT
ATOM      1  C   UNL     1      44.567  35.920  44.317  0.00  0.00    +0.000 A 
ATOM      2  C   UNL     1      45.355  35.905  43.114  0.00  0.00    +0.000 A 
ATOM      3  C   UNL     1      46.313  34.909  43.047  0.00  0.00    +0.000 A 
ATOM      4  N   UNL     1      46.499  33.997  44.064  0.00  0.00    +0.000 NA
ATOM      5  C   UNL     1      45.723  34.062  45.176  0.00  0.00    +0.000 A 
ATOM      6  N   UNL     1      44.775  35.013  45.291  0.00  0.00    +0.000 NA
ATOM      7  H   UNL     1      43.844  36.698  44.331  0.00  0.00    +0.000 HD
ATOM      8  H   UNL     1      45.899  33.337  45.939  0.00  0.00    +0.000 HD
ENDROOT
BRANCH   2  11
ATOM      9  F   UNL     1      44.072  35.114  40.779  0.00  0.00    +0.000 F 
ATOM     10  C   UNL     1      44.504  36.401  40.900  0.00  0.00    +0.000 A 
ATOM     11  C   UNL     1      45.156  36.870  42.043  0.00  0.00    +0.000 A 
ATOM     12  C   UNL     1      45.543  38.195  42.040  0.00  0.00    +0.000 A 
ATOM     13  H   UNL     1      46.046  38.533  42.938  0.00  0.00    +0.000 HD
ATOM     14  C   UNL     1      45.298  39.009  40.965  0.00  0.00    +0.000 A 
ATOM     15  H   UNL     1      45.625  40.051  41.012  0.00  0.00    +0.000 HD
ATOM     16  C   UNL     1      44.647  38.528  39.833  0.00  0.00    +0.000 A 
ATOM     17  C   UNL     1      44.254  37.205  39.822  0.00  0.00    +0.000 A 
ENDBRANCH   2  11
BRANCH   3  18
ATOM     18  C   UNL     1      47.078  34.812  41.751  0.00  0.00    +0.000 C 
ATOM     19  C   UNL     1      48.459  35.463  41.874  0.00  0.00    +0.000 C 
ATOM     20  C   UNL     1      48.227  33.934  41.722  0.00  0.00    +0.000 C 
ATOM     21  H   UNL     1      46.576  35.334  40.891  0.00  0.00    +0.000 HD
ATOM     22  H   UNL     1      48.950  35.899  40.993  0.00  0.00    +0.000 HD
ATOM     23  H   UNL     1      48.765  35.817  42.860  0.00  0.00    +0.000 HD
ATOM     24  H   UNL     1      48.443  33.344  42.637  0.00  0.00    +0.000 HD
ATOM     25  H   UNL     1      48.592  33.459  40.778  0.00  0.00    +0.000 HD
ENDBRANCH   3  18
TORSDOF 2
