REMARK  Name = 
REMARK  2 active torsions:
REMARK  status: ('A' for Active; 'I' for Inactive)
REMARK    1  A    between atoms: C_1  and  C_21
REMARK    2  A    between atoms: C_5  and  C_7
REMARK                            x       y       z     vdW  Elec       q    Type
REMARK                         _______ _______ _______ _____ _____    ______ ____
ROOT
ATOM      1  C   UNL     1      45.635  33.950  45.446  0.00  0.00    +0.000 A 
ATOM      2  C   UNL     1      44.722  34.974  45.700  0.00  0.00    +0.000 A 
ATOM      3  C   UNL     1      44.520  35.939  44.686  0.00  0.00    +0.000 A 
ATOM      4  N   UNL     1      45.223  35.830  43.506  0.00  0.00    +0.000 NA
ATOM      5  C   UNL     1      46.090  34.811  43.333  0.00  0.00    +0.000 A 
ATOM      6  N   UNL     1      46.290  33.898  44.274  0.00  0.00    +0.000 NA
ATOM      7  H   UNL     1      44.176  35.069  46.601  0.00  0.00    +0.000 HD
ATOM      8  H   UNL     1      43.849  36.762  44.773  0.00  0.00    +0.000 HD
ENDROOT
BRANCH   5   9
ATOM      9  C   UNL     1      46.819  34.721  42.075  0.00  0.00    +0.000 A 
ATOM     10  C   UNL     1      48.016  35.407  41.909  0.00  0.00    +0.000 A 
ATOM     11  C   UNL     1      48.777  35.386  40.759  0.00  0.00    +0.000 A 
ATOM     12  C   UNL     1      48.254  34.606  39.735  0.00  0.00    +0.000 A 
ATOM     13  C   UNL     1      47.063  33.912  39.873  0.00  0.00    +0.000 A 
ATOM     14  N   UNL     1      46.370  33.988  41.052  0.00  0.00    +0.000 NA
ATOM     15  H   UNL     1      48.353  35.991  42.756  0.00  0.00    +0.000 HD
ATOM     16  H   UNL     1      49.698  35.928  40.664  0.00  0.00    +0.000 HD
ATOM     17  H   UNL     1      48.776  34.523  38.790  0.00  0.00    +0.000 HD
ATOM     18  H   UNL     1      46.709  33.322  39.040  0.00  0.00    +0.000 HD
ENDBRANCH   5   9
BRANCH   1  21
ATOM     19  F   UNL     1      43.815  31.921  45.947  0.00  0.00    +0.000 F 
ATOM     20  C   UNL     1      44.959  31.929  46.673  0.00  0.00    +0.000 A 
ATOM     21  C   UNL     1      45.886  32.925  46.449  0.00  0.00    +0.000 A 
ATOM     22  C   UNL     1      47.009  32.843  47.237  0.00  0.00    +0.000 A 
ATOM     23  H   UNL     1      47.778  33.587  47.118  0.00  0.00    +0.000 HD
ATOM     24  C   UNL     1      47.205  31.853  48.176  0.00  0.00    +0.000 A 
ATOM     25  H   UNL     1      48.125  31.857  48.763  0.00  0.00    +0.000 HD
ATOM     26  C   UNL     1      46.241  30.878  48.359  0.00  0.00    +0.000 A 
ATOM     27  C   UNL     1      45.093  30.912  47.596  0.00  0.00    +0.000 A 
ENDBRANCH   1  21
TORSDOF 2
