
     RDKit          3D

 29 31  0  0  0  0  0  0  0  0999 V2000
   45.6346   33.9498   45.4455 C   0  0  0  0  0  0  0  0  0  0  0  0
   44.7219   34.9738   45.7001 C   0  0  0  0  0  0  0  0  0  0  0  0
   44.5202   35.9393   44.6864 C   0  0  0  0  0  0  0  0  0  0  0  0
   45.2233   35.8301   43.5063 N   0  0  0  0  0  0  0  0  0  0  0  0
   46.0895   34.8113   43.3325 C   0  0  0  0  0  0  0  0  0  0  0  0
   46.2897   33.8979   44.2736 N   0  0  0  0  0  0  0  0  0  0  0  0
   46.8192   34.7207   42.0753 C   0  0  0  0  0  0  0  0  0  0  0  0
   48.0162   35.4066   41.9090 C   0  0  0  0  0  0  0  0  0  0  0  0
   48.7772   35.3858   40.7593 C   0  0  0  0  0  0  0  0  0  0  0  0
   48.2541   34.6060   39.7349 C   0  0  0  0  0  0  0  0  0  0  0  0
   47.0634   33.9118   39.8732 C   0  0  0  0  0  0  0  0  0  0  0  0
   46.3697   33.9879   41.0519 N   0  0  0  0  0  0  0  0  0  0  0  0
   44.1761   35.0687   46.6014 H   0  0  0  0  0  0  0  0  0  0  0  0
   43.8489   36.7618   44.7734 H   0  0  0  0  0  0  0  0  0  0  0  0
   48.3528   35.9906   42.7561 H   0  0  0  0  0  0  0  0  0  0  0  0
   49.6981   35.9280   40.6645 H   0  0  0  0  0  0  0  0  0  0  0  0
   48.7755   34.5230   38.7896 H   0  0  0  0  0  0  0  0  0  0  0  0
   46.7086   33.3223   39.0400 H   0  0  0  0  0  0  0  0  0  0  0  0
   43.8151   31.9210   45.9467 F   0  0  0  0  0  0  0  0  0  0  0  0
   44.9590   31.9292   46.6735 C   0  0  0  0  0  0  0  0  0  0  0  0
   45.8865   32.9255   46.4491 C   0  0  0  0  0  0  0  0  0  0  0  0
   47.0091   32.8434   47.2366 C   0  0  0  0  0  0  0  0  0  0  0  0
   47.7783   33.5871   47.1183 H   0  0  0  0  0  0  0  0  0  0  0  0
   47.2046   31.8526   48.1765 C   0  0  0  0  0  0  0  0  0  0  0  0
   48.1246   31.8571   48.7629 H   0  0  0  0  0  0  0  0  0  0  0  0
   46.2406   30.8785   48.3591 C   0  0  0  0  0  0  0  0  0  0  0  0
   45.0934   30.9118   47.5962 C   0  0  0  0  0  0  0  0  0  0  0  0
   46.4588   30.1314   49.1133 H   0  0  0  0  0  0  0  0  0  0  0  0
   44.3448   30.1504   47.7420 H   0  0  0  0  0  0  0  0  0  0  0  0
  1  2  2  0
  3  2  1  0
  4  3  2  0
  5  4  1  0
  5  6  2  0
  6  1  1  0
  7  5  1  0
  8  7  2  0
  9  8  1  0
 10 11  1  0
 10  9  2  0
 11 12  2  0
 12  7  1  0
  2 13  1  0
  3 14  1  0
  8 15  1  0
  9 16  1  0
 10 17  1  0
 11 18  1  0
 19 20  1  0
 20 21  2  0
 21 22  1  0
 22 23  1  0
 22 24  2  0
 24 25  1  0
 24 26  1  0
 26 27  2  0
 27 20  1  0
 26 28  1  0
 27 29  1  0
  1 21  1  0
M  ISO  8  13  14  14  14  15  14  16  14  17  14  18  14  23  15  25  16
M  END
>  <DihAtoms>  (1) 
1,0,20,19

>  <DihDeg>  (1) 
179.98820811253518

$$$$
