
 OpenBabel03252508273D

 41 45  0  0  1  0  0  0  0  0999 V2000
   38.5210   29.3840   42.4820 C   0  0  1  0  0  0  0  0  0  0  0  0
   37.6090   29.0870   43.5950 C   0  0  0  0  0  0  0  0  0  0  0  0
   37.8990   28.0750   42.4170 C   0  0  2  0  0  0  0  0  0  0  0  0
   39.5280   29.6220   42.9800 H   0  0  0  0  0  0  0  0  0  0  0  0
   37.9160   28.6350   44.5480 H   0  0  0  0  0  0  0  0  0  0  0  0
   36.6100   29.5500   43.6350 H   0  0  0  0  0  0  0  0  0  0  0  0
   36.8530   27.8930   42.0340 H   0  0  0  0  0  0  0  0  0  0  0  0
   38.5720   26.8060   42.7090 C   0  0  0  0  0  0  0  0  0  0  0  0
   39.6180   26.6010   43.5570 C   0  0  0  0  0  0  0  0  0  0  0  0
   40.3120   25.4090   43.7140 C   0  0  0  0  0  0  0  0  0  0  0  0
   39.8890   24.3300   42.9240 C   0  0  0  0  0  0  0  0  0  0  0  0
   38.8170   24.5130   42.0480 C   0  0  0  0  0  0  0  0  0  0  0  0
   38.3990   23.4030   41.3390 C   0  0  0  0  0  0  0  0  0  0  0  0
   37.2880   23.5200   40.5080 C   0  0  0  0  0  0  0  0  0  0  0  0
   36.6140   24.7190   40.3940 C   0  0  0  0  0  0  0  0  0  0  0  0
   37.0800   25.7870   41.1230 C   0  0  0  0  0  0  0  0  0  0  0  0
   38.1830   25.7260   41.9560 C   0  0  0  0  0  0  0  0  0  0  0  0
   39.9110   27.4650   44.1490 H   0  0  0  0  0  0  0  0  0  0  0  0
   41.1350   25.3150   44.4100 H   0  0  0  0  0  0  0  0  0  0  0  0
   40.4040   23.3810   43.0130 H   0  0  0  0  0  0  0  0  0  0  0  0
   38.9460   22.4660   41.4480 H   0  0  0  0  0  0  0  0  0  0  0  0
   37.0470   22.5770   39.9910 H   0  0  0  0  0  0  0  0  0  0  0  0
   35.7950   24.6050   39.7160 H   0  0  0  0  0  0  0  0  0  0  0  0
   36.3700   26.5420   40.9390 H   0  0  0  0  0  0  0  0  0  0  0  0
   36.5600   31.5660   40.2400 C   0  0  0  0  0  0  0  0  0  0  0  0
   37.5890   32.2500   39.5060 C   0  0  0  0  0  0  0  0  0  0  0  0
   38.9340   31.9410   39.8230 C   0  0  0  0  0  0  0  0  0  0  0  0
   39.2080   31.0320   40.7840 N   0  0  0  0  0  0  0  0  0  0  0  0
   38.1740   30.4080   41.4530 C   0  0  0  0  0  0  0  0  0  0  0  0
   36.8970   30.6670   41.1890 N   0  0  0  0  0  0  0  0  0  0  0  0
   35.5490   31.8310   39.9670 H   0  0  0  0  0  0  0  0  0  0  0  0
   37.3140   32.9530   38.7640 H   0  0  0  0  0  0  0  0  0  0  0  0
   39.9100   34.3360   40.7080 F   0  0  0  0  0  0  0  0  0  0  0  0
   40.4930   33.8090   39.5790 C   0  0  0  0  0  0  0  0  0  0  0  0
   40.0180   32.6020   39.1120 C   0  0  0  0  0  0  0  0  0  0  0  0
   40.6320   32.1350   37.9970 C   0  0  0  0  0  0  0  0  0  0  0  0
   40.3140   31.1940   37.5740 H   0  0  0  0  0  0  0  0  0  0  0  0
   41.6670   32.8090   37.3550 C   0  0  0  0  0  0  0  0  0  0  0  0
   42.1090   32.3610   36.4600 H   0  0  0  0  0  0  0  0  0  0  0  0
   42.0980   34.0130   37.8720 C   0  0  0  0  0  3  0  0  0  0  0  0
   41.5120   34.5320   38.9970 C   0  0  0  0  0  3  0  0  0  0  0  0
  1  4  1  1  0  0  0
  1  2  1  0  0  0  0
  2  6  1  0  0  0  0
  2  5  1  0  0  0  0
  3  7  1  6  0  0  0
  3  1  1  0  0  0  0
  3  8  1  0  0  0  0
  3  2  1  0  0  0  0
  8  9  1  0  0  0  0
  9 10  2  0  0  0  0
  9 18  1  0  0  0  0
 10 19  1  0  0  0  0
 11 20  1  0  0  0  0
 11 10  1  0  0  0  0
 12 11  2  0  0  0  0
 13 21  1  0  0  0  0
 13 12  1  0  0  0  0
 14 13  2  0  0  0  0
 15 14  1  0  0  0  0
 15 16  2  0  0  0  0
 16 17  1  0  0  0  0
 17 12  1  0  0  0  0
 17  8  2  0  0  0  0
 22 14  1  0  0  0  0
 23 15  1  0  0  0  0
 24 16  1  0  0  0  0
 25 30  1  0  0  0  0
 26 27  1  0  0  0  0
 26 25  2  0  0  0  0
 27 28  2  0  0  0  0
 28 29  1  0  0  0  0
 29  1  1  0  0  0  0
 30 29  2  0  0  0  0
 31 25  1  0  0  0  0
 32 26  1  0  0  0  0
 34 33  1  0  0  0  0
 35 34  1  0  0  0  0
 35 27  1  0  0  0  0
 36 35  2  0  0  0  0
 37 36  1  0  0  0  0
 38 40  2  0  0  0  0
 38 36  1  0  0  0  0
 39 38  1  0  0  0  0
 40 41  1  0  0  0  0
 41 34  2  0  0  0  0
M  END
>  <minimizedAffinity>
-7.15185976

$$$$

 OpenBabel03252508273D

 41 45  0  0  1  0  0  0  0  0999 V2000
   38.4790   29.3220   42.1490 C   0  0  1  0  0  0  0  0  0  0  0  0
   37.7240   29.1830   43.4020 C   0  0  0  0  0  0  0  0  0  0  0  0
   37.8110   28.0440   42.3090 C   0  0  2  0  0  0  0  0  0  0  0  0
   39.5540   29.5610   42.4760 H   0  0  0  0  0  0  0  0  0  0  0  0
   38.1470   28.8140   44.3470 H   0  0  0  0  0  0  0  0  0  0  0  0
   36.7560   29.6940   43.5280 H   0  0  0  0  0  0  0  0  0  0  0  0
   36.7170   27.8740   42.0950 H   0  0  0  0  0  0  0  0  0  0  0  0
   38.4770   26.7800   42.6400 C   0  0  0  0  0  0  0  0  0  0  0  0
   39.4990   26.5900   43.5200 C   0  0  0  0  0  0  0  0  0  0  0  0
   40.1890   25.4010   43.7160 C   0  0  0  0  0  0  0  0  0  0  0  0
   39.7890   24.3090   42.9310 C   0  0  0  0  0  0  0  0  0  0  0  0
   38.7420   24.4780   42.0230 C   0  0  0  0  0  0  0  0  0  0  0  0
   38.3440   23.3560   41.3190 C   0  0  0  0  0  0  0  0  0  0  0  0
   37.2580   23.4590   40.4560 C   0  0  0  0  0  0  0  0  0  0  0  0
   36.5860   24.6550   40.3040 C   0  0  0  0  0  0  0  0  0  0  0  0
   37.0310   25.7350   41.0290 C   0  0  0  0  0  0  0  0  0  0  0  0
   38.1100   25.6880   41.8940 C   0  0  0  0  0  0  0  0  0  0  0  0
   39.7750   27.4640   44.1060 H   0  0  0  0  0  0  0  0  0  0  0  0
   40.9920   25.3200   44.4350 H   0  0  0  0  0  0  0  0  0  0  0  0
   40.3020   23.3630   43.0490 H   0  0  0  0  0  0  0  0  0  0  0  0
   38.8890   22.4220   41.4590 H   0  0  0  0  0  0  0  0  0  0  0  0
   37.0310   22.5080   39.9480 H   0  0  0  0  0  0  0  0  0  0  0  0
   35.7860   24.5300   39.6050 H   0  0  0  0  0  0  0  0  0  0  0  0
   36.3260   26.4870   40.8130 H   0  0  0  0  0  0  0  0  0  0  0  0
   37.7460   32.4250   40.2880 C   0  0  0  0  0  0  0  0  0  0  0  0
   37.1120   31.9240   39.0990 C   0  0  0  0  0  0  0  0  0  0  0  0
   36.9720   30.5210   38.9760 C   0  0  0  0  0  0  0  0  0  0  0  0
   37.4260   29.7090   39.9550 N   0  0  0  0  0  0  0  0  0  0  0  0
   38.0250   30.2520   41.0740 C   0  0  0  0  0  0  0  0  0  0  0  0
   38.1790   31.5630   41.2330 N   0  0  0  0  0  0  0  0  0  0  0  0
   37.8320   33.5010   40.3430 H   0  0  0  0  0  0  0  0  0  0  0  0
   36.7770   32.6080   38.3650 H   0  0  0  0  0  0  0  0  0  0  0  0
   34.5400   29.2860   39.1670 F   0  0  0  0  0  0  0  0  0  0  0  0
   35.1110   29.3380   37.9180 C   0  0  0  0  0  0  0  0  0  0  0  0
   36.3380   29.9550   37.7940 C   0  0  0  0  0  0  0  0  0  0  0  0
   36.8490   29.9740   36.5390 C   0  0  0  0  0  0  0  0  0  0  0  0
   37.8060   30.4410   36.3650 H   0  0  0  0  0  0  0  0  0  0  0  0
   36.2000   29.4170   35.4410 C   0  0  0  0  0  0  0  0  0  0  0  0
   36.6830   29.4760   34.4610 H   0  0  0  0  0  0  0  0  0  0  0  0
   34.9740   28.8130   35.6290 C   0  0  0  0  0  3  0  0  0  0  0  0
   34.4110   28.7650   36.8780 C   0  0  0  0  0  3  0  0  0  0  0  0
  1  3  1  0  0  0  0
  1  4  1  1  0  0  0
  1  2  1  0  0  0  0
  2  6  1  0  0  0  0
  2  5  1  0  0  0  0
  3  7  1  6  0  0  0
  3  8  1  0  0  0  0
  3  2  1  0  0  0  0
  8  9  1  0  0  0  0
  9 10  2  0  0  0  0
  9 18  1  0  0  0  0
 10 19  1  0  0  0  0
 11 20  1  0  0  0  0
 11 10  1  0  0  0  0
 12 11  2  0  0  0  0
 13 21  1  0  0  0  0
 13 12  1  0  0  0  0
 14 13  2  0  0  0  0
 15 14  1  0  0  0  0
 15 16  2  0  0  0  0
 16 17  1  0  0  0  0
 17 12  1  0  0  0  0
 17  8  2  0  0  0  0
 22 14  1  0  0  0  0
 23 15  1  0  0  0  0
 24 16  1  0  0  0  0
 25 31  1  0  0  0  0
 25 30  1  0  0  0  0
 26 25  2  0  0  0  0
 27 26  1  0  0  0  0
 27 28  2  0  0  0  0
 28 29  1  0  0  0  0
 29 30  2  0  0  0  0
 29  1  1  0  0  0  0
 32 26  1  0  0  0  0
 34 33  1  0  0  0  0
 35 34  1  0  0  0  0
 35 27  1  0  0  0  0
 36 35  2  0  0  0  0
 37 36  1  0  0  0  0
 38 40  2  0  0  0  0
 38 36  1  0  0  0  0
 39 38  1  0  0  0  0
 40 41  1  0  0  0  0
 41 34  2  0  0  0  0
M  END
>  <minimizedAffinity>
-7.05751228

$$$$

 OpenBabel03252508273D

 41 45  0  0  1  0  0  0  0  0999 V2000
   36.0450   28.7790   39.3790 C   0  0  1  0  0  0  0  0  0  0  0  0
   35.6640   29.8990   40.2500 C   0  0  0  0  0  0  0  0  0  0  0  0
   35.8760   28.4240   40.7760 C   0  0  2  0  0  0  0  0  0  0  0  0
   37.0290   29.1080   38.8870 H   0  0  0  0  0  0  0  0  0  0  0  0
   36.3760   30.5700   40.7500 H   0  0  0  0  0  0  0  0  0  0  0  0
   34.6350   30.2920   40.2340 H   0  0  0  0  0  0  0  0  0  0  0  0
   34.8750   28.2280   41.2590 H   0  0  0  0  0  0  0  0  0  0  0  0
   36.9680   28.1450   41.7130 C   0  0  0  0  0  0  0  0  0  0  0  0
   37.6830   29.0460   42.4410 C   0  0  0  0  0  0  0  0  0  0  0  0
   38.7920   28.7580   43.2240 C   0  0  0  0  0  0  0  0  0  0  0  0
   39.2030   27.4170   43.2580 C   0  0  0  0  0  0  0  0  0  0  0  0
   38.4840   26.4720   42.5220 C   0  0  0  0  0  0  0  0  0  0  0  0
   38.8900   25.1550   42.6380 C   0  0  0  0  0  0  0  0  0  0  0  0
   38.1600   24.1710   41.9810 C   0  0  0  0  0  0  0  0  0  0  0  0
   37.0500   24.4970   41.2270 C   0  0  0  0  0  0  0  0  0  0  0  0
   36.6990   25.8240   41.1470 C   0  0  0  0  0  0  0  0  0  0  0  0
   37.3950   26.8420   41.7750 C   0  0  0  0  0  0  0  0  0  0  0  0
   37.3290   30.0730   42.3850 H   0  0  0  0  0  0  0  0  0  0  0  0
   39.3140   29.5250   43.7800 H   0  0  0  0  0  0  0  0  0  0  0  0
   40.0660   27.1470   43.8540 H   0  0  0  0  0  0  0  0  0  0  0  0
   39.7680   24.9220   43.2420 H   0  0  0  0  0  0  0  0  0  0  0  0
   38.5730   23.1610   42.1410 H   0  0  0  0  0  0  0  0  0  0  0  0
   36.6290   23.6080   40.8080 H   0  0  0  0  0  0  0  0  0  0  0  0
   35.7980   25.8100   40.6030 H   0  0  0  0  0  0  0  0  0  0  0  0
   34.3130   26.4290   37.1180 C   0  0  0  0  0  0  0  0  0  0  0  0
   33.3720   27.2870   36.4520 C   0  0  0  0  0  0  0  0  0  0  0  0
   33.3600   28.6540   36.8190 C   0  0  0  0  0  0  0  0  0  0  0  0
   34.2130   29.1060   37.7640 N   0  0  0  0  0  0  0  0  0  0  0  0
   35.0950   28.2310   38.3670 C   0  0  0  0  0  0  0  0  0  0  0  0
   35.1410   26.9400   38.0540 N   0  0  0  0  0  0  0  0  0  0  0  0
   34.2890   25.3940   36.8080 H   0  0  0  0  0  0  0  0  0  0  0  0
   32.7280   26.8770   35.7200 H   0  0  0  0  0  0  0  0  0  0  0  0
   31.3070   29.7610   38.2440 F   0  0  0  0  0  0  0  0  0  0  0  0
   31.4020   30.1150   36.9190 C   0  0  0  0  0  0  0  0  0  0  0  0
   32.4290   29.5700   36.1780 C   0  0  0  0  0  0  0  0  0  0  0  0
   32.4700   29.9570   34.8800 C   0  0  0  0  0  0  0  0  0  0  0  0
   33.2460   29.5720   34.2370 H   0  0  0  0  0  0  0  0  0  0  0  0
   31.5520   30.8390   34.3150 C   0  0  0  0  0  0  0  0  0  0  0  0
   31.6570   31.1000   33.2580 H   0  0  0  0  0  0  0  0  0  0  0  0
   30.5460   31.3510   35.1090 C   0  0  0  0  0  3  0  0  0  0  0  0
   30.4580   30.9920   36.4290 C   0  0  0  0  0  3  0  0  0  0  0  0
  1  4  1  6  0  0  0
  1  2  1  0  0  0  0
  1  3  1  0  0  0  0
  2  5  1  0  0  0  0
  2  3  1  0  0  0  0
  3  7  1  1  0  0  0
  3  8  1  0  0  0  0
  6  2  1  0  0  0  0
  8 17  2  0  0  0  0
  8  9  1  0  0  0  0
  9 10  2  0  0  0  0
 10 11  1  0  0  0  0
 10 19  1  0  0  0  0
 11 20  1  0  0  0  0
 12 13  1  0  0  0  0
 12 11  2  0  0  0  0
 13 21  1  0  0  0  0
 14 22  1  0  0  0  0
 14 13  2  0  0  0  0
 15 14  1  0  0  0  0
 16 15  2  0  0  0  0
 16 17  1  0  0  0  0
 17 12  1  0  0  0  0
 18  9  1  0  0  0  0
 23 15  1  0  0  0  0
 24 16  1  0  0  0  0
 25 30  1  0  0  0  0
 26 27  1  0  0  0  0
 26 25  2  0  0  0  0
 27 28  2  0  0  0  0
 28 29  1  0  0  0  0
 29  1  1  0  0  0  0
 30 29  2  0  0  0  0
 31 25  1  0  0  0  0
 32 26  1  0  0  0  0
 34 33  1  0  0  0  0
 35 27  1  0  0  0  0
 35 34  2  0  0  0  0
 36 35  1  0  0  0  0
 37 36  1  0  0  0  0
 38 36  2  0  0  0  0
 38 40  1  0  0  0  0
 39 38  1  0  0  0  0
 40 41  2  0  0  0  0
 41 34  1  0  0  0  0
M  END
>  <minimizedAffinity>
-6.82241678

$$$$

 OpenBabel03252508273D

 41 45  0  0  1  0  0  0  0  0999 V2000
   34.2790   28.8270   36.1540 C   0  0  1  0  0  0  0  0  0  0  0  0
   33.2880   27.7770   36.4250 C   0  0  0  0  0  0  0  0  0  0  0  0
   33.0410   29.3060   36.7390 C   0  0  2  0  0  0  0  0  0  0  0  0
   34.5000   28.7430   35.0310 H   0  0  0  0  0  0  0  0  0  0  0  0
   32.5370   27.4280   35.7020 H   0  0  0  0  0  0  0  0  0  0  0  0
   33.4180   27.0950   37.2810 H   0  0  0  0  0  0  0  0  0  0  0  0
   32.8050   29.2580   37.8420 H   0  0  0  0  0  0  0  0  0  0  0  0
   31.9910   30.0290   36.0150 C   0  0  0  0  0  0  0  0  0  0  0  0
   32.0090   30.4280   34.7130 C   0  0  0  0  0  0  0  0  0  0  0  0
   31.0510   31.2190   34.0950 C   0  0  0  0  0  0  0  0  0  0  0  0
   29.9760   31.6390   34.8920 C   0  0  0  0  0  0  0  0  0  0  0  0
   29.9330   31.2410   36.2300 C   0  0  0  0  0  0  0  0  0  0  0  0
   28.8210   31.6270   36.9570 C   0  0  0  0  0  0  0  0  0  0  0  0
   28.6990   31.1930   38.2730 C   0  0  0  0  0  0  0  0  0  0  0  0
   29.6650   30.3910   38.8460 C   0  0  0  0  0  0  0  0  0  0  0  0
   30.7480   30.0430   38.0730 C   0  0  0  0  0  0  0  0  0  0  0  0
   30.9210   30.4540   36.7630 C   0  0  0  0  0  0  0  0  0  0  0  0
   32.8610   30.0790   34.1330 H   0  0  0  0  0  0  0  0  0  0  0  0
   31.1280   31.4980   33.0530 H   0  0  0  0  0  0  0  0  0  0  0  0
   29.2070   32.2600   34.4510 H   0  0  0  0  0  0  0  0  0  0  0  0
   28.0710   32.2590   36.4810 H   0  0  0  0  0  0  0  0  0  0  0  0
   27.7800   31.5620   38.7550 H   0  0  0  0  0  0  0  0  0  0  0  0
   29.3900   30.1640   39.8540 H   0  0  0  0  0  0  0  0  0  0  0  0
   31.2870   29.3770   38.6860 H   0  0  0  0  0  0  0  0  0  0  0  0
   37.7390   29.6610   37.1380 C   0  0  0  0  0  0  0  0  0  0  0  0
   37.8630   28.9960   38.4070 C   0  0  0  0  0  0  0  0  0  0  0  0
   36.7340   28.2890   38.8870 C   0  0  0  0  0  0  0  0  0  0  0  0
   35.5970   28.2590   38.1570 N   0  0  0  0  0  0  0  0  0  0  0  0
   35.5420   28.9170   36.9450 C   0  0  0  0  0  0  0  0  0  0  0  0
   36.5760   29.5930   36.4560 N   0  0  0  0  0  0  0  0  0  0  0  0
   38.6230   30.1880   36.8090 H   0  0  0  0  0  0  0  0  0  0  0  0
   38.7780   29.0550   38.9340 H   0  0  0  0  0  0  0  0  0  0  0  0
   36.0320   29.5750   41.1950 F   0  0  0  0  0  0  0  0  0  0  0  0
   36.4400   28.2670   41.3140 C   0  0  0  0  0  0  0  0  0  0  0  0
   36.8000   27.5960   40.1640 C   0  0  0  0  0  0  0  0  0  0  0  0
   37.1930   26.3120   40.3470 C   0  0  0  0  0  0  0  0  0  0  0  0
   37.4890   25.7230   39.4930 H   0  0  0  0  0  0  0  0  0  0  0  0
   37.2380   25.6960   41.5950 C   0  0  0  0  0  0  0  0  0  0  0  0
   37.5680   24.6540   41.6540 H   0  0  0  0  0  0  0  0  0  0  0  0
   36.8650   26.4200   42.7080 C   0  0  0  0  0  3  0  0  0  0  0  0
   36.4600   27.7240   42.5810 C   0  0  0  0  0  3  0  0  0  0  0  0
  1  4  1  6  0  0  0
  1  2  1  0  0  0  0
  1  3  1  0  0  0  0
  1 29  1  0  0  0  0
  2  3  1  0  0  0  0
  2  6  1  0  0  0  0
  3  7  1  1  0  0  0
  5  2  1  0  0  0  0
  8  3  1  0  0  0  0
  8 17  1  0  0  0  0
  9  8  2  0  0  0  0
 10  9  1  0  0  0  0
 10 11  2  0  0  0  0
 11 12  1  0  0  0  0
 12 17  2  0  0  0  0
 12 13  1  0  0  0  0
 13 14  2  0  0  0  0
 14 22  1  0  0  0  0
 14 15  1  0  0  0  0
 15 23  1  0  0  0  0
 16 24  1  0  0  0  0
 16 15  2  0  0  0  0
 17 16  1  0  0  0  0
 18  9  1  0  0  0  0
 19 10  1  0  0  0  0
 20 11  1  0  0  0  0
 21 13  1  0  0  0  0
 25 26  1  0  0  0  0
 26 27  2  0  0  0  0
 26 32  1  0  0  0  0
 27 35  1  0  0  0  0
 28 27  1  0  0  0  0
 29 28  2  0  0  0  0
 30 29  1  0  0  0  0
 30 25  2  0  0  0  0
 31 25  1  0  0  0  0
 33 34  1  0  0  0  0
 34 41  1  0  0  0  0
 35 36  1  0  0  0  0
 35 34  2  0  0  0  0
 36 38  2  0  0  0  0
 37 36  1  0  0  0  0
 38 39  1  0  0  0  0
 38 40  1  0  0  0  0
 41 40  2  0  0  0  0
M  END
>  <minimizedAffinity>
-6.66544199

$$$$

 OpenBabel03252508273D

 41 45  0  0  1  0  0  0  0  0999 V2000
   34.4010   28.8360   36.7910 C   0  0  1  0  0  0  0  0  0  0  0  0
   33.4800   27.7000   36.6500 C   0  0  0  0  0  0  0  0  0  0  0  0
   33.0210   29.1350   37.1240 C   0  0  2  0  0  0  0  0  0  0  0  0
   34.8810   28.9580   35.7550 H   0  0  0  0  0  0  0  0  0  0  0  0
   32.9530   27.4360   35.7220 H   0  0  0  0  0  0  0  0  0  0  0  0
   33.4750   26.8900   37.3980 H   0  0  0  0  0  0  0  0  0  0  0  0
   32.5440   28.8870   38.1160 H   0  0  0  0  0  0  0  0  0  0  0  0
   32.1000   29.9090   36.2860 C   0  0  0  0  0  0  0  0  0  0  0  0
   32.2720   30.2690   34.9830 C   0  0  0  0  0  0  0  0  0  0  0  0
   31.4380   31.1080   34.2580 C   0  0  0  0  0  0  0  0  0  0  0  0
   30.3250   31.6240   34.9370 C   0  0  0  0  0  0  0  0  0  0  0  0
   30.1250   31.2690   36.2730 C   0  0  0  0  0  0  0  0  0  0  0  0
   28.9800   31.7530   36.8790 C   0  0  0  0  0  0  0  0  0  0  0  0
   28.7010   31.3670   38.1860 C   0  0  0  0  0  0  0  0  0  0  0  0
   29.5470   30.5150   38.8670 C   0  0  0  0  0  0  0  0  0  0  0  0
   30.6710   30.0690   38.2120 C   0  0  0  0  0  0  0  0  0  0  0  0
   30.9970   30.4300   36.9160 C   0  0  0  0  0  0  0  0  0  0  0  0
   33.1480   29.8450   34.4970 H   0  0  0  0  0  0  0  0  0  0  0  0
   31.6340   31.3510   33.2220 H   0  0  0  0  0  0  0  0  0  0  0  0
   29.6480   32.2860   34.4100 H   0  0  0  0  0  0  0  0  0  0  0  0
   28.3260   32.4230   36.3190 H   0  0  0  0  0  0  0  0  0  0  0  0
   27.7690   31.8130   38.5680 H   0  0  0  0  0  0  0  0  0  0  0  0
   29.1610   30.3370   39.8480 H   0  0  0  0  0  0  0  0  0  0  0  0
   31.0980   29.3850   38.8880 H   0  0  0  0  0  0  0  0  0  0  0  0
   37.0600   30.0250   39.0590 C   0  0  0  0  0  0  0  0  0  0  0  0
   37.3680   28.8400   39.8140 C   0  0  0  0  0  0  0  0  0  0  0  0
   36.6320   27.6680   39.5180 C   0  0  0  0  0  0  0  0  0  0  0  0
   35.6810   27.6930   38.5590 N   0  0  0  0  0  0  0  0  0  0  0  0
   35.4330   28.8620   37.8690 C   0  0  0  0  0  0  0  0  0  0  0  0
   36.0990   29.9870   38.1120 N   0  0  0  0  0  0  0  0  0  0  0  0
   37.6450   30.8970   39.3160 H   0  0  0  0  0  0  0  0  0  0  0  0
   38.1220   28.8810   40.5540 H   0  0  0  0  0  0  0  0  0  0  0  0
   36.4480   27.6120   42.2450 F   0  0  0  0  0  0  0  0  0  0  0  0
   36.7990   26.4370   41.6240 C   0  0  0  0  0  0  0  0  0  0  0  0
   36.9000   26.4390   40.2490 C   0  0  0  0  0  0  0  0  0  0  0  0
   37.2500   25.2520   39.6960 C   0  0  0  0  0  0  0  0  0  0  0  0
   37.3470   25.1760   38.6240 H   0  0  0  0  0  0  0  0  0  0  0  0
   37.4950   24.1030   40.4430 C   0  0  0  0  0  0  0  0  0  0  0  0
   37.7730   23.1850   39.9170 H   0  0  0  0  0  0  0  0  0  0  0  0
   37.3790   24.1650   41.8160 C   0  0  0  0  0  3  0  0  0  0  0  0
   37.0280   25.3400   42.4280 C   0  0  0  0  0  3  0  0  0  0  0  0
  1  4  1  6  0  0  0
  1  3  1  0  0  0  0
  1 29  1  0  0  0  0
  2  1  1  0  0  0  0
  2  3  1  0  0  0  0
  2  6  1  0  0  0  0
  3  7  1  1  0  0  0
  5  2  1  0  0  0  0
  8 17  1  0  0  0  0
  8  3  1  0  0  0  0
  9  8  2  0  0  0  0
 10 11  2  0  0  0  0
 10  9  1  0  0  0  0
 11 12  1  0  0  0  0
 12 13  2  0  0  0  0
 12 17  1  0  0  0  0
 13 14  1  0  0  0  0
 14 22  1  0  0  0  0
 14 15  2  0  0  0  0
 15 23  1  0  0  0  0
 16 15  1  0  0  0  0
 16 24  1  0  0  0  0
 17 16  2  0  0  0  0
 18  9  1  0  0  0  0
 19 10  1  0  0  0  0
 20 11  1  0  0  0  0
 21 13  1  0  0  0  0
 25 31  1  0  0  0  0
 25 26  1  0  0  0  0
 26 32  1  0  0  0  0
 27 26  2  0  0  0  0
 27 35  1  0  0  0  0
 28 27  1  0  0  0  0
 29 30  1  0  0  0  0
 29 28  2  0  0  0  0
 30 25  2  0  0  0  0
 34 33  1  0  0  0  0
 34 41  1  0  0  0  0
 35 34  2  0  0  0  0
 36 35  1  0  0  0  0
 36 38  2  0  0  0  0
 37 36  1  0  0  0  0
 38 40  1  0  0  0  0
 39 38  1  0  0  0  0
 40 41  2  0  0  0  0
M  END
>  <minimizedAffinity>
-6.6581769

$$$$

 OpenBabel03252508273D

 41 45  0  0  1  0  0  0  0  0999 V2000
   38.3360   29.3080   41.3820 C   0  0  1  0  0  0  0  0  0  0  0  0
   38.0320   29.1440   42.8100 C   0  0  0  0  0  0  0  0  0  0  0  0
   37.1180   28.5680   41.6560 C   0  0  2  0  0  0  0  0  0  0  0  0
   39.3800   28.8510   41.2480 H   0  0  0  0  0  0  0  0  0  0  0  0
   38.3960   28.3160   43.4340 H   0  0  0  0  0  0  0  0  0  0  0  0
   37.6390   29.9900   43.3970 H   0  0  0  0  0  0  0  0  0  0  0  0
   36.1310   29.0520   41.9090 H   0  0  0  0  0  0  0  0  0  0  0  0
   36.9640   27.1170   41.5180 C   0  0  0  0  0  0  0  0  0  0  0  0
   37.2380   26.1640   42.4510 C   0  0  0  0  0  0  0  0  0  0  0  0
   37.1990   24.7920   42.2430 C   0  0  0  0  0  0  0  0  0  0  0  0
   36.8460   24.3640   40.9550 C   0  0  0  0  0  0  0  0  0  0  0  0
   36.5580   25.3220   39.9810 C   0  0  0  0  0  0  0  0  0  0  0  0
   36.1550   24.8480   38.7450 C   0  0  0  0  0  0  0  0  0  0  0  0
   35.7880   25.7660   37.7660 C   0  0  0  0  0  0  0  0  0  0  0  0
   35.8220   27.1220   38.0180 C   0  0  0  0  0  0  0  0  0  0  0  0
   36.2350   27.5310   39.2650 C   0  0  0  0  0  0  0  0  0  0  0  0
   36.6170   26.6610   40.2700 C   0  0  0  0  0  0  0  0  0  0  0  0
   37.5070   26.5420   43.4350 H   0  0  0  0  0  0  0  0  0  0  0  0
   37.4280   24.0880   43.0330 H   0  0  0  0  0  0  0  0  0  0  0  0
   36.8060   23.3010   40.7480 H   0  0  0  0  0  0  0  0  0  0  0  0
   36.1340   23.7720   38.5710 H   0  0  0  0  0  0  0  0  0  0  0  0
   35.4880   25.2790   36.8240 H   0  0  0  0  0  0  0  0  0  0  0  0
   35.5030   27.6560   37.1480 H   0  0  0  0  0  0  0  0  0  0  0  0
   36.0970   28.5740   39.2420 H   0  0  0  0  0  0  0  0  0  0  0  0
   36.9610   32.4660   40.0520 C   0  0  0  0  0  0  0  0  0  0  0  0
   38.1160   33.0670   39.4410 C   0  0  0  0  0  0  0  0  0  0  0  0
   39.3400   32.3600   39.5220 C   0  0  0  0  0  0  0  0  0  0  0  0
   39.3900   31.1680   40.1570 N   0  0  0  0  0  0  0  0  0  0  0  0
   38.2450   30.6440   40.7230 C   0  0  0  0  0  0  0  0  0  0  0  0
   37.0740   31.2720   40.6710 N   0  0  0  0  0  0  0  0  0  0  0  0
   36.0480   33.0380   39.9670 H   0  0  0  0  0  0  0  0  0  0  0  0
   38.0170   34.0020   38.9580 H   0  0  0  0  0  0  0  0  0  0  0  0
   40.8410   34.1940   40.8840 F   0  0  0  0  0  0  0  0  0  0  0  0
   41.2820   33.8410   39.6300 C   0  0  0  0  0  0  0  0  0  0  0  0
   40.5420   32.9180   38.9220 C   0  0  0  0  0  0  0  0  0  0  0  0
   41.0270   32.6120   37.6940 C   0  0  0  0  0  0  0  0  0  0  0  0
   40.5010   31.8960   37.0820 H   0  0  0  0  0  0  0  0  0  0  0  0
   42.1850   33.1760   37.1670 C   0  0  0  0  0  0  0  0  0  0  0  0
   42.5080   32.8730   36.1660 H   0  0  0  0  0  0  0  0  0  0  0  0
   42.8820   34.0950   37.9240 C   0  0  0  0  0  3  0  0  0  0  0  0
   42.4360   34.4410   39.1730 C   0  0  0  0  0  3  0  0  0  0  0  0
  1  4  1  6  0  0  0
  1  3  1  0  0  0  0
  1  2  1  0  0  0  0
  2  6  1  0  0  0  0
  2  5  1  0  0  0  0
  3  7  1  6  0  0  0
  3  2  1  0  0  0  0
  8  3  1  0  0  0  0
  8  9  1  0  0  0  0
  9 18  1  0  0  0  0
 10  9  2  0  0  0  0
 10 19  1  0  0  0  0
 11 10  1  0  0  0  0
 12 17  1  0  0  0  0
 12 11  2  0  0  0  0
 13 12  1  0  0  0  0
 14 15  1  0  0  0  0
 14 13  2  0  0  0  0
 15 16  2  0  0  0  0
 16 17  1  0  0  0  0
 17  8  2  0  0  0  0
 20 11  1  0  0  0  0
 21 13  1  0  0  0  0
 22 14  1  0  0  0  0
 23 15  1  0  0  0  0
 24 16  1  0  0  0  0
 25 30  1  0  0  0  0
 26 27  1  0  0  0  0
 26 25  2  0  0  0  0
 27 28  2  0  0  0  0
 28 29  1  0  0  0  0
 29  1  1  0  0  0  0
 30 29  2  0  0  0  0
 31 25  1  0  0  0  0
 32 26  1  0  0  0  0
 34 33  1  0  0  0  0
 35 27  1  0  0  0  0
 35 34  2  0  0  0  0
 36 35  1  0  0  0  0
 37 36  1  0  0  0  0
 38 36  2  0  0  0  0
 38 40  1  0  0  0  0
 39 38  1  0  0  0  0
 40 41  2  0  0  0  0
 41 34  1  0  0  0  0
M  END
>  <minimizedAffinity>
-6.58534479

$$$$

 OpenBabel03252508273D

 41 45  0  0  1  0  0  0  0  0999 V2000
   33.9600   29.2340   35.0270 C   0  0  1  0  0  0  0  0  0  0  0  0
   32.9440   28.1750   34.9330 C   0  0  0  0  0  0  0  0  0  0  0  0
   32.7840   29.4540   35.8470 C   0  0  2  0  0  0  0  0  0  0  0  0
   34.1030   29.6030   33.9490 H   0  0  0  0  0  0  0  0  0  0  0  0
   32.1340   28.1540   34.1910 H   0  0  0  0  0  0  0  0  0  0  0  0
   33.1010   27.2070   35.4340 H   0  0  0  0  0  0  0  0  0  0  0  0
   32.6190   28.9730   36.8540 H   0  0  0  0  0  0  0  0  0  0  0  0
   31.7200   30.4190   35.5540 C   0  0  0  0  0  0  0  0  0  0  0  0
   31.5820   31.1820   34.4340 C   0  0  0  0  0  0  0  0  0  0  0  0
   30.6320   32.1760   34.2430 C   0  0  0  0  0  0  0  0  0  0  0  0
   29.7440   32.4060   35.3040 C   0  0  0  0  0  0  0  0  0  0  0  0
   29.8630   31.6350   36.4620 C   0  0  0  0  0  0  0  0  0  0  0  0
   28.9240   31.8560   37.4530 C   0  0  0  0  0  0  0  0  0  0  0  0
   28.9590   31.0620   38.5950 C   0  0  0  0  0  0  0  0  0  0  0  0
   29.9080   30.0700   38.7390 C   0  0  0  0  0  0  0  0  0  0  0  0
   30.8160   29.9010   37.7200 C   0  0  0  0  0  0  0  0  0  0  0  0
   30.8300   30.6680   36.5680 C   0  0  0  0  0  0  0  0  0  0  0  0
   32.2920   30.9700   33.6370 H   0  0  0  0  0  0  0  0  0  0  0  0
   30.5780   32.7450   33.3240 H   0  0  0  0  0  0  0  0  0  0  0  0
   28.9880   33.1740   35.1990 H   0  0  0  0  0  0  0  0  0  0  0  0
   28.1830   32.6430   37.3150 H   0  0  0  0  0  0  0  0  0  0  0  0
   28.1690   31.3270   39.3170 H   0  0  0  0  0  0  0  0  0  0  0  0
   29.7670   29.5730   39.6750 H   0  0  0  0  0  0  0  0  0  0  0  0
   31.3660   29.0540   38.0160 H   0  0  0  0  0  0  0  0  0  0  0  0
   37.4670   28.2120   35.5670 C   0  0  0  0  0  0  0  0  0  0  0  0
   37.6490   28.4800   36.9670 C   0  0  0  0  0  0  0  0  0  0  0  0
   36.5500   29.0200   37.6780 C   0  0  0  0  0  0  0  0  0  0  0  0
   35.3860   29.2640   37.0360 N   0  0  0  0  0  0  0  0  0  0  0  0
   35.2740   28.9840   35.6890 C   0  0  0  0  0  0  0  0  0  0  0  0
   36.2790   28.4770   34.9820 N   0  0  0  0  0  0  0  0  0  0  0  0
   38.3290   27.8010   35.0630 H   0  0  0  0  0  0  0  0  0  0  0  0
   38.5830   28.2700   37.4160 H   0  0  0  0  0  0  0  0  0  0  0  0
   35.9590   27.1070   39.5390 F   0  0  0  0  0  0  0  0  0  0  0  0
   36.3710   28.3290   40.0160 C   0  0  0  0  0  0  0  0  0  0  0  0
   36.6750   29.3110   39.0980 C   0  0  0  0  0  0  0  0  0  0  0  0
   37.0740   30.4920   39.6290 C   0  0  0  0  0  0  0  0  0  0  0  0
   37.3290   31.3090   38.9710 H   0  0  0  0  0  0  0  0  0  0  0  0
   37.1770   30.7190   40.9990 C   0  0  0  0  0  0  0  0  0  0  0  0
   37.5080   31.7020   41.3450 H   0  0  0  0  0  0  0  0  0  0  0  0
   36.8590   29.6950   41.8680 C   0  0  0  0  0  3  0  0  0  0  0  0
   36.4490   28.4800   41.3840 C   0  0  0  0  0  3  0  0  0  0  0  0
  1  4  1  6  0  0  0
  1 29  1  0  0  0  0
  1  3  1  0  0  0  0
  2  1  1  0  0  0  0
  2  6  1  0  0  0  0
  2  3  1  0  0  0  0
  3  7  1  1  0  0  0
  5  2  1  0  0  0  0
  8  3  1  0  0  0  0
  8 17  1  0  0  0  0
  9  8  2  0  0  0  0
 10  9  1  0  0  0  0
 10 11  2  0  0  0  0
 11 12  1  0  0  0  0
 12 17  2  0  0  0  0
 12 13  1  0  0  0  0
 13 14  2  0  0  0  0
 14 15  1  0  0  0  0
 14 22  1  0  0  0  0
 15 23  1  0  0  0  0
 16 24  1  0  0  0  0
 16 15  2  0  0  0  0
 17 16  1  0  0  0  0
 18  9  1  0  0  0  0
 19 10  1  0  0  0  0
 20 11  1  0  0  0  0
 21 13  1  0  0  0  0
 25 26  1  0  0  0  0
 26 32  1  0  0  0  0
 26 27  2  0  0  0  0
 27 35  1  0  0  0  0
 28 27  1  0  0  0  0
 29 28  2  0  0  0  0
 30 25  2  0  0  0  0
 30 29  1  0  0  0  0
 31 25  1  0  0  0  0
 33 34  1  0  0  0  0
 34 41  1  0  0  0  0
 35 36  1  0  0  0  0
 35 34  2  0  0  0  0
 36 38  2  0  0  0  0
 37 36  1  0  0  0  0
 38 39  1  0  0  0  0
 38 40  1  0  0  0  0
 41 40  2  0  0  0  0
M  END
>  <minimizedAffinity>
-6.58296156

$$$$

 OpenBabel03252508273D

 41 45  0  0  1  0  0  0  0  0999 V2000
   36.8550   29.1980   38.3210 C   0  0  1  0  0  0  0  0  0  0  0  0
   37.2140   30.5600   37.9020 C   0  0  0  0  0  0  0  0  0  0  0  0
   36.6850   30.2080   39.3490 C   0  0  2  0  0  0  0  0  0  0  0  0
   37.8040   28.5750   38.1460 H   0  0  0  0  0  0  0  0  0  0  0  0
   38.2230   30.9900   37.9780 H   0  0  0  0  0  0  0  0  0  0  0  0
   36.5460   31.1340   37.2400 H   0  0  0  0  0  0  0  0  0  0  0  0
   35.7900   30.8920   39.4180 H   0  0  0  0  0  0  0  0  0  0  0  0
   37.5690   30.3930   40.5040 C   0  0  0  0  0  0  0  0  0  0  0  0
   38.5610   31.3170   40.6450 C   0  0  0  0  0  0  0  0  0  0  0  0
   39.4600   31.3830   41.7000 C   0  0  0  0  0  0  0  0  0  0  0  0
   39.3260   30.4080   42.7000 C   0  0  0  0  0  0  0  0  0  0  0  0
   38.3160   29.4520   42.5790 C   0  0  0  0  0  0  0  0  0  0  0  0
   38.1860   28.5520   43.6200 C   0  0  0  0  0  0  0  0  0  0  0  0
   37.1470   27.6270   43.5780 C   0  0  0  0  0  0  0  0  0  0  0  0
   36.2610   27.6060   42.5200 C   0  0  0  0  0  0  0  0  0  0  0  0
   36.4450   28.5240   41.5130 C   0  0  0  0  0  0  0  0  0  0  0  0
   37.4650   29.4590   41.5030 C   0  0  0  0  0  0  0  0  0  0  0  0
   38.6270   32.0530   39.8470 H   0  0  0  0  0  0  0  0  0  0  0  0
   40.2250   32.1470   41.7510 H   0  0  0  0  0  0  0  0  0  0  0  0
   40.0090   30.4210   43.5400 H   0  0  0  0  0  0  0  0  0  0  0  0
   38.8960   28.5900   44.4460 H   0  0  0  0  0  0  0  0  0  0  0  0
   37.1410   26.9600   44.4560 H   0  0  0  0  0  0  0  0  0  0  0  0
   35.5400   26.8310   42.6730 H   0  0  0  0  0  0  0  0  0  0  0  0
   35.6170   28.3680   40.8810 H   0  0  0  0  0  0  0  0  0  0  0  0
   34.5250   26.5430   37.2480 C   0  0  0  0  0  0  0  0  0  0  0  0
   33.4480   27.3000   36.6700 C   0  0  0  0  0  0  0  0  0  0  0  0
   33.5600   28.7110   36.6840 C   0  0  0  0  0  0  0  0  0  0  0  0
   34.6500   29.2950   37.2270 N   0  0  0  0  0  0  0  0  0  0  0  0
   35.6520   28.5130   37.7650 C   0  0  0  0  0  0  0  0  0  0  0  0
   35.5890   27.1850   37.7750 N   0  0  0  0  0  0  0  0  0  0  0  0
   34.4000   25.4700   37.2160 H   0  0  0  0  0  0  0  0  0  0  0  0
   32.6190   26.7870   36.2600 H   0  0  0  0  0  0  0  0  0  0  0  0
   31.5580   29.6840   38.2700 F   0  0  0  0  0  0  0  0  0  0  0  0
   31.5030   30.0080   36.9350 C   0  0  0  0  0  0  0  0  0  0  0  0
   32.5010   29.5290   36.1130 C   0  0  0  0  0  0  0  0  0  0  0  0
   32.3910   29.8810   34.8090 C   0  0  0  0  0  0  0  0  0  0  0  0
   33.1360   29.5440   34.1050 H   0  0  0  0  0  0  0  0  0  0  0  0
   31.3550   30.6690   34.3140 C   0  0  0  0  0  0  0  0  0  0  0  0
   31.3410   30.9080   33.2460 H   0  0  0  0  0  0  0  0  0  0  0  0
   30.3850   31.1180   35.1870 C   0  0  0  0  0  3  0  0  0  0  0  0
   30.4470   30.7900   36.5160 C   0  0  0  0  0  3  0  0  0  0  0  0
  1  4  1  1  0  0  0
  1  3  1  0  0  0  0
  2  5  1  0  0  0  0
  2  1  1  0  0  0  0
  2  3  1  0  0  0  0
  3  7  1  1  0  0  0
  3  8  1  0  0  0  0
  6  2  1  0  0  0  0
  8  9  2  0  0  0  0
  8 17  1  0  0  0  0
  9 10  1  0  0  0  0
 10 19  1  0  0  0  0
 10 11  2  0  0  0  0
 11 20  1  0  0  0  0
 12 11  1  0  0  0  0
 12 13  1  0  0  0  0
 13 21  1  0  0  0  0
 14 13  2  0  0  0  0
 14 22  1  0  0  0  0
 15 23  1  0  0  0  0
 15 14  1  0  0  0  0
 16 15  2  0  0  0  0
 17 16  1  0  0  0  0
 17 12  2  0  0  0  0
 18  9  1  0  0  0  0
 24 16  1  0  0  0  0
 25 30  1  0  0  0  0
 26 27  1  0  0  0  0
 26 25  2  0  0  0  0
 27 28  2  0  0  0  0
 28 29  1  0  0  0  0
 29 30  2  0  0  0  0
 29  1  1  0  0  0  0
 31 25  1  0  0  0  0
 32 26  1  0  0  0  0
 34 33  1  0  0  0  0
 35 27  1  0  0  0  0
 35 34  2  0  0  0  0
 36 35  1  0  0  0  0
 37 36  1  0  0  0  0
 38 36  2  0  0  0  0
 38 40  1  0  0  0  0
 39 38  1  0  0  0  0
 40 41  2  0  0  0  0
 41 34  1  0  0  0  0
M  END
>  <minimizedAffinity>
-6.52132225

$$$$

 OpenBabel03252508273D

 41 45  0  0  1  0  0  0  0  0999 V2000
   34.2570   28.7900   36.5180 C   0  0  1  0  0  0  0  0  0  0  0  0
   33.3160   27.6880   36.2770 C   0  0  0  0  0  0  0  0  0  0  0  0
   32.8840   29.0810   36.8860 C   0  0  2  0  0  0  0  0  0  0  0  0
   34.7350   29.0000   35.4950 H   0  0  0  0  0  0  0  0  0  0  0  0
   32.7800   27.5210   35.3330 H   0  0  0  0  0  0  0  0  0  0  0  0
   33.3000   26.8130   36.9470 H   0  0  0  0  0  0  0  0  0  0  0  0
   32.4080   28.7500   37.8530 H   0  0  0  0  0  0  0  0  0  0  0  0
   31.9740   29.9460   36.1290 C   0  0  0  0  0  0  0  0  0  0  0  0
   32.1220   30.3810   34.8470 C   0  0  0  0  0  0  0  0  0  0  0  0
   31.3040   31.2990   34.2040 C   0  0  0  0  0  0  0  0  0  0  0  0
   30.2350   31.8170   34.9510 C   0  0  0  0  0  0  0  0  0  0  0  0
   30.0600   31.3840   36.2670 C   0  0  0  0  0  0  0  0  0  0  0  0
   28.9560   31.8750   36.9390 C   0  0  0  0  0  0  0  0  0  0  0  0
   28.7000   31.4160   38.2280 C   0  0  0  0  0  0  0  0  0  0  0  0
   29.5280   30.4880   38.8260 C   0  0  0  0  0  0  0  0  0  0  0  0
   30.6110   30.0390   38.1070 C   0  0  0  0  0  0  0  0  0  0  0  0
   30.9140   30.4690   36.8270 C   0  0  0  0  0  0  0  0  0  0  0  0
   32.9640   29.9540   34.3060 H   0  0  0  0  0  0  0  0  0  0  0  0
   31.4790   31.6010   33.1800 H   0  0  0  0  0  0  0  0  0  0  0  0
   29.5730   32.5380   34.4890 H   0  0  0  0  0  0  0  0  0  0  0  0
   28.3160   32.6060   36.4450 H   0  0  0  0  0  0  0  0  0  0  0  0
   27.8000   31.8760   38.6680 H   0  0  0  0  0  0  0  0  0  0  0  0
   29.1640   30.2620   39.8060 H   0  0  0  0  0  0  0  0  0  0  0  0
   31.0280   29.2960   38.7240 H   0  0  0  0  0  0  0  0  0  0  0  0
   36.3420   27.4730   39.2650 C   0  0  0  0  0  0  0  0  0  0  0  0
   37.1710   28.6030   39.5860 C   0  0  0  0  0  0  0  0  0  0  0  0
   36.9880   29.7840   38.8280 C   0  0  0  0  0  0  0  0  0  0  0  0
   36.0610   29.8180   37.8460 N   0  0  0  0  0  0  0  0  0  0  0  0
   35.2950   28.6990   37.5860 C   0  0  0  0  0  0  0  0  0  0  0  0
   35.4330   27.5680   38.2720 N   0  0  0  0  0  0  0  0  0  0  0  0
   36.5140   26.5920   39.8680 H   0  0  0  0  0  0  0  0  0  0  0  0
   37.8810   28.5180   40.3660 H   0  0  0  0  0  0  0  0  0  0  0  0
   36.2060   31.5800   40.7350 F   0  0  0  0  0  0  0  0  0  0  0  0
   37.3820   31.8500   40.0750 C   0  0  0  0  0  0  0  0  0  0  0  0
   37.7980   30.9600   39.1080 C   0  0  0  0  0  0  0  0  0  0  0  0
   38.9620   31.2810   38.4920 C   0  0  0  0  0  0  0  0  0  0  0  0
   39.3510   30.6310   37.7240 H   0  0  0  0  0  0  0  0  0  0  0  0
   39.7000   32.4220   38.7990 C   0  0  0  0  0  0  0  0  0  0  0  0
   40.6300   32.6070   38.2550 H   0  0  0  0  0  0  0  0  0  0  0  0
   39.2310   33.2740   39.7770 C   0  0  0  0  0  3  0  0  0  0  0  0
   38.0580   32.9970   40.4310 C   0  0  0  0  0  3  0  0  0  0  0  0
  1  4  1  6  0  0  0
  1  3  1  0  0  0  0
  1 29  1  0  0  0  0
  2  1  1  0  0  0  0
  2  3  1  0  0  0  0
  2  6  1  0  0  0  0
  3  7  1  1  0  0  0
  5  2  1  0  0  0  0
  8 17  1  0  0  0  0
  8  3  1  0  0  0  0
  9  8  2  0  0  0  0
 10  9  1  0  0  0  0
 10 11  2  0  0  0  0
 11 12  1  0  0  0  0
 12 17  2  0  0  0  0
 12 13  1  0  0  0  0
 13 14  2  0  0  0  0
 14 22  1  0  0  0  0
 14 15  1  0  0  0  0
 15 23  1  0  0  0  0
 16 24  1  0  0  0  0
 16 15  2  0  0  0  0
 17 16  1  0  0  0  0
 18  9  1  0  0  0  0
 19 10  1  0  0  0  0
 20 11  1  0  0  0  0
 21 13  1  0  0  0  0
 25 26  1  0  0  0  0
 25 31  1  0  0  0  0
 26 32  1  0  0  0  0
 27 35  1  0  0  0  0
 27 26  2  0  0  0  0
 28 27  1  0  0  0  0
 29 28  2  0  0  0  0
 29 30  1  0  0  0  0
 30 25  2  0  0  0  0
 34 41  1  0  0  0  0
 34 33  1  0  0  0  0
 35 34  2  0  0  0  0
 36 38  2  0  0  0  0
 36 35  1  0  0  0  0
 37 36  1  0  0  0  0
 38 40  1  0  0  0  0
 39 38  1  0  0  0  0
 40 41  2  0  0  0  0
M  END
>  <minimizedAffinity>
-6.51942492

$$$$
