
 OpenBabel03242511263D

 28 30  0  0  0  0  0  0  0  0999 V2000
   38.4380   28.1380   39.4720 Cl  0  0  0  0  0  0  0  0  0  0  0  0
   37.8640   27.9590   41.1010 C   0  0  0  0  0  0  0  0  0  0  0  0
   37.4920   26.7390   41.5810 C   0  0  0  0  0  0  0  0  0  0  0  0
   37.0260   26.5810   42.8890 C   0  0  0  0  0  0  0  0  0  0  0  0
   36.9570   27.7080   43.6730 C   0  0  0  0  0  0  0  0  0  0  0  0
   37.3330   28.9360   43.1830 C   0  0  0  0  0  0  0  0  0  0  0  0
   37.7920   29.0870   41.8950 C   0  0  0  0  0  0  0  0  0  0  0  0
   36.7520   25.5790   43.1910 H   0  0  0  0  0  0  0  0  0  0  0  0
   36.5910   27.5430   44.6790 H   0  0  0  0  0  0  0  0  0  0  0  0
   37.2420   29.7660   43.8840 H   0  0  0  0  0  0  0  0  0  0  0  0
   36.6460   24.1760   39.0790 C   0  0  0  0  0  0  0  0  0  0  0  0
   37.7790   23.3490   39.0870 C   0  0  0  0  0  0  0  0  0  0  0  0
   38.8240   23.6840   39.9550 C   0  0  0  0  0  0  0  0  0  0  0  0
   38.6830   24.7840   40.7360 N   0  0  0  0  0  0  0  0  0  0  0  0
   37.5820   25.5610   40.7080 C   0  0  0  0  0  0  0  0  0  0  0  0
   36.5630   25.2550   39.8780 N   0  0  0  0  0  0  0  0  0  0  0  0
   35.7810   23.9950   38.4370 H   0  0  0  0  0  0  0  0  0  0  0  0
   37.8010   22.4870   38.4230 H   0  0  0  0  0  0  0  0  0  0  0  0
   39.7070   23.0530   39.9710 H   0  0  0  0  0  0  0  0  0  0  0  0
   35.8680   30.6110   40.6920 F   0  0  0  0  0  0  0  0  0  0  0  0
   37.1330   31.1240   40.8300 C   0  0  0  0  0  0  0  0  0  0  0  0
   38.1780   30.4180   41.4310 C   0  0  0  0  0  0  0  0  0  0  0  0
   39.4070   31.0410   41.5130 C   0  0  0  0  0  0  0  0  0  0  0  0
   40.1620   30.4350   41.9870 H   0  0  0  0  0  0  0  0  0  0  0  0
   39.5660   32.3090   41.0110 C   0  0  0  0  0  0  0  0  0  0  0  0
   40.5650   32.7540   41.1040 H   0  0  0  0  0  0  0  0  0  0  0  0
   38.5630   33.0290   40.4160 C   0  0  0  0  0  3  0  0  0  0  0  0
   37.3270   32.4090   40.3320 C   0  0  0  0  0  3  0  0  0  0  0  0
  1  2  1  0  0  0  0
  2  3  2  0  0  0  0
  2  7  1  0  0  0  0
  3  4  1  0  0  0  0
  4  8  1  0  0  0  0
  4  5  2  0  0  0  0
  5  9  1  0  0  0  0
  6  5  1  0  0  0  0
  6 10  1  0  0  0  0
  7  6  2  0  0  0  0
 11 12  2  0  0  0  0
 11 16  1  0  0  0  0
 12 13  1  0  0  0  0
 13 19  1  0  0  0  0
 13 14  2  0  0  0  0
 15 14  1  0  0  0  0
 15  3  1  0  0  0  0
 16 15  2  0  0  0  0
 17 11  1  0  0  0  0
 18 12  1  0  0  0  0
 20 21  1  0  0  0  0
 21 22  1  0  0  0  0
 22 23  2  0  0  0  0
 22  7  1  0  0  0  0
 23 24  1  0  0  0  0
 25 26  1  0  0  0  0
 25 23  1  0  0  0  0
 27 25  2  0  0  0  0
 28 27  1  0  0  0  0
 28 21  2  0  0  0  0
M  END
>  <minimizedAffinity>
-5.28512383

$$$$

 OpenBabel03242511263D

 28 30  0  0  0  0  0  0  0  0999 V2000
   39.4100   28.0840   39.5490 Cl  0  0  0  0  0  0  0  0  0  0  0  0
   38.0170   29.0190   39.9960 C   0  0  0  0  0  0  0  0  0  0  0  0
   38.0240   30.3780   39.8910 C   0  0  0  0  0  0  0  0  0  0  0  0
   36.9120   31.1440   40.2500 C   0  0  0  0  0  0  0  0  0  0  0  0
   35.8080   30.4700   40.7150 C   0  0  0  0  0  0  0  0  0  0  0  0
   35.8050   29.0990   40.8180 C   0  0  0  0  0  0  0  0  0  0  0  0
   36.9030   28.3490   40.4640 C   0  0  0  0  0  0  0  0  0  0  0  0
   37.0000   32.2160   40.1360 H   0  0  0  0  0  0  0  0  0  0  0  0
   34.9670   31.0980   40.9810 H   0  0  0  0  0  0  0  0  0  0  0  0
   34.8820   28.6610   41.1960 H   0  0  0  0  0  0  0  0  0  0  0  0
   41.3170   32.0200   39.7820 C   0  0  0  0  0  0  0  0  0  0  0  0
   41.4640   32.3290   38.4220 C   0  0  0  0  0  0  0  0  0  0  0  0
   40.4260   31.9670   37.5560 C   0  0  0  0  0  0  0  0  0  0  0  0
   39.3420   31.3420   38.0780 N   0  0  0  0  0  0  0  0  0  0  0  0
   39.2270   31.0570   39.3900 C   0  0  0  0  0  0  0  0  0  0  0  0
   40.2160   31.3970   40.2430 N   0  0  0  0  0  0  0  0  0  0  0  0
   42.0720   32.2620   40.5340 H   0  0  0  0  0  0  0  0  0  0  0  0
   42.3720   32.8330   38.0970 H   0  0  0  0  0  0  0  0  0  0  0  0
   40.5270   32.2010   36.5000 H   0  0  0  0  0  0  0  0  0  0  0  0
   37.4970   27.2770   42.9070 F   0  0  0  0  0  0  0  0  0  0  0  0
   37.1590   26.4370   41.8760 C   0  0  0  0  0  0  0  0  0  0  0  0
   36.8410   26.8950   40.5950 C   0  0  0  0  0  0  0  0  0  0  0  0
   36.5170   25.9520   39.6410 C   0  0  0  0  0  0  0  0  0  0  0  0
   36.2840   26.3800   38.6800 H   0  0  0  0  0  0  0  0  0  0  0  0
   36.5160   24.6180   39.9690 C   0  0  0  0  0  0  0  0  0  0  0  0
   36.2510   23.9150   39.1700 H   0  0  0  0  0  0  0  0  0  0  0  0
   36.8240   24.1360   41.2150 C   0  0  0  0  0  3  0  0  0  0  0  0
   37.1490   25.0790   42.1760 C   0  0  0  0  0  3  0  0  0  0  0  0
  1  2  1  0  0  0  0
  2  7  1  0  0  0  0
  3  2  2  0  0  0  0
  3  4  1  0  0  0  0
  4  5  2  0  0  0  0
  5  6  1  0  0  0  0
  5  9  1  0  0  0  0
  6 10  1  0  0  0  0
  7 22  1  0  0  0  0
  7  6  2  0  0  0  0
  8  4  1  0  0  0  0
 11 16  1  0  0  0  0
 11 17  1  0  0  0  0
 12 11  2  0  0  0  0
 13 14  2  0  0  0  0
 13 12  1  0  0  0  0
 14 15  1  0  0  0  0
 15  3  1  0  0  0  0
 15 16  2  0  0  0  0
 18 12  1  0  0  0  0
 19 13  1  0  0  0  0
 21 28  1  0  0  0  0
 21 20  1  0  0  0  0
 22 21  2  0  0  0  0
 23 25  2  0  0  0  0
 23 22  1  0  0  0  0
 24 23  1  0  0  0  0
 25 27  1  0  0  0  0
 26 25  1  0  0  0  0
 27 28  2  0  0  0  0
M  END
>  <minimizedAffinity>
-5.25017309

$$$$

 OpenBabel03242511263D

 28 30  0  0  0  0  0  0  0  0999 V2000
   40.4080   29.7590   40.4460 Cl  0  0  0  0  0  0  0  0  0  0  0  0
   39.0850   30.8570   40.2040 C   0  0  0  0  0  0  0  0  0  0  0  0
   39.2320   31.9680   39.4290 C   0  0  0  0  0  0  0  0  0  0  0  0
   38.1760   32.8620   39.2280 C   0  0  0  0  0  0  0  0  0  0  0  0
   36.9820   32.5750   39.8450 C   0  0  0  0  0  0  0  0  0  0  0  0
   36.8390   31.4520   40.6250 C   0  0  0  0  0  0  0  0  0  0  0  0
   37.8810   30.5740   40.8200 C   0  0  0  0  0  0  0  0  0  0  0  0
   38.3760   33.7190   38.5990 H   0  0  0  0  0  0  0  0  0  0  0  0
   36.1900   33.2910   39.6640 H   0  0  0  0  0  0  0  0  0  0  0  0
   35.8530   31.3140   41.0680 H   0  0  0  0  0  0  0  0  0  0  0  0
   41.9870   31.9670   36.9890 C   0  0  0  0  0  0  0  0  0  0  0  0
   42.9590   32.7580   37.6190 C   0  0  0  0  0  0  0  0  0  0  0  0
   42.6540   33.2840   38.8790 C   0  0  0  0  0  0  0  0  0  0  0  0
   41.4420   33.0010   39.4170 N   0  0  0  0  0  0  0  0  0  0  0  0
   40.5270   32.2370   38.7890 C   0  0  0  0  0  0  0  0  0  0  0  0
   40.8010   31.7200   37.5730 N   0  0  0  0  0  0  0  0  0  0  0  0
   42.1340   31.5140   36.0060 H   0  0  0  0  0  0  0  0  0  0  0  0
   43.9040   32.9300   37.1070 H   0  0  0  0  0  0  0  0  0  0  0  0
   43.3980   33.8980   39.3780 H   0  0  0  0  0  0  0  0  0  0  0  0
   36.9380   28.3150   39.6060 F   0  0  0  0  0  0  0  0  0  0  0  0
   37.1860   28.2910   40.9560 C   0  0  0  0  0  0  0  0  0  0  0  0
   37.6690   29.3970   41.6590 C   0  0  0  0  0  0  0  0  0  0  0  0
   37.8800   29.2500   43.0150 C   0  0  0  0  0  0  0  0  0  0  0  0
   38.2520   30.1440   43.4890 H   0  0  0  0  0  0  0  0  0  0  0  0
   37.6150   28.0470   43.6230 C   0  0  0  0  0  0  0  0  0  0  0  0
   37.8020   27.9890   44.7030 H   0  0  0  0  0  0  0  0  0  0  0  0
   37.1410   26.9440   42.9620 C   0  0  0  0  0  3  0  0  0  0  0  0
   36.9280   27.0860   41.6010 C   0  0  0  0  0  3  0  0  0  0  0  0
  2  1  1  0  0  0  0
  2  7  1  0  0  0  0
  3  2  2  0  0  0  0
  4  3  1  0  0  0  0
  4  5  2  0  0  0  0
  5  6  1  0  0  0  0
  6  7  2  0  0  0  0
  6 10  1  0  0  0  0
  7 22  1  0  0  0  0
  8  4  1  0  0  0  0
  9  5  1  0  0  0  0
 11 16  2  0  0  0  0
 11 12  1  0  0  0  0
 12 13  2  0  0  0  0
 13 19  1  0  0  0  0
 13 14  1  0  0  0  0
 15 14  2  0  0  0  0
 15  3  1  0  0  0  0
 16 15  1  0  0  0  0
 17 11  1  0  0  0  0
 18 12  1  0  0  0  0
 20 21  1  0  0  0  0
 21 28  2  0  0  0  0
 21 22  1  0  0  0  0
 22 23  2  0  0  0  0
 23 24  1  0  0  0  0
 23 25  1  0  0  0  0
 25 26  1  0  0  0  0
 27 25  2  0  0  0  0
 28 27  1  0  0  0  0
M  END
>  <minimizedAffinity>
-5.2453413

$$$$

 OpenBabel03242511263D

 28 30  0  0  0  0  0  0  0  0999 V2000
   40.3720   29.4540   40.1230 Cl  0  0  0  0  0  0  0  0  0  0  0  0
   39.1190   30.6560   40.0920 C   0  0  0  0  0  0  0  0  0  0  0  0
   39.3260   31.8650   39.4980 C   0  0  0  0  0  0  0  0  0  0  0  0
   38.3280   32.8430   39.4680 C   0  0  0  0  0  0  0  0  0  0  0  0
   37.1270   32.5350   40.0620 C   0  0  0  0  0  0  0  0  0  0  0  0
   36.9240   31.3140   40.6590 C   0  0  0  0  0  0  0  0  0  0  0  0
   37.9100   30.3540   40.6870 C   0  0  0  0  0  0  0  0  0  0  0  0
   38.5730   33.7760   38.9780 H   0  0  0  0  0  0  0  0  0  0  0  0
   36.3810   33.3190   40.0170 H   0  0  0  0  0  0  0  0  0  0  0  0
   35.9380   31.1680   41.1010 H   0  0  0  0  0  0  0  0  0  0  0  0
   42.8000   32.9870   39.0270 C   0  0  0  0  0  0  0  0  0  0  0  0
   43.0440   32.6780   37.6820 C   0  0  0  0  0  0  0  0  0  0  0  0
   42.0100   32.0850   36.9500 C   0  0  0  0  0  0  0  0  0  0  0  0
   40.8340   31.8450   37.5800 N   0  0  0  0  0  0  0  0  0  0  0  0
   40.6250   32.1530   38.8760 C   0  0  0  0  0  0  0  0  0  0  0  0
   41.6100   32.7240   39.5990 N   0  0  0  0  0  0  0  0  0  0  0  0
   43.5450   33.4500   39.6780 H   0  0  0  0  0  0  0  0  0  0  0  0
   44.0220   32.9090   37.2630 H   0  0  0  0  0  0  0  0  0  0  0  0
   42.1860   31.8410   35.9070 H   0  0  0  0  0  0  0  0  0  0  0  0
   38.6210   30.0920   43.3120 F   0  0  0  0  0  0  0  0  0  0  0  0
   38.0310   29.0300   42.6740 C   0  0  0  0  0  0  0  0  0  0  0  0
   37.6340   29.0740   41.3350 C   0  0  0  0  0  0  0  0  0  0  0  0
   37.0510   27.9420   40.8040 C   0  0  0  0  0  0  0  0  0  0  0  0
   36.7730   28.0500   39.7680 H   0  0  0  0  0  0  0  0  0  0  0  0
   36.8790   26.8280   41.5890 C   0  0  0  0  0  0  0  0  0  0  0  0
   36.4100   25.9570   41.1130 H   0  0  0  0  0  0  0  0  0  0  0  0
   37.2570   26.7520   42.9040 C   0  0  0  0  0  3  0  0  0  0  0  0
   37.8430   27.8860   43.4420 C   0  0  0  0  0  3  0  0  0  0  0  0
  2  1  1  0  0  0  0
  2  7  1  0  0  0  0
  3  2  2  0  0  0  0
  4  3  1  0  0  0  0
  4  5  2  0  0  0  0
  5  6  1  0  0  0  0
  6  7  2  0  0  0  0
  6 10  1  0  0  0  0
  7 22  1  0  0  0  0
  8  4  1  0  0  0  0
  9  5  1  0  0  0  0
 11 16  1  0  0  0  0
 11 17  1  0  0  0  0
 12 11  2  0  0  0  0
 13 14  2  0  0  0  0
 13 12  1  0  0  0  0
 14 15  1  0  0  0  0
 15  3  1  0  0  0  0
 15 16  2  0  0  0  0
 18 12  1  0  0  0  0
 19 13  1  0  0  0  0
 21 20  1  0  0  0  0
 21 28  1  0  0  0  0
 22 21  2  0  0  0  0
 23 22  1  0  0  0  0
 23 25  2  0  0  0  0
 24 23  1  0  0  0  0
 25 27  1  0  0  0  0
 26 25  1  0  0  0  0
 27 28  2  0  0  0  0
M  END
>  <minimizedAffinity>
-5.23755026

$$$$

 OpenBabel03242511263D

 28 30  0  0  0  0  0  0  0  0999 V2000
   39.5730   29.9220   39.8550 Cl  0  0  0  0  0  0  0  0  0  0  0  0
   39.0300   31.5700   39.9340 C   0  0  0  0  0  0  0  0  0  0  0  0
   39.8840   32.5700   40.2910 C   0  0  0  0  0  0  0  0  0  0  0  0
   39.4600   33.9000   40.3620 C   0  0  0  0  0  0  0  0  0  0  0  0
   38.1450   34.1590   40.0560 C   0  0  0  0  0  0  0  0  0  0  0  0
   37.2880   33.1450   39.6960 C   0  0  0  0  0  0  0  0  0  0  0  0
   37.7100   31.8370   39.6280 C   0  0  0  0  0  0  0  0  0  0  0  0
   40.2000   34.6330   40.6530 H   0  0  0  0  0  0  0  0  0  0  0  0
   37.8570   35.2000   40.1230 H   0  0  0  0  0  0  0  0  0  0  0  0
   36.2670   33.4550   39.4730 H   0  0  0  0  0  0  0  0  0  0  0  0
   43.5030   31.9970   39.9390 C   0  0  0  0  0  0  0  0  0  0  0  0
   43.8870   31.6400   41.2400 C   0  0  0  0  0  0  0  0  0  0  0  0
   42.8950   31.6010   42.2260 C   0  0  0  0  0  0  0  0  0  0  0  0
   41.6230   31.9090   41.8690 N   0  0  0  0  0  0  0  0  0  0  0  0
   41.2810   32.2490   40.6110 C   0  0  0  0  0  0  0  0  0  0  0  0
   42.2230   32.2920   39.6450 N   0  0  0  0  0  0  0  0  0  0  0  0
   44.2050   32.0540   39.1050 H   0  0  0  0  0  0  0  0  0  0  0  0
   44.9340   31.4100   41.4300 H   0  0  0  0  0  0  0  0  0  0  0  0
   43.1790   31.3270   43.2370 H   0  0  0  0  0  0  0  0  0  0  0  0
   36.1990   30.7080   41.6060 F   0  0  0  0  0  0  0  0  0  0  0  0
   36.0260   30.2830   40.3120 C   0  0  0  0  0  0  0  0  0  0  0  0
   36.7540   30.8040   39.2380 C   0  0  0  0  0  0  0  0  0  0  0  0
   36.4900   30.2960   37.9830 C   0  0  0  0  0  0  0  0  0  0  0  0
   37.0890   30.7450   37.2070 H   0  0  0  0  0  0  0  0  0  0  0  0
   35.5410   29.3160   37.8260 C   0  0  0  0  0  0  0  0  0  0  0  0
   35.3750   28.9500   36.8040 H   0  0  0  0  0  0  0  0  0  0  0  0
   34.8110   28.7840   38.8570 C   0  0  0  0  0  3  0  0  0  0  0  0
   35.0720   29.2900   40.1200 C   0  0  0  0  0  3  0  0  0  0  0  0
  1  2  1  0  0  0  0
  2  3  1  0  0  0  0
  3  4  2  0  0  0  0
  3 15  1  0  0  0  0
  4  8  1  0  0  0  0
  5  9  1  0  0  0  0
  5  4  1  0  0  0  0
  6  5  2  0  0  0  0
  7  6  1  0  0  0  0
  7  2  2  0  0  0  0
 10  6  1  0  0  0  0
 11 12  1  0  0  0  0
 12 18  1  0  0  0  0
 12 13  2  0  0  0  0
 13 19  1  0  0  0  0
 14 13  1  0  0  0  0
 15 14  2  0  0  0  0
 16 11  2  0  0  0  0
 16 15  1  0  0  0  0
 17 11  1  0  0  0  0
 21 20  1  0  0  0  0
 22  7  1  0  0  0  0
 22 21  2  0  0  0  0
 23 22  1  0  0  0  0
 24 23  1  0  0  0  0
 25 23  2  0  0  0  0
 25 27  1  0  0  0  0
 26 25  1  0  0  0  0
 27 28  2  0  0  0  0
 28 21  1  0  0  0  0
M  END
>  <minimizedAffinity>
-5.23018694

$$$$

 OpenBabel03242511263D

 28 30  0  0  0  0  0  0  0  0999 V2000
   37.8380   27.5080   39.2210 Cl  0  0  0  0  0  0  0  0  0  0  0  0
   37.5060   27.6070   40.9230 C   0  0  0  0  0  0  0  0  0  0  0  0
   37.4920   28.8100   41.5630 C   0  0  0  0  0  0  0  0  0  0  0  0
   37.2300   28.9050   42.9320 C   0  0  0  0  0  0  0  0  0  0  0  0
   36.9850   27.7340   43.6090 C   0  0  0  0  0  0  0  0  0  0  0  0
   37.0000   26.5230   42.9580 C   0  0  0  0  0  0  0  0  0  0  0  0
   37.2590   26.4340   41.6090 C   0  0  0  0  0  0  0  0  0  0  0  0
   37.2380   29.8970   43.3630 H   0  0  0  0  0  0  0  0  0  0  0  0
   36.7860   27.8500   44.6660 H   0  0  0  0  0  0  0  0  0  0  0  0
   36.7930   25.6550   43.5830 H   0  0  0  0  0  0  0  0  0  0  0  0
   36.9860   31.8630   39.5690 C   0  0  0  0  0  0  0  0  0  0  0  0
   38.2950   32.3290   39.3800 C   0  0  0  0  0  0  0  0  0  0  0  0
   39.3390   31.5870   39.9420 C   0  0  0  0  0  0  0  0  0  0  0  0
   39.0280   30.4640   40.6350 N   0  0  0  0  0  0  0  0  0  0  0  0
   37.7600   30.0380   40.8010 C   0  0  0  0  0  0  0  0  0  0  0  0
   36.7390   30.7390   40.2670 N   0  0  0  0  0  0  0  0  0  0  0  0
   36.1070   32.3730   39.1680 H   0  0  0  0  0  0  0  0  0  0  0  0
   38.4450   33.2430   38.8080 H   0  0  0  0  0  0  0  0  0  0  0  0
   40.3570   31.9380   39.8030 H   0  0  0  0  0  0  0  0  0  0  0  0
   39.5820   24.9970   41.6880 F   0  0  0  0  0  0  0  0  0  0  0  0
   38.4870   24.4570   41.0610 C   0  0  0  0  0  0  0  0  0  0  0  0
   37.2600   25.1190   40.9720 C   0  0  0  0  0  0  0  0  0  0  0  0
   36.2310   24.4740   40.3170 C   0  0  0  0  0  0  0  0  0  0  0  0
   35.3180   25.0450   40.2880 H   0  0  0  0  0  0  0  0  0  0  0  0
   36.4370   23.2260   39.7810 C   0  0  0  0  0  0  0  0  0  0  0  0
   35.5840   22.7620   39.2710 H   0  0  0  0  0  0  0  0  0  0  0  0
   37.6280   22.5500   39.8510 C   0  0  0  0  0  3  0  0  0  0  0  0
   38.6630   23.1930   40.5080 C   0  0  0  0  0  3  0  0  0  0  0  0
  1  2  1  0  0  0  0
  2  3  2  0  0  0  0
  2  7  1  0  0  0  0
  3  4  1  0  0  0  0
  4  8  1  0  0  0  0
  4  5  2  0  0  0  0
  5  9  1  0  0  0  0
  6 10  1  0  0  0  0
  6  5  1  0  0  0  0
  7  6  2  0  0  0  0
 11 16  1  0  0  0  0
 12 11  2  0  0  0  0
 12 13  1  0  0  0  0
 13 14  2  0  0  0  0
 14 15  1  0  0  0  0
 15  3  1  0  0  0  0
 16 15  2  0  0  0  0
 17 11  1  0  0  0  0
 18 12  1  0  0  0  0
 19 13  1  0  0  0  0
 21 20  1  0  0  0  0
 22 21  1  0  0  0  0
 22  7  1  0  0  0  0
 23 22  2  0  0  0  0
 24 23  1  0  0  0  0
 25 27  2  0  0  0  0
 25 23  1  0  0  0  0
 26 25  1  0  0  0  0
 27 28  1  0  0  0  0
 28 21  2  0  0  0  0
M  END
>  <minimizedAffinity>
-5.22381163

$$$$

 OpenBabel03242511263D

 28 30  0  0  0  0  0  0  0  0999 V2000
   37.7420   27.2150   39.5010 Cl  0  0  0  0  0  0  0  0  0  0  0  0
   38.3470   27.0710   41.1220 C   0  0  0  0  0  0  0  0  0  0  0  0
   38.4450   28.1630   41.9320 C   0  0  0  0  0  0  0  0  0  0  0  0
   38.9330   28.0620   43.2370 C   0  0  0  0  0  0  0  0  0  0  0  0
   39.3120   26.8140   43.6730 C   0  0  0  0  0  0  0  0  0  0  0  0
   39.2110   25.7160   42.8520 C   0  0  0  0  0  0  0  0  0  0  0  0
   38.7300   25.8200   41.5670 C   0  0  0  0  0  0  0  0  0  0  0  0
   38.9770   28.9760   43.8130 H   0  0  0  0  0  0  0  0  0  0  0  0
   39.6830   26.7790   44.6890 H   0  0  0  0  0  0  0  0  0  0  0  0
   39.5370   24.7740   43.2920 H   0  0  0  0  0  0  0  0  0  0  0  0
   38.5630   31.5310   40.4510 C   0  0  0  0  0  0  0  0  0  0  0  0
   37.2190   31.9310   40.4850 C   0  0  0  0  0  0  0  0  0  0  0  0
   36.2850   31.0350   41.0170 C   0  0  0  0  0  0  0  0  0  0  0  0
   36.7310   29.8370   41.4690 N   0  0  0  0  0  0  0  0  0  0  0  0
   38.0290   29.4780   41.4240 C   0  0  0  0  0  0  0  0  0  0  0  0
   38.9450   30.3270   40.9150 N   0  0  0  0  0  0  0  0  0  0  0  0
   39.3630   32.1610   40.0550 H   0  0  0  0  0  0  0  0  0  0  0  0
   36.9580   32.9140   40.0990 H   0  0  0  0  0  0  0  0  0  0  0  0
   35.2420   31.3330   41.0490 H   0  0  0  0  0  0  0  0  0  0  0  0
   36.4920   24.2730   41.8210 F   0  0  0  0  0  0  0  0  0  0  0  0
   37.4700   23.8890   40.9370 C   0  0  0  0  0  0  0  0  0  0  0  0
   38.6460   24.6170   40.7420 C   0  0  0  0  0  0  0  0  0  0  0  0
   39.5550   24.1300   39.8250 C   0  0  0  0  0  0  0  0  0  0  0  0
   40.4350   24.7430   39.7300 H   0  0  0  0  0  0  0  0  0  0  0  0
   39.2850   22.9670   39.1450 C   0  0  0  0  0  0  0  0  0  0  0  0
   40.0440   22.6280   38.4290 H   0  0  0  0  0  0  0  0  0  0  0  0
   38.1420   22.2300   39.3140 C   0  0  0  0  0  3  0  0  0  0  0  0
   37.2260   22.7150   40.2320 C   0  0  0  0  0  3  0  0  0  0  0  0
  1  2  1  0  0  0  0
  2  7  2  0  0  0  0
  2  3  1  0  0  0  0
  3  4  2  0  0  0  0
  4  5  1  0  0  0  0
  4  8  1  0  0  0  0
  5  9  1  0  0  0  0
  6 10  1  0  0  0  0
  6  5  2  0  0  0  0
  7  6  1  0  0  0  0
 11 12  2  0  0  0  0
 11 16  1  0  0  0  0
 12 13  1  0  0  0  0
 13 19  1  0  0  0  0
 13 14  2  0  0  0  0
 15 14  1  0  0  0  0
 15  3  1  0  0  0  0
 16 15  2  0  0  0  0
 17 11  1  0  0  0  0
 18 12  1  0  0  0  0
 21 20  1  0  0  0  0
 22 21  1  0  0  0  0
 22  7  1  0  0  0  0
 23 22  2  0  0  0  0
 24 23  1  0  0  0  0
 25 27  2  0  0  0  0
 25 23  1  0  0  0  0
 26 25  1  0  0  0  0
 27 28  1  0  0  0  0
 28 21  2  0  0  0  0
M  END
>  <minimizedAffinity>
-5.2163496

$$$$

 OpenBabel03242511263D

 28 30  0  0  0  0  0  0  0  0999 V2000
   39.4470   27.2980   40.1240 Cl  0  0  0  0  0  0  0  0  0  0  0  0
   38.4090   27.4780   41.5050 C   0  0  0  0  0  0  0  0  0  0  0  0
   38.5030   28.5730   42.3110 C   0  0  0  0  0  0  0  0  0  0  0  0
   37.6770   28.7300   43.4270 C   0  0  0  0  0  0  0  0  0  0  0  0
   36.7640   27.7340   43.6790 C   0  0  0  0  0  0  0  0  0  0  0  0
   36.6730   26.6320   42.8620 C   0  0  0  0  0  0  0  0  0  0  0  0
   37.4890   26.4810   41.7640 C   0  0  0  0  0  0  0  0  0  0  0  0
   37.8160   29.6280   44.0150 H   0  0  0  0  0  0  0  0  0  0  0  0
   36.1430   27.8940   44.5520 H   0  0  0  0  0  0  0  0  0  0  0  0
   35.9170   25.9010   43.1480 H   0  0  0  0  0  0  0  0  0  0  0  0
   41.6400   30.4980   42.2530 C   0  0  0  0  0  0  0  0  0  0  0  0
   41.3250   31.5760   41.4130 C   0  0  0  0  0  0  0  0  0  0  0  0
   40.0350   31.6290   40.8750 C   0  0  0  0  0  0  0  0  0  0  0  0
   39.1650   30.6390   41.1950 N   0  0  0  0  0  0  0  0  0  0  0  0
   39.4940   29.6140   42.0050 C   0  0  0  0  0  0  0  0  0  0  0  0
   40.7330   29.5440   42.5340 N   0  0  0  0  0  0  0  0  0  0  0  0
   42.6190   30.3710   42.7190 H   0  0  0  0  0  0  0  0  0  0  0  0
   42.0910   32.3240   41.2150 H   0  0  0  0  0  0  0  0  0  0  0  0
   39.7780   32.4590   40.2240 H   0  0  0  0  0  0  0  0  0  0  0  0
   38.9280   24.2690   42.4750 F   0  0  0  0  0  0  0  0  0  0  0  0
   38.1160   24.2080   41.3700 C   0  0  0  0  0  0  0  0  0  0  0  0
   37.3450   25.2890   40.9330 C   0  0  0  0  0  0  0  0  0  0  0  0
   36.5680   25.1060   39.8080 C   0  0  0  0  0  0  0  0  0  0  0  0
   36.0030   25.9810   39.5320 H   0  0  0  0  0  0  0  0  0  0  0  0
   36.5720   23.8940   39.1620 C   0  0  0  0  0  0  0  0  0  0  0  0
   35.9350   23.8060   38.2730 H   0  0  0  0  0  0  0  0  0  0  0  0
   37.3170   22.8150   39.5640 C   0  0  0  0  0  3  0  0  0  0  0  0
   38.0990   22.9930   40.6930 C   0  0  0  0  0  3  0  0  0  0  0  0
  1  2  1  0  0  0  0
  2  7  2  0  0  0  0
  2  3  1  0  0  0  0
  3  4  2  0  0  0  0
  4  5  1  0  0  0  0
  4  8  1  0  0  0  0
  5  9  1  0  0  0  0
  6 10  1  0  0  0  0
  6  5  2  0  0  0  0
  7  6  1  0  0  0  0
 11 16  1  0  0  0  0
 11 17  1  0  0  0  0
 12 11  2  0  0  0  0
 13 14  2  0  0  0  0
 13 12  1  0  0  0  0
 14 15  1  0  0  0  0
 15  3  1  0  0  0  0
 15 16  2  0  0  0  0
 18 12  1  0  0  0  0
 19 13  1  0  0  0  0
 21 20  1  0  0  0  0
 22 21  1  0  0  0  0
 22  7  1  0  0  0  0
 23 22  2  0  0  0  0
 24 23  1  0  0  0  0
 25 27  2  0  0  0  0
 25 23  1  0  0  0  0
 26 25  1  0  0  0  0
 27 28  1  0  0  0  0
 28 21  2  0  0  0  0
M  END
>  <minimizedAffinity>
-5.14419651

$$$$

 OpenBabel03242511263D

 28 30  0  0  0  0  0  0  0  0999 V2000
   36.2630   26.3450   38.7860 Cl  0  0  0  0  0  0  0  0  0  0  0  0
   36.3530   27.7710   39.7720 C   0  0  0  0  0  0  0  0  0  0  0  0
   37.0630   27.7720   40.9360 C   0  0  0  0  0  0  0  0  0  0  0  0
   37.1410   28.9110   41.7420 C   0  0  0  0  0  0  0  0  0  0  0  0
   36.4730   30.0330   41.3120 C   0  0  0  0  0  0  0  0  0  0  0  0
   35.7600   30.0260   40.1370 C   0  0  0  0  0  0  0  0  0  0  0  0
   35.6850   28.9020   39.3470 C   0  0  0  0  0  0  0  0  0  0  0  0
   37.7240   28.8280   42.6490 H   0  0  0  0  0  0  0  0  0  0  0  0
   36.5600   30.8930   41.9630 H   0  0  0  0  0  0  0  0  0  0  0  0
   35.2680   30.9650   39.8850 H   0  0  0  0  0  0  0  0  0  0  0  0
   37.7010   24.3830   42.2240 C   0  0  0  0  0  0  0  0  0  0  0  0
   39.0970   24.2780   42.1400 C   0  0  0  0  0  0  0  0  0  0  0  0
   39.8040   25.3760   41.6390 C   0  0  0  0  0  0  0  0  0  0  0  0
   39.1030   26.4750   41.2660 N   0  0  0  0  0  0  0  0  0  0  0  0
   37.7610   26.5490   41.3580 C   0  0  0  0  0  0  0  0  0  0  0  0
   37.0600   25.5020   41.8380 N   0  0  0  0  0  0  0  0  0  0  0  0
   37.0640   23.5800   42.6020 H   0  0  0  0  0  0  0  0  0  0  0  0
   39.5710   23.3540   42.4650 H   0  0  0  0  0  0  0  0  0  0  0  0
   40.8850   25.3080   41.5690 H   0  0  0  0  0  0  0  0  0  0  0  0
   37.0560   29.3400   37.0240 F   0  0  0  0  0  0  0  0  0  0  0  0
   35.6940   29.1840   36.9730 C   0  0  0  0  0  0  0  0  0  0  0  0
   34.9120   28.9560   38.1080 C   0  0  0  0  0  0  0  0  0  0  0  0
   33.5510   28.8150   37.9290 C   0  0  0  0  0  0  0  0  0  0  0  0
   33.0150   28.6430   38.8480 H   0  0  0  0  0  0  0  0  0  0  0  0
   33.0140   28.9000   36.6680 C   0  0  0  0  0  0  0  0  0  0  0  0
   31.9260   28.7800   36.5870 H   0  0  0  0  0  0  0  0  0  0  0  0
   33.7520   29.1230   35.5350 C   0  0  0  0  0  3  0  0  0  0  0  0
   35.1190   29.2650   35.7090 C   0  0  0  0  0  3  0  0  0  0  0  0
  1  2  1  0  0  0  0
  2  3  1  0  0  0  0
  3 15  1  0  0  0  0
  3  4  2  0  0  0  0
  4  8  1  0  0  0  0
  5  4  1  0  0  0  0
  5  9  1  0  0  0  0
  6  5  2  0  0  0  0
  7  2  2  0  0  0  0
  7  6  1  0  0  0  0
 10  6  1  0  0  0  0
 11 17  1  0  0  0  0
 12 11  1  0  0  0  0
 12 18  1  0  0  0  0
 13 12  2  0  0  0  0
 14 15  2  0  0  0  0
 14 13  1  0  0  0  0
 15 16  1  0  0  0  0
 16 11  2  0  0  0  0
 19 13  1  0  0  0  0
 21 20  1  0  0  0  0
 21 22  1  0  0  0  0
 22  7  1  0  0  0  0
 23 22  2  0  0  0  0
 23 24  1  0  0  0  0
 25 23  1  0  0  0  0
 26 25  1  0  0  0  0
 27 28  1  0  0  0  0
 27 25  2  0  0  0  0
 28 21  2  0  0  0  0
M  END
>  <minimizedAffinity>
-5.11956882

$$$$
