
 OpenBabel03252500423D

 28 30  0  0  1  0  0  0  0  0999 V2000
   37.5390   28.9790   41.9820 C   0  0  1  0  0  0  0  0  0  0  0  0
   37.6760   29.0280   43.4970 C   0  0  0  0  0  0  0  0  0  0  0  0
   37.2370   27.7670   42.8000 C   0  0  2  0  0  0  0  0  0  0  0  0
   38.5060   28.8780   41.4720 H   0  0  0  0  0  0  0  0  0  0  0  0
   38.6870   29.0820   43.9580 H   0  0  0  0  0  0  0  0  0  0  0  0
   36.9380   29.6030   44.0770 H   0  0  0  0  0  0  0  0  0  0  0  0
   36.1700   27.4550   42.8900 H   0  0  0  0  0  0  0  0  0  0  0  0
   36.7110   25.4210   41.4770 F   0  0  0  0  0  0  0  0  0  0  0  0
   37.8430   25.5020   42.2160 C   0  0  0  0  0  0  0  0  0  0  0  0
   38.1850   26.6560   42.9190 C   0  0  0  0  0  0  0  0  0  0  0  0
   39.3490   26.6760   43.6510 C   0  0  0  0  0  0  0  0  0  0  0  0
   39.5990   27.5610   44.1810 H   0  0  0  0  0  0  0  0  0  0  0  0
   40.1560   25.5590   43.6790 C   0  0  0  0  0  0  0  0  0  0  0  0
   41.0640   25.6040   44.2630 H   0  0  0  0  0  0  0  0  0  0  0  0
   39.8060   24.4180   42.9770 C   0  0  0  0  0  3  0  0  0  0  0  0
   38.6390   24.3700   42.2320 C   0  0  0  0  0  3  0  0  0  0  0  0
   36.3610   29.6900   41.4070 C   0  0  0  0  0  0  0  0  0  0  0  0
   35.8020   30.2460   42.1760 H   0  0  0  0  0  0  0  0  0  0  0  0
   35.7120   28.9190   40.9090 H   0  0  0  0  0  0  0  0  0  0  0  0
   36.7340   30.6400   40.3440 C   0  0  0  0  0  0  0  0  0  0  0  0
   36.8030   30.1040   39.0750 C   0  0  0  0  0  0  0  0  0  0  0  0
   37.1500   30.8980   37.9820 C   0  0  0  0  0  0  0  0  0  0  0  0
   37.4070   32.2120   38.2550 N   0  0  0  0  0  0  0  0  0  0  0  0
   37.3330   32.7270   39.5100 C   0  0  0  0  0  0  0  0  0  0  0  0
   37.0010   31.9470   40.5410 N   0  0  0  0  0  0  0  0  0  0  0  0
   36.6430   29.1300   38.6390 H   0  0  0  0  0  0  0  0  0  0  0  0
   37.2610   30.7040   36.9480 H   0  0  0  0  0  0  0  0  0  0  0  0
   37.5500   33.7870   39.6700 H   0  0  0  0  0  0  0  0  0  0  0  0
  1  4  1  6  0  0  0
  1  3  1  0  0  0  0
  1  2  1  0  0  0  0
  2  5  1  0  0  0  0
  2  6  1  0  0  0  0
  3  7  1  1  0  0  0
  3 10  1  0  0  0  0
  3  2  1  0  0  0  0
  8  9  1  0  0  0  0
  9 16  2  0  0  0  0
  9 10  1  0  0  0  0
 10 11  2  0  0  0  0
 11 13  1  0  0  0  0
 11 12  1  0  0  0  0
 13 14  1  0  0  0  0
 15 13  2  0  0  0  0
 16 15  1  0  0  0  0
 17  1  1  0  0  0  0
 17 18  1  0  0  0  0
 19 17  1  0  0  0  0
 20 25  1  0  0  0  0
 20 17  1  0  0  0  0
 21 20  2  0  0  0  0
 22 23  2  0  0  0  0
 22 21  1  0  0  0  0
 23 24  1  0  0  0  0
 24 28  1  0  0  0  0
 24 25  2  0  0  0  0
 26 21  1  0  0  0  0
 27 22  1  0  0  0  0
M  END
>  <minimizedAffinity>
-5.32367134

$$$$

 OpenBabel03252500423D

 28 30  0  0  1  0  0  0  0  0999 V2000
   36.6340   30.4520   39.2820 C   0  0  1  0  0  0  0  0  0  0  0  0
   36.2910   29.0450   38.8160 C   0  0  0  0  0  0  0  0  0  0  0  0
   37.4600   29.2920   39.7320 C   0  0  2  0  0  0  0  0  0  0  0  0
   35.9780   30.8030   40.0890 H   0  0  0  0  0  0  0  0  0  0  0  0
   35.3800   28.5410   39.2060 H   0  0  0  0  0  0  0  0  0  0  0  0
   36.4820   28.7730   37.7660 H   0  0  0  0  0  0  0  0  0  0  0  0
   38.4910   29.1970   39.3160 H   0  0  0  0  0  0  0  0  0  0  0  0
   38.5570   30.5890   41.8890 F   0  0  0  0  0  0  0  0  0  0  0  0
   37.8960   29.4260   42.1050 C   0  0  0  0  0  0  0  0  0  0  0  0
   37.3110   28.7040   41.0660 C   0  0  0  0  0  0  0  0  0  0  0  0
   36.6530   27.5310   41.3520 C   0  0  0  0  0  0  0  0  0  0  0  0
   36.2110   26.9910   40.5520 H   0  0  0  0  0  0  0  0  0  0  0  0
   36.5840   27.0870   42.6550 C   0  0  0  0  0  0  0  0  0  0  0  0
   36.0610   26.1620   42.8480 H   0  0  0  0  0  0  0  0  0  0  0  0
   37.1700   27.8120   43.6790 C   0  0  0  0  0  3  0  0  0  0  0  0
   37.8380   28.9980   43.4210 C   0  0  0  0  0  3  0  0  0  0  0  0
   37.2600   31.3450   38.2660 C   0  0  0  0  0  0  0  0  0  0  0  0
   36.5080   31.9390   37.7230 H   0  0  0  0  0  0  0  0  0  0  0  0
   37.8510   30.6950   37.5640 H   0  0  0  0  0  0  0  0  0  0  0  0
   38.2350   32.2810   38.8540 C   0  0  0  0  0  0  0  0  0  0  0  0
   37.7050   33.2140   39.7210 C   0  0  0  0  0  0  0  0  0  0  0  0
   38.5210   34.1590   40.3410 C   0  0  0  0  0  0  0  0  0  0  0  0
   39.8520   34.0920   40.0350 N   0  0  0  0  0  0  0  0  0  0  0  0
   40.3610   33.1660   39.1800 C   0  0  0  0  0  0  0  0  0  0  0  0
   39.5590   32.2720   38.5980 N   0  0  0  0  0  0  0  0  0  0  0  0
   36.7210   33.4430   40.1000 H   0  0  0  0  0  0  0  0  0  0  0  0
   38.3360   34.9470   41.0220 H   0  0  0  0  0  0  0  0  0  0  0  0
   41.4350   33.1600   38.9720 H   0  0  0  0  0  0  0  0  0  0  0  0
  1  3  1  0  0  0  0
  1  4  1  1  0  0  0
  2  5  1  0  0  0  0
  2  1  1  0  0  0  0
  2  3  1  0  0  0  0
  3  7  1  6  0  0  0
  3 10  1  0  0  0  0
  6  2  1  0  0  0  0
  8  9  1  0  0  0  0
  9 16  1  0  0  0  0
 10 11  1  0  0  0  0
 10  9  2  0  0  0  0
 11 13  2  0  0  0  0
 12 11  1  0  0  0  0
 13 14  1  0  0  0  0
 13 15  1  0  0  0  0
 16 15  2  0  0  0  0
 17 20  1  0  0  0  0
 17  1  1  0  0  0  0
 18 17  1  0  0  0  0
 19 17  1  0  0  0  0
 20 21  1  0  0  0  0
 21 26  1  0  0  0  0
 21 22  2  0  0  0  0
 22 27  1  0  0  0  0
 23 22  1  0  0  0  0
 24 23  2  0  0  0  0
 25 20  2  0  0  0  0
 25 24  1  0  0  0  0
 28 24  1  0  0  0  0
M  END
>  <minimizedAffinity>
-5.0574894

$$$$

 OpenBabel03252500423D

 28 30  0  0  1  0  0  0  0  0999 V2000
   36.9500   28.5240   41.3240 C   0  0  1  0  0  0  0  0  0  0  0  0
   37.4090   29.0710   42.6680 C   0  0  0  0  0  0  0  0  0  0  0  0
   36.9200   27.6530   42.5360 C   0  0  2  0  0  0  0  0  0  0  0  0
   37.7860   28.2550   40.6670 H   0  0  0  0  0  0  0  0  0  0  0  0
   38.4900   29.2680   42.8430 H   0  0  0  0  0  0  0  0  0  0  0  0
   36.7770   29.8090   43.1840 H   0  0  0  0  0  0  0  0  0  0  0  0
   35.9220   27.3930   42.9630 H   0  0  0  0  0  0  0  0  0  0  0  0
   36.5880   25.1360   41.4910 F   0  0  0  0  0  0  0  0  0  0  0  0
   37.7020   25.3880   42.2210 C   0  0  0  0  0  0  0  0  0  0  0  0
   37.9470   26.6380   42.7870 C   0  0  0  0  0  0  0  0  0  0  0  0
   39.0960   26.8300   43.5170 C   0  0  0  0  0  0  0  0  0  0  0  0
   39.2710   27.7870   43.9420 H   0  0  0  0  0  0  0  0  0  0  0  0
   39.9840   25.7890   43.6780 C   0  0  0  0  0  0  0  0  0  0  0  0
   40.8780   25.9700   44.2560 H   0  0  0  0  0  0  0  0  0  0  0  0
   39.7300   24.5510   43.1110 C   0  0  0  0  0  3  0  0  0  0  0  0
   38.5800   24.3290   42.3710 C   0  0  0  0  0  3  0  0  0  0  0  0
   35.6280   29.0120   40.8360 C   0  0  0  0  0  0  0  0  0  0  0  0
   35.3870   30.0110   41.2310 H   0  0  0  0  0  0  0  0  0  0  0  0
   34.8550   28.2550   41.1440 H   0  0  0  0  0  0  0  0  0  0  0  0
   35.5540   29.0780   39.3660 C   0  0  0  0  0  0  0  0  0  0  0  0
   36.7000   29.5190   38.7390 C   0  0  0  0  0  0  0  0  0  0  0  0
   36.7580   29.6310   37.3500 C   0  0  0  0  0  0  0  0  0  0  0  0
   35.6230   29.2780   36.6740 N   0  0  0  0  0  0  0  0  0  0  0  0
   34.5010   28.8430   37.3050 C   0  0  0  0  0  0  0  0  0  0  0  0
   34.4690   28.7460   38.6360 N   0  0  0  0  0  0  0  0  0  0  0  0
   37.6810   29.8370   39.0590 H   0  0  0  0  0  0  0  0  0  0  0  0
   37.5120   29.9390   36.6750 H   0  0  0  0  0  0  0  0  0  0  0  0
   33.6220   28.5750   36.7120 H   0  0  0  0  0  0  0  0  0  0  0  0
  1  4  1  6  0  0  0
  1  3  1  0  0  0  0
  1  2  1  0  0  0  0
  2  5  1  0  0  0  0
  2  6  1  0  0  0  0
  3  2  1  0  0  0  0
  3 10  1  0  0  0  0
  3  7  1  1  0  0  0
  8  9  1  0  0  0  0
  9 16  2  0  0  0  0
  9 10  1  0  0  0  0
 10 11  2  0  0  0  0
 11 13  1  0  0  0  0
 11 12  1  0  0  0  0
 13 14  1  0  0  0  0
 15 13  2  0  0  0  0
 16 15  1  0  0  0  0
 17 19  1  0  0  0  0
 17 18  1  0  0  0  0
 17  1  1  0  0  0  0
 20 17  1  0  0  0  0
 21 26  1  0  0  0  0
 21 20  1  0  0  0  0
 22 21  2  0  0  0  0
 23 24  2  0  0  0  0
 23 22  1  0  0  0  0
 24 25  1  0  0  0  0
 25 20  2  0  0  0  0
 27 22  1  0  0  0  0
 28 24  1  0  0  0  0
M  END
>  <minimizedAffinity>
-5.04815054

$$$$

 OpenBabel03252500423D

 28 30  0  0  1  0  0  0  0  0999 V2000
   36.2080   30.1440   40.2290 C   0  0  1  0  0  0  0  0  0  0  0  0
   34.9720   29.3280   39.8830 C   0  0  0  0  0  0  0  0  0  0  0  0
   36.3490   28.7300   39.7710 C   0  0  2  0  0  0  0  0  0  0  0  0
   36.3750   30.2250   41.3100 H   0  0  0  0  0  0  0  0  0  0  0  0
   34.2880   28.9930   40.6940 H   0  0  0  0  0  0  0  0  0  0  0  0
   34.4170   29.5690   38.9640 H   0  0  0  0  0  0  0  0  0  0  0  0
   36.7710   28.5540   38.7530 H   0  0  0  0  0  0  0  0  0  0  0  0
   36.6270   26.1800   38.7940 F   0  0  0  0  0  0  0  0  0  0  0  0
   36.7340   26.3720   40.1310 C   0  0  0  0  0  0  0  0  0  0  0  0
   36.6050   27.6340   40.7090 C   0  0  0  0  0  0  0  0  0  0  0  0
   36.7240   27.7620   42.0720 C   0  0  0  0  0  0  0  0  0  0  0  0
   36.6240   28.7280   42.5010 H   0  0  0  0  0  0  0  0  0  0  0  0
   36.9660   26.6460   42.8440 C   0  0  0  0  0  0  0  0  0  0  0  0
   37.0540   26.7780   43.9130 H   0  0  0  0  0  0  0  0  0  0  0  0
   37.0920   25.3970   42.2590 C   0  0  0  0  0  3  0  0  0  0  0  0
   36.9770   25.2380   40.8880 C   0  0  0  0  0  3  0  0  0  0  0  0
   36.5980   31.1930   39.2420 C   0  0  0  0  0  0  0  0  0  0  0  0
   35.7800   31.9070   39.0580 H   0  0  0  0  0  0  0  0  0  0  0  0
   36.9020   30.6690   38.2950 H   0  0  0  0  0  0  0  0  0  0  0  0
   37.7810   31.9610   39.6670 C   0  0  0  0  0  0  0  0  0  0  0  0
   37.5710   33.3120   39.8480 C   0  0  0  0  0  0  0  0  0  0  0  0
   38.6120   34.1510   40.2460 C   0  0  0  0  0  0  0  0  0  0  0  0
   39.8240   33.5490   40.4390 N   0  0  0  0  0  0  0  0  0  0  0  0
   40.0160   32.2160   40.2580 C   0  0  0  0  0  0  0  0  0  0  0  0
   39.0050   31.4340   39.8760 N   0  0  0  0  0  0  0  0  0  0  0  0
   36.7280   33.9800   39.7610 H   0  0  0  0  0  0  0  0  0  0  0  0
   38.6770   35.1890   40.4400 H   0  0  0  0  0  0  0  0  0  0  0  0
   41.0090   31.7890   40.4270 H   0  0  0  0  0  0  0  0  0  0  0  0
  1  4  1  1  0  0  0
  2  1  1  0  0  0  0
  2  5  1  0  0  0  0
  3  7  1  6  0  0  0
  3  2  1  0  0  0  0
  3  1  1  0  0  0  0
  3 10  1  0  0  0  0
  6  2  1  0  0  0  0
  8  9  1  0  0  0  0
  9 10  2  0  0  0  0
  9 16  1  0  0  0  0
 10 11  1  0  0  0  0
 11 12  1  0  0  0  0
 11 13  2  0  0  0  0
 13 14  1  0  0  0  0
 15 13  1  0  0  0  0
 16 15  2  0  0  0  0
 17 20  1  0  0  0  0
 17  1  1  0  0  0  0
 18 17  1  0  0  0  0
 19 17  1  0  0  0  0
 20 21  2  0  0  0  0
 20 25  1  0  0  0  0
 21 22  1  0  0  0  0
 22 23  2  0  0  0  0
 22 27  1  0  0  0  0
 24 28  1  0  0  0  0
 24 23  1  0  0  0  0
 25 24  2  0  0  0  0
 26 21  1  0  0  0  0
M  END
>  <minimizedAffinity>
-4.98245525

$$$$

 OpenBabel03252500423D

 28 30  0  0  1  0  0  0  0  0999 V2000
   39.6370   29.0300   42.1760 C   0  0  1  0  0  0  0  0  0  0  0  0
   40.7260   28.2950   42.9420 C   0  0  0  0  0  0  0  0  0  0  0  0
   39.2710   28.0180   43.2100 C   0  0  2  0  0  0  0  0  0  0  0  0
   39.4860   28.6310   41.1640 H   0  0  0  0  0  0  0  0  0  0  0  0
   41.3480   27.5330   42.4230 H   0  0  0  0  0  0  0  0  0  0  0  0
   41.3120   28.8480   43.6920 H   0  0  0  0  0  0  0  0  0  0  0  0
   38.8250   28.3880   44.1630 H   0  0  0  0  0  0  0  0  0  0  0  0
   36.6400   27.5800   42.5580 F   0  0  0  0  0  0  0  0  0  0  0  0
   37.4930   26.5280   42.5330 C   0  0  0  0  0  0  0  0  0  0  0  0
   38.8430   26.6630   42.8510 C   0  0  0  0  0  0  0  0  0  0  0  0
   39.6570   25.5560   42.8070 C   0  0  0  0  0  0  0  0  0  0  0  0
   40.6830   25.6710   43.0500 H   0  0  0  0  0  0  0  0  0  0  0  0
   39.1270   24.3330   42.4520 C   0  0  0  0  0  0  0  0  0  0  0  0
   39.7910   23.4820   42.4260 H   0  0  0  0  0  0  0  0  0  0  0  0
   37.7840   24.2110   42.1390 C   0  0  0  0  0  3  0  0  0  0  0  0
   36.9410   25.3090   42.1750 C   0  0  0  0  0  3  0  0  0  0  0  0
   39.4190   30.4570   42.5510 C   0  0  0  0  0  0  0  0  0  0  0  0
   40.3700   30.9910   42.7040 H   0  0  0  0  0  0  0  0  0  0  0  0
   38.7920   30.4680   43.4850 H   0  0  0  0  0  0  0  0  0  0  0  0
   38.6420   31.1990   41.5430 C   0  0  0  0  0  0  0  0  0  0  0  0
   37.4960   30.5690   41.1040 C   0  0  0  0  0  0  0  0  0  0  0  0
   36.6750   31.1640   40.1470 C   0  0  0  0  0  0  0  0  0  0  0  0
   37.0790   32.3870   39.6890 N   0  0  0  0  0  0  0  0  0  0  0  0
   38.2100   32.9970   40.1320 C   0  0  0  0  0  0  0  0  0  0  0  0
   38.9810   32.4070   41.0480 N   0  0  0  0  0  0  0  0  0  0  0  0
   36.9970   29.6370   41.3210 H   0  0  0  0  0  0  0  0  0  0  0  0
   35.7730   30.8720   39.6770 H   0  0  0  0  0  0  0  0  0  0  0  0
   38.4850   33.9760   39.7300 H   0  0  0  0  0  0  0  0  0  0  0  0
  1  4  1  6  0  0  0
  1 17  1  0  0  0  0
  1  2  1  0  0  0  0
  1  3  1  0  0  0  0
  2  3  1  0  0  0  0
  2  6  1  0  0  0  0
  3  7  1  1  0  0  0
  5  2  1  0  0  0  0
  9  8  1  0  0  0  0
  9 10  1  0  0  0  0
 10  3  1  0  0  0  0
 11 10  2  0  0  0  0
 11 12  1  0  0  0  0
 13 11  1  0  0  0  0
 14 13  1  0  0  0  0
 15 16  1  0  0  0  0
 15 13  2  0  0  0  0
 16  9  2  0  0  0  0
 17 18  1  0  0  0  0
 17 19  1  0  0  0  0
 20 17  1  0  0  0  0
 21 26  1  0  0  0  0
 21 20  1  0  0  0  0
 22 21  2  0  0  0  0
 23 24  2  0  0  0  0
 23 22  1  0  0  0  0
 24 25  1  0  0  0  0
 25 20  2  0  0  0  0
 27 22  1  0  0  0  0
 28 24  1  0  0  0  0
M  END
>  <minimizedAffinity>
-4.96461916

$$$$

 OpenBabel03252500423D

 28 30  0  0  1  0  0  0  0  0999 V2000
   38.9430   27.8390   42.5290 C   0  0  1  0  0  0  0  0  0  0  0  0
   39.1650   26.7510   43.5700 C   0  0  0  0  0  0  0  0  0  0  0  0
   37.8670   26.8430   42.8110 C   0  0  2  0  0  0  0  0  0  0  0  0
   39.4400   27.6210   41.5750 H   0  0  0  0  0  0  0  0  0  0  0  0
   39.8720   25.9200   43.3570 H   0  0  0  0  0  0  0  0  0  0  0  0
   39.1830   27.0320   44.6340 H   0  0  0  0  0  0  0  0  0  0  0  0
   36.9590   27.2000   43.3520 H   0  0  0  0  0  0  0  0  0  0  0  0
   36.4410   27.2520   40.5020 F   0  0  0  0  0  0  0  0  0  0  0  0
   36.8810   26.0000   40.7730 C   0  0  0  0  0  0  0  0  0  0  0  0
   37.6110   25.7060   41.9230 C   0  0  0  0  0  0  0  0  0  0  0  0
   38.0290   24.4150   42.1400 C   0  0  0  0  0  0  0  0  0  0  0  0
   38.5850   24.2030   43.0200 H   0  0  0  0  0  0  0  0  0  0  0  0
   37.7200   23.4340   41.2220 C   0  0  0  0  0  0  0  0  0  0  0  0
   38.0620   22.4280   41.4200 H   0  0  0  0  0  0  0  0  0  0  0  0
   36.9940   23.7370   40.0830 C   0  0  0  0  0  3  0  0  0  0  0  0
   36.5600   25.0300   39.8380 C   0  0  0  0  0  3  0  0  0  0  0  0
   38.7150   29.2150   43.0560 C   0  0  0  0  0  0  0  0  0  0  0  0
   39.6540   29.6900   43.3840 H   0  0  0  0  0  0  0  0  0  0  0  0
   37.9830   29.1340   43.9060 H   0  0  0  0  0  0  0  0  0  0  0  0
   38.0800   30.1050   42.0690 C   0  0  0  0  0  0  0  0  0  0  0  0
   38.9250   31.0120   41.4650 C   0  0  0  0  0  0  0  0  0  0  0  0
   38.4460   31.9130   40.5150 C   0  0  0  0  0  0  0  0  0  0  0  0
   37.1110   31.8310   40.2330 N   0  0  0  0  0  0  0  0  0  0  0  0
   36.2900   30.9320   40.8350 C   0  0  0  0  0  0  0  0  0  0  0  0
   36.7710   30.0790   41.7420 N   0  0  0  0  0  0  0  0  0  0  0  0
   39.9770   31.2450   41.5260 H   0  0  0  0  0  0  0  0  0  0  0  0
   38.9010   32.6750   39.9390 H   0  0  0  0  0  0  0  0  0  0  0  0
   35.2290   30.9120   40.5700 H   0  0  0  0  0  0  0  0  0  0  0  0
  1  4  1  6  0  0  0
  1  3  1  0  0  0  0
  1 17  1  0  0  0  0
  1  2  1  0  0  0  0
  2  6  1  0  0  0  0
  3  7  1  1  0  0  0
  3  2  1  0  0  0  0
  5  2  1  0  0  0  0
  8  9  1  0  0  0  0
  9 10  1  0  0  0  0
 10 11  2  0  0  0  0
 10  3  1  0  0  0  0
 11 12  1  0  0  0  0
 13 14  1  0  0  0  0
 13 11  1  0  0  0  0
 15 13  2  0  0  0  0
 16 15  1  0  0  0  0
 16  9  2  0  0  0  0
 17 18  1  0  0  0  0
 17 19  1  0  0  0  0
 20 17  1  0  0  0  0
 21 26  1  0  0  0  0
 21 20  2  0  0  0  0
 22 21  1  0  0  0  0
 23 22  2  0  0  0  0
 23 24  1  0  0  0  0
 24 25  2  0  0  0  0
 25 20  1  0  0  0  0
 27 22  1  0  0  0  0
 28 24  1  0  0  0  0
M  END
>  <minimizedAffinity>
-4.96089649

$$$$

 OpenBabel03252500423D

 28 30  0  0  1  0  0  0  0  0999 V2000
   36.8500   28.5880   41.1980 C   0  0  1  0  0  0  0  0  0  0  0  0
   35.6440   29.3400   40.6550 C   0  0  0  0  0  0  0  0  0  0  0  0
   36.6440   30.0230   41.5510 C   0  0  2  0  0  0  0  0  0  0  0  0
   37.6510   28.4770   40.4550 H   0  0  0  0  0  0  0  0  0  0  0  0
   35.5990   29.6040   39.5760 H   0  0  0  0  0  0  0  0  0  0  0  0
   34.6470   29.0990   41.0520 H   0  0  0  0  0  0  0  0  0  0  0  0
   36.3420   30.2620   42.5980 H   0  0  0  0  0  0  0  0  0  0  0  0
   39.1750   30.6060   42.4390 F   0  0  0  0  0  0  0  0  0  0  0  0
   38.6720   31.3290   41.4100 C   0  0  0  0  0  0  0  0  0  0  0  0
   37.3960   31.0980   40.8990 C   0  0  0  0  0  0  0  0  0  0  0  0
   36.9440   31.8670   39.8520 C   0  0  0  0  0  0  0  0  0  0  0  0
   35.9710   31.6820   39.4710 H   0  0  0  0  0  0  0  0  0  0  0  0
   37.7550   32.8500   39.3280 C   0  0  0  0  0  0  0  0  0  0  0  0
   37.3720   33.4380   38.5060 H   0  0  0  0  0  0  0  0  0  0  0  0
   39.0210   33.0710   39.8440 C   0  0  0  0  0  3  0  0  0  0  0  0
   39.5020   32.3110   40.8980 C   0  0  0  0  0  3  0  0  0  0  0  0
   36.5750   27.6010   42.2810 C   0  0  0  0  0  0  0  0  0  0  0  0
   35.7320   26.9390   42.0290 H   0  0  0  0  0  0  0  0  0  0  0  0
   36.3680   28.1820   43.2220 H   0  0  0  0  0  0  0  0  0  0  0  0
   37.7390   26.7530   42.5880 C   0  0  0  0  0  0  0  0  0  0  0  0
   38.7320   27.3620   43.3270 C   0  0  0  0  0  0  0  0  0  0  0  0
   39.8890   26.6680   43.6800 C   0  0  0  0  0  0  0  0  0  0  0  0
   39.9630   25.3720   43.2510 N   0  0  0  0  0  0  0  0  0  0  0  0
   38.9770   24.7840   42.5240 C   0  0  0  0  0  0  0  0  0  0  0  0
   37.8780   25.4690   42.1980 N   0  0  0  0  0  0  0  0  0  0  0  0
   38.8810   28.3380   43.7620 H   0  0  0  0  0  0  0  0  0  0  0  0
   40.7560   26.9280   44.2270 H   0  0  0  0  0  0  0  0  0  0  0  0
   39.0900   23.7430   42.2080 H   0  0  0  0  0  0  0  0  0  0  0  0
  1  4  1  6  0  0  0
  1  3  1  0  0  0  0
  1 17  1  0  0  0  0
  2  6  1  0  0  0  0
  2  1  1  0  0  0  0
  2  3  1  0  0  0  0
  3  7  1  1  0  0  0
  5  2  1  0  0  0  0
  9  8  1  0  0  0  0
 10  9  1  0  0  0  0
 10  3  1  0  0  0  0
 11 10  2  0  0  0  0
 12 11  1  0  0  0  0
 13 15  2  0  0  0  0
 13 11  1  0  0  0  0
 14 13  1  0  0  0  0
 15 16  1  0  0  0  0
 16  9  2  0  0  0  0
 17 20  1  0  0  0  0
 17 19  1  0  0  0  0
 18 17  1  0  0  0  0
 20 21  1  0  0  0  0
 21 22  2  0  0  0  0
 21 26  1  0  0  0  0
 22 27  1  0  0  0  0
 23 22  1  0  0  0  0
 24 23  2  0  0  0  0
 25 24  1  0  0  0  0
 25 20  2  0  0  0  0
 28 24  1  0  0  0  0
M  END
>  <minimizedAffinity>
-4.92347193

$$$$

 OpenBabel03252500423D

 28 30  0  0  1  0  0  0  0  0999 V2000
   39.0850   27.9060   42.6310 C   0  0  1  0  0  0  0  0  0  0  0  0
   39.4760   26.8570   43.6620 C   0  0  0  0  0  0  0  0  0  0  0  0
   38.2970   26.6440   42.7500 C   0  0  2  0  0  0  0  0  0  0  0  0
   39.7270   27.8850   41.7410 H   0  0  0  0  0  0  0  0  0  0  0  0
   40.4020   26.2590   43.5170 H   0  0  0  0  0  0  0  0  0  0  0  0
   39.2970   27.0680   44.7270 H   0  0  0  0  0  0  0  0  0  0  0  0
   37.2700   26.7130   43.1840 H   0  0  0  0  0  0  0  0  0  0  0  0
   36.3760   24.6850   42.6500 F   0  0  0  0  0  0  0  0  0  0  0  0
   37.4410   24.5850   41.8200 C   0  0  0  0  0  0  0  0  0  0  0  0
   38.4610   25.5350   41.8070 C   0  0  0  0  0  0  0  0  0  0  0  0
   39.5150   25.3760   40.9400 C   0  0  0  0  0  0  0  0  0  0  0  0
   40.2860   26.1060   40.9390 H   0  0  0  0  0  0  0  0  0  0  0  0
   39.5500   24.2830   40.1000 C   0  0  0  0  0  0  0  0  0  0  0  0
   40.3910   24.1850   39.4300 H   0  0  0  0  0  0  0  0  0  0  0  0
   38.5310   23.3450   40.1220 C   0  0  0  0  0  3  0  0  0  0  0  0
   37.4560   23.4800   40.9850 C   0  0  0  0  0  3  0  0  0  0  0  0
   38.4340   29.1380   43.1630 C   0  0  0  0  0  0  0  0  0  0  0  0
   39.0920   29.6820   43.8590 H   0  0  0  0  0  0  0  0  0  0  0  0
   37.4790   28.8230   43.6680 H   0  0  0  0  0  0  0  0  0  0  0  0
   38.0300   30.0720   42.0990 C   0  0  0  0  0  0  0  0  0  0  0  0
   36.7300   29.9340   41.6580 C   0  0  0  0  0  0  0  0  0  0  0  0
   36.2260   30.7560   40.6500 C   0  0  0  0  0  0  0  0  0  0  0  0
   37.0930   31.6850   40.1470 N   0  0  0  0  0  0  0  0  0  0  0  0
   38.3700   31.8110   40.5920 C   0  0  0  0  0  0  0  0  0  0  0  0
   38.8310   31.0120   41.5570 N   0  0  0  0  0  0  0  0  0  0  0  0
   35.8960   29.2960   41.9050 H   0  0  0  0  0  0  0  0  0  0  0  0
   35.2860   30.8260   40.1690 H   0  0  0  0  0  0  0  0  0  0  0  0
   39.0200   32.5730   40.1510 H   0  0  0  0  0  0  0  0  0  0  0  0
  1  4  1  6  0  0  0
  1  3  1  0  0  0  0
  1 17  1  0  0  0  0
  1  2  1  0  0  0  0
  2  6  1  0  0  0  0
  3  7  1  1  0  0  0
  3  2  1  0  0  0  0
  5  2  1  0  0  0  0
  9  8  1  0  0  0  0
 10  9  1  0  0  0  0
 10  3  1  0  0  0  0
 11 10  2  0  0  0  0
 12 11  1  0  0  0  0
 13 15  2  0  0  0  0
 13 11  1  0  0  0  0
 14 13  1  0  0  0  0
 15 16  1  0  0  0  0
 16  9  2  0  0  0  0
 17 19  1  0  0  0  0
 17 18  1  0  0  0  0
 20 17  1  0  0  0  0
 21 26  1  0  0  0  0
 21 20  1  0  0  0  0
 22 21  2  0  0  0  0
 23 24  2  0  0  0  0
 23 22  1  0  0  0  0
 24 25  1  0  0  0  0
 25 20  2  0  0  0  0
 27 22  1  0  0  0  0
 28 24  1  0  0  0  0
M  END
>  <minimizedAffinity>
-4.90585518

$$$$

 OpenBabel03252500423D

 28 30  0  0  1  0  0  0  0  0999 V2000
   33.5830   28.7610   36.6870 C   0  0  1  0  0  0  0  0  0  0  0  0
   32.4350   27.9400   36.1170 C   0  0  0  0  0  0  0  0  0  0  0  0
   32.1710   29.1940   36.9080 C   0  0  2  0  0  0  0  0  0  0  0  0
   34.0720   29.3880   35.9320 H   0  0  0  0  0  0  0  0  0  0  0  0
   32.2560   27.9310   35.0200 H   0  0  0  0  0  0  0  0  0  0  0  0
   32.2060   26.9640   36.5700 H   0  0  0  0  0  0  0  0  0  0  0  0
   31.7530   29.0940   37.9380 H   0  0  0  0  0  0  0  0  0  0  0  0
   30.4990   30.9640   38.1750 F   0  0  0  0  0  0  0  0  0  0  0  0
   30.7270   31.1300   36.8500 C   0  0  0  0  0  0  0  0  0  0  0  0
   31.5610   30.2760   36.1310 C   0  0  0  0  0  0  0  0  0  0  0  0
   31.7520   30.4980   34.7880 C   0  0  0  0  0  0  0  0  0  0  0  0
   32.3900   29.8410   34.2510 H   0  0  0  0  0  0  0  0  0  0  0  0
   31.1160   31.5560   34.1740 C   0  0  0  0  0  0  0  0  0  0  0  0
   31.2860   31.7050   33.1180 H   0  0  0  0  0  0  0  0  0  0  0  0
   30.2890   32.3980   34.8980 C   0  0  0  0  0  3  0  0  0  0  0  0
   30.0790   32.1980   36.2530 C   0  0  0  0  0  3  0  0  0  0  0  0
   34.2810   28.1790   37.8700 C   0  0  0  0  0  0  0  0  0  0  0  0
   34.8930   27.3050   37.5950 H   0  0  0  0  0  0  0  0  0  0  0  0
   33.4940   27.9040   38.6250 H   0  0  0  0  0  0  0  0  0  0  0  0
   35.1580   29.1500   38.5470 C   0  0  0  0  0  0  0  0  0  0  0  0
   34.9890   29.2420   39.9130 C   0  0  0  0  0  0  0  0  0  0  0  0
   35.7560   30.1270   40.6700 C   0  0  0  0  0  0  0  0  0  0  0  0
   36.6650   30.8760   39.9760 N   0  0  0  0  0  0  0  0  0  0  0  0
   36.8210   30.7740   38.6300 C   0  0  0  0  0  0  0  0  0  0  0  0
   36.0750   29.9200   37.9260 N   0  0  0  0  0  0  0  0  0  0  0  0
   34.3590   28.7630   40.6460 H   0  0  0  0  0  0  0  0  0  0  0  0
   35.7950   30.3580   41.7010 H   0  0  0  0  0  0  0  0  0  0  0  0
   37.5640   31.3990   38.1270 H   0  0  0  0  0  0  0  0  0  0  0  0
  1  4  1  6  0  0  0
  1  3  1  0  0  0  0
  1 17  1  0  0  0  0
  2  6  1  0  0  0  0
  2  1  1  0  0  0  0
  2  3  1  0  0  0  0
  3  7  1  1  0  0  0
  5  2  1  0  0  0  0
  9  8  1  0  0  0  0
 10  9  2  0  0  0  0
 10  3  1  0  0  0  0
 11 10  1  0  0  0  0
 12 11  1  0  0  0  0
 13 11  2  0  0  0  0
 13 15  1  0  0  0  0
 14 13  1  0  0  0  0
 15 16  2  0  0  0  0
 16  9  1  0  0  0  0
 17 20  1  0  0  0  0
 17 19  1  0  0  0  0
 18 17  1  0  0  0  0
 20 21  1  0  0  0  0
 21 26  1  0  0  0  0
 21 22  2  0  0  0  0
 22 27  1  0  0  0  0
 23 22  1  0  0  0  0
 24 23  2  0  0  0  0
 25 20  2  0  0  0  0
 25 24  1  0  0  0  0
 28 24  1  0  0  0  0
M  END
>  <minimizedAffinity>
-4.80704832

$$$$
