
 OpenBabel03252502313D

 24 25  0  0  0  0  0  0  0  0999 V2000
   47.9310   34.4970   42.4340 C   0  0  0  0  0  0  0  0  0  0  0  0
   48.0270   33.4980   43.4120 C   0  0  0  0  0  0  0  0  0  0  0  0
   46.9920   33.3720   44.3460 C   0  0  0  0  0  0  0  0  0  0  0  0
   45.9520   34.2400   44.2350 N   0  0  0  0  0  0  0  0  0  0  0  0
   45.8810   35.1950   43.2830 C   0  0  0  0  0  0  0  0  0  0  0  0
   46.8640   35.3190   42.3930 N   0  0  0  0  0  0  0  0  0  0  0  0
   48.8550   32.8560   43.4500 H   0  0  0  0  0  0  0  0  0  0  0  0
   47.2790   30.4920   44.1440 F   0  0  0  0  0  0  0  0  0  0  0  0
   47.0590   31.0540   45.3390 C   0  0  0  0  0  0  0  0  0  0  0  0
   46.9270   32.4100   45.4090 C   0  0  0  0  0  0  0  0  0  0  0  0
   46.7040   32.8690   46.6920 C   0  0  0  0  0  0  0  0  0  0  0  0
   46.5740   33.9280   46.9370 H   0  0  0  0  0  0  0  0  0  0  0  0
   46.6230   32.0370   47.7900 C   0  0  0  0  0  0  0  0  0  0  0  0
   46.4480   32.4110   48.7830 H   0  0  0  0  0  0  0  0  0  0  0  0
   46.7640   30.6720   47.6590 C   0  0  0  0  0  0  0  0  0  0  0  0
   46.9870   30.1780   46.3930 C   0  0  0  0  0  0  0  0  0  0  0  0
   49.0510   34.6000   41.4600 C   0  0  0  0  0  0  0  0  0  0  0  0
   49.1270   33.5100   40.6340 F   0  0  0  0  0  0  0  0  0  0  0  0
   48.8750   35.7690   40.7020 F   0  0  0  0  0  0  0  0  0  0  0  0
   50.2520   34.7880   42.1580 F   0  0  0  0  0  0  0  0  0  0  0  0
   44.7090   36.1050   43.2300 C   0  0  0  0  0  0  0  0  0  0  0  0
   44.0100   35.9570   42.0530 F   0  0  0  0  0  0  0  0  0  0  0  0
   45.1330   37.4400   43.3640 F   0  0  0  0  0  0  0  0  0  0  0  0
   43.8290   35.8980   44.2690 F   0  0  0  0  0  0  0  0  0  0  0  0
  1  2  1  0  0  0  0
  2  7  1  0  0  0  0
  2  3  2  0  0  0  0
  3 10  1  0  0  0  0
  4  3  1  0  0  0  0
  5  4  2  0  0  0  0
  6  1  2  0  0  0  0
  6  5  1  0  0  0  0
  8  9  1  0  0  0  0
  9 10  2  0  0  0  0
  9 16  1  0  0  0  0
 10 11  1  0  0  0  0
 11 12  1  0  0  0  0
 11 13  2  0  0  0  0
 13 14  1  0  0  0  0
 15 13  1  0  0  0  0
 16 15  2  0  0  0  0
 17 20  1  0  0  0  0
 17  1  1  0  0  0  0
 18 17  1  0  0  0  0
 19 17  1  0  0  0  0
 21  5  1  0  0  0  0
 21 23  1  0  0  0  0
 21 24  1  0  0  0  0
 22 21  1  0  0  0  0
M  END
>  <minimizedAffinity>
-6.09819317

>  <minimizedRMSD>
1.27036071

$$$$
