
 OpenBabel03242523033D

 32 34  0  0  0  0  0  0  0  0999 V2000
   45.4360   36.2510   43.2460 C   0  0  0  0  0  0  0  0  0  0  0  0
   46.0820   35.0060   43.0760 C   0  0  0  0  0  0  0  0  0  0  0  0
   45.9160   34.0620   44.0650 C   0  0  0  0  0  0  0  0  0  0  0  0
   45.1620   34.2940   45.1680 N   0  0  0  0  0  0  0  0  0  0  0  0
   44.5460   35.5220   45.2980 C   0  0  0  0  0  0  0  0  0  0  0  0
   44.6890   36.4790   44.3470 N   0  0  0  0  0  0  0  0  0  0  0  0
   45.5080   37.0470   42.5280 H   0  0  0  0  0  0  0  0  0  0  0  0
   43.9220   35.8530   46.1160 H   0  0  0  0  0  0  0  0  0  0  0  0
   46.7950   34.8250   41.8910 N   0  0  0  0  0  0  0  0  0  0  0  0
   48.1170   35.2970   41.7820 C   0  0  0  0  0  0  0  0  0  0  0  0
   48.6460   35.2260   40.3950 C   0  0  0  0  0  0  0  0  0  0  0  0
   48.3860   34.0400   39.6900 N   0  0  0  0  0  0  0  0  0  0  0  0
   47.2490   33.2940   40.0490 C   0  0  0  0  0  0  0  0  0  0  0  0
   46.2430   34.1750   40.7110 C   0  0  0  0  0  0  0  0  0  0  0  0
   48.8790   34.7870   42.3980 H   0  0  0  0  0  0  0  0  0  0  0  0
   48.1290   36.4090   42.0560 H   0  0  0  0  0  0  0  0  0  0  0  0
   49.7470   35.4150   40.4280 H   0  0  0  0  0  0  0  0  0  0  0  0
   48.2320   36.1450   39.8580 H   0  0  0  0  0  0  0  0  0  0  0  0
   48.3010   34.2850   38.6680 H   0  0  0  0  0  0  0  0  0  0  0  0
   47.5570   32.4530   40.7490 H   0  0  0  0  0  0  0  0  0  0  0  0
   46.7230   32.7580   39.2180 H   0  0  0  0  0  0  0  0  0  0  0  0
   45.3820   33.4960   40.9570 H   0  0  0  0  0  0  0  0  0  0  0  0
   45.9190   34.9630   40.0080 H   0  0  0  0  0  0  0  0  0  0  0  0
   44.2770   32.2210   43.0190 F   0  0  0  0  0  0  0  0  0  0  0  0
   45.4510   31.7910   43.6090 C   0  0  0  0  0  0  0  0  0  0  0  0
   46.3770   32.7170   44.1360 C   0  0  0  0  0  0  0  0  0  0  0  0
   47.4880   32.0400   44.6730 C   0  0  0  0  0  0  0  0  0  0  0  0
   48.1840   32.7600   45.0910 H   0  0  0  0  0  0  0  0  0  0  0  0
   47.6130   30.6680   44.6660 C   0  0  0  0  0  0  0  0  0  0  0  0
   48.5570   30.3510   45.1330 H   0  0  0  0  0  0  0  0  0  0  0  0
   46.6600   29.8450   44.1310 C   0  0  0  0  0  0  0  0  0  0  0  0
   45.5270   30.4150   43.5770 C   0  0  0  0  0  0  0  0  0  0  0  0
  1  6  1  0  0  0  0
  2  1  2  0  0  0  0
  2  3  1  0  0  0  0
  3 26  1  0  0  0  0
  3  4  2  0  0  0  0
  4  5  1  0  0  0  0
  5  8  1  0  0  0  0
  6  5  2  0  0  0  0
  7  1  1  0  0  0  0
  9  2  1  0  0  0  0
 10  9  1  0  0  0  0
 10 16  1  0  0  0  0
 10 15  1  0  0  0  0
 11 17  1  0  0  0  0
 11 10  1  0  0  0  0
 12 13  1  0  0  0  0
 12 11  1  0  0  0  0
 13 14  1  0  0  0  0
 13 20  1  0  0  0  0
 14 22  1  0  0  0  0
 14  9  1  0  0  0  0
 18 11  1  0  0  0  0
 19 12  1  0  0  0  0
 21 13  1  0  0  0  0
 23 14  1  0  0  0  0
 24 25  1  0  0  0  0
 25 26  1  0  0  0  0
 26 27  2  0  0  0  0
 27 28  1  0  0  0  0
 29 27  1  0  0  0  0
 29 30  1  0  0  0  0
 31 29  2  0  0  0  0
 32 25  2  0  0  0  0
 32 31  1  0  0  0  0
M  END
>  <minimizedAffinity>
-4.76830673

>  <minimizedRMSD>
3.16655755

$$$$
