
 OpenBabel03242516103D

 25 27  0  0  0  0  0  0  0  0999 V2000
   37.3290   27.7340   42.3950 C   0  0  0  0  0  0  0  0  0  0  0  0
   36.6020   27.4870   43.6620 C   0  0  0  0  0  0  0  0  0  0  0  0
   38.0780   27.7030   43.6800 C   0  0  0  0  0  0  0  0  0  0  0  0
   36.3280   26.4330   43.8650 H   0  0  0  0  0  0  0  0  0  0  0  0
   35.9660   28.2990   44.0750 H   0  0  0  0  0  0  0  0  0  0  0  0
   38.7920   26.8660   43.8340 H   0  0  0  0  0  0  0  0  0  0  0  0
   38.4280   28.6170   44.1990 H   0  0  0  0  0  0  0  0  0  0  0  0
   37.0360   25.3310   41.7530 C   0  0  0  0  0  0  0  0  0  0  0  0
   37.5130   26.6050   41.4320 C   0  0  0  0  0  0  0  0  0  0  0  0
   38.1620   26.7820   40.1880 C   0  0  0  0  0  0  0  0  0  0  0  0
   38.2820   25.7000   39.3750 N   0  0  0  0  0  0  0  0  0  0  0  0
   37.8180   24.4930   39.7040 C   0  0  0  0  0  0  0  0  0  0  0  0
   37.1920   24.2990   40.8930 N   0  0  0  0  0  0  0  0  0  0  0  0
   36.5520   25.2260   42.6950 H   0  0  0  0  0  0  0  0  0  0  0  0
   38.5280   27.7760   39.9480 H   0  0  0  0  0  0  0  0  0  0  0  0
   37.9060   23.6320   39.0750 H   0  0  0  0  0  0  0  0  0  0  0  0
   35.0460   28.7610   41.0130 F   0  0  0  0  0  0  0  0  0  0  0  0
   36.1710   29.5130   41.0900 C   0  0  0  0  0  0  0  0  0  0  0  0
   37.2820   29.0630   41.7380 C   0  0  0  0  0  0  0  0  0  0  0  0
   38.3380   29.9410   41.7260 C   0  0  0  0  0  0  0  0  0  0  0  0
   39.2800   29.6660   42.2230 H   0  0  0  0  0  0  0  0  0  0  0  0
   38.3770   31.1880   41.1410 C   0  0  0  0  0  0  0  0  0  0  0  0
   39.2480   31.8230   41.1740 H   0  0  0  0  0  0  0  0  0  0  0  0
   37.1900   31.5590   40.5000 C   0  0  0  0  0  3  0  0  0  0  0  0
   36.0840   30.7380   40.4650 C   0  0  0  0  0  3  0  0  0  0  0  0
  1  2  1  0  0  0  0
  1  3  1  0  0  0  0
  2  3  1  0  0  0  0
  2  4  1  0  0  0  0
  2  5  1  0  0  0  0
  3  6  1  0  0  0  0
  3  7  1  0  0  0  0
  8 14  1  0  0  0  0
  9  8  1  0  0  0  0
  9  1  1  0  0  0  0
 10  9  2  0  0  0  0
 11 12  2  0  0  0  0
 11 10  1  0  0  0  0
 12 13  1  0  0  0  0
 13  8  2  0  0  0  0
 15 10  1  0  0  0  0
 16 12  1  0  0  0  0
 17 18  1  0  0  0  0
 18 19  1  0  0  0  0
 19  1  1  0  0  0  0
 20 19  2  0  0  0  0
 20 21  1  0  0  0  0
 22 23  1  0  0  0  0
 22 20  1  0  0  0  0
 24 22  2  0  0  0  0
 25 24  1  0  0  0  0
 25 18  2  0  0  0  0
M  END
>  <minimizedAffinity>
-4.77800894

$$$$

 OpenBabel03242516103D

 25 27  0  0  0  0  0  0  0  0999 V2000
   37.1450   27.3430   42.4270 C   0  0  0  0  0  0  0  0  0  0  0  0
   36.3550   27.3780   43.6790 C   0  0  0  0  0  0  0  0  0  0  0  0
   37.7530   27.8970   43.6660 C   0  0  0  0  0  0  0  0  0  0  0  0
   36.2670   26.4170   44.2230 H   0  0  0  0  0  0  0  0  0  0  0  0
   35.5370   28.1260   43.7700 H   0  0  0  0  0  0  0  0  0  0  0  0
   38.5940   27.3300   44.1200 H   0  0  0  0  0  0  0  0  0  0  0  0
   37.8690   28.9830   43.8500 H   0  0  0  0  0  0  0  0  0  0  0  0
   38.7860   25.4500   42.4640 C   0  0  0  0  0  0  0  0  0  0  0  0
   37.6360   26.0260   41.9160 C   0  0  0  0  0  0  0  0  0  0  0  0
   36.9680   25.3310   40.8820 C   0  0  0  0  0  0  0  0  0  0  0  0
   37.4850   24.1390   40.4810 N   0  0  0  0  0  0  0  0  0  0  0  0
   38.5850   23.6100   41.0210 C   0  0  0  0  0  0  0  0  0  0  0  0
   39.2420   24.2590   42.0140 N   0  0  0  0  0  0  0  0  0  0  0  0
   39.2680   25.9950   43.2410 H   0  0  0  0  0  0  0  0  0  0  0  0
   36.0760   25.7860   40.4630 H   0  0  0  0  0  0  0  0  0  0  0  0
   39.0030   22.6730   40.7160 H   0  0  0  0  0  0  0  0  0  0  0  0
   39.2310   28.6210   40.9450 F   0  0  0  0  0  0  0  0  0  0  0  0
   37.9380   28.9240   40.6710 C   0  0  0  0  0  0  0  0  0  0  0  0
   36.9130   28.3390   41.3530 C   0  0  0  0  0  0  0  0  0  0  0  0
   35.6630   28.7510   40.9590 C   0  0  0  0  0  0  0  0  0  0  0  0
   34.7720   28.3350   41.4510 H   0  0  0  0  0  0  0  0  0  0  0  0
   35.3620   29.6670   39.9750 C   0  0  0  0  0  0  0  0  0  0  0  0
   34.3500   29.9410   39.7200 H   0  0  0  0  0  0  0  0  0  0  0  0
   36.4810   30.2120   39.3340 C   0  0  0  0  0  3  0  0  0  0  0  0
   37.7680   29.8530   39.6680 C   0  0  0  0  0  3  0  0  0  0  0  0
  1  3  1  0  0  0  0
  1  2  1  0  0  0  0
  2  5  1  0  0  0  0
  2  4  1  0  0  0  0
  3  2  1  0  0  0  0
  3  7  1  0  0  0  0
  3  6  1  0  0  0  0
  8 14  1  0  0  0  0
  9  1  1  0  0  0  0
  9  8  2  0  0  0  0
 10  9  1  0  0  0  0
 11 10  2  0  0  0  0
 11 12  1  0  0  0  0
 12 13  2  0  0  0  0
 13  8  1  0  0  0  0
 15 10  1  0  0  0  0
 16 12  1  0  0  0  0
 18 17  1  0  0  0  0
 18 19  1  0  0  0  0
 19  1  1  0  0  0  0
 20 19  2  0  0  0  0
 20 21  1  0  0  0  0
 22 20  1  0  0  0  0
 23 22  1  0  0  0  0
 24 25  1  0  0  0  0
 24 22  2  0  0  0  0
 25 18  2  0  0  0  0
M  END
>  <minimizedAffinity>
-4.75969076

$$$$

 OpenBabel03242516103D

 25 27  0  0  0  0  0  0  0  0999 V2000
   35.8290   29.0100   39.6170 C   0  0  0  0  0  0  0  0  0  0  0  0
   34.9040   28.3970   38.6360 C   0  0  0  0  0  0  0  0  0  0  0  0
   34.3600   29.0960   39.8360 C   0  0  0  0  0  0  0  0  0  0  0  0
   34.7900   27.2970   38.7010 H   0  0  0  0  0  0  0  0  0  0  0  0
   34.7670   28.8960   37.6520 H   0  0  0  0  0  0  0  0  0  0  0  0
   33.9400   28.5400   40.6990 H   0  0  0  0  0  0  0  0  0  0  0  0
   33.7710   30.0130   39.6360 H   0  0  0  0  0  0  0  0  0  0  0  0
   37.7620   27.4660   40.0060 C   0  0  0  0  0  0  0  0  0  0  0  0
   36.6340   28.1210   40.5090 C   0  0  0  0  0  0  0  0  0  0  0  0
   36.2910   27.9150   41.8650 C   0  0  0  0  0  0  0  0  0  0  0  0
   37.0820   27.0920   42.6020 N   0  0  0  0  0  0  0  0  0  0  0  0
   38.1550   26.4780   42.0990 C   0  0  0  0  0  0  0  0  0  0  0  0
   38.5030   26.6600   40.8000 N   0  0  0  0  0  0  0  0  0  0  0  0
   37.9970   27.6390   38.9820 H   0  0  0  0  0  0  0  0  0  0  0  0
   35.4140   28.4290   42.2460 H   0  0  0  0  0  0  0  0  0  0  0  0
   38.7870   25.8260   42.6660 H   0  0  0  0  0  0  0  0  0  0  0  0
   36.0750   31.1380   41.5120 F   0  0  0  0  0  0  0  0  0  0  0  0
   36.5850   31.2950   40.2660 C   0  0  0  0  0  0  0  0  0  0  0  0
   36.4890   30.3080   39.3310 C   0  0  0  0  0  0  0  0  0  0  0  0
   37.0530   30.6210   38.1180 C   0  0  0  0  0  0  0  0  0  0  0  0
   37.0250   29.8870   37.2990 H   0  0  0  0  0  0  0  0  0  0  0  0
   37.6820   31.7970   37.7720 C   0  0  0  0  0  0  0  0  0  0  0  0
   38.1030   31.9700   36.7940 H   0  0  0  0  0  0  0  0  0  0  0  0
   37.7280   32.7480   38.7990 C   0  0  0  0  0  3  0  0  0  0  0  0
   37.1870   32.5140   40.0440 C   0  0  0  0  0  3  0  0  0  0  0  0
  1  3  1  0  0  0  0
  1  9  1  0  0  0  0
  2  4  1  0  0  0  0
  2  1  1  0  0  0  0
  2  3  1  0  0  0  0
  3  6  1  0  0  0  0
  5  2  1  0  0  0  0
  7  3  1  0  0  0  0
  8  9  2  0  0  0  0
  8 13  1  0  0  0  0
  9 10  1  0  0  0  0
 10 15  1  0  0  0  0
 10 11  2  0  0  0  0
 12 11  1  0  0  0  0
 12 16  1  0  0  0  0
 13 12  2  0  0  0  0
 14  8  1  0  0  0  0
 18 17  1  0  0  0  0
 19  1  1  0  0  0  0
 19 18  2  0  0  0  0
 20 19  1  0  0  0  0
 21 20  1  0  0  0  0
 22 20  2  0  0  0  0
 22 24  1  0  0  0  0
 23 22  1  0  0  0  0
 24 25  2  0  0  0  0
 25 18  1  0  0  0  0
M  END
>  <minimizedAffinity>
-4.73454046

$$$$

 OpenBabel03242516103D

 25 27  0  0  0  0  0  0  0  0999 V2000
   35.8570   29.1620   39.9190 C   0  0  0  0  0  0  0  0  0  0  0  0
   34.3810   29.0790   39.8280 C   0  0  0  0  0  0  0  0  0  0  0  0
   35.2290   28.4700   38.7620 C   0  0  0  0  0  0  0  0  0  0  0  0
   33.8650   29.9970   39.4830 H   0  0  0  0  0  0  0  0  0  0  0  0
   33.8460   28.3830   40.5100 H   0  0  0  0  0  0  0  0  0  0  0  0
   35.3430   28.9400   37.7630 H   0  0  0  0  0  0  0  0  0  0  0  0
   35.1760   27.3670   38.6720 H   0  0  0  0  0  0  0  0  0  0  0  0
   36.8520   30.8770   38.3890 C   0  0  0  0  0  0  0  0  0  0  0  0
   36.5250   30.4790   39.6890 C   0  0  0  0  0  0  0  0  0  0  0  0
   36.8440   31.3520   40.7550 C   0  0  0  0  0  0  0  0  0  0  0  0
   37.4500   32.5300   40.4520 N   0  0  0  0  0  0  0  0  0  0  0  0
   37.7510   32.8880   39.2010 C   0  0  0  0  0  0  0  0  0  0  0  0
   37.4560   32.0660   38.1630 N   0  0  0  0  0  0  0  0  0  0  0  0
   36.6010   30.2010   37.6060 H   0  0  0  0  0  0  0  0  0  0  0  0
   36.5860   31.0340   41.7600 H   0  0  0  0  0  0  0  0  0  0  0  0
   38.2280   33.8110   38.9470 H   0  0  0  0  0  0  0  0  0  0  0  0
   38.3060   27.8550   39.2300 F   0  0  0  0  0  0  0  0  0  0  0  0
   37.7790   27.6710   40.4650 C   0  0  0  0  0  0  0  0  0  0  0  0
   36.6130   28.2730   40.8360 C   0  0  0  0  0  0  0  0  0  0  0  0
   36.2110   27.9860   42.1170 C   0  0  0  0  0  0  0  0  0  0  0  0
   35.2810   28.4260   42.5070 H   0  0  0  0  0  0  0  0  0  0  0  0
   36.8520   27.1750   43.0280 C   0  0  0  0  0  0  0  0  0  0  0  0
   36.4720   26.9970   44.0220 H   0  0  0  0  0  0  0  0  0  0  0  0
   38.0380   26.6030   42.5530 C   0  0  0  0  0  3  0  0  0  0  0  0
   38.5120   26.8390   41.2820 C   0  0  0  0  0  3  0  0  0  0  0  0
  1 19  1  0  0  0  0
  2  1  1  0  0  0  0
  2  5  1  0  0  0  0
  3  2  1  0  0  0  0
  3  1  1  0  0  0  0
  4  2  1  0  0  0  0
  6  3  1  0  0  0  0
  7  3  1  0  0  0  0
  8  9  1  0  0  0  0
  9  1  1  0  0  0  0
  9 10  2  0  0  0  0
 10 15  1  0  0  0  0
 11 10  1  0  0  0  0
 12 11  2  0  0  0  0
 13  8  2  0  0  0  0
 13 12  1  0  0  0  0
 14  8  1  0  0  0  0
 16 12  1  0  0  0  0
 17 18  1  0  0  0  0
 18 19  2  0  0  0  0
 18 25  1  0  0  0  0
 19 20  1  0  0  0  0
 20 21  1  0  0  0  0
 20 22  2  0  0  0  0
 22 23  1  0  0  0  0
 24 22  1  0  0  0  0
 25 24  2  0  0  0  0
M  END
>  <minimizedAffinity>
-4.63873196

$$$$

 OpenBabel03242516103D

 25 27  0  0  0  0  0  0  0  0999 V2000
   37.3120   27.5870   42.3980 C   0  0  0  0  0  0  0  0  0  0  0  0
   37.9710   27.9270   43.6800 C   0  0  0  0  0  0  0  0  0  0  0  0
   36.5700   27.4150   43.6760 C   0  0  0  0  0  0  0  0  0  0  0  0
   38.0250   29.0070   43.9250 H   0  0  0  0  0  0  0  0  0  0  0  0
   38.7600   27.2470   44.0680 H   0  0  0  0  0  0  0  0  0  0  0  0
   35.7010   28.0820   43.8550 H   0  0  0  0  0  0  0  0  0  0  0  0
   36.4140   26.4300   44.1570 H   0  0  0  0  0  0  0  0  0  0  0  0
   37.5930   29.9060   41.4960 C   0  0  0  0  0  0  0  0  0  0  0  0
   36.9040   28.6910   41.4770 C   0  0  0  0  0  0  0  0  0  0  0  0
   35.8270   28.5480   40.5710 C   0  0  0  0  0  0  0  0  0  0  0  0
   35.5270   29.6040   39.7700 N   0  0  0  0  0  0  0  0  0  0  0  0
   36.2020   30.7550   39.8060 C   0  0  0  0  0  0  0  0  0  0  0  0
   37.2380   30.9150   40.6680 N   0  0  0  0  0  0  0  0  0  0  0  0
   38.3990   29.9860   42.1860 H   0  0  0  0  0  0  0  0  0  0  0  0
   35.2970   27.6000   40.5630 H   0  0  0  0  0  0  0  0  0  0  0  0
   35.9770   31.5950   39.1820 H   0  0  0  0  0  0  0  0  0  0  0  0
   39.5820   27.2250   40.6960 F   0  0  0  0  0  0  0  0  0  0  0  0
   38.7240   26.1930   40.8890 C   0  0  0  0  0  0  0  0  0  0  0  0
   37.6300   26.3210   41.6920 C   0  0  0  0  0  0  0  0  0  0  0  0
   36.8610   25.1870   41.7840 C   0  0  0  0  0  0  0  0  0  0  0  0
   35.9550   25.1930   42.4090 H   0  0  0  0  0  0  0  0  0  0  0  0
   37.0840   23.9780   41.1640 C   0  0  0  0  0  0  0  0  0  0  0  0
   36.4310   23.1280   41.2860 H   0  0  0  0  0  0  0  0  0  0  0  0
   38.2310   23.9460   40.3620 C   0  0  0  0  0  3  0  0  0  0  0  0
   39.0560   25.0390   40.2150 C   0  0  0  0  0  3  0  0  0  0  0  0
  1  3  1  0  0  0  0
  1  2  1  0  0  0  0
  2  4  1  0  0  0  0
  2  5  1  0  0  0  0
  3  2  1  0  0  0  0
  3  6  1  0  0  0  0
  3  7  1  0  0  0  0
  8 14  1  0  0  0  0
  9  8  1  0  0  0  0
  9  1  1  0  0  0  0
 10  9  2  0  0  0  0
 11 12  2  0  0  0  0
 11 10  1  0  0  0  0
 12 13  1  0  0  0  0
 13  8  2  0  0  0  0
 15 10  1  0  0  0  0
 16 12  1  0  0  0  0
 17 18  1  0  0  0  0
 18 19  1  0  0  0  0
 19 20  2  0  0  0  0
 19  1  1  0  0  0  0
 20 21  1  0  0  0  0
 22 23  1  0  0  0  0
 22 20  1  0  0  0  0
 24 22  2  0  0  0  0
 25 24  1  0  0  0  0
 25 18  2  0  0  0  0
M  END
>  <minimizedAffinity>
-4.62322426

$$$$

 OpenBabel03242516103D

 25 27  0  0  0  0  0  0  0  0999 V2000
   37.5410   27.7050   42.6130 C   0  0  0  0  0  0  0  0  0  0  0  0
   37.6290   28.7420   43.6660 C   0  0  0  0  0  0  0  0  0  0  0  0
   36.4890   27.7810   43.6610 C   0  0  0  0  0  0  0  0  0  0  0  0
   37.3210   29.7640   43.3650 H   0  0  0  0  0  0  0  0  0  0  0  0
   38.3910   28.6230   44.4660 H   0  0  0  0  0  0  0  0  0  0  0  0
   35.4690   28.0810   43.3410 H   0  0  0  0  0  0  0  0  0  0  0  0
   36.4390   27.0850   44.5210 H   0  0  0  0  0  0  0  0  0  0  0  0
   38.1940   28.2150   40.2490 C   0  0  0  0  0  0  0  0  0  0  0  0
   37.1920   28.1140   41.2180 C   0  0  0  0  0  0  0  0  0  0  0  0
   35.8620   28.4080   40.8360 C   0  0  0  0  0  0  0  0  0  0  0  0
   35.6370   28.7700   39.5460 N   0  0  0  0  0  0  0  0  0  0  0  0
   36.6120   28.8590   38.6390 C   0  0  0  0  0  0  0  0  0  0  0  0
   37.8960   28.5820   38.9830 N   0  0  0  0  0  0  0  0  0  0  0  0
   39.1850   27.9880   40.5640 H   0  0  0  0  0  0  0  0  0  0  0  0
   35.0900   28.3260   41.5960 H   0  0  0  0  0  0  0  0  0  0  0  0
   36.4510   29.1430   37.6200 H   0  0  0  0  0  0  0  0  0  0  0  0
   36.6940   25.1180   41.7350 F   0  0  0  0  0  0  0  0  0  0  0  0
   37.9420   25.2730   42.2410 C   0  0  0  0  0  0  0  0  0  0  0  0
   38.3860   26.4870   42.6720 C   0  0  0  0  0  0  0  0  0  0  0  0
   39.6710   26.4790   43.1590 C   0  0  0  0  0  0  0  0  0  0  0  0
   40.1180   27.4130   43.5310 H   0  0  0  0  0  0  0  0  0  0  0  0
   40.5190   25.3970   43.2490 C   0  0  0  0  0  0  0  0  0  0  0  0
   41.5200   25.4700   43.6440 H   0  0  0  0  0  0  0  0  0  0  0  0
   39.9710   24.1970   42.7820 C   0  0  0  0  0  3  0  0  0  0  0  0
   38.6920   24.1180   42.2790 C   0  0  0  0  0  3  0  0  0  0  0  0
  1 19  1  0  0  0  0
  1  3  1  0  0  0  0
  1  2  1  0  0  0  0
  2  5  1  0  0  0  0
  3  2  1  0  0  0  0
  3  7  1  0  0  0  0
  4  2  1  0  0  0  0
  6  3  1  0  0  0  0
  8 14  1  0  0  0  0
  8  9  1  0  0  0  0
  9  1  1  0  0  0  0
 10  9  2  0  0  0  0
 10 15  1  0  0  0  0
 11 10  1  0  0  0  0
 12 13  1  0  0  0  0
 12 11  2  0  0  0  0
 13  8  2  0  0  0  0
 16 12  1  0  0  0  0
 17 18  1  0  0  0  0
 18 25  2  0  0  0  0
 18 19  1  0  0  0  0
 19 20  2  0  0  0  0
 20 22  1  0  0  0  0
 20 21  1  0  0  0  0
 22 23  1  0  0  0  0
 24 22  2  0  0  0  0
 25 24  1  0  0  0  0
M  END
>  <minimizedAffinity>
-4.6187315

$$$$

 OpenBabel03242516103D

 25 27  0  0  0  0  0  0  0  0999 V2000
   35.9820   28.8770   39.9190 C   0  0  0  0  0  0  0  0  0  0  0  0
   34.5450   29.2340   39.9280 C   0  0  0  0  0  0  0  0  0  0  0  0
   35.1660   28.6790   38.6910 C   0  0  0  0  0  0  0  0  0  0  0  0
   34.3140   30.3140   39.8360 H   0  0  0  0  0  0  0  0  0  0  0  0
   33.8380   28.5770   40.4800 H   0  0  0  0  0  0  0  0  0  0  0  0
   35.4000   29.3180   37.8140 H   0  0  0  0  0  0  0  0  0  0  0  0
   34.7940   27.6880   38.3650 H   0  0  0  0  0  0  0  0  0  0  0  0
   36.7000   31.1980   40.5280 C   0  0  0  0  0  0  0  0  0  0  0  0
   37.0010   29.9710   39.9310 C   0  0  0  0  0  0  0  0  0  0  0  0
   38.2810   29.8060   39.3520 C   0  0  0  0  0  0  0  0  0  0  0  0
   39.1440   30.8530   39.4120 N   0  0  0  0  0  0  0  0  0  0  0  0
   38.8330   32.0160   39.9880 C   0  0  0  0  0  0  0  0  0  0  0  0
   37.6100   32.1970   40.5500 N   0  0  0  0  0  0  0  0  0  0  0  0
   35.7300   31.2950   40.9560 H   0  0  0  0  0  0  0  0  0  0  0  0
   38.5060   28.8490   38.8920 H   0  0  0  0  0  0  0  0  0  0  0  0
   39.5010   32.8500   40.0430 H   0  0  0  0  0  0  0  0  0  0  0  0
   36.6140   28.6270   42.6970 F   0  0  0  0  0  0  0  0  0  0  0  0
   36.7480   27.5500   41.8840 C   0  0  0  0  0  0  0  0  0  0  0  0
   36.4580   27.6240   40.5540 C   0  0  0  0  0  0  0  0  0  0  0  0
   36.6460   26.4490   39.8680 C   0  0  0  0  0  0  0  0  0  0  0  0
   36.4390   26.4110   38.7890 H   0  0  0  0  0  0  0  0  0  0  0  0
   37.0840   25.2480   40.3810 C   0  0  0  0  0  0  0  0  0  0  0  0
   37.2070   24.3630   39.7750 H   0  0  0  0  0  0  0  0  0  0  0  0
   37.3550   25.2730   41.7530 C   0  0  0  0  0  3  0  0  0  0  0  0
   37.1940   26.4090   42.5150 C   0  0  0  0  0  3  0  0  0  0  0  0
  1  2  1  0  0  0  0
  1  9  1  0  0  0  0
  1 19  1  0  0  0  0
  2  5  1  0  0  0  0
  3  1  1  0  0  0  0
  3  2  1  0  0  0  0
  4  2  1  0  0  0  0
  6  3  1  0  0  0  0
  7  3  1  0  0  0  0
  8 13  1  0  0  0  0
  8 14  1  0  0  0  0
  9  8  2  0  0  0  0
 10 11  2  0  0  0  0
 10  9  1  0  0  0  0
 11 12  1  0  0  0  0
 12 16  1  0  0  0  0
 12 13  2  0  0  0  0
 15 10  1  0  0  0  0
 18 25  1  0  0  0  0
 18 17  1  0  0  0  0
 19 18  2  0  0  0  0
 20 22  2  0  0  0  0
 20 19  1  0  0  0  0
 21 20  1  0  0  0  0
 22 24  1  0  0  0  0
 23 22  1  0  0  0  0
 24 25  2  0  0  0  0
M  END
>  <minimizedAffinity>
-4.61724567

$$$$

 OpenBabel03242516103D

 25 27  0  0  0  0  0  0  0  0999 V2000
   37.2470   27.6200   41.9950 C   0  0  0  0  0  0  0  0  0  0  0  0
   37.2030   26.2780   42.6200 C   0  0  0  0  0  0  0  0  0  0  0  0
   36.4700   27.4160   43.2460 C   0  0  0  0  0  0  0  0  0  0  0  0
   38.1000   25.9840   43.2000 H   0  0  0  0  0  0  0  0  0  0  0  0
   36.5920   25.4860   42.1340 H   0  0  0  0  0  0  0  0  0  0  0  0
   36.8390   27.9180   44.1640 H   0  0  0  0  0  0  0  0  0  0  0  0
   35.3650   27.3290   43.2650 H   0  0  0  0  0  0  0  0  0  0  0  0
   38.5210   29.6690   42.6650 C   0  0  0  0  0  0  0  0  0  0  0  0
   38.5150   28.4090   42.0610 C   0  0  0  0  0  0  0  0  0  0  0  0
   39.7290   27.9190   41.5260 C   0  0  0  0  0  0  0  0  0  0  0  0
   40.8330   28.7040   41.6330 N   0  0  0  0  0  0  0  0  0  0  0  0
   40.8130   29.9050   42.2150 C   0  0  0  0  0  0  0  0  0  0  0  0
   39.6590   30.3960   42.7350 N   0  0  0  0  0  0  0  0  0  0  0  0
   37.5940   30.0140   43.0590 H   0  0  0  0  0  0  0  0  0  0  0  0
   39.7150   26.9390   41.0590 H   0  0  0  0  0  0  0  0  0  0  0  0
   41.6730   30.5350   42.3070 H   0  0  0  0  0  0  0  0  0  0  0  0
   37.5220   26.2970   39.4740 F   0  0  0  0  0  0  0  0  0  0  0  0
   36.5910   27.2720   39.6150 C   0  0  0  0  0  0  0  0  0  0  0  0
   36.4260   27.9290   40.7990 C   0  0  0  0  0  0  0  0  0  0  0  0
   35.4450   28.8890   40.7800 C   0  0  0  0  0  0  0  0  0  0  0  0
   35.2380   29.4740   41.6890 H   0  0  0  0  0  0  0  0  0  0  0  0
   34.6410   29.2370   39.7170 C   0  0  0  0  0  0  0  0  0  0  0  0
   33.8870   30.0060   39.7800 H   0  0  0  0  0  0  0  0  0  0  0  0
   34.8870   28.5080   38.5480 C   0  0  0  0  0  3  0  0  0  0  0  0
   35.8520   27.5280   38.4810 C   0  0  0  0  0  3  0  0  0  0  0  0
  1  9  1  0  0  0  0
  1  2  1  0  0  0  0
  1  3  1  0  0  0  0
  2  4  1  0  0  0  0
  2  3  1  0  0  0  0
  3  7  1  0  0  0  0
  3  6  1  0  0  0  0
  5  2  1  0  0  0  0
  8 13  1  0  0  0  0
  8 14  1  0  0  0  0
  9  8  2  0  0  0  0
 10 11  2  0  0  0  0
 10  9  1  0  0  0  0
 11 12  1  0  0  0  0
 12 16  1  0  0  0  0
 12 13  2  0  0  0  0
 15 10  1  0  0  0  0
 17 18  1  0  0  0  0
 18 19  1  0  0  0  0
 19  1  1  0  0  0  0
 20 19  2  0  0  0  0
 20 21  1  0  0  0  0
 22 23  1  0  0  0  0
 22 20  1  0  0  0  0
 24 22  2  0  0  0  0
 25 24  1  0  0  0  0
 25 18  2  0  0  0  0
M  END
>  <minimizedAffinity>
-4.5711875

$$$$

 OpenBabel03242516103D

 25 27  0  0  0  0  0  0  0  0999 V2000
   39.2400   29.6890   40.6650 C   0  0  0  0  0  0  0  0  0  0  0  0
   40.1930   29.0830   39.7080 C   0  0  0  0  0  0  0  0  0  0  0  0
   40.6880   29.6390   41.0000 C   0  0  0  0  0  0  0  0  0  0  0  0
   40.4760   29.7130   38.8410 H   0  0  0  0  0  0  0  0  0  0  0  0
   40.2010   27.9770   39.5950 H   0  0  0  0  0  0  0  0  0  0  0  0
   41.2340   30.6050   41.0530 H   0  0  0  0  0  0  0  0  0  0  0  0
   41.1210   28.9060   41.7090 H   0  0  0  0  0  0  0  0  0  0  0  0
   39.1610   32.1830   40.8850 C   0  0  0  0  0  0  0  0  0  0  0  0
   38.6270   31.0130   40.3380 C   0  0  0  0  0  0  0  0  0  0  0  0
   37.5070   31.1260   39.4820 C   0  0  0  0  0  0  0  0  0  0  0  0
   37.0160   32.3700   39.2390 N   0  0  0  0  0  0  0  0  0  0  0  0
   37.5450   33.4730   39.7740 C   0  0  0  0  0  0  0  0  0  0  0  0
   38.6190   33.3890   40.5990 N   0  0  0  0  0  0  0  0  0  0  0  0
   40.0030   32.0690   41.5260 H   0  0  0  0  0  0  0  0  0  0  0  0
   37.0990   30.2110   39.0620 H   0  0  0  0  0  0  0  0  0  0  0  0
   37.1690   34.4590   39.5920 H   0  0  0  0  0  0  0  0  0  0  0  0
   38.7780   30.1590   43.4480 F   0  0  0  0  0  0  0  0  0  0  0  0
   38.1850   29.1000   42.8450 C   0  0  0  0  0  0  0  0  0  0  0  0
   38.3770   28.8390   41.5210 C   0  0  0  0  0  0  0  0  0  0  0  0
   37.7090   27.7310   41.0610 C   0  0  0  0  0  0  0  0  0  0  0  0
   37.8030   27.4380   40.0040 H   0  0  0  0  0  0  0  0  0  0  0  0
   36.8920   26.8910   41.7860 C   0  0  0  0  0  0  0  0  0  0  0  0
   36.3980   26.0360   41.3520 H   0  0  0  0  0  0  0  0  0  0  0  0
   36.7580   27.2430   43.1340 C   0  0  0  0  0  3  0  0  0  0  0  0
   37.3940   28.3370   43.6760 C   0  0  0  0  0  3  0  0  0  0  0  0
  1  3  1  0  0  0  0
  1 19  1  0  0  0  0
  2  1  1  0  0  0  0
  2  3  1  0  0  0  0
  3  6  1  0  0  0  0
  3  7  1  0  0  0  0
  4  2  1  0  0  0  0
  5  2  1  0  0  0  0
  8 14  1  0  0  0  0
  9  1  1  0  0  0  0
  9  8  2  0  0  0  0
 10  9  1  0  0  0  0
 11 10  2  0  0  0  0
 11 12  1  0  0  0  0
 12 13  2  0  0  0  0
 13  8  1  0  0  0  0
 15 10  1  0  0  0  0
 16 12  1  0  0  0  0
 18 17  1  0  0  0  0
 18 25  1  0  0  0  0
 19 18  2  0  0  0  0
 20 19  1  0  0  0  0
 20 22  2  0  0  0  0
 21 20  1  0  0  0  0
 22 24  1  0  0  0  0
 23 22  1  0  0  0  0
 24 25  2  0  0  0  0
M  END
>  <minimizedAffinity>
-4.55109787

$$$$
