
 OpenBabel03252500423D

 28 30  0  0  1  0  0  0  0  0999 V2000
   48.2510   33.8620   42.1880 C   0  0  1  0  0  0  0  0  0  0  0  0
   49.7060   33.4720   41.9760 C   0  0  0  0  0  0  0  0  0  0  0  0
   48.6090   32.8320   41.1680 C   0  0  2  0  0  0  0  0  0  0  0  0
   47.9930   34.8150   41.7100 H   0  0  0  0  0  0  0  0  0  0  0  0
   50.4040   34.1890   41.4910 H   0  0  0  0  0  0  0  0  0  0  0  0
   50.2140   32.8790   42.7520 H   0  0  0  0  0  0  0  0  0  0  0  0
   48.3380   31.7720   41.3840 H   0  0  0  0  0  0  0  0  0  0  0  0
   49.7870   31.0390   39.4560 F   0  0  0  0  0  0  0  0  0  0  0  0
   49.2740   32.1800   38.9380 C   0  0  0  0  0  0  0  0  0  0  0  0
   48.6590   33.1430   39.7370 C   0  0  0  0  0  0  0  0  0  0  0  0
   48.1570   34.2810   39.1500 C   0  0  0  0  0  0  0  0  0  0  0  0
   47.6910   35.0070   39.7680 H   0  0  0  0  0  0  0  0  0  0  0  0
   48.2700   34.4520   37.7870 C   0  0  0  0  0  0  0  0  0  0  0  0
   47.8660   35.3560   37.3540 H   0  0  0  0  0  0  0  0  0  0  0  0
   48.8820   33.4890   37.0030 C   0  0  0  0  0  0  0  0  0  0  0  0
   49.3970   32.3330   37.5670 C   0  0  0  0  0  0  0  0  0  0  0  0
   47.6100   33.3520   43.4350 C   0  0  0  0  0  0  0  0  0  0  0  0
   48.3310   33.2760   44.2640 H   0  0  0  0  0  0  0  0  0  0  0  0
   47.1560   32.3520   43.1960 H   0  0  0  0  0  0  0  0  0  0  0  0
   46.4910   34.1980   43.8850 C   0  0  0  0  0  0  0  0  0  0  0  0
   46.0830   35.1610   42.9860 C   0  0  0  0  0  0  0  0  0  0  0  0
   45.0360   36.0290   43.2940 C   0  0  0  0  0  0  0  0  0  0  0  0
   44.4570   35.8560   44.5210 N   0  0  0  0  0  0  0  0  0  0  0  0
   44.8680   34.9020   45.3960 C   0  0  0  0  0  0  0  0  0  0  0  0
   45.8740   34.0830   45.0790 N   0  0  0  0  0  0  0  0  0  0  0  0
   46.3800   35.4650   41.9940 H   0  0  0  0  0  0  0  0  0  0  0  0
   44.5680   36.8210   42.7710 H   0  0  0  0  0  0  0  0  0  0  0  0
   44.3690   34.8100   46.3640 H   0  0  0  0  0  0  0  0  0  0  0  0
  1  4  1  6  0  0  0
  1 17  1  0  0  0  0
  2  1  1  0  0  0  0
  2  6  1  0  0  0  0
  3  7  1  1  0  0  0
  3  2  1  0  0  0  0
  3  1  1  0  0  0  0
  5  2  1  0  0  0  0
  9  8  1  0  0  0  0
  9 10  1  0  0  0  0
 10  3  1  0  0  0  0
 11 10  2  0  0  0  0
 11 12  1  0  0  0  0
 13 11  1  0  0  0  0
 14 13  1  0  0  0  0
 15 16  1  0  0  0  0
 15 13  2  0  0  0  0
 16  9  2  0  0  0  0
 17 20  1  0  0  0  0
 17 18  1  0  0  0  0
 19 17  1  0  0  0  0
 20 25  1  0  0  0  0
 21 22  1  0  0  0  0
 21 20  2  0  0  0  0
 22 23  2  0  0  0  0
 23 24  1  0  0  0  0
 24 28  1  0  0  0  0
 25 24  2  0  0  0  0
 26 21  1  0  0  0  0
 27 22  1  0  0  0  0
M  END
>  <minimizedAffinity>
-4.78747272

>  <minimizedRMSD>
2.3842237

$$$$
