
 OpenBabel03242511193D

 39 42  0  0  1  0  0  0  0  0999 V2000
   48.0490   32.9650   41.6460 C   0  0  0  0  0  0  0  0  0  0  0  0
   48.8300   32.9480   42.3980 H   0  0  0  0  0  0  0  0  0  0  0  0
   47.2470   32.2610   41.9960 H   0  0  0  0  0  0  0  0  0  0  0  0
   48.4060   32.5930   40.2870 C   0  0  0  0  0  0  0  0  0  0  0  0
   49.6090   32.2320   39.9940 C   0  0  0  0  0  0  0  0  0  0  0  0
   49.9640   31.8570   38.6780 N   0  0  0  0  0  0  0  0  0  0  0  0
   50.6310   30.9050   37.8200 C   0  0  0  0  0  0  0  0  0  0  0  0
   51.6080   30.1090   37.9570 O   0  0  0  0  0  0  0  0  0  0  0  0
   49.6370   31.3230   36.7720 C   0  0  0  0  0  0  0  0  0  0  0  0
   49.5840   32.6540   37.4990 C   0  0  1  0  0  0  0  0  0  0  0  0
   47.9690   33.3780   37.7650 S   0  0  0  0  0  0  0  0  0  0  0  0
   47.3010   32.6610   39.2990 C   0  0  0  0  0  0  0  0  0  0  0  0
   48.6880   30.7520   36.8020 H   0  0  0  0  0  0  0  0  0  0  0  0
   50.0820   31.4630   35.7670 H   0  0  0  0  0  0  0  0  0  0  0  0
   50.3950   33.3400   37.1450 H   0  0  0  0  0  0  0  0  0  0  0  0
   46.9720   31.6030   39.1130 H   0  0  0  0  0  0  0  0  0  0  0  0
   46.4720   33.3010   39.5940 H   0  0  0  0  0  0  0  0  0  0  0  0
   50.6400   32.2060   41.0420 C   0  0  0  0  0  0  0  0  0  0  0  0
   51.8640   31.9330   40.8340 O   0  0  0  0  0  0  0  0  0  0  0  0
   51.3380   32.2620   42.1990 O   0  0  0  0  0  0  0  0  0  0  0  0
   50.9930   32.0550   43.1440 H   0  0  0  0  0  0  0  0  0  0  0  0
   47.2560   34.6240   41.6620 S   0  0  0  0  0  0  0  0  0  0  0  0
   44.5990   35.8000   44.4850 C   0  0  0  0  0  0  0  0  0  0  0  0
   45.3320   35.7540   43.2640 C   0  0  0  0  0  0  0  0  0  0  0  0
   46.3100   34.7340   43.1550 C   0  0  0  0  0  0  0  0  0  0  0  0
   46.4830   33.8870   44.1970 N   0  0  0  0  0  0  0  0  0  0  0  0
   45.7670   33.9760   45.3200 C   0  0  0  0  0  0  0  0  0  0  0  0
   44.8290   34.9180   45.4810 N   0  0  0  0  0  0  0  0  0  0  0  0
   43.8520   36.5990   44.5360 H   0  0  0  0  0  0  0  0  0  0  0  0
   45.1440   36.4520   42.4880 H   0  0  0  0  0  0  0  0  0  0  0  0
   44.2800   33.9400   47.7270 F   0  0  0  0  0  0  0  0  0  0  0  0
   45.2640   33.0370   47.5610 C   0  0  0  0  0  0  0  0  0  0  0  0
   46.0110   33.0240   46.4000 C   0  0  0  0  0  0  0  0  0  0  0  0
   47.0030   32.0700   46.3020 C   0  0  0  0  0  0  0  0  0  0  0  0
   47.6130   32.0370   45.3880 H   0  0  0  0  0  0  0  0  0  0  0  0
   47.3190   31.1300   47.2510 C   0  0  0  0  0  0  0  0  0  0  0  0
   48.1120   30.4100   47.1070 H   0  0  0  0  0  0  0  0  0  0  0  0
   46.5410   31.1750   48.4100 C   0  0  0  0  0  0  0  0  0  0  0  0
   45.5230   32.1110   48.5770 C   0  0  0  0  0  0  0  0  0  0  0  0
  1 22  1  0  0  0  0
  1  3  1  0  0  0  0
  1  2  1  0  0  0  0
  4  1  1  0  0  0  0
  5  4  2  0  0  0  0
  5 18  1  0  0  0  0
  6  5  1  0  0  0  0
  7  8  2  0  0  0  0
  7  6  1  0  0  0  0
  9 13  1  0  0  0  0
  9 10  1  0  0  0  0
  9  7  1  0  0  0  0
 10 15  1  6  0  0  0
 10 11  1  0  0  0  0
 10  6  1  0  0  0  0
 11 12  1  0  0  0  0
 12 17  1  0  0  0  0
 12  4  1  0  0  0  0
 14  9  1  0  0  0  0
 16 12  1  0  0  0  0
 18 20  1  0  0  0  0
 19 18  2  0  0  0  0
 20 21  1  0  0  0  0
 22 25  1  0  0  0  0
 23 29  1  0  0  0  0
 23 28  1  0  0  0  0
 24 23  2  0  0  0  0
 25 24  1  0  0  0  0
 25 26  2  0  0  0  0
 26 27  1  0  0  0  0
 27 28  2  0  0  0  0
 27 33  1  0  0  0  0
 30 24  1  0  0  0  0
 32 31  1  0  0  0  0
 32 39  1  0  0  0  0
 33 32  2  0  0  0  0
 34 33  1  0  0  0  0
 34 36  2  0  0  0  0
 35 34  1  0  0  0  0
 36 38  1  0  0  0  0
 37 36  1  0  0  0  0
 38 39  2  0  0  0  0
M  END
>  <minimizedAffinity>
-6.22022343

>  <minimizedRMSD>
0.264208943

$$$$
