
 OpenBabel03252503023D

 33 34  0  0  0  0  0  0  0  0999 V2000
   41.1310   32.5360   40.9020 C   0  0  0  0  0  0  0  0  0  0  0  0
   42.2840   33.2120   40.5110 C   0  0  0  0  0  0  0  0  0  0  0  0
   42.4890   33.5720   39.1820 C   0  0  0  0  0  0  0  0  0  0  0  0
   41.5180   33.2350   38.2940 N   0  0  0  0  0  0  0  0  0  0  0  0
   40.4180   32.5840   38.6970 C   0  0  0  0  0  0  0  0  0  0  0  0
   40.2070   32.2340   39.9560 N   0  0  0  0  0  0  0  0  0  0  0  0
   41.0280   32.2840   41.9460 H   0  0  0  0  0  0  0  0  0  0  0  0
   43.4010   34.1060   38.8790 H   0  0  0  0  0  0  0  0  0  0  0  0
   38.4700   34.4490   37.7920 F   0  0  0  0  0  0  0  0  0  0  0  0
   38.4620   33.1940   37.2820 C   0  0  0  0  0  0  0  0  0  0  0  0
   39.4000   32.2430   37.6980 C   0  0  0  0  0  0  0  0  0  0  0  0
   39.3310   30.9830   37.1360 C   0  0  0  0  0  0  0  0  0  0  0  0
   40.0880   30.2780   37.4950 H   0  0  0  0  0  0  0  0  0  0  0  0
   38.4000   30.5950   36.1910 C   0  0  0  0  0  0  0  0  0  0  0  0
   38.3840   29.5950   35.7780 H   0  0  0  0  0  0  0  0  0  0  0  0
   37.4690   31.5440   35.7820 C   0  0  0  0  0  0  0  0  0  0  0  0
   37.5160   32.8120   36.3280 C   0  0  0  0  0  0  0  0  0  0  0  0
   43.5300   33.6260   41.7530 S   0  0  0  0  0  0  0  0  0  0  0  0
   43.5390   35.4050   41.9980 C   0  0  0  0  0  0  0  0  0  0  0  0
   44.5390   35.8070   41.7250 H   0  0  0  0  0  0  0  0  0  0  0  0
   42.7700   35.9040   41.3770 H   0  0  0  0  0  0  0  0  0  0  0  0
   43.3010   35.6410   43.4240 N   0  0  0  0  0  0  0  0  0  0  0  0
   42.6400   36.4470   43.5490 H   0  0  0  0  0  0  0  0  0  0  0  0
   44.7470   35.8450   44.3160 S   0  0  0  0  0  0  0  0  0  0  0  0
   45.9470   35.3800   43.5520 O   0  0  0  0  0  0  0  0  0  0  0  0
   46.7510   35.9870   43.5140 H   0  0  0  0  0  0  0  0  0  0  0  0
   44.8680   37.3380   44.5910 O   0  0  0  0  0  0  0  0  0  0  0  0
   44.9410   38.0250   43.8840 H   0  0  0  0  0  0  0  0  0  0  0  0
   44.6340   35.0990   45.7900 O   0  0  0  0  0  0  0  0  0  0  0  0
   45.4160   33.9530   45.8740 C   0  0  0  0  0  0  0  0  0  0  0  0
   45.2670   33.4850   46.8530 H   0  0  0  0  0  0  0  0  0  0  0  0
   45.0900   33.2060   45.0960 H   0  0  0  0  0  0  0  0  0  0  0  0
   46.4760   34.1850   45.6520 H   0  0  0  0  0  0  0  0  0  0  0  0
  1  7  1  0  0  0  0
  2  1  1  0  0  0  0
  2 18  1  0  0  0  0
  3  2  2  0  0  0  0
  4  5  2  0  0  0  0
  4  3  1  0  0  0  0
  5  6  1  0  0  0  0
  6  1  2  0  0  0  0
  8  3  1  0  0  0  0
 10 11  1  0  0  0  0
 10  9  1  0  0  0  0
 11  5  1  0  0  0  0
 12 13  1  0  0  0  0
 12 11  2  0  0  0  0
 14 12  1  0  0  0  0
 15 14  1  0  0  0  0
 16 14  2  0  0  0  0
 16 17  1  0  0  0  0
 17 10  2  0  0  0  0
 18 19  1  0  0  0  0
 19 22  1  0  0  0  0
 20 19  1  0  0  0  0
 21 19  1  0  0  0  0
 22 23  1  0  0  0  0
 22 24  1  0  0  0  0
 24 27  1  0  0  0  0
 24 29  1  0  0  0  0
 25 24  1  0  0  0  0
 26 25  1  0  0  0  0
 28 27  1  0  0  0  0
 29 30  1  0  0  0  0
 30 31  1  0  0  0  0
 32 30  1  0  0  0  0
 33 30  1  0  0  0  0
M  END
>  <minimizedAffinity>
-4.57036543

>  <minimizedRMSD>
2.69579506

$$$$
