
     RDKit          3D

 43 47  0  0  0  0  0  0  0  0999 V2000
   46.3825   32.6687   45.8683 C   0  0  1  0  0  0  0  0  0  0  0  0
   46.9697   32.8349   47.2054 C   0  0  0  0  0  0  0  0  0  0  0  0
   45.5414   32.2079   46.9555 C   0  0  2  0  0  0  0  0  0  0  0  0
   45.3022   30.8031   47.3004 C   0  0  0  0  0  0  0  0  0  0  0  0
   45.1768   30.2665   48.5458 C   0  0  0  0  0  0  0  0  0  0  0  0
   45.0757   28.9136   48.8388 C   0  0  0  0  0  0  0  0  0  0  0  0
   45.1079   28.0331   47.7478 C   0  0  0  0  0  0  0  0  0  0  0  0
   45.2326   28.5584   46.4602 C   0  0  0  0  0  0  0  0  0  0  0  0
   45.1955   27.6534   45.4146 C   0  0  0  0  0  0  0  0  0  0  0  0
   45.2441   28.1363   44.1112 C   0  0  0  0  0  0  0  0  0  0  0  0
   45.3253   29.4911   43.8606 C   0  0  0  0  0  0  0  0  0  0  0  0
   45.3607   30.3401   44.9424 C   0  0  0  0  0  0  0  0  0  0  0  0
   45.3235   29.9110   46.2569 C   0  0  0  0  0  0  0  0  0  0  0  0
   44.6032   35.7312   44.8247 C   0  0  0  0  0  0  0  0  0  0  0  0
   45.1481   35.9676   43.5160 C   0  0  0  0  0  0  0  0  0  0  0  0
   46.1269   35.0620   43.0424 C   0  0  0  0  0  0  0  0  0  0  0  0
   46.5146   34.0236   43.8136 N   0  0  0  0  0  0  0  0  0  0  0  0
   45.9531   33.8496   45.0630 C   0  0  0  0  0  0  0  0  0  0  0  0
   45.0313   34.6751   45.5486 N   0  0  0  0  0  0  0  0  0  0  0  0
   47.1401   32.0283   45.2903 H   0  0  0  0  0  0  0  0  0  0  0  0
   47.6125   32.0926   47.6996 H   0  0  0  0  0  0  0  0  0  0  0  0
   47.0151   33.8314   47.6739 H   0  0  0  0  0  0  0  0  0  0  0  0
   44.8999   32.8880   47.5882 H   0  0  0  0  0  0  0  0  0  0  0  0
   45.1572   30.9866   49.3614 H   0  0  0  0  0  0  0  0  0  0  0  0
   44.9772   28.5561   49.8550 H   0  0  0  0  0  0  0  0  0  0  0  0
   45.0352   26.9683   47.9306 H   0  0  0  0  0  0  0  0  0  0  0  0
   45.1292   26.5879   45.6379 H   0  0  0  0  0  0  0  0  0  0  0  0
   45.2110   27.3291   43.3612 H   0  0  0  0  0  0  0  0  0  0  0  0
   45.3483   29.6594   42.8049 H   0  0  0  0  0  0  0  0  0  0  0  0
   45.3366   31.2981   44.5061 H   0  0  0  0  0  0  0  0  0  0  0  0
   43.8594   36.4452   45.1483 H   0  0  0  0  0  0  0  0  0  0  0  0
   44.8058   36.7977   42.9570 H   0  0  0  0  0  0  0  0  0  0  0  0
   44.7019   34.4463   40.7924 F   0  0  0  0  0  0  0  0  0  0  0  0
   45.9740   34.9329   40.6050 C   0  0  0  0  0  0  0  0  0  0  0  0
   46.7142   35.2513   41.7245 C   0  0  0  0  0  0  0  0  0  0  0  0
   47.9592   35.7255   41.4751 C   0  0  0  0  0  0  0  0  0  0  0  0
   48.5974   35.9961   42.3022 H   0  0  0  0  0  0  0  0  0  0  0  0
   48.4731   35.8874   40.1910 C   0  0  0  0  0  0  0  0  0  0  0  0
   49.4885   36.2769   40.0784 H   0  0  0  0  0  0  0  0  0  0  0  0
   47.6829   35.5508   39.1111 C   0  0  0  0  0  0  0  0  0  0  0  0
   46.4161   35.0665   39.3065 C   0  0  0  0  0  0  0  0  0  0  0  0
   48.0542   35.6653   38.1015 H   0  0  0  0  0  0  0  0  0  0  0  0
   45.7510   34.7859   38.4948 H   0  0  0  0  0  0  0  0  0  0  0  0
  1  3  1  0
  1  2  1  0
  3  2  1  0
  3  4  1  0
  4  5  2  0
  5  6  1  0
  7  6  2  0
  8  7  1  0
  9  8  2  0
 10  9  1  0
 11 10  2  0
 11 12  1  0
 12 13  2  0
 13  8  1  0
 13  4  1  0
 14 19  2  0
 15 14  1  0
 16 15  2  0
 16 17  1  0
 17 18  2  0
 18 19  1  0
 18  1  1  0
  1 20  1  6
  2 21  1  0
  2 22  1  0
  3 23  1  1
  5 24  1  0
  6 25  1  0
  7 26  1  0
  9 27  1  0
 10 28  1  0
 11 29  1  0
 12 30  1  0
 14 31  1  0
 15 32  1  0
 33 34  1  0
 34 35  2  0
 35 36  1  0
 36 37  1  0
 36 38  2  0
 38 39  1  0
 38 40  1  0
 40 41  2  0
 41 34  1  0
 40 42  1  0
 41 43  1  0
 16 35  1  0
M  ISO  8  20  13  21  13  22  13  23  13  24  14  25  14  26  14  27  14
M  ISO  7  28  14  29  14  30  14  31  14  32  14  37  15  39  16
M  END
>  <DihAtoms>  (1) 
14,15,34,33

>  <DihDeg>  (1) 
179.9882641965866

$$$$
