
 OpenBabel03252503463D

 44 47  0  0  1  0  0  0  0  0999 V2000
   45.0300   34.8930   44.8770 C   0  0  0  0  0  0  0  0  0  0  0  0
   45.9600   34.7200   43.8510 C   0  0  0  0  0  0  0  0  0  0  0  0
   46.8490   33.6560   43.9980 C   0  0  0  0  0  0  0  0  0  0  0  0
   46.8090   32.8380   45.0700 N   0  0  0  0  0  0  0  0  0  0  0  0
   45.8850   33.0460   46.0430 C   0  0  0  0  0  0  0  0  0  0  0  0
   45.0030   34.0650   45.9490 N   0  0  0  0  0  0  0  0  0  0  0  0
   44.3450   35.7100   44.7690 H   0  0  0  0  0  0  0  0  0  0  0  0
   47.6250   33.4220   43.3280 H   0  0  0  0  0  0  0  0  0  0  0  0
   47.3120   31.8120   47.6640 C   0  0  2  0  0  0  0  0  0  0  0  0
   45.8670   32.1390   47.1860 C   0  0  1  0  0  0  0  0  0  0  0  0
   45.3780   32.6490   48.3400 O   0  0  0  0  0  0  0  0  0  0  0  0
   45.7420   31.8190   49.3590 C   0  0  0  0  0  0  0  0  0  0  0  0
   46.9180   31.0020   48.9070 C   0  0  2  0  0  0  0  0  0  0  0  0
   47.8490   31.2100   46.9260 H   0  0  0  0  0  0  0  0  0  0  0  0
   45.3870   31.1730   46.9430 H   0  0  0  0  0  0  0  0  0  0  0  0
   44.9060   31.2150   49.7830 H   0  0  0  0  0  0  0  0  0  0  0  0
   46.0930   32.4540   50.2180 H   0  0  0  0  0  0  0  0  0  0  0  0
   46.5060   30.0170   48.5810 H   0  0  0  0  0  0  0  0  0  0  0  0
   47.9230   32.9310   48.0950 O   0  0  0  0  0  0  0  0  0  0  0  0
   47.2320   33.5510   48.4750 H   0  0  0  0  0  0  0  0  0  0  0  0
   47.9220   30.9140   49.8330 O   0  0  0  0  0  0  0  0  0  0  0  0
   48.6150   31.5820   49.6870 H   0  0  0  0  0  0  0  0  0  0  0  0
   46.0020   35.5770   42.6870 C   0  0  0  0  0  0  0  0  0  0  0  0
   47.0340   35.4700   42.2330 H   0  0  0  0  0  0  0  0  0  0  0  0
   45.9150   36.6410   42.9460 H   0  0  0  0  0  0  0  0  0  0  0  0
   45.0040   35.1550   41.6950 C   0  0  0  0  0  0  0  0  0  0  0  0
   43.7210   35.6360   41.6100 C   0  0  0  0  0  0  0  0  0  0  0  0
   42.8300   35.1990   40.6480 C   0  0  0  0  0  0  0  0  0  0  0  0
   43.2650   34.2370   39.7440 C   0  0  0  0  0  0  0  0  0  0  0  0
   44.5720   33.7420   39.8270 C   0  0  0  0  0  0  0  0  0  0  0  0
   45.4500   34.2040   40.8090 C   0  0  0  0  0  0  0  0  0  0  0  0
   43.5220   36.3790   42.3790 H   0  0  0  0  0  0  0  0  0  0  0  0
   41.8510   35.6550   40.6850 H   0  0  0  0  0  0  0  0  0  0  0  0
   42.4600   33.9990   39.0600 H   0  0  0  0  0  0  0  0  0  0  0  0
   44.6410   33.0170   39.0150 H   0  0  0  0  0  0  0  0  0  0  0  0
   48.0590   35.1120   40.0710 F   0  0  0  0  0  0  0  0  0  0  0  0
   47.9470   33.7700   40.1690 C   0  0  0  0  0  0  0  0  0  0  0  0
   46.6510   33.4330   40.5310 C   0  0  0  0  0  0  0  0  0  0  0  0
   46.3370   32.0730   40.6840 C   0  0  0  0  0  0  0  0  0  0  0  0
   45.3880   31.6110   40.9600 H   0  0  0  0  0  0  0  0  0  0  0  0
   47.3030   31.0830   40.4790 C   0  0  0  0  0  0  0  0  0  0  0  0
   47.1370   30.0210   40.5770 H   0  0  0  0  0  0  0  0  0  0  0  0
   48.5810   31.4510   40.1200 C   0  0  0  0  0  0  0  0  0  0  0  0
   48.8860   32.7850   39.9720 C   0  0  0  0  0  0  0  0  0  0  0  0
  1  6  1  0  0  0  0
  2  3  1  0  0  0  0
  2  1  2  0  0  0  0
  3  4  2  0  0  0  0
  4  5  1  0  0  0  0
  5 10  1  0  0  0  0
  6  5  2  0  0  0  0
  7  1  1  0  0  0  0
  8  3  1  0  0  0  0
  9 14  1  6  0  0  0
  9 19  1  0  0  0  0
  9 13  1  0  0  0  0
 10 15  1  6  0  0  0
 10  9  1  0  0  0  0
 10 11  1  0  0  0  0
 11 12  1  0  0  0  0
 12 16  1  0  0  0  0
 12 17  1  0  0  0  0
 13 18  1  6  0  0  0
 13 12  1  0  0  0  0
 13 21  1  0  0  0  0
 19 20  1  0  0  0  0
 22 21  1  0  0  0  0
 23 25  1  0  0  0  0
 23  2  1  0  0  0  0
 24 23  1  0  0  0  0
 26 23  1  0  0  0  0
 27 26  1  0  0  0  0
 27 32  1  0  0  0  0
 28 33  1  0  0  0  0
 28 27  2  0  0  0  0
 29 30  2  0  0  0  0
 29 28  1  0  0  0  0
 30 31  1  0  0  0  0
 31 26  2  0  0  0  0
 34 29  1  0  0  0  0
 35 30  1  0  0  0  0
 36 37  1  0  0  0  0
 37 38  1  0  0  0  0
 38 39  2  0  0  0  0
 38 31  1  0  0  0  0
 39 40  1  0  0  0  0
 41 42  1  0  0  0  0
 41 39  1  0  0  0  0
 43 41  2  0  0  0  0
 44 43  1  0  0  0  0
 44 37  2  0  0  0  0
M  END
>  <minimizedAffinity>
-7.28263569

>  <minimizedRMSD>
0.576953471

$$$$
