
 OpenBabel03252506283D

 47 51  0  0  0  0  0  0  0  0999 V2000
   46.4340   32.8240   45.7880 C   0  0  0  0  0  0  0  0  0  0  0  0
   47.4320   31.8370   45.6160 C   0  0  0  0  0  0  0  0  0  0  0  0
   47.5370   31.1210   46.7590 C   0  0  0  0  0  0  0  0  0  0  0  0
   46.6500   31.6350   47.6020 N   0  0  0  0  0  0  0  0  0  0  0  0
   45.9810   32.6490   47.0500 N   0  0  0  0  0  0  0  0  0  0  0  0
   48.0110   31.6970   44.6940 H   0  0  0  0  0  0  0  0  0  0  0  0
   48.1900   30.3000   46.9760 H   0  0  0  0  0  0  0  0  0  0  0  0
   44.7660   35.6430   44.1730 C   0  0  0  0  0  0  0  0  0  0  0  0
   45.2830   35.5990   42.8710 C   0  0  0  0  0  0  0  0  0  0  0  0
   46.2010   34.5980   42.5700 C   0  0  0  0  0  0  0  0  0  0  0  0
   46.5060   33.7580   43.5670 N   0  0  0  0  0  0  0  0  0  0  0  0
   46.0240   33.7910   44.7950 C   0  0  0  0  0  0  0  0  0  0  0  0
   45.1440   34.7460   45.0980 N   0  0  0  0  0  0  0  0  0  0  0  0
   44.0690   36.4330   44.3370 H   0  0  0  0  0  0  0  0  0  0  0  0
   44.9950   36.3040   42.1180 H   0  0  0  0  0  0  0  0  0  0  0  0
   48.5450   35.8620   41.9810 F   0  0  0  0  0  0  0  0  0  0  0  0
   47.9960   35.0930   40.9870 C   0  0  0  0  0  0  0  0  0  0  0  0
   46.8120   34.4430   41.2580 C   0  0  0  0  0  0  0  0  0  0  0  0
   46.2790   33.6770   40.2460 C   0  0  0  0  0  0  0  0  0  0  0  0
   45.3540   33.1470   40.4060 H   0  0  0  0  0  0  0  0  0  0  0  0
   46.8510   33.5250   39.0010 C   0  0  0  0  0  0  0  0  0  0  0  0
   46.4180   32.9200   38.2210 H   0  0  0  0  0  0  0  0  0  0  0  0
   48.0520   34.1960   38.7540 C   0  0  0  0  0  0  0  0  0  0  0  0
   48.5870   34.9590   39.7550 C   0  0  0  0  0  0  0  0  0  0  0  0
   46.4110   31.1750   48.9650 C   0  0  0  0  0  0  0  0  0  0  0  0
   46.4870   32.0030   49.6950 H   0  0  0  0  0  0  0  0  0  0  0  0
   47.1510   30.4250   49.2550 H   0  0  0  0  0  0  0  0  0  0  0  0
   45.0600   30.5660   49.0850 C   0  0  0  0  0  0  0  0  0  0  0  0
   44.2740   31.3200   48.7920 H   0  0  0  0  0  0  0  0  0  0  0  0
   44.8610   30.3910   50.1640 H   0  0  0  0  0  0  0  0  0  0  0  0
   44.9430   28.0180   48.8650 C   0  0  0  0  0  0  0  0  0  0  0  0
   44.8360   29.3080   48.3950 C   0  0  0  0  0  0  0  0  0  0  0  0
   44.4570   29.4400   47.0610 C   0  0  0  0  0  0  0  0  0  0  0  0
   44.2050   28.3570   46.2660 C   0  0  0  0  0  0  0  0  0  0  0  0
   43.8340   28.1840   44.9810 N   0  0  0  0  0  0  0  0  0  0  0  0
   43.7160   26.8890   44.6640 C   0  0  0  0  0  0  0  0  0  0  0  0
   44.0260   26.1400   45.8030 C   0  0  0  0  0  0  0  0  0  0  0  0
   44.3150   27.0790   46.7440 C   0  0  0  0  0  0  0  0  0  0  0  0
   44.6890   26.9350   48.0570 C   0  0  0  0  0  0  0  0  0  0  0  0
   45.2420   27.9560   49.9120 H   0  0  0  0  0  0  0  0  0  0  0  0
   44.3350   30.4010   46.5640 H   0  0  0  0  0  0  0  0  0  0  0  0
   43.6500   28.9350   44.2790 H   0  0  0  0  0  0  0  0  0  0  0  0
   43.4330   26.4670   43.7050 H   0  0  0  0  0  0  0  0  0  0  0  0
   44.0320   25.0710   45.9050 H   0  0  0  0  0  0  0  0  0  0  0  0
   44.8260   25.5950   48.6360 C   0  0  0  0  0  0  0  0  0  0  0  0
   45.0060   25.4240   49.8620 O   0  0  0  0  0  0  0  0  0  0  0  0
   44.7720   24.7130   47.9940 H   0  0  0  0  0  0  0  0  0  0  0  0
  1  5  2  0  0  0  0
  2  1  1  0  0  0  0
  2  3  2  0  0  0  0
  3  7  1  0  0  0  0
  3  4  1  0  0  0  0
  4 25  1  0  0  0  0
  5  4  1  0  0  0  0
  6  2  1  0  0  0  0
  8 14  1  0  0  0  0
  8 13  1  0  0  0  0
  9  8  2  0  0  0  0
 10  9  1  0  0  0  0
 10 11  2  0  0  0  0
 11 12  1  0  0  0  0
 12 13  2  0  0  0  0
 12  1  1  0  0  0  0
 15  9  1  0  0  0  0
 17 18  1  0  0  0  0
 17 16  1  0  0  0  0
 18 10  1  0  0  0  0
 19 20  1  0  0  0  0
 19 18  2  0  0  0  0
 21 19  1  0  0  0  0
 22 21  1  0  0  0  0
 23 21  2  0  0  0  0
 23 24  1  0  0  0  0
 24 17  2  0  0  0  0
 25 28  1  0  0  0  0
 25 27  1  0  0  0  0
 25 26  1  0  0  0  0
 28 30  1  0  0  0  0
 29 28  1  0  0  0  0
 31 40  1  0  0  0  0
 32 31  1  0  0  0  0
 32 28  1  0  0  0  0
 33 32  2  0  0  0  0
 34 38  2  0  0  0  0
 34 33  1  0  0  0  0
 35 34  1  0  0  0  0
 36 35  1  0  0  0  0
 36 37  2  0  0  0  0
 37 44  1  0  0  0  0
 37 38  1  0  0  0  0
 38 39  1  0  0  0  0
 39 45  1  0  0  0  0
 39 31  2  0  0  0  0
 41 33  1  0  0  0  0
 42 35  1  0  0  0  0
 43 36  1  0  0  0  0
 45 46  2  0  0  0  0
 47 45  1  0  0  0  0
M  END
>  <minimizedAffinity>
-6.34950161

>  <minimizedRMSD>
1.29934251

$$$$
