
 OpenBabel03242522543D

 40 42  0  0  1  0  0  0  0  0999 V2000
   48.2760   31.3040   48.4670 C   0  0  0  0  0  0  0  0  0  0  0  0
   48.8770   32.1470   49.2130 O   0  0  0  0  0  0  0  0  0  0  0  0
   49.1950   30.3030   48.8880 N   0  0  0  0  0  0  0  0  0  0  0  0
   49.3590   29.3420   47.7970 C   0  0  0  0  0  0  0  0  0  0  0  0
   50.2660   28.2560   48.3320 C   0  0  0  0  0  0  0  0  0  0  0  0
   49.8510   27.9010   49.7010 N   0  0  0  0  0  0  0  0  0  0  0  0
   50.4020   28.9100   50.5390 C   0  0  0  0  0  0  0  0  0  0  0  0
   49.8540   30.2450   50.1780 C   0  0  1  0  0  0  0  0  0  0  0  0
   49.9010   29.8330   46.9640 H   0  0  0  0  0  0  0  0  0  0  0  0
   48.3840   28.9230   47.4800 H   0  0  0  0  0  0  0  0  0  0  0  0
   50.0630   27.3470   47.7200 H   0  0  0  0  0  0  0  0  0  0  0  0
   51.3250   28.5210   48.2830 H   0  0  0  0  0  0  0  0  0  0  0  0
   50.0900   26.9370   49.9430 H   0  0  0  0  0  0  0  0  0  0  0  0
   51.5190   28.8530   50.5140 H   0  0  0  0  0  0  0  0  0  0  0  0
   50.1180   28.6460   51.5860 H   0  0  0  0  0  0  0  0  0  0  0  0
   49.1010   30.5540   50.9350 H   0  0  0  0  0  0  0  0  0  0  0  0
   51.9130   30.4410   48.2180 F   0  0  0  0  0  0  0  0  0  0  0  0
   51.9490   31.2600   49.2940 C   0  0  0  0  0  0  0  0  0  0  0  0
   50.9780   31.2170   50.2850 C   0  0  0  0  0  0  0  0  0  0  0  0
   51.0630   32.0620   51.3450 C   0  0  0  0  0  0  0  0  0  0  0  0
   50.3040   32.0260   52.1160 H   0  0  0  0  0  0  0  0  0  0  0  0
   52.0810   32.9970   51.5180 C   0  0  0  0  0  0  0  0  0  0  0  0
   52.1590   33.6680   52.3470 H   0  0  0  0  0  0  0  0  0  0  0  0
   53.0310   33.0000   50.4940 C   0  0  0  0  0  0  0  0  0  0  0  0
   52.9930   32.1640   49.3970 C   0  0  0  0  0  0  0  0  0  0  0  0
   47.2190   31.8310   47.7860 O   0  0  0  0  0  0  0  0  0  0  0  0
   44.7860   30.8200   47.6550 O   0  0  0  0  0  0  0  0  0  0  0  0
   45.6310   31.9880   48.2220 P   0  0  1  0  0  0  0  0  0  0  0  0
   45.4310   31.9430   49.8860 O   0  0  0  0  0  0  0  0  0  0  0  0
   46.0160   32.6140   50.3310 H   0  0  0  0  0  0  0  0  0  0  0  0
   44.9930   33.4200   47.5780 O   0  0  0  0  0  0  0  0  0  0  0  0
   46.6450   33.5460   44.3520 C   0  0  0  0  0  0  0  0  0  0  0  0
   46.2750   33.1530   45.6610 C   0  0  0  0  0  0  0  0  0  0  0  0
   45.3020   33.8530   46.3170 C   0  0  0  0  0  0  0  0  0  0  0  0
   44.7070   34.9140   45.7020 N   0  0  0  0  0  0  0  0  0  0  0  0
   45.0730   35.2760   44.4480 C   0  0  0  0  0  0  0  0  0  0  0  0
   46.0290   34.6080   43.7750 N   0  0  0  0  0  0  0  0  0  0  0  0
   47.4030   33.0440   43.7750 H   0  0  0  0  0  0  0  0  0  0  0  0
   46.8360   32.3120   45.9880 H   0  0  0  0  0  0  0  0  0  0  0  0
   44.5920   36.1200   43.9730 H   0  0  0  0  0  0  0  0  0  0  0  0
  1  3  1  0  0  0  0
  1  2  2  0  0  0  0
  3  8  1  0  0  0  0
  4  5  1  0  0  0  0
  4  3  1  0  0  0  0
  5  6  1  0  0  0  0
  6 13  1  0  0  0  0
  6  7  1  0  0  0  0
  7 15  1  0  0  0  0
  8 19  1  0  0  0  0
  8  7  1  0  0  0  0
  8 16  1  1  0  0  0
  9  4  1  0  0  0  0
 10  4  1  0  0  0  0
 11  5  1  0  0  0  0
 12  5  1  0  0  0  0
 14  7  1  0  0  0  0
 17 18  1  0  0  0  0
 18 25  2  0  0  0  0
 18 19  1  0  0  0  0
 19 20  2  0  0  0  0
 20 22  1  0  0  0  0
 20 21  1  0  0  0  0
 22 23  1  0  0  0  0
 24 22  2  0  0  0  0
 25 24  1  0  0  0  0
 26 28  1  0  0  0  0
 26  1  1  0  0  0  0
 28 27  2  6  0  0  0
 28 29  1  0  0  0  0
 29 30  1  0  0  0  0
 31 28  1  0  0  0  0
 32 33  1  0  0  0  0
 33 39  1  0  0  0  0
 33 34  2  0  0  0  0
 34 31  1  0  0  0  0
 35 34  1  0  0  0  0
 36 35  2  0  0  0  0
 37 32  2  0  0  0  0
 37 36  1  0  0  0  0
 38 32  1  0  0  0  0
 40 36  1  0  0  0  0
M  END
>  <minimizedAffinity>
-6.17942762

>  <minimizedRMSD>
1.08339179

$$$$
