
 OpenBabel03252508323D

 32 34  0  0  1  0  0  0  0  0999 V2000
   45.6110   33.7310   42.9480 N   0  0  0  0  0  0  0  0  0  0  0  0
   46.3150   33.3310   41.7610 C   0  0  1  0  0  0  0  0  0  0  0  0
   45.9610   34.1290   40.5490 C   0  0  0  0  0  0  0  0  0  0  0  0
   44.6070   34.4930   40.4090 N   0  0  0  0  0  0  0  0  0  0  0  0
   43.8400   34.6860   41.5720 C   0  0  0  0  0  0  0  0  0  0  0  0
   44.7470   34.8600   42.7800 C   0  0  0  0  0  0  0  0  0  0  0  0
   46.1430   32.2510   41.5860 H   0  0  0  0  0  0  0  0  0  0  0  0
   46.5870   35.0540   40.5430 H   0  0  0  0  0  0  0  0  0  0  0  0
   46.3190   33.5400   39.6650 H   0  0  0  0  0  0  0  0  0  0  0  0
   44.1020   34.1290   39.5910 H   0  0  0  0  0  0  0  0  0  0  0  0
   43.2430   33.7610   41.7550 H   0  0  0  0  0  0  0  0  0  0  0  0
   43.1290   35.5160   41.5470 H   0  0  0  0  0  0  0  0  0  0  0  0
   45.2940   35.8100   42.6160 H   0  0  0  0  0  0  0  0  0  0  0  0
   44.0810   34.9850   43.6440 H   0  0  0  0  0  0  0  0  0  0  0  0
   46.1520   33.7270   45.2650 C   0  0  0  0  0  0  0  0  0  0  0  0
   45.8430   32.9840   44.1300 C   0  0  0  0  0  0  0  0  0  0  0  0
   45.7890   31.6080   44.2590 C   0  0  0  0  0  0  0  0  0  0  0  0
   46.0340   31.0210   45.4620 N   0  0  0  0  0  0  0  0  0  0  0  0
   46.3340   31.7790   46.5490 C   0  0  0  0  0  0  0  0  0  0  0  0
   46.3910   33.1230   46.4410 N   0  0  0  0  0  0  0  0  0  0  0  0
   46.2510   34.7920   45.3940 H   0  0  0  0  0  0  0  0  0  0  0  0
   45.5450   31.0510   43.3660 H   0  0  0  0  0  0  0  0  0  0  0  0
   46.5100   31.1940   47.4530 H   0  0  0  0  0  0  0  0  0  0  0  0
   47.4870   35.9130   42.1460 F   0  0  0  0  0  0  0  0  0  0  0  0
   48.3250   34.8380   42.2000 C   0  0  0  0  0  0  0  0  0  0  0  0
   47.7790   33.5850   42.0170 C   0  0  0  0  0  0  0  0  0  0  0  0
   48.6790   32.5540   42.0840 C   0  0  0  0  0  0  0  0  0  0  0  0
   48.3900   31.5390   41.9600 H   0  0  0  0  0  0  0  0  0  0  0  0
   50.0360   32.7330   42.3180 C   0  0  0  0  0  0  0  0  0  0  0  0
   50.7300   31.8950   42.3660 H   0  0  0  0  0  0  0  0  0  0  0  0
   50.5120   34.0190   42.4920 C   0  0  0  0  0  3  0  0  0  0  0  0
   49.6430   35.0670   42.4310 C   0  0  0  0  0  3  0  0  0  0  0  0
  1 16  1  0  0  0  0
  2  7  1  6  0  0  0
  2 26  1  0  0  0  0
  2  1  1  0  0  0  0
  3  2  1  0  0  0  0
  4  3  1  0  0  0  0
  4  5  1  0  0  0  0
  5 11  1  0  0  0  0
  5  6  1  0  0  0  0
  6  1  1  0  0  0  0
  6 14  1  0  0  0  0
  8  3  1  0  0  0  0
  9  3  1  0  0  0  0
 10  4  1  0  0  0  0
 12  5  1  0  0  0  0
 13  6  1  0  0  0  0
 15 21  1  0  0  0  0
 15 20  1  0  0  0  0
 16 17  1  0  0  0  0
 16 15  2  0  0  0  0
 17 18  2  0  0  0  0
 18 19  1  0  0  0  0
 19 23  1  0  0  0  0
 20 19  2  0  0  0  0
 22 17  1  0  0  0  0
 24 25  1  0  0  0  0
 25 32  1  0  0  0  0
 26 27  1  0  0  0  0
 26 25  2  0  0  0  0
 27 29  2  0  0  0  0
 28 27  1  0  0  0  0
 29 30  1  0  0  0  0
 29 31  1  0  0  0  0
 32 31  2  0  0  0  0
M  END
>  <minimizedAffinity>
-5.19934988

>  <minimizedRMSD>
2.26471782

$$$$
