
 OpenBabel03252504053D

 19 20  0  0  0  0  0  0  0  0999 V2000
   37.0450   32.3380   39.7430 C   0  0  0  0  0  0  0  0  0  0  0  0
   36.8200   31.2220   40.5970 C   0  0  0  0  0  0  0  0  0  0  0  0
   37.7870   30.2360   40.6710 C   0  0  0  0  0  0  0  0  0  0  0  0
   38.9280   30.3720   39.9220 N   0  0  0  0  0  0  0  0  0  0  0  0
   39.1270   31.4500   39.1110 C   0  0  0  0  0  0  0  0  0  0  0  0
   38.1860   32.4050   39.0390 N   0  0  0  0  0  0  0  0  0  0  0  0
   36.2310   33.0740   39.7360 H   0  0  0  0  0  0  0  0  0  0  0  0
   40.0170   31.5910   38.5050 H   0  0  0  0  0  0  0  0  0  0  0  0
   38.6140   29.9740   43.3930 F   0  0  0  0  0  0  0  0  0  0  0  0
   38.0830   28.8450   42.8150 C   0  0  0  0  0  0  0  0  0  0  0  0
   37.6870   29.0490   41.5220 C   0  0  0  0  0  0  0  0  0  0  0  0
   37.1290   27.9270   40.9010 C   0  0  0  0  0  0  0  0  0  0  0  0
   36.7770   27.9850   39.8640 H   0  0  0  0  0  0  0  0  0  0  0  0
   36.9400   26.6960   41.4110 C   0  0  0  0  0  0  0  0  0  0  0  0
   36.5080   25.8430   40.8970 H   0  0  0  0  0  0  0  0  0  0  0  0
   37.3610   26.5370   42.7400 C   0  0  0  0  0  3  0  0  0  0  0  0
   37.9200   27.5920   43.4310 C   0  0  0  0  0  3  0  0  0  0  0  0
   35.6560   31.0740   41.3650 O   0  0  0  0  0  0  0  0  0  0  0  0
   35.6640   31.6250   42.2360 H   0  0  0  0  0  0  0  0  0  0  0  0
  1  2  1  0  0  0  0
  2  3  2  0  0  0  0
  2 18  1  0  0  0  0
  3 11  1  0  0  0  0
  4  3  1  0  0  0  0
  5  4  2  0  0  0  0
  6  5  1  0  0  0  0
  6  1  2  0  0  0  0
  7  1  1  0  0  0  0
  8  5  1  0  0  0  0
 10  9  1  0  0  0  0
 10 17  1  0  0  0  0
 11 10  2  0  0  0  0
 12 14  2  0  0  0  0
 12 11  1  0  0  0  0
 13 12  1  0  0  0  0
 14 16  1  0  0  0  0
 15 14  1  0  0  0  0
 16 17  2  0  0  0  0
 18 19  1  0  0  0  0
M  END
>  <minimizedAffinity>
-5.09438992

$$$$

 OpenBabel03252504053D

 19 20  0  0  0  0  0  0  0  0999 V2000
   37.3480   32.5900   39.9610 C   0  0  0  0  0  0  0  0  0  0  0  0
   36.9650   31.3840   40.6120 C   0  0  0  0  0  0  0  0  0  0  0  0
   37.9070   30.3830   40.7630 C   0  0  0  0  0  0  0  0  0  0  0  0
   39.1740   30.5890   40.2830 N   0  0  0  0  0  0  0  0  0  0  0  0
   39.5240   31.7530   39.6630 C   0  0  0  0  0  0  0  0  0  0  0  0
   38.6070   32.7240   39.5160 N   0  0  0  0  0  0  0  0  0  0  0  0
   36.5460   33.3340   39.8760 H   0  0  0  0  0  0  0  0  0  0  0  0
   40.5170   31.9520   39.2720 H   0  0  0  0  0  0  0  0  0  0  0  0
   36.9310   27.9720   39.5790 F   0  0  0  0  0  0  0  0  0  0  0  0
   37.1600   27.9270   40.9340 C   0  0  0  0  0  0  0  0  0  0  0  0
   37.6480   29.1040   41.4290 C   0  0  0  0  0  0  0  0  0  0  0  0
   37.9060   29.0950   42.8030 C   0  0  0  0  0  0  0  0  0  0  0  0
   38.3030   29.9900   43.2990 H   0  0  0  0  0  0  0  0  0  0  0  0
   37.7360   28.0890   43.6800 C   0  0  0  0  0  0  0  0  0  0  0  0
   37.9410   28.1180   44.7460 H   0  0  0  0  0  0  0  0  0  0  0  0
   37.2340   26.9020   43.1250 C   0  0  0  0  0  3  0  0  0  0  0  0
   36.9540   26.8200   41.7770 C   0  0  0  0  0  3  0  0  0  0  0  0
   35.6710   31.1640   41.1050 O   0  0  0  0  0  0  0  0  0  0  0  0
   35.4960   31.6070   42.0190 H   0  0  0  0  0  0  0  0  0  0  0  0
  1  2  1  0  0  0  0
  2  3  2  0  0  0  0
  2 18  1  0  0  0  0
  3 11  1  0  0  0  0
  4  3  1  0  0  0  0
  5  4  2  0  0  0  0
  6  5  1  0  0  0  0
  6  1  2  0  0  0  0
  7  1  1  0  0  0  0
  8  5  1  0  0  0  0
  9 10  1  0  0  0  0
 10 11  2  0  0  0  0
 10 17  1  0  0  0  0
 11 12  1  0  0  0  0
 12 13  1  0  0  0  0
 12 14  2  0  0  0  0
 14 15  1  0  0  0  0
 16 14  1  0  0  0  0
 17 16  2  0  0  0  0
 18 19  1  0  0  0  0
M  END
>  <minimizedAffinity>
-4.86600971

$$$$

 OpenBabel03252504053D

 19 20  0  0  0  0  0  0  0  0999 V2000
   39.1640   33.8250   40.3830 C   0  0  0  0  0  0  0  0  0  0  0  0
   37.9990   33.0800   40.0510 C   0  0  0  0  0  0  0  0  0  0  0  0
   38.0960   31.7040   39.9520 C   0  0  0  0  0  0  0  0  0  0  0  0
   39.3100   31.1080   40.1800 N   0  0  0  0  0  0  0  0  0  0  0  0
   40.4160   31.8390   40.5000 C   0  0  0  0  0  0  0  0  0  0  0  0
   40.3200   33.1760   40.5950 N   0  0  0  0  0  0  0  0  0  0  0  0
   39.0080   34.9100   40.4390 H   0  0  0  0  0  0  0  0  0  0  0  0
   41.3920   31.4030   40.6890 H   0  0  0  0  0  0  0  0  0  0  0  0
   36.0930   30.7290   41.7410 F   0  0  0  0  0  0  0  0  0  0  0  0
   35.9970   30.2980   40.4390 C   0  0  0  0  0  0  0  0  0  0  0  0
   36.9710   30.8210   39.6350 C   0  0  0  0  0  0  0  0  0  0  0  0
   36.9010   30.4160   38.2980 C   0  0  0  0  0  0  0  0  0  0  0  0
   37.6350   30.7810   37.5690 H   0  0  0  0  0  0  0  0  0  0  0  0
   36.0100   29.5890   37.7200 C   0  0  0  0  0  0  0  0  0  0  0  0
   35.9890   29.2900   36.6770 H   0  0  0  0  0  0  0  0  0  0  0  0
   35.0320   29.0790   38.5850 C   0  0  0  0  0  3  0  0  0  0  0  0
   35.0220   29.4280   39.9200 C   0  0  0  0  0  3  0  0  0  0  0  0
   36.7540   33.6800   39.8140 O   0  0  0  0  0  0  0  0  0  0  0  0
   36.2420   33.9240   40.6750 H   0  0  0  0  0  0  0  0  0  0  0  0
  1  7  1  0  0  0  0
  1  6  1  0  0  0  0
  2  1  2  0  0  0  0
  3  2  1  0  0  0  0
  3  4  2  0  0  0  0
  4  5  1  0  0  0  0
  5  6  2  0  0  0  0
  5  8  1  0  0  0  0
 10  9  1  0  0  0  0
 11  3  1  0  0  0  0
 11 10  2  0  0  0  0
 12 11  1  0  0  0  0
 13 12  1  0  0  0  0
 14 12  2  0  0  0  0
 14 16  1  0  0  0  0
 15 14  1  0  0  0  0
 16 17  2  0  0  0  0
 17 10  1  0  0  0  0
 18  2  1  0  0  0  0
 18 19  1  0  0  0  0
M  END
>  <minimizedAffinity>
-4.75817299

$$$$

 OpenBabel03252504053D

 19 20  0  0  0  0  0  0  0  0999 V2000
   38.7410   33.3990   40.2610 C   0  0  0  0  0  0  0  0  0  0  0  0
   37.9610   32.2720   40.6420 C   0  0  0  0  0  0  0  0  0  0  0  0
   38.6120   31.1150   41.0300 C   0  0  0  0  0  0  0  0  0  0  0  0
   39.9830   31.0980   41.0370 N   0  0  0  0  0  0  0  0  0  0  0  0
   40.7130   32.1890   40.6710 C   0  0  0  0  0  0  0  0  0  0  0  0
   40.0800   33.3120   40.2920 N   0  0  0  0  0  0  0  0  0  0  0  0
   38.1530   34.2770   39.9620 H   0  0  0  0  0  0  0  0  0  0  0  0
   41.7990   32.2130   40.6650 H   0  0  0  0  0  0  0  0  0  0  0  0
   36.9760   29.3860   39.4500 F   0  0  0  0  0  0  0  0  0  0  0  0
   37.1160   29.0380   40.7720 C   0  0  0  0  0  0  0  0  0  0  0  0
   37.9290   29.8930   41.4620 C   0  0  0  0  0  0  0  0  0  0  0  0
   38.1080   29.5660   42.8100 C   0  0  0  0  0  0  0  0  0  0  0  0
   38.7450   30.1880   43.4520 H   0  0  0  0  0  0  0  0  0  0  0  0
   37.5860   28.5340   43.4970 C   0  0  0  0  0  0  0  0  0  0  0  0
   37.7410   28.3130   44.5490 H   0  0  0  0  0  0  0  0  0  0  0  0
   36.7600   27.6840   42.7460 C   0  0  0  0  0  3  0  0  0  0  0  0
   36.5300   27.9280   41.4090 C   0  0  0  0  0  3  0  0  0  0  0  0
   36.5590   32.2790   40.6370 O   0  0  0  0  0  0  0  0  0  0  0  0
   36.1450   32.7320   41.4650 H   0  0  0  0  0  0  0  0  0  0  0  0
  1  6  2  0  0  0  0
  1  2  1  0  0  0  0
  2  3  2  0  0  0  0
  3  4  1  0  0  0  0
  3 11  1  0  0  0  0
  5  4  2  0  0  0  0
  6  5  1  0  0  0  0
  7  1  1  0  0  0  0
  8  5  1  0  0  0  0
  9 10  1  0  0  0  0
 10 17  2  0  0  0  0
 10 11  1  0  0  0  0
 11 12  2  0  0  0  0
 12 13  1  0  0  0  0
 12 14  1  0  0  0  0
 14 15  1  0  0  0  0
 16 14  2  0  0  0  0
 17 16  1  0  0  0  0
 18  2  1  0  0  0  0
 18 19  1  0  0  0  0
M  END
>  <minimizedAffinity>
-4.68276739

$$$$

 OpenBabel03252504053D

 19 20  0  0  0  0  0  0  0  0999 V2000
   37.0660   26.9540   42.8220 C   0  0  0  0  0  0  0  0  0  0  0  0
   37.2160   28.3570   42.6460 C   0  0  0  0  0  0  0  0  0  0  0  0
   37.5920   28.8350   41.4040 C   0  0  0  0  0  0  0  0  0  0  0  0
   37.8030   27.9390   40.3870 N   0  0  0  0  0  0  0  0  0  0  0  0
   37.6510   26.5970   40.5740 C   0  0  0  0  0  0  0  0  0  0  0  0
   37.2880   26.1350   41.7820 N   0  0  0  0  0  0  0  0  0  0  0  0
   36.7700   26.6540   43.8350 H   0  0  0  0  0  0  0  0  0  0  0  0
   37.8080   25.8590   39.7940 H   0  0  0  0  0  0  0  0  0  0  0  0
   35.6400   30.6260   40.3340 F   0  0  0  0  0  0  0  0  0  0  0  0
   36.8880   31.1580   40.5510 C   0  0  0  0  0  0  0  0  0  0  0  0
   37.7640   30.2540   41.0860 C   0  0  0  0  0  0  0  0  0  0  0  0
   39.0440   30.7600   41.3340 C   0  0  0  0  0  0  0  0  0  0  0  0
   39.8210   30.1170   41.7650 H   0  0  0  0  0  0  0  0  0  0  0  0
   39.5080   32.0040   41.1140 C   0  0  0  0  0  0  0  0  0  0  0  0
   40.5140   32.3630   41.3140 H   0  0  0  0  0  0  0  0  0  0  0  0
   38.5730   32.8950   40.5660 C   0  0  0  0  0  3  0  0  0  0  0  0
   37.2870   32.4820   40.2920 C   0  0  0  0  0  3  0  0  0  0  0  0
   37.0040   29.2810   43.6800 O   0  0  0  0  0  0  0  0  0  0  0  0
   36.0100   29.4990   43.8420 H   0  0  0  0  0  0  0  0  0  0  0  0
  1  7  1  0  0  0  0
  2  1  1  0  0  0  0
  2 18  1  0  0  0  0
  3  2  2  0  0  0  0
  4  5  2  0  0  0  0
  4  3  1  0  0  0  0
  5  6  1  0  0  0  0
  6  1  2  0  0  0  0
  8  5  1  0  0  0  0
  9 10  1  0  0  0  0
 10 11  1  0  0  0  0
 11 12  2  0  0  0  0
 11  3  1  0  0  0  0
 12 13  1  0  0  0  0
 14 15  1  0  0  0  0
 14 12  1  0  0  0  0
 16 14  2  0  0  0  0
 17 10  2  0  0  0  0
 17 16  1  0  0  0  0
 18 19  1  0  0  0  0
M  END
>  <minimizedAffinity>
-4.46617317

$$$$

 OpenBabel03252504053D

 19 20  0  0  0  0  0  0  0  0999 V2000
   37.5960   31.0360   38.0340 C   0  0  0  0  0  0  0  0  0  0  0  0
   37.6210   29.9780   38.9850 C   0  0  0  0  0  0  0  0  0  0  0  0
   37.4430   30.2820   40.3220 C   0  0  0  0  0  0  0  0  0  0  0  0
   37.2450   31.5910   40.6820 N   0  0  0  0  0  0  0  0  0  0  0  0
   37.2210   32.5910   39.7550 C   0  0  0  0  0  0  0  0  0  0  0  0
   37.3970   32.2940   38.4570 N   0  0  0  0  0  0  0  0  0  0  0  0
   37.7490   30.7150   36.9950 H   0  0  0  0  0  0  0  0  0  0  0  0
   37.0660   33.6370   40.0030 H   0  0  0  0  0  0  0  0  0  0  0  0
   35.2910   28.5570   41.0670 F   0  0  0  0  0  0  0  0  0  0  0  0
   36.4340   28.4530   41.8230 C   0  0  0  0  0  0  0  0  0  0  0  0
   37.4290   29.2880   41.3970 C   0  0  0  0  0  0  0  0  0  0  0  0
   38.6150   29.2030   42.1330 C   0  0  0  0  0  0  0  0  0  0  0  0
   39.4770   29.8290   41.8710 H   0  0  0  0  0  0  0  0  0  0  0  0
   38.8890   28.4150   43.1890 C   0  0  0  0  0  0  0  0  0  0  0  0
   39.8220   28.3800   43.7440 H   0  0  0  0  0  0  0  0  0  0  0  0
   37.8380   27.5770   43.5880 C   0  0  0  0  0  3  0  0  0  0  0  0
   36.6330   27.5920   42.9170 C   0  0  0  0  0  3  0  0  0  0  0  0
   37.8240   28.6380   38.6270 O   0  0  0  0  0  0  0  0  0  0  0  0
   36.9780   28.1730   38.2670 H   0  0  0  0  0  0  0  0  0  0  0  0
  1  6  2  0  0  0  0
  1  2  1  0  0  0  0
  2  3  2  0  0  0  0
  3  4  1  0  0  0  0
  3 11  1  0  0  0  0
  5  8  1  0  0  0  0
  5  4  2  0  0  0  0
  6  5  1  0  0  0  0
  7  1  1  0  0  0  0
  9 10  1  0  0  0  0
 10 17  1  0  0  0  0
 11 10  2  0  0  0  0
 11 12  1  0  0  0  0
 12 14  2  0  0  0  0
 13 12  1  0  0  0  0
 14 16  1  0  0  0  0
 14 15  1  0  0  0  0
 17 16  2  0  0  0  0
 18  2  1  0  0  0  0
 19 18  1  0  0  0  0
M  END
>  <minimizedAffinity>
-4.40845394

$$$$

 OpenBabel03252504053D

 19 20  0  0  0  0  0  0  0  0999 V2000
   35.1330   29.2540   37.7420 C   0  0  0  0  0  0  0  0  0  0  0  0
   35.3480   29.1450   39.1430 C   0  0  0  0  0  0  0  0  0  0  0  0
   36.6250   28.8700   39.6000 C   0  0  0  0  0  0  0  0  0  0  0  0
   37.6350   28.7160   38.6860 N   0  0  0  0  0  0  0  0  0  0  0  0
   37.4090   28.8270   37.3450 C   0  0  0  0  0  0  0  0  0  0  0  0
   36.1680   29.0920   36.9040 N   0  0  0  0  0  0  0  0  0  0  0  0
   34.0940   29.4690   37.4580 H   0  0  0  0  0  0  0  0  0  0  0  0
   38.1840   28.7130   36.5930 H   0  0  0  0  0  0  0  0  0  0  0  0
   37.9520   30.8080   41.2270 F   0  0  0  0  0  0  0  0  0  0  0  0
   37.6370   29.6200   41.8430 C   0  0  0  0  0  0  0  0  0  0  0  0
   36.9840   28.7510   41.0150 C   0  0  0  0  0  0  0  0  0  0  0  0
   36.6350   27.5330   41.6080 C   0  0  0  0  0  0  0  0  0  0  0  0
   36.1040   26.7660   41.0300 H   0  0  0  0  0  0  0  0  0  0  0  0
   36.8610   27.1220   42.8690 C   0  0  0  0  0  0  0  0  0  0  0  0
   36.5810   26.1640   43.2960 H   0  0  0  0  0  0  0  0  0  0  0  0
   37.5330   28.0480   43.6800 C   0  0  0  0  0  3  0  0  0  0  0  0
   37.9130   29.2760   43.1790 C   0  0  0  0  0  3  0  0  0  0  0  0
   34.3210   29.2990   40.0860 O   0  0  0  0  0  0  0  0  0  0  0  0
   34.0910   30.2830   40.2890 H   0  0  0  0  0  0  0  0  0  0  0  0
  1  2  1  0  0  0  0
  2  3  2  0  0  0  0
  2 18  1  0  0  0  0
  3 11  1  0  0  0  0
  4  3  1  0  0  0  0
  5  4  2  0  0  0  0
  6  5  1  0  0  0  0
  6  1  2  0  0  0  0
  7  1  1  0  0  0  0
  8  5  1  0  0  0  0
  9 10  1  0  0  0  0
 10 17  1  0  0  0  0
 11 12  1  0  0  0  0
 11 10  2  0  0  0  0
 12 14  2  0  0  0  0
 13 12  1  0  0  0  0
 14 15  1  0  0  0  0
 14 16  1  0  0  0  0
 17 16  2  0  0  0  0
 18 19  1  0  0  0  0
M  END
>  <minimizedAffinity>
-4.35763264

$$$$

 OpenBabel03252504053D

 19 20  0  0  0  0  0  0  0  0999 V2000
   39.4270   32.1210   41.1030 C   0  0  0  0  0  0  0  0  0  0  0  0
   38.5740   31.1040   40.5930 C   0  0  0  0  0  0  0  0  0  0  0  0
   37.4820   31.4740   39.8290 C   0  0  0  0  0  0  0  0  0  0  0  0
   37.2640   32.8070   39.5900 N   0  0  0  0  0  0  0  0  0  0  0  0
   38.0950   33.7670   40.0860 C   0  0  0  0  0  0  0  0  0  0  0  0
   39.1540   33.4060   40.8290 N   0  0  0  0  0  0  0  0  0  0  0  0
   40.2690   31.7480   41.7020 H   0  0  0  0  0  0  0  0  0  0  0  0
   37.9550   34.8300   39.9160 H   0  0  0  0  0  0  0  0  0  0  0  0
   37.3270   30.6690   37.0930 F   0  0  0  0  0  0  0  0  0  0  0  0
   36.3900   30.1180   37.9350 C   0  0  0  0  0  0  0  0  0  0  0  0
   36.5380   30.5280   39.2310 C   0  0  0  0  0  0  0  0  0  0  0  0
   35.6110   29.9800   40.1230 C   0  0  0  0  0  0  0  0  0  0  0  0
   35.6450   30.2420   41.1880 H   0  0  0  0  0  0  0  0  0  0  0  0
   34.6110   29.1170   39.8660 C   0  0  0  0  0  0  0  0  0  0  0  0
   33.9030   28.7150   40.5840 H   0  0  0  0  0  0  0  0  0  0  0  0
   34.5010   28.7260   38.5230 C   0  0  0  0  0  3  0  0  0  0  0  0
   35.3740   29.2140   37.5750 C   0  0  0  0  0  3  0  0  0  0  0  0
   38.7880   29.7390   40.8330 O   0  0  0  0  0  0  0  0  0  0  0  0
   39.5040   29.3190   40.2230 H   0  0  0  0  0  0  0  0  0  0  0  0
  1  7  1  0  0  0  0
  2 18  1  0  0  0  0
  2  1  2  0  0  0  0
  3  2  1  0  0  0  0
  4  3  2  0  0  0  0
  4  5  1  0  0  0  0
  5  6  2  0  0  0  0
  6  1  1  0  0  0  0
  8  5  1  0  0  0  0
  9 10  1  0  0  0  0
 10 11  1  0  0  0  0
 11  3  1  0  0  0  0
 11 12  2  0  0  0  0
 12 13  1  0  0  0  0
 14 12  1  0  0  0  0
 14 15  1  0  0  0  0
 16 14  2  0  0  0  0
 17 10  2  0  0  0  0
 17 16  1  0  0  0  0
 19 18  1  0  0  0  0
M  END
>  <minimizedAffinity>
-4.27019167

$$$$

 OpenBabel03252504053D

 19 20  0  0  0  0  0  0  0  0999 V2000
   39.7510   31.9020   39.3210 C   0  0  0  0  0  0  0  0  0  0  0  0
   39.4250   30.7970   40.1550 C   0  0  0  0  0  0  0  0  0  0  0  0
   38.2370   30.8260   40.8630 C   0  0  0  0  0  0  0  0  0  0  0  0
   37.4170   31.9170   40.7330 N   0  0  0  0  0  0  0  0  0  0  0  0
   37.7450   32.9660   39.9260 C   0  0  0  0  0  0  0  0  0  0  0  0
   38.9010   32.9370   39.2410 N   0  0  0  0  0  0  0  0  0  0  0  0
   40.7100   31.8050   38.7970 H   0  0  0  0  0  0  0  0  0  0  0  0
   37.1210   33.8450   39.7970 H   0  0  0  0  0  0  0  0  0  0  0  0
   39.1020   30.2610   43.5270 F   0  0  0  0  0  0  0  0  0  0  0  0
   38.1600   29.4050   43.0060 C   0  0  0  0  0  0  0  0  0  0  0  0
   37.7750   29.7480   41.7400 C   0  0  0  0  0  0  0  0  0  0  0  0
   36.8070   28.9090   41.1790 C   0  0  0  0  0  0  0  0  0  0  0  0
   36.4280   29.0990   40.1670 H   0  0  0  0  0  0  0  0  0  0  0  0
   36.2230   27.8260   41.7230 C   0  0  0  0  0  0  0  0  0  0  0  0
   35.4770   27.1900   41.2550 H   0  0  0  0  0  0  0  0  0  0  0  0
   36.6500   27.5150   43.0220 C   0  0  0  0  0  3  0  0  0  0  0  0
   37.5990   28.2900   43.6550 C   0  0  0  0  0  3  0  0  0  0  0  0
   40.2570   29.6770   40.2960 O   0  0  0  0  0  0  0  0  0  0  0  0
   40.1760   29.0010   39.5230 H   0  0  0  0  0  0  0  0  0  0  0  0
  1  2  1  0  0  0  0
  2 18  1  0  0  0  0
  2  3  2  0  0  0  0
  3 11  1  0  0  0  0
  4  3  1  0  0  0  0
  5  4  2  0  0  0  0
  6  1  2  0  0  0  0
  6  5  1  0  0  0  0
  7  1  1  0  0  0  0
  8  5  1  0  0  0  0
 10  9  1  0  0  0  0
 10 17  1  0  0  0  0
 11 10  2  0  0  0  0
 12 14  2  0  0  0  0
 12 11  1  0  0  0  0
 13 12  1  0  0  0  0
 14 16  1  0  0  0  0
 15 14  1  0  0  0  0
 16 17  2  0  0  0  0
 19 18  1  0  0  0  0
M  END
>  <minimizedAffinity>
-4.2693429

$$$$
