
 OpenBabel03252506303D

 47 51  0  0  0  0  0  0  0  0999 V2000
   37.5520   32.0420   40.4710 C   0  0  0  0  0  0  0  0  0  0  0  0
   37.0260   32.8600   39.4450 C   0  0  0  0  0  0  0  0  0  0  0  0
   37.6400   34.0640   39.4910 C   0  0  0  0  0  0  0  0  0  0  0  0
   38.5050   34.0020   40.4950 N   0  0  0  0  0  0  0  0  0  0  0  0
   38.4740   32.8100   41.0940 N   0  0  0  0  0  0  0  0  0  0  0  0
   36.2470   32.5420   38.7390 H   0  0  0  0  0  0  0  0  0  0  0  0
   37.4850   34.9170   38.8620 H   0  0  0  0  0  0  0  0  0  0  0  0
   35.5500   29.0010   40.7560 C   0  0  0  0  0  0  0  0  0  0  0  0
   36.4600   28.0850   41.3020 C   0  0  0  0  0  0  0  0  0  0  0  0
   37.7520   28.5310   41.5640 C   0  0  0  0  0  0  0  0  0  0  0  0
   38.0060   29.8110   41.2650 N   0  0  0  0  0  0  0  0  0  0  0  0
   37.1560   30.6800   40.7520 C   0  0  0  0  0  0  0  0  0  0  0  0
   35.9140   30.2670   40.4950 N   0  0  0  0  0  0  0  0  0  0  0  0
   34.5800   28.5960   40.5810 H   0  0  0  0  0  0  0  0  0  0  0  0
   36.1900   27.0720   41.5180 H   0  0  0  0  0  0  0  0  0  0  0  0
   37.7490   27.9330   44.2250 F   0  0  0  0  0  0  0  0  0  0  0  0
   38.7650   27.3950   43.4750 C   0  0  0  0  0  0  0  0  0  0  0  0
   38.7890   27.6820   42.1280 C   0  0  0  0  0  0  0  0  0  0  0  0
   39.8170   27.1310   41.3960 C   0  0  0  0  0  0  0  0  0  0  0  0
   39.8840   27.3230   40.3370 H   0  0  0  0  0  0  0  0  0  0  0  0
   40.8040   26.3250   41.9240 C   0  0  0  0  0  0  0  0  0  0  0  0
   41.6010   25.9040   41.3330 H   0  0  0  0  0  0  0  0  0  0  0  0
   40.7530   26.0520   43.2930 C   0  0  0  0  0  3  0  0  0  0  0  0
   39.7360   26.5950   44.0270 C   0  0  0  0  0  3  0  0  0  0  0  0
   39.3930   35.0790   40.9160 C   0  0  0  0  0  0  0  0  0  0  0  0
   40.0400   34.7690   41.7590 H   0  0  0  0  0  0  0  0  0  0  0  0
   38.8180   35.9430   41.2570 H   0  0  0  0  0  0  0  0  0  0  0  0
   40.2640   35.5130   39.7920 C   0  0  0  0  0  0  0  0  0  0  0  0
   40.3320   36.6380   39.7740 H   0  0  0  0  0  0  0  0  0  0  0  0
   39.7410   35.2690   38.8430 H   0  0  0  0  0  0  0  0  0  0  0  0
   42.4430   34.5520   40.7320 C   0  0  0  0  0  0  0  0  0  0  0  0
   41.5900   34.9260   39.7170 C   0  0  0  0  0  0  0  0  0  0  0  0
   42.0570   34.7140   38.4220 C   0  0  0  0  0  0  0  0  0  0  0  0
   43.2850   34.1690   38.1710 C   0  0  0  0  0  0  0  0  0  0  0  0
   43.9800   33.8570   37.0590 N   0  0  0  0  0  0  0  0  0  0  0  0
   45.1750   33.3290   37.3470 C   0  0  0  0  0  0  0  0  0  0  0  0
   45.2970   33.2800   38.7390 C   0  0  0  0  0  0  0  0  0  0  0  0
   44.1240   33.8010   39.1890 C   0  0  0  0  0  0  0  0  0  0  0  0
   43.6760   34.0050   40.4710 C   0  0  0  0  0  0  0  0  0  0  0  0
   42.0420   34.7330   41.7310 H   0  0  0  0  0  0  0  0  0  0  0  0
   41.4850   34.9640   37.5310 H   0  0  0  0  0  0  0  0  0  0  0  0
   43.6690   33.9920   36.0710 H   0  0  0  0  0  0  0  0  0  0  0  0
   45.9340   32.9910   36.6480 H   0  0  0  0  0  0  0  0  0  0  0  0
   46.1280   32.9140   39.3130 H   0  0  0  0  0  0  0  0  0  0  0  0
   44.5220   33.6340   41.6090 C   0  0  0  0  0  0  0  0  0  0  0  0
   44.0350   33.2090   42.6790 O   0  0  0  0  0  0  0  0  0  0  0  0
   45.6090   33.7260   41.5370 H   0  0  0  0  0  0  0  0  0  0  0  0
  1 12  1  0  0  0  0
  1  5  2  0  0  0  0
  2  3  2  0  0  0  0
  2  1  1  0  0  0  0
  3  4  1  0  0  0  0
  4 25  1  0  0  0  0
  4  5  1  0  0  0  0
  6  2  1  0  0  0  0
  7  3  1  0  0  0  0
  8  9  1  0  0  0  0
  9 15  1  0  0  0  0
  9 10  2  0  0  0  0
 10 18  1  0  0  0  0
 11 10  1  0  0  0  0
 12 11  2  0  0  0  0
 13 12  1  0  0  0  0
 13  8  2  0  0  0  0
 14  8  1  0  0  0  0
 17 24  1  0  0  0  0
 17 16  1  0  0  0  0
 18 17  2  0  0  0  0
 19 21  2  0  0  0  0
 19 18  1  0  0  0  0
 20 19  1  0  0  0  0
 21 23  1  0  0  0  0
 22 21  1  0  0  0  0
 23 24  2  0  0  0  0
 25 27  1  0  0  0  0
 25 26  1  0  0  0  0
 28 25  1  0  0  0  0
 29 28  1  0  0  0  0
 30 28  1  0  0  0  0
 31 40  1  0  0  0  0
 32 28  1  0  0  0  0
 32 31  2  0  0  0  0
 33 32  1  0  0  0  0
 34 33  2  0  0  0  0
 34 38  1  0  0  0  0
 35 36  1  0  0  0  0
 35 34  1  0  0  0  0
 36 37  2  0  0  0  0
 37 38  1  0  0  0  0
 37 44  1  0  0  0  0
 38 39  2  0  0  0  0
 39 31  1  0  0  0  0
 39 45  1  0  0  0  0
 41 33  1  0  0  0  0
 42 35  1  0  0  0  0
 43 36  1  0  0  0  0
 45 46  2  0  0  0  0
 47 45  1  0  0  0  0
M  END
>  <minimizedAffinity>
-7.21679258

$$$$

 OpenBabel03252506303D

 47 51  0  0  0  0  0  0  0  0999 V2000
   40.8020   30.5810   41.9370 C   0  0  0  0  0  0  0  0  0  0  0  0
   41.7940   31.1660   42.7580 C   0  0  0  0  0  0  0  0  0  0  0  0
   42.5130   30.1790   43.3400 C   0  0  0  0  0  0  0  0  0  0  0  0
   41.9980   29.0370   42.9050 N   0  0  0  0  0  0  0  0  0  0  0  0
   40.9790   29.2480   42.0690 N   0  0  0  0  0  0  0  0  0  0  0  0
   41.9340   32.2480   42.8840 H   0  0  0  0  0  0  0  0  0  0  0  0
   43.3380   30.2650   44.0190 H   0  0  0  0  0  0  0  0  0  0  0  0
   39.0740   33.2710   40.1730 C   0  0  0  0  0  0  0  0  0  0  0  0
   37.9580   32.6160   39.6330 C   0  0  0  0  0  0  0  0  0  0  0  0
   37.8200   31.2540   39.8860 C   0  0  0  0  0  0  0  0  0  0  0  0
   38.7790   30.6920   40.6320 N   0  0  0  0  0  0  0  0  0  0  0  0
   39.8310   31.3010   41.1450 C   0  0  0  0  0  0  0  0  0  0  0  0
   39.9770   32.6060   40.9100 N   0  0  0  0  0  0  0  0  0  0  0  0
   39.1190   34.3110   39.9420 H   0  0  0  0  0  0  0  0  0  0  0  0
   37.2260   33.1270   39.0420 H   0  0  0  0  0  0  0  0  0  0  0  0
   35.9140   30.3100   41.5940 F   0  0  0  0  0  0  0  0  0  0  0  0
   35.7610   29.9940   40.2680 C   0  0  0  0  0  0  0  0  0  0  0  0
   36.7100   30.4590   39.3840 C   0  0  0  0  0  0  0  0  0  0  0  0
   36.5360   30.1300   38.0580 C   0  0  0  0  0  0  0  0  0  0  0  0
   37.2490   30.4690   37.3240 H   0  0  0  0  0  0  0  0  0  0  0  0
   35.4860   29.3770   37.5740 C   0  0  0  0  0  0  0  0  0  0  0  0
   35.3680   29.1300   36.5320 H   0  0  0  0  0  0  0  0  0  0  0  0
   34.5400   28.9200   38.4940 C   0  0  0  0  0  3  0  0  0  0  0  0
   34.7060   29.2420   39.8120 C   0  0  0  0  0  3  0  0  0  0  0  0
   42.4600   27.7040   43.2730 C   0  0  0  0  0  0  0  0  0  0  0  0
   43.4510   27.7370   43.7650 H   0  0  0  0  0  0  0  0  0  0  0  0
   42.5650   27.0740   42.3870 H   0  0  0  0  0  0  0  0  0  0  0  0
   41.4990   27.0500   44.1990 C   0  0  0  0  0  0  0  0  0  0  0  0
   41.3230   27.7120   45.0960 H   0  0  0  0  0  0  0  0  0  0  0  0
   41.9980   26.1560   44.6310 H   0  0  0  0  0  0  0  0  0  0  0  0
   39.0040   27.2330   43.6540 C   0  0  0  0  0  0  0  0  0  0  0  0
   40.2340   26.6110   43.6390 C   0  0  0  0  0  0  0  0  0  0  0  0
   40.2840   25.3790   42.9920 C   0  0  0  0  0  0  0  0  0  0  0  0
   39.1830   24.8180   42.4080 C   0  0  0  0  0  0  0  0  0  0  0  0
   38.9380   23.6760   41.7340 N   0  0  0  0  0  0  0  0  0  0  0  0
   37.6590   23.5830   41.3550 C   0  0  0  0  0  0  0  0  0  0  0  0
   36.9960   24.7310   41.7970 C   0  0  0  0  0  0  0  0  0  0  0  0
   37.9660   25.4460   42.4300 C   0  0  0  0  0  0  0  0  0  0  0  0
   37.9030   26.6610   43.0650 C   0  0  0  0  0  0  0  0  0  0  0  0
   39.0050   28.1950   44.1690 H   0  0  0  0  0  0  0  0  0  0  0  0
   41.1900   24.7830   42.9080 H   0  0  0  0  0  0  0  0  0  0  0  0
   39.6280   22.9240   41.5110 H   0  0  0  0  0  0  0  0  0  0  0  0
   37.1910   22.7740   40.8020 H   0  0  0  0  0  0  0  0  0  0  0  0
   35.9600   24.9840   41.6660 H   0  0  0  0  0  0  0  0  0  0  0  0
   36.6320   27.3900   43.1260 C   0  0  0  0  0  0  0  0  0  0  0  0
   35.9560   27.4460   44.1760 O   0  0  0  0  0  0  0  0  0  0  0  0
   36.2500   27.9010   42.2380 H   0  0  0  0  0  0  0  0  0  0  0  0
  1  5  2  0  0  0  0
  1  2  1  0  0  0  0
  2  6  1  0  0  0  0
  2  3  2  0  0  0  0
  3  7  1  0  0  0  0
  4 25  1  0  0  0  0
  4  3  1  0  0  0  0
  5  4  1  0  0  0  0
  8 13  1  0  0  0  0
  9 10  1  0  0  0  0
  9  8  2  0  0  0  0
 10 11  2  0  0  0  0
 11 12  1  0  0  0  0
 12  1  1  0  0  0  0
 13 12  2  0  0  0  0
 14  8  1  0  0  0  0
 15  9  1  0  0  0  0
 17 16  1  0  0  0  0
 18 10  1  0  0  0  0
 18 17  2  0  0  0  0
 19 18  1  0  0  0  0
 20 19  1  0  0  0  0
 21 19  2  0  0  0  0
 21 23  1  0  0  0  0
 22 21  1  0  0  0  0
 23 24  2  0  0  0  0
 24 17  1  0  0  0  0
 25 26  1  0  0  0  0
 25 28  1  0  0  0  0
 27 25  1  0  0  0  0
 28 30  1  0  0  0  0
 28 29  1  0  0  0  0
 31 40  1  0  0  0  0
 32 31  1  0  0  0  0
 32 28  1  0  0  0  0
 33 32  2  0  0  0  0
 34 38  2  0  0  0  0
 34 33  1  0  0  0  0
 35 34  1  0  0  0  0
 36 35  1  0  0  0  0
 36 37  2  0  0  0  0
 37 38  1  0  0  0  0
 38 39  1  0  0  0  0
 39 45  1  0  0  0  0
 39 31  2  0  0  0  0
 41 33  1  0  0  0  0
 42 35  1  0  0  0  0
 43 36  1  0  0  0  0
 44 37  1  0  0  0  0
 45 46  2  0  0  0  0
 47 45  1  0  0  0  0
M  END
>  <minimizedAffinity>
-7.21144438

$$$$

 OpenBabel03252506303D

 47 51  0  0  0  0  0  0  0  0999 V2000
   38.4520   32.1660   40.8690 C   0  0  0  0  0  0  0  0  0  0  0  0
   37.1260   31.8400   40.5000 C   0  0  0  0  0  0  0  0  0  0  0  0
   36.8080   30.6400   41.0350 C   0  0  0  0  0  0  0  0  0  0  0  0
   37.8800   30.2360   41.7040 N   0  0  0  0  0  0  0  0  0  0  0  0
   38.8720   31.1250   41.6230 N   0  0  0  0  0  0  0  0  0  0  0  0
   36.4830   32.4780   39.8790 H   0  0  0  0  0  0  0  0  0  0  0  0
   35.8890   30.0950   40.9550 H   0  0  0  0  0  0  0  0  0  0  0  0
   39.1940   35.6610   40.1150 C   0  0  0  0  0  0  0  0  0  0  0  0
   40.5560   35.6200   39.7820 C   0  0  0  0  0  0  0  0  0  0  0  0
   41.1970   34.3860   39.8230 C   0  0  0  0  0  0  0  0  0  0  0  0
   40.4420   33.3400   40.1810 N   0  0  0  0  0  0  0  0  0  0  0  0
   39.1610   33.3700   40.4960 C   0  0  0  0  0  0  0  0  0  0  0  0
   38.5330   34.5460   40.4620 N   0  0  0  0  0  0  0  0  0  0  0  0
   38.7650   36.6350   40.0640 H   0  0  0  0  0  0  0  0  0  0  0  0
   41.1020   36.4980   39.5030 H   0  0  0  0  0  0  0  0  0  0  0  0
   41.9870   34.0360   37.2360 F   0  0  0  0  0  0  0  0  0  0  0  0
   42.9770   34.0330   38.1860 C   0  0  0  0  0  0  0  0  0  0  0  0
   42.6040   34.2070   39.5010 C   0  0  0  0  0  0  0  0  0  0  0  0
   43.6140   34.2010   40.4370 C   0  0  0  0  0  0  0  0  0  0  0  0
   43.3780   34.3340   41.4800 H   0  0  0  0  0  0  0  0  0  0  0  0
   44.9500   34.0330   40.1400 C   0  0  0  0  0  0  0  0  0  0  0  0
   45.7260   34.0310   40.8880 H   0  0  0  0  0  0  0  0  0  0  0  0
   45.2980   33.8580   38.7980 C   0  0  0  0  0  3  0  0  0  0  0  0
   44.3000   33.8630   37.8620 C   0  0  0  0  0  3  0  0  0  0  0  0
   37.9940   28.9860   42.4460 C   0  0  0  0  0  0  0  0  0  0  0  0
   38.1490   29.1650   43.5270 H   0  0  0  0  0  0  0  0  0  0  0  0
   38.8490   28.4040   42.0940 H   0  0  0  0  0  0  0  0  0  0  0  0
   36.7680   28.1610   42.2800 C   0  0  0  0  0  0  0  0  0  0  0  0
   35.9020   28.8200   41.9850 H   0  0  0  0  0  0  0  0  0  0  0  0
   36.4760   27.7800   43.2820 H   0  0  0  0  0  0  0  0  0  0  0  0
   36.5350   26.9150   40.0550 C   0  0  0  0  0  0  0  0  0  0  0  0
   36.8560   27.0160   41.3910 C   0  0  0  0  0  0  0  0  0  0  0  0
   37.3400   25.8550   41.9900 C   0  0  0  0  0  0  0  0  0  0  0  0
   37.4870   24.6860   41.2970 C   0  0  0  0  0  0  0  0  0  0  0  0
   37.9160   23.4440   41.6020 N   0  0  0  0  0  0  0  0  0  0  0  0
   37.8690   22.6250   40.5450 C   0  0  0  0  0  0  0  0  0  0  0  0
   37.3790   23.3550   39.4580 C   0  0  0  0  0  0  0  0  0  0  0  0
   37.1640   24.5980   39.9690 C   0  0  0  0  0  0  0  0  0  0  0  0
   36.6850   25.7350   39.3670 C   0  0  0  0  0  0  0  0  0  0  0  0
   36.1600   27.8440   39.6220 H   0  0  0  0  0  0  0  0  0  0  0  0
   37.6310   25.7970   43.0370 H   0  0  0  0  0  0  0  0  0  0  0  0
   38.2520   23.1130   42.5330 H   0  0  0  0  0  0  0  0  0  0  0  0
   38.1530   21.5780   40.5080 H   0  0  0  0  0  0  0  0  0  0  0  0
   37.2130   23.0090   38.4550 H   0  0  0  0  0  0  0  0  0  0  0  0
   36.3200   25.7130   37.9470 C   0  0  0  0  0  0  0  0  0  0  0  0
   35.1310   25.6040   37.5760 O   0  0  0  0  0  0  0  0  0  0  0  0
   37.0950   25.7920   37.1810 H   0  0  0  0  0  0  0  0  0  0  0  0
  1  5  2  0  0  0  0
  2  1  1  0  0  0  0
  2  3  2  0  0  0  0
  3  4  1  0  0  0  0
  4 25  1  0  0  0  0
  5  4  1  0  0  0  0
  6  2  1  0  0  0  0
  7  3  1  0  0  0  0
  8 13  1  0  0  0  0
  9 10  1  0  0  0  0
  9  8  2  0  0  0  0
 10 11  2  0  0  0  0
 11 12  1  0  0  0  0
 12  1  1  0  0  0  0
 13 12  2  0  0  0  0
 14  8  1  0  0  0  0
 15  9  1  0  0  0  0
 16 17  1  0  0  0  0
 17 18  1  0  0  0  0
 18 10  1  0  0  0  0
 18 19  2  0  0  0  0
 19 20  1  0  0  0  0
 21 19  1  0  0  0  0
 21 22  1  0  0  0  0
 23 21  2  0  0  0  0
 24 17  2  0  0  0  0
 24 23  1  0  0  0  0
 25 26  1  0  0  0  0
 27 25  1  0  0  0  0
 28 25  1  0  0  0  0
 28 30  1  0  0  0  0
 29 28  1  0  0  0  0
 31 32  1  0  0  0  0
 32 33  2  0  0  0  0
 32 28  1  0  0  0  0
 33 41  1  0  0  0  0
 34 35  1  0  0  0  0
 34 33  1  0  0  0  0
 35 42  1  0  0  0  0
 36 35  1  0  0  0  0
 37 38  1  0  0  0  0
 37 36  2  0  0  0  0
 38 34  2  0  0  0  0
 39 38  1  0  0  0  0
 39 31  2  0  0  0  0
 40 31  1  0  0  0  0
 43 36  1  0  0  0  0
 44 37  1  0  0  0  0
 45 39  1  0  0  0  0
 46 45  2  0  0  0  0
 47 45  1  0  0  0  0
M  END
>  <minimizedAffinity>
-7.04805565

$$$$

 OpenBabel03252506303D

 47 51  0  0  0  0  0  0  0  0999 V2000
   38.0980   32.2700   39.5440 C   0  0  0  0  0  0  0  0  0  0  0  0
   37.6910   31.7360   38.2990 C   0  0  0  0  0  0  0  0  0  0  0  0
   36.9030   30.6600   38.5260 C   0  0  0  0  0  0  0  0  0  0  0  0
   36.8220   30.5290   39.8430 N   0  0  0  0  0  0  0  0  0  0  0  0
   37.5230   31.4740   40.4730 N   0  0  0  0  0  0  0  0  0  0  0  0
   37.9830   32.1480   37.3240 H   0  0  0  0  0  0  0  0  0  0  0  0
   36.4240   30.0210   37.8110 H   0  0  0  0  0  0  0  0  0  0  0  0
   39.2290   35.6610   40.2920 C   0  0  0  0  0  0  0  0  0  0  0  0
   40.6100   35.5810   40.0640 C   0  0  0  0  0  0  0  0  0  0  0  0
   41.1300   34.3570   39.6550 C   0  0  0  0  0  0  0  0  0  0  0  0
   40.2500   33.3580   39.5160 N   0  0  0  0  0  0  0  0  0  0  0  0
   38.9490   33.4250   39.7280 C   0  0  0  0  0  0  0  0  0  0  0  0
   38.4360   34.5920   40.1210 N   0  0  0  0  0  0  0  0  0  0  0  0
   38.8970   36.6250   40.6020 H   0  0  0  0  0  0  0  0  0  0  0  0
   41.2600   36.4220   40.1940 H   0  0  0  0  0  0  0  0  0  0  0  0
   42.0240   34.0980   37.0910 F   0  0  0  0  0  0  0  0  0  0  0  0
   42.9690   34.0130   38.0820 C   0  0  0  0  0  0  0  0  0  0  0  0
   42.5440   34.1410   39.3860 C   0  0  0  0  0  0  0  0  0  0  0  0
   43.5090   34.0530   40.3640 C   0  0  0  0  0  0  0  0  0  0  0  0
   43.2310   34.1460   41.4020 H   0  0  0  0  0  0  0  0  0  0  0  0
   44.8510   33.8490   40.1170 C   0  0  0  0  0  0  0  0  0  0  0  0
   45.5920   33.7840   40.8970 H   0  0  0  0  0  0  0  0  0  0  0  0
   45.2520   33.7240   38.7850 C   0  0  0  0  0  3  0  0  0  0  0  0
   44.2990   33.8090   37.8090 C   0  0  0  0  0  3  0  0  0  0  0  0
   36.0710   29.4970   40.5480 C   0  0  0  0  0  0  0  0  0  0  0  0
   36.1390   28.5200   40.0330 H   0  0  0  0  0  0  0  0  0  0  0  0
   35.0110   29.7580   40.5990 H   0  0  0  0  0  0  0  0  0  0  0  0
   36.5770   29.3320   41.9360 C   0  0  0  0  0  0  0  0  0  0  0  0
   35.7290   29.4550   42.6690 H   0  0  0  0  0  0  0  0  0  0  0  0
   37.2410   30.1940   42.1600 H   0  0  0  0  0  0  0  0  0  0  0  0
   36.9890   26.8060   42.0030 C   0  0  0  0  0  0  0  0  0  0  0  0
   37.3260   28.1220   42.2280 C   0  0  0  0  0  0  0  0  0  0  0  0
   38.5680   28.3390   42.8200 C   0  0  0  0  0  0  0  0  0  0  0  0
   39.4020   27.3110   43.1600 C   0  0  0  0  0  0  0  0  0  0  0  0
   40.6210   27.2210   43.7280 N   0  0  0  0  0  0  0  0  0  0  0  0
   41.0220   25.9500   43.8530 C   0  0  0  0  0  0  0  0  0  0  0  0
   40.0130   25.1300   43.3390 C   0  0  0  0  0  0  0  0  0  0  0  0
   39.0550   26.0060   42.9330 C   0  0  0  0  0  0  0  0  0  0  0  0
   37.8330   25.7780   42.3490 C   0  0  0  0  0  0  0  0  0  0  0  0
   36.0100   26.6760   41.5380 H   0  0  0  0  0  0  0  0  0  0  0  0
   38.9560   29.3290   43.0520 H   0  0  0  0  0  0  0  0  0  0  0  0
   41.2190   28.0140   44.0490 H   0  0  0  0  0  0  0  0  0  0  0  0
   41.9560   25.5910   44.2740 H   0  0  0  0  0  0  0  0  0  0  0  0
   40.0040   24.0580   43.2810 H   0  0  0  0  0  0  0  0  0  0  0  0
   37.3980   24.4050   42.0760 C   0  0  0  0  0  0  0  0  0  0  0  0
   37.6300   23.8470   40.9810 O   0  0  0  0  0  0  0  0  0  0  0  0
   36.8530   23.8410   42.8370 H   0  0  0  0  0  0  0  0  0  0  0  0
  1 12  1  0  0  0  0
  1  5  2  0  0  0  0
  2  3  2  0  0  0  0
  2  1  1  0  0  0  0
  3  4  1  0  0  0  0
  4  5  1  0  0  0  0
  4 25  1  0  0  0  0
  6  2  1  0  0  0  0
  7  3  1  0  0  0  0
  8 14  1  0  0  0  0
  9 15  1  0  0  0  0
  9  8  2  0  0  0  0
 10  9  1  0  0  0  0
 11 10  2  0  0  0  0
 11 12  1  0  0  0  0
 12 13  2  0  0  0  0
 13  8  1  0  0  0  0
 16 17  1  0  0  0  0
 17 18  1  0  0  0  0
 18 10  1  0  0  0  0
 18 19  2  0  0  0  0
 19 20  1  0  0  0  0
 21 19  1  0  0  0  0
 21 22  1  0  0  0  0
 23 21  2  0  0  0  0
 24 17  2  0  0  0  0
 24 23  1  0  0  0  0
 25 27  1  0  0  0  0
 25 28  1  0  0  0  0
 26 25  1  0  0  0  0
 28 30  1  0  0  0  0
 28 32  1  0  0  0  0
 28 29  1  0  0  0  0
 31 32  2  0  0  0  0
 31 39  1  0  0  0  0
 32 33  1  0  0  0  0
 33 41  1  0  0  0  0
 33 34  2  0  0  0  0
 34 35  1  0  0  0  0
 35 36  1  0  0  0  0
 35 42  1  0  0  0  0
 36 43  1  0  0  0  0
 37 36  2  0  0  0  0
 38 34  1  0  0  0  0
 38 37  1  0  0  0  0
 39 38  2  0  0  0  0
 40 31  1  0  0  0  0
 44 37  1  0  0  0  0
 45 39  1  0  0  0  0
 45 47  1  0  0  0  0
 46 45  2  0  0  0  0
M  END
>  <minimizedAffinity>
-7.04048252

$$$$

 OpenBabel03252506303D

 47 51  0  0  0  0  0  0  0  0999 V2000
   41.5270   31.1900   41.7960 C   0  0  0  0  0  0  0  0  0  0  0  0
   42.4780   32.2260   41.9460 C   0  0  0  0  0  0  0  0  0  0  0  0
   42.1270   33.2570   41.1450 C   0  0  0  0  0  0  0  0  0  0  0  0
   41.0140   32.8850   40.5260 N   0  0  0  0  0  0  0  0  0  0  0  0
   40.6360   31.6600   40.8950 N   0  0  0  0  0  0  0  0  0  0  0  0
   43.3490   32.1740   42.6120 H   0  0  0  0  0  0  0  0  0  0  0  0
   42.6220   34.1980   41.0110 H   0  0  0  0  0  0  0  0  0  0  0  0
   42.5990   28.4000   43.8950 C   0  0  0  0  0  0  0  0  0  0  0  0
   41.5370   27.4940   43.7660 C   0  0  0  0  0  0  0  0  0  0  0  0
   40.4660   27.8610   42.9570 C   0  0  0  0  0  0  0  0  0  0  0  0
   40.5530   29.0610   42.3690 N   0  0  0  0  0  0  0  0  0  0  0  0
   41.5500   29.9190   42.4840 C   0  0  0  0  0  0  0  0  0  0  0  0
   42.5820   29.5810   43.2570 N   0  0  0  0  0  0  0  0  0  0  0  0
   43.3850   28.0590   44.5280 H   0  0  0  0  0  0  0  0  0  0  0  0
   41.5300   26.5480   44.2660 H   0  0  0  0  0  0  0  0  0  0  0  0
   37.9600   28.7850   43.5110 F   0  0  0  0  0  0  0  0  0  0  0  0
   38.0490   27.5050   43.0290 C   0  0  0  0  0  0  0  0  0  0  0  0
   39.3030   27.0130   42.7400 C   0  0  0  0  0  0  0  0  0  0  0  0
   39.3690   25.7260   42.2570 C   0  0  0  0  0  0  0  0  0  0  0  0
   40.3260   25.2920   42.0150 H   0  0  0  0  0  0  0  0  0  0  0  0
   38.2720   24.9160   42.0480 C   0  0  0  0  0  0  0  0  0  0  0  0
   38.3440   23.9100   41.6690 H   0  0  0  0  0  0  0  0  0  0  0  0
   37.0130   25.4420   42.3500 C   0  0  0  0  0  3  0  0  0  0  0  0
   36.9400   26.7190   42.8310 C   0  0  0  0  0  3  0  0  0  0  0  0
   40.2730   33.6870   39.5600 C   0  0  0  0  0  0  0  0  0  0  0  0
   40.4040   33.3090   38.5280 H   0  0  0  0  0  0  0  0  0  0  0  0
   40.6240   34.7220   39.5660 H   0  0  0  0  0  0  0  0  0  0  0  0
   38.8210   33.6860   39.8780 C   0  0  0  0  0  0  0  0  0  0  0  0
   38.3380   34.6170   39.4630 H   0  0  0  0  0  0  0  0  0  0  0  0
   38.7140   33.8050   40.9770 H   0  0  0  0  0  0  0  0  0  0  0  0
   38.0590   31.8140   38.3060 C   0  0  0  0  0  0  0  0  0  0  0  0
   38.0600   32.5090   39.4950 C   0  0  0  0  0  0  0  0  0  0  0  0
   37.2120   32.0210   40.4860 C   0  0  0  0  0  0  0  0  0  0  0  0
   36.4250   30.9200   40.2930 C   0  0  0  0  0  0  0  0  0  0  0  0
   35.5350   30.2410   41.0440 N   0  0  0  0  0  0  0  0  0  0  0  0
   35.0120   29.2010   40.3830 C   0  0  0  0  0  0  0  0  0  0  0  0
   35.5840   29.1740   39.1070 C   0  0  0  0  0  0  0  0  0  0  0  0
   36.4320   30.2380   39.1060 C   0  0  0  0  0  0  0  0  0  0  0  0
   37.2640   30.7090   38.1200 C   0  0  0  0  0  0  0  0  0  0  0  0
   38.7360   32.2260   37.5560 H   0  0  0  0  0  0  0  0  0  0  0  0
   37.1160   32.4750   41.4700 H   0  0  0  0  0  0  0  0  0  0  0  0
   35.2520   30.4600   42.0250 H   0  0  0  0  0  0  0  0  0  0  0  0
   34.2770   28.4900   40.7460 H   0  0  0  0  0  0  0  0  0  0  0  0
   35.3920   28.4730   38.3170 H   0  0  0  0  0  0  0  0  0  0  0  0
   37.3230   30.0260   36.8240 C   0  0  0  0  0  0  0  0  0  0  0  0
   36.7340   30.4760   35.8170 O   0  0  0  0  0  0  0  0  0  0  0  0
   37.8900   29.0980   36.7190 H   0  0  0  0  0  0  0  0  0  0  0  0
  1  2  1  0  0  0  0
  1 12  1  0  0  0  0
  2  6  1  0  0  0  0
  3  2  2  0  0  0  0
  4  5  1  0  0  0  0
  4  3  1  0  0  0  0
  5  1  2  0  0  0  0
  7  3  1  0  0  0  0
  8 14  1  0  0  0  0
  9  8  1  0  0  0  0
  9 15  1  0  0  0  0
 10  9  2  0  0  0  0
 11 12  2  0  0  0  0
 11 10  1  0  0  0  0
 12 13  1  0  0  0  0
 13  8  2  0  0  0  0
 17 16  1  0  0  0  0
 18 10  1  0  0  0  0
 18 17  2  0  0  0  0
 19 18  1  0  0  0  0
 20 19  1  0  0  0  0
 21 19  2  0  0  0  0
 21 23  1  0  0  0  0
 22 21  1  0  0  0  0
 23 24  2  0  0  0  0
 24 17  1  0  0  0  0
 25 27  1  0  0  0  0
 25 28  1  0  0  0  0
 25  4  1  0  0  0  0
 26 25  1  0  0  0  0
 28 30  1  0  0  0  0
 29 28  1  0  0  0  0
 31 32  1  0  0  0  0
 32 28  1  0  0  0  0
 32 33  2  0  0  0  0
 33 41  1  0  0  0  0
 34 33  1  0  0  0  0
 34 35  1  0  0  0  0
 35 42  1  0  0  0  0
 36 43  1  0  0  0  0
 36 35  1  0  0  0  0
 37 36  2  0  0  0  0
 38 37  1  0  0  0  0
 38 34  2  0  0  0  0
 39 31  2  0  0  0  0
 39 38  1  0  0  0  0
 40 31  1  0  0  0  0
 44 37  1  0  0  0  0
 45 39  1  0  0  0  0
 46 45  2  0  0  0  0
 47 45  1  0  0  0  0
M  END
>  <minimizedAffinity>
-7.03192759

$$$$

 OpenBabel03252506303D

 47 51  0  0  0  0  0  0  0  0999 V2000
   38.3230   31.5760   38.5280 C   0  0  0  0  0  0  0  0  0  0  0  0
   39.0260   30.5200   37.9030 C   0  0  0  0  0  0  0  0  0  0  0  0
   38.1310   29.6110   37.4510 C   0  0  0  0  0  0  0  0  0  0  0  0
   36.9320   30.0760   37.7760 N   0  0  0  0  0  0  0  0  0  0  0  0
   37.0180   31.2430   38.4180 N   0  0  0  0  0  0  0  0  0  0  0  0
   40.1180   30.4720   37.8140 H   0  0  0  0  0  0  0  0  0  0  0  0
   38.3170   28.6930   36.9310 H   0  0  0  0  0  0  0  0  0  0  0  0
   38.7200   34.7530   40.2840 C   0  0  0  0  0  0  0  0  0  0  0  0
   40.1110   34.9310   40.2850 C   0  0  0  0  0  0  0  0  0  0  0  0
   40.8910   33.9500   39.6800 C   0  0  0  0  0  0  0  0  0  0  0  0
   40.2290   32.9160   39.1450 N   0  0  0  0  0  0  0  0  0  0  0  0
   38.9210   32.7420   39.1400 C   0  0  0  0  0  0  0  0  0  0  0  0
   38.1610   33.6730   39.7170 N   0  0  0  0  0  0  0  0  0  0  0  0
   38.1830   35.5390   40.7630 H   0  0  0  0  0  0  0  0  0  0  0  0
   40.5770   35.7850   40.7320 H   0  0  0  0  0  0  0  0  0  0  0  0
   42.1550   34.1710   37.2730 F   0  0  0  0  0  0  0  0  0  0  0  0
   42.9560   34.1260   38.3850 C   0  0  0  0  0  0  0  0  0  0  0  0
   42.3430   34.0150   39.6130 C   0  0  0  0  0  0  0  0  0  0  0  0
   43.1670   33.9720   40.7160 C   0  0  0  0  0  0  0  0  0  0  0  0
   42.7390   33.8860   41.7020 H   0  0  0  0  0  0  0  0  0  0  0  0
   44.5440   34.0330   40.6620 C   0  0  0  0  0  0  0  0  0  0  0  0
   45.1710   33.9980   41.5370 H   0  0  0  0  0  0  0  0  0  0  0  0
   45.1370   34.1460   39.4020 C   0  0  0  0  0  3  0  0  0  0  0  0
   44.3250   34.1880   38.3020 C   0  0  0  0  0  3  0  0  0  0  0  0
   35.6620   29.4210   37.4860 C   0  0  0  0  0  0  0  0  0  0  0  0
   35.8040   28.5010   36.8880 H   0  0  0  0  0  0  0  0  0  0  0  0
   35.0110   30.0800   36.9070 H   0  0  0  0  0  0  0  0  0  0  0  0
   34.9580   29.0580   38.7440 C   0  0  0  0  0  0  0  0  0  0  0  0
   34.0190   28.4810   38.5020 H   0  0  0  0  0  0  0  0  0  0  0  0
   34.5760   29.9950   39.2030 H   0  0  0  0  0  0  0  0  0  0  0  0
   36.3480   27.1330   39.7010 C   0  0  0  0  0  0  0  0  0  0  0  0
   35.7300   28.3620   39.7580 C   0  0  0  0  0  0  0  0  0  0  0  0
   35.8580   29.0520   40.9610 C   0  0  0  0  0  0  0  0  0  0  0  0
   36.5540   28.5420   42.0220 C   0  0  0  0  0  0  0  0  0  0  0  0
   36.8370   28.9680   43.2700 N   0  0  0  0  0  0  0  0  0  0  0  0
   37.5730   28.0800   43.9470 C   0  0  0  0  0  0  0  0  0  0  0  0
   37.8040   26.9860   43.1070 C   0  0  0  0  0  0  0  0  0  0  0  0
   37.1640   27.3190   41.9530 C   0  0  0  0  0  0  0  0  0  0  0  0
   37.0450   26.6280   40.7730 C   0  0  0  0  0  0  0  0  0  0  0  0
   36.2260   26.6240   38.7440 H   0  0  0  0  0  0  0  0  0  0  0  0
   35.4190   30.0320   41.1400 H   0  0  0  0  0  0  0  0  0  0  0  0
   36.5400   29.8710   43.7020 H   0  0  0  0  0  0  0  0  0  0  0  0
   37.9410   28.1650   44.9640 H   0  0  0  0  0  0  0  0  0  0  0  0
   38.3590   26.0940   43.3280 H   0  0  0  0  0  0  0  0  0  0  0  0
   37.6730   25.3110   40.6290 C   0  0  0  0  0  0  0  0  0  0  0  0
   38.8400   25.1830   40.1970 O   0  0  0  0  0  0  0  0  0  0  0  0
   37.1210   24.4080   40.9000 H   0  0  0  0  0  0  0  0  0  0  0  0
  1 12  1  0  0  0  0
  2  1  1  0  0  0  0
  3  4  1  0  0  0  0
  3  2  2  0  0  0  0
  4  5  1  0  0  0  0
  5  1  2  0  0  0  0
  6  2  1  0  0  0  0
  7  3  1  0  0  0  0
  8  9  1  0  0  0  0
  8 14  1  0  0  0  0
  9 15  1  0  0  0  0
 10  9  2  0  0  0  0
 11 10  1  0  0  0  0
 12 11  2  0  0  0  0
 12 13  1  0  0  0  0
 13  8  2  0  0  0  0
 16 17  1  0  0  0  0
 17 18  1  0  0  0  0
 18 10  1  0  0  0  0
 18 19  2  0  0  0  0
 19 20  1  0  0  0  0
 21 19  1  0  0  0  0
 21 22  1  0  0  0  0
 23 21  2  0  0  0  0
 24 17  2  0  0  0  0
 24 23  1  0  0  0  0
 25  4  1  0  0  0  0
 25 28  1  0  0  0  0
 26 25  1  0  0  0  0
 27 25  1  0  0  0  0
 28 30  1  0  0  0  0
 28 32  1  0  0  0  0
 29 28  1  0  0  0  0
 31 32  2  0  0  0  0
 31 39  1  0  0  0  0
 32 33  1  0  0  0  0
 33 41  1  0  0  0  0
 33 34  2  0  0  0  0
 34 35  1  0  0  0  0
 35 42  1  0  0  0  0
 35 36  1  0  0  0  0
 36 43  1  0  0  0  0
 37 44  1  0  0  0  0
 37 36  2  0  0  0  0
 38 34  1  0  0  0  0
 38 37  1  0  0  0  0
 39 38  2  0  0  0  0
 40 31  1  0  0  0  0
 45 39  1  0  0  0  0
 45 47  1  0  0  0  0
 46 45  2  0  0  0  0
M  END
>  <minimizedAffinity>
-6.99466991

$$$$

 OpenBabel03252506303D

 47 51  0  0  0  0  0  0  0  0999 V2000
   38.0980   32.1770   39.6210 C   0  0  0  0  0  0  0  0  0  0  0  0
   36.8030   31.9880   40.1570 C   0  0  0  0  0  0  0  0  0  0  0  0
   36.3780   30.7440   39.8370 C   0  0  0  0  0  0  0  0  0  0  0  0
   37.3570   30.1860   39.1370 N   0  0  0  0  0  0  0  0  0  0  0  0
   38.3920   31.0160   38.9940 N   0  0  0  0  0  0  0  0  0  0  0  0
   36.2560   32.7440   40.7350 H   0  0  0  0  0  0  0  0  0  0  0  0
   35.4480   30.2730   40.0820 H   0  0  0  0  0  0  0  0  0  0  0  0
   39.0660   35.6610   40.1370 C   0  0  0  0  0  0  0  0  0  0  0  0
   40.4580   35.6190   39.9740 C   0  0  0  0  0  0  0  0  0  0  0  0
   41.0410   34.3890   39.6880 C   0  0  0  0  0  0  0  0  0  0  0  0
   40.2060   33.3470   39.5940 N   0  0  0  0  0  0  0  0  0  0  0  0
   38.8950   33.3770   39.7460 C   0  0  0  0  0  0  0  0  0  0  0  0
   38.3220   34.5490   40.0210 N   0  0  0  0  0  0  0  0  0  0  0  0
   38.6840   36.6320   40.3530 H   0  0  0  0  0  0  0  0  0  0  0  0
   41.0690   36.4940   40.0620 H   0  0  0  0  0  0  0  0  0  0  0  0
   42.7080   34.1900   41.8380 F   0  0  0  0  0  0  0  0  0  0  0  0
   43.2920   34.1130   40.5990 C   0  0  0  0  0  0  0  0  0  0  0  0
   42.4720   34.2100   39.4960 C   0  0  0  0  0  0  0  0  0  0  0  0
   43.0800   34.1300   38.2630 C   0  0  0  0  0  0  0  0  0  0  0  0
   42.4850   34.2000   37.3670 H   0  0  0  0  0  0  0  0  0  0  0  0
   44.4350   33.9610   38.0730 C   0  0  0  0  0  0  0  0  0  0  0  0
   44.8920   33.9000   37.0980 H   0  0  0  0  0  0  0  0  0  0  0  0
   45.2420   33.8650   39.2100 C   0  0  0  0  0  3  0  0  0  0  0  0
   44.6460   33.9440   40.4380 C   0  0  0  0  0  3  0  0  0  0  0  0
   37.3380   28.8380   38.5800 C   0  0  0  0  0  0  0  0  0  0  0  0
   38.3610   28.4600   38.3900 H   0  0  0  0  0  0  0  0  0  0  0  0
   36.8090   28.8220   37.6250 H   0  0  0  0  0  0  0  0  0  0  0  0
   36.6570   27.8960   39.5060 C   0  0  0  0  0  0  0  0  0  0  0  0
   36.4420   26.9250   38.9730 H   0  0  0  0  0  0  0  0  0  0  0  0
   35.6460   28.3030   39.7220 H   0  0  0  0  0  0  0  0  0  0  0  0
   36.8730   27.9400   42.0570 C   0  0  0  0  0  0  0  0  0  0  0  0
   37.3000   27.6400   40.7830 C   0  0  0  0  0  0  0  0  0  0  0  0
   38.5300   26.9920   40.6910 C   0  0  0  0  0  0  0  0  0  0  0  0
   39.2690   26.6740   41.7960 C   0  0  0  0  0  0  0  0  0  0  0  0
   40.4550   26.0680   42.0080 N   0  0  0  0  0  0  0  0  0  0  0  0
   40.7530   25.9930   43.3100 C   0  0  0  0  0  0  0  0  0  0  0  0
   39.7060   26.5830   44.0240 C   0  0  0  0  0  0  0  0  0  0  0  0
   38.8330   26.9790   43.0580 C   0  0  0  0  0  0  0  0  0  0  0  0
   37.6230   27.6180   43.1620 C   0  0  0  0  0  0  0  0  0  0  0  0
   35.9060   28.4470   42.0880 H   0  0  0  0  0  0  0  0  0  0  0  0
   38.9830   26.6980   39.7470 H   0  0  0  0  0  0  0  0  0  0  0  0
   41.0990   25.6880   41.2790 H   0  0  0  0  0  0  0  0  0  0  0  0
   41.6400   25.5590   43.7600 H   0  0  0  0  0  0  0  0  0  0  0  0
   39.6180   26.6950   45.0880 H   0  0  0  0  0  0  0  0  0  0  0  0
   37.0950   27.9740   44.4830 C   0  0  0  0  0  0  0  0  0  0  0  0
   35.9310   27.6750   44.8280 O   0  0  0  0  0  0  0  0  0  0  0  0
   37.7210   28.5160   45.1960 H   0  0  0  0  0  0  0  0  0  0  0  0
  1 12  1  0  0  0  0
  1  2  1  0  0  0  0
  2  6  1  0  0  0  0
  3  7  1  0  0  0  0
  3  2  2  0  0  0  0
  4  3  1  0  0  0  0
  5  4  1  0  0  0  0
  5  1  2  0  0  0  0
  8 14  1  0  0  0  0
  9 15  1  0  0  0  0
  9  8  2  0  0  0  0
 10  9  1  0  0  0  0
 11 10  2  0  0  0  0
 11 12  1  0  0  0  0
 12 13  2  0  0  0  0
 13  8  1  0  0  0  0
 17 16  1  0  0  0  0
 18 10  1  0  0  0  0
 18 17  2  0  0  0  0
 19 18  1  0  0  0  0
 20 19  1  0  0  0  0
 21 19  2  0  0  0  0
 21 23  1  0  0  0  0
 22 21  1  0  0  0  0
 23 24  2  0  0  0  0
 24 17  1  0  0  0  0
 25  4  1  0  0  0  0
 25 28  1  0  0  0  0
 26 25  1  0  0  0  0
 27 25  1  0  0  0  0
 28 30  1  0  0  0  0
 28 32  1  0  0  0  0
 29 28  1  0  0  0  0
 31 40  1  0  0  0  0
 31 39  1  0  0  0  0
 32 31  2  0  0  0  0
 33 32  1  0  0  0  0
 33 34  2  0  0  0  0
 34 35  1  0  0  0  0
 34 38  1  0  0  0  0
 35 36  1  0  0  0  0
 36 43  1  0  0  0  0
 36 37  2  0  0  0  0
 37 44  1  0  0  0  0
 38 39  2  0  0  0  0
 38 37  1  0  0  0  0
 39 45  1  0  0  0  0
 41 33  1  0  0  0  0
 42 35  1  0  0  0  0
 45 46  2  0  0  0  0
 45 47  1  0  0  0  0
M  END
>  <minimizedAffinity>
-6.90064478

$$$$

 OpenBabel03252506303D

 47 51  0  0  0  0  0  0  0  0999 V2000
   38.0010   32.2680   39.8040 C   0  0  0  0  0  0  0  0  0  0  0  0
   37.3710   31.7860   38.6340 C   0  0  0  0  0  0  0  0  0  0  0  0
   36.5970   30.7260   38.9620 C   0  0  0  0  0  0  0  0  0  0  0  0
   36.7360   30.5550   40.2700 N   0  0  0  0  0  0  0  0  0  0  0  0
   37.5650   31.4590   40.7960 N   0  0  0  0  0  0  0  0  0  0  0  0
   37.5070   32.2200   37.6350 H   0  0  0  0  0  0  0  0  0  0  0  0
   35.9840   30.1240   38.3220 H   0  0  0  0  0  0  0  0  0  0  0  0
   39.2980   35.6610   40.1850 C   0  0  0  0  0  0  0  0  0  0  0  0
   40.6760   35.4850   39.9920 C   0  0  0  0  0  0  0  0  0  0  0  0
   41.1360   34.1980   39.7340 C   0  0  0  0  0  0  0  0  0  0  0  0
   40.2060   33.2350   39.6920 N   0  0  0  0  0  0  0  0  0  0  0  0
   38.9080   33.3920   39.8720 C   0  0  0  0  0  0  0  0  0  0  0  0
   38.4520   34.6200   40.1220 N   0  0  0  0  0  0  0  0  0  0  0  0
   39.0130   36.6690   40.3780 H   0  0  0  0  0  0  0  0  0  0  0  0
   41.3670   36.3010   40.0380 H   0  0  0  0  0  0  0  0  0  0  0  0
   42.2430   34.4670   37.2550 F   0  0  0  0  0  0  0  0  0  0  0  0
   43.0730   34.0260   38.2540 C   0  0  0  0  0  0  0  0  0  0  0  0
   42.5390   33.8810   39.5150 C   0  0  0  0  0  0  0  0  0  0  0  0
   43.3910   33.4380   40.5020 C   0  0  0  0  0  0  0  0  0  0  0  0
   43.0250   33.3080   41.5080 H   0  0  0  0  0  0  0  0  0  0  0  0
   44.7220   33.1370   40.3040 C   0  0  0  0  0  0  0  0  0  0  0  0
   45.3730   32.7910   41.0900 H   0  0  0  0  0  0  0  0  0  0  0  0
   45.2360   33.2930   39.0140 C   0  0  0  0  0  3  0  0  0  0  0  0
   44.3960   33.7330   38.0290 C   0  0  0  0  0  3  0  0  0  0  0  0
   36.0810   29.5230   41.0640 C   0  0  0  0  0  0  0  0  0  0  0  0
   35.9850   28.5740   40.5020 H   0  0  0  0  0  0  0  0  0  0  0  0
   35.0710   29.8320   41.3430 H   0  0  0  0  0  0  0  0  0  0  0  0
   36.8450   29.2520   42.3100 C   0  0  0  0  0  0  0  0  0  0  0  0
   36.1790   29.4020   43.2070 H   0  0  0  0  0  0  0  0  0  0  0  0
   37.6110   30.0500   42.4190 H   0  0  0  0  0  0  0  0  0  0  0  0
   38.6310   27.6240   43.1560 C   0  0  0  0  0  0  0  0  0  0  0  0
   37.5350   27.9770   42.4000 C   0  0  0  0  0  0  0  0  0  0  0  0
   36.9970   26.9710   41.6020 C   0  0  0  0  0  0  0  0  0  0  0  0
   37.5230   25.7100   41.5670 C   0  0  0  0  0  0  0  0  0  0  0  0
   37.2250   24.5700   40.9120 N   0  0  0  0  0  0  0  0  0  0  0  0
   38.0650   23.5770   41.2270 C   0  0  0  0  0  0  0  0  0  0  0  0
   38.9880   24.0740   42.1520 C   0  0  0  0  0  0  0  0  0  0  0  0
   38.6140   25.3710   42.3230 C   0  0  0  0  0  0  0  0  0  0  0  0
   39.1540   26.3540   43.1140 C   0  0  0  0  0  0  0  0  0  0  0  0
   39.0230   28.4380   43.7680 H   0  0  0  0  0  0  0  0  0  0  0  0
   36.1320   27.1150   40.9570 H   0  0  0  0  0  0  0  0  0  0  0  0
   36.4460   24.4280   40.2310 H   0  0  0  0  0  0  0  0  0  0  0  0
   38.0560   22.5590   40.8490 H   0  0  0  0  0  0  0  0  0  0  0  0
   39.8010   23.5480   42.6160 H   0  0  0  0  0  0  0  0  0  0  0  0
   40.3230   26.0610   43.9500 C   0  0  0  0  0  0  0  0  0  0  0  0
   41.2720   26.8680   44.0600 O   0  0  0  0  0  0  0  0  0  0  0  0
   40.3820   25.1170   44.4970 H   0  0  0  0  0  0  0  0  0  0  0  0
  1 12  1  0  0  0  0
  1  5  2  0  0  0  0
  2  3  2  0  0  0  0
  2  1  1  0  0  0  0
  3  4  1  0  0  0  0
  4  5  1  0  0  0  0
  4 25  1  0  0  0  0
  6  2  1  0  0  0  0
  7  3  1  0  0  0  0
  8 14  1  0  0  0  0
  9 15  1  0  0  0  0
  9  8  2  0  0  0  0
 10  9  1  0  0  0  0
 11 10  2  0  0  0  0
 11 12  1  0  0  0  0
 12 13  2  0  0  0  0
 13  8  1  0  0  0  0
 16 17  1  0  0  0  0
 17 18  1  0  0  0  0
 18 10  1  0  0  0  0
 18 19  2  0  0  0  0
 19 20  1  0  0  0  0
 21 19  1  0  0  0  0
 21 22  1  0  0  0  0
 23 21  2  0  0  0  0
 24 17  2  0  0  0  0
 24 23  1  0  0  0  0
 25 27  1  0  0  0  0
 25 28  1  0  0  0  0
 26 25  1  0  0  0  0
 28 32  1  0  0  0  0
 28 30  1  0  0  0  0
 28 29  1  0  0  0  0
 31 40  1  0  0  0  0
 32 31  2  0  0  0  0
 33 32  1  0  0  0  0
 34 33  2  0  0  0  0
 34 38  1  0  0  0  0
 35 36  1  0  0  0  0
 35 34  1  0  0  0  0
 36 37  2  0  0  0  0
 37 38  1  0  0  0  0
 37 44  1  0  0  0  0
 38 39  2  0  0  0  0
 39 31  1  0  0  0  0
 39 45  1  0  0  0  0
 41 33  1  0  0  0  0
 42 35  1  0  0  0  0
 43 36  1  0  0  0  0
 45 46  2  0  0  0  0
 45 47  1  0  0  0  0
M  END
>  <minimizedAffinity>
-6.85708046

$$$$

 OpenBabel03252506303D

 47 51  0  0  0  0  0  0  0  0999 V2000
   42.7720   30.4990   43.0500 C   0  0  0  0  0  0  0  0  0  0  0  0
   43.5550   30.4540   44.2260 C   0  0  0  0  0  0  0  0  0  0  0  0
   43.6370   29.1700   44.6440 C   0  0  0  0  0  0  0  0  0  0  0  0
   42.9410   28.4500   43.7730 N   0  0  0  0  0  0  0  0  0  0  0  0
   42.4160   29.2170   42.8150 N   0  0  0  0  0  0  0  0  0  0  0  0
   44.0100   31.3330   44.7000 H   0  0  0  0  0  0  0  0  0  0  0  0
   44.1510   28.7770   45.4980 H   0  0  0  0  0  0  0  0  0  0  0  0
   42.9670   33.8480   41.6050 C   0  0  0  0  0  0  0  0  0  0  0  0
   41.7900   33.9230   40.8460 C   0  0  0  0  0  0  0  0  0  0  0  0
   40.9470   32.8150   40.8440 C   0  0  0  0  0  0  0  0  0  0  0  0
   41.3450   31.7690   41.5790 N   0  0  0  0  0  0  0  0  0  0  0  0
   42.4500   31.6910   42.2960 C   0  0  0  0  0  0  0  0  0  0  0  0
   43.2680   32.7440   42.3070 N   0  0  0  0  0  0  0  0  0  0  0  0
   43.5660   34.7280   41.5630 H   0  0  0  0  0  0  0  0  0  0  0  0
   41.5310   34.7930   40.2790 H   0  0  0  0  0  0  0  0  0  0  0  0
   40.7320   31.2590   38.6140 F   0  0  0  0  0  0  0  0  0  0  0  0
   39.6170   31.9710   38.9760 C   0  0  0  0  0  0  0  0  0  0  0  0
   39.6990   32.7650   40.0990 C   0  0  0  0  0  0  0  0  0  0  0  0
   38.5670   33.4700   40.4430 C   0  0  0  0  0  0  0  0  0  0  0  0
   38.5770   34.1070   41.3130 H   0  0  0  0  0  0  0  0  0  0  0  0
   37.3800   33.4280   39.7420 C   0  0  0  0  0  0  0  0  0  0  0  0
   36.5050   33.9880   40.0280 H   0  0  0  0  0  0  0  0  0  0  0  0
   37.3270   32.6130   38.6080 C   0  0  0  0  0  3  0  0  0  0  0  0
   38.4470   31.9110   38.2590 C   0  0  0  0  0  3  0  0  0  0  0  0
   42.7530   27.0060   43.8260 C   0  0  0  0  0  0  0  0  0  0  0  0
   43.6210   26.4970   44.2880 H   0  0  0  0  0  0  0  0  0  0  0  0
   42.6390   26.5930   42.8210 H   0  0  0  0  0  0  0  0  0  0  0  0
   41.5380   26.6610   44.6110 C   0  0  0  0  0  0  0  0  0  0  0  0
   41.3760   27.4300   45.4200 H   0  0  0  0  0  0  0  0  0  0  0  0
   41.7520   25.7290   45.1770 H   0  0  0  0  0  0  0  0  0  0  0  0
   39.2680   27.3100   43.6200 C   0  0  0  0  0  0  0  0  0  0  0  0
   40.3090   26.4430   43.8680 C   0  0  0  0  0  0  0  0  0  0  0  0
   40.1780   25.1650   43.3300 C   0  0  0  0  0  0  0  0  0  0  0  0
   39.0830   24.7920   42.6010 C   0  0  0  0  0  0  0  0  0  0  0  0
   38.6930   23.6610   41.9780 N   0  0  0  0  0  0  0  0  0  0  0  0
   37.5020   23.8020   41.3850 C   0  0  0  0  0  0  0  0  0  0  0  0
   37.0580   25.1070   41.6200 C   0  0  0  0  0  0  0  0  0  0  0  0
   38.0540   25.6630   42.3620 C   0  0  0  0  0  0  0  0  0  0  0  0
   38.1710   26.9260   42.8870 C   0  0  0  0  0  0  0  0  0  0  0  0
   39.4080   28.3010   44.0570 H   0  0  0  0  0  0  0  0  0  0  0  0
   40.9260   24.3840   43.4500 H   0  0  0  0  0  0  0  0  0  0  0  0
   39.2190   22.7600   41.9350 H   0  0  0  0  0  0  0  0  0  0  0  0
   36.9550   23.0560   40.8170 H   0  0  0  0  0  0  0  0  0  0  0  0
   36.1420   25.5590   41.2890 H   0  0  0  0  0  0  0  0  0  0  0  0
   37.1070   27.9100   42.6700 C   0  0  0  0  0  0  0  0  0  0  0  0
   37.3250   29.1400   42.7350 O   0  0  0  0  0  0  0  0  0  0  0  0
   36.0900   27.5780   42.4450 H   0  0  0  0  0  0  0  0  0  0  0  0
  1  2  1  0  0  0  0
  2  3  2  0  0  0  0
  2  6  1  0  0  0  0
  3  7  1  0  0  0  0
  4 25  1  0  0  0  0
  4  3  1  0  0  0  0
  5  1  2  0  0  0  0
  5  4  1  0  0  0  0
  8 13  1  0  0  0  0
  9  8  2  0  0  0  0
 10  9  1  0  0  0  0
 10 11  2  0  0  0  0
 11 12  1  0  0  0  0
 12 13  2  0  0  0  0
 12  1  1  0  0  0  0
 14  8  1  0  0  0  0
 15  9  1  0  0  0  0
 16 17  1  0  0  0  0
 17 18  1  0  0  0  0
 18 19  2  0  0  0  0
 18 10  1  0  0  0  0
 19 20  1  0  0  0  0
 21 22  1  0  0  0  0
 21 19  1  0  0  0  0
 23 21  2  0  0  0  0
 24 23  1  0  0  0  0
 24 17  2  0  0  0  0
 25 26  1  0  0  0  0
 25 28  1  0  0  0  0
 27 25  1  0  0  0  0
 28 30  1  0  0  0  0
 28 29  1  0  0  0  0
 31 32  1  0  0  0  0
 31 40  1  0  0  0  0
 32 28  1  0  0  0  0
 33 41  1  0  0  0  0
 33 32  2  0  0  0  0
 34 33  1  0  0  0  0
 35 34  1  0  0  0  0
 36 37  2  0  0  0  0
 36 35  1  0  0  0  0
 37 38  1  0  0  0  0
 38 34  2  0  0  0  0
 38 39  1  0  0  0  0
 39 31  2  0  0  0  0
 42 35  1  0  0  0  0
 43 36  1  0  0  0  0
 44 37  1  0  0  0  0
 45 46  2  0  0  0  0
 45 39  1  0  0  0  0
 47 45  1  0  0  0  0
M  END
>  <minimizedAffinity>
-6.84559679

$$$$
