
     RDKit          3D

 41 44  0  0  0  0  0  0  0  0999 V2000
   45.6327   34.6145   42.0272 C   0  0  0  0  0  0  0  0  0  0  0  0
   44.9010   35.6453   42.6324 C   0  0  0  0  0  0  0  0  0  0  0  0
   43.5547   35.4912   42.3526 C   0  0  0  0  0  0  0  0  0  0  0  0
   43.4969   34.3964   41.5984 N   0  0  0  0  0  0  0  0  0  0  0  0
   44.7064   33.8840   41.4082 N   0  0  0  0  0  0  0  0  0  0  0  0
   49.3545   35.1470   41.9739 C   0  0  0  0  0  0  0  0  0  0  0  0
   47.9680   35.4549   41.8147 C   0  0  0  0  0  0  0  0  0  0  0  0
   47.0837   34.4514   42.1243 C   0  0  0  0  0  0  0  0  0  0  0  0
   47.5409   33.2385   42.5573 N   0  0  0  0  0  0  0  0  0  0  0  0
   48.8665   32.9917   42.6933 C   0  0  0  0  0  0  0  0  0  0  0  0
   49.7393   33.9464   42.4001 N   0  0  0  0  0  0  0  0  0  0  0  0
   42.3423   33.7261   39.6501 N   0  0  0  0  0  0  0  0  0  0  0  0
   42.2177   33.9314   41.0953 C   0  0  2  0  0  0  0  0  0  0  0  0
   41.1629   34.9144   41.4435 C   0  0  0  0  0  0  0  0  0  0  0  0
   40.3410   35.3042   40.3103 N   0  0  0  0  0  0  0  0  0  0  0  0
   41.0440   35.6376   39.1309 C   0  0  0  0  0  0  0  0  0  0  0  0
   42.4517   35.0990   39.1024 C   0  0  2  0  0  0  0  0  0  0  0  0
   45.4513   36.3931   43.2117 H   0  0  0  0  0  0  0  0  0  0  0  0
   42.9862   36.2840   42.8264 H   0  0  0  0  0  0  0  0  0  0  0  0
   50.0207   35.9589   41.7215 H   0  0  0  0  0  0  0  0  0  0  0  0
   47.5909   36.4096   41.4731 H   0  0  0  0  0  0  0  0  0  0  0  0
   49.1257   31.9980   43.0437 H   0  0  0  0  0  0  0  0  0  0  0  0
   43.2664   33.2630   39.5059 H   0  0  0  0  0  0  0  0  0  0  0  0
   42.0385   32.9365   41.5713 H   0  0  0  0  0  0  0  0  0  0  0  0
   41.4882   35.9040   41.8019 H   0  0  0  0  0  0  0  0  0  0  0  0
   40.4520   34.4253   42.1625 H   0  0  0  0  0  0  0  0  0  0  0  0
   39.5000   34.7071   40.1884 H   0  0  0  0  0  0  0  0  0  0  0  0
   40.4788   35.2222   38.2530 H   0  0  0  0  0  0  0  0  0  0  0  0
   41.1007   36.7174   38.9539 H   0  0  0  0  0  0  0  0  0  0  0  0
   43.0563   35.6873   39.8172 H   0  0  0  0  0  0  0  0  0  0  0  0
   41.0718   36.0097   36.9070 F   0  0  0  0  0  0  0  0  0  0  0  0
   42.3396   35.5616   36.6652 C   0  0  0  0  0  0  0  0  0  0  0  0
   43.0517   35.0967   37.7691 C   0  0  0  0  0  0  0  0  0  0  0  0
   44.3231   34.6575   37.4675 C   0  0  0  0  0  0  0  0  0  0  0  0
   44.9309   34.2810   38.2909 H   0  0  0  0  0  0  0  0  0  0  0  0
   44.8518   34.6701   36.2069 C   0  0  0  0  0  0  0  0  0  0  0  0
   45.8650   34.3088   36.0325 H   0  0  0  0  0  0  0  0  0  0  0  0
   44.0659   35.1542   35.1577 C   0  0  0  0  0  0  0  0  0  0  0  0
   42.7686   35.6179   35.3750 C   0  0  0  0  0  0  0  0  0  0  0  0
   44.4848   35.1642   34.1596 H   0  0  0  0  0  0  0  0  0  0  0  0
   42.1462   35.9938   34.5877 H   0  0  0  0  0  0  0  0  0  0  0  0
  1  8  1  0
  1  2  1  0
  3  2  2  0
  4  3  1  0
  5  4  1  0
  5  1  2  0
  6 11  2  0
  7  6  1  0
  7  8  2  0
  8  9  1  0
  9 10  2  0
 11 10  1  0
 12 13  1  0
 13 14  1  0
 13  4  1  0
 15 14  1  0
 16 15  1  0
 17 16  1  0
 17 12  1  0
  2 18  1  0
  3 19  1  0
  6 20  1  0
  7 21  1  0
 10 22  1  0
 12 23  1  0
 13 24  1  1
 14 25  1  0
 14 26  1  0
 15 27  1  0
 16 28  1  0
 16 29  1  0
 17 30  1  1
 31 32  1  0
 32 33  2  0
 33 34  1  0
 34 35  1  0
 34 36  2  0
 36 37  1  0
 36 38  1  0
 38 39  2  0
 39 32  1  0
 38 40  1  0
 39 41  1  0
 17 33  1  0
M  ISO  8  18  14  19  14  20  14  21  14  22  14  23   5  24  13  25  13
M  ISO  7  26  13  27   5  28  13  29  13  30  13  35  15  37  16
M  END
>  <DihAtoms>  (1) 
15,16,32,31

>  <DihDeg>  (1) 
90.00459585638416

$$$$
