REMARK  Name = 
REMARK  3 active torsions:
REMARK  status: ('A' for Active; 'I' for Inactive)
REMARK    1  A    between atoms: C_1  and  C_8
REMARK    2  A    between atoms: N_4  and  C_13
REMARK    3  A    between atoms: C_17  and  C_33
REMARK                            x       y       z     vdW  Elec       q    Type
REMARK                         _______ _______ _______ _____ _____    ______ ____
ROOT
ATOM      1  N   UNL     1      42.342  33.726  39.650  0.00  0.00    +0.000 NA
ATOM      2  C   UNL     1      42.218  33.931  41.095  0.00  0.00    +0.000 C 
ATOM      3  C   UNL     1      41.163  34.914  41.444  0.00  0.00    +0.000 C 
ATOM      4  N   UNL     1      40.341  35.304  40.310  0.00  0.00    +0.000 NA
ATOM      5  C   UNL     1      41.044  35.638  39.131  0.00  0.00    +0.000 C 
ATOM      6  C   UNL     1      42.452  35.099  39.102  0.00  0.00    +0.000 C 
ATOM      7  H   UNL     1      43.266  33.263  39.506  0.00  0.00    +0.000 HD
ATOM      8  H   UNL     1      42.038  32.937  41.571  0.00  0.00    +0.000 HD
ATOM      9  H   UNL     1      41.488  35.904  41.802  0.00  0.00    +0.000 HD
ATOM     10  H   UNL     1      40.452  34.425  42.163  0.00  0.00    +0.000 HD
ATOM     11  H   UNL     1      39.500  34.707  40.188  0.00  0.00    +0.000 HD
ATOM     12  H   UNL     1      40.479  35.222  38.253  0.00  0.00    +0.000 HD
ATOM     13  H   UNL     1      41.101  36.717  38.954  0.00  0.00    +0.000 HD
ATOM     14  H   UNL     1      43.056  35.687  39.817  0.00  0.00    +0.000 HD
ENDROOT
BRANCH   6  17
ATOM     15  F   UNL     1      41.072  36.010  36.907  0.00  0.00    +0.000 F 
ATOM     16  C   UNL     1      42.340  35.562  36.665  0.00  0.00    +0.000 A 
ATOM     17  C   UNL     1      43.052  35.097  37.769  0.00  0.00    +0.000 A 
ATOM     18  C   UNL     1      44.323  34.657  37.468  0.00  0.00    +0.000 A 
ATOM     19  H   UNL     1      44.931  34.281  38.291  0.00  0.00    +0.000 HD
ATOM     20  C   UNL     1      44.852  34.670  36.207  0.00  0.00    +0.000 A 
ATOM     21  H   UNL     1      45.865  34.309  36.032  0.00  0.00    +0.000 HD
ATOM     22  C   UNL     1      44.066  35.154  35.158  0.00  0.00    +0.000 A 
ATOM     23  C   UNL     1      42.769  35.618  35.375  0.00  0.00    +0.000 A 
ENDBRANCH   6  17
BRANCH   2  27
ATOM     24  C   UNL     1      45.633  34.614  42.027  0.00  0.00    +0.000 A 
ATOM     25  C   UNL     1      44.901  35.645  42.632  0.00  0.00    +0.000 A 
ATOM     26  C   UNL     1      43.555  35.491  42.353  0.00  0.00    +0.000 A 
ATOM     27  N   UNL     1      43.497  34.396  41.598  0.00  0.00    +0.000 N 
ATOM     28  N   UNL     1      44.706  33.884  41.408  0.00  0.00    +0.000 NA
ATOM     29  H   UNL     1      45.451  36.393  43.212  0.00  0.00    +0.000 HD
ATOM     30  H   UNL     1      42.986  36.284  42.826  0.00  0.00    +0.000 HD
BRANCH  24  33
ATOM     31  C   UNL     1      49.355  35.147  41.974  0.00  0.00    +0.000 A 
ATOM     32  C   UNL     1      47.968  35.455  41.815  0.00  0.00    +0.000 A 
ATOM     33  C   UNL     1      47.084  34.451  42.124  0.00  0.00    +0.000 A 
ATOM     34  N   UNL     1      47.541  33.239  42.557  0.00  0.00    +0.000 NA
ATOM     35  C   UNL     1      48.867  32.992  42.693  0.00  0.00    +0.000 A 
ATOM     36  N   UNL     1      49.739  33.946  42.400  0.00  0.00    +0.000 NA
ATOM     37  H   UNL     1      50.021  35.959  41.721  0.00  0.00    +0.000 HD
ATOM     38  H   UNL     1      47.591  36.410  41.473  0.00  0.00    +0.000 HD
ATOM     39  H   UNL     1      49.126  31.998  43.044  0.00  0.00    +0.000 HD
ENDBRANCH  24  33
ENDBRANCH   2  27
TORSDOF 3
