
 OpenBabel03252508303D

 39 42  0  0  1  0  0  0  0  0999 V2000
   38.2640   31.5030   41.0490 N   0  0  0  0  0  0  0  0  0  0  0  0
   39.5590   32.1870   41.0650 C   0  0  2  0  0  0  0  0  0  0  0  0
   39.4800   33.5710   40.5370 C   0  0  0  0  0  0  0  0  0  0  0  0
   38.1170   34.0270   40.3160 N   0  0  0  0  0  0  0  0  0  0  0  0
   37.2730   33.1230   39.6330 C   0  0  0  0  0  0  0  0  0  0  0  0
   37.7720   31.7000   39.6640 C   0  0  2  0  0  0  0  0  0  0  0  0
   38.4770   30.4870   41.1570 H   0  0  0  0  0  0  0  0  0  0  0  0
   39.9520   32.1590   42.1100 H   0  0  0  0  0  0  0  0  0  0  0  0
   39.9160   33.7630   39.5440 H   0  0  0  0  0  0  0  0  0  0  0  0
   39.8960   34.2670   41.3150 H   0  0  0  0  0  0  0  0  0  0  0  0
   37.7050   34.5040   41.1410 H   0  0  0  0  0  0  0  0  0  0  0  0
   36.2560   33.1610   40.1100 H   0  0  0  0  0  0  0  0  0  0  0  0
   37.1120   33.3920   38.5840 H   0  0  0  0  0  0  0  0  0  0  0  0
   38.6490   31.6330   38.9950 H   0  0  0  0  0  0  0  0  0  0  0  0
   35.9660   30.7790   41.5210 F   0  0  0  0  0  0  0  0  0  0  0  0
   35.8440   30.2550   40.2650 C   0  0  0  0  0  0  0  0  0  0  0  0
   36.7520   30.7140   39.3120 C   0  0  0  0  0  0  0  0  0  0  0  0
   36.5830   30.1530   38.0650 C   0  0  0  0  0  0  0  0  0  0  0  0
   37.2650   30.4720   37.2760 H   0  0  0  0  0  0  0  0  0  0  0  0
   35.6170   29.2310   37.7710 C   0  0  0  0  0  0  0  0  0  0  0  0
   35.5340   28.8240   36.7640 H   0  0  0  0  0  0  0  0  0  0  0  0
   34.7480   28.8270   38.7890 C   0  0  0  0  0  3  0  0  0  0  0  0
   34.8500   29.3450   40.0800 C   0  0  0  0  0  3  0  0  0  0  0  0
   41.9100   30.7800   38.7210 C   0  0  0  0  0  0  0  0  0  0  0  0
   41.7100   29.7580   39.6600 C   0  0  0  0  0  0  0  0  0  0  0  0
   40.8090   30.1760   40.6230 C   0  0  0  0  0  0  0  0  0  0  0  0
   40.4880   31.4160   40.2610 N   0  0  0  0  0  0  0  0  0  0  0  0
   41.1280   31.7690   39.1530 N   0  0  0  0  0  0  0  0  0  0  0  0
   42.2560   28.8200   39.5210 H   0  0  0  0  0  0  0  0  0  0  0  0
   40.6480   29.3840   41.3470 H   0  0  0  0  0  0  0  0  0  0  0  0
   43.4200   29.9580   35.3770 C   0  0  0  0  0  0  0  0  0  0  0  0
   42.4670   29.9420   36.4430 C   0  0  0  0  0  0  0  0  0  0  0  0
   42.7860   30.6830   37.5540 C   0  0  0  0  0  0  0  0  0  0  0  0
   43.9580   31.3830   37.6020 N   0  0  0  0  0  0  0  0  0  0  0  0
   44.8330   31.3680   36.5670 C   0  0  0  0  0  0  0  0  0  0  0  0
   44.5460   30.6600   35.4840 N   0  0  0  0  0  0  0  0  0  0  0  0
   43.1370   29.3640   34.5210 H   0  0  0  0  0  0  0  0  0  0  0  0
   41.5350   29.3920   36.4190 H   0  0  0  0  0  0  0  0  0  0  0  0
   45.7340   31.9580   36.7040 H   0  0  0  0  0  0  0  0  0  0  0  0
  1  2  1  0  0  0  0
  1  7  1  0  0  0  0
  2  8  1  1  0  0  0
  3  2  1  0  0  0  0
  3 10  1  0  0  0  0
  4  3  1  0  0  0  0
  4 11  1  0  0  0  0
  5  6  1  0  0  0  0
  5 12  1  0  0  0  0
  5  4  1  0  0  0  0
  6 14  1  6  0  0  0
  6  1  1  0  0  0  0
  9  3  1  0  0  0  0
 13  5  1  0  0  0  0
 16 15  1  0  0  0  0
 17  6  1  0  0  0  0
 17 16  2  0  0  0  0
 18 17  1  0  0  0  0
 19 18  1  0  0  0  0
 20 18  2  0  0  0  0
 20 22  1  0  0  0  0
 21 20  1  0  0  0  0
 22 23  2  0  0  0  0
 23 16  1  0  0  0  0
 24 28  2  0  0  0  0
 24 25  1  0  0  0  0
 25 26  2  0  0  0  0
 26 30  1  0  0  0  0
 27 26  1  0  0  0  0
 27  2  1  0  0  0  0
 28 27  1  0  0  0  0
 29 25  1  0  0  0  0
 31 36  2  0  0  0  0
 31 32  1  0  0  0  0
 32 33  2  0  0  0  0
 33 34  1  0  0  0  0
 33 24  1  0  0  0  0
 35 39  1  0  0  0  0
 35 34  2  0  0  0  0
 36 35  1  0  0  0  0
 37 31  1  0  0  0  0
 38 32  1  0  0  0  0
M  END
>  <minimizedAffinity>
-5.94692612

$$$$

 OpenBabel03252508303D

 39 42  0  0  1  0  0  0  0  0999 V2000
   36.7320   31.3030   39.6430 N   0  0  0  0  0  0  0  0  0  0  0  0
   37.3240   32.2220   38.6690 C   0  0  2  0  0  0  0  0  0  0  0  0
   37.7640   31.5360   37.4300 C   0  0  0  0  0  0  0  0  0  0  0  0
   37.3290   30.1510   37.3530 N   0  0  0  0  0  0  0  0  0  0  0  0
   37.5350   29.3790   38.5190 C   0  0  0  0  0  0  0  0  0  0  0  0
   37.7300   30.2130   39.7600 C   0  0  2  0  0  0  0  0  0  0  0  0
   36.7280   31.8140   40.5530 H   0  0  0  0  0  0  0  0  0  0  0  0
   36.5820   33.0300   38.4600 H   0  0  0  0  0  0  0  0  0  0  0  0
   38.8480   31.4110   37.2740 H   0  0  0  0  0  0  0  0  0  0  0  0
   37.2740   32.0420   36.5550 H   0  0  0  0  0  0  0  0  0  0  0  0
   36.4100   30.0340   36.8830 H   0  0  0  0  0  0  0  0  0  0  0  0
   36.6400   28.7150   38.6650 H   0  0  0  0  0  0  0  0  0  0  0  0
   38.3900   28.7000   38.4410 H   0  0  0  0  0  0  0  0  0  0  0  0
   38.7300   30.6810   39.7020 H   0  0  0  0  0  0  0  0  0  0  0  0
   39.1540   30.8470   42.0230 F   0  0  0  0  0  0  0  0  0  0  0  0
   38.2900   29.7960   42.1420 C   0  0  0  0  0  0  0  0  0  0  0  0
   37.5600   29.4630   41.0030 C   0  0  0  0  0  0  0  0  0  0  0  0
   36.7060   28.3960   41.1800 C   0  0  0  0  0  0  0  0  0  0  0  0
   36.1070   28.0870   40.3230 H   0  0  0  0  0  0  0  0  0  0  0  0
   36.5730   27.7170   42.3590 C   0  0  0  0  0  0  0  0  0  0  0  0
   35.8790   26.8800   42.4360 H   0  0  0  0  0  0  0  0  0  0  0  0
   37.3450   28.1190   43.4520 C   0  0  0  0  0  3  0  0  0  0  0  0
   38.2350   29.1890   43.3590 C   0  0  0  0  0  3  0  0  0  0  0  0
   40.4890   33.5290   39.7980 C   0  0  0  0  0  0  0  0  0  0  0  0
   39.5460   34.1550   40.6250 C   0  0  0  0  0  0  0  0  0  0  0  0
   38.2730   33.7260   40.2940 C   0  0  0  0  0  0  0  0  0  0  0  0
   38.4630   32.8700   39.2930 N   0  0  0  0  0  0  0  0  0  0  0  0
   39.7530   32.7540   39.0030 N   0  0  0  0  0  0  0  0  0  0  0  0
   39.9120   34.8580   41.3800 H   0  0  0  0  0  0  0  0  0  0  0  0
   37.5430   34.2050   40.9380 H   0  0  0  0  0  0  0  0  0  0  0  0
   44.0050   34.1610   40.9720 C   0  0  0  0  0  0  0  0  0  0  0  0
   42.5870   34.0010   41.0560 C   0  0  0  0  0  0  0  0  0  0  0  0
   41.9360   33.7330   39.8770 C   0  0  0  0  0  0  0  0  0  0  0  0
   42.6380   33.6320   38.7090 N   0  0  0  0  0  0  0  0  0  0  0  0
   43.9830   33.7910   38.6780 C   0  0  0  0  0  0  0  0  0  0  0  0
   44.6330   34.0510   39.8040 N   0  0  0  0  0  0  0  0  0  0  0  0
   44.4830   34.3710   41.9180 H   0  0  0  0  0  0  0  0  0  0  0  0
   42.0180   34.0780   41.9730 H   0  0  0  0  0  0  0  0  0  0  0  0
   44.4460   33.6900   37.7010 H   0  0  0  0  0  0  0  0  0  0  0  0
  1  6  1  0  0  0  0
  1  7  1  0  0  0  0
  2  8  1  6  0  0  0
  2 27  1  0  0  0  0
  2  1  1  0  0  0  0
  3  2  1  0  0  0  0
  4  3  1  0  0  0  0
  4  5  1  0  0  0  0
  5 12  1  0  0  0  0
  5  6  1  0  0  0  0
  6 14  1  6  0  0  0
  6 17  1  0  0  0  0
  9  3  1  0  0  0  0
 10  3  1  0  0  0  0
 11  4  1  0  0  0  0
 13  5  1  0  0  0  0
 15 16  1  0  0  0  0
 16 23  1  0  0  0  0
 17 18  1  0  0  0  0
 17 16  2  0  0  0  0
 18 20  2  0  0  0  0
 19 18  1  0  0  0  0
 20 21  1  0  0  0  0
 20 22  1  0  0  0  0
 23 22  2  0  0  0  0
 24 33  1  0  0  0  0
 24 25  1  0  0  0  0
 25 29  1  0  0  0  0
 26 25  2  0  0  0  0
 26 30  1  0  0  0  0
 27 26  1  0  0  0  0
 28 27  1  0  0  0  0
 28 24  2  0  0  0  0
 31 32  1  0  0  0  0
 31 37  1  0  0  0  0
 32 38  1  0  0  0  0
 33 32  2  0  0  0  0
 34 33  1  0  0  0  0
 35 34  2  0  0  0  0
 35 36  1  0  0  0  0
 36 31  2  0  0  0  0
 39 35  1  0  0  0  0
M  END
>  <minimizedAffinity>
-5.93916845

$$$$

 OpenBabel03252508303D

 39 42  0  0  1  0  0  0  0  0999 V2000
   39.1220   32.2210   41.9080 N   0  0  0  0  0  0  0  0  0  0  0  0
   39.5170   33.1600   40.8560 C   0  0  2  0  0  0  0  0  0  0  0  0
   38.4520   33.3630   39.8430 C   0  0  0  0  0  0  0  0  0  0  0  0
   37.1820   32.7610   40.2140 N   0  0  0  0  0  0  0  0  0  0  0  0
   37.2500   31.4330   40.6900 C   0  0  0  0  0  0  0  0  0  0  0  0
   38.6260   31.0380   41.1650 C   0  0  2  0  0  0  0  0  0  0  0  0
   40.0070   31.9360   42.3820 H   0  0  0  0  0  0  0  0  0  0  0  0
   39.8190   34.1180   41.3430 H   0  0  0  0  0  0  0  0  0  0  0  0
   38.6020   32.9110   38.8490 H   0  0  0  0  0  0  0  0  0  0  0  0
   38.2420   34.4640   39.7710 H   0  0  0  0  0  0  0  0  0  0  0  0
   36.5610   33.4060   40.7410 H   0  0  0  0  0  0  0  0  0  0  0  0
   36.5280   31.3270   41.5450 H   0  0  0  0  0  0  0  0  0  0  0  0
   36.9320   30.6920   39.9500 H   0  0  0  0  0  0  0  0  0  0  0  0
   39.2710   30.9190   40.2750 H   0  0  0  0  0  0  0  0  0  0  0  0
   40.8960   29.5170   41.4590 F   0  0  0  0  0  0  0  0  0  0  0  0
   39.7950   29.0760   42.1380 C   0  0  0  0  0  0  0  0  0  0  0  0
   38.6370   29.8380   41.9990 C   0  0  0  0  0  0  0  0  0  0  0  0
   37.5590   29.3480   42.7040 C   0  0  0  0  0  0  0  0  0  0  0  0
   36.6220   29.9010   42.6360 H   0  0  0  0  0  0  0  0  0  0  0  0
   37.6060   28.2200   43.4760 C   0  0  0  0  0  0  0  0  0  0  0  0
   36.7190   27.8830   44.0110 H   0  0  0  0  0  0  0  0  0  0  0  0
   38.8110   27.5170   43.5580 C   0  0  0  0  0  3  0  0  0  0  0  0
   39.9500   27.9440   42.8750 C   0  0  0  0  0  3  0  0  0  0  0  0
   42.1080   31.7870   38.7590 C   0  0  0  0  0  0  0  0  0  0  0  0
   42.7680   32.1040   39.9540 C   0  0  0  0  0  0  0  0  0  0  0  0
   41.8690   32.6400   40.8580 C   0  0  0  0  0  0  0  0  0  0  0  0
   40.7070   32.6410   40.2090 N   0  0  0  0  0  0  0  0  0  0  0  0
   40.8450   32.1440   38.9860 N   0  0  0  0  0  0  0  0  0  0  0  0
   43.8420   31.9000   40.0170 H   0  0  0  0  0  0  0  0  0  0  0  0
   42.3770   32.8800   41.7860 H   0  0  0  0  0  0  0  0  0  0  0  0
   42.8860   29.7340   35.7050 C   0  0  0  0  0  0  0  0  0  0  0  0
   42.1420   30.2120   36.8290 C   0  0  0  0  0  0  0  0  0  0  0  0
   42.7450   31.1860   37.5860 C   0  0  0  0  0  0  0  0  0  0  0  0
   43.9870   31.6480   37.2540 N   0  0  0  0  0  0  0  0  0  0  0  0
   44.6550   31.1650   36.1780 C   0  0  0  0  0  0  0  0  0  0  0  0
   44.0930   30.2240   35.4330 N   0  0  0  0  0  0  0  0  0  0  0  0
   42.3820   28.9690   35.1330 H   0  0  0  0  0  0  0  0  0  0  0  0
   41.1580   29.8560   37.1050 H   0  0  0  0  0  0  0  0  0  0  0  0
   45.6340   31.5980   36.0000 H   0  0  0  0  0  0  0  0  0  0  0  0
  1  7  1  0  0  0  0
  2  8  1  1  0  0  0
  2  1  1  0  0  0  0
  3  4  1  0  0  0  0
  3  2  1  0  0  0  0
  4  5  1  0  0  0  0
  4 11  1  0  0  0  0
  5  6  1  0  0  0  0
  5 12  1  0  0  0  0
  6 14  1  6  0  0  0
  6  1  1  0  0  0  0
  6 17  1  0  0  0  0
  9  3  1  0  0  0  0
 10  3  1  0  0  0  0
 13  5  1  0  0  0  0
 15 16  1  0  0  0  0
 16 23  1  0  0  0  0
 17 16  2  0  0  0  0
 17 18  1  0  0  0  0
 18 20  2  0  0  0  0
 19 18  1  0  0  0  0
 20 22  1  0  0  0  0
 20 21  1  0  0  0  0
 23 22  2  0  0  0  0
 24 28  2  0  0  0  0
 24 25  1  0  0  0  0
 25 29  1  0  0  0  0
 25 26  2  0  0  0  0
 26 30  1  0  0  0  0
 27  2  1  0  0  0  0
 27 26  1  0  0  0  0
 28 27  1  0  0  0  0
 31 32  1  0  0  0  0
 32 38  1  0  0  0  0
 32 33  2  0  0  0  0
 33 24  1  0  0  0  0
 34 33  1  0  0  0  0
 35 34  2  0  0  0  0
 36 31  2  0  0  0  0
 36 35  1  0  0  0  0
 37 31  1  0  0  0  0
 39 35  1  0  0  0  0
M  END
>  <minimizedAffinity>
-5.91198826

$$$$

 OpenBabel03252508303D

 39 42  0  0  1  0  0  0  0  0999 V2000
   36.0710   27.7220   37.3660 N   0  0  0  0  0  0  0  0  0  0  0  0
   35.6470   26.3200   37.3540 C   0  0  2  0  0  0  0  0  0  0  0  0
   34.1710   26.1710   37.3230 C   0  0  0  0  0  0  0  0  0  0  0  0
   33.4700   27.4240   37.0990 N   0  0  0  0  0  0  0  0  0  0  0  0
   33.9010   28.5160   37.8850 C   0  0  0  0  0  0  0  0  0  0  0  0
   35.2810   28.3260   38.4640 C   0  0  2  0  0  0  0  0  0  0  0  0
   37.0690   27.7150   37.6730 H   0  0  0  0  0  0  0  0  0  0  0  0
   36.1370   25.8170   36.4860 H   0  0  0  0  0  0  0  0  0  0  0  0
   33.6740   25.8280   38.2450 H   0  0  0  0  0  0  0  0  0  0  0  0
   33.9020   25.5270   36.4430 H   0  0  0  0  0  0  0  0  0  0  0  0
   33.2960   27.6240   36.0950 H   0  0  0  0  0  0  0  0  0  0  0  0
   33.9030   29.4360   37.2410 H   0  0  0  0  0  0  0  0  0  0  0  0
   33.2240   28.7440   38.7150 H   0  0  0  0  0  0  0  0  0  0  0  0
   35.2110   27.5710   39.2680 H   0  0  0  0  0  0  0  0  0  0  0  0
   35.1250   29.0720   41.1050 F   0  0  0  0  0  0  0  0  0  0  0  0
   35.8030   29.9300   40.2860 C   0  0  0  0  0  0  0  0  0  0  0  0
   35.8900   29.5650   38.9440 C   0  0  0  0  0  0  0  0  0  0  0  0
   36.5840   30.4660   38.1650 C   0  0  0  0  0  0  0  0  0  0  0  0
   36.6870   30.2350   37.1050 H   0  0  0  0  0  0  0  0  0  0  0  0
   37.1420   31.6160   38.6500 C   0  0  0  0  0  0  0  0  0  0  0  0
   37.6790   32.2890   37.9820 H   0  0  0  0  0  0  0  0  0  0  0  0
   37.0050   31.9040   40.0100 C   0  0  0  0  0  3  0  0  0  0  0  0
   36.3180   31.0460   40.8690 C   0  0  0  0  0  3  0  0  0  0  0  0
   37.2880   25.2370   40.3760 C   0  0  0  0  0  0  0  0  0  0  0  0
   36.4060   24.1900   40.0720 C   0  0  0  0  0  0  0  0  0  0  0  0
   35.7120   24.4840   38.9120 C   0  0  0  0  0  0  0  0  0  0  0  0
   36.1720   25.6770   38.5440 N   0  0  0  0  0  0  0  0  0  0  0  0
   37.0900   26.1170   39.3950 N   0  0  0  0  0  0  0  0  0  0  0  0
   36.3810   23.3280   40.7460 H   0  0  0  0  0  0  0  0  0  0  0  0
   35.0340   23.6720   38.6720 H   0  0  0  0  0  0  0  0  0  0  0  0
   39.7690   24.3450   43.0580 C   0  0  0  0  0  0  0  0  0  0  0  0
   38.9150   24.1620   41.9260 C   0  0  0  0  0  0  0  0  0  0  0  0
   38.1940   25.2590   41.5250 C   0  0  0  0  0  0  0  0  0  0  0  0
   38.3130   26.4440   42.1940 N   0  0  0  0  0  0  0  0  0  0  0  0
   39.1360   26.5710   43.2630 C   0  0  0  0  0  0  0  0  0  0  0  0
   39.8410   25.5250   43.6690 N   0  0  0  0  0  0  0  0  0  0  0  0
   40.3190   23.4610   43.3450 H   0  0  0  0  0  0  0  0  0  0  0  0
   38.8110   23.2300   41.3850 H   0  0  0  0  0  0  0  0  0  0  0  0
   39.1580   27.5540   43.7240 H   0  0  0  0  0  0  0  0  0  0  0  0
  1  7  1  0  0  0  0
  1  6  1  0  0  0  0
  2  8  1  6  0  0  0
  2  1  1  0  0  0  0
  2 27  1  0  0  0  0
  3  2  1  0  0  0  0
  3  9  1  0  0  0  0
  4  3  1  0  0  0  0
  4  5  1  0  0  0  0
  5  6  1  0  0  0  0
  5 13  1  0  0  0  0
  6 17  1  0  0  0  0
  6 14  1  1  0  0  0
 10  3  1  0  0  0  0
 11  4  1  0  0  0  0
 12  5  1  0  0  0  0
 16 23  1  0  0  0  0
 16 15  1  0  0  0  0
 17 16  2  0  0  0  0
 18 20  2  0  0  0  0
 18 17  1  0  0  0  0
 19 18  1  0  0  0  0
 20 22  1  0  0  0  0
 21 20  1  0  0  0  0
 22 23  2  0  0  0  0
 24 33  1  0  0  0  0
 25 24  1  0  0  0  0
 25 29  1  0  0  0  0
 26 25  2  0  0  0  0
 27 26  1  0  0  0  0
 27 28  1  0  0  0  0
 28 24  2  0  0  0  0
 30 26  1  0  0  0  0
 31 37  1  0  0  0  0
 31 36  1  0  0  0  0
 32 31  2  0  0  0  0
 33 32  1  0  0  0  0
 33 34  2  0  0  0  0
 34 35  1  0  0  0  0
 35 36  2  0  0  0  0
 35 39  1  0  0  0  0
 38 32  1  0  0  0  0
M  END
>  <minimizedAffinity>
-5.90788317

$$$$

 OpenBabel03252508303D

 39 42  0  0  1  0  0  0  0  0999 V2000
   36.2610   30.0320   39.5150 N   0  0  0  0  0  0  0  0  0  0  0  0
   36.6890   30.9150   38.4290 C   0  0  2  0  0  0  0  0  0  0  0  0
   37.2520   30.1710   37.2750 C   0  0  0  0  0  0  0  0  0  0  0  0
   37.0690   28.7320   37.3740 N   0  0  0  0  0  0  0  0  0  0  0  0
   37.3990   28.1570   38.6210 C   0  0  0  0  0  0  0  0  0  0  0  0
   37.4340   29.1570   39.7490 C   0  0  2  0  0  0  0  0  0  0  0  0
   36.1600   30.6420   40.3560 H   0  0  0  0  0  0  0  0  0  0  0  0
   35.8180   31.5480   38.1330 H   0  0  0  0  0  0  0  0  0  0  0  0
   38.3420   30.2210   37.1200 H   0  0  0  0  0  0  0  0  0  0  0  0
   36.6870   30.4730   36.3530 H   0  0  0  0  0  0  0  0  0  0  0  0
   36.1880   28.4000   36.9350 H   0  0  0  0  0  0  0  0  0  0  0  0
   36.6340   27.3690   38.8600 H   0  0  0  0  0  0  0  0  0  0  0  0
   38.3610   27.6350   38.6140 H   0  0  0  0  0  0  0  0  0  0  0  0
   38.3370   29.7820   39.6210 H   0  0  0  0  0  0  0  0  0  0  0  0
   38.2650   30.5220   41.9850 F   0  0  0  0  0  0  0  0  0  0  0  0
   37.8160   29.2500   42.2000 C   0  0  0  0  0  0  0  0  0  0  0  0
   37.3910   28.5460   41.0760 C   0  0  0  0  0  0  0  0  0  0  0  0
   36.9490   27.2700   41.3520 C   0  0  0  0  0  0  0  0  0  0  0  0
   36.6020   26.6680   40.5120 H   0  0  0  0  0  0  0  0  0  0  0  0
   36.9220   26.7300   42.6080 C   0  0  0  0  0  0  0  0  0  0  0  0
   36.5600   25.7140   42.7620 H   0  0  0  0  0  0  0  0  0  0  0  0
   37.3680   27.5090   43.6790 C   0  0  0  0  0  3  0  0  0  0  0  0
   37.8320   28.8110   43.4880 C   0  0  0  0  0  3  0  0  0  0  0  0
   39.5730   32.8610   39.3740 C   0  0  0  0  0  0  0  0  0  0  0  0
   38.5130   33.4630   40.0660 C   0  0  0  0  0  0  0  0  0  0  0  0
   37.3340   32.7950   39.7900 C   0  0  0  0  0  0  0  0  0  0  0  0
   37.6910   31.8250   38.9530 N   0  0  0  0  0  0  0  0  0  0  0  0
   38.9950   31.8610   38.7100 N   0  0  0  0  0  0  0  0  0  0  0  0
   38.7380   34.3290   40.6970 H   0  0  0  0  0  0  0  0  0  0  0  0
   36.5130   33.2550   40.3300 H   0  0  0  0  0  0  0  0  0  0  0  0
   43.1250   33.7960   38.5670 C   0  0  0  0  0  0  0  0  0  0  0  0
   41.7900   33.3350   38.3430 C   0  0  0  0  0  0  0  0  0  0  0  0
   40.9690   33.2950   39.4420 C   0  0  0  0  0  0  0  0  0  0  0  0
   41.4360   33.6820   40.6660 N   0  0  0  0  0  0  0  0  0  0  0  0
   42.7110   34.1120   40.8320 C   0  0  0  0  0  0  0  0  0  0  0  0
   43.5220   34.1590   39.7850 N   0  0  0  0  0  0  0  0  0  0  0  0
   43.7430   33.8130   37.6810 H   0  0  0  0  0  0  0  0  0  0  0  0
   41.4070   33.0250   37.3790 H   0  0  0  0  0  0  0  0  0  0  0  0
   42.9820   34.3970   41.8430 H   0  0  0  0  0  0  0  0  0  0  0  0
  1  6  1  0  0  0  0
  1  7  1  0  0  0  0
  2  8  1  6  0  0  0
  2 27  1  0  0  0  0
  2  1  1  0  0  0  0
  3  4  1  0  0  0  0
  3  2  1  0  0  0  0
  4  5  1  0  0  0  0
  5 12  1  0  0  0  0
  5  6  1  0  0  0  0
  6 14  1  6  0  0  0
  6 17  1  0  0  0  0
  9  3  1  0  0  0  0
 10  3  1  0  0  0  0
 11  4  1  0  0  0  0
 13  5  1  0  0  0  0
 15 16  1  0  0  0  0
 16 23  1  0  0  0  0
 17 18  1  0  0  0  0
 17 16  2  0  0  0  0
 18 20  2  0  0  0  0
 19 18  1  0  0  0  0
 20 21  1  0  0  0  0
 20 22  1  0  0  0  0
 23 22  2  0  0  0  0
 24 33  1  0  0  0  0
 24 25  1  0  0  0  0
 25 29  1  0  0  0  0
 26 25  2  0  0  0  0
 26 30  1  0  0  0  0
 27 26  1  0  0  0  0
 28 27  1  0  0  0  0
 28 24  2  0  0  0  0
 31 36  1  0  0  0  0
 32 31  2  0  0  0  0
 32 33  1  0  0  0  0
 33 34  2  0  0  0  0
 34 35  1  0  0  0  0
 35 39  1  0  0  0  0
 36 35  2  0  0  0  0
 37 31  1  0  0  0  0
 38 32  1  0  0  0  0
M  END
>  <minimizedAffinity>
-5.82389688

$$$$

 OpenBabel03252508303D

 39 42  0  0  1  0  0  0  0  0999 V2000
   39.1300   31.3470   39.6190 N   0  0  0  0  0  0  0  0  0  0  0  0
   37.7610   30.8270   39.5930 C   0  0  2  0  0  0  0  0  0  0  0  0
   36.7530   31.8530   39.9580 C   0  0  0  0  0  0  0  0  0  0  0  0
   37.3060   33.1940   40.0560 N   0  0  0  0  0  0  0  0  0  0  0  0
   38.5070   33.3080   40.7920 C   0  0  0  0  0  0  0  0  0  0  0  0
   39.2400   31.9990   40.9460 C   0  0  2  0  0  0  0  0  0  0  0  0
   39.7520   30.5100   39.6360 H   0  0  0  0  0  0  0  0  0  0  0  0
   37.5730   30.3980   38.5790 H   0  0  0  0  0  0  0  0  0  0  0  0
   36.2710   31.7650   40.9440 H   0  0  0  0  0  0  0  0  0  0  0  0
   35.9970   31.9120   39.1290 H   0  0  0  0  0  0  0  0  0  0  0  0
   37.2650   33.7220   39.1630 H   0  0  0  0  0  0  0  0  0  0  0  0
   39.1770   34.0390   40.2630 H   0  0  0  0  0  0  0  0  0  0  0  0
   38.3610   33.7230   41.7950 H   0  0  0  0  0  0  0  0  0  0  0  0
   38.6750   31.3760   41.6620 H   0  0  0  0  0  0  0  0  0  0  0  0
   40.3700   30.3580   42.8380 F   0  0  0  0  0  0  0  0  0  0  0  0
   41.1940   31.3140   42.3140 C   0  0  0  0  0  0  0  0  0  0  0  0
   40.6350   32.1530   41.3530 C   0  0  0  0  0  0  0  0  0  0  0  0
   41.5100   33.0960   40.8590 C   0  0  0  0  0  0  0  0  0  0  0  0
   41.1310   33.7840   40.1030 H   0  0  0  0  0  0  0  0  0  0  0  0
   42.8120   33.2100   41.2640 C   0  0  0  0  0  0  0  0  0  0  0  0
   43.4550   33.9780   40.8350 H   0  0  0  0  0  0  0  0  0  0  0  0
   43.2890   32.3260   42.2350 C   0  0  0  0  0  3  0  0  0  0  0  0
   42.4700   31.3410   42.7870 C   0  0  0  0  0  3  0  0  0  0  0  0
   38.1100   27.9100   41.6820 C   0  0  0  0  0  0  0  0  0  0  0  0
   36.8920   28.4750   42.0850 C   0  0  0  0  0  0  0  0  0  0  0  0
   36.6350   29.6130   41.3420 C   0  0  0  0  0  0  0  0  0  0  0  0
   37.6800   29.7180   40.5240 N   0  0  0  0  0  0  0  0  0  0  0  0
   38.5390   28.7270   40.7210 N   0  0  0  0  0  0  0  0  0  0  0  0
   36.3340   27.9750   42.8830 H   0  0  0  0  0  0  0  0  0  0  0  0
   35.6890   30.0480   41.6470 H   0  0  0  0  0  0  0  0  0  0  0  0
   40.1040   25.4250   43.6800 C   0  0  0  0  0  0  0  0  0  0  0  0
   39.6450   26.7010   43.2270 C   0  0  0  0  0  0  0  0  0  0  0  0
   38.6900   26.6880   42.2410 C   0  0  0  0  0  0  0  0  0  0  0  0
   38.2270   25.5030   41.7450 N   0  0  0  0  0  0  0  0  0  0  0  0
   38.6910   24.3160   42.2050 C   0  0  0  0  0  0  0  0  0  0  0  0
   39.6140   24.3030   43.1560 N   0  0  0  0  0  0  0  0  0  0  0  0
   40.8550   25.4730   44.4540 H   0  0  0  0  0  0  0  0  0  0  0  0
   40.0030   27.6480   43.6100 H   0  0  0  0  0  0  0  0  0  0  0  0
   38.2590   23.4320   41.7460 H   0  0  0  0  0  0  0  0  0  0  0  0
  1  7  1  0  0  0  0
  1  6  1  0  0  0  0
  2  8  1  6  0  0  0
  2  1  1  0  0  0  0
  2  3  1  0  0  0  0
  2 27  1  0  0  0  0
  3  4  1  0  0  0  0
  3  9  1  0  0  0  0
  4  5  1  0  0  0  0
  5  6  1  0  0  0  0
  5 13  1  0  0  0  0
  6 17  1  0  0  0  0
  6 14  1  1  0  0  0
 10  3  1  0  0  0  0
 11  4  1  0  0  0  0
 12  5  1  0  0  0  0
 16 23  1  0  0  0  0
 16 15  1  0  0  0  0
 17 16  2  0  0  0  0
 18 20  2  0  0  0  0
 18 17  1  0  0  0  0
 19 18  1  0  0  0  0
 20 22  1  0  0  0  0
 21 20  1  0  0  0  0
 22 23  2  0  0  0  0
 24 25  1  0  0  0  0
 24 33  1  0  0  0  0
 25 29  1  0  0  0  0
 26 30  1  0  0  0  0
 26 25  2  0  0  0  0
 27 28  1  0  0  0  0
 27 26  1  0  0  0  0
 28 24  2  0  0  0  0
 31 37  1  0  0  0  0
 32 38  1  0  0  0  0
 32 31  1  0  0  0  0
 33 32  2  0  0  0  0
 34 35  2  0  0  0  0
 34 33  1  0  0  0  0
 35 36  1  0  0  0  0
 36 31  2  0  0  0  0
 39 35  1  0  0  0  0
M  END
>  <minimizedAffinity>
-5.77334309

$$$$

 OpenBabel03252508303D

 39 42  0  0  1  0  0  0  0  0999 V2000
   37.0490   30.0560   42.0950 N   0  0  0  0  0  0  0  0  0  0  0  0
   36.4650   30.8470   41.0100 C   0  0  2  0  0  0  0  0  0  0  0  0
   35.4300   30.1010   40.2530 C   0  0  0  0  0  0  0  0  0  0  0  0
   35.0650   28.8360   40.8690 N   0  0  0  0  0  0  0  0  0  0  0  0
   36.1440   28.0240   41.2830 C   0  0  0  0  0  0  0  0  0  0  0  0
   37.4370   28.7830   41.4420 C   0  0  2  0  0  0  0  0  0  0  0  0
   37.9310   30.5460   42.3620 H   0  0  0  0  0  0  0  0  0  0  0  0
   36.0640   31.7930   41.4480 H   0  0  0  0  0  0  0  0  0  0  0  0
   35.6890   29.7590   39.2380 H   0  0  0  0  0  0  0  0  0  0  0  0
   34.4850   30.7090   40.2580 H   0  0  0  0  0  0  0  0  0  0  0  0
   34.2710   28.9170   41.5340 H   0  0  0  0  0  0  0  0  0  0  0  0
   35.8760   27.5560   42.2690 H   0  0  0  0  0  0  0  0  0  0  0  0
   36.3360   27.1850   40.6070 H   0  0  0  0  0  0  0  0  0  0  0  0
   37.8090   29.0360   40.4330 H   0  0  0  0  0  0  0  0  0  0  0  0
   40.0390   29.6600   41.5690 F   0  0  0  0  0  0  0  0  0  0  0  0
   39.7610   28.5240   42.2750 C   0  0  0  0  0  0  0  0  0  0  0  0
   38.4460   28.0680   42.2210 C   0  0  0  0  0  0  0  0  0  0  0  0
   38.2230   26.9200   42.9510 C   0  0  0  0  0  0  0  0  0  0  0  0
   37.2110   26.5130   42.9470 H   0  0  0  0  0  0  0  0  0  0  0  0
   39.1930   26.2760   43.6690 C   0  0  0  0  0  0  0  0  0  0  0  0
   38.9530   25.3710   44.2260 H   0  0  0  0  0  0  0  0  0  0  0  0
   40.4860   26.8040   43.6670 C   0  0  0  0  0  3  0  0  0  0  0  0
   40.7980   27.9620   42.9550 C   0  0  0  0  0  3  0  0  0  0  0  0
   39.3510   32.1170   39.2610 C   0  0  0  0  0  0  0  0  0  0  0  0
   38.6840   31.3420   38.3020 C   0  0  0  0  0  0  0  0  0  0  0  0
   37.5380   30.7970   38.8540 C   0  0  0  0  0  0  0  0  0  0  0  0
   37.5330   31.2390   40.1090 N   0  0  0  0  0  0  0  0  0  0  0  0
   38.5870   32.0080   40.3480 N   0  0  0  0  0  0  0  0  0  0  0  0
   39.1250   31.2710   37.3030 H   0  0  0  0  0  0  0  0  0  0  0  0
   37.0170   30.2020   38.1110 H   0  0  0  0  0  0  0  0  0  0  0  0
   42.4850   34.1610   39.6370 C   0  0  0  0  0  0  0  0  0  0  0  0
   41.2820   33.4930   40.0240 C   0  0  0  0  0  0  0  0  0  0  0  0
   40.5910   32.8560   39.0230 C   0  0  0  0  0  0  0  0  0  0  0  0
   41.0590   32.8790   37.7410 N   0  0  0  0  0  0  0  0  0  0  0  0
   42.2070   33.5250   37.4190 C   0  0  0  0  0  0  0  0  0  0  0  0
   42.8900   34.1480   38.3690 N   0  0  0  0  0  0  0  0  0  0  0  0
   43.0010   34.6520   40.4490 H   0  0  0  0  0  0  0  0  0  0  0  0
   40.8980   33.4670   41.0360 H   0  0  0  0  0  0  0  0  0  0  0  0
   42.4920   33.4830   36.3720 H   0  0  0  0  0  0  0  0  0  0  0  0
  1  7  1  0  0  0  0
  2  8  1  1  0  0  0
  2  1  1  0  0  0  0
  3 10  1  0  0  0  0
  3  4  1  0  0  0  0
  3  2  1  0  0  0  0
  4  5  1  0  0  0  0
  4 11  1  0  0  0  0
  5  6  1  0  0  0  0
  5 12  1  0  0  0  0
  6 14  1  6  0  0  0
  6  1  1  0  0  0  0
  6 17  1  0  0  0  0
  9  3  1  0  0  0  0
 13  5  1  0  0  0  0
 15 16  1  0  0  0  0
 16 23  1  0  0  0  0
 17 16  2  0  0  0  0
 17 18  1  0  0  0  0
 18 20  2  0  0  0  0
 19 18  1  0  0  0  0
 20 21  1  0  0  0  0
 22 20  1  0  0  0  0
 23 22  2  0  0  0  0
 24 28  2  0  0  0  0
 25 26  2  0  0  0  0
 25 24  1  0  0  0  0
 26 27  1  0  0  0  0
 27 28  1  0  0  0  0
 27  2  1  0  0  0  0
 29 25  1  0  0  0  0
 30 26  1  0  0  0  0
 31 32  1  0  0  0  0
 31 37  1  0  0  0  0
 32 38  1  0  0  0  0
 33 24  1  0  0  0  0
 33 32  2  0  0  0  0
 34 33  1  0  0  0  0
 35 34  2  0  0  0  0
 35 36  1  0  0  0  0
 36 31  2  0  0  0  0
 39 35  1  0  0  0  0
M  END
>  <minimizedAffinity>
-5.74837971

$$$$

 OpenBabel03252508303D

 39 42  0  0  1  0  0  0  0  0999 V2000
   38.7280   30.7200   39.9590 N   0  0  0  0  0  0  0  0  0  0  0  0
   38.3460   31.2730   38.6580 C   0  0  2  0  0  0  0  0  0  0  0  0
   37.2050   32.2170   38.7520 C   0  0  0  0  0  0  0  0  0  0  0  0
   36.8470   32.5540   40.1200 N   0  0  0  0  0  0  0  0  0  0  0  0
   36.7400   31.4630   41.0110 C   0  0  0  0  0  0  0  0  0  0  0  0
   37.4520   30.2240   40.5270 C   0  0  2  0  0  0  0  0  0  0  0  0
   39.3170   29.8840   39.7520 H   0  0  0  0  0  0  0  0  0  0  0  0
   39.2480   31.7510   38.2070 H   0  0  0  0  0  0  0  0  0  0  0  0
   36.2290   31.8750   38.3710 H   0  0  0  0  0  0  0  0  0  0  0  0
   37.5150   33.1900   38.2850 H   0  0  0  0  0  0  0  0  0  0  0  0
   37.3430   33.3920   40.4790 H   0  0  0  0  0  0  0  0  0  0  0  0
   37.1800   31.7700   41.9990 H   0  0  0  0  0  0  0  0  0  0  0  0
   35.7040   31.1830   41.2290 H   0  0  0  0  0  0  0  0  0  0  0  0
   36.8660   29.8010   39.6900 H   0  0  0  0  0  0  0  0  0  0  0  0
   35.4620   28.5120   41.3420 F   0  0  0  0  0  0  0  0  0  0  0  0
   36.6630   28.3710   41.9780 C   0  0  0  0  0  0  0  0  0  0  0  0
   37.6810   29.2320   41.5750 C   0  0  0  0  0  0  0  0  0  0  0  0
   38.8680   29.0460   42.2500 C   0  0  0  0  0  0  0  0  0  0  0  0
   39.7050   29.6900   41.9790 H   0  0  0  0  0  0  0  0  0  0  0  0
   39.0470   28.1050   43.2270 C   0  0  0  0  0  0  0  0  0  0  0  0
   40.0120   28.0070   43.7240 H   0  0  0  0  0  0  0  0  0  0  0  0
   37.9700   27.2840   43.5680 C   0  0  0  0  0  3  0  0  0  0  0  0
   36.7330   27.4060   42.9350 C   0  0  0  0  0  3  0  0  0  0  0  0
   36.9090   28.8030   36.4600 C   0  0  0  0  0  0  0  0  0  0  0  0
   38.2390   28.3890   36.6160 C   0  0  0  0  0  0  0  0  0  0  0  0
   38.9060   29.2620   37.4560 C   0  0  0  0  0  0  0  0  0  0  0  0
   37.9900   30.1710   37.7840 N   0  0  0  0  0  0  0  0  0  0  0  0
   36.8270   29.9040   37.2060 N   0  0  0  0  0  0  0  0  0  0  0  0
   38.5610   27.4860   36.0880 H   0  0  0  0  0  0  0  0  0  0  0  0
   39.9340   28.9400   37.5830 H   0  0  0  0  0  0  0  0  0  0  0  0
   33.7920   27.8280   34.5950 C   0  0  0  0  0  0  0  0  0  0  0  0
   34.6550   28.6200   35.4150 C   0  0  0  0  0  0  0  0  0  0  0  0
   35.9060   28.1070   35.6530 C   0  0  0  0  0  0  0  0  0  0  0  0
   36.2710   26.9050   35.1170 N   0  0  0  0  0  0  0  0  0  0  0  0
   35.4190   26.1880   34.3440 C   0  0  0  0  0  0  0  0  0  0  0  0
   34.2060   26.6630   34.1020 N   0  0  0  0  0  0  0  0  0  0  0  0
   32.8170   28.2620   34.4310 H   0  0  0  0  0  0  0  0  0  0  0  0
   34.3800   29.5740   35.8470 H   0  0  0  0  0  0  0  0  0  0  0  0
   35.8060   25.2460   33.9670 H   0  0  0  0  0  0  0  0  0  0  0  0
  1  6  1  0  0  0  0
  2  8  1  6  0  0  0
  2  3  1  0  0  0  0
  2  1  1  0  0  0  0
  3  4  1  0  0  0  0
  4 11  1  0  0  0  0
  4  5  1  0  0  0  0
  5 13  1  0  0  0  0
  5 12  1  0  0  0  0
  6 14  1  6  0  0  0
  6  5  1  0  0  0  0
  6 17  1  0  0  0  0
  7  1  1  0  0  0  0
  9  3  1  0  0  0  0
 10  3  1  0  0  0  0
 15 16  1  0  0  0  0
 16 23  1  0  0  0  0
 17 16  2  0  0  0  0
 17 18  1  0  0  0  0
 18 20  2  0  0  0  0
 19 18  1  0  0  0  0
 20 22  1  0  0  0  0
 20 21  1  0  0  0  0
 23 22  2  0  0  0  0
 24 25  1  0  0  0  0
 24 28  2  0  0  0  0
 25 26  2  0  0  0  0
 26 30  1  0  0  0  0
 26 27  1  0  0  0  0
 27  2  1  0  0  0  0
 28 27  1  0  0  0  0
 29 25  1  0  0  0  0
 31 32  1  0  0  0  0
 32 33  2  0  0  0  0
 32 38  1  0  0  0  0
 33 24  1  0  0  0  0
 34 33  1  0  0  0  0
 35 34  2  0  0  0  0
 36 35  1  0  0  0  0
 36 31  2  0  0  0  0
 37 31  1  0  0  0  0
 39 35  1  0  0  0  0
M  END
>  <minimizedAffinity>
-5.62952518

$$$$

 OpenBabel03252508303D

 39 42  0  0  1  0  0  0  0  0999 V2000
   39.3650   25.5900   40.8510 N   0  0  0  0  0  0  0  0  0  0  0  0
   39.9700   26.2470   42.0120 C   0  0  2  0  0  0  0  0  0  0  0  0
   39.7520   25.4960   43.2720 C   0  0  0  0  0  0  0  0  0  0  0  0
   39.1770   24.1770   43.0640 N   0  0  0  0  0  0  0  0  0  0  0  0
   38.0710   24.1230   42.1870 C   0  0  0  0  0  0  0  0  0  0  0  0
   37.9710   25.3210   41.2780 C   0  0  2  0  0  0  0  0  0  0  0  0
   39.3230   26.3150   40.1020 H   0  0  0  0  0  0  0  0  0  0  0  0
   41.0550   26.3990   41.7970 H   0  0  0  0  0  0  0  0  0  0  0  0
   39.0340   25.9120   43.9960 H   0  0  0  0  0  0  0  0  0  0  0  0
   40.7530   25.3040   43.7440 H   0  0  0  0  0  0  0  0  0  0  0  0
   39.8910   23.4310   42.9480 H   0  0  0  0  0  0  0  0  0  0  0  0
   38.1660   23.1970   41.5560 H   0  0  0  0  0  0  0  0  0  0  0  0
   37.1130   24.0230   42.7070 H   0  0  0  0  0  0  0  0  0  0  0  0
   37.6460   26.1840   41.8870 H   0  0  0  0  0  0  0  0  0  0  0  0
   36.8750   27.4400   39.9110 F   0  0  0  0  0  0  0  0  0  0  0  0
   36.5420   26.1990   39.4470 C   0  0  0  0  0  0  0  0  0  0  0  0
   37.0900   25.1150   40.1300 C   0  0  0  0  0  0  0  0  0  0  0  0
   36.7200   23.8890   39.6190 C   0  0  0  0  0  0  0  0  0  0  0  0
   37.1180   23.0020   40.1120 H   0  0  0  0  0  0  0  0  0  0  0  0
   35.8930   23.7340   38.5410 C   0  0  0  0  0  0  0  0  0  0  0  0
   35.6370   22.7370   38.1850 H   0  0  0  0  0  0  0  0  0  0  0  0
   35.3880   24.8770   37.9170 C   0  0  0  0  0  3  0  0  0  0  0  0
   35.7120   26.1560   38.3700 C   0  0  0  0  0  3  0  0  0  0  0  0
   38.7030   29.6110   41.7270 C   0  0  0  0  0  0  0  0  0  0  0  0
   38.3600   29.2260   43.0300 C   0  0  0  0  0  0  0  0  0  0  0  0
   38.8030   27.9380   43.2710 C   0  0  0  0  0  0  0  0  0  0  0  0
   39.3910   27.5720   42.1340 N   0  0  0  0  0  0  0  0  0  0  0  0
   39.3340   28.5460   41.2340 N   0  0  0  0  0  0  0  0  0  0  0  0
   37.8200   29.9460   43.6530 H   0  0  0  0  0  0  0  0  0  0  0  0
   38.5440   27.6410   44.2810 H   0  0  0  0  0  0  0  0  0  0  0  0
   37.1320   32.4830   39.8760 C   0  0  0  0  0  0  0  0  0  0  0  0
   37.2900   31.1510   40.3720 C   0  0  0  0  0  0  0  0  0  0  0  0
   38.4070   30.9160   41.1350 C   0  0  0  0  0  0  0  0  0  0  0  0
   39.2950   31.9230   41.3860 N   0  0  0  0  0  0  0  0  0  0  0  0
   39.1040   33.1720   40.8940 C   0  0  0  0  0  0  0  0  0  0  0  0
   38.0330   33.4220   40.1550 N   0  0  0  0  0  0  0  0  0  0  0  0
   36.2440   32.6310   39.2800 H   0  0  0  0  0  0  0  0  0  0  0  0
   36.5950   30.3430   40.1820 H   0  0  0  0  0  0  0  0  0  0  0  0
   39.8670   33.9000   41.1510 H   0  0  0  0  0  0  0  0  0  0  0  0
  1  6  1  0  0  0  0
  1  2  1  0  0  0  0
  2  8  1  6  0  0  0
  2 27  1  0  0  0  0
  2  3  1  0  0  0  0
  3 10  1  0  0  0  0
  3  9  1  0  0  0  0
  4  3  1  0  0  0  0
  5 13  1  0  0  0  0
  5  4  1  0  0  0  0
  6 14  1  1  0  0  0
  6  5  1  0  0  0  0
  7  1  1  0  0  0  0
 11  4  1  0  0  0  0
 12  5  1  0  0  0  0
 16 15  1  0  0  0  0
 16 17  1  0  0  0  0
 17  6  1  0  0  0  0
 18 19  1  0  0  0  0
 18 17  2  0  0  0  0
 20 18  1  0  0  0  0
 21 20  1  0  0  0  0
 22 23  1  0  0  0  0
 22 20  2  0  0  0  0
 23 16  2  0  0  0  0
 24 25  1  0  0  0  0
 25 26  2  0  0  0  0
 25 29  1  0  0  0  0
 26 30  1  0  0  0  0
 27 26  1  0  0  0  0
 28 24  2  0  0  0  0
 28 27  1  0  0  0  0
 31 36  2  0  0  0  0
 31 32  1  0  0  0  0
 32 33  2  0  0  0  0
 33 34  1  0  0  0  0
 33 24  1  0  0  0  0
 35 39  1  0  0  0  0
 35 34  2  0  0  0  0
 36 35  1  0  0  0  0
 37 31  1  0  0  0  0
 38 32  1  0  0  0  0
M  END
>  <minimizedAffinity>
-5.59000158

$$$$
