
 OpenBabel03242513463D

 25 27  0  0  1  0  0  0  0  0999 V2000
   45.0410   34.0140   40.8140 C   0  0  1  0  0  0  0  0  0  0  0  0
   44.3010   32.6750   40.5950 C   0  0  0  0  0  0  0  0  0  0  0  0
   43.9090   33.9380   39.9190 C   0  0  1  0  0  0  0  0  0  0  0  0
   46.0920   34.0380   40.4330 H   0  0  0  0  0  0  0  0  0  0  0  0
   43.7760   32.2420   41.4510 H   0  0  0  0  0  0  0  0  0  0  0  0
   44.9110   31.9240   40.0580 H   0  0  0  0  0  0  0  0  0  0  0  0
   44.2090   33.9610   38.8180 H   0  0  0  0  0  0  0  0  0  0  0  0
   44.9670   34.5010   42.2140 C   0  0  0  0  0  0  0  0  0  0  0  0
   45.2830   33.5770   43.2370 C   0  0  0  0  0  0  0  0  0  0  0  0
   45.2290   34.0260   44.5480 C   0  0  0  0  0  0  0  0  0  0  0  0
   44.8780   35.3210   44.7840 N   0  0  0  0  0  0  0  0  0  0  0  0
   44.5830   36.1750   43.7840 C   0  0  0  0  0  0  0  0  0  0  0  0
   44.6260   35.7710   42.4980 N   0  0  0  0  0  0  0  0  0  0  0  0
   45.5550   32.5640   43.1200 H   0  0  0  0  0  0  0  0  0  0  0  0
   45.4580   33.3790   45.3940 H   0  0  0  0  0  0  0  0  0  0  0  0
   44.3030   37.2100   44.0110 H   0  0  0  0  0  0  0  0  0  0  0  0
   42.5040   35.8470   38.3130 F   0  0  0  0  0  0  0  0  0  0  0  0
   41.8390   35.3270   39.3960 C   0  0  0  0  0  0  0  0  0  0  0  0
   42.5420   34.3960   40.1700 C   0  0  0  0  0  0  0  0  0  0  0  0
   41.7660   33.9480   41.2280 C   0  0  0  0  0  0  0  0  0  0  0  0
   42.1570   33.2210   41.9270 H   0  0  0  0  0  0  0  0  0  0  0  0
   40.4740   34.3500   41.5020 C   0  0  0  0  0  0  0  0  0  0  0  0
   39.9160   33.9640   42.3440 H   0  0  0  0  0  0  0  0  0  0  0  0
   39.8750   35.2740   40.6720 C   0  0  0  0  0  0  0  0  0  0  0  0
   40.5740   35.7740   39.5940 C   0  0  0  0  0  0  0  0  0  0  0  0
  1  4  1  6  0  0  0
  1  8  1  0  0  0  0
  2  1  1  0  0  0  0
  2  5  1  0  0  0  0
  3  7  1  6  0  0  0
  3 19  1  0  0  0  0
  3  2  1  0  0  0  0
  3  1  1  0  0  0  0
  6  2  1  0  0  0  0
  8 13  2  0  0  0  0
  8  9  1  0  0  0  0
  9 10  2  0  0  0  0
 10 11  1  0  0  0  0
 10 15  1  0  0  0  0
 12 16  1  0  0  0  0
 12 11  2  0  0  0  0
 13 12  1  0  0  0  0
 14  9  1  0  0  0  0
 17 18  1  0  0  0  0
 18 25  2  0  0  0  0
 18 19  1  0  0  0  0
 19 20  2  0  0  0  0
 20 22  1  0  0  0  0
 20 21  1  0  0  0  0
 22 23  1  0  0  0  0
 24 22  2  0  0  0  0
 25 24  1  0  0  0  0
M  END
>  <minimizedAffinity>
-4.6748991

>  <minimizedRMSD>
5.84362459

$$$$
