
 OpenBabel03252508323D

 32 34  0  0  1  0  0  0  0  0999 V2000
   45.6350   33.6990   42.8320 N   0  0  0  0  0  0  0  0  0  0  0  0
   46.3790   33.2770   41.6780 C   0  0  1  0  0  0  0  0  0  0  0  0
   46.0500   34.0370   40.4350 C   0  0  0  0  0  0  0  0  0  0  0  0
   44.6970   34.3780   40.2450 N   0  0  0  0  0  0  0  0  0  0  0  0
   43.8930   34.5910   41.3780 C   0  0  0  0  0  0  0  0  0  0  0  0
   44.7610   34.8120   42.6080 C   0  0  0  0  0  0  0  0  0  0  0  0
   46.2260   32.1900   41.5280 H   0  0  0  0  0  0  0  0  0  0  0  0
   46.6640   34.9700   40.4220 H   0  0  0  0  0  0  0  0  0  0  0  0
   46.4420   33.4290   39.5780 H   0  0  0  0  0  0  0  0  0  0  0  0
   44.2210   33.9850   39.4230 H   0  0  0  0  0  0  0  0  0  0  0  0
   43.3030   33.6640   41.5700 H   0  0  0  0  0  0  0  0  0  0  0  0
   43.1720   35.4100   41.3100 H   0  0  0  0  0  0  0  0  0  0  0  0
   45.3000   35.7640   42.4340 H   0  0  0  0  0  0  0  0  0  0  0  0
   44.0680   34.9500   43.4480 H   0  0  0  0  0  0  0  0  0  0  0  0
   46.1070   33.7660   45.1640 C   0  0  0  0  0  0  0  0  0  0  0  0
   45.8410   32.9880   44.0410 C   0  0  0  0  0  0  0  0  0  0  0  0
   45.8010   31.6160   44.2060 C   0  0  0  0  0  0  0  0  0  0  0  0
   46.0180   31.0650   45.4320 N   0  0  0  0  0  0  0  0  0  0  0  0
   46.2760   31.8570   46.5060 C   0  0  0  0  0  0  0  0  0  0  0  0
   46.3180   33.1980   46.3620 N   0  0  0  0  0  0  0  0  0  0  0  0
   46.1880   34.8360   45.2650 H   0  0  0  0  0  0  0  0  0  0  0  0
   45.5910   31.0310   43.3230 H   0  0  0  0  0  0  0  0  0  0  0  0
   46.4320   31.2990   47.4300 H   0  0  0  0  0  0  0  0  0  0  0  0
   47.4860   35.8790   42.1220 F   0  0  0  0  0  0  0  0  0  0  0  0
   48.3460   34.8200   42.1810 C   0  0  0  0  0  0  0  0  0  0  0  0
   47.8310   33.5590   41.9690 C   0  0  0  0  0  0  0  0  0  0  0  0
   48.7510   32.5460   42.0450 C   0  0  0  0  0  0  0  0  0  0  0  0
   48.4870   31.5270   41.9010 H   0  0  0  0  0  0  0  0  0  0  0  0
   50.0990   32.7510   42.3100 C   0  0  0  0  0  0  0  0  0  0  0  0
   50.8090   31.9260   42.3640 H   0  0  0  0  0  0  0  0  0  0  0  0
   50.5430   34.0440   42.5110 C   0  0  0  0  0  3  0  0  0  0  0  0
   49.6540   35.0740   42.4430 C   0  0  0  0  0  3  0  0  0  0  0  0
  1 16  1  0  0  0  0
  2  7  1  6  0  0  0
  2 26  1  0  0  0  0
  2  1  1  0  0  0  0
  3  2  1  0  0  0  0
  4  3  1  0  0  0  0
  4  5  1  0  0  0  0
  5 11  1  0  0  0  0
  5  6  1  0  0  0  0
  6  1  1  0  0  0  0
  6 14  1  0  0  0  0
  8  3  1  0  0  0  0
  9  3  1  0  0  0  0
 10  4  1  0  0  0  0
 12  5  1  0  0  0  0
 13  6  1  0  0  0  0
 15 21  1  0  0  0  0
 15 20  1  0  0  0  0
 16 17  1  0  0  0  0
 16 15  2  0  0  0  0
 17 18  2  0  0  0  0
 18 19  1  0  0  0  0
 19 23  1  0  0  0  0
 20 19  2  0  0  0  0
 22 17  1  0  0  0  0
 24 25  1  0  0  0  0
 25 32  1  0  0  0  0
 26 27  1  0  0  0  0
 26 25  2  0  0  0  0
 27 29  2  0  0  0  0
 28 27  1  0  0  0  0
 29 30  1  0  0  0  0
 29 31  1  0  0  0  0
 32 31  2  0  0  0  0
M  END
>  <minimizedAffinity>
-5.22022057

>  <minimizedRMSD>
2.34822083

$$$$
