
 OpenBabel03242518233D

 32 34  0  0  0  0  0  0  0  0999 V2000
   43.9180   35.3670   42.0360 C   0  0  0  0  0  0  0  0  0  0  0  0
   43.4050   34.7330   40.9130 C   0  0  0  0  0  0  0  0  0  0  0  0
   44.2960   34.0010   40.1150 C   0  0  0  0  0  0  0  0  0  0  0  0
   45.6150   33.9260   40.4480 N   0  0  0  0  0  0  0  0  0  0  0  0
   46.0680   34.5660   41.5570 C   0  0  0  0  0  0  0  0  0  0  0  0
   45.2410   35.2670   42.3280 N   0  0  0  0  0  0  0  0  0  0  0  0
   43.3990   35.9700   42.7620 H   0  0  0  0  0  0  0  0  0  0  0  0
   43.8900   33.5210   39.2620 H   0  0  0  0  0  0  0  0  0  0  0  0
   42.0350   34.8850   40.6600 N   0  0  0  0  0  0  0  0  0  0  0  0
   41.5820   34.7710   39.2980 C   0  0  0  0  0  0  0  0  0  0  0  0
   40.1220   35.1030   39.1460 C   0  0  0  0  0  0  0  0  0  0  0  0
   39.3090   34.3970   40.0810 N   0  0  0  0  0  0  0  0  0  0  0  0
   39.8090   34.2490   41.3970 C   0  0  0  0  0  0  0  0  0  0  0  0
   41.0120   35.1520   41.6280 C   0  0  0  0  0  0  0  0  0  0  0  0
   41.7260   33.7070   39.0140 H   0  0  0  0  0  0  0  0  0  0  0  0
   42.1740   35.4000   38.6240 H   0  0  0  0  0  0  0  0  0  0  0  0
   39.8120   34.8120   38.1190 H   0  0  0  0  0  0  0  0  0  0  0  0
   39.9820   36.1920   39.3140 H   0  0  0  0  0  0  0  0  0  0  0  0
   39.0250   33.4850   39.6550 H   0  0  0  0  0  0  0  0  0  0  0  0
   39.0070   34.5530   42.1160 H   0  0  0  0  0  0  0  0  0  0  0  0
   40.1330   33.2210   41.6720 H   0  0  0  0  0  0  0  0  0  0  0  0
   40.5960   36.1920   41.5200 H   0  0  0  0  0  0  0  0  0  0  0  0
   41.2800   35.0440   42.6720 H   0  0  0  0  0  0  0  0  0  0  0  0
   47.2100   32.2270   42.4290 F   0  0  0  0  0  0  0  0  0  0  0  0
   48.0400   33.2910   42.3180 C   0  0  0  0  0  0  0  0  0  0  0  0
   47.4980   34.4650   41.8870 C   0  0  0  0  0  0  0  0  0  0  0  0
   48.3540   35.5610   41.7740 C   0  0  0  0  0  0  0  0  0  0  0  0
   47.9440   36.5180   41.4280 H   0  0  0  0  0  0  0  0  0  0  0  0
   49.6740   35.4170   42.0910 C   0  0  0  0  0  0  0  0  0  0  0  0
   50.3700   36.2440   42.0160 H   0  0  0  0  0  0  0  0  0  0  0  0
   50.1980   34.2040   42.5290 C   0  0  0  0  0  0  0  0  0  0  0  0
   49.3640   33.1080   42.6480 C   0  0  0  0  0  0  0  0  0  0  0  0
  1  6  1  0  0  0  0
  1  7  1  0  0  0  0
  2  1  2  0  0  0  0
  3  4  2  0  0  0  0
  3  2  1  0  0  0  0
  4  5  1  0  0  0  0
  5 26  1  0  0  0  0
  5  6  2  0  0  0  0
  8  3  1  0  0  0  0
  9  2  1  0  0  0  0
  9 14  1  0  0  0  0
 10  9  1  0  0  0  0
 11 10  1  0  0  0  0
 11 18  1  0  0  0  0
 11 12  1  0  0  0  0
 12 13  1  0  0  0  0
 13 14  1  0  0  0  0
 13 21  1  0  0  0  0
 13 20  1  0  0  0  0
 14 23  1  0  0  0  0
 15 10  1  0  0  0  0
 16 10  1  0  0  0  0
 17 11  1  0  0  0  0
 19 12  1  0  0  0  0
 22 14  1  0  0  0  0
 25 24  1  0  0  0  0
 25 32  1  0  0  0  0
 26 25  2  0  0  0  0
 27 26  1  0  0  0  0
 27 29  2  0  0  0  0
 28 27  1  0  0  0  0
 29 31  1  0  0  0  0
 30 29  1  0  0  0  0
 31 32  2  0  0  0  0
M  END
>  <minimizedAffinity>
-5.54393291

>  <minimizedRMSD>
5.03193998

$$$$
