
 OpenBabel03242512303D

 38 40  0  0  1  0  0  0  0  0999 V2000
   47.1480   31.9270   47.1680 C   0  0  1  0  0  0  0  0  0  0  0  0
   47.7040   32.4150   48.5210 C   0  0  0  0  0  0  0  0  0  0  0  0
   48.8970   31.5930   48.9100 C   0  0  0  0  0  0  0  0  0  0  0  0
   48.5370   30.1510   48.8900 C   0  0  0  0  0  0  0  0  0  0  0  0
   47.9700   29.7060   47.5860 C   0  0  0  0  0  0  0  0  0  0  0  0
   46.6720   30.5220   47.3600 C   0  0  2  0  0  0  0  0  0  0  0  0
   47.9640   31.9660   46.4080 H   0  0  0  0  0  0  0  0  0  0  0  0
   46.8850   32.2570   49.2570 H   0  0  0  0  0  0  0  0  0  0  0  0
   47.9050   33.4900   48.3900 H   0  0  0  0  0  0  0  0  0  0  0  0
   49.1620   31.8830   49.9530 H   0  0  0  0  0  0  0  0  0  0  0  0
   49.7210   31.8530   48.2180 H   0  0  0  0  0  0  0  0  0  0  0  0
   49.4070   29.4930   49.1280 H   0  0  0  0  0  0  0  0  0  0  0  0
   47.7470   30.0010   49.6730 H   0  0  0  0  0  0  0  0  0  0  0  0
   47.7330   28.6350   47.5980 H   0  0  0  0  0  0  0  0  0  0  0  0
   48.6670   29.8930   46.7450 H   0  0  0  0  0  0  0  0  0  0  0  0
   46.2150   30.5330   48.4170 H   0  0  0  0  0  0  0  0  0  0  0  0
   44.7440   28.8030   48.2940 F   0  0  0  0  0  0  0  0  0  0  0  0
   44.8410   28.9880   46.9340 C   0  0  0  0  0  0  0  0  0  0  0  0
   45.8000   29.8780   46.4200 C   0  0  0  0  0  0  0  0  0  0  0  0
   45.7240   29.9090   45.0510 C   0  0  0  0  0  0  0  0  0  0  0  0
   46.4680   30.5990   44.6120 H   0  0  0  0  0  0  0  0  0  0  0  0
   44.8790   29.2170   44.2160 C   0  0  0  0  0  0  0  0  0  0  0  0
   44.9520   29.3590   43.1480 H   0  0  0  0  0  0  0  0  0  0  0  0
   43.9840   28.3770   44.8210 C   0  0  0  0  0  0  0  0  0  0  0  0
   43.9480   28.2450   46.1920 C   0  0  0  0  0  0  0  0  0  0  0  0
   46.0720   32.8640   46.7630 C   0  0  0  0  0  0  0  0  0  0  0  0
   45.1820   32.9480   47.6500 O   0  0  0  0  0  0  0  0  0  0  0  0
   44.9480   35.0830   44.1370 C   0  0  0  0  0  0  0  0  0  0  0  0
   45.9210   34.9640   43.1570 C   0  0  0  0  0  0  0  0  0  0  0  0
   47.0000   34.1110   43.3940 C   0  0  0  0  0  0  0  0  0  0  0  0
   46.9890   33.4690   44.5820 N   0  0  0  0  0  0  0  0  0  0  0  0
   46.0690   33.5770   45.5170 C   0  0  0  0  0  0  0  0  0  0  0  0
   45.0290   34.3980   45.2920 N   0  0  0  0  0  0  0  0  0  0  0  0
   43.8420   35.9510   43.9230 N   0  0  0  0  0  0  0  0  0  0  0  0
   45.7870   35.5480   42.2530 H   0  0  0  0  0  0  0  0  0  0  0  0
   47.7490   34.0150   42.6480 H   0  0  0  0  0  0  0  0  0  0  0  0
   42.9360   35.6360   43.5090 H   0  0  0  0  0  0  0  0  0  0  0  0
   44.1070   36.9150   44.2450 H   0  0  0  0  0  0  0  0  0  0  0  0
  1  7  1  6  0  0  0
  1  6  1  0  0  0  0
  1  2  1  0  0  0  0
  2  3  1  0  0  0  0
  2  8  1  0  0  0  0
  3 10  1  0  0  0  0
  4  3  1  0  0  0  0
  4 12  1  0  0  0  0
  4 13  1  0  0  0  0
  5 14  1  0  0  0  0
  5  4  1  0  0  0  0
  6  5  1  0  0  0  0
  6 16  1  1  0  0  0
  9  2  1  0  0  0  0
 11  3  1  0  0  0  0
 15  5  1  0  0  0  0
 18 17  1  0  0  0  0
 19 18  1  0  0  0  0
 19  6  1  0  0  0  0
 20 19  2  0  0  0  0
 21 20  1  0  0  0  0
 22 24  2  0  0  0  0
 22 20  1  0  0  0  0
 23 22  1  0  0  0  0
 24 25  1  0  0  0  0
 25 18  2  0  0  0  0
 26  1  1  0  0  0  0
 26 27  2  0  0  0  0
 28 33  1  0  0  0  0
 29 30  1  0  0  0  0
 29 28  2  0  0  0  0
 30 31  2  0  0  0  0
 31 32  1  0  0  0  0
 32 26  1  0  0  0  0
 33 32  2  0  0  0  0
 34 28  1  0  0  0  0
 34 38  1  0  0  0  0
 35 29  1  0  0  0  0
 36 30  1  0  0  0  0
 37 34  1  0  0  0  0
M  END
>  <minimizedAffinity>
-5.98235226

>  <minimizedRMSD>
1.47953928

$$$$
