
 OpenBabel03242522283D

 38 41  0  0  0  0  0  0  0  0999 V2000
   37.8410   27.6050   39.5960 F   0  0  0  0  0  0  0  0  0  0  0  0
   37.6340   27.7120   40.9440 C   0  0  0  0  0  0  0  0  0  0  0  0
   37.5980   28.9300   41.5390 C   0  0  0  0  0  0  0  0  0  0  0  0
   37.3080   28.9450   42.8900 C   0  0  0  0  0  0  0  0  0  0  0  0
   37.0600   27.7980   43.6090 C   0  0  0  0  0  0  0  0  0  0  0  0
   37.1170   26.6180   42.9190 C   0  0  0  0  0  0  0  0  0  0  0  0
   37.4060   26.5320   41.5890 C   0  0  0  0  0  0  0  0  0  0  0  0
   37.3150   29.9870   43.2600 H   0  0  0  0  0  0  0  0  0  0  0  0
   36.8630   28.0650   44.6130 H   0  0  0  0  0  0  0  0  0  0  0  0
   36.8250   25.9690   43.6970 H   0  0  0  0  0  0  0  0  0  0  0  0
   37.4880   25.2210   41.0070 C   0  0  0  0  0  0  0  0  0  0  0  0
   36.3390   24.6150   40.5370 C   0  0  0  0  0  0  0  0  0  0  0  0
   36.4280   23.3400   40.0390 C   0  0  0  0  0  0  0  0  0  0  0  0
   37.6320   22.6520   39.9980 C   0  0  0  0  0  0  0  0  0  0  0  0
   38.7740   23.3200   40.4890 C   0  0  0  0  0  0  0  0  0  0  0  0
   38.6950   24.5960   40.9840 C   0  0  0  0  0  0  0  0  0  0  0  0
   35.3400   24.9600   40.4930 H   0  0  0  0  0  0  0  0  0  0  0  0
   35.5680   22.7920   39.6510 H   0  0  0  0  0  0  0  0  0  0  0  0
   37.6380   21.6300   39.5920 H   0  0  0  0  0  0  0  0  0  0  0  0
   39.6330   22.6730   40.3990 H   0  0  0  0  0  0  0  0  0  0  0  0
   39.5720   24.2730   43.5450 F   0  0  0  0  0  0  0  0  0  0  0  0
   40.3870   24.7930   42.6180 C   0  0  0  0  0  0  0  0  0  0  0  0
   40.0460   24.9710   41.2560 C   0  0  0  0  0  0  0  0  0  0  0  0
   40.9760   25.5320   40.3500 C   0  0  0  0  0  0  0  0  0  0  0  0
   40.6140   25.6250   39.3340 H   0  0  0  0  0  0  0  0  0  0  0  0
   42.2120   25.8900   40.8510 C   0  0  0  0  0  0  0  0  0  0  0  0
   42.9020   26.3170   40.1320 H   0  0  0  0  0  0  0  0  0  0  0  0
   42.5440   25.7170   42.1790 C   0  0  0  0  0  3  0  0  0  0  0  0
   41.6510   25.1730   43.0760 C   0  0  0  0  0  3  0  0  0  0  0  0
   37.0750   32.0680   39.5020 C   0  0  0  0  0  0  0  0  0  0  0  0
   36.7940   30.9380   40.2850 C   0  0  0  0  0  0  0  0  0  0  0  0
   37.8090   30.1180   40.7240 C   0  0  0  0  0  0  0  0  0  0  0  0
   39.0650   30.4910   40.3420 N   0  0  0  0  0  0  0  0  0  0  0  0
   39.3230   31.5690   39.5970 C   0  0  0  0  0  0  0  0  0  0  0  0
   38.3310   32.3490   39.1810 N   0  0  0  0  0  0  0  0  0  0  0  0
   36.1150   32.5570   39.2790 H   0  0  0  0  0  0  0  0  0  0  0  0
   35.8170   30.5930   40.6170 H   0  0  0  0  0  0  0  0  0  0  0  0
   40.3180   31.8590   39.2970 H   0  0  0  0  0  0  0  0  0  0  0  0
  1  2  1  0  0  0  0
  2  3  2  0  0  0  0
  2  7  1  0  0  0  0
  3  4  1  0  0  0  0
  4  8  1  0  0  0  0
  4  5  2  0  0  0  0
  5  9  1  0  0  0  0
  6  5  1  0  0  0  0
  6 10  1  0  0  0  0
  7  6  2  0  0  0  0
 11  7  1  0  0  0  0
 12 11  2  0  0  0  0
 13 12  1  0  0  0  0
 14 13  2  0  0  0  0
 14 15  1  0  0  0  0
 15 16  2  0  0  0  0
 16 11  1  0  0  0  0
 16 23  1  0  0  0  0
 17 12  1  0  0  0  0
 18 13  1  0  0  0  0
 19 14  1  0  0  0  0
 20 15  1  0  0  0  0
 22 29  1  0  0  0  0
 22 21  1  0  0  0  0
 23 22  2  0  0  0  0
 24 26  2  0  0  0  0
 24 23  1  0  0  0  0
 25 24  1  0  0  0  0
 26 28  1  0  0  0  0
 27 26  1  0  0  0  0
 28 29  2  0  0  0  0
 30 31  1  0  0  0  0
 31 37  1  0  0  0  0
 31 32  2  0  0  0  0
 32  3  1  0  0  0  0
 33 32  1  0  0  0  0
 34 33  2  0  0  0  0
 35 30  2  0  0  0  0
 35 34  1  0  0  0  0
 36 30  1  0  0  0  0
 38 34  1  0  0  0  0
M  END
>  <minimizedAffinity>
-6.40781736

$$$$

 OpenBabel03242522283D

 38 41  0  0  0  0  0  0  0  0999 V2000
   40.0420   29.7160   40.2400 F   0  0  0  0  0  0  0  0  0  0  0  0
   39.2510   30.8280   40.1540 C   0  0  0  0  0  0  0  0  0  0  0  0
   39.6410   31.8920   39.4080 C   0  0  0  0  0  0  0  0  0  0  0  0
   38.7450   32.9400   39.3180 C   0  0  0  0  0  0  0  0  0  0  0  0
   37.5160   32.9220   39.9380 C   0  0  0  0  0  0  0  0  0  0  0  0
   37.2130   31.8030   40.6650 C   0  0  0  0  0  0  0  0  0  0  0  0
   38.0550   30.7390   40.8020 C   0  0  0  0  0  0  0  0  0  0  0  0
   39.1760   33.7450   38.6940 H   0  0  0  0  0  0  0  0  0  0  0  0
   37.0150   33.8280   39.7210 H   0  0  0  0  0  0  0  0  0  0  0  0
   36.2270   32.0590   40.9390 H   0  0  0  0  0  0  0  0  0  0  0  0
   37.6290   29.6550   41.6440 C   0  0  0  0  0  0  0  0  0  0  0  0
   38.1620   29.5330   42.9120 C   0  0  0  0  0  0  0  0  0  0  0  0
   37.7870   28.4580   43.6790 C   0  0  0  0  0  0  0  0  0  0  0  0
   36.8960   27.5020   43.2150 C   0  0  0  0  0  0  0  0  0  0  0  0
   36.3810   27.6790   41.9130 C   0  0  0  0  0  0  0  0  0  0  0  0
   36.7470   28.7520   41.1420 C   0  0  0  0  0  0  0  0  0  0  0  0
   38.8530   30.1380   43.4370 H   0  0  0  0  0  0  0  0  0  0  0  0
   38.1630   28.2900   44.6890 H   0  0  0  0  0  0  0  0  0  0  0  0
   36.6390   26.6610   43.8740 H   0  0  0  0  0  0  0  0  0  0  0  0
   35.7080   26.8670   41.6820 H   0  0  0  0  0  0  0  0  0  0  0  0
   37.9180   27.6980   38.9160 F   0  0  0  0  0  0  0  0  0  0  0  0
   36.6500   28.1270   38.8670 C   0  0  0  0  0  0  0  0  0  0  0  0
   35.9370   28.6560   39.9690 C   0  0  0  0  0  0  0  0  0  0  0  0
   34.5970   29.0860   39.8180 C   0  0  0  0  0  0  0  0  0  0  0  0
   34.1460   29.4750   40.7210 H   0  0  0  0  0  0  0  0  0  0  0  0
   34.0300   28.9640   38.5650 C   0  0  0  0  0  0  0  0  0  0  0  0
   33.0030   29.3020   38.4820 H   0  0  0  0  0  0  0  0  0  0  0  0
   34.7250   28.4490   37.4910 C   0  0  0  0  0  3  0  0  0  0  0  0
   36.0310   28.0260   37.6180 C   0  0  0  0  0  3  0  0  0  0  0  0
   43.2960   32.2540   38.5250 C   0  0  0  0  0  0  0  0  0  0  0  0
   42.0960   32.3430   39.2460 C   0  0  0  0  0  0  0  0  0  0  0  0
   40.9250   31.8390   38.7230 C   0  0  0  0  0  0  0  0  0  0  0  0
   41.0370   31.2680   37.4890 N   0  0  0  0  0  0  0  0  0  0  0  0
   42.1840   31.1890   36.8100 C   0  0  0  0  0  0  0  0  0  0  0  0
   43.3040   31.6810   37.3290 N   0  0  0  0  0  0  0  0  0  0  0  0
   44.0810   32.7190   39.1410 H   0  0  0  0  0  0  0  0  0  0  0  0
   41.9480   32.7850   40.2280 H   0  0  0  0  0  0  0  0  0  0  0  0
   42.2670   30.7370   35.8340 H   0  0  0  0  0  0  0  0  0  0  0  0
  2  1  1  0  0  0  0
  2  7  1  0  0  0  0
  3  2  2  0  0  0  0
  4  3  1  0  0  0  0
  4  5  2  0  0  0  0
  5  6  1  0  0  0  0
  6  7  2  0  0  0  0
  6 10  1  0  0  0  0
  7 11  1  0  0  0  0
  8  4  1  0  0  0  0
  9  5  1  0  0  0  0
 11 12  1  0  0  0  0
 12 17  1  0  0  0  0
 12 13  2  0  0  0  0
 13 18  1  0  0  0  0
 14 13  1  0  0  0  0
 14 19  1  0  0  0  0
 15 14  2  0  0  0  0
 16 11  2  0  0  0  0
 16 15  1  0  0  0  0
 20 15  1  0  0  0  0
 22 21  1  0  0  0  0
 22 23  1  0  0  0  0
 23 16  1  0  0  0  0
 24 23  2  0  0  0  0
 24 25  1  0  0  0  0
 26 24  1  0  0  0  0
 27 26  1  0  0  0  0
 28 29  1  0  0  0  0
 28 26  2  0  0  0  0
 29 22  2  0  0  0  0
 30 36  1  0  0  0  0
 30 31  1  0  0  0  0
 31 37  1  0  0  0  0
 32 31  2  0  0  0  0
 32  3  1  0  0  0  0
 33 32  1  0  0  0  0
 34 35  1  0  0  0  0
 34 33  2  0  0  0  0
 35 30  2  0  0  0  0
 38 34  1  0  0  0  0
M  END
>  <minimizedAffinity>
-6.39183235

$$$$

 OpenBabel03242522283D

 38 41  0  0  0  0  0  0  0  0999 V2000
   38.2480   27.6160   39.5270 F   0  0  0  0  0  0  0  0  0  0  0  0
   37.6850   27.4750   40.7650 C   0  0  0  0  0  0  0  0  0  0  0  0
   37.4490   26.2410   41.2760 C   0  0  0  0  0  0  0  0  0  0  0  0
   36.9500   26.1940   42.5630 C   0  0  0  0  0  0  0  0  0  0  0  0
   36.7050   27.3270   43.3060 C   0  0  0  0  0  0  0  0  0  0  0  0
   36.9780   28.5250   42.7050 C   0  0  0  0  0  0  0  0  0  0  0  0
   37.4630   28.6410   41.4350 C   0  0  0  0  0  0  0  0  0  0  0  0
   36.7920   25.1410   42.8640 H   0  0  0  0  0  0  0  0  0  0  0  0
   36.3300   27.0360   44.2520 H   0  0  0  0  0  0  0  0  0  0  0  0
   36.7610   29.1600   43.5180 H   0  0  0  0  0  0  0  0  0  0  0  0
   37.6490   29.9660   40.9110 C   0  0  0  0  0  0  0  0  0  0  0  0
   38.6210   30.7810   41.4580 C   0  0  0  0  0  0  0  0  0  0  0  0
   38.7440   32.0620   40.9830 C   0  0  0  0  0  0  0  0  0  0  0  0
   37.9230   32.5540   39.9790 C   0  0  0  0  0  0  0  0  0  0  0  0
   36.9490   31.6770   39.4550 C   0  0  0  0  0  0  0  0  0  0  0  0
   36.8220   30.3940   39.9210 C   0  0  0  0  0  0  0  0  0  0  0  0
   39.3270   30.6020   42.2250 H   0  0  0  0  0  0  0  0  0  0  0  0
   39.4850   32.7670   41.3620 H   0  0  0  0  0  0  0  0  0  0  0  0
   38.0670   33.5910   39.6450 H   0  0  0  0  0  0  0  0  0  0  0  0
   36.3850   32.1870   38.6900 H   0  0  0  0  0  0  0  0  0  0  0  0
   37.5140   29.9970   37.3130 F   0  0  0  0  0  0  0  0  0  0  0  0
   36.2900   29.6610   37.7400 C   0  0  0  0  0  0  0  0  0  0  0  0
   35.8410   29.7910   39.0760 C   0  0  0  0  0  0  0  0  0  0  0  0
   34.5260   29.4090   39.4310 C   0  0  0  0  0  0  0  0  0  0  0  0
   34.2830   29.5510   40.4760 H   0  0  0  0  0  0  0  0  0  0  0  0
   33.7180   28.9110   38.4290 C   0  0  0  0  0  0  0  0  0  0  0  0
   32.7160   28.6280   38.7330 H   0  0  0  0  0  0  0  0  0  0  0  0
   34.1550   28.7850   37.1270 C   0  0  0  0  0  3  0  0  0  0  0  0
   35.4330   29.1520   36.7610 C   0  0  0  0  0  3  0  0  0  0  0  0
   39.2940   23.4300   39.5550 C   0  0  0  0  0  0  0  0  0  0  0  0
   39.0530   24.5620   40.3470 C   0  0  0  0  0  0  0  0  0  0  0  0
   37.7800   25.0720   40.4740 C   0  0  0  0  0  0  0  0  0  0  0  0
   36.8130   24.3990   39.7840 N   0  0  0  0  0  0  0  0  0  0  0  0
   37.0530   23.3210   39.0330 C   0  0  0  0  0  0  0  0  0  0  0  0
   38.2870   22.8440   38.9210 N   0  0  0  0  0  0  0  0  0  0  0  0
   40.3730   23.2160   39.6110 H   0  0  0  0  0  0  0  0  0  0  0  0
   39.7820   25.1360   40.9150 H   0  0  0  0  0  0  0  0  0  0  0  0
   36.2840   22.7940   38.4890 H   0  0  0  0  0  0  0  0  0  0  0  0
  1  2  1  0  0  0  0
  2  3  2  0  0  0  0
  2  7  1  0  0  0  0
  3  4  1  0  0  0  0
  4  8  1  0  0  0  0
  4  5  2  0  0  0  0
  5  9  1  0  0  0  0
  6  5  1  0  0  0  0
  6 10  1  0  0  0  0
  7  6  2  0  0  0  0
 11  7  1  0  0  0  0
 11 12  1  0  0  0  0
 12 17  1  0  0  0  0
 13 18  1  0  0  0  0
 13 12  2  0  0  0  0
 14 13  1  0  0  0  0
 15 16  1  0  0  0  0
 15 14  2  0  0  0  0
 16 11  2  0  0  0  0
 19 14  1  0  0  0  0
 20 15  1  0  0  0  0
 21 22  1  0  0  0  0
 22 23  1  0  0  0  0
 23 24  2  0  0  0  0
 23 16  1  0  0  0  0
 24 25  1  0  0  0  0
 26 27  1  0  0  0  0
 26 24  1  0  0  0  0
 28 26  2  0  0  0  0
 29 28  1  0  0  0  0
 29 22  2  0  0  0  0
 30 36  1  0  0  0  0
 30 31  1  0  0  0  0
 31 32  2  0  0  0  0
 31 37  1  0  0  0  0
 32  3  1  0  0  0  0
 33 32  1  0  0  0  0
 34 33  2  0  0  0  0
 35 34  1  0  0  0  0
 35 30  2  0  0  0  0
 38 34  1  0  0  0  0
M  END
>  <minimizedAffinity>
-6.19184828

$$$$

 OpenBabel03242522283D

 38 41  0  0  0  0  0  0  0  0999 V2000
   39.7310   28.9090   39.6400 F   0  0  0  0  0  0  0  0  0  0  0  0
   39.2440   28.6350   40.8880 C   0  0  0  0  0  0  0  0  0  0  0  0
   39.4070   27.4050   41.4340 C   0  0  0  0  0  0  0  0  0  0  0  0
   38.9490   27.2410   42.7280 C   0  0  0  0  0  0  0  0  0  0  0  0
   38.3630   28.2620   43.4420 C   0  0  0  0  0  0  0  0  0  0  0  0
   38.2450   29.4670   42.8060 C   0  0  0  0  0  0  0  0  0  0  0  0
   38.6680   29.6920   41.5290 C   0  0  0  0  0  0  0  0  0  0  0  0
   39.1300   26.2020   43.0590 H   0  0  0  0  0  0  0  0  0  0  0  0
   38.1000   27.8960   44.4000 H   0  0  0  0  0  0  0  0  0  0  0  0
   37.8420   30.0260   43.6040 H   0  0  0  0  0  0  0  0  0  0  0  0
   38.4280   30.9930   40.9660 C   0  0  0  0  0  0  0  0  0  0  0  0
   39.2790   32.0340   41.2820 C   0  0  0  0  0  0  0  0  0  0  0  0
   39.0000   33.2820   40.7820 C   0  0  0  0  0  0  0  0  0  0  0  0
   37.8950   33.5190   39.9780 C   0  0  0  0  0  0  0  0  0  0  0  0
   37.0620   32.4170   39.6860 C   0  0  0  0  0  0  0  0  0  0  0  0
   37.3360   31.1670   40.1780 C   0  0  0  0  0  0  0  0  0  0  0  0
   40.1530   32.0620   41.8770 H   0  0  0  0  0  0  0  0  0  0  0  0
   39.6210   34.1550   40.9850 H   0  0  0  0  0  0  0  0  0  0  0  0
   37.7220   34.5410   39.6130 H   0  0  0  0  0  0  0  0  0  0  0  0
   36.2460   32.7430   39.0590 H   0  0  0  0  0  0  0  0  0  0  0  0
   37.6780   30.5860   37.5360 F   0  0  0  0  0  0  0  0  0  0  0  0
   36.6180   30.1030   38.1960 C   0  0  0  0  0  0  0  0  0  0  0  0
   36.3640   30.3130   39.5730 C   0  0  0  0  0  0  0  0  0  0  0  0
   35.2130   29.7610   40.1820 C   0  0  0  0  0  0  0  0  0  0  0  0
   35.1130   29.9830   41.2370 H   0  0  0  0  0  0  0  0  0  0  0  0
   34.3660   29.0190   39.3830 C   0  0  0  0  0  0  0  0  0  0  0  0
   33.4930   28.6100   39.8790 H   0  0  0  0  0  0  0  0  0  0  0  0
   34.6130   28.8150   38.0410 C   0  0  0  0  0  3  0  0  0  0  0  0
   35.7290   29.3450   37.4290 C   0  0  0  0  0  3  0  0  0  0  0  0
   42.0350   25.1790   39.8830 C   0  0  0  0  0  0  0  0  0  0  0  0
   41.4520   26.1940   40.6550 C   0  0  0  0  0  0  0  0  0  0  0  0
   40.0860   26.3760   40.6610 C   0  0  0  0  0  0  0  0  0  0  0  0
   39.3810   25.5090   39.8770 N   0  0  0  0  0  0  0  0  0  0  0  0
   39.9460   24.5450   39.1450 C   0  0  0  0  0  0  0  0  0  0  0  0
   41.2650   24.3850   39.1510 N   0  0  0  0  0  0  0  0  0  0  0  0
   43.1230   25.2320   40.0420 H   0  0  0  0  0  0  0  0  0  0  0  0
   41.9620   26.9110   41.2950 H   0  0  0  0  0  0  0  0  0  0  0  0
   39.3830   23.8630   38.5270 H   0  0  0  0  0  0  0  0  0  0  0  0
  1  2  1  0  0  0  0
  2  3  2  0  0  0  0
  2  7  1  0  0  0  0
  3  4  1  0  0  0  0
  4  8  1  0  0  0  0
  4  5  2  0  0  0  0
  5  9  1  0  0  0  0
  6  5  1  0  0  0  0
  6 10  1  0  0  0  0
  7  6  2  0  0  0  0
 11 12  1  0  0  0  0
 11  7  1  0  0  0  0
 12 17  1  0  0  0  0
 13 18  1  0  0  0  0
 13 12  2  0  0  0  0
 14 13  1  0  0  0  0
 15 14  2  0  0  0  0
 15 16  1  0  0  0  0
 16 11  2  0  0  0  0
 19 14  1  0  0  0  0
 20 15  1  0  0  0  0
 21 22  1  0  0  0  0
 22 23  1  0  0  0  0
 23 16  1  0  0  0  0
 23 24  2  0  0  0  0
 24 25  1  0  0  0  0
 26 27  1  0  0  0  0
 26 24  1  0  0  0  0
 28 26  2  0  0  0  0
 29 28  1  0  0  0  0
 29 22  2  0  0  0  0
 30 36  1  0  0  0  0
 30 31  1  0  0  0  0
 31 32  2  0  0  0  0
 31 37  1  0  0  0  0
 32  3  1  0  0  0  0
 33 32  1  0  0  0  0
 34 35  1  0  0  0  0
 34 33  2  0  0  0  0
 35 30  2  0  0  0  0
 38 34  1  0  0  0  0
M  END
>  <minimizedAffinity>
-6.18653393

$$$$

 OpenBabel03242522283D

 38 41  0  0  0  0  0  0  0  0999 V2000
   39.5230   26.9010   40.8330 F   0  0  0  0  0  0  0  0  0  0  0  0
   38.5590   27.2520   41.7370 C   0  0  0  0  0  0  0  0  0  0  0  0
   37.4760   26.4610   41.9300 C   0  0  0  0  0  0  0  0  0  0  0  0
   36.5930   26.8560   42.9170 C   0  0  0  0  0  0  0  0  0  0  0  0
   36.7900   27.9860   43.6790 C   0  0  0  0  0  0  0  0  0  0  0  0
   37.9140   28.7170   43.4120 C   0  0  0  0  0  0  0  0  0  0  0  0
   38.8200   28.3880   42.4470 C   0  0  0  0  0  0  0  0  0  0  0  0
   35.7530   26.1400   42.9740 H   0  0  0  0  0  0  0  0  0  0  0  0
   35.9870   28.0750   44.3630 H   0  0  0  0  0  0  0  0  0  0  0  0
   37.8140   29.4390   44.1740 H   0  0  0  0  0  0  0  0  0  0  0  0
   39.9260   29.2810   42.2360 C   0  0  0  0  0  0  0  0  0  0  0  0
   41.1070   29.0680   42.9200 C   0  0  0  0  0  0  0  0  0  0  0  0
   42.1320   29.9640   42.7510 C   0  0  0  0  0  0  0  0  0  0  0  0
   42.0100   31.0690   41.9200 C   0  0  0  0  0  0  0  0  0  0  0  0
   40.7810   31.2350   41.2460 C   0  0  0  0  0  0  0  0  0  0  0  0
   39.7540   30.3420   41.4050 C   0  0  0  0  0  0  0  0  0  0  0  0
   41.3910   28.3060   43.5970 H   0  0  0  0  0  0  0  0  0  0  0  0
   43.0950   29.8680   43.2540 H   0  0  0  0  0  0  0  0  0  0  0  0
   42.8650   31.7540   41.8310 H   0  0  0  0  0  0  0  0  0  0  0  0
   40.8250   32.1280   40.6410 H   0  0  0  0  0  0  0  0  0  0  0  0
   39.7370   29.1350   38.9600 F   0  0  0  0  0  0  0  0  0  0  0  0
   38.8510   30.1010   39.2370 C   0  0  0  0  0  0  0  0  0  0  0  0
   38.7500   30.7660   40.4830 C   0  0  0  0  0  0  0  0  0  0  0  0
   37.7800   31.7770   40.6800 C   0  0  0  0  0  0  0  0  0  0  0  0
   37.7890   32.2220   41.6660 H   0  0  0  0  0  0  0  0  0  0  0  0
   36.9510   32.0760   39.6170 C   0  0  0  0  0  0  0  0  0  0  0  0
   36.2190   32.8550   39.7990 H   0  0  0  0  0  0  0  0  0  0  0  0
   37.0500   31.4280   38.4030 C   0  0  0  0  0  3  0  0  0  0  0  0
   37.9890   30.4410   38.1920 C   0  0  0  0  0  3  0  0  0  0  0  0
   37.7240   22.9050   40.6790 C   0  0  0  0  0  0  0  0  0  0  0  0
   37.8960   24.0340   41.4930 C   0  0  0  0  0  0  0  0  0  0  0  0
   37.3430   25.2450   41.1390 C   0  0  0  0  0  0  0  0  0  0  0  0
   36.6390   25.2440   39.9700 N   0  0  0  0  0  0  0  0  0  0  0  0
   36.4810   24.1630   39.2020 C   0  0  0  0  0  0  0  0  0  0  0  0
   37.0220   23.0030   39.5580 N   0  0  0  0  0  0  0  0  0  0  0  0
   38.2510   22.0690   41.1650 H   0  0  0  0  0  0  0  0  0  0  0  0
   38.4450   24.0940   42.4300 H   0  0  0  0  0  0  0  0  0  0  0  0
   35.9240   24.1680   38.2780 H   0  0  0  0  0  0  0  0  0  0  0  0
  1  2  1  0  0  0  0
  2  3  2  0  0  0  0
  2  7  1  0  0  0  0
  3  4  1  0  0  0  0
  4  8  1  0  0  0  0
  4  5  2  0  0  0  0
  5  9  1  0  0  0  0
  6  5  1  0  0  0  0
  6 10  1  0  0  0  0
  7  6  2  0  0  0  0
 11  7  1  0  0  0  0
 11 12  1  0  0  0  0
 12 17  1  0  0  0  0
 13 12  2  0  0  0  0
 13 18  1  0  0  0  0
 14 13  1  0  0  0  0
 15 16  1  0  0  0  0
 15 14  2  0  0  0  0
 16 11  2  0  0  0  0
 19 14  1  0  0  0  0
 20 15  1  0  0  0  0
 21 22  1  0  0  0  0
 22 23  1  0  0  0  0
 23 24  2  0  0  0  0
 23 16  1  0  0  0  0
 24 25  1  0  0  0  0
 26 27  1  0  0  0  0
 26 24  1  0  0  0  0
 28 26  2  0  0  0  0
 29 28  1  0  0  0  0
 29 22  2  0  0  0  0
 30 36  1  0  0  0  0
 30 31  1  0  0  0  0
 31 37  1  0  0  0  0
 32 31  2  0  0  0  0
 32  3  1  0  0  0  0
 33 32  1  0  0  0  0
 34 35  1  0  0  0  0
 34 33  2  0  0  0  0
 35 30  2  0  0  0  0
 38 34  1  0  0  0  0
M  END
>  <minimizedAffinity>
-6.1592226

$$$$

 OpenBabel03242522283D

 38 41  0  0  0  0  0  0  0  0999 V2000
   38.8470   28.5050   38.7060 F   0  0  0  0  0  0  0  0  0  0  0  0
   37.8460   29.1630   39.3650 C   0  0  0  0  0  0  0  0  0  0  0  0
   37.9370   30.4950   39.5990 C   0  0  0  0  0  0  0  0  0  0  0  0
   36.8450   31.0890   40.2030 C   0  0  0  0  0  0  0  0  0  0  0  0
   35.7140   30.3850   40.5500 C   0  0  0  0  0  0  0  0  0  0  0  0
   35.7160   29.0460   40.2710 C   0  0  0  0  0  0  0  0  0  0  0  0
   36.7640   28.3970   39.6860 C   0  0  0  0  0  0  0  0  0  0  0  0
   37.0400   32.1680   40.3470 H   0  0  0  0  0  0  0  0  0  0  0  0
   35.0230   31.0530   40.9920 H   0  0  0  0  0  0  0  0  0  0  0  0
   34.7330   28.8210   40.5780 H   0  0  0  0  0  0  0  0  0  0  0  0
   36.6510   26.9750   39.5040 C   0  0  0  0  0  0  0  0  0  0  0  0
   35.8430   26.4830   38.4980 C   0  0  0  0  0  0  0  0  0  0  0  0
   35.7020   25.1240   38.3780 C   0  0  0  0  0  0  0  0  0  0  0  0
   36.3430   24.2420   39.2360 C   0  0  0  0  0  0  0  0  0  0  0  0
   37.1580   24.8010   40.2440 C   0  0  0  0  0  0  0  0  0  0  0  0
   37.3080   26.1580   40.3680 C   0  0  0  0  0  0  0  0  0  0  0  0
   35.2690   26.9800   37.7620 H   0  0  0  0  0  0  0  0  0  0  0  0
   35.0820   24.6560   37.6110 H   0  0  0  0  0  0  0  0  0  0  0  0
   36.1860   23.1640   39.0920 H   0  0  0  0  0  0  0  0  0  0  0  0
   37.5890   24.0070   40.8340 H   0  0  0  0  0  0  0  0  0  0  0  0
   36.4210   27.0700   42.7790 F   0  0  0  0  0  0  0  0  0  0  0  0
   37.7260   26.8350   42.5910 C   0  0  0  0  0  0  0  0  0  0  0  0
   38.2870   26.3280   41.3940 C   0  0  0  0  0  0  0  0  0  0  0  0
   39.6810   26.1130   41.2890 C   0  0  0  0  0  0  0  0  0  0  0  0
   40.0060   25.7260   40.3330 H   0  0  0  0  0  0  0  0  0  0  0  0
   40.4530   26.4160   42.3930 C   0  0  0  0  0  0  0  0  0  0  0  0
   41.5180   26.2400   42.2810 H   0  0  0  0  0  0  0  0  0  0  0  0
   39.9070   26.9100   43.5590 C   0  0  0  0  0  3  0  0  0  0  0  0
   38.5510   27.1270   43.6800 C   0  0  0  0  0  3  0  0  0  0  0  0
   41.2450   32.3170   39.5100 C   0  0  0  0  0  0  0  0  0  0  0  0
   40.1240   31.6360   40.0090 C   0  0  0  0  0  0  0  0  0  0  0  0
   39.1280   31.2070   39.1590 C   0  0  0  0  0  0  0  0  0  0  0  0
   39.3260   31.4950   37.8400 N   0  0  0  0  0  0  0  0  0  0  0  0
   40.3960   32.1430   37.3750 C   0  0  0  0  0  0  0  0  0  0  0  0
   41.3470   32.5500   38.2090 N   0  0  0  0  0  0  0  0  0  0  0  0
   41.8910   32.5530   40.3690 H   0  0  0  0  0  0  0  0  0  0  0  0
   39.9140   31.3820   41.0460 H   0  0  0  0  0  0  0  0  0  0  0  0
   40.5470   32.3680   36.3310 H   0  0  0  0  0  0  0  0  0  0  0  0
  1  2  1  0  0  0  0
  2  3  2  0  0  0  0
  2  7  1  0  0  0  0
  3  4  1  0  0  0  0
  4  8  1  0  0  0  0
  4  5  2  0  0  0  0
  5  9  1  0  0  0  0
  6  5  1  0  0  0  0
  6 10  1  0  0  0  0
  7  6  2  0  0  0  0
 11  7  1  0  0  0  0
 11 16  1  0  0  0  0
 12 11  2  0  0  0  0
 13 12  1  0  0  0  0
 13 14  2  0  0  0  0
 14 15  1  0  0  0  0
 15 16  2  0  0  0  0
 15 20  1  0  0  0  0
 16 23  1  0  0  0  0
 17 12  1  0  0  0  0
 18 13  1  0  0  0  0
 19 14  1  0  0  0  0
 22 21  1  0  0  0  0
 22 29  1  0  0  0  0
 23 22  2  0  0  0  0
 24 23  1  0  0  0  0
 24 26  2  0  0  0  0
 25 24  1  0  0  0  0
 26 28  1  0  0  0  0
 27 26  1  0  0  0  0
 28 29  2  0  0  0  0
 30 31  1  0  0  0  0
 30 36  1  0  0  0  0
 31 37  1  0  0  0  0
 32  3  1  0  0  0  0
 32 31  2  0  0  0  0
 33 32  1  0  0  0  0
 34 33  2  0  0  0  0
 34 35  1  0  0  0  0
 35 30  2  0  0  0  0
 38 34  1  0  0  0  0
M  END
>  <minimizedAffinity>
-6.1218915

$$$$

 OpenBabel03242522283D

 38 41  0  0  0  0  0  0  0  0999 V2000
   40.2230   31.1090   38.1660 F   0  0  0  0  0  0  0  0  0  0  0  0
   39.4230   32.0070   38.8170 C   0  0  0  0  0  0  0  0  0  0  0  0
   39.9460   33.1500   39.3260 C   0  0  0  0  0  0  0  0  0  0  0  0
   39.0510   34.0330   39.9000 C   0  0  0  0  0  0  0  0  0  0  0  0
   37.6970   33.7870   39.9550 C   0  0  0  0  0  0  0  0  0  0  0  0
   37.2660   32.6080   39.4120 C   0  0  0  0  0  0  0  0  0  0  0  0
   38.0970   31.6900   38.8400 C   0  0  0  0  0  0  0  0  0  0  0  0
   39.5940   34.9170   40.2830 H   0  0  0  0  0  0  0  0  0  0  0  0
   37.2260   34.6030   40.4350 H   0  0  0  0  0  0  0  0  0  0  0  0
   36.2290   32.7460   39.5440 H   0  0  0  0  0  0  0  0  0  0  0  0
   37.5120   30.4670   38.3610 C   0  0  0  0  0  0  0  0  0  0  0  0
   36.9530   30.4330   37.0980 C   0  0  0  0  0  0  0  0  0  0  0  0
   36.3470   29.2750   36.6820 C   0  0  0  0  0  0  0  0  0  0  0  0
   36.2830   28.1500   37.4910 C   0  0  0  0  0  0  0  0  0  0  0  0
   36.8730   28.2410   38.7700 C   0  0  0  0  0  0  0  0  0  0  0  0
   37.4840   29.3930   39.1920 C   0  0  0  0  0  0  0  0  0  0  0  0
   36.8880   31.1750   36.3460 H   0  0  0  0  0  0  0  0  0  0  0  0
   35.8830   29.1670   35.7010 H   0  0  0  0  0  0  0  0  0  0  0  0
   35.7790   27.2530   37.1020 H   0  0  0  0  0  0  0  0  0  0  0  0
   36.7480   27.3020   39.2880 H   0  0  0  0  0  0  0  0  0  0  0  0
   36.0440   30.0470   41.4130 F   0  0  0  0  0  0  0  0  0  0  0  0
   37.2480   29.4740   41.5400 C   0  0  0  0  0  0  0  0  0  0  0  0
   38.0600   29.0620   40.4560 C   0  0  0  0  0  0  0  0  0  0  0  0
   39.3210   28.4650   40.6910 C   0  0  0  0  0  0  0  0  0  0  0  0
   39.8620   28.1900   39.7950 H   0  0  0  0  0  0  0  0  0  0  0  0
   39.7110   28.3050   42.0060 C   0  0  0  0  0  0  0  0  0  0  0  0
   40.6820   27.8440   42.1520 H   0  0  0  0  0  0  0  0  0  0  0  0
   38.9200   28.7060   43.0620 C   0  0  0  0  0  3  0  0  0  0  0  0
   37.6890   29.2910   42.8530 C   0  0  0  0  0  3  0  0  0  0  0  0
   43.3430   34.1610   38.0200 C   0  0  0  0  0  0  0  0  0  0  0  0
   41.9560   33.9590   38.0780 C   0  0  0  0  0  0  0  0  0  0  0  0
   41.3750   33.3920   39.1900 C   0  0  0  0  0  0  0  0  0  0  0  0
   42.2400   33.0590   40.1920 N   0  0  0  0  0  0  0  0  0  0  0  0
   43.5590   33.2560   40.1280 C   0  0  0  0  0  0  0  0  0  0  0  0
   44.1030   33.8030   39.0470 N   0  0  0  0  0  0  0  0  0  0  0  0
   43.5650   34.6220   37.0460 H   0  0  0  0  0  0  0  0  0  0  0  0
   41.2220   34.2020   37.3130 H   0  0  0  0  0  0  0  0  0  0  0  0
   44.2380   32.9900   40.9230 H   0  0  0  0  0  0  0  0  0  0  0  0
  1  2  1  0  0  0  0
  2  7  2  0  0  0  0
  2  3  1  0  0  0  0
  3  4  2  0  0  0  0
  4  5  1  0  0  0  0
  4  8  1  0  0  0  0
  5  9  1  0  0  0  0
  6 10  1  0  0  0  0
  6  5  2  0  0  0  0
  7  6  1  0  0  0  0
 11  7  1  0  0  0  0
 11 16  1  0  0  0  0
 12 11  2  0  0  0  0
 13 12  1  0  0  0  0
 13 14  2  0  0  0  0
 14 15  1  0  0  0  0
 15 16  2  0  0  0  0
 15 20  1  0  0  0  0
 16 23  1  0  0  0  0
 17 12  1  0  0  0  0
 18 13  1  0  0  0  0
 19 14  1  0  0  0  0
 21 22  1  0  0  0  0
 22 29  1  0  0  0  0
 23 24  1  0  0  0  0
 23 22  2  0  0  0  0
 24 26  2  0  0  0  0
 25 24  1  0  0  0  0
 26 27  1  0  0  0  0
 26 28  1  0  0  0  0
 29 28  2  0  0  0  0
 30 31  2  0  0  0  0
 30 35  1  0  0  0  0
 31 32  1  0  0  0  0
 32  3  1  0  0  0  0
 32 33  2  0  0  0  0
 34 33  1  0  0  0  0
 34 38  1  0  0  0  0
 35 34  2  0  0  0  0
 36 30  1  0  0  0  0
 37 31  1  0  0  0  0
M  END
>  <minimizedAffinity>
-6.10958004

$$$$

 OpenBabel03242522283D

 38 41  0  0  0  0  0  0  0  0999 V2000
   37.9610   28.7280   38.2260 F   0  0  0  0  0  0  0  0  0  0  0  0
   36.7170   28.8990   38.7660 C   0  0  0  0  0  0  0  0  0  0  0  0
   35.6190   28.9140   37.9710 C   0  0  0  0  0  0  0  0  0  0  0  0
   34.3980   29.0150   38.6110 C   0  0  0  0  0  0  0  0  0  0  0  0
   34.2820   29.0910   39.9810 C   0  0  0  0  0  0  0  0  0  0  0  0
   35.4470   29.0650   40.6970 C   0  0  0  0  0  0  0  0  0  0  0  0
   36.6840   28.9760   40.1270 C   0  0  0  0  0  0  0  0  0  0  0  0
   33.5850   29.0250   37.8620 H   0  0  0  0  0  0  0  0  0  0  0  0
   33.2560   29.1600   40.2290 H   0  0  0  0  0  0  0  0  0  0  0  0
   35.0340   29.0680   41.6670 H   0  0  0  0  0  0  0  0  0  0  0  0
   37.8250   29.0180   41.0000 C   0  0  0  0  0  0  0  0  0  0  0  0
   38.2960   30.2390   41.4400 C   0  0  0  0  0  0  0  0  0  0  0  0
   39.4220   30.2620   42.2240 C   0  0  0  0  0  0  0  0  0  0  0  0
   40.0910   29.1000   42.5800 C   0  0  0  0  0  0  0  0  0  0  0  0
   39.5630   27.8810   42.1040 C   0  0  0  0  0  0  0  0  0  0  0  0
   38.4370   27.8490   41.3230 C   0  0  0  0  0  0  0  0  0  0  0  0
   37.9430   31.2220   41.2730 H   0  0  0  0  0  0  0  0  0  0  0  0
   39.8570   31.1840   42.6110 H   0  0  0  0  0  0  0  0  0  0  0  0
   40.9910   29.1840   43.2060 H   0  0  0  0  0  0  0  0  0  0  0  0
   40.1790   27.0660   42.4510 H   0  0  0  0  0  0  0  0  0  0  0  0
   36.6270   26.7480   43.0400 F   0  0  0  0  0  0  0  0  0  0  0  0
   37.2220   25.9850   42.1140 C   0  0  0  0  0  0  0  0  0  0  0  0
   38.1460   26.4610   41.1530 C   0  0  0  0  0  0  0  0  0  0  0  0
   38.7240   25.5750   40.2130 C   0  0  0  0  0  0  0  0  0  0  0  0
   39.4180   26.0400   39.5250 H   0  0  0  0  0  0  0  0  0  0  0  0
   38.3470   24.2490   40.2770 C   0  0  0  0  0  0  0  0  0  0  0  0
   38.8070   23.5960   39.5440 H   0  0  0  0  0  0  0  0  0  0  0  0
   37.4460   23.7850   41.2140 C   0  0  0  0  0  3  0  0  0  0  0  0
   36.8740   24.6320   42.1380 C   0  0  0  0  0  3  0  0  0  0  0  0
   36.3940   29.5610   34.3310 C   0  0  0  0  0  0  0  0  0  0  0  0
   36.2560   29.7740   35.7110 C   0  0  0  0  0  0  0  0  0  0  0  0
   35.7890   28.7710   36.5320 C   0  0  0  0  0  0  0  0  0  0  0  0
   35.4850   27.5990   35.9040 N   0  0  0  0  0  0  0  0  0  0  0  0
   35.6200   27.4060   34.5890 C   0  0  0  0  0  0  0  0  0  0  0  0
   36.0720   28.3840   33.8120 N   0  0  0  0  0  0  0  0  0  0  0  0
   36.7800   30.4940   33.8940 H   0  0  0  0  0  0  0  0  0  0  0  0
   36.4810   30.6830   36.2630 H   0  0  0  0  0  0  0  0  0  0  0  0
   35.3780   26.4760   34.0980 H   0  0  0  0  0  0  0  0  0  0  0  0
  1  2  1  0  0  0  0
  2  7  1  0  0  0  0
  3  4  1  0  0  0  0
  3  2  2  0  0  0  0
  4  5  2  0  0  0  0
  5  9  1  0  0  0  0
  5  6  1  0  0  0  0
  6 10  1  0  0  0  0
  7  6  2  0  0  0  0
  7 11  1  0  0  0  0
  8  4  1  0  0  0  0
 11 16  2  0  0  0  0
 11 12  1  0  0  0  0
 12 13  2  0  0  0  0
 13 14  1  0  0  0  0
 13 18  1  0  0  0  0
 14 19  1  0  0  0  0
 15 20  1  0  0  0  0
 15 14  2  0  0  0  0
 16 15  1  0  0  0  0
 17 12  1  0  0  0  0
 22 29  1  0  0  0  0
 22 21  1  0  0  0  0
 23 16  1  0  0  0  0
 23 22  2  0  0  0  0
 24 26  2  0  0  0  0
 24 23  1  0  0  0  0
 25 24  1  0  0  0  0
 26 28  1  0  0  0  0
 27 26  1  0  0  0  0
 28 29  2  0  0  0  0
 30 31  1  0  0  0  0
 31 37  1  0  0  0  0
 31 32  2  0  0  0  0
 32  3  1  0  0  0  0
 33 32  1  0  0  0  0
 34 33  2  0  0  0  0
 35 30  2  0  0  0  0
 35 34  1  0  0  0  0
 36 30  1  0  0  0  0
 38 34  1  0  0  0  0
M  END
>  <minimizedAffinity>
-6.02172232

$$$$

 OpenBabel03242522283D

 38 41  0  0  0  0  0  0  0  0999 V2000
   39.5290   27.4070   40.3740 F   0  0  0  0  0  0  0  0  0  0  0  0
   38.6420   27.4780   41.4120 C   0  0  0  0  0  0  0  0  0  0  0  0
   39.0680   27.3270   42.6910 C   0  0  0  0  0  0  0  0  0  0  0  0
   38.1160   27.4890   43.6790 C   0  0  0  0  0  0  0  0  0  0  0  0
   36.8020   27.7930   43.4010 C   0  0  0  0  0  0  0  0  0  0  0  0
   36.4700   27.9280   42.0810 C   0  0  0  0  0  0  0  0  0  0  0  0
   37.3590   27.7720   41.0580 C   0  0  0  0  0  0  0  0  0  0  0  0
   38.5790   27.3350   44.6710 H   0  0  0  0  0  0  0  0  0  0  0  0
   36.2730   27.8670   44.3140 H   0  0  0  0  0  0  0  0  0  0  0  0
   35.4630   28.2160   42.2030 H   0  0  0  0  0  0  0  0  0  0  0  0
   36.8570   27.8860   39.7160 C   0  0  0  0  0  0  0  0  0  0  0  0
   36.2530   26.7940   39.1240 C   0  0  0  0  0  0  0  0  0  0  0  0
   35.8340   26.9040   37.8220 C   0  0  0  0  0  0  0  0  0  0  0  0
   36.0030   28.0730   37.0940 C   0  0  0  0  0  0  0  0  0  0  0  0
   36.6250   29.1570   37.7500 C   0  0  0  0  0  0  0  0  0  0  0  0
   37.0420   29.0570   39.0520 C   0  0  0  0  0  0  0  0  0  0  0  0
   36.0450   25.8270   39.4980 H   0  0  0  0  0  0  0  0  0  0  0  0
   35.3490   26.0890   37.2830 H   0  0  0  0  0  0  0  0  0  0  0  0
   35.6510   28.0970   36.0530 H   0  0  0  0  0  0  0  0  0  0  0  0
   36.6930   29.9930   37.0710 H   0  0  0  0  0  0  0  0  0  0  0  0
   39.6620   29.6310   38.5570 F   0  0  0  0  0  0  0  0  0  0  0  0
   38.8710   30.5480   39.1280 C   0  0  0  0  0  0  0  0  0  0  0  0
   37.4930   30.3680   39.3960 C   0  0  0  0  0  0  0  0  0  0  0  0
   36.7390   31.3990   40.0050 C   0  0  0  0  0  0  0  0  0  0  0  0
   35.6960   31.1570   40.1670 H   0  0  0  0  0  0  0  0  0  0  0  0
   37.4020   32.5680   40.3190 C   0  0  0  0  0  0  0  0  0  0  0  0
   36.7970   33.3380   40.7850 H   0  0  0  0  0  0  0  0  0  0  0  0
   38.7450   32.7440   40.0590 C   0  0  0  0  0  3  0  0  0  0  0  0
   39.4960   31.7510   39.4670 C   0  0  0  0  0  3  0  0  0  0  0  0
   42.7750   27.7180   43.3060 C   0  0  0  0  0  0  0  0  0  0  0  0
   41.4320   28.0490   43.0700 C   0  0  0  0  0  0  0  0  0  0  0  0
   40.4790   27.0640   42.9360 C   0  0  0  0  0  0  0  0  0  0  0  0
   40.9440   25.7860   43.0510 N   0  0  0  0  0  0  0  0  0  0  0  0
   42.2240   25.4810   43.2760 C   0  0  0  0  0  0  0  0  0  0  0  0
   43.1300   26.4440   43.4020 N   0  0  0  0  0  0  0  0  0  0  0  0
   43.3360   28.6620   43.3750 H   0  0  0  0  0  0  0  0  0  0  0  0
   41.0070   29.0450   42.9690 H   0  0  0  0  0  0  0  0  0  0  0  0
   42.5860   24.4680   43.3650 H   0  0  0  0  0  0  0  0  0  0  0  0
  1  2  1  0  0  0  0
  2  3  1  0  0  0  0
  3 32  1  0  0  0  0
  3  4  2  0  0  0  0
  4  8  1  0  0  0  0
  5  4  1  0  0  0  0
  5  9  1  0  0  0  0
  6 10  1  0  0  0  0
  6  5  2  0  0  0  0
  7  2  2  0  0  0  0
  7  6  1  0  0  0  0
 11  7  1  0  0  0  0
 12 17  1  0  0  0  0
 12 11  1  0  0  0  0
 13 12  2  0  0  0  0
 14 15  2  0  0  0  0
 14 13  1  0  0  0  0
 15 16  1  0  0  0  0
 16 23  1  0  0  0  0
 16 11  2  0  0  0  0
 18 13  1  0  0  0  0
 19 14  1  0  0  0  0
 20 15  1  0  0  0  0
 21 22  1  0  0  0  0
 22 23  2  0  0  0  0
 22 29  1  0  0  0  0
 23 24  1  0  0  0  0
 24 25  1  0  0  0  0
 24 26  2  0  0  0  0
 26 27  1  0  0  0  0
 28 26  1  0  0  0  0
 29 28  2  0  0  0  0
 30 36  1  0  0  0  0
 30 35  1  0  0  0  0
 31 30  2  0  0  0  0
 32 33  2  0  0  0  0
 32 31  1  0  0  0  0
 33 34  1  0  0  0  0
 34 38  1  0  0  0  0
 34 35  2  0  0  0  0
 37 31  1  0  0  0  0
M  END
>  <minimizedAffinity>
-6.01897287

$$$$
