
 OpenBabel03252507083D

 24 25  0  0  0  0  0  0  0  0999 V2000
   44.6160   35.6300   44.8420 C   0  0  0  0  0  0  0  0  0  0  0  0
   45.2020   35.8090   43.5660 C   0  0  0  0  0  0  0  0  0  0  0  0
   46.1580   34.8750   43.1700 C   0  0  0  0  0  0  0  0  0  0  0  0
   46.4810   33.8580   44.0040 N   0  0  0  0  0  0  0  0  0  0  0  0
   45.9090   33.7130   45.2110 C   0  0  0  0  0  0  0  0  0  0  0  0
   44.9800   34.5890   45.6400 N   0  0  0  0  0  0  0  0  0  0  0  0
   43.8630   36.3570   45.1650 H   0  0  0  0  0  0  0  0  0  0  0  0
   44.9260   36.6260   42.9210 H   0  0  0  0  0  0  0  0  0  0  0  0
   45.3640   31.0140   44.4930 F   0  0  0  0  0  0  0  0  0  0  0  0
   46.0500   31.2730   45.6500 C   0  0  0  0  0  0  0  0  0  0  0  0
   46.3320   32.5810   46.0280 C   0  0  0  0  0  0  0  0  0  0  0  0
   47.0240   32.8400   47.1930 C   0  0  0  0  0  0  0  0  0  0  0  0
   47.2600   33.8530   47.5170 H   0  0  0  0  0  0  0  0  0  0  0  0
   47.4460   31.7910   48.0020 C   0  0  0  0  0  0  0  0  0  0  0  0
   47.9940   32.0370   48.9210 H   0  0  0  0  0  0  0  0  0  0  0  0
   47.1760   30.4780   47.6440 C   0  0  0  0  0  3  0  0  0  0  0  0
   46.4750   30.2180   46.4620 C   0  0  0  0  0  3  0  0  0  0  0  0
   46.7330   35.0550   41.9090 O   0  0  0  0  0  0  0  0  0  0  0  0
   48.5300   33.3080   41.0670 O   0  0  0  0  0  0  0  0  0  0  0  0
   48.3980   34.6930   41.6900 P   0  0  0  0  0  0  0  0  0  0  0  0
   49.1000   35.8780   40.7470 O   0  0  0  0  0  0  0  0  0  0  0  0
   49.9310   36.1620   41.1690 H   0  0  0  0  0  0  0  0  0  0  0  0
   49.1110   34.6100   43.2340 O   0  0  0  0  0  0  0  0  0  0  0  0
   49.2530   35.5750   43.4860 H   0  0  0  0  0  0  0  0  0  0  0  0
  1  7  1  0  0  0  0
  1  6  1  0  0  0  0
  2  1  2  0  0  0  0
  3  2  1  0  0  0  0
  3  4  2  0  0  0  0
  4  5  1  0  0  0  0
  5  6  2  0  0  0  0
  5 11  1  0  0  0  0
  8  2  1  0  0  0  0
  9 10  1  0  0  0  0
 10 11  2  0  0  0  0
 10 17  1  0  0  0  0
 11 12  1  0  0  0  0
 12 13  1  0  0  0  0
 12 14  2  0  0  0  0
 14 15  1  0  0  0  0
 16 14  1  0  0  0  0
 17 16  2  0  0  0  0
 18  3  1  0  0  0  0
 19 20  2  0  0  0  0
 20 18  1  0  0  0  0
 20 23  1  0  0  0  0
 21 22  1  0  0  0  0
 21 20  1  0  0  0  0
 23 24  1  0  0  0  0
M  END
>  <minimizedAffinity>
-5.63292837

>  <minimizedRMSD>
0.497965962

$$$$
