REMARK  Name = 
REMARK  5 active torsions:
REMARK  status: ('A' for Active; 'I' for Inactive)
REMARK    1  A    between atoms: C_3  and  O_7
REMARK    2  A    between atoms: C_5  and  C_18
REMARK    3  A    between atoms: O_7  and  P_9
REMARK    4  A    between atoms: P_9  and  O_10
REMARK    5  A    between atoms: P_9  and  O_11
REMARK                            x       y       z     vdW  Elec       q    Type
REMARK                         _______ _______ _______ _____ _____    ______ ____
ROOT
ATOM      1  C   UNL     1      44.587  35.998  44.517  0.00  0.00    +0.000 A 
ATOM      2  C   UNL     1      45.222  36.005  43.252  0.00  0.00    +0.000 A 
ATOM      3  C   UNL     1      46.090  34.951  42.971  0.00  0.00    +0.000 A 
ATOM      4  N   UNL     1      46.286  33.985  43.900  0.00  0.00    +0.000 NA
ATOM      5  C   UNL     1      45.670  34.004  45.094  0.00  0.00    +0.000 A 
ATOM      6  N   UNL     1      44.823  35.001  45.413  0.00  0.00    +0.000 NA
ATOM      7  H   UNL     1      43.903  36.821  44.749  0.00  0.00    +0.000 HD
ATOM      8  H   UNL     1      45.048  36.785  42.530  0.00  0.00    +0.000 HD
ENDROOT
BRANCH   5  11
ATOM      9  F   UNL     1      45.731  31.278  44.279  0.00  0.00    +0.000 F 
ATOM     10  C   UNL     1      45.977  31.590  45.590  0.00  0.00    +0.000 A 
ATOM     11  C   UNL     1      45.955  32.913  46.019  0.00  0.00    +0.000 A 
ATOM     12  C   UNL     1      46.203  33.225  47.340  0.00  0.00    +0.000 A 
ATOM     13  H   UNL     1      46.193  34.251  47.707  0.00  0.00    +0.000 HD
ATOM     14  C   UNL     1      46.479  32.216  48.256  0.00  0.00    +0.000 A 
ATOM     15  H   UNL     1      46.672  32.505  49.297  0.00  0.00    +0.000 HD
ATOM     16  C   UNL     1      46.507  30.890  47.849  0.00  0.00    +0.000 A 
ATOM     17  C   UNL     1      46.255  30.576  46.510  0.00  0.00    +0.000 A 
ENDBRANCH   5  11
BRANCH   3  18
ATOM     18  O   UNL     1      46.714  34.961  41.721  0.00  0.00    +0.000 OA
BRANCH  18  20
ATOM     19  O   UNL     1      48.658  33.331  40.978  0.00  0.00    +0.000 OA
ATOM     20  P   UNL     1      48.407  34.686  41.629  0.00  0.00    +0.000 P 
BRANCH  20  21
ATOM     21  O   UNL     1      49.123  35.935  40.783  0.00  0.00    +0.000 OA
ATOM     22  H   UNL     1      49.901  36.243  41.281  0.00  0.00    +0.000 HD
ENDBRANCH  20  21
BRANCH  20  23
ATOM     23  O   UNL     1      48.996  34.585  43.224  0.00  0.00    +0.000 OA
ATOM     24  H   UNL     1      49.069  35.546  43.515  0.00  0.00    +0.000 HD
ENDBRANCH  20  23
ENDBRANCH  18  20
ENDBRANCH   3  18
TORSDOF 5
