
 OpenBabel03242518433D

 19 20  0  0  0  0  0  0  0  0999 V2000
   44.8310   35.0060   45.5780 C   0  0  0  0  0  0  0  0  0  0  0  0
   44.4260   36.0530   44.7360 C   0  0  0  0  0  0  0  0  0  0  0  0
   44.9990   36.0950   43.4410 C   0  0  0  0  0  0  0  0  0  0  0  0
   45.8970   35.1270   43.1030 N   0  0  0  0  0  0  0  0  0  0  0  0
   46.2480   34.1480   43.9500 C   0  0  0  0  0  0  0  0  0  0  0  0
   45.7180   34.0870   45.1810 N   0  0  0  0  0  0  0  0  0  0  0  0
   43.7090   36.8080   45.0340 H   0  0  0  0  0  0  0  0  0  0  0  0
   44.7280   36.8700   42.7550 H   0  0  0  0  0  0  0  0  0  0  0  0
   45.7510   31.3970   44.1750 F   0  0  0  0  0  0  0  0  0  0  0  0
   46.9390   31.7960   43.6460 C   0  0  0  0  0  0  0  0  0  0  0  0
   47.2200   33.1380   43.5200 C   0  0  0  0  0  0  0  0  0  0  0  0
   48.4280   33.5550   42.9830 C   0  0  0  0  0  0  0  0  0  0  0  0
   48.6110   34.6180   42.8990 H   0  0  0  0  0  0  0  0  0  0  0  0
   49.3430   32.5960   42.5770 C   0  0  0  0  0  0  0  0  0  0  0  0
   50.2790   32.9020   42.1610 H   0  0  0  0  0  0  0  0  0  0  0  0
   49.0860   31.2480   42.6930 C   0  0  0  0  0  0  0  0  0  0  0  0
   47.8750   30.8670   43.2310 C   0  0  0  0  0  0  0  0  0  0  0  0
   44.2710   34.9710   46.8320 O   0  0  0  0  0  0  0  0  0  0  0  0
   43.6750   34.1590   47.0360 H   0  0  0  0  0  0  0  0  0  0  0  0
  1 18  1  0  0  0  0
  2  7  1  0  0  0  0
  2  1  2  0  0  0  0
  3  2  1  0  0  0  0
  4  3  2  0  0  0  0
  4  5  1  0  0  0  0
  5  6  2  0  0  0  0
  6  1  1  0  0  0  0
  8  3  1  0  0  0  0
 10  9  1  0  0  0  0
 11 10  1  0  0  0  0
 11  5  1  0  0  0  0
 12 11  2  0  0  0  0
 13 12  1  0  0  0  0
 14 16  2  0  0  0  0
 14 12  1  0  0  0  0
 15 14  1  0  0  0  0
 16 17  1  0  0  0  0
 17 10  2  0  0  0  0
 18 19  1  0  0  0  0
M  END
>  <minimizedAffinity>
-4.74567604

>  <minimizedRMSD>
4.76887465

$$$$
