
     RDKit          3D

 26 27  0  0  0  0  0  0  0  0999 V2000
   44.5875   35.9981   44.5171 C   0  0  0  0  0  0  0  0  0  0  0  0
   45.2216   36.0048   43.2519 C   0  0  0  0  0  0  0  0  0  0  0  0
   46.0899   34.9507   42.9707 C   0  0  0  0  0  0  0  0  0  0  0  0
   46.2861   33.9848   43.9002 N   0  0  0  0  0  0  0  0  0  0  0  0
   45.6703   34.0039   45.0942 C   0  0  0  0  0  0  0  0  0  0  0  0
   44.8227   35.0008   45.4125 N   0  0  0  0  0  0  0  0  0  0  0  0
   46.7135   34.9612   41.7209 O   0  0  0  0  0  0  0  0  0  0  0  0
   48.6576   33.3307   40.9777 O   0  0  0  0  0  0  0  0  0  0  0  0
   48.4067   34.6864   41.6286 P   0  0  0  0  0  0  0  0  0  0  0  0
   49.1230   35.9348   40.7834 O   0  0  0  0  0  0  0  0  0  0  0  0
   48.9961   34.5849   43.2240 O   0  0  0  0  0  0  0  0  0  0  0  0
   43.9034   36.8208   44.7492 H   0  0  0  0  0  0  0  0  0  0  0  0
   45.0482   36.7851   42.5303 H   0  0  0  0  0  0  0  0  0  0  0  0
   49.9011   36.2435   41.2807 H   0  0  0  0  0  0  0  0  0  0  0  0
   49.0691   35.5458   43.5148 H   0  0  0  0  0  0  0  0  0  0  0  0
   48.1149   33.8171   46.5396 F   0  0  0  0  0  0  0  0  0  0  0  0
   47.1602   32.8495   46.7114 C   0  0  0  0  0  0  0  0  0  0  0  0
   45.9549   32.9133   46.0189 C   0  0  0  0  0  0  0  0  0  0  0  0
   44.9953   31.9379   46.1937 C   0  0  0  0  0  0  0  0  0  0  0  0
   44.0416   31.9588   45.6664 H   0  0  0  0  0  0  0  0  0  0  0  0
   45.2248   30.8794   47.0660 C   0  0  0  0  0  0  0  0  0  0  0  0
   44.4364   30.1237   47.1773 H   0  0  0  0  0  0  0  0  0  0  0  0
   46.4200   30.7972   47.7662 C   0  0  0  0  0  0  0  0  0  0  0  0
   47.3915   31.7868   47.5878 C   0  0  0  0  0  0  0  0  0  0  0  0
   46.5565   29.9542   48.4361 H   0  0  0  0  0  0  0  0  0  0  0  0
   48.3158   31.7086   48.1397 H   0  0  0  0  0  0  0  0  0  0  0  0
  1  6  2  0
  2  1  1  0
  3  2  2  0
  3  4  1  0
  4  5  2  0
  5  6  1  0
  7  3  1  0
  8  9  2  0
  9  7  1  0
  9 11  1  0
 10  9  1  0
  1 12  1  0
  2 13  1  0
 10 14  1  0
 11 15  1  0
 16 17  1  0
 17 18  2  0
 18 19  1  0
 19 20  1  0
 19 21  2  0
 21 22  1  0
 21 23  1  0
 23 24  2  0
 24 17  1  0
 23 25  1  0
 24 26  1  0
  5 18  1  0
M  ISO  6  12  14  13  14  14   3  15   3  20  15  22  16
M  END
>  <DihAtoms>  (1) 
3,4,17,16

>  <DihDeg>  (1) 
-179.99498209933952

$$$$
