
 OpenBabel03252507083D

 24 25  0  0  0  0  0  0  0  0999 V2000
   44.5250   36.0360   44.4950 C   0  0  0  0  0  0  0  0  0  0  0  0
   45.1600   35.9890   43.2310 C   0  0  0  0  0  0  0  0  0  0  0  0
   46.0560   34.9440   43.0080 C   0  0  0  0  0  0  0  0  0  0  0  0
   46.2760   34.0370   43.9900 N   0  0  0  0  0  0  0  0  0  0  0  0
   45.6600   34.1060   45.1810 C   0  0  0  0  0  0  0  0  0  0  0  0
   44.7870   35.0970   45.4450 N   0  0  0  0  0  0  0  0  0  0  0  0
   43.8200   36.8530   44.6820 H   0  0  0  0  0  0  0  0  0  0  0  0
   44.9660   36.7230   42.4670 H   0  0  0  0  0  0  0  0  0  0  0  0
   47.6140   32.0890   44.7220 F   0  0  0  0  0  0  0  0  0  0  0  0
   46.9340   32.1040   45.9110 C   0  0  0  0  0  0  0  0  0  0  0  0
   45.9730   33.0770   46.1660 C   0  0  0  0  0  0  0  0  0  0  0  0
   45.2890   33.0890   47.3640 C   0  0  0  0  0  0  0  0  0  0  0  0
   44.5310   33.8370   47.5930 H   0  0  0  0  0  0  0  0  0  0  0  0
   45.5560   32.1250   48.3300 C   0  0  0  0  0  0  0  0  0  0  0  0
   44.9910   32.1690   49.2700 H   0  0  0  0  0  0  0  0  0  0  0  0
   46.5100   31.1460   48.0970 C   0  0  0  0  0  3  0  0  0  0  0  0
   47.2020   31.1360   46.8810 C   0  0  0  0  0  3  0  0  0  0  0  0
   46.6790   34.9010   41.7590 O   0  0  0  0  0  0  0  0  0  0  0  0
   48.6320   33.2540   41.0760 O   0  0  0  0  0  0  0  0  0  0  0  0
   48.3740   34.6300   41.6790 P   0  0  0  0  0  0  0  0  0  0  0  0
   49.0860   35.8520   40.7910 O   0  0  0  0  0  0  0  0  0  0  0  0
   49.8620   36.1810   41.2790 H   0  0  0  0  0  0  0  0  0  0  0  0
   48.9610   34.5880   43.2780 O   0  0  0  0  0  0  0  0  0  0  0  0
   49.0290   35.5580   43.5350 H   0  0  0  0  0  0  0  0  0  0  0  0
  1  7  1  0  0  0  0
  1  6  1  0  0  0  0
  2  1  2  0  0  0  0
  3  2  1  0  0  0  0
  3  4  2  0  0  0  0
  4  5  1  0  0  0  0
  5  6  2  0  0  0  0
  5 11  1  0  0  0  0
  8  2  1  0  0  0  0
  9 10  1  0  0  0  0
 10 11  2  0  0  0  0
 10 17  1  0  0  0  0
 11 12  1  0  0  0  0
 12 13  1  0  0  0  0
 12 14  2  0  0  0  0
 14 15  1  0  0  0  0
 16 14  1  0  0  0  0
 17 16  2  0  0  0  0
 18  3  1  0  0  0  0
 19 20  2  0  0  0  0
 20 18  1  0  0  0  0
 20 23  1  0  0  0  0
 21 22  1  0  0  0  0
 21 20  1  0  0  0  0
 23 24  1  0  0  0  0
M  END
>  <minimizedAffinity>
-5.99046612

>  <minimizedRMSD>
0.526640117

$$$$
