REMARK  Name = 
REMARK  9 active torsions:
REMARK  status: ('A' for Active; 'I' for Inactive)
REMARK    1  A    between atoms: O_1  and  C_2
REMARK    2  A    between atoms: O_1  and  P_10
REMARK    3  A    between atoms: C_6  and  C_7
REMARK    4  A    between atoms: C_7  and  O_8
REMARK    5  A    between atoms: P_10  and  O_11
REMARK    6  A    between atoms: P_10  and  O_12
REMARK    7  A    between atoms: O_12  and  C_13
REMARK    8  A    between atoms: C_13  and  C_16
REMARK    9  A    between atoms: C_18  and  C_38
REMARK                            x       y       z     vdW  Elec       q    Type
REMARK                         _______ _______ _______ _____ _____    ______ ____
ROOT
ATOM      1  O   UNL     1      44.739  35.355  45.002  0.00  0.00    +0.000 OA
ATOM      2  P   UNL     1      45.577  34.242  44.411  0.00  0.00    +0.000 P 
ENDROOT
BRANCH   2   3
ATOM      3  O   UNL     1      44.604  33.040  43.717  0.00  0.00    +0.000 OA
ATOM      4  H   UNL     1      43.658  33.349  43.690  0.00  0.00    +0.000 HD
ENDBRANCH   2   3
BRANCH   2   5
ATOM      5  O   UNL     1      46.573  34.906  43.247  0.00  0.00    +0.000 OA
BRANCH   5   6
ATOM      6  C   UNL     1      46.803  33.977  42.230  0.00  0.00    +0.000 C 
ATOM      7  C   UNL     1      46.076  34.411  40.954  0.00  0.00    +0.000 C 
ATOM      8  C   UNL     1      46.695  33.464  39.947  0.00  0.00    +0.000 C 
ATOM      9  C   UNL     1      48.084  33.139  40.478  0.00  0.00    +0.000 C 
ATOM     10  C   UNL     1      48.217  33.964  41.739  0.00  0.00    +0.000 C 
ATOM     11  H   UNL     1      46.449  32.975  42.459  0.00  0.00    +0.000 HD
ATOM     12  H   UNL     1      46.182  35.464  40.721  0.00  0.00    +0.000 HD
ATOM     13  H   UNL     1      44.982  34.184  41.058  0.00  0.00    +0.000 HD
ATOM     14  H   UNL     1      46.723  33.888  38.933  0.00  0.00    +0.000 HD
ATOM     15  H   UNL     1      46.067  32.539  39.954  0.00  0.00    +0.000 HD
ATOM     16  H   UNL     1      48.880  33.370  39.741  0.00  0.00    +0.000 HD
ATOM     17  H   UNL     1      48.103  32.063  40.798  0.00  0.00    +0.000 HD
ATOM     18  H   UNL     1      48.825  33.401  42.480  0.00  0.00    +0.000 HD
BRANCH  10  19
ATOM     19  C   UNL     1      48.759  35.338  41.459  0.00  0.00    +0.000 C 
ATOM     20  H   UNL     1      48.015  36.124  41.329  0.00  0.00    +0.000 HD
ATOM     21  H   UNL     1      49.337  35.252  40.498  0.00  0.00    +0.000 HD
BRANCH  19  22
ATOM     22  O   UNL     1      49.653  35.761  42.418  0.00  0.00    +0.000 OA
ATOM     23  H   UNL     1      50.255  35.014  42.629  0.00  0.00    +0.000 HD
ENDBRANCH  19  22
ENDBRANCH  10  19
ENDBRANCH   5   6
ENDBRANCH   2   5
BRANCH   2  24
ATOM     24  O   UNL     1      46.471  33.489  45.601  0.00  0.00    +0.000 OA
BRANCH  24  25
ATOM     25  C   UNL     1      46.217  32.157  45.574  0.00  0.00    +0.000 C 
ATOM     26  H   UNL     1      47.187  31.653  45.293  0.00  0.00    +0.000 HD
ATOM     27  H   UNL     1      45.488  31.778  44.866  0.00  0.00    +0.000 HD
BRANCH  25  30
ATOM     28  C   UNL     1      45.658  31.899  49.236  0.00  0.00    +0.000 A 
ATOM     29  C   UNL     1      45.981  32.453  47.989  0.00  0.00    +0.000 A 
ATOM     30  C   UNL     1      45.871  31.611  46.897  0.00  0.00    +0.000 A 
ATOM     31  N   UNL     1      45.466  30.324  47.080  0.00  0.00    +0.000 NA
ATOM     32  C   UNL     1      45.160  29.811  48.286  0.00  0.00    +0.000 A 
ATOM     33  N   UNL     1      45.259  30.602  49.353  0.00  0.00    +0.000 NA
ATOM     34  H   UNL     1      45.729  32.513  50.108  0.00  0.00    +0.000 HD
ATOM     35  H   UNL     1      46.291  33.478  47.949  0.00  0.00    +0.000 HD
BRANCH  32  38
ATOM     36  F   UNL     1      46.973  27.663  48.090  0.00  0.00    +0.000 F 
ATOM     37  C   UNL     1      45.672  27.408  48.312  0.00  0.00    +0.000 A 
ATOM     38  C   UNL     1      44.732  28.422  48.419  0.00  0.00    +0.000 A 
ATOM     39  C   UNL     1      43.384  28.131  48.650  0.00  0.00    +0.000 A 
ATOM     40  H   UNL     1      42.672  28.921  48.729  0.00  0.00    +0.000 HD
ATOM     41  C   UNL     1      42.942  26.814  48.781  0.00  0.00    +0.000 A 
ATOM     42  H   UNL     1      41.924  26.529  48.958  0.00  0.00    +0.000 HD
ATOM     43  C   UNL     1      43.935  25.862  48.663  0.00  0.00    +0.000 A 
ATOM     44  C   UNL     1      45.280  26.069  48.436  0.00  0.00    +0.000 A 
ENDBRANCH  32  38
ENDBRANCH  25  30
ENDBRANCH  24  25
ENDBRANCH   2  24
TORSDOF 9
