
 OpenBabel03252506183D

 23 24  0  0  0  0  0  0  0  0999 V2000
   45.0700   34.5710   44.3120 C   0  0  0  0  0  0  0  0  0  0  0  0
   44.8890   33.8600   43.1000 C   0  0  0  0  0  0  0  0  0  0  0  0
   45.1890   32.4950   43.0930 C   0  0  0  0  0  0  0  0  0  0  0  0
   45.6340   31.9190   44.2310 N   0  0  0  0  0  0  0  0  0  0  0  0
   45.7990   32.6280   45.3840 C   0  0  0  0  0  0  0  0  0  0  0  0
   45.5100   33.9380   45.3910 N   0  0  0  0  0  0  0  0  0  0  0  0
   44.5270   34.4160   42.2460 H   0  0  0  0  0  0  0  0  0  0  0  0
   45.0520   31.9630   42.1770 H   0  0  0  0  0  0  0  0  0  0  0  0
   44.8140   30.1300   46.1730 F   0  0  0  0  0  0  0  0  0  0  0  0
   45.7590   30.7410   46.9410 C   0  0  0  0  0  0  0  0  0  0  0  0
   46.2810   31.9760   46.5990 C   0  0  0  0  0  0  0  0  0  0  0  0
   47.2410   32.5940   47.3820 C   0  0  0  0  0  0  0  0  0  0  0  0
   47.6670   33.5640   47.1350 H   0  0  0  0  0  0  0  0  0  0  0  0
   47.6690   31.9350   48.5260 C   0  0  0  0  0  0  0  0  0  0  0  0
   48.4120   32.3810   49.1590 H   0  0  0  0  0  0  0  0  0  0  0  0
   47.1570   30.7080   48.8750 C   0  0  0  0  0  3  0  0  0  0  0  0
   46.2010   30.1080   48.0830 C   0  0  0  0  0  3  0  0  0  0  0  0
   44.7590   35.9930   44.3270 C   0  0  0  0  0  3  0  0  0  0  0  0
   45.3400   36.7870   43.4560 C   0  0  0  0  0  3  0  0  0  0  0  0
   45.0640   38.2470   43.4210 C   0  0  0  0  0  0  0  0  0  0  0  0
   45.4730   38.7760   44.3050 H   0  0  0  0  0  0  0  0  0  0  0  0
   45.3880   38.6910   42.4660 H   0  0  0  0  0  0  0  0  0  0  0  0
   43.9420   38.3530   43.4630 H   0  0  0  0  0  0  0  0  0  0  0  0
  1 18  1  0  0  0  0
  1  6  1  0  0  0  0
  2  1  2  0  0  0  0
  3  2  1  0  0  0  0
  3  4  2  0  0  0  0
  4  5  1  0  0  0  0
  5  6  2  0  0  0  0
  5 11  1  0  0  0  0
  7  2  1  0  0  0  0
  8  3  1  0  0  0  0
  9 10  1  0  0  0  0
 10 17  1  0  0  0  0
 11 10  2  0  0  0  0
 11 12  1  0  0  0  0
 12 14  2  0  0  0  0
 13 12  1  0  0  0  0
 14 16  1  0  0  0  0
 14 15  1  0  0  0  0
 17 16  2  0  0  0  0
 19 18  2  0  0  0  0
 20 19  1  0  0  0  0
 20 23  1  0  0  0  0
 20 21  1  0  0  0  0
 22 20  1  0  0  0  0
M  END
>  <minimizedAffinity>
-3.98801708

>  <minimizedRMSD>
2.43929744

$$$$
