
 OpenBabel03252507023D

 38 40  0  0  0  0  0  0  0  0999 V2000
   43.8520   32.8020   40.0240 C   0  0  0  0  0  0  0  0  0  0  0  0
   43.3450   31.8590   39.7730 H   0  0  0  0  0  0  0  0  0  0  0  0
   44.0000   32.7860   41.1360 H   0  0  0  0  0  0  0  0  0  0  0  0
   45.1880   32.9580   39.3890 C   0  0  0  0  0  0  0  0  0  0  0  0
   46.1070   33.8780   39.8530 C   0  0  0  0  0  0  0  0  0  0  0  0
   47.3390   33.9660   39.1870 C   0  0  0  0  0  0  0  0  0  0  0  0
   47.5660   33.1420   38.1220 N   0  0  0  0  0  0  0  0  0  0  0  0
   46.6390   32.2680   37.7170 C   0  0  0  0  0  0  0  0  0  0  0  0
   45.4670   32.1840   38.3490 N   0  0  0  0  0  0  0  0  0  0  0  0
   45.8910   34.5090   40.6940 H   0  0  0  0  0  0  0  0  0  0  0  0
   48.0860   34.6720   39.5170 H   0  0  0  0  0  0  0  0  0  0  0  0
   45.9300   29.5270   37.4160 F   0  0  0  0  0  0  0  0  0  0  0  0
   46.6460   30.1160   36.4280 C   0  0  0  0  0  0  0  0  0  0  0  0
   46.9900   31.4400   36.5700 C   0  0  0  0  0  0  0  0  0  0  0  0
   47.7140   31.9850   35.5420 C   0  0  0  0  0  0  0  0  0  0  0  0
   48.0400   33.0320   35.5530 H   0  0  0  0  0  0  0  0  0  0  0  0
   48.0900   31.2580   34.4090 C   0  0  0  0  0  0  0  0  0  0  0  0
   48.6650   31.7440   33.6240 H   0  0  0  0  0  0  0  0  0  0  0  0
   47.7260   29.9350   34.3040 C   0  0  0  0  0  3  0  0  0  0  0  0
   46.9920   29.3560   35.3310 C   0  0  0  0  0  3  0  0  0  0  0  0
   43.0400   34.0000   39.6350 C   0  0  0  0  0  0  0  0  0  0  0  0
   43.3070   34.2190   38.5490 H   0  0  0  0  0  0  0  0  0  0  0  0
   43.5230   34.8730   40.1400 H   0  0  0  0  0  0  0  0  0  0  0  0
   41.7610   33.9100   39.9800 N   0  0  0  0  0  0  0  0  0  0  0  0
   41.1520   34.2930   41.2050 C   0  0  0  0  0  0  0  0  0  0  0  0
   40.5070   35.6230   40.7290 C   0  0  0  0  0  0  0  0  0  0  0  0
   39.5130   35.4220   39.6730 C   0  0  0  0  0  0  0  0  0  0  0  0
   39.6230   34.2360   38.8220 C   0  0  0  0  0  0  0  0  0  0  0  0
   40.8530   33.3930   38.9510 C   0  0  0  0  0  0  0  0  0  0  0  0
   41.8970   34.6060   41.9570 H   0  0  0  0  0  0  0  0  0  0  0  0
   40.4140   33.6600   41.6620 H   0  0  0  0  0  0  0  0  0  0  0  0
   40.0870   36.1630   41.5920 H   0  0  0  0  0  0  0  0  0  0  0  0
   41.3580   36.2290   40.3570 H   0  0  0  0  0  0  0  0  0  0  0  0
   38.5000   35.3670   40.1640 H   0  0  0  0  0  0  0  0  0  0  0  0
   39.4400   36.3500   39.0440 H   0  0  0  0  0  0  0  0  0  0  0  0
   38.9300   33.9080   38.0950 H   0  0  0  0  0  0  0  0  0  0  0  0
   41.1320   31.9890   37.9190 S   0  0  0  0  0  0  0  0  0  0  0  0
   41.0160   32.2810   36.5500 H   0  0  0  0  0  0  0  0  0  0  0  0
  1  3  1  0  0  0  0
  2  1  1  0  0  0  0
  4  5  1  0  0  0  0
  4  1  1  0  0  0  0
  5 10  1  0  0  0  0
  6 11  1  0  0  0  0
  6  5  2  0  0  0  0
  7  6  1  0  0  0  0
  8  7  2  0  0  0  0
  8  9  1  0  0  0  0
  9  4  2  0  0  0  0
 13 14  1  0  0  0  0
 13 12  1  0  0  0  0
 14  8  1  0  0  0  0
 15 16  1  0  0  0  0
 15 14  2  0  0  0  0
 17 15  1  0  0  0  0
 18 17  1  0  0  0  0
 19 17  2  0  0  0  0
 19 20  1  0  0  0  0
 20 13  2  0  0  0  0
 21 24  1  0  0  0  0
 21  1  1  0  0  0  0
 21 23  1  0  0  0  0
 22 21  1  0  0  0  0
 24 25  1  0  0  0  0
 25 31  1  0  0  0  0
 25 30  1  0  0  0  0
 26 25  1  0  0  0  0
 26 32  1  0  0  0  0
 27 34  1  0  0  0  0
 27 26  1  0  0  0  0
 28 29  2  0  0  0  0
 28 27  1  0  0  0  0
 29 24  1  0  0  0  0
 33 26  1  0  0  0  0
 35 27  1  0  0  0  0
 36 28  1  0  0  0  0
 37 29  1  0  0  0  0
 38 37  1  0  0  0  0
M  END
>  <minimizedAffinity>
-3.65298295

>  <minimizedRMSD>
8.93546867

$$$$
