
 OpenBabel03242511543D

 34 36  0  0  1  0  0  0  0  0999 V2000
   45.2010   33.3730   41.7980 C   0  0  2  0  0  0  0  0  0  0  0  0
   44.0370   32.5520   41.4050 C   0  0  0  0  0  0  0  0  0  0  0  0
   44.3840   31.2540   40.7640 C   0  0  0  0  0  0  0  0  0  0  0  0
   45.3520   31.3940   39.6050 C   0  0  0  0  0  0  0  0  0  0  0  0
   46.4150   32.4410   39.8240 C   0  0  0  0  0  0  0  0  0  0  0  0
   46.5130   32.7850   41.2900 C   0  0  1  0  0  0  0  0  0  0  0  0
   45.0580   34.4020   41.4050 H   0  0  0  0  0  0  0  0  0  0  0  0
   43.3790   32.3160   42.2680 H   0  0  0  0  0  0  0  0  0  0  0  0
   43.3540   33.0940   40.6900 H   0  0  0  0  0  0  0  0  0  0  0  0
   43.4210   30.8670   40.3160 H   0  0  0  0  0  0  0  0  0  0  0  0
   44.7360   30.4520   41.4030 H   0  0  0  0  0  0  0  0  0  0  0  0
   45.8360   30.3980   39.4360 H   0  0  0  0  0  0  0  0  0  0  0  0
   44.7850   31.5960   38.6830 H   0  0  0  0  0  0  0  0  0  0  0  0
   47.3920   32.0600   39.5040 H   0  0  0  0  0  0  0  0  0  0  0  0
   46.1370   33.3210   39.2060 H   0  0  0  0  0  0  0  0  0  0  0  0
   46.5580   31.7970   41.8000 H   0  0  0  0  0  0  0  0  0  0  0  0
   45.3260   33.4880   43.2650 C   0  0  0  0  0  0  0  0  0  0  0  0
   45.7130   32.3170   43.9460 C   0  0  0  0  0  0  0  0  0  0  0  0
   45.8630   32.3300   45.3380 C   0  0  0  0  0  0  0  0  0  0  0  0
   45.6120   33.5320   45.9650 N   0  0  0  0  0  0  0  0  0  0  0  0
   45.2410   34.6420   45.2860 C   0  0  0  0  0  0  0  0  0  0  0  0
   45.1010   34.6120   43.9440 N   0  0  0  0  0  0  0  0  0  0  0  0
   45.9250   31.3470   43.5180 H   0  0  0  0  0  0  0  0  0  0  0  0
   46.1570   31.4570   45.9040 H   0  0  0  0  0  0  0  0  0  0  0  0
   45.0660   35.5430   45.8800 H   0  0  0  0  0  0  0  0  0  0  0  0
   48.7610   31.8320   42.7870 F   0  0  0  0  0  0  0  0  0  0  0  0
   48.7800   33.1240   42.3900 C   0  0  0  0  0  0  0  0  0  0  0  0
   47.6800   33.5610   41.6660 C   0  0  0  0  0  0  0  0  0  0  0  0
   47.7630   34.9080   41.2860 C   0  0  0  0  0  0  0  0  0  0  0  0
   46.9180   35.3130   40.7090 H   0  0  0  0  0  0  0  0  0  0  0  0
   48.7910   35.7650   41.5640 C   0  0  0  0  0  0  0  0  0  0  0  0
   48.7420   36.7910   41.2140 H   0  0  0  0  0  0  0  0  0  0  0  0
   49.8450   35.2750   42.2790 C   0  0  0  0  0  0  0  0  0  0  0  0
   49.8390   33.9590   42.6910 C   0  0  0  0  0  0  0  0  0  0  0  0
  1  7  1  6  0  0  0
  1 17  1  0  0  0  0
  2  1  1  0  0  0  0
  2  8  1  0  0  0  0
  3 11  1  0  0  0  0
  3  2  1  0  0  0  0
  4  5  1  0  0  0  0
  4  3  1  0  0  0  0
  5  6  1  0  0  0  0
  6 28  1  0  0  0  0
  6  1  1  0  0  0  0
  6 16  1  1  0  0  0
  9  2  1  0  0  0  0
 10  3  1  0  0  0  0
 12  4  1  0  0  0  0
 13  4  1  0  0  0  0
 14  5  1  0  0  0  0
 15  5  1  0  0  0  0
 17 22  2  0  0  0  0
 17 18  1  0  0  0  0
 18 19  2  0  0  0  0
 19 24  1  0  0  0  0
 19 20  1  0  0  0  0
 21 25  1  0  0  0  0
 21 20  2  0  0  0  0
 22 21  1  0  0  0  0
 23 18  1  0  0  0  0
 27 34  1  0  0  0  0
 27 26  1  0  0  0  0
 28 27  2  0  0  0  0
 29 31  2  0  0  0  0
 29 28  1  0  0  0  0
 30 29  1  0  0  0  0
 31 33  1  0  0  0  0
 32 31  1  0  0  0  0
 33 34  2  0  0  0  0
M  END
>  <minimizedAffinity>
-4.69504642

>  <minimizedRMSD>
4.79849291

$$$$
