
 OpenBabel03252506193D

 23 24  0  0  0  0  0  0  0  0999 V2000
   45.0190   34.9310   44.3800 C   0  0  0  0  0  0  0  0  0  0  0  0
   44.8650   34.2170   43.1660 C   0  0  0  0  0  0  0  0  0  0  0  0
   45.1160   32.8420   43.1820 C   0  0  0  0  0  0  0  0  0  0  0  0
   45.4900   32.2600   44.3430 N   0  0  0  0  0  0  0  0  0  0  0  0
   45.6290   32.9730   45.4970 C   0  0  0  0  0  0  0  0  0  0  0  0
   45.3880   34.2930   45.4820 N   0  0  0  0  0  0  0  0  0  0  0  0
   44.5630   34.7780   42.2930 H   0  0  0  0  0  0  0  0  0  0  0  0
   45.0000   32.3070   42.2650 H   0  0  0  0  0  0  0  0  0  0  0  0
   47.8040   31.2140   45.5560 F   0  0  0  0  0  0  0  0  0  0  0  0
   47.1170   31.4550   46.7070 C   0  0  0  0  0  0  0  0  0  0  0  0
   46.0340   32.3150   46.7360 C   0  0  0  0  0  0  0  0  0  0  0  0
   45.3370   32.5580   47.9080 C   0  0  0  0  0  0  0  0  0  0  0  0
   44.4840   33.2290   47.9580 H   0  0  0  0  0  0  0  0  0  0  0  0
   45.7600   31.9090   49.0610 C   0  0  0  0  0  0  0  0  0  0  0  0
   45.2480   32.0690   49.9890 H   0  0  0  0  0  0  0  0  0  0  0  0
   46.8350   31.0520   49.0440 C   0  0  0  0  0  3  0  0  0  0  0  0
   47.5160   30.8230   47.8660 C   0  0  0  0  0  3  0  0  0  0  0  0
   44.7600   36.3640   44.3710 C   0  0  0  0  0  3  0  0  0  0  0  0
   45.3820   37.1240   43.4980 C   0  0  0  0  0  3  0  0  0  0  0  0
   45.1590   38.5930   43.4390 C   0  0  0  0  0  0  0  0  0  0  0  0
   45.5740   39.1190   44.3230 H   0  0  0  0  0  0  0  0  0  0  0  0
   45.5130   39.0110   42.4830 H   0  0  0  0  0  0  0  0  0  0  0  0
   44.0410   38.7390   43.4630 H   0  0  0  0  0  0  0  0  0  0  0  0
  1  6  1  0  0  0  0
  2  3  1  0  0  0  0
  2  1  2  0  0  0  0
  3  4  2  0  0  0  0
  4  5  1  0  0  0  0
  5 11  1  0  0  0  0
  6  5  2  0  0  0  0
  7  2  1  0  0  0  0
  8  3  1  0  0  0  0
  9 10  1  0  0  0  0
 10 11  2  0  0  0  0
 10 17  1  0  0  0  0
 11 12  1  0  0  0  0
 12 13  1  0  0  0  0
 12 14  2  0  0  0  0
 14 15  1  0  0  0  0
 16 14  1  0  0  0  0
 17 16  2  0  0  0  0
 18  1  1  0  0  0  0
 19 18  2  0  0  0  0
 20 23  1  0  0  0  0
 20 19  1  0  0  0  0
 20 21  1  0  0  0  0
 22 20  1  0  0  0  0
M  END
>  <minimizedAffinity>
-4.29426003

>  <minimizedRMSD>
2.5927794

$$$$
