REMARK  Name = 
REMARK  5 active torsions:
REMARK  status: ('A' for Active; 'I' for Inactive)
REMARK    1  A    between atoms: C_1  and  N_2
REMARK    2  A    between atoms: C_1  and  C_9
REMARK    3  A    between atoms: C_7  and  S_8
REMARK    4  A    between atoms: C_9  and  C_10
REMARK    5  A    between atoms: C_14  and  C_32
REMARK                            x       y       z     vdW  Elec       q    Type
REMARK                         _______ _______ _______ _____ _____    ______ ____
ROOT
ATOM      1  C   UNL     1      43.639  33.545  40.771  0.00  0.00    +0.000 C 
ATOM      2  H   UNL     1      43.727  33.114  41.779  0.00  0.00    +0.000 HD
ATOM      3  H   UNL     1      43.654  32.676  40.061  0.00  0.00    +0.000 HD
ENDROOT
BRANCH   1   4
ATOM      4  C   UNL     1      42.376  34.297  40.543  0.00  0.00    +0.000 A 
ATOM      5  C   UNL     1      41.634  34.133  39.390  0.00  0.00    +0.000 A 
ATOM      6  C   UNL     1      40.461  34.891  39.253  0.00  0.00    +0.000 A 
ATOM      7  N   UNL     1      40.114  35.745  40.260  0.00  0.00    +0.000 NA
ATOM      8  C   UNL     1      40.871  35.862  41.356  0.00  0.00    +0.000 A 
ATOM      9  N   UNL     1      41.986  35.143  41.487  0.00  0.00    +0.000 NA
ATOM     10  H   UNL     1      41.940  33.451  38.620  0.00  0.00    +0.000 HD
ATOM     11  H   UNL     1      39.852  34.793  38.367  0.00  0.00    +0.000 HD
BRANCH   8  14
ATOM     12  F   UNL     1      38.503  37.428  41.139  0.00  0.00    +0.000 F 
ATOM     13  C   UNL     1      39.257  37.559  42.256  0.00  0.00    +0.000 A 
ATOM     14  C   UNL     1      40.403  36.804  42.365  0.00  0.00    +0.000 A 
ATOM     15  C   UNL     1      41.127  36.977  43.515  0.00  0.00    +0.000 A 
ATOM     16  H   UNL     1      42.057  36.425  43.703  0.00  0.00    +0.000 HD
ATOM     17  C   UNL     1      40.746  37.859  44.528  0.00  0.00    +0.000 A 
ATOM     18  H   UNL     1      41.361  37.955  45.420  0.00  0.00    +0.000 HD
ATOM     19  C   UNL     1      39.593  38.597  44.382  0.00  0.00    +0.000 A 
ATOM     20  C   UNL     1      38.838  38.444  43.227  0.00  0.00    +0.000 A 
ENDBRANCH   8  14
ENDBRANCH   1   4
BRANCH   1  21
ATOM     21  C   UNL     1      44.767  34.480  40.457  0.00  0.00    +0.000 C 
ATOM     22  H   UNL     1      44.365  35.529  40.646  0.00  0.00    +0.000 HD
ATOM     23  H   UNL     1      44.850  34.495  39.342  0.00  0.00    +0.000 HD
BRANCH  21  24
ATOM     24  N   UNL     1      45.922  34.122  41.007  0.00  0.00    +0.000 N 
ATOM     25  C   UNL     1      46.838  33.131  40.562  0.00  0.00    +0.000 C 
ATOM     26  C   UNL     1      47.898  34.073  39.930  0.00  0.00    +0.000 C 
ATOM     27  C   UNL     1      48.511  34.971  40.910  0.00  0.00    +0.000 C 
ATOM     28  C   UNL     1      47.758  35.311  42.118  0.00  0.00    +0.000 C 
ATOM     29  C   UNL     1      46.328  34.877  42.197  0.00  0.00    +0.000 C 
ATOM     30  H   UNL     1      46.441  32.556  39.708  0.00  0.00    +0.000 HD
ATOM     31  H   UNL     1      47.299  32.467  41.269  0.00  0.00    +0.000 HD
ATOM     32  H   UNL     1      48.651  33.477  39.391  0.00  0.00    +0.000 HD
ATOM     33  H   UNL     1      47.340  34.649  39.165  0.00  0.00    +0.000 HD
ATOM     34  H   UNL     1      49.470  34.493  41.258  0.00  0.00    +0.000 HD
ATOM     35  H   UNL     1      48.866  35.904  40.394  0.00  0.00    +0.000 HD
ATOM     36  H   UNL     1      48.106  35.858  42.953  0.00  0.00    +0.000 HD
BRANCH  29  37
ATOM     37  S   UNL     1      45.300  35.302  43.567  0.00  0.00    +0.000 S 
ATOM     38  H   UNL     1      45.292  36.680  43.842  0.00  0.00    +0.000 HD
ENDBRANCH  29  37
ENDBRANCH  21  24
ENDBRANCH   1  21
TORSDOF 5
