
     RDKit          3D

 40 42  0  0  0  0  0  0  0  0999 V2000
   44.7670   34.4796   40.4573 C   0  0  0  0  0  0  0  0  0  0  0  0
   45.9219   34.1220   41.0072 N   0  0  0  0  0  0  0  0  0  0  0  0
   46.8383   33.1312   40.5622 C   0  0  0  0  0  0  0  0  0  0  0  0
   47.8977   34.0726   39.9304 C   0  0  0  0  0  0  0  0  0  0  0  0
   48.5110   34.9709   40.9102 C   0  0  0  0  0  0  0  0  0  0  0  0
   47.7577   35.3110   42.1178 C   0  0  0  0  0  0  0  0  0  0  0  0
   46.3280   34.8771   42.1972 C   0  0  0  0  0  0  0  0  0  0  0  0
   45.3005   35.3019   43.5672 S   0  0  0  0  0  0  0  0  0  0  0  0
   43.6393   33.5447   40.7711 C   0  0  0  0  0  0  0  0  0  0  0  0
   42.3758   34.2966   40.5433 C   0  0  0  0  0  0  0  0  0  0  0  0
   41.6338   34.1334   39.3896 C   0  0  0  0  0  0  0  0  0  0  0  0
   40.4609   34.8906   39.2528 C   0  0  0  0  0  0  0  0  0  0  0  0
   40.1144   35.7447   40.2601 N   0  0  0  0  0  0  0  0  0  0  0  0
   40.8712   35.8622   41.3558 C   0  0  0  0  0  0  0  0  0  0  0  0
   41.9865   35.1427   41.4867 N   0  0  0  0  0  0  0  0  0  0  0  0
   44.3646   35.5285   40.6457 H   0  0  0  0  0  0  0  0  0  0  0  0
   44.8504   34.4949   39.3420 H   0  0  0  0  0  0  0  0  0  0  0  0
   46.4414   32.5559   39.7075 H   0  0  0  0  0  0  0  0  0  0  0  0
   47.2987   32.4674   41.2694 H   0  0  0  0  0  0  0  0  0  0  0  0
   48.6505   33.4775   39.3911 H   0  0  0  0  0  0  0  0  0  0  0  0
   47.3395   34.6492   39.1653 H   0  0  0  0  0  0  0  0  0  0  0  0
   49.4701   34.4927   41.2579 H   0  0  0  0  0  0  0  0  0  0  0  0
   48.8656   35.9038   40.3936 H   0  0  0  0  0  0  0  0  0  0  0  0
   48.1059   35.8580   42.9526 H   0  0  0  0  0  0  0  0  0  0  0  0
   45.2924   36.6801   43.8423 H   0  0  0  0  0  0  0  0  0  0  0  0
   43.7265   33.1144   41.7790 H   0  0  0  0  0  0  0  0  0  0  0  0
   43.6537   32.6759   40.0609 H   0  0  0  0  0  0  0  0  0  0  0  0
   41.9403   33.4509   38.6202 H   0  0  0  0  0  0  0  0  0  0  0  0
   39.8525   34.7928   38.3667 H   0  0  0  0  0  0  0  0  0  0  0  0
   38.5031   37.4278   41.1387 F   0  0  0  0  0  0  0  0  0  0  0  0
   39.2574   37.5594   42.2560 C   0  0  0  0  0  0  0  0  0  0  0  0
   40.4029   36.8044   42.3648 C   0  0  0  0  0  0  0  0  0  0  0  0
   41.1275   36.9770   43.5147 C   0  0  0  0  0  0  0  0  0  0  0  0
   42.0566   36.4247   43.7030 H   0  0  0  0  0  0  0  0  0  0  0  0
   40.7463   37.8595   44.5283 C   0  0  0  0  0  0  0  0  0  0  0  0
   41.3612   37.9551   45.4197 H   0  0  0  0  0  0  0  0  0  0  0  0
   39.5935   38.5974   44.3823 C   0  0  0  0  0  0  0  0  0  0  0  0
   38.8381   38.4437   43.2271 C   0  0  0  0  0  0  0  0  0  0  0  0
   39.3581   39.2613   45.2056 H   0  0  0  0  0  0  0  0  0  0  0  0
   37.9404   39.0324   43.1367 H   0  0  0  0  0  0  0  0  0  0  0  0
  1  9  1  0
  1  2  1  0
  2  7  1  0
  3  2  1  0
  4  3  1  0
  4  5  1  0
  5  6  1  0
  6  7  2  0
  7  8  1  0
 10  9  1  0
 10 15  1  0
 11 10  2  0
 12 11  1  0
 12 13  2  0
 13 14  1  0
 14 15  2  0
  1 16  1  0
  1 17  1  0
  3 18  1  0
  3 19  1  0
  4 20  1  0
  4 21  1  0
  5 22  1  0
  5 23  1  0
  6 24  1  0
  8 25  1  0
  9 26  1  0
  9 27  1  0
 11 28  1  0
 12 29  1  0
 30 31  1  0
 31 32  2  0
 32 33  1  0
 33 34  1  0
 33 35  2  0
 35 36  1  0
 35 37  1  0
 37 38  2  0
 38 31  1  0
 37 39  1  0
 38 40  1  0
 14 32  1  0
M  ISO  8  16   8  17   8  18  13  19  13  20  13  21  13  22  13  23  13
M  ISO  8  24  13  25  11  26   8  27   8  28  14  29  14  34  15  36  16
M  END
>  <DihAtoms>  (1) 
12,13,31,30

>  <DihDeg>  (1) 
179.97992812013356

$$$$
