
 OpenBabel03252506183D

 23 24  0  0  0  0  0  0  0  0999 V2000
   45.0060   35.0070   44.2870 C   0  0  0  0  0  0  0  0  0  0  0  0
   44.7980   34.3020   43.0760 C   0  0  0  0  0  0  0  0  0  0  0  0
   45.0550   32.9280   43.0690 C   0  0  0  0  0  0  0  0  0  0  0  0
   45.4860   32.3390   44.2060 N   0  0  0  0  0  0  0  0  0  0  0  0
   45.6780   33.0430   45.3580 C   0  0  0  0  0  0  0  0  0  0  0  0
   45.4300   34.3620   45.3650 N   0  0  0  0  0  0  0  0  0  0  0  0
   44.4510   34.8690   42.2230 H   0  0  0  0  0  0  0  0  0  0  0  0
   44.8970   32.4000   42.1550 H   0  0  0  0  0  0  0  0  0  0  0  0
   44.4250   33.4830   47.8210 F   0  0  0  0  0  0  0  0  0  0  0  0
   45.4860   32.6320   47.7620 C   0  0  0  0  0  0  0  0  0  0  0  0
   46.1430   32.3770   46.5710 C   0  0  0  0  0  0  0  0  0  0  0  0
   47.2230   31.5110   46.5140 C   0  0  0  0  0  0  0  0  0  0  0  0
   47.7560   31.2950   45.5920 H   0  0  0  0  0  0  0  0  0  0  0  0
   47.6300   30.9020   47.6930 C   0  0  0  0  0  0  0  0  0  0  0  0
   48.4620   30.2250   47.6920 H   0  0  0  0  0  0  0  0  0  0  0  0
   46.9850   31.1480   48.8820 C   0  0  0  0  0  3  0  0  0  0  0  0
   45.9110   32.0140   48.9180 C   0  0  0  0  0  3  0  0  0  0  0  0
   44.7410   36.4390   44.3020 C   0  0  0  0  0  3  0  0  0  0  0  0
   45.4030   37.2240   43.4820 C   0  0  0  0  0  3  0  0  0  0  0  0
   45.1770   38.6930   43.4500 C   0  0  0  0  0  0  0  0  0  0  0  0
   45.5430   39.1970   44.3660 H   0  0  0  0  0  0  0  0  0  0  0  0
   45.5770   39.1380   42.5240 H   0  0  0  0  0  0  0  0  0  0  0  0
   44.0580   38.8350   43.4200 H   0  0  0  0  0  0  0  0  0  0  0  0
  1 18  1  0  0  0  0
  1  6  1  0  0  0  0
  2  1  2  0  0  0  0
  3  2  1  0  0  0  0
  3  4  2  0  0  0  0
  4  5  1  0  0  0  0
  5  6  2  0  0  0  0
  5 11  1  0  0  0  0
  7  2  1  0  0  0  0
  8  3  1  0  0  0  0
 10  9  1  0  0  0  0
 10 17  1  0  0  0  0
 11 10  2  0  0  0  0
 12 11  1  0  0  0  0
 12 14  2  0  0  0  0
 13 12  1  0  0  0  0
 14 16  1  0  0  0  0
 15 14  1  0  0  0  0
 16 17  2  0  0  0  0
 19 18  2  0  0  0  0
 20 19  1  0  0  0  0
 20 21  1  0  0  0  0
 22 20  1  0  0  0  0
 23 20  1  0  0  0  0
M  END
>  <minimizedAffinity>
-4.38217926

>  <minimizedRMSD>
2.23111534

$$$$
