
 OpenBabel03252506183D

 23 24  0  0  0  0  0  0  0  0999 V2000
   44.8180   35.5570   43.6860 C   0  0  0  0  0  0  0  0  0  0  0  0
   43.9900   35.3130   42.5630 C   0  0  0  0  0  0  0  0  0  0  0  0
   43.9480   34.0110   42.0550 C   0  0  0  0  0  0  0  0  0  0  0  0
   44.6900   33.0530   42.6520 N   0  0  0  0  0  0  0  0  0  0  0  0
   45.4780   33.3170   43.7340 C   0  0  0  0  0  0  0  0  0  0  0  0
   45.5180   34.5670   44.2220 N   0  0  0  0  0  0  0  0  0  0  0  0
   43.4370   36.1490   42.1600 H   0  0  0  0  0  0  0  0  0  0  0  0
   43.3240   33.8310   41.2070 H   0  0  0  0  0  0  0  0  0  0  0  0
   47.6060   32.1120   42.3770 F   0  0  0  0  0  0  0  0  0  0  0  0
   47.3090   31.6990   43.6410 C   0  0  0  0  0  0  0  0  0  0  0  0
   46.2680   32.2600   44.3580 C   0  0  0  0  0  0  0  0  0  0  0  0
   45.9680   31.8380   45.6430 C   0  0  0  0  0  0  0  0  0  0  0  0
   45.1560   32.2620   46.2280 H   0  0  0  0  0  0  0  0  0  0  0  0
   46.7480   30.8300   46.1930 C   0  0  0  0  0  0  0  0  0  0  0  0
   46.5490   30.4760   47.1870 H   0  0  0  0  0  0  0  0  0  0  0  0
   47.7850   30.2650   45.4890 C   0  0  0  0  0  3  0  0  0  0  0  0
   48.0680   30.6990   44.2110 C   0  0  0  0  0  3  0  0  0  0  0  0
   44.8670   36.9110   44.2210 C   0  0  0  0  0  3  0  0  0  0  0  0
   45.3230   37.8840   43.4650 C   0  0  0  0  0  3  0  0  0  0  0  0
   45.3980   39.2860   43.9530 C   0  0  0  0  0  0  0  0  0  0  0  0
   46.1680   39.4200   44.7400 H   0  0  0  0  0  0  0  0  0  0  0  0
   45.5110   39.9940   43.1160 H   0  0  0  0  0  0  0  0  0  0  0  0
   44.3990   39.5040   44.4300 H   0  0  0  0  0  0  0  0  0  0  0  0
  1 18  1  0  0  0  0
  1  6  1  0  0  0  0
  2  1  2  0  0  0  0
  3  2  1  0  0  0  0
  3  4  2  0  0  0  0
  4  5  1  0  0  0  0
  5  6  2  0  0  0  0
  5 11  1  0  0  0  0
  7  2  1  0  0  0  0
  8  3  1  0  0  0  0
  9 10  1  0  0  0  0
 10 17  2  0  0  0  0
 10 11  1  0  0  0  0
 11 12  2  0  0  0  0
 12 14  1  0  0  0  0
 12 13  1  0  0  0  0
 14 15  1  0  0  0  0
 16 14  2  0  0  0  0
 17 16  1  0  0  0  0
 19 20  1  0  0  0  0
 19 18  2  0  0  0  0
 20 23  1  0  0  0  0
 20 21  1  0  0  0  0
 22 20  1  0  0  0  0
M  END
>  <minimizedAffinity>
-3.41715789

>  <minimizedRMSD>
0.643855989

$$$$
