
 OpenBabel03252506183D

 23 24  0  0  0  0  0  0  0  0999 V2000
   44.7890   35.6210   43.6950 C   0  0  0  0  0  0  0  0  0  0  0  0
   44.1090   35.4290   42.4660 C   0  0  0  0  0  0  0  0  0  0  0  0
   44.0350   34.1290   41.9570 C   0  0  0  0  0  0  0  0  0  0  0  0
   44.6090   33.1230   42.6520 N   0  0  0  0  0  0  0  0  0  0  0  0
   45.2570   33.3370   43.8330 C   0  0  0  0  0  0  0  0  0  0  0  0
   45.3270   34.5840   44.3220 N   0  0  0  0  0  0  0  0  0  0  0  0
   43.6850   36.3030   41.9910 H   0  0  0  0  0  0  0  0  0  0  0  0
   43.5230   33.9900   41.0310 H   0  0  0  0  0  0  0  0  0  0  0  0
   46.5190   33.7450   46.2960 F   0  0  0  0  0  0  0  0  0  0  0  0
   46.4780   32.4870   45.7740 C   0  0  0  0  0  0  0  0  0  0  0  0
   45.8670   32.2270   44.5610 C   0  0  0  0  0  0  0  0  0  0  0  0
   45.8260   30.9470   44.0330 C   0  0  0  0  0  0  0  0  0  0  0  0
   45.3510   30.7160   43.0820 H   0  0  0  0  0  0  0  0  0  0  0  0
   46.4200   29.9260   44.7620 C   0  0  0  0  0  0  0  0  0  0  0  0
   46.4090   28.9200   44.3890 H   0  0  0  0  0  0  0  0  0  0  0  0
   47.0300   30.1730   45.9690 C   0  0  0  0  0  3  0  0  0  0  0  0
   47.0600   31.4550   46.4780 C   0  0  0  0  0  3  0  0  0  0  0  0
   44.8700   36.9720   44.2310 C   0  0  0  0  0  3  0  0  0  0  0  0
   45.3210   37.9410   43.4660 C   0  0  0  0  0  3  0  0  0  0  0  0
   45.4270   39.3400   43.9560 C   0  0  0  0  0  0  0  0  0  0  0  0
   46.2180   39.4610   44.7240 H   0  0  0  0  0  0  0  0  0  0  0  0
   45.5300   40.0490   43.1190 H   0  0  0  0  0  0  0  0  0  0  0  0
   44.4440   39.5700   44.4580 H   0  0  0  0  0  0  0  0  0  0  0  0
  1 18  1  0  0  0  0
  1  6  1  0  0  0  0
  2  1  2  0  0  0  0
  3  2  1  0  0  0  0
  3  4  2  0  0  0  0
  4  5  1  0  0  0  0
  5  6  2  0  0  0  0
  5 11  1  0  0  0  0
  7  2  1  0  0  0  0
  8  3  1  0  0  0  0
 10  9  1  0  0  0  0
 10 17  1  0  0  0  0
 11 10  2  0  0  0  0
 12 11  1  0  0  0  0
 12 14  2  0  0  0  0
 13 12  1  0  0  0  0
 14 16  1  0  0  0  0
 15 14  1  0  0  0  0
 16 17  2  0  0  0  0
 19 20  1  0  0  0  0
 19 18  2  0  0  0  0
 20 23  1  0  0  0  0
 20 21  1  0  0  0  0
 22 20  1  0  0  0  0
M  END
>  <minimizedAffinity>
-3.70416093

>  <minimizedRMSD>
0.481957614

$$$$
