REMARK  Name = 
REMARK  3 active torsions:
REMARK  status: ('A' for Active; 'I' for Inactive)
REMARK    1  A    between atoms: C_1  and  C_7
REMARK    2  A    between atoms: C_5  and  C_19
REMARK    3  A    between atoms: C_8  and  C_9
REMARK                            x       y       z     vdW  Elec       q    Type
REMARK                         _______ _______ _______ _____ _____    ______ ____
ROOT
ATOM      1  C   UNL     1      44.696  35.524  43.604  0.00  0.00    +0.000 A 
ATOM      2  C   UNL     1      43.944  35.429  42.407  0.00  0.00    +0.000 A 
ATOM      3  C   UNL     1      43.785  34.163  41.835  0.00  0.00    +0.000 A 
ATOM      4  N   UNL     1      44.349  33.097  42.443  0.00  0.00    +0.000 NA
ATOM      5  C   UNL     1      45.068  33.218  43.596  0.00  0.00    +0.000 A 
ATOM      6  N   UNL     1      45.220  34.433  44.145  0.00  0.00    +0.000 NA
ATOM      7  H   UNL     1      43.535  36.344  42.002  0.00  0.00    +0.000 HD
ATOM      8  H   UNL     1      43.218  34.096  40.933  0.00  0.00    +0.000 HD
ENDROOT
BRANCH   5  11
ATOM      9  F   UNL     1      43.620  30.843  43.900  0.00  0.00    +0.000 F 
ATOM     10  C   UNL     1      44.903  30.898  44.353  0.00  0.00    +0.000 A 
ATOM     11  C   UNL     1      45.665  32.046  44.230  0.00  0.00    +0.000 A 
ATOM     12  C   UNL     1      46.969  32.099  44.693  0.00  0.00    +0.000 A 
ATOM     13  H   UNL     1      47.589  32.988  44.608  0.00  0.00    +0.000 HD
ATOM     14  C   UNL     1      47.493  30.959  45.288  0.00  0.00    +0.000 A 
ATOM     15  H   UNL     1      48.500  30.959  45.659  0.00  0.00    +0.000 HD
ATOM     16  C   UNL     1      46.745  29.813  45.416  0.00  0.00    +0.000 A 
ATOM     17  C   UNL     1      45.447  29.780  44.949  0.00  0.00    +0.000 A 
ENDBRANCH   5  11
BRANCH   1  18
ATOM     18  C   UNL     1      44.866  36.839  44.205  0.00  0.00    +0.000 C 
ATOM     19  C   UNL     1      45.232  37.849  43.448  0.00  0.00    +0.000 C 
BRANCH  19  20
ATOM     20  C   UNL     1      45.422  39.215  44.003  0.00  0.00    +0.000 C 
ATOM     21  H   UNL     1      46.306  39.282  44.669  0.00  0.00    +0.000 HD
ATOM     22  H   UNL     1      45.428  39.973  43.203  0.00  0.00    +0.000 HD
ATOM     23  H   UNL     1      44.514  39.422  44.639  0.00  0.00    +0.000 HD
ENDBRANCH  19  20
ENDBRANCH   1  18
TORSDOF 3
