
 OpenBabel03252506183D

 23 24  0  0  0  0  0  0  0  0999 V2000
   44.6570   35.4480   43.4950 C   0  0  0  0  0  0  0  0  0  0  0  0
   43.9200   35.4150   42.2850 C   0  0  0  0  0  0  0  0  0  0  0  0
   43.7940   34.1850   41.6310 C   0  0  0  0  0  0  0  0  0  0  0  0
   44.3730   33.0940   42.1770 N   0  0  0  0  0  0  0  0  0  0  0  0
   45.0760   33.1550   43.3440 C   0  0  0  0  0  0  0  0  0  0  0  0
   45.1970   34.3350   43.9720 N   0  0  0  0  0  0  0  0  0  0  0  0
   43.4970   36.3460   41.9350 H   0  0  0  0  0  0  0  0  0  0  0  0
   43.2380   34.1650   40.7200 H   0  0  0  0  0  0  0  0  0  0  0  0
   47.6560   33.2240   44.4250 F   0  0  0  0  0  0  0  0  0  0  0  0
   46.9680   32.0490   44.4300 C   0  0  0  0  0  0  0  0  0  0  0  0
   45.6900   31.9560   43.9090 C   0  0  0  0  0  0  0  0  0  0  0  0
   44.9940   30.7590   43.9150 C   0  0  0  0  0  0  0  0  0  0  0  0
   43.9900   30.6600   43.5120 H   0  0  0  0  0  0  0  0  0  0  0  0
   45.6200   29.6470   44.4620 C   0  0  0  0  0  0  0  0  0  0  0  0
   45.1160   28.7010   44.4870 H   0  0  0  0  0  0  0  0  0  0  0  0
   46.8900   29.7280   44.9830 C   0  0  0  0  0  3  0  0  0  0  0  0
   47.5670   30.9290   44.9670 C   0  0  0  0  0  3  0  0  0  0  0  0
   44.7930   36.7240   44.1810 C   0  0  0  0  0  3  0  0  0  0  0  0
   45.2330   37.7680   43.5150 C   0  0  0  0  0  3  0  0  0  0  0  0
   45.3940   39.0980   44.1600 C   0  0  0  0  0  0  0  0  0  0  0  0
   46.2200   39.1130   44.8980 H   0  0  0  0  0  0  0  0  0  0  0  0
   45.4750   39.8990   43.4070 H   0  0  0  0  0  0  0  0  0  0  0  0
   44.4390   39.2850   44.7300 H   0  0  0  0  0  0  0  0  0  0  0  0
  1  6  1  0  0  0  0
  1 18  1  0  0  0  0
  2  1  2  0  0  0  0
  3  4  2  0  0  0  0
  3  2  1  0  0  0  0
  4  5  1  0  0  0  0
  5 11  1  0  0  0  0
  5  6  2  0  0  0  0
  7  2  1  0  0  0  0
  8  3  1  0  0  0  0
  9 10  1  0  0  0  0
 10 17  1  0  0  0  0
 11 12  1  0  0  0  0
 11 10  2  0  0  0  0
 12 14  2  0  0  0  0
 13 12  1  0  0  0  0
 14 15  1  0  0  0  0
 14 16  1  0  0  0  0
 17 16  2  0  0  0  0
 19 20  1  0  0  0  0
 19 18  2  0  0  0  0
 20 23  1  0  0  0  0
 20 21  1  0  0  0  0
 22 20  1  0  0  0  0
M  END
>  <minimizedAffinity>
-3.27483797

>  <minimizedRMSD>
0.357916564

$$$$
