
 OpenBabel03242523383D

 19 20  0  0  0  0  0  0  0  0999 V2000
   45.5450   34.5870   44.4330 C   0  0  0  0  0  0  0  0  0  0  0  0
   46.5690   34.3490   43.4960 C   0  0  0  0  0  0  0  0  0  0  0  0
   47.4360   33.2730   43.7380 C   0  0  0  0  0  0  0  0  0  0  0  0
   47.2290   32.5370   44.8580 N   0  0  0  0  0  0  0  0  0  0  0  0
   46.2440   32.7880   45.7330 C   0  0  0  0  0  0  0  0  0  0  0  0
   45.4070   33.8080   45.5210 N   0  0  0  0  0  0  0  0  0  0  0  0
   44.8760   35.4130   44.2500 H   0  0  0  0  0  0  0  0  0  0  0  0
   46.6830   34.9670   42.6260 H   0  0  0  0  0  0  0  0  0  0  0  0
   47.8270   33.1560   48.0170 F   0  0  0  0  0  0  0  0  0  0  0  0
   46.9190   32.1560   48.0070 C   0  0  0  0  0  0  0  0  0  0  0  0
   46.1130   31.9270   46.9120 C   0  0  0  0  0  0  0  0  0  0  0  0
   45.1740   30.9150   46.8660 C   0  0  0  0  0  0  0  0  0  0  0  0
   44.5330   30.7260   46.0070 H   0  0  0  0  0  0  0  0  0  0  0  0
   45.0100   30.0650   47.9650 C   0  0  0  0  0  0  0  0  0  0  0  0
   44.3050   29.2490   48.0250 H   0  0  0  0  0  0  0  0  0  0  0  0
   45.8370   30.3250   49.0450 C   0  0  0  0  0  3  0  0  0  0  0  0
   46.7730   31.3240   49.1070 C   0  0  0  0  0  3  0  0  0  0  0  0
   48.7570   32.9150   42.5890 S   0  0  0  0  0  0  0  0  0  0  0  0
   49.9980   33.1360   43.2440 H   0  0  0  0  0  0  0  0  0  0  0  0
  1  6  1  0  0  0  0
  2  3  1  0  0  0  0
  2  1  2  0  0  0  0
  3  4  2  0  0  0  0
  4  5  1  0  0  0  0
  5 11  1  0  0  0  0
  6  5  2  0  0  0  0
  7  1  1  0  0  0  0
  8  2  1  0  0  0  0
 10  9  1  0  0  0  0
 10 17  1  0  0  0  0
 11 10  2  0  0  0  0
 12 11  1  0  0  0  0
 12 14  2  0  0  0  0
 13 12  1  0  0  0  0
 14 15  1  0  0  0  0
 14 16  1  0  0  0  0
 16 17  2  0  0  0  0
 18 19  1  0  0  0  0
 18  3  1  0  0  0  0
M  END
>  <minimizedAffinity>
-4.00232935

>  <minimizedRMSD>
1.6357131

$$$$
