
 OpenBabel03242520223D

 44 47  0  0  0  0  0  0  0  0999 V2000
   39.5460   35.3930   40.2630 C   0  0  0  0  0  0  0  0  0  0  0  0
   39.6310   35.1870   41.3460 H   0  0  0  0  0  0  0  0  0  0  0  0
   38.7360   36.1570   40.1750 H   0  0  0  0  0  0  0  0  0  0  0  0
   38.9790   33.0200   40.1750 C   0  0  0  0  0  0  0  0  0  0  0  0
   39.0470   32.8840   41.4350 O   0  0  0  0  0  0  0  0  0  0  0  0
   39.1260   34.2470   39.4960 N   0  0  0  0  0  0  0  0  0  0  0  0
   38.9580   34.4000   38.4900 H   0  0  0  0  0  0  0  0  0  0  0  0
   38.7280   31.8240   39.3500 C   0  0  0  0  0  0  0  0  0  0  0  0
   39.1910   31.8180   38.0320 C   0  0  0  0  0  0  0  0  0  0  0  0
   39.0350   30.7760   37.1460 C   0  0  0  0  0  0  0  0  0  0  0  0
   38.3560   29.6490   37.6390 C   0  0  0  0  0  0  0  0  0  0  0  0
   37.9240   29.7050   38.9360 C   0  0  0  0  0  0  0  0  0  0  0  0
   38.0920   30.7320   39.7670 N   0  0  0  0  0  0  0  0  0  0  0  0
   39.7130   32.7090   37.6840 H   0  0  0  0  0  0  0  0  0  0  0  0
   39.4380   30.8820   36.1380 H   0  0  0  0  0  0  0  0  0  0  0  0
   38.2380   28.8390   36.9410 H   0  0  0  0  0  0  0  0  0  0  0  0
   39.1020   27.8660   40.7600 F   0  0  0  0  0  0  0  0  0  0  0  0
   37.8190   27.6580   40.3660 C   0  0  0  0  0  0  0  0  0  0  0  0
   37.2160   28.5440   39.4710 C   0  0  0  0  0  0  0  0  0  0  0  0
   35.9360   28.2080   39.1710 C   0  0  0  0  0  0  0  0  0  0  0  0
   35.3600   28.7950   38.5030 H   0  0  0  0  0  0  0  0  0  0  0  0
   35.2660   27.1160   39.6740 C   0  0  0  0  0  0  0  0  0  0  0  0
   34.2420   26.8700   39.4150 H   0  0  0  0  0  0  0  0  0  0  0  0
   35.9250   26.2710   40.5610 C   0  0  0  0  0  0  0  0  0  0  0  0
   37.2250   26.5590   40.9050 C   0  0  0  0  0  0  0  0  0  0  0  0
   40.8600   35.9950   39.7610 C   0  0  0  0  0  0  0  0  0  0  0  0
   40.8130   36.0080   38.6640 H   0  0  0  0  0  0  0  0  0  0  0  0
   40.9210   37.0040   40.2010 H   0  0  0  0  0  0  0  0  0  0  0  0
   43.7940   34.5770   41.6910 C   0  0  0  0  0  0  0  0  0  0  0  0
   42.7230   35.4310   41.3190 C   0  0  0  0  0  0  0  0  0  0  0  0
   41.9910   35.1390   40.1840 C   0  0  0  0  0  0  0  0  0  0  0  0
   42.3660   34.0180   39.4830 N   0  0  0  0  0  0  0  0  0  0  0  0
   43.4070   33.2300   39.8870 C   0  0  0  0  0  0  0  0  0  0  0  0
   44.1120   33.5120   40.9820 N   0  0  0  0  0  0  0  0  0  0  0  0
   42.4830   36.3020   41.9230 H   0  0  0  0  0  0  0  0  0  0  0  0
   43.6660   32.3560   39.3030 H   0  0  0  0  0  0  0  0  0  0  0  0
   44.5780   34.9130   42.9160 C   0  0  0  0  0  0  0  0  0  0  0  0
   46.0570   35.3110   42.5580 C   0  0  0  0  0  0  0  0  0  0  0  0
   45.0940   36.1770   43.2530 C   0  0  0  0  0  0  0  0  0  0  0  0
   44.5130   34.0890   43.6640 H   0  0  0  0  0  0  0  0  0  0  0  0
   46.3140   35.4060   41.5070 H   0  0  0  0  0  0  0  0  0  0  0  0
   46.8200   34.7640   43.1460 H   0  0  0  0  0  0  0  0  0  0  0  0
   44.7760   37.0870   42.6680 H   0  0  0  0  0  0  0  0  0  0  0  0
   45.2700   36.4350   44.3140 H   0  0  0  0  0  0  0  0  0  0  0  0
  1  2  1  0  0  0  0
  3  1  1  0  0  0  0
  4  5  2  0  0  0  0
  6  4  1  0  0  0  0
  6  1  1  0  0  0  0
  7  6  1  0  0  0  0
  8 13  1  0  0  0  0
  8  4  1  0  0  0  0
  9  8  2  0  0  0  0
 10 11  2  0  0  0  0
 10  9  1  0  0  0  0
 11 12  1  0  0  0  0
 12 19  1  0  0  0  0
 12 13  2  0  0  0  0
 14  9  1  0  0  0  0
 15 10  1  0  0  0  0
 16 11  1  0  0  0  0
 18 17  1  0  0  0  0
 18 25  1  0  0  0  0
 19 18  2  0  0  0  0
 20 19  1  0  0  0  0
 20 22  2  0  0  0  0
 21 20  1  0  0  0  0
 22 24  1  0  0  0  0
 23 22  1  0  0  0  0
 24 25  2  0  0  0  0
 26 31  1  0  0  0  0
 26 28  1  0  0  0  0
 26  1  1  0  0  0  0
 27 26  1  0  0  0  0
 29 37  1  0  0  0  0
 30 29  1  0  0  0  0
 30 35  1  0  0  0  0
 31 30  2  0  0  0  0
 32 33  2  0  0  0  0
 32 31  1  0  0  0  0
 33 34  1  0  0  0  0
 34 29  2  0  0  0  0
 36 33  1  0  0  0  0
 37 39  1  0  0  0  0
 37 40  1  0  0  0  0
 38 37  1  0  0  0  0
 38 42  1  0  0  0  0
 38 39  1  0  0  0  0
 39 44  1  0  0  0  0
 41 38  1  0  0  0  0
 43 39  1  0  0  0  0
M  END
>  <minimizedAffinity>
-5.52810907

>  <minimizedRMSD>
1.88844383

$$$$
