
 OpenBabel03242523393D

 19 20  0  0  0  0  0  0  0  0999 V2000
   36.9200   30.8920   38.3700 C   0  0  0  0  0  0  0  0  0  0  0  0
   37.3520   32.2110   38.6050 C   0  0  0  0  0  0  0  0  0  0  0  0
   37.8860   32.5050   39.8680 C   0  0  0  0  0  0  0  0  0  0  0  0
   37.9500   31.5000   40.7750 N   0  0  0  0  0  0  0  0  0  0  0  0
   37.5310   30.2520   40.5210 C   0  0  0  0  0  0  0  0  0  0  0  0
   37.0190   29.9490   39.3240 N   0  0  0  0  0  0  0  0  0  0  0  0
   36.5090   30.6610   37.3990 H   0  0  0  0  0  0  0  0  0  0  0  0
   37.2750   32.9660   37.8460 H   0  0  0  0  0  0  0  0  0  0  0  0
   35.3610   28.6500   41.2810 F   0  0  0  0  0  0  0  0  0  0  0  0
   36.5450   28.4810   41.9080 C   0  0  0  0  0  0  0  0  0  0  0  0
   37.6480   29.2410   41.5760 C   0  0  0  0  0  0  0  0  0  0  0  0
   38.8740   29.0980   42.1960 C   0  0  0  0  0  0  0  0  0  0  0  0
   39.7510   29.6920   41.9410 H   0  0  0  0  0  0  0  0  0  0  0  0
   39.0370   28.1470   43.2090 C   0  0  0  0  0  0  0  0  0  0  0  0
   39.9540   27.9610   43.7510 H   0  0  0  0  0  0  0  0  0  0  0  0
   37.9100   27.4040   43.5150 C   0  0  0  0  0  3  0  0  0  0  0  0
   36.6850   27.5350   42.9090 C   0  0  0  0  0  3  0  0  0  0  0  0
   38.4530   34.1610   40.2340 S   0  0  0  0  0  0  0  0  0  0  0  0
   37.6210   34.7090   41.2470 H   0  0  0  0  0  0  0  0  0  0  0  0
  1  2  2  0  0  0  0
  1  6  1  0  0  0  0
  2  3  1  0  0  0  0
  3 18  1  0  0  0  0
  3  4  2  0  0  0  0
  5  4  1  0  0  0  0
  5 11  1  0  0  0  0
  6  5  2  0  0  0  0
  7  1  1  0  0  0  0
  8  2  1  0  0  0  0
  9 10  1  0  0  0  0
 10 17  1  0  0  0  0
 11 10  2  0  0  0  0
 11 12  1  0  0  0  0
 12 14  2  0  0  0  0
 13 12  1  0  0  0  0
 14 16  1  0  0  0  0
 14 15  1  0  0  0  0
 17 16  2  0  0  0  0
 18 19  1  0  0  0  0
M  END
>  <minimizedAffinity>
-4.62688017

$$$$

 OpenBabel03242523393D

 19 20  0  0  0  0  0  0  0  0999 V2000
   37.5330   32.3980   39.9490 C   0  0  0  0  0  0  0  0  0  0  0  0
   37.3160   32.0080   38.6140 C   0  0  0  0  0  0  0  0  0  0  0  0
   37.2370   30.6340   38.3420 C   0  0  0  0  0  0  0  0  0  0  0  0
   37.3750   29.7770   39.3840 N   0  0  0  0  0  0  0  0  0  0  0  0
   37.5800   30.1790   40.6460 C   0  0  0  0  0  0  0  0  0  0  0  0
   37.6580   31.4830   40.9270 N   0  0  0  0  0  0  0  0  0  0  0  0
   37.5940   33.4540   40.1620 H   0  0  0  0  0  0  0  0  0  0  0  0
   37.2150   32.7340   37.8300 H   0  0  0  0  0  0  0  0  0  0  0  0
   35.4300   28.5550   41.4180 F   0  0  0  0  0  0  0  0  0  0  0  0
   36.6210   28.3940   42.0330 C   0  0  0  0  0  0  0  0  0  0  0  0
   37.7150   29.1640   41.6960 C   0  0  0  0  0  0  0  0  0  0  0  0
   38.9470   29.0280   42.3030 C   0  0  0  0  0  0  0  0  0  0  0  0
   39.8170   29.6310   42.0430 H   0  0  0  0  0  0  0  0  0  0  0  0
   39.1280   28.0740   43.3100 C   0  0  0  0  0  0  0  0  0  0  0  0
   40.0510   27.8930   43.8420 H   0  0  0  0  0  0  0  0  0  0  0  0
   38.0100   27.3200   43.6220 C   0  0  0  0  0  3  0  0  0  0  0  0
   36.7790   27.4440   43.0290 C   0  0  0  0  0  3  0  0  0  0  0  0
   36.9630   30.0690   36.6690 S   0  0  0  0  0  0  0  0  0  0  0  0
   38.1180   29.3620   36.2360 H   0  0  0  0  0  0  0  0  0  0  0  0
  1  7  1  0  0  0  0
  1  6  1  0  0  0  0
  2  1  2  0  0  0  0
  3  2  1  0  0  0  0
  3  4  2  0  0  0  0
  4  5  1  0  0  0  0
  5  6  2  0  0  0  0
  5 11  1  0  0  0  0
  8  2  1  0  0  0  0
  9 10  1  0  0  0  0
 10 17  1  0  0  0  0
 11 10  2  0  0  0  0
 11 12  1  0  0  0  0
 12 14  2  0  0  0  0
 13 12  1  0  0  0  0
 14 16  1  0  0  0  0
 14 15  1  0  0  0  0
 17 16  2  0  0  0  0
 18  3  1  0  0  0  0
 19 18  1  0  0  0  0
M  END
>  <minimizedAffinity>
-4.48951197

$$$$

 OpenBabel03242523393D

 19 20  0  0  0  0  0  0  0  0999 V2000
   37.3170   28.0250   43.6720 C   0  0  0  0  0  0  0  0  0  0  0  0
   37.1190   26.9160   42.8270 C   0  0  0  0  0  0  0  0  0  0  0  0
   37.2370   27.1230   41.4440 C   0  0  0  0  0  0  0  0  0  0  0  0
   37.5320   28.3750   41.0170 N   0  0  0  0  0  0  0  0  0  0  0  0
   37.7150   29.4120   41.8480 C   0  0  0  0  0  0  0  0  0  0  0  0
   37.6080   29.2370   43.1680 N   0  0  0  0  0  0  0  0  0  0  0  0
   37.2280   27.8690   44.7360 H   0  0  0  0  0  0  0  0  0  0  0  0
   36.8870   25.9460   43.2240 H   0  0  0  0  0  0  0  0  0  0  0  0
   35.7900   30.9400   40.5020 F   0  0  0  0  0  0  0  0  0  0  0  0
   37.0420   31.4320   40.6250 C   0  0  0  0  0  0  0  0  0  0  0  0
   38.0310   30.7240   41.2760 C   0  0  0  0  0  0  0  0  0  0  0  0
   39.3210   31.1940   41.4200 C   0  0  0  0  0  0  0  0  0  0  0  0
   40.1090   30.6440   41.9340 H   0  0  0  0  0  0  0  0  0  0  0  0
   39.6740   32.4410   40.8940 C   0  0  0  0  0  0  0  0  0  0  0  0
   40.6540   32.8930   40.9560 H   0  0  0  0  0  0  0  0  0  0  0  0
   38.6560   33.1220   40.2470 C   0  0  0  0  0  3  0  0  0  0  0  0
   37.3700   32.6690   40.0950 C   0  0  0  0  0  3  0  0  0  0  0  0
   36.9980   25.7580   40.3140 S   0  0  0  0  0  0  0  0  0  0  0  0
   35.8400   26.0160   39.5330 H   0  0  0  0  0  0  0  0  0  0  0  0
  1  7  1  0  0  0  0
  2  8  1  0  0  0  0
  2  1  2  0  0  0  0
  3  2  1  0  0  0  0
  4  3  2  0  0  0  0
  4  5  1  0  0  0  0
  5  6  2  0  0  0  0
  6  1  1  0  0  0  0
  9 10  1  0  0  0  0
 10 11  1  0  0  0  0
 11 12  2  0  0  0  0
 11  5  1  0  0  0  0
 12 13  1  0  0  0  0
 14 15  1  0  0  0  0
 14 12  1  0  0  0  0
 16 14  2  0  0  0  0
 17 16  1  0  0  0  0
 17 10  2  0  0  0  0
 18  3  1  0  0  0  0
 19 18  1  0  0  0  0
M  END
>  <minimizedAffinity>
-4.45295

$$$$

 OpenBabel03242523393D

 19 20  0  0  0  0  0  0  0  0999 V2000
   38.1950   34.1440   40.0510 C   0  0  0  0  0  0  0  0  0  0  0  0
   39.4830   33.8210   40.5200 C   0  0  0  0  0  0  0  0  0  0  0  0
   39.8040   32.4630   40.6560 C   0  0  0  0  0  0  0  0  0  0  0  0
   38.8530   31.5540   40.3270 N   0  0  0  0  0  0  0  0  0  0  0  0
   37.6340   31.8930   39.8820 C   0  0  0  0  0  0  0  0  0  0  0  0
   37.3080   33.1820   39.7450 N   0  0  0  0  0  0  0  0  0  0  0  0
   37.9440   35.1880   39.9450 H   0  0  0  0  0  0  0  0  0  0  0  0
   40.1950   34.5860   40.7660 H   0  0  0  0  0  0  0  0  0  0  0  0
   37.2110   31.0460   37.2440 F   0  0  0  0  0  0  0  0  0  0  0  0
   36.5170   30.4510   38.2380 C   0  0  0  0  0  0  0  0  0  0  0  0
   36.6830   30.8270   39.5550 C   0  0  0  0  0  0  0  0  0  0  0  0
   35.9900   30.2420   40.5970 C   0  0  0  0  0  0  0  0  0  0  0  0
   36.1150   30.5310   41.6400 H   0  0  0  0  0  0  0  0  0  0  0  0
   35.0710   29.2200   40.3380 C   0  0  0  0  0  0  0  0  0  0  0  0
   34.4830   28.7030   41.0830 H   0  0  0  0  0  0  0  0  0  0  0  0
   34.9300   28.8710   39.0050 C   0  0  0  0  0  3  0  0  0  0  0  0
   35.6100   29.4420   37.9590 C   0  0  0  0  0  3  0  0  0  0  0  0
   41.4220   31.9830   41.2460 S   0  0  0  0  0  0  0  0  0  0  0  0
   41.2720   31.3380   42.5040 H   0  0  0  0  0  0  0  0  0  0  0  0
  1  2  1  0  0  0  0
  2  3  2  0  0  0  0
  2  8  1  0  0  0  0
  3 18  1  0  0  0  0
  4  3  1  0  0  0  0
  5  4  2  0  0  0  0
  6  5  1  0  0  0  0
  6  1  2  0  0  0  0
  7  1  1  0  0  0  0
  9 10  1  0  0  0  0
 10 11  1  0  0  0  0
 11  5  1  0  0  0  0
 11 12  2  0  0  0  0
 12 13  1  0  0  0  0
 14 12  1  0  0  0  0
 14 15  1  0  0  0  0
 16 14  2  0  0  0  0
 17 10  2  0  0  0  0
 17 16  1  0  0  0  0
 18 19  1  0  0  0  0
M  END
>  <minimizedAffinity>
-4.39542723

$$$$

 OpenBabel03242523393D

 19 20  0  0  0  0  0  0  0  0999 V2000
   37.2620   32.6980   39.7950 C   0  0  0  0  0  0  0  0  0  0  0  0
   38.3860   32.6560   38.9480 C   0  0  0  0  0  0  0  0  0  0  0  0
   39.2180   31.5290   39.0260 C   0  0  0  0  0  0  0  0  0  0  0  0
   38.8830   30.5590   39.9120 N   0  0  0  0  0  0  0  0  0  0  0  0
   37.8050   30.6280   40.7060 C   0  0  0  0  0  0  0  0  0  0  0  0
   36.9990   31.6920   40.6470 N   0  0  0  0  0  0  0  0  0  0  0  0
   36.6200   33.5630   39.7370 H   0  0  0  0  0  0  0  0  0  0  0  0
   38.6010   33.4570   38.2650 H   0  0  0  0  0  0  0  0  0  0  0  0
   39.1360   30.3930   43.1610 F   0  0  0  0  0  0  0  0  0  0  0  0
   38.2240   29.4570   42.8240 C   0  0  0  0  0  0  0  0  0  0  0  0
   37.5370   29.5200   41.6280 C   0  0  0  0  0  0  0  0  0  0  0  0
   36.5980   28.5810   41.2490 C   0  0  0  0  0  0  0  0  0  0  0  0
   36.0510   28.6230   40.3080 H   0  0  0  0  0  0  0  0  0  0  0  0
   36.3060   27.5050   42.0930 C   0  0  0  0  0  0  0  0  0  0  0  0
   35.5900   26.7230   41.8860 H   0  0  0  0  0  0  0  0  0  0  0  0
   37.0140   27.4740   43.2830 C   0  0  0  0  0  3  0  0  0  0  0  0
   37.9500   28.3980   43.6740 C   0  0  0  0  0  3  0  0  0  0  0  0
   40.6620   31.4110   37.9790 S   0  0  0  0  0  0  0  0  0  0  0  0
   41.8210   31.4390   38.8020 H   0  0  0  0  0  0  0  0  0  0  0  0
  1  6  1  0  0  0  0
  2  3  1  0  0  0  0
  2  1  2  0  0  0  0
  3  4  2  0  0  0  0
  4  5  1  0  0  0  0
  5 11  1  0  0  0  0
  6  5  2  0  0  0  0
  7  1  1  0  0  0  0
  8  2  1  0  0  0  0
 10  9  1  0  0  0  0
 10 17  1  0  0  0  0
 11 10  2  0  0  0  0
 12 11  1  0  0  0  0
 12 14  2  0  0  0  0
 13 12  1  0  0  0  0
 14 16  1  0  0  0  0
 15 14  1  0  0  0  0
 16 17  2  0  0  0  0
 18 19  1  0  0  0  0
 18  3  1  0  0  0  0
M  END
>  <minimizedAffinity>
-4.36167097

$$$$

 OpenBabel03242523393D

 19 20  0  0  0  0  0  0  0  0999 V2000
   35.8310   30.3550   40.6480 C   0  0  0  0  0  0  0  0  0  0  0  0
   37.0240   31.0590   40.9010 C   0  0  0  0  0  0  0  0  0  0  0  0
   38.1700   30.3090   41.2050 C   0  0  0  0  0  0  0  0  0  0  0  0
   38.0490   28.9590   41.2350 N   0  0  0  0  0  0  0  0  0  0  0  0
   36.8980   28.3170   40.9880 C   0  0  0  0  0  0  0  0  0  0  0  0
   35.7950   29.0120   40.6960 N   0  0  0  0  0  0  0  0  0  0  0  0
   34.9480   30.9290   40.4120 H   0  0  0  0  0  0  0  0  0  0  0  0
   37.0580   32.1310   40.8630 H   0  0  0  0  0  0  0  0  0  0  0  0
   37.1370   26.9320   43.4130 F   0  0  0  0  0  0  0  0  0  0  0  0
   37.0030   26.2250   42.2710 C   0  0  0  0  0  0  0  0  0  0  0  0
   36.8820   26.8520   41.0480 C   0  0  0  0  0  0  0  0  0  0  0  0
   36.7440   26.1620   39.8590 C   0  0  0  0  0  0  0  0  0  0  0  0
   36.6470   26.6480   38.8880 H   0  0  0  0  0  0  0  0  0  0  0  0
   36.7220   24.7640   39.8610 C   0  0  0  0  0  0  0  0  0  0  0  0
   36.6190   24.1380   38.9860 H   0  0  0  0  0  0  0  0  0  0  0  0
   36.8460   24.1700   41.1060 C   0  0  0  0  0  3  0  0  0  0  0  0
   36.9840   24.8400   42.2950 C   0  0  0  0  0  3  0  0  0  0  0  0
   39.7180   31.1380   41.5380 S   0  0  0  0  0  0  0  0  0  0  0  0
   40.0750   30.9030   42.8930 H   0  0  0  0  0  0  0  0  0  0  0  0
  1  6  2  0  0  0  0
  1  2  1  0  0  0  0
  2  3  2  0  0  0  0
  3  4  1  0  0  0  0
  3 18  1  0  0  0  0
  5 11  1  0  0  0  0
  5  4  2  0  0  0  0
  6  5  1  0  0  0  0
  7  1  1  0  0  0  0
  8  2  1  0  0  0  0
 10 17  1  0  0  0  0
 10  9  1  0  0  0  0
 11 10  2  0  0  0  0
 12 14  2  0  0  0  0
 12 11  1  0  0  0  0
 13 12  1  0  0  0  0
 14 16  1  0  0  0  0
 15 14  1  0  0  0  0
 16 17  2  0  0  0  0
 18 19  1  0  0  0  0
M  END
>  <minimizedAffinity>
-4.36013556

$$$$

 OpenBabel03242523393D

 19 20  0  0  0  0  0  0  0  0999 V2000
   37.3190   28.0540   43.6610 C   0  0  0  0  0  0  0  0  0  0  0  0
   37.1400   26.9340   42.8270 C   0  0  0  0  0  0  0  0  0  0  0  0
   37.2350   27.1320   41.4420 C   0  0  0  0  0  0  0  0  0  0  0  0
   37.4920   28.3880   41.0010 N   0  0  0  0  0  0  0  0  0  0  0  0
   37.6590   29.4360   41.8210 C   0  0  0  0  0  0  0  0  0  0  0  0
   37.5730   29.2690   43.1440 N   0  0  0  0  0  0  0  0  0  0  0  0
   37.2470   27.9050   44.7280 H   0  0  0  0  0  0  0  0  0  0  0  0
   36.9380   25.9610   43.2350 H   0  0  0  0  0  0  0  0  0  0  0  0
   40.1190   30.7290   42.1780 F   0  0  0  0  0  0  0  0  0  0  0  0
   39.1640   31.3390   41.4440 C   0  0  0  0  0  0  0  0  0  0  0  0
   37.9330   30.7510   41.2350 C   0  0  0  0  0  0  0  0  0  0  0  0
   36.9320   31.3460   40.4920 C   0  0  0  0  0  0  0  0  0  0  0  0
   35.9580   30.8890   40.3210 H   0  0  0  0  0  0  0  0  0  0  0  0
   37.1450   32.6000   39.9120 C   0  0  0  0  0  0  0  0  0  0  0  0
   36.4260   33.1440   39.3150 H   0  0  0  0  0  0  0  0  0  0  0  0
   38.3900   33.1590   40.1430 C   0  0  0  0  0  3  0  0  0  0  0  0
   39.3940   32.5830   40.8790 C   0  0  0  0  0  3  0  0  0  0  0  0
   37.0180   25.7520   40.3260 S   0  0  0  0  0  0  0  0  0  0  0  0
   35.8440   25.9730   39.5570 H   0  0  0  0  0  0  0  0  0  0  0  0
  1  7  1  0  0  0  0
  2  8  1  0  0  0  0
  2  1  2  0  0  0  0
  3  2  1  0  0  0  0
  4  3  2  0  0  0  0
  4  5  1  0  0  0  0
  5  6  2  0  0  0  0
  6  1  1  0  0  0  0
 10  9  1  0  0  0  0
 11 10  1  0  0  0  0
 11  5  1  0  0  0  0
 12 11  2  0  0  0  0
 13 12  1  0  0  0  0
 14 16  2  0  0  0  0
 14 12  1  0  0  0  0
 15 14  1  0  0  0  0
 16 17  1  0  0  0  0
 17 10  2  0  0  0  0
 18  3  1  0  0  0  0
 19 18  1  0  0  0  0
M  END
>  <minimizedAffinity>
-4.32221889

$$$$

 OpenBabel03242523393D

 19 20  0  0  0  0  0  0  0  0999 V2000
   37.6960   28.4970   43.6680 C   0  0  0  0  0  0  0  0  0  0  0  0
   37.4960   27.1490   43.3150 C   0  0  0  0  0  0  0  0  0  0  0  0
   37.3990   26.8410   41.9500 C   0  0  0  0  0  0  0  0  0  0  0  0
   37.5030   27.8620   41.0650 N   0  0  0  0  0  0  0  0  0  0  0  0
   37.6940   29.1380   41.4320 C   0  0  0  0  0  0  0  0  0  0  0  0
   37.7900   29.4530   42.7270 N   0  0  0  0  0  0  0  0  0  0  0  0
   37.7720   28.7380   44.7170 H   0  0  0  0  0  0  0  0  0  0  0  0
   37.4210   26.3820   44.0630 H   0  0  0  0  0  0  0  0  0  0  0  0
   35.8960   31.2830   41.2930 F   0  0  0  0  0  0  0  0  0  0  0  0
   36.8790   31.1970   40.3710 C   0  0  0  0  0  0  0  0  0  0  0  0
   37.7920   30.1640   40.3890 C   0  0  0  0  0  0  0  0  0  0  0  0
   38.8090   30.0420   39.4630 C   0  0  0  0  0  0  0  0  0  0  0  0
   39.5360   29.2310   39.4690 H   0  0  0  0  0  0  0  0  0  0  0  0
   38.9470   30.9950   38.4480 C   0  0  0  0  0  0  0  0  0  0  0  0
   39.7080   30.9870   37.6800 H   0  0  0  0  0  0  0  0  0  0  0  0
   38.0130   32.0170   38.4610 C   0  0  0  0  0  3  0  0  0  0  0  0
   36.9970   32.1510   39.3730 C   0  0  0  0  0  3  0  0  0  0  0  0
   37.1460   25.1490   41.4320 S   0  0  0  0  0  0  0  0  0  0  0  0
   35.8700   25.0510   40.8150 H   0  0  0  0  0  0  0  0  0  0  0  0
  1  7  1  0  0  0  0
  2  1  1  0  0  0  0
  2  8  1  0  0  0  0
  3  2  2  0  0  0  0
  4  5  2  0  0  0  0
  4  3  1  0  0  0  0
  5  6  1  0  0  0  0
  6  1  2  0  0  0  0
 10 11  1  0  0  0  0
 10  9  1  0  0  0  0
 11  5  1  0  0  0  0
 12 13  1  0  0  0  0
 12 11  2  0  0  0  0
 14 16  2  0  0  0  0
 14 12  1  0  0  0  0
 15 14  1  0  0  0  0
 16 17  1  0  0  0  0
 17 10  2  0  0  0  0
 18  3  1  0  0  0  0
 19 18  1  0  0  0  0
M  END
>  <minimizedAffinity>
-4.21613598

$$$$

 OpenBabel03242523393D

 19 20  0  0  0  0  0  0  0  0999 V2000
   36.1860   29.8840   37.9600 C   0  0  0  0  0  0  0  0  0  0  0  0
   37.3260   30.5800   37.5140 C   0  0  0  0  0  0  0  0  0  0  0  0
   38.4470   30.6000   38.3580 C   0  0  0  0  0  0  0  0  0  0  0  0
   38.3550   29.9500   39.5430 N   0  0  0  0  0  0  0  0  0  0  0  0
   37.2540   29.2950   39.9400 C   0  0  0  0  0  0  0  0  0  0  0  0
   36.1750   29.2620   39.1520 N   0  0  0  0  0  0  0  0  0  0  0  0
   35.3220   29.8650   37.3130 H   0  0  0  0  0  0  0  0  0  0  0  0
   37.3390   31.0770   36.5620 H   0  0  0  0  0  0  0  0  0  0  0  0
   36.7280   26.5540   40.2000 F   0  0  0  0  0  0  0  0  0  0  0  0
   36.9990   27.2730   41.3110 C   0  0  0  0  0  0  0  0  0  0  0  0
   37.2650   28.6250   41.2440 C   0  0  0  0  0  0  0  0  0  0  0  0
   37.5440   29.3920   42.3580 C   0  0  0  0  0  0  0  0  0  0  0  0
   37.7560   30.4600   42.3160 H   0  0  0  0  0  0  0  0  0  0  0  0
   37.5680   28.8010   43.6260 C   0  0  0  0  0  0  0  0  0  0  0  0
   37.7760   29.3150   44.5530 H   0  0  0  0  0  0  0  0  0  0  0  0
   37.2960   27.4430   43.6530 C   0  0  0  0  0  3  0  0  0  0  0  0
   37.0160   26.6680   42.5560 C   0  0  0  0  0  3  0  0  0  0  0  0
   39.9280   31.4650   37.8540 S   0  0  0  0  0  0  0  0  0  0  0  0
   40.1330   32.5610   38.7350 H   0  0  0  0  0  0  0  0  0  0  0  0
  1  6  1  0  0  0  0
  2  1  2  0  0  0  0
  2  3  1  0  0  0  0
  3  4  2  0  0  0  0
  4  5  1  0  0  0  0
  5 11  1  0  0  0  0
  6  5  2  0  0  0  0
  7  1  1  0  0  0  0
  8  2  1  0  0  0  0
  9 10  1  0  0  0  0
 10 17  1  0  0  0  0
 11 10  2  0  0  0  0
 11 12  1  0  0  0  0
 12 14  2  0  0  0  0
 13 12  1  0  0  0  0
 14 16  1  0  0  0  0
 14 15  1  0  0  0  0
 17 16  2  0  0  0  0
 18  3  1  0  0  0  0
 18 19  1  0  0  0  0
M  END
>  <minimizedAffinity>
-4.16022491

$$$$
