
 OpenBabel03242523383D

 19 20  0  0  0  0  0  0  0  0999 V2000
   44.4430   35.9400   44.7430 C   0  0  0  0  0  0  0  0  0  0  0  0
   44.6970   35.6700   43.3850 C   0  0  0  0  0  0  0  0  0  0  0  0
   45.3600   34.4730   43.0730 C   0  0  0  0  0  0  0  0  0  0  0  0
   45.7110   33.6610   44.1000 N   0  0  0  0  0  0  0  0  0  0  0  0
   45.4540   33.9460   45.3850 C   0  0  0  0  0  0  0  0  0  0  0  0
   44.8220   35.0810   45.7040 N   0  0  0  0  0  0  0  0  0  0  0  0
   43.9320   36.8590   44.9860 H   0  0  0  0  0  0  0  0  0  0  0  0
   44.3950   36.3530   42.6140 H   0  0  0  0  0  0  0  0  0  0  0  0
   47.6260   32.2180   44.9980 F   0  0  0  0  0  0  0  0  0  0  0  0
   46.9550   32.1680   46.1690 C   0  0  0  0  0  0  0  0  0  0  0  0
   45.8780   32.9950   46.4160 C   0  0  0  0  0  0  0  0  0  0  0  0
   45.1690   32.9720   47.6010 C   0  0  0  0  0  0  0  0  0  0  0  0
   44.3160   33.6210   47.8050 H   0  0  0  0  0  0  0  0  0  0  0  0
   45.5330   32.0830   48.6160 C   0  0  0  0  0  0  0  0  0  0  0  0
   45.0410   31.9910   49.5750 H   0  0  0  0  0  0  0  0  0  0  0  0
   46.6170   31.2700   48.3330 C   0  0  0  0  0  3  0  0  0  0  0  0
   47.3330   31.2780   47.1630 C   0  0  0  0  0  3  0  0  0  0  0  0
   45.7150   34.0670   41.3690 S   0  0  0  0  0  0  0  0  0  0  0  0
   47.1250   34.0620   41.1900 H   0  0  0  0  0  0  0  0  0  0  0  0
  1  7  1  0  0  0  0
  1  6  1  0  0  0  0
  2  1  2  0  0  0  0
  3  2  1  0  0  0  0
  3  4  2  0  0  0  0
  4  5  1  0  0  0  0
  5  6  2  0  0  0  0
  5 11  1  0  0  0  0
  8  2  1  0  0  0  0
  9 10  1  0  0  0  0
 10 11  2  0  0  0  0
 10 17  1  0  0  0  0
 11 12  1  0  0  0  0
 12 13  1  0  0  0  0
 12 14  2  0  0  0  0
 14 15  1  0  0  0  0
 16 14  1  0  0  0  0
 17 16  2  0  0  0  0
 18  3  1  0  0  0  0
 19 18  1  0  0  0  0
M  END
>  <minimizedAffinity>
-4.75081587

>  <minimizedRMSD>
0.847581625

$$$$
