REMARK  Name = 
REMARK  6 active torsions:
REMARK  status: ('A' for Active; 'I' for Inactive)
REMARK    1  A    between atoms: C_1  and  C_14
REMARK    2  A    between atoms: C_3  and  C_8
REMARK    3  A    between atoms: C_7  and  O_12
REMARK    4  A    between atoms: C_11  and  O_13
REMARK    5  A    between atoms: C_14  and  N_17
REMARK    6  A    between atoms: C_15  and  C_32
REMARK                            x       y       z     vdW  Elec       q    Type
REMARK                         _______ _______ _______ _____ _____    ______ ____
ROOT
ATOM      1  C   UNL     1      45.292  35.614  44.203  0.00  0.00    +0.000 A 
ATOM      2  C   UNL     1      46.246  34.855  43.529  0.00  0.00    +0.000 A 
ATOM      3  C   UNL     1      46.706  33.666  44.080  0.00  0.00    +0.000 A 
ATOM      4  N   UNL     1      46.195  33.309  45.255  0.00  0.00    +0.000 NA
ATOM      5  C   UNL     1      45.271  34.042  45.909  0.00  0.00    +0.000 A 
ATOM      6  N   UNL     1      44.809  35.197  45.396  0.00  0.00    +0.000 NA
ATOM      7  H   UNL     1      46.557  35.269  42.601  0.00  0.00    +0.000 HD
ATOM      8  H   UNL     1      44.944  33.630  46.855  0.00  0.00    +0.000 HD
ENDROOT
BRANCH   3  10
ATOM      9  C   UNL     1      48.684  33.773  42.579  0.00  0.00    +0.000 C 
ATOM     10  C   UNL     1      47.703  32.931  43.316  0.00  0.00    +0.000 C 
ATOM     11  O   UNL     1      47.163  32.150  42.252  0.00  0.00    +0.000 OA
ATOM     12  C   UNL     1      48.309  31.677  41.637  0.00  0.00    +0.000 C 
ATOM     13  C   UNL     1      49.427  32.645  41.836  0.00  0.00    +0.000 C 
ATOM     14  H   UNL     1      48.181  34.392  41.803  0.00  0.00    +0.000 HD
ATOM     15  H   UNL     1      48.266  32.160  43.919  0.00  0.00    +0.000 HD
ATOM     16  H   UNL     1      48.095  31.518  40.543  0.00  0.00    +0.000 HD
ATOM     17  H   UNL     1      48.548  30.688  42.052  0.00  0.00    +0.000 HD
ATOM     18  H   UNL     1      50.217  32.226  42.488  0.00  0.00    +0.000 HD
BRANCH   9  19
ATOM     19  O   UNL     1      49.492  34.537  43.365  0.00  0.00    +0.000 OA
ATOM     20  H   UNL     1      49.953  33.942  44.002  0.00  0.00    +0.000 HD
ENDBRANCH   9  19
BRANCH  13  21
ATOM     21  O   UNL     1      49.944  33.164  40.650  0.00  0.00    +0.000 OA
ATOM     22  H   UNL     1      49.185  33.709  40.266  0.00  0.00    +0.000 HD
ENDBRANCH  13  21
ENDBRANCH   3  10
BRANCH   1  23
ATOM     23  C   UNL     1      44.808  36.901  43.616  0.00  0.00    +0.000 C 
ATOM     24  H   UNL     1      45.370  37.122  42.701  0.00  0.00    +0.000 HD
ATOM     25  H   UNL     1      43.725  36.767  43.409  0.00  0.00    +0.000 HD
BRANCH  23  28
ATOM     26  C   UNL     1      45.335  39.266  44.488  0.00  0.00    +0.000 C 
ATOM     27  O   UNL     1      45.618  39.604  43.283  0.00  0.00    +0.000 OA
ATOM     28  N   UNL     1      44.926  37.925  44.619  0.00  0.00    +0.000 N 
ATOM     29  H   UNL     1      44.661  37.593  45.567  0.00  0.00    +0.000 HD
BRANCH  26  32
ATOM     30  F   UNL     1      45.575  42.130  44.144  0.00  0.00    +0.000 F 
ATOM     31  C   UNL     1      45.582  41.631  45.397  0.00  0.00    +0.000 A 
ATOM     32  C   UNL     1      45.466  40.267  45.528  0.00  0.00    +0.000 A 
ATOM     33  C   UNL     1      45.483  39.846  46.849  0.00  0.00    +0.000 A 
ATOM     34  H   UNL     1      45.399  38.786  47.099  0.00  0.00    +0.000 HD
ATOM     35  C   UNL     1      45.603  40.707  47.916  0.00  0.00    +0.000 A 
ATOM     36  H   UNL     1      45.611  40.325  48.926  0.00  0.00    +0.000 HD
ATOM     37  C   UNL     1      45.716  42.063  47.706  0.00  0.00    +0.000 A 
ATOM     38  C   UNL     1      45.706  42.546  46.416  0.00  0.00    +0.000 A 
ENDBRANCH  26  32
ENDBRANCH  23  28
ENDBRANCH   1  23
TORSDOF 6
