
 OpenBabel03242521433D

 38 40  0  0  1  0  0  0  0  0999 V2000
   45.4990   35.7300   43.8020 C   0  0  0  0  0  0  0  0  0  0  0  0
   46.4970   34.8970   43.3000 C   0  0  0  0  0  0  0  0  0  0  0  0
   46.8420   33.7360   43.9810 C   0  0  0  0  0  0  0  0  0  0  0  0
   46.1810   33.4780   45.1060 N   0  0  0  0  0  0  0  0  0  0  0  0
   45.2150   34.2820   45.5930 C   0  0  0  0  0  0  0  0  0  0  0  0
   44.8610   35.4120   44.9520 N   0  0  0  0  0  0  0  0  0  0  0  0
   46.9320   35.2360   42.3920 H   0  0  0  0  0  0  0  0  0  0  0  0
   44.7620   33.9480   46.5170 H   0  0  0  0  0  0  0  0  0  0  0  0
   48.9180   33.6700   42.6150 C   0  0  2  0  0  0  0  0  0  0  0  0
   47.8950   32.9200   43.3940 C   0  0  2  0  0  0  0  0  0  0  0  0
   47.4340   31.9920   42.4140 O   0  0  0  0  0  0  0  0  0  0  0  0
   48.6230   31.4580   41.9480 C   0  0  0  0  0  0  0  0  0  0  0  0
   49.7180   32.4630   42.0860 C   0  0  1  0  0  0  0  0  0  0  0  0
   48.4650   34.1680   41.7290 H   0  0  0  0  0  0  0  0  0  0  0  0
   48.4200   32.2490   44.1340 H   0  0  0  0  0  0  0  0  0  0  0  0
   48.4860   31.1470   40.8750 H   0  0  0  0  0  0  0  0  0  0  0  0
   48.8400   30.5400   42.5110 H   0  0  0  0  0  0  0  0  0  0  0  0
   50.4640   32.1500   42.8410 H   0  0  0  0  0  0  0  0  0  0  0  0
   49.6640   34.5470   43.3410 O   0  0  0  0  0  0  0  0  0  0  0  0
   50.0850   34.0530   44.0830 H   0  0  0  0  0  0  0  0  0  0  0  0
   50.3110   32.8230   40.8770 O   0  0  0  0  0  0  0  0  0  0  0  0
   49.5770   33.2970   40.3720 H   0  0  0  0  0  0  0  0  0  0  0  0
   45.1380   36.9860   43.0770 C   0  0  0  0  0  0  0  0  0  0  0  0
   45.9500   37.2630   42.3940 H   0  0  0  0  0  0  0  0  0  0  0  0
   44.1960   36.7750   42.5270 H   0  0  0  0  0  0  0  0  0  0  0  0
   45.2610   39.3430   44.1060 C   0  0  0  0  0  0  0  0  0  0  0  0
   45.9950   39.6950   43.1150 O   0  0  0  0  0  0  0  0  0  0  0  0
   44.8430   38.0000   44.0530 N   0  0  0  0  0  0  0  0  0  0  0  0
   44.2260   37.6570   44.8160 H   0  0  0  0  0  0  0  0  0  0  0  0
   44.6550   42.1440   43.6990 F   0  0  0  0  0  0  0  0  0  0  0  0
   44.6740   41.6680   44.9610 C   0  0  0  0  0  0  0  0  0  0  0  0
   44.9630   40.3340   45.1220 C   0  0  0  0  0  0  0  0  0  0  0  0
   44.9580   39.9350   46.4500 C   0  0  0  0  0  0  0  0  0  0  0  0
   45.1740   38.8990   46.7220 H   0  0  0  0  0  0  0  0  0  0  0  0
   44.6910   40.7880   47.4960 C   0  0  0  0  0  0  0  0  0  0  0  0
   44.7000   40.4240   48.5130 H   0  0  0  0  0  0  0  0  0  0  0  0
   44.4080   42.1140   47.2550 C   0  0  0  0  0  3  0  0  0  0  0  0
   44.3970   42.5750   45.9580 C   0  0  0  0  0  3  0  0  0  0  0  0
  1  6  1  0  0  0  0
  2  1  2  0  0  0  0
  2  3  1  0  0  0  0
  3  4  2  0  0  0  0
  4  5  1  0  0  0  0
  5  8  1  0  0  0  0
  6  5  2  0  0  0  0
  7  2  1  0  0  0  0
  9 14  1  6  0  0  0
  9 19  1  0  0  0  0
  9 10  1  0  0  0  0
 10  3  1  0  0  0  0
 10 15  1  1  0  0  0
 11 10  1  0  0  0  0
 12 13  1  0  0  0  0
 12 11  1  0  0  0  0
 12 17  1  0  0  0  0
 13  9  1  0  0  0  0
 13 18  1  1  0  0  0
 16 12  1  0  0  0  0
 19 20  1  0  0  0  0
 21 13  1  0  0  0  0
 22 21  1  0  0  0  0
 23  1  1  0  0  0  0
 23 28  1  0  0  0  0
 24 23  1  0  0  0  0
 25 23  1  0  0  0  0
 26 32  1  0  0  0  0
 27 26  2  0  0  0  0
 28 26  1  0  0  0  0
 28 29  1  0  0  0  0
 30 31  1  0  0  0  0
 31 32  2  0  0  0  0
 31 38  1  0  0  0  0
 32 33  1  0  0  0  0
 33 34  1  0  0  0  0
 33 35  2  0  0  0  0
 35 36  1  0  0  0  0
 37 35  1  0  0  0  0
 38 37  2  0  0  0  0
M  END
>  <minimizedAffinity>
-3.99071932

>  <minimizedRMSD>
0.724514842

$$$$
