
 OpenBabel03252503583D

 34 37  0  0  0  0  0  0  0  0999 V2000
   47.3700   34.7970   42.6740 C   0  0  0  0  0  0  0  0  0  0  0  0
   46.3210   35.5500   42.1910 C   0  0  0  0  0  0  0  0  0  0  0  0
   45.0920   35.3880   42.8140 C   0  0  0  0  0  0  0  0  0  0  0  0
   44.9810   34.5130   43.8510 N   0  0  0  0  0  0  0  0  0  0  0  0
   46.0610   33.7940   44.2840 C   0  0  0  0  0  0  0  0  0  0  0  0
   47.2550   33.9340   43.6980 N   0  0  0  0  0  0  0  0  0  0  0  0
   46.3970   36.2490   41.3680 H   0  0  0  0  0  0  0  0  0  0  0  0
   44.2020   35.9310   42.5140 H   0  0  0  0  0  0  0  0  0  0  0  0
   46.0840   31.5000   45.1010 C   0  0  0  0  0  0  0  0  0  0  0  0
   45.9270   32.8540   45.3970 C   0  0  0  0  0  0  0  0  0  0  0  0
   45.6520   33.2590   46.6920 C   0  0  0  0  0  0  0  0  0  0  0  0
   45.5400   32.2880   47.6760 C   0  0  0  0  0  0  0  0  0  0  0  0
   45.2900   32.3510   48.9820 N   0  0  0  0  0  0  0  0  0  0  0  0
   45.2750   31.1420   49.5470 C   0  0  0  0  0  0  0  0  0  0  0  0
   45.5280   30.2240   48.5660 C   0  0  0  0  0  0  0  0  0  0  0  0
   45.6940   30.9360   47.3920 C   0  0  0  0  0  0  0  0  0  0  0  0
   45.9690   30.5480   46.0910 C   0  0  0  0  0  0  0  0  0  0  0  0
   46.3000   31.0820   44.1250 H   0  0  0  0  0  0  0  0  0  0  0  0
   45.5360   34.3120   46.8880 H   0  0  0  0  0  0  0  0  0  0  0  0
   45.1270   33.2570   49.4950 H   0  0  0  0  0  0  0  0  0  0  0  0
   45.0930   30.9600   50.5920 H   0  0  0  0  0  0  0  0  0  0  0  0
   45.5920   29.1310   48.6550 H   0  0  0  0  0  0  0  0  0  0  0  0
   46.0790   29.4840   45.9300 H   0  0  0  0  0  0  0  0  0  0  0  0
   48.6390   35.0040   41.9840 C   0  0  0  0  0  0  0  0  0  0  0  0
   49.1220   36.1230   41.6430 O   0  0  0  0  0  0  0  0  0  0  0  0
   47.8330   33.5200   39.8290 F   0  0  0  0  0  0  0  0  0  0  0  0
   48.9360   33.1450   40.5560 C   0  0  0  0  0  0  0  0  0  0  0  0
   49.4290   33.8170   41.6560 C   0  0  0  0  0  0  0  0  0  0  0  0
   50.5480   33.3470   42.3120 C   0  0  0  0  0  0  0  0  0  0  0  0
   50.8570   33.9310   43.1510 H   0  0  0  0  0  0  0  0  0  0  0  0
   51.1720   32.2010   41.8590 C   0  0  0  0  0  0  0  0  0  0  0  0
   52.0410   31.8450   42.3770 H   0  0  0  0  0  0  0  0  0  0  0  0
   50.6610   31.5340   40.7450 C   0  0  0  0  0  0  0  0  0  0  0  0
   49.5310   31.9820   40.0610 C   0  0  0  0  0  0  0  0  0  0  0  0
  1  6  1  0  0  0  0
  2  1  2  0  0  0  0
  2  3  1  0  0  0  0
  3  4  2  0  0  0  0
  4  5  1  0  0  0  0
  5 10  1  0  0  0  0
  6  5  2  0  0  0  0
  7  2  1  0  0  0  0
  8  3  1  0  0  0  0
  9 10  2  0  0  0  0
  9 17  1  0  0  0  0
 10 11  1  0  0  0  0
 11 19  1  0  0  0  0
 11 12  2  0  0  0  0
 12 13  1  0  0  0  0
 13 20  1  0  0  0  0
 13 14  1  0  0  0  0
 14 21  1  0  0  0  0
 15 22  1  0  0  0  0
 15 14  2  0  0  0  0
 16 12  1  0  0  0  0
 16 15  1  0  0  0  0
 17 16  2  0  0  0  0
 18  9  1  0  0  0  0
 23 17  1  0  0  0  0
 24  1  1  0  0  0  0
 25 24  2  0  0  0  0
 26 27  1  0  0  0  0
 27 28  1  0  0  0  0
 28 24  1  0  0  0  0
 28 29  2  0  0  0  0
 29 30  1  0  0  0  0
 31 29  1  0  0  0  0
 31 32  1  0  0  0  0
 33 31  2  0  0  0  0
 34 27  2  0  0  0  0
 34 33  1  0  0  0  0
M  END
>  <minimizedAffinity>
-6.59349442

>  <minimizedRMSD>
1.66851115

$$$$
