
 OpenBabel03252507593D

 29 31  0  0  1  0  0  0  0  0999 V2000
   46.3110   34.6230   43.3210 C   0  0  0  0  0  0  0  0  0  0  0  0
   45.3760   35.6690   43.5720 C   0  0  0  0  0  0  0  0  0  0  0  0
   44.6770   35.5760   44.7730 C   0  0  0  0  0  0  0  0  0  0  0  0
   44.9190   34.5330   45.6010 N   0  0  0  0  0  0  0  0  0  0  0  0
   45.8400   33.5600   45.2870 C   0  0  0  0  0  0  0  0  0  0  0  0
   46.5380   33.5820   44.1700 N   0  0  0  0  0  0  0  0  0  0  0  0
   45.2590   36.4570   42.8430 H   0  0  0  0  0  0  0  0  0  0  0  0
   43.9570   36.3490   45.0030 H   0  0  0  0  0  0  0  0  0  0  0  0
   46.0560   32.4510   46.2580 C   0  0  1  0  0  0  0  0  0  0  0  0
   46.8410   32.7250   47.5200 C   0  0  0  0  0  0  0  0  0  0  0  0
   45.3440   32.6080   47.5450 C   0  0  1  0  0  0  0  0  0  0  0  0
   46.1420   31.4560   45.8040 H   0  0  0  0  0  0  0  0  0  0  0  0
   47.3680   31.8380   47.9210 H   0  0  0  0  0  0  0  0  0  0  0  0
   47.3460   33.7000   47.6290 H   0  0  0  0  0  0  0  0  0  0  0  0
   44.8820   31.7260   48.0200 H   0  0  0  0  0  0  0  0  0  0  0  0
   44.7070   33.8920   47.8590 N   0  0  0  0  0  0  0  0  0  0  0  0
   45.3870   34.6780   47.9300 H   0  0  0  0  0  0  0  0  0  0  0  0
   44.3140   33.7890   48.8220 H   0  0  0  0  0  0  0  0  0  0  0  0
   47.0480   34.7310   42.0730 C   0  0  0  0  0  0  0  0  0  0  0  0
   47.8670   35.6920   41.8370 O   0  0  0  0  0  0  0  0  0  0  0  0
   44.7570   34.9250   40.6010 F   0  0  0  0  0  0  0  0  0  0  0  0
   45.5990   33.8590   40.4290 C   0  0  0  0  0  0  0  0  0  0  0  0
   46.7800   33.6570   41.1140 C   0  0  0  0  0  0  0  0  0  0  0  0
   47.5530   32.5590   40.8700 C   0  0  0  0  0  0  0  0  0  0  0  0
   48.4530   32.4780   41.4450 H   0  0  0  0  0  0  0  0  0  0  0  0
   47.1300   31.6370   39.9110 C   0  0  0  0  0  0  0  0  0  0  0  0
   47.8000   30.8020   39.7840 H   0  0  0  0  0  0  0  0  0  0  0  0
   45.9630   31.8200   39.2230 C   0  0  0  0  0  3  0  0  0  0  0  0
   45.1890   32.9280   39.4730 C   0  0  0  0  0  3  0  0  0  0  0  0
  1  2  2  0  0  0  0
  1  6  1  0  0  0  0
  2  3  1  0  0  0  0
  3  8  1  0  0  0  0
  3  4  2  0  0  0  0
  5  4  1  0  0  0  0
  5  9  1  0  0  0  0
  6  5  2  0  0  0  0
  7  2  1  0  0  0  0
  9 12  1  6  0  0  0
  9 10  1  0  0  0  0
  9 11  1  0  0  0  0
 10 11  1  0  0  0  0
 10 14  1  0  0  0  0
 10 13  1  0  0  0  0
 11 16  1  0  0  0  0
 11 15  1  1  0  0  0
 16 17  1  0  0  0  0
 16 18  1  0  0  0  0
 19  1  1  0  0  0  0
 20 19  2  0  0  0  0
 22 21  1  0  0  0  0
 22 23  1  0  0  0  0
 23 19  1  0  0  0  0
 24 23  2  0  0  0  0
 24 25  1  0  0  0  0
 26 24  1  0  0  0  0
 27 26  1  0  0  0  0
 28 29  1  0  0  0  0
 28 26  2  0  0  0  0
 29 22  2  0  0  0  0
M  END
>  <minimizedAffinity>
-5.34866381

>  <minimizedRMSD>
1.03759587

$$$$
