
 OpenBabel03252502263D

 35 37  0  0  0  0  0  0  0  0999 V2000
   45.1960   34.3990   41.0830 C   0  0  0  0  0  0  0  0  0  0  0  0
   45.5200   35.0410   42.2720 C   0  0  0  0  0  0  0  0  0  0  0  0
   46.8520   35.3050   42.5440 C   0  0  0  0  0  0  0  0  0  0  0  0
   47.8240   34.9280   41.6320 C   0  0  0  0  0  0  0  0  0  0  0  0
   47.5230   34.2940   40.4540 C   0  0  0  0  0  0  0  0  0  0  0  0
   46.1670   34.0370   40.2000 C   0  0  0  0  0  0  0  0  0  0  0  0
   44.7670   35.3350   42.9800 H   0  0  0  0  0  0  0  0  0  0  0  0
   47.2000   35.7980   43.4390 H   0  0  0  0  0  0  0  0  0  0  0  0
   48.8960   35.1000   41.7720 H   0  0  0  0  0  0  0  0  0  0  0  0
   48.2700   33.9920   39.7310 H   0  0  0  0  0  0  0  0  0  0  0  0
   41.5180   34.7590   40.3410 C   0  0  0  0  0  0  0  0  0  0  0  0
   42.8610   35.1180   40.5320 C   0  0  0  0  0  0  0  0  0  0  0  0
   43.7880   34.1540   40.8580 C   0  0  0  0  0  0  0  0  0  0  0  0
   43.3190   32.8830   40.9750 N   0  0  0  0  0  0  0  0  0  0  0  0
   42.0270   32.5300   40.7920 C   0  0  0  0  0  0  0  0  0  0  0  0
   41.1210   33.4780   40.4730 N   0  0  0  0  0  0  0  0  0  0  0  0
   43.1970   36.1320   40.4320 H   0  0  0  0  0  0  0  0  0  0  0  0
   41.7760   31.4870   40.9130 H   0  0  0  0  0  0  0  0  0  0  0  0
   40.5100   35.7860   39.9920 C   0  0  0  0  0  0  0  0  0  0  0  0
   39.2990   35.1220   39.7600 F   0  0  0  0  0  0  0  0  0  0  0  0
   40.8870   36.3100   38.7710 F   0  0  0  0  0  0  0  0  0  0  0  0
   40.3470   36.7370   40.9600 F   0  0  0  0  0  0  0  0  0  0  0  0
   45.8890   32.1310   38.4330 C   0  0  0  0  0  0  0  0  0  0  0  0
   46.5610   31.2090   38.9370 O   0  0  0  0  0  0  0  0  0  0  0  0
   45.7360   33.4110   39.0180 N   0  0  0  0  0  0  0  0  0  0  0  0
   45.2090   34.1900   38.5670 H   0  0  0  0  0  0  0  0  0  0  0  0
   46.8450   32.6820   35.7200 F   0  0  0  0  0  0  0  0  0  0  0  0
   45.6830   32.0220   35.8820 C   0  0  0  0  0  0  0  0  0  0  0  0
   45.2600   31.7900   37.1680 C   0  0  0  0  0  0  0  0  0  0  0  0
   44.0410   31.1070   37.1650 C   0  0  0  0  0  0  0  0  0  0  0  0
   43.5430   30.8320   38.1070 H   0  0  0  0  0  0  0  0  0  0  0  0
   43.3490   30.7150   36.0410 C   0  0  0  0  0  0  0  0  0  0  0  0
   42.4120   30.1900   36.1140 H   0  0  0  0  0  0  0  0  0  0  0  0
   43.8510   30.9900   34.8100 C   0  0  0  0  0  0  0  0  0  0  0  0
   45.0400   31.6560   34.7320 C   0  0  0  0  0  0  0  0  0  0  0  0
  1  2  1  0  0  0  0
  2  3  2  0  0  0  0
  2  7  1  0  0  0  0
  3  8  1  0  0  0  0
  4  9  1  0  0  0  0
  4  3  1  0  0  0  0
  5  4  2  0  0  0  0
  6  5  1  0  0  0  0
  6  1  2  0  0  0  0
 10  5  1  0  0  0  0
 11 16  2  0  0  0  0
 11 12  1  0  0  0  0
 12 13  2  0  0  0  0
 13 14  1  0  0  0  0
 13  1  1  0  0  0  0
 15 18  1  0  0  0  0
 15 14  2  0  0  0  0
 16 15  1  0  0  0  0
 17 12  1  0  0  0  0
 19 11  1  0  0  0  0
 19 22  1  0  0  0  0
 20 19  1  0  0  0  0
 21 19  1  0  0  0  0
 23 24  2  0  0  0  0
 23 25  1  0  0  0  0
 25  6  1  0  0  0  0
 26 25  1  0  0  0  0
 27 28  1  0  0  0  0
 28 29  1  0  0  0  0
 29 23  1  0  0  0  0
 30 29  2  0  0  0  0
 30 31  1  0  0  0  0
 32 33  1  0  0  0  0
 32 30  1  0  0  0  0
 34 32  2  0  0  0  0
 35 34  1  0  0  0  0
 35 28  2  0  0  0  0
M  END
>  <minimizedAffinity>
-6.22318554

>  <minimizedRMSD>
0.821598768

$$$$
