
 OpenBabel03252507593D

 29 31  0  0  1  0  0  0  0  0999 V2000
   47.4200   34.2510   43.2730 C   0  0  0  0  0  0  0  0  0  0  0  0
   46.2580   35.0120   42.9500 C   0  0  0  0  0  0  0  0  0  0  0  0
   45.1320   34.7530   43.7270 C   0  0  0  0  0  0  0  0  0  0  0  0
   45.2070   33.8240   44.7090 N   0  0  0  0  0  0  0  0  0  0  0  0
   46.3670   33.1280   44.9600 C   0  0  0  0  0  0  0  0  0  0  0  0
   47.4700   33.3210   44.2660 N   0  0  0  0  0  0  0  0  0  0  0  0
   46.3060   35.7300   42.1450 H   0  0  0  0  0  0  0  0  0  0  0  0
   44.2300   35.3080   43.5160 H   0  0  0  0  0  0  0  0  0  0  0  0
   46.3680   32.1310   46.0670 C   0  0  1  0  0  0  0  0  0  0  0  0
   47.0040   32.5010   47.3860 C   0  0  0  0  0  0  0  0  0  0  0  0
   45.5120   32.4840   47.2200 C   0  0  1  0  0  0  0  0  0  0  0  0
   46.4320   31.0860   45.7390 H   0  0  0  0  0  0  0  0  0  0  0  0
   47.4030   31.6360   47.9500 H   0  0  0  0  0  0  0  0  0  0  0  0
   47.5670   33.4480   47.4560 H   0  0  0  0  0  0  0  0  0  0  0  0
   44.9250   31.6970   47.7210 H   0  0  0  0  0  0  0  0  0  0  0  0
   44.9440   33.8350   47.3020 N   0  0  0  0  0  0  0  0  0  0  0  0
   45.6700   34.5790   47.3790 H   0  0  0  0  0  0  0  0  0  0  0  0
   44.4250   33.8730   48.2080 H   0  0  0  0  0  0  0  0  0  0  0  0
   48.5960   34.5360   42.4680 C   0  0  0  0  0  0  0  0  0  0  0  0
   49.6070   35.1780   42.9290 O   0  0  0  0  0  0  0  0  0  0  0  0
   49.4720   31.9850   42.0410 F   0  0  0  0  0  0  0  0  0  0  0  0
   48.9970   32.7340   40.9990 C   0  0  0  0  0  0  0  0  0  0  0  0
   48.5290   34.0290   41.0950 C   0  0  0  0  0  0  0  0  0  0  0  0
   48.0740   34.6940   39.9930 C   0  0  0  0  0  0  0  0  0  0  0  0
   47.7290   35.6970   40.1560 H   0  0  0  0  0  0  0  0  0  0  0  0
   48.0890   34.0440   38.7600 C   0  0  0  0  0  0  0  0  0  0  0  0
   47.7120   34.6430   37.9470 H   0  0  0  0  0  0  0  0  0  0  0  0
   48.5480   32.7600   38.6440 C   0  0  0  0  0  3  0  0  0  0  0  0
   49.0050   32.0950   39.7560 C   0  0  0  0  0  3  0  0  0  0  0  0
  1  6  1  0  0  0  0
  2  1  2  0  0  0  0
  2  3  1  0  0  0  0
  3  4  2  0  0  0  0
  4  5  1  0  0  0  0
  5  9  1  0  0  0  0
  6  5  2  0  0  0  0
  7  2  1  0  0  0  0
  8  3  1  0  0  0  0
  9 12  1  6  0  0  0
  9 11  1  0  0  0  0
  9 10  1  0  0  0  0
 10 14  1  0  0  0  0
 10 13  1  0  0  0  0
 11 16  1  0  0  0  0
 11 10  1  0  0  0  0
 11 15  1  1  0  0  0
 16 17  1  0  0  0  0
 16 18  1  0  0  0  0
 19 20  2  0  0  0  0
 19  1  1  0  0  0  0
 22 23  1  0  0  0  0
 22 21  1  0  0  0  0
 23 19  1  0  0  0  0
 24 25  1  0  0  0  0
 24 23  2  0  0  0  0
 26 24  1  0  0  0  0
 27 26  1  0  0  0  0
 28 26  2  0  0  0  0
 28 29  1  0  0  0  0
 29 22  2  0  0  0  0
M  END
>  <minimizedAffinity>
-5.52053356

>  <minimizedRMSD>
2.22346544

$$$$
