
 OpenBabel03252503583D

 34 37  0  0  0  0  0  0  0  0999 V2000
   47.3710   34.7960   42.6740 C   0  0  0  0  0  0  0  0  0  0  0  0
   46.3210   35.5500   42.1910 C   0  0  0  0  0  0  0  0  0  0  0  0
   45.0930   35.3880   42.8140 C   0  0  0  0  0  0  0  0  0  0  0  0
   44.9820   34.5120   43.8510 N   0  0  0  0  0  0  0  0  0  0  0  0
   46.0610   33.7940   44.2840 C   0  0  0  0  0  0  0  0  0  0  0  0
   47.2560   33.9340   43.6970 N   0  0  0  0  0  0  0  0  0  0  0  0
   46.3970   36.2480   41.3680 H   0  0  0  0  0  0  0  0  0  0  0  0
   44.2030   35.9310   42.5140 H   0  0  0  0  0  0  0  0  0  0  0  0
   46.0850   31.4990   45.1010 C   0  0  0  0  0  0  0  0  0  0  0  0
   45.9280   32.8540   45.3970 C   0  0  0  0  0  0  0  0  0  0  0  0
   45.6520   33.2590   46.6920 C   0  0  0  0  0  0  0  0  0  0  0  0
   45.5400   32.2870   47.6760 C   0  0  0  0  0  0  0  0  0  0  0  0
   45.2900   32.3510   48.9820 N   0  0  0  0  0  0  0  0  0  0  0  0
   45.2750   31.1420   49.5470 C   0  0  0  0  0  0  0  0  0  0  0  0
   45.5280   30.2240   48.5660 C   0  0  0  0  0  0  0  0  0  0  0  0
   45.6950   30.9360   47.3920 C   0  0  0  0  0  0  0  0  0  0  0  0
   45.9700   30.5480   46.0910 C   0  0  0  0  0  0  0  0  0  0  0  0
   46.3020   31.0810   44.1250 H   0  0  0  0  0  0  0  0  0  0  0  0
   45.5360   34.3110   46.8870 H   0  0  0  0  0  0  0  0  0  0  0  0
   45.1260   33.2570   49.4950 H   0  0  0  0  0  0  0  0  0  0  0  0
   45.0920   30.9590   50.5920 H   0  0  0  0  0  0  0  0  0  0  0  0
   45.5930   29.1310   48.6550 H   0  0  0  0  0  0  0  0  0  0  0  0
   46.0800   29.4840   45.9300 H   0  0  0  0  0  0  0  0  0  0  0  0
   48.6400   35.0030   41.9840 C   0  0  0  0  0  0  0  0  0  0  0  0
   49.1220   36.1220   41.6420 O   0  0  0  0  0  0  0  0  0  0  0  0
   47.8340   33.5170   39.8300 F   0  0  0  0  0  0  0  0  0  0  0  0
   48.9360   33.1430   40.5560 C   0  0  0  0  0  0  0  0  0  0  0  0
   49.4300   33.8160   41.6560 C   0  0  0  0  0  0  0  0  0  0  0  0
   50.5490   33.3470   42.3120 C   0  0  0  0  0  0  0  0  0  0  0  0
   50.8580   33.9320   43.1520 H   0  0  0  0  0  0  0  0  0  0  0  0
   51.1730   32.2000   41.8610 C   0  0  0  0  0  0  0  0  0  0  0  0
   52.0430   31.8460   42.3800 H   0  0  0  0  0  0  0  0  0  0  0  0
   50.6620   31.5330   40.7480 C   0  0  0  0  0  3  0  0  0  0  0  0
   49.5320   31.9810   40.0630 C   0  0  0  0  0  3  0  0  0  0  0  0
  1  6  1  0  0  0  0
  2  1  2  0  0  0  0
  2  3  1  0  0  0  0
  3  4  2  0  0  0  0
  4  5  1  0  0  0  0
  5 10  1  0  0  0  0
  6  5  2  0  0  0  0
  7  2  1  0  0  0  0
  8  3  1  0  0  0  0
  9 10  2  0  0  0  0
  9 17  1  0  0  0  0
 10 11  1  0  0  0  0
 11 19  1  0  0  0  0
 11 12  2  0  0  0  0
 12 13  1  0  0  0  0
 13 20  1  0  0  0  0
 13 14  1  0  0  0  0
 14 21  1  0  0  0  0
 15 22  1  0  0  0  0
 15 14  2  0  0  0  0
 16 12  1  0  0  0  0
 16 15  1  0  0  0  0
 17 16  2  0  0  0  0
 18  9  1  0  0  0  0
 23 17  1  0  0  0  0
 24  1  1  0  0  0  0
 25 24  2  0  0  0  0
 26 27  1  0  0  0  0
 27 28  1  0  0  0  0
 28 24  1  0  0  0  0
 28 29  2  0  0  0  0
 29 30  1  0  0  0  0
 31 29  1  0  0  0  0
 31 32  1  0  0  0  0
 33 31  2  0  0  0  0
 34 27  2  0  0  0  0
 34 33  1  0  0  0  0
M  END
>  <minimizedAffinity>
-6.59340525

>  <minimizedRMSD>
1.65359819

$$$$
