
 OpenBabel03252507593D

 29 31  0  0  1  0  0  0  0  0999 V2000
   46.2280   34.5440   43.4420 C   0  0  0  0  0  0  0  0  0  0  0  0
   45.2820   35.5430   43.8140 C   0  0  0  0  0  0  0  0  0  0  0  0
   44.7030   35.3870   45.0710 C   0  0  0  0  0  0  0  0  0  0  0  0
   45.0610   34.3300   45.8370 N   0  0  0  0  0  0  0  0  0  0  0  0
   45.9840   33.4040   45.4060 C   0  0  0  0  0  0  0  0  0  0  0  0
   46.5720   33.4880   44.2300 N   0  0  0  0  0  0  0  0  0  0  0  0
   45.0680   36.3480   43.1260 H   0  0  0  0  0  0  0  0  0  0  0  0
   43.9810   36.1230   45.3920 H   0  0  0  0  0  0  0  0  0  0  0  0
   46.3320   32.2770   46.3150 C   0  0  1  0  0  0  0  0  0  0  0  0
   47.0210   32.5780   47.6260 C   0  0  0  0  0  0  0  0  0  0  0  0
   45.5590   32.2370   47.5760 C   0  0  1  0  0  0  0  0  0  0  0  0
   46.5830   31.3390   45.8040 H   0  0  0  0  0  0  0  0  0  0  0  0
   47.6620   31.7540   47.9950 H   0  0  0  0  0  0  0  0  0  0  0  0
   47.3670   33.6080   47.8180 H   0  0  0  0  0  0  0  0  0  0  0  0
   45.2200   31.2660   47.9740 H   0  0  0  0  0  0  0  0  0  0  0  0
   44.7240   33.3870   47.9400 N   0  0  0  0  0  0  0  0  0  0  0  0
   45.2730   34.2600   48.0910 H   0  0  0  0  0  0  0  0  0  0  0  0
   44.3180   33.1620   48.8760 H   0  0  0  0  0  0  0  0  0  0  0  0
   46.8390   34.7190   42.1350 C   0  0  0  0  0  0  0  0  0  0  0  0
   47.6530   35.6780   41.8770 O   0  0  0  0  0  0  0  0  0  0  0  0
   44.4930   35.1310   40.8010 F   0  0  0  0  0  0  0  0  0  0  0  0
   45.2520   34.0240   40.5340 C   0  0  0  0  0  0  0  0  0  0  0  0
   46.4510   33.7130   41.1430 C   0  0  0  0  0  0  0  0  0  0  0  0
   47.1370   32.5820   40.8060 C   0  0  0  0  0  0  0  0  0  0  0  0
   48.0590   32.4150   41.3270 H   0  0  0  0  0  0  0  0  0  0  0  0
   46.6050   31.7370   39.8310 C   0  0  0  0  0  0  0  0  0  0  0  0
   47.2120   30.8690   39.6280 H   0  0  0  0  0  0  0  0  0  0  0  0
   45.4190   32.0280   39.2160 C   0  0  0  0  0  3  0  0  0  0  0  0
   44.7330   33.1700   39.5590 C   0  0  0  0  0  3  0  0  0  0  0  0
  1  2  2  0  0  0  0
  1  6  1  0  0  0  0
  2  3  1  0  0  0  0
  3  8  1  0  0  0  0
  3  4  2  0  0  0  0
  5  4  1  0  0  0  0
  5  9  1  0  0  0  0
  6  5  2  0  0  0  0
  7  2  1  0  0  0  0
  9 12  1  6  0  0  0
  9 11  1  0  0  0  0
  9 10  1  0  0  0  0
 10 14  1  0  0  0  0
 10 13  1  0  0  0  0
 11 10  1  0  0  0  0
 11 16  1  0  0  0  0
 11 15  1  1  0  0  0
 16 17  1  0  0  0  0
 16 18  1  0  0  0  0
 19  1  1  0  0  0  0
 20 19  2  0  0  0  0
 22 21  1  0  0  0  0
 22 23  1  0  0  0  0
 23 19  1  0  0  0  0
 24 23  2  0  0  0  0
 24 25  1  0  0  0  0
 26 24  1  0  0  0  0
 27 26  1  0  0  0  0
 28 29  1  0  0  0  0
 28 26  2  0  0  0  0
 29 22  2  0  0  0  0
M  END
>  <minimizedAffinity>
-5.37925911

>  <minimizedRMSD>
0.928125501

$$$$
