
 OpenBabel03252508013D

 29 31  0  0  1  0  0  0  0  0999 V2000
   37.3030   28.6000   41.7060 C   0  0  0  0  0  0  0  0  0  0  0  0
   36.5430   28.2810   40.5440 C   0  0  0  0  0  0  0  0  0  0  0  0
   36.6950   29.1500   39.4670 C   0  0  0  0  0  0  0  0  0  0  0  0
   37.5270   30.2110   39.5850 N   0  0  0  0  0  0  0  0  0  0  0  0
   38.2280   30.4540   40.7440 C   0  0  0  0  0  0  0  0  0  0  0  0
   38.1350   29.6750   41.8020 N   0  0  0  0  0  0  0  0  0  0  0  0
   35.9070   27.4080   40.5540 H   0  0  0  0  0  0  0  0  0  0  0  0
   36.1360   28.9450   38.5650 H   0  0  0  0  0  0  0  0  0  0  0  0
   39.1330   31.6370   40.7890 C   0  0  1  0  0  0  0  0  0  0  0  0
   39.3130   32.4690   39.5400 C   0  0  0  0  0  0  0  0  0  0  0  0
   38.4490   32.9430   40.6740 C   0  0  1  0  0  0  0  0  0  0  0  0
   39.9900   31.5310   41.4650 H   0  0  0  0  0  0  0  0  0  0  0  0
   40.2940   32.9790   39.4790 H   0  0  0  0  0  0  0  0  0  0  0  0
   38.8760   32.1070   38.5940 H   0  0  0  0  0  0  0  0  0  0  0  0
   38.7920   33.7900   41.2920 H   0  0  0  0  0  0  0  0  0  0  0  0
   37.0320   32.9790   40.2950 N   0  0  0  0  0  0  0  0  0  0  0  0
   36.8550   32.5970   39.3420 H   0  0  0  0  0  0  0  0  0  0  0  0
   36.7790   33.9900   40.2290 H   0  0  0  0  0  0  0  0  0  0  0  0
   37.1520   27.6830   42.8230 C   0  0  0  0  0  0  0  0  0  0  0  0
   36.1290   27.7050   43.5990 O   0  0  0  0  0  0  0  0  0  0  0  0
   36.8310   25.1970   41.7380 F   0  0  0  0  0  0  0  0  0  0  0  0
   37.9850   25.5180   42.4000 C   0  0  0  0  0  0  0  0  0  0  0  0
   38.2580   26.7370   42.9860 C   0  0  0  0  0  0  0  0  0  0  0  0
   39.4430   26.9580   43.6250 C   0  0  0  0  0  0  0  0  0  0  0  0
   39.5750   27.9320   44.0530 H   0  0  0  0  0  0  0  0  0  0  0  0
   40.3820   25.9280   43.6790 C   0  0  0  0  0  0  0  0  0  0  0  0
   41.2880   26.1900   44.2020 H   0  0  0  0  0  0  0  0  0  0  0  0
   40.1320   24.7120   43.1040 C   0  0  0  0  0  3  0  0  0  0  0  0
   38.9350   24.4950   42.4610 C   0  0  0  0  0  3  0  0  0  0  0  0
  1  6  1  0  0  0  0
  1 19  1  0  0  0  0
  2  7  1  0  0  0  0
  2  1  2  0  0  0  0
  3  4  2  0  0  0  0
  3  2  1  0  0  0  0
  4  5  1  0  0  0  0
  5  9  1  0  0  0  0
  5  6  2  0  0  0  0
  8  3  1  0  0  0  0
  9 12  1  1  0  0  0
 10 11  1  0  0  0  0
 10  9  1  0  0  0  0
 11  9  1  0  0  0  0
 11 15  1  1  0  0  0
 13 10  1  0  0  0  0
 14 10  1  0  0  0  0
 16 11  1  0  0  0  0
 17 16  1  0  0  0  0
 18 16  1  0  0  0  0
 19 23  1  0  0  0  0
 19 20  2  0  0  0  0
 21 22  1  0  0  0  0
 22 29  2  0  0  0  0
 22 23  1  0  0  0  0
 23 24  2  0  0  0  0
 24 26  1  0  0  0  0
 24 25  1  0  0  0  0
 26 27  1  0  0  0  0
 28 26  2  0  0  0  0
 29 28  1  0  0  0  0
M  END
>  <minimizedAffinity>
-5.59996462

$$$$

 OpenBabel03252508013D

 29 31  0  0  1  0  0  0  0  0999 V2000
   38.2860   29.2040   42.2140 C   0  0  0  0  0  0  0  0  0  0  0  0
   39.2540   29.9670   42.9290 C   0  0  0  0  0  0  0  0  0  0  0  0
   39.7970   31.0500   42.2410 C   0  0  0  0  0  0  0  0  0  0  0  0
   39.3850   31.3030   40.9770 N   0  0  0  0  0  0  0  0  0  0  0  0
   38.4440   30.5180   40.3520 C   0  0  0  0  0  0  0  0  0  0  0  0
   37.8880   29.4780   40.9410 N   0  0  0  0  0  0  0  0  0  0  0  0
   39.5120   29.6790   43.9370 H   0  0  0  0  0  0  0  0  0  0  0  0
   40.5350   31.6550   42.7470 H   0  0  0  0  0  0  0  0  0  0  0  0
   38.0370   30.8710   38.9630 C   0  0  1  0  0  0  0  0  0  0  0  0
   36.5670   30.8980   38.6140 C   0  0  0  0  0  0  0  0  0  0  0  0
   37.3390   32.1690   38.8340 C   0  0  1  0  0  0  0  0  0  0  0  0
   38.7450   30.5580   38.1860 H   0  0  0  0  0  0  0  0  0  0  0  0
   36.3550   30.6800   37.5500 H   0  0  0  0  0  0  0  0  0  0  0  0
   35.8400   30.5290   39.3570 H   0  0  0  0  0  0  0  0  0  0  0  0
   37.5580   32.8190   37.9710 H   0  0  0  0  0  0  0  0  0  0  0  0
   36.8950   32.8660   40.0460 N   0  0  0  0  0  0  0  0  0  0  0  0
   36.1860   32.3300   40.5900 H   0  0  0  0  0  0  0  0  0  0  0  0
   36.3910   33.7200   39.7170 H   0  0  0  0  0  0  0  0  0  0  0  0
   37.7130   28.0840   42.9410 C   0  0  0  0  0  0  0  0  0  0  0  0
   36.5790   28.1580   43.5380 O   0  0  0  0  0  0  0  0  0  0  0  0
   36.9300   26.0640   41.2780 F   0  0  0  0  0  0  0  0  0  0  0  0
   38.0450   25.9220   42.0590 C   0  0  0  0  0  0  0  0  0  0  0  0
   38.5340   26.8710   42.9330 C   0  0  0  0  0  0  0  0  0  0  0  0
   39.6590   26.6330   43.6690 C   0  0  0  0  0  0  0  0  0  0  0  0
   39.9700   27.4220   44.3240 H   0  0  0  0  0  0  0  0  0  0  0  0
   40.3110   25.4080   43.5270 C   0  0  0  0  0  0  0  0  0  0  0  0
   41.1880   25.3060   44.1450 H   0  0  0  0  0  0  0  0  0  0  0  0
   39.8430   24.4540   42.6650 C   0  0  0  0  0  3  0  0  0  0  0  0
   38.7090   24.7000   41.9250 C   0  0  0  0  0  3  0  0  0  0  0  0
  1  2  1  0  0  0  0
  1 19  1  0  0  0  0
  2  7  1  0  0  0  0
  3  8  1  0  0  0  0
  3  2  2  0  0  0  0
  4  3  1  0  0  0  0
  5  6  1  0  0  0  0
  5  4  2  0  0  0  0
  6  1  2  0  0  0  0
  9 12  1  6  0  0  0
  9  5  1  0  0  0  0
 10 11  1  0  0  0  0
 10  9  1  0  0  0  0
 10 14  1  0  0  0  0
 11 15  1  6  0  0  0
 11  9  1  0  0  0  0
 11 16  1  0  0  0  0
 13 10  1  0  0  0  0
 16 17  1  0  0  0  0
 18 16  1  0  0  0  0
 19 20  2  0  0  0  0
 21 22  1  0  0  0  0
 22 23  1  0  0  0  0
 23 19  1  0  0  0  0
 23 24  2  0  0  0  0
 24 25  1  0  0  0  0
 26 24  1  0  0  0  0
 26 27  1  0  0  0  0
 28 26  2  0  0  0  0
 29 22  2  0  0  0  0
 29 28  1  0  0  0  0
M  END
>  <minimizedAffinity>
-5.47686338

$$$$

 OpenBabel03252508013D

 29 31  0  0  1  0  0  0  0  0999 V2000
   37.7460   28.5820   42.1810 C   0  0  0  0  0  0  0  0  0  0  0  0
   38.5740   29.2520   43.1280 C   0  0  0  0  0  0  0  0  0  0  0  0
   39.1970   30.4110   42.6700 C   0  0  0  0  0  0  0  0  0  0  0  0
   38.9850   30.8170   41.3970 N   0  0  0  0  0  0  0  0  0  0  0  0
   38.1690   30.1140   40.5400 C   0  0  0  0  0  0  0  0  0  0  0  0
   37.5480   29.0110   40.9030 N   0  0  0  0  0  0  0  0  0  0  0  0
   38.6760   28.8420   44.1220 H   0  0  0  0  0  0  0  0  0  0  0  0
   39.8340   30.9500   43.3570 H   0  0  0  0  0  0  0  0  0  0  0  0
   37.9790   30.6350   39.1580 C   0  0  1  0  0  0  0  0  0  0  0  0
   36.5750   30.8740   38.6510 C   0  0  0  0  0  0  0  0  0  0  0  0
   37.4510   32.0150   39.0830 C   0  0  1  0  0  0  0  0  0  0  0  0
   38.7370   30.3060   38.4370 H   0  0  0  0  0  0  0  0  0  0  0  0
   36.4730   30.7770   37.5530 H   0  0  0  0  0  0  0  0  0  0  0  0
   35.7250   30.5340   39.2660 H   0  0  0  0  0  0  0  0  0  0  0  0
   37.8470   32.7070   38.3210 H   0  0  0  0  0  0  0  0  0  0  0  0
   36.9430   32.6540   40.3030 N   0  0  0  0  0  0  0  0  0  0  0  0
   36.1160   32.1640   40.7060 H   0  0  0  0  0  0  0  0  0  0  0  0
   36.5830   33.5890   40.0080 H   0  0  0  0  0  0  0  0  0  0  0  0
   37.0880   27.3810   42.6670 C   0  0  0  0  0  0  0  0  0  0  0  0
   36.2070   27.4080   43.6010 O   0  0  0  0  0  0  0  0  0  0  0  0
   39.2880   26.1210   43.6800 F   0  0  0  0  0  0  0  0  0  0  0  0
   38.6310   25.5990   42.6000 C   0  0  0  0  0  0  0  0  0  0  0  0
   37.5120   26.1460   42.0040 C   0  0  0  0  0  0  0  0  0  0  0  0
   36.9270   25.5460   40.9270 C   0  0  0  0  0  0  0  0  0  0  0  0
   36.0630   26.0360   40.5250 H   0  0  0  0  0  0  0  0  0  0  0  0
   37.4790   24.3640   40.4310 C   0  0  0  0  0  0  0  0  0  0  0  0
   36.9530   23.9600   39.5810 H   0  0  0  0  0  0  0  0  0  0  0  0
   38.5860   23.8060   41.0070 C   0  0  0  0  0  3  0  0  0  0  0  0
   39.1720   24.4150   42.0930 C   0  0  0  0  0  3  0  0  0  0  0  0
  1 19  1  0  0  0  0
  1  2  1  0  0  0  0
  2  7  1  0  0  0  0
  3  2  2  0  0  0  0
  3  8  1  0  0  0  0
  4  3  1  0  0  0  0
  5  6  1  0  0  0  0
  5  4  2  0  0  0  0
  6  1  2  0  0  0  0
  9 12  1  6  0  0  0
  9  5  1  0  0  0  0
 10 11  1  0  0  0  0
 10  9  1  0  0  0  0
 10 14  1  0  0  0  0
 11 15  1  6  0  0  0
 11  9  1  0  0  0  0
 11 16  1  0  0  0  0
 13 10  1  0  0  0  0
 16 17  1  0  0  0  0
 18 16  1  0  0  0  0
 19 20  2  0  0  0  0
 22 21  1  0  0  0  0
 23 22  2  0  0  0  0
 23 19  1  0  0  0  0
 24 23  1  0  0  0  0
 25 24  1  0  0  0  0
 26 24  2  0  0  0  0
 26 28  1  0  0  0  0
 27 26  1  0  0  0  0
 28 29  2  0  0  0  0
 29 22  1  0  0  0  0
M  END
>  <minimizedAffinity>
-5.45177984

$$$$

 OpenBabel03252508013D

 29 31  0  0  1  0  0  0  0  0999 V2000
   37.0880   27.7010   41.1620 C   0  0  0  0  0  0  0  0  0  0  0  0
   36.5880   26.8360   40.1450 C   0  0  0  0  0  0  0  0  0  0  0  0
   36.5490   27.3750   38.8610 C   0  0  0  0  0  0  0  0  0  0  0  0
   36.9750   28.6450   38.6640 N   0  0  0  0  0  0  0  0  0  0  0  0
   37.4450   29.4190   39.6990 C   0  0  0  0  0  0  0  0  0  0  0  0
   37.5110   28.9760   40.9380 N   0  0  0  0  0  0  0  0  0  0  0  0
   36.2730   25.8380   40.4100 H   0  0  0  0  0  0  0  0  0  0  0  0
   36.1770   26.7530   38.0600 H   0  0  0  0  0  0  0  0  0  0  0  0
   37.9050   30.8030   39.3950 C   0  0  1  0  0  0  0  0  0  0  0  0
   36.9450   31.7670   38.7380 C   0  0  0  0  0  0  0  0  0  0  0  0
   37.2610   31.8610   40.2030 C   0  0  1  0  0  0  0  0  0  0  0  0
   38.9700   30.8850   39.1450 H   0  0  0  0  0  0  0  0  0  0  0  0
   37.4400   32.5410   38.1210 H   0  0  0  0  0  0  0  0  0  0  0  0
   35.9730   31.3850   38.3800 H   0  0  0  0  0  0  0  0  0  0  0  0
   37.8650   32.7080   40.5690 H   0  0  0  0  0  0  0  0  0  0  0  0
   36.0960   31.5220   41.0290 N   0  0  0  0  0  0  0  0  0  0  0  0
   35.2790   31.1960   40.4690 H   0  0  0  0  0  0  0  0  0  0  0  0
   35.7830   32.4180   41.4650 H   0  0  0  0  0  0  0  0  0  0  0  0
   37.1390   27.1300   42.4970 C   0  0  0  0  0  0  0  0  0  0  0  0
   36.1960   27.2950   43.3530 O   0  0  0  0  0  0  0  0  0  0  0  0
   39.2370   28.4700   43.6180 F   0  0  0  0  0  0  0  0  0  0  0  0
   39.3400   27.1330   43.3440 C   0  0  0  0  0  0  0  0  0  0  0  0
   38.3490   26.3550   42.7810 C   0  0  0  0  0  0  0  0  0  0  0  0
   38.5500   25.0250   42.5470 C   0  0  0  0  0  0  0  0  0  0  0  0
   37.7290   24.4940   42.1060 H   0  0  0  0  0  0  0  0  0  0  0  0
   39.7790   24.4590   42.8860 C   0  0  0  0  0  0  0  0  0  0  0  0
   39.8500   23.4060   42.6670 H   0  0  0  0  0  0  0  0  0  0  0  0
   40.7730   25.2130   43.4460 C   0  0  0  0  0  3  0  0  0  0  0  0
   40.5660   26.5530   43.6800 C   0  0  0  0  0  3  0  0  0  0  0  0
  1 19  1  0  0  0  0
  2  7  1  0  0  0  0
  2  1  2  0  0  0  0
  3  2  1  0  0  0  0
  4  3  2  0  0  0  0
  4  5  1  0  0  0  0
  5  6  2  0  0  0  0
  6  1  1  0  0  0  0
  8  3  1  0  0  0  0
  9 12  1  6  0  0  0
  9  5  1  0  0  0  0
  9 11  1  0  0  0  0
 10  9  1  0  0  0  0
 10 11  1  0  0  0  0
 11 15  1  1  0  0  0
 11 16  1  0  0  0  0
 13 10  1  0  0  0  0
 14 10  1  0  0  0  0
 16 18  1  0  0  0  0
 17 16  1  0  0  0  0
 19 23  1  0  0  0  0
 19 20  2  0  0  0  0
 22 21  1  0  0  0  0
 22 29  1  0  0  0  0
 23 22  2  0  0  0  0
 24 23  1  0  0  0  0
 24 26  2  0  0  0  0
 25 24  1  0  0  0  0
 26 28  1  0  0  0  0
 27 26  1  0  0  0  0
 28 29  2  0  0  0  0
M  END
>  <minimizedAffinity>
-5.41127539

$$$$

 OpenBabel03252508013D

 29 31  0  0  1  0  0  0  0  0999 V2000
   38.1280   30.7120   39.8310 C   0  0  0  0  0  0  0  0  0  0  0  0
   37.0190   31.6070   39.8650 C   0  0  0  0  0  0  0  0  0  0  0  0
   37.3360   32.9620   39.8120 C   0  0  0  0  0  0  0  0  0  0  0  0
   38.6350   33.3350   39.7340 N   0  0  0  0  0  0  0  0  0  0  0  0
   39.6520   32.4090   39.7060 C   0  0  0  0  0  0  0  0  0  0  0  0
   39.4280   31.1120   39.7520 N   0  0  0  0  0  0  0  0  0  0  0  0
   36.0190   31.2040   39.9280 H   0  0  0  0  0  0  0  0  0  0  0  0
   36.5240   33.6740   39.8350 H   0  0  0  0  0  0  0  0  0  0  0  0
   41.0540   32.9020   39.6070 C   0  0  1  0  0  0  0  0  0  0  0  0
   42.0940   32.0290   38.9440 C   0  0  0  0  0  0  0  0  0  0  0  0
   41.5060   33.2150   38.2330 C   0  0  1  0  0  0  0  0  0  0  0  0
   41.3740   33.5400   40.4400 H   0  0  0  0  0  0  0  0  0  0  0  0
   43.1230   32.1940   39.3180 H   0  0  0  0  0  0  0  0  0  0  0  0
   41.8200   30.9960   38.6680 H   0  0  0  0  0  0  0  0  0  0  0  0
   42.1360   34.1020   38.0580 H   0  0  0  0  0  0  0  0  0  0  0  0
   40.6740   32.8050   37.0960 N   0  0  0  0  0  0  0  0  0  0  0  0
   40.5640   31.7710   37.0220 H   0  0  0  0  0  0  0  0  0  0  0  0
   41.2040   33.0800   36.2390 H   0  0  0  0  0  0  0  0  0  0  0  0
   37.7920   29.2990   39.8730 C   0  0  0  0  0  0  0  0  0  0  0  0
   37.3710   28.6600   38.8420 O   0  0  0  0  0  0  0  0  0  0  0  0
   35.5340   28.6280   41.2530 F   0  0  0  0  0  0  0  0  0  0  0  0
   36.7680   28.3760   41.7860 C   0  0  0  0  0  0  0  0  0  0  0  0
   37.9740   28.6700   41.1830 C   0  0  0  0  0  0  0  0  0  0  0  0
   39.1560   28.3770   41.7990 C   0  0  0  0  0  0  0  0  0  0  0  0
   40.0460   28.6390   41.2620 H   0  0  0  0  0  0  0  0  0  0  0  0
   39.1300   27.7750   43.0570 C   0  0  0  0  0  0  0  0  0  0  0  0
   40.1070   27.5800   43.4680 H   0  0  0  0  0  0  0  0  0  0  0  0
   37.9460   27.4740   43.6720 C   0  0  0  0  0  3  0  0  0  0  0  0
   36.7570   27.7710   43.0460 C   0  0  0  0  0  3  0  0  0  0  0  0
  1  2  1  0  0  0  0
  1 19  1  0  0  0  0
  2  7  1  0  0  0  0
  3  8  1  0  0  0  0
  3  2  2  0  0  0  0
  4  3  1  0  0  0  0
  5  4  2  0  0  0  0
  5  6  1  0  0  0  0
  6  1  2  0  0  0  0
  9  5  1  0  0  0  0
  9 12  1  1  0  0  0
 10 13  1  0  0  0  0
 10  9  1  0  0  0  0
 11 15  1  6  0  0  0
 11 10  1  0  0  0  0
 11  9  1  0  0  0  0
 14 10  1  0  0  0  0
 16 11  1  0  0  0  0
 17 16  1  0  0  0  0
 18 16  1  0  0  0  0
 19 23  1  0  0  0  0
 20 19  2  0  0  0  0
 21 22  1  0  0  0  0
 22 29  1  0  0  0  0
 23 22  2  0  0  0  0
 23 24  1  0  0  0  0
 24 26  2  0  0  0  0
 25 24  1  0  0  0  0
 26 27  1  0  0  0  0
 26 28  1  0  0  0  0
 29 28  2  0  0  0  0
M  END
>  <minimizedAffinity>
-5.2667408

$$$$

 OpenBabel03252508013D

 29 31  0  0  1  0  0  0  0  0999 V2000
   37.0680   28.8090   41.6250 C   0  0  0  0  0  0  0  0  0  0  0  0
   38.1760   29.2480   42.4080 C   0  0  0  0  0  0  0  0  0  0  0  0
   38.8250   28.2570   43.1410 C   0  0  0  0  0  0  0  0  0  0  0  0
   38.3790   26.9810   43.0690 N   0  0  0  0  0  0  0  0  0  0  0  0
   37.2990   26.6360   42.2890 C   0  0  0  0  0  0  0  0  0  0  0  0
   36.6370   27.5190   41.5690 N   0  0  0  0  0  0  0  0  0  0  0  0
   38.4500   30.2920   42.3940 H   0  0  0  0  0  0  0  0  0  0  0  0
   39.6710   28.5470   43.7480 H   0  0  0  0  0  0  0  0  0  0  0  0
   36.8790   25.2070   42.2560 C   0  0  1  0  0  0  0  0  0  0  0  0
   36.8250   24.4900   40.9270 C   0  0  0  0  0  0  0  0  0  0  0  0
   37.9510   24.2550   41.8930 C   0  0  1  0  0  0  0  0  0  0  0  0
   36.1440   24.9300   43.0220 H   0  0  0  0  0  0  0  0  0  0  0  0
   36.0840   23.6680   40.8920 H   0  0  0  0  0  0  0  0  0  0  0  0
   36.9690   25.0750   40.0030 H   0  0  0  0  0  0  0  0  0  0  0  0
   38.0160   23.2860   42.4160 H   0  0  0  0  0  0  0  0  0  0  0  0
   39.2230   24.7720   41.3750 N   0  0  0  0  0  0  0  0  0  0  0  0
   39.1190   25.2830   40.4720 H   0  0  0  0  0  0  0  0  0  0  0  0
   39.8000   23.9330   41.1430 H   0  0  0  0  0  0  0  0  0  0  0  0
   36.4020   29.8440   40.8520 C   0  0  0  0  0  0  0  0  0  0  0  0
   36.1080   30.9920   41.3460 O   0  0  0  0  0  0  0  0  0  0  0  0
   33.8360   29.0860   40.3070 F   0  0  0  0  0  0  0  0  0  0  0  0
   34.7750   29.1040   39.3130 C   0  0  0  0  0  0  0  0  0  0  0  0
   36.0980   29.4670   39.4700 C   0  0  0  0  0  0  0  0  0  0  0  0
   36.9590   29.4530   38.4110 C   0  0  0  0  0  0  0  0  0  0  0  0
   37.9680   29.7480   38.6190 H   0  0  0  0  0  0  0  0  0  0  0  0
   36.4830   29.0600   37.1600 C   0  0  0  0  0  0  0  0  0  0  0  0
   37.2300   29.0790   36.3830 H   0  0  0  0  0  0  0  0  0  0  0  0
   35.1760   28.6970   36.9830 C   0  0  0  0  0  3  0  0  0  0  0  0
   34.3120   28.7150   38.0530 C   0  0  0  0  0  3  0  0  0  0  0  0
  1  2  1  0  0  0  0
  2  3  2  0  0  0  0
  3  8  1  0  0  0  0
  4  3  1  0  0  0  0
  5  4  2  0  0  0  0
  6  1  2  0  0  0  0
  6  5  1  0  0  0  0
  7  2  1  0  0  0  0
  9  5  1  0  0  0  0
  9 12  1  1  0  0  0
 10 11  1  0  0  0  0
 10  9  1  0  0  0  0
 11  9  1  0  0  0  0
 11 15  1  1  0  0  0
 13 10  1  0  0  0  0
 14 10  1  0  0  0  0
 16 11  1  0  0  0  0
 17 16  1  0  0  0  0
 18 16  1  0  0  0  0
 19 20  2  0  0  0  0
 19  1  1  0  0  0  0
 22 23  1  0  0  0  0
 22 21  1  0  0  0  0
 23 19  1  0  0  0  0
 24 25  1  0  0  0  0
 24 23  2  0  0  0  0
 26 24  1  0  0  0  0
 27 26  1  0  0  0  0
 28 26  2  0  0  0  0
 28 29  1  0  0  0  0
 29 22  2  0  0  0  0
M  END
>  <minimizedAffinity>
-5.24679565

$$$$

 OpenBabel03252508013D

 29 31  0  0  1  0  0  0  0  0999 V2000
   36.6340   29.9110   39.3560 C   0  0  0  0  0  0  0  0  0  0  0  0
   36.4920   29.9810   37.9390 C   0  0  0  0  0  0  0  0  0  0  0  0
   37.4230   30.7780   37.2790 C   0  0  0  0  0  0  0  0  0  0  0  0
   38.3750   31.4170   37.9980 N   0  0  0  0  0  0  0  0  0  0  0  0
   38.4480   31.3000   39.3670 C   0  0  0  0  0  0  0  0  0  0  0  0
   37.6010   30.5640   40.0590 N   0  0  0  0  0  0  0  0  0  0  0  0
   35.6950   29.4300   37.4620 H   0  0  0  0  0  0  0  0  0  0  0  0
   37.3510   30.8580   36.2040 H   0  0  0  0  0  0  0  0  0  0  0  0
   39.5330   32.0270   40.0830 C   0  0  1  0  0  0  0  0  0  0  0  0
   40.0160   33.3490   39.5330 C   0  0  0  0  0  0  0  0  0  0  0  0
   39.1120   33.2870   40.7310 C   0  0  1  0  0  0  0  0  0  0  0  0
   40.2640   31.3790   40.5820 H   0  0  0  0  0  0  0  0  0  0  0  0
   41.0710   33.5770   39.7780 H   0  0  0  0  0  0  0  0  0  0  0  0
   39.6470   33.6790   38.5470 H   0  0  0  0  0  0  0  0  0  0  0  0
   39.5160   33.5490   41.7230 H   0  0  0  0  0  0  0  0  0  0  0  0
   37.7840   33.8360   40.4330 N   0  0  0  0  0  0  0  0  0  0  0  0
   37.6650   34.0980   39.4310 H   0  0  0  0  0  0  0  0  0  0  0  0
   37.7230   34.7390   40.9540 H   0  0  0  0  0  0  0  0  0  0  0  0
   35.6680   29.0670   40.0400 C   0  0  0  0  0  0  0  0  0  0  0  0
   34.4010   29.2290   39.9130 O   0  0  0  0  0  0  0  0  0  0  0  0
   36.3490   26.7240   38.8140 F   0  0  0  0  0  0  0  0  0  0  0  0
   36.5630   26.8890   40.1550 C   0  0  0  0  0  0  0  0  0  0  0  0
   36.2600   28.0240   40.8800 C   0  0  0  0  0  0  0  0  0  0  0  0
   36.5140   28.0900   42.2190 C   0  0  0  0  0  0  0  0  0  0  0  0
   36.2480   29.0070   42.7060 H   0  0  0  0  0  0  0  0  0  0  0  0
   37.0860   26.9850   42.8520 C   0  0  0  0  0  0  0  0  0  0  0  0
   37.2510   27.1250   43.9080 H   0  0  0  0  0  0  0  0  0  0  0  0
   37.3940   25.8510   42.1520 C   0  0  0  0  0  3  0  0  0  0  0  0
   37.1360   25.7910   40.8020 C   0  0  0  0  0  3  0  0  0  0  0  0
  1 19  1  0  0  0  0
  1  6  1  0  0  0  0
  2  1  2  0  0  0  0
  3  2  1  0  0  0  0
  3  4  2  0  0  0  0
  4  5  1  0  0  0  0
  5  6  2  0  0  0  0
  5  9  1  0  0  0  0
  7  2  1  0  0  0  0
  8  3  1  0  0  0  0
  9 12  1  1  0  0  0
  9 11  1  0  0  0  0
 10 13  1  0  0  0  0
 10  9  1  0  0  0  0
 10 11  1  0  0  0  0
 11 15  1  1  0  0  0
 14 10  1  0  0  0  0
 16 11  1  0  0  0  0
 16 18  1  0  0  0  0
 17 16  1  0  0  0  0
 19 23  1  0  0  0  0
 20 19  2  0  0  0  0
 21 22  1  0  0  0  0
 22 29  2  0  0  0  0
 22 23  1  0  0  0  0
 23 24  2  0  0  0  0
 24 25  1  0  0  0  0
 24 26  1  0  0  0  0
 26 27  1  0  0  0  0
 28 26  2  0  0  0  0
 29 28  1  0  0  0  0
M  END
>  <minimizedAffinity>
-5.24207687

$$$$

 OpenBabel03252508013D

 29 31  0  0  1  0  0  0  0  0999 V2000
   36.9050   28.2730   39.0110 C   0  0  0  0  0  0  0  0  0  0  0  0
   36.4950   28.1260   37.6540 C   0  0  0  0  0  0  0  0  0  0  0  0
   36.6300   29.2600   36.8570 C   0  0  0  0  0  0  0  0  0  0  0  0
   37.1240   30.3960   37.4020 N   0  0  0  0  0  0  0  0  0  0  0  0
   37.4980   30.4600   38.7250 C   0  0  0  0  0  0  0  0  0  0  0  0
   37.4000   29.4280   39.5370 N   0  0  0  0  0  0  0  0  0  0  0  0
   36.1140   27.1720   37.3200 H   0  0  0  0  0  0  0  0  0  0  0  0
   36.3300   29.1910   35.8210 H   0  0  0  0  0  0  0  0  0  0  0  0
   38.0440   31.7450   39.2440 C   0  0  1  0  0  0  0  0  0  0  0  0
   37.1860   32.9870   39.1780 C   0  0  0  0  0  0  0  0  0  0  0  0
   37.3860   32.2470   40.4700 C   0  0  1  0  0  0  0  0  0  0  0  0
   39.1290   31.8620   39.1240 H   0  0  0  0  0  0  0  0  0  0  0  0
   37.7630   33.9280   39.1040 H   0  0  0  0  0  0  0  0  0  0  0  0
   36.2290   32.9410   38.6290 H   0  0  0  0  0  0  0  0  0  0  0  0
   37.9970   32.7100   41.2630 H   0  0  0  0  0  0  0  0  0  0  0  0
   36.1450   31.6130   40.9270 N   0  0  0  0  0  0  0  0  0  0  0  0
   35.3620   31.7100   40.2460 H   0  0  0  0  0  0  0  0  0  0  0  0
   35.8390   32.1530   41.7670 H   0  0  0  0  0  0  0  0  0  0  0  0
   36.7760   27.0830   39.8350 C   0  0  0  0  0  0  0  0  0  0  0  0
   36.2810   25.9860   39.3880 O   0  0  0  0  0  0  0  0  0  0  0  0
   39.3450   26.3160   40.3510 F   0  0  0  0  0  0  0  0  0  0  0  0
   38.5620   26.8230   41.3520 C   0  0  0  0  0  0  0  0  0  0  0  0
   37.2550   27.2410   41.2100 C   0  0  0  0  0  0  0  0  0  0  0  0
   36.5560   27.7340   42.2740 C   0  0  0  0  0  0  0  0  0  0  0  0
   35.5470   28.0360   42.0780 H   0  0  0  0  0  0  0  0  0  0  0  0
   37.1850   27.8080   43.5170 C   0  0  0  0  0  0  0  0  0  0  0  0
   36.5610   28.2090   44.2990 H   0  0  0  0  0  0  0  0  0  0  0  0
   38.4800   27.3990   43.6790 C   0  0  0  0  0  3  0  0  0  0  0  0
   39.1800   26.9040   42.6030 C   0  0  0  0  0  3  0  0  0  0  0  0
  1  6  1  0  0  0  0
  1 19  1  0  0  0  0
  2  1  2  0  0  0  0
  3  4  2  0  0  0  0
  3  2  1  0  0  0  0
  4  5  1  0  0  0  0
  5  9  1  0  0  0  0
  5  6  2  0  0  0  0
  7  2  1  0  0  0  0
  8  3  1  0  0  0  0
  9 12  1  6  0  0  0
  9 11  1  0  0  0  0
 10  9  1  0  0  0  0
 10 11  1  0  0  0  0
 11 16  1  0  0  0  0
 11 15  1  1  0  0  0
 13 10  1  0  0  0  0
 14 10  1  0  0  0  0
 16 18  1  0  0  0  0
 17 16  1  0  0  0  0
 19 23  1  0  0  0  0
 20 19  2  0  0  0  0
 21 22  1  0  0  0  0
 22 29  1  0  0  0  0
 23 22  2  0  0  0  0
 23 24  1  0  0  0  0
 24 26  2  0  0  0  0
 25 24  1  0  0  0  0
 26 28  1  0  0  0  0
 26 27  1  0  0  0  0
 29 28  2  0  0  0  0
M  END
>  <minimizedAffinity>
-5.18686438

$$$$

 OpenBabel03252508013D

 29 31  0  0  1  0  0  0  0  0999 V2000
   37.3930   29.6230   39.5710 C   0  0  0  0  0  0  0  0  0  0  0  0
   37.9370   29.1520   38.3400 C   0  0  0  0  0  0  0  0  0  0  0  0
   39.0470   29.8460   37.8670 C   0  0  0  0  0  0  0  0  0  0  0  0
   39.5270   30.8920   38.5800 N   0  0  0  0  0  0  0  0  0  0  0  0
   38.9450   31.2880   39.7620 C   0  0  0  0  0  0  0  0  0  0  0  0
   37.8930   30.6790   40.2710 N   0  0  0  0  0  0  0  0  0  0  0  0
   37.4770   28.3060   37.8500 H   0  0  0  0  0  0  0  0  0  0  0  0
   39.4910   29.5210   36.9370 H   0  0  0  0  0  0  0  0  0  0  0  0
   39.5410   32.4420   40.4920 C   0  0  1  0  0  0  0  0  0  0  0  0
   39.6980   33.7620   39.7740 C   0  0  0  0  0  0  0  0  0  0  0  0
   38.6000   33.5470   40.7770 C   0  0  1  0  0  0  0  0  0  0  0  0
   40.2970   32.1680   41.2390 H   0  0  0  0  0  0  0  0  0  0  0  0
   40.5360   34.3800   40.1500 H   0  0  0  0  0  0  0  0  0  0  0  0
   39.4910   33.8030   38.6910 H   0  0  0  0  0  0  0  0  0  0  0  0
   38.6520   34.0670   41.7480 H   0  0  0  0  0  0  0  0  0  0  0  0
   37.2790   33.5450   40.1380 N   0  0  0  0  0  0  0  0  0  0  0  0
   37.3270   33.6090   39.0990 H   0  0  0  0  0  0  0  0  0  0  0  0
   36.8130   34.4300   40.4400 H   0  0  0  0  0  0  0  0  0  0  0  0
   36.2420   28.8870   40.0670 C   0  0  0  0  0  0  0  0  0  0  0  0
   35.0530   29.3680   40.0400 O   0  0  0  0  0  0  0  0  0  0  0  0
   36.8340   28.7180   42.7270 F   0  0  0  0  0  0  0  0  0  0  0  0
   36.8360   27.5940   41.9470 C   0  0  0  0  0  0  0  0  0  0  0  0
   36.5540   27.5580   40.5970 C   0  0  0  0  0  0  0  0  0  0  0  0
   36.5830   26.3810   39.9060 C   0  0  0  0  0  0  0  0  0  0  0  0
   36.3520   26.4410   38.8610 H   0  0  0  0  0  0  0  0  0  0  0  0
   36.9050   25.2060   40.5870 C   0  0  0  0  0  0  0  0  0  0  0  0
   36.9030   24.3260   39.9640 H   0  0  0  0  0  0  0  0  0  0  0  0
   37.1870   25.2210   41.9250 C   0  0  0  0  0  3  0  0  0  0  0  0
   37.1560   26.4090   42.6170 C   0  0  0  0  0  3  0  0  0  0  0  0
  1 19  1  0  0  0  0
  1  6  1  0  0  0  0
  2  1  2  0  0  0  0
  3  2  1  0  0  0  0
  3  4  2  0  0  0  0
  4  5  1  0  0  0  0
  5  6  2  0  0  0  0
  5  9  1  0  0  0  0
  7  2  1  0  0  0  0
  8  3  1  0  0  0  0
  9 11  1  0  0  0  0
  9 12  1  1  0  0  0
 10 13  1  0  0  0  0
 10  9  1  0  0  0  0
 10 11  1  0  0  0  0
 11 15  1  1  0  0  0
 14 10  1  0  0  0  0
 16 18  1  0  0  0  0
 16 11  1  0  0  0  0
 17 16  1  0  0  0  0
 19 23  1  0  0  0  0
 20 19  2  0  0  0  0
 22 29  1  0  0  0  0
 22 21  1  0  0  0  0
 23 22  2  0  0  0  0
 24 26  2  0  0  0  0
 24 23  1  0  0  0  0
 25 24  1  0  0  0  0
 26 28  1  0  0  0  0
 27 26  1  0  0  0  0
 28 29  2  0  0  0  0
M  END
>  <minimizedAffinity>
-5.1544795

$$$$
