
 OpenBabel03242519433D

 29 30  0  0  0  0  0  0  0  0999 V2000
   38.2030   28.9940   39.9610 O   0  0  0  0  0  0  0  0  0  0  0  0
   36.8680   29.5530   40.5100 P   0  0  2  0  0  0  0  0  0  0  0  0
   37.1950   30.9570   41.4370 O   0  0  0  0  0  0  0  0  0  0  0  0
   39.0860   33.6790   39.9250 C   0  0  0  0  0  0  0  0  0  0  0  0
   37.9930   32.8640   40.3040 C   0  0  0  0  0  0  0  0  0  0  0  0
   38.2770   31.7350   41.0850 C   0  0  0  0  0  0  0  0  0  0  0  0
   39.5560   31.4910   41.4300 N   0  0  0  0  0  0  0  0  0  0  0  0
   40.5770   32.2930   41.0500 C   0  0  0  0  0  0  0  0  0  0  0  0
   40.3510   33.3830   40.3010 N   0  0  0  0  0  0  0  0  0  0  0  0
   38.8700   34.5520   39.3220 H   0  0  0  0  0  0  0  0  0  0  0  0
   37.0120   33.1730   39.9620 H   0  0  0  0  0  0  0  0  0  0  0  0
   41.5600   32.0050   41.3810 H   0  0  0  0  0  0  0  0  0  0  0  0
   36.1520   28.4180   41.4840 O   0  0  0  0  0  0  0  0  0  0  0  0
   36.7250   27.5240   42.3380 C   0  0  0  0  0  0  0  0  0  0  0  0
   36.2530   27.4470   43.6000 O   0  0  0  0  0  0  0  0  0  0  0  0
   39.2710   27.9660   43.6800 F   0  0  0  0  0  0  0  0  0  0  0  0
   38.9000   26.7630   43.1930 C   0  0  0  0  0  0  0  0  0  0  0  0
   37.7400   26.4660   42.5520 C   0  0  0  0  0  0  0  0  0  0  0  0
   37.5480   25.1580   42.1190 C   0  0  0  0  0  0  0  0  0  0  0  0
   36.5750   25.0250   41.6130 H   0  0  0  0  0  0  0  0  0  0  0  0
   38.4030   24.0980   42.2560 C   0  0  0  0  0  0  0  0  0  0  0  0
   38.1670   23.1170   41.8860 H   0  0  0  0  0  0  0  0  0  0  0  0
   39.5510   24.4550   42.9050 C   0  0  0  0  0  3  0  0  0  0  0  0
   39.8180   25.7150   43.3640 C   0  0  0  0  0  3  0  0  0  0  0  0
   35.9600   29.9910   39.1910 O   0  0  0  0  0  0  0  0  0  0  0  0
   34.9550   29.0800   38.9060 C   0  0  0  0  0  0  0  0  0  0  0  0
   35.4080   27.7700   38.8990 F   0  0  0  0  0  0  0  0  0  0  0  0
   33.8980   29.2660   39.7370 F   0  0  0  0  0  0  0  0  0  0  0  0
   34.5370   29.3570   37.6050 F   0  0  0  0  0  0  0  0  0  0  0  0
  2  1  2  6  0  0  0
  2  3  1  0  0  0  0
  2 13  1  0  0  0  0
  4  9  2  0  0  0  0
  4  5  1  0  0  0  0
  5  6  2  0  0  0  0
  6  7  1  0  0  0  0
  6  3  1  0  0  0  0
  8 12  1  0  0  0  0
  8  7  2  0  0  0  0
  9  8  1  0  0  0  0
 10  4  1  0  0  0  0
 11  5  1  0  0  0  0
 13 14  1  0  0  0  0
 14 18  1  0  0  0  0
 14 15  2  0  0  0  0
 17 24  1  0  0  0  0
 17 16  1  0  0  0  0
 18 17  2  0  0  0  0
 19 21  2  0  0  0  0
 19 18  1  0  0  0  0
 20 19  1  0  0  0  0
 21 23  1  0  0  0  0
 22 21  1  0  0  0  0
 23 24  2  0  0  0  0
 25  2  1  0  0  0  0
 26 25  1  0  0  0  0
 26 28  1  0  0  0  0
 27 26  1  0  0  0  0
 29 26  1  0  0  0  0
M  END
>  <minimizedAffinity>
-5.45805025

$$$$

 OpenBabel03242519433D

 29 30  0  0  0  0  0  0  0  0999 V2000
   38.2590   28.7980   39.7860 O   0  0  0  0  0  0  0  0  0  0  0  0
   37.0120   29.5000   40.3770 P   0  0  2  0  0  0  0  0  0  0  0  0
   37.5070   30.9440   41.1570 O   0  0  0  0  0  0  0  0  0  0  0  0
   40.8090   30.7260   42.6780 C   0  0  0  0  0  0  0  0  0  0  0  0
   39.4270   30.5240   42.4580 C   0  0  0  0  0  0  0  0  0  0  0  0
   38.8560   31.1560   41.3450 C   0  0  0  0  0  0  0  0  0  0  0  0
   39.6440   31.9100   40.5540 N   0  0  0  0  0  0  0  0  0  0  0  0
   40.9630   32.0820   40.7940 C   0  0  0  0  0  0  0  0  0  0  0  0
   41.5510   31.4970   41.8490 N   0  0  0  0  0  0  0  0  0  0  0  0
   41.2540   30.2390   43.5370 H   0  0  0  0  0  0  0  0  0  0  0  0
   38.9070   29.8920   43.1690 H   0  0  0  0  0  0  0  0  0  0  0  0
   41.4990   32.7050   40.0980 H   0  0  0  0  0  0  0  0  0  0  0  0
   36.2930   28.5040   41.4910 O   0  0  0  0  0  0  0  0  0  0  0  0
   36.8650   27.6450   42.3810 C   0  0  0  0  0  0  0  0  0  0  0  0
   36.3980   27.6260   43.6460 O   0  0  0  0  0  0  0  0  0  0  0  0
   36.6230   24.9030   41.4320 F   0  0  0  0  0  0  0  0  0  0  0  0
   37.6810   25.3380   42.1510 C   0  0  0  0  0  0  0  0  0  0  0  0
   37.8740   26.5910   42.6360 C   0  0  0  0  0  0  0  0  0  0  0  0
   39.0350   26.8400   43.3630 C   0  0  0  0  0  0  0  0  0  0  0  0
   39.0950   27.8870   43.7090 H   0  0  0  0  0  0  0  0  0  0  0  0
   40.0370   25.9570   43.6640 C   0  0  0  0  0  0  0  0  0  0  0  0
   40.9020   26.2420   44.2350 H   0  0  0  0  0  0  0  0  0  0  0  0
   39.7890   24.7150   43.1520 C   0  0  0  0  0  3  0  0  0  0  0  0
   38.6750   24.3870   42.4270 C   0  0  0  0  0  3  0  0  0  0  0  0
   36.0400   29.9010   39.0920 O   0  0  0  0  0  0  0  0  0  0  0  0
   34.9870   29.0160   38.9210 C   0  0  0  0  0  0  0  0  0  0  0  0
   35.4020   27.6950   38.8670 F   0  0  0  0  0  0  0  0  0  0  0  0
   34.0320   29.2300   39.8610 F   0  0  0  0  0  0  0  0  0  0  0  0
   34.4370   29.3050   37.6730 F   0  0  0  0  0  0  0  0  0  0  0  0
  2  1  2  6  0  0  0
  2  3  1  0  0  0  0
  2 13  1  0  0  0  0
  3  6  1  0  0  0  0
  4 10  1  0  0  0  0
  5  4  1  0  0  0  0
  5 11  1  0  0  0  0
  6  5  2  0  0  0  0
  7  8  2  0  0  0  0
  7  6  1  0  0  0  0
  8  9  1  0  0  0  0
  9  4  2  0  0  0  0
 12  8  1  0  0  0  0
 13 14  1  0  0  0  0
 14 18  1  0  0  0  0
 14 15  2  0  0  0  0
 16 17  1  0  0  0  0
 17 24  2  0  0  0  0
 17 18  1  0  0  0  0
 18 19  2  0  0  0  0
 19 21  1  0  0  0  0
 19 20  1  0  0  0  0
 21 22  1  0  0  0  0
 23 21  2  0  0  0  0
 24 23  1  0  0  0  0
 25  2  1  0  0  0  0
 26 25  1  0  0  0  0
 26 28  1  0  0  0  0
 27 26  1  0  0  0  0
 29 26  1  0  0  0  0
M  END
>  <minimizedAffinity>
-5.29578447

$$$$

 OpenBabel03242519433D

 29 30  0  0  0  0  0  0  0  0999 V2000
   38.7190   28.7230   38.7070 O   0  0  0  0  0  0  0  0  0  0  0  0
   37.7190   29.5960   39.5040 P   0  0  2  0  0  0  0  0  0  0  0  0
   37.6140   31.1370   38.7600 O   0  0  0  0  0  0  0  0  0  0  0  0
   40.5450   33.1980   39.4180 C   0  0  0  0  0  0  0  0  0  0  0  0
   39.7330   32.1590   38.9050 C   0  0  0  0  0  0  0  0  0  0  0  0
   38.3800   32.1620   39.2710 C   0  0  0  0  0  0  0  0  0  0  0  0
   37.9310   33.1430   40.0790 N   0  0  0  0  0  0  0  0  0  0  0  0
   38.7350   34.1220   40.5510 C   0  0  0  0  0  0  0  0  0  0  0  0
   40.0370   34.1560   40.2270 N   0  0  0  0  0  0  0  0  0  0  0  0
   41.5900   33.1980   39.1360 H   0  0  0  0  0  0  0  0  0  0  0  0
   40.2180   31.4320   38.2630 H   0  0  0  0  0  0  0  0  0  0  0  0
   38.2730   34.8550   41.1890 H   0  0  0  0  0  0  0  0  0  0  0  0
   38.2660   29.7830   41.0580 O   0  0  0  0  0  0  0  0  0  0  0  0
   38.4350   28.8490   42.0360 C   0  0  0  0  0  0  0  0  0  0  0  0
   38.1270   29.1840   43.3060 O   0  0  0  0  0  0  0  0  0  0  0  0
   37.1320   26.4550   41.0120 F   0  0  0  0  0  0  0  0  0  0  0  0
   38.1750   26.4110   41.8670 C   0  0  0  0  0  0  0  0  0  0  0  0
   38.8390   27.4700   42.3970 C   0  0  0  0  0  0  0  0  0  0  0  0
   39.8920   27.2130   43.2700 C   0  0  0  0  0  0  0  0  0  0  0  0
   40.3620   28.1410   43.6420 H   0  0  0  0  0  0  0  0  0  0  0  0
   40.3590   25.9930   43.6800 C   0  0  0  0  0  0  0  0  0  0  0  0
   41.1830   25.8920   44.3620 H   0  0  0  0  0  0  0  0  0  0  0  0
   39.6540   24.9660   43.1160 C   0  0  0  0  0  3  0  0  0  0  0  0
   38.6090   25.1320   42.2490 C   0  0  0  0  0  3  0  0  0  0  0  0
   36.2410   28.8510   39.3860 O   0  0  0  0  0  0  0  0  0  0  0  0
   35.3220   29.3340   40.3030 C   0  0  0  0  0  0  0  0  0  0  0  0
   35.2480   28.5540   41.4470 F   0  0  0  0  0  0  0  0  0  0  0  0
   35.5660   30.6420   40.5740 F   0  0  0  0  0  0  0  0  0  0  0  0
   34.0750   29.2450   39.6870 F   0  0  0  0  0  0  0  0  0  0  0  0
  2  1  2  6  0  0  0
  2 13  1  0  0  0  0
  3  6  1  0  0  0  0
  3  2  1  0  0  0  0
  4  9  1  0  0  0  0
  5  6  1  0  0  0  0
  5  4  2  0  0  0  0
  6  7  2  0  0  0  0
  7  8  1  0  0  0  0
  8 12  1  0  0  0  0
  9  8  2  0  0  0  0
 10  4  1  0  0  0  0
 11  5  1  0  0  0  0
 13 14  1  0  0  0  0
 14 18  1  0  0  0  0
 14 15  2  0  0  0  0
 16 17  1  0  0  0  0
 17 24  2  0  0  0  0
 17 18  1  0  0  0  0
 18 19  2  0  0  0  0
 19 20  1  0  0  0  0
 19 21  1  0  0  0  0
 21 22  1  0  0  0  0
 23 21  2  0  0  0  0
 24 23  1  0  0  0  0
 25  2  1  0  0  0  0
 25 26  1  0  0  0  0
 26 28  1  0  0  0  0
 26 27  1  0  0  0  0
 29 26  1  0  0  0  0
M  END
>  <minimizedAffinity>
-5.15420532

$$$$

 OpenBabel03242519433D

 29 30  0  0  0  0  0  0  0  0999 V2000
   39.7880   29.7410   39.4000 O   0  0  0  0  0  0  0  0  0  0  0  0
   38.9960   29.7730   40.7300 P   0  0  2  0  0  0  0  0  0  0  0  0
   39.0140   31.3710   41.3480 O   0  0  0  0  0  0  0  0  0  0  0  0
   42.2020   33.0660   40.8660 C   0  0  0  0  0  0  0  0  0  0  0  0
   41.2330   32.1660   41.3680 C   0  0  0  0  0  0  0  0  0  0  0  0
   39.9390   32.2580   40.8390 C   0  0  0  0  0  0  0  0  0  0  0  0
   39.6900   33.1850   39.8930 N   0  0  0  0  0  0  0  0  0  0  0  0
   40.6420   34.0300   39.4360 C   0  0  0  0  0  0  0  0  0  0  0  0
   41.8940   33.9780   39.9150 N   0  0  0  0  0  0  0  0  0  0  0  0
   43.2040   32.9970   41.2730 H   0  0  0  0  0  0  0  0  0  0  0  0
   41.5630   31.4660   42.1280 H   0  0  0  0  0  0  0  0  0  0  0  0
   40.3350   34.7320   38.6790 H   0  0  0  0  0  0  0  0  0  0  0  0
   39.7180   28.7610   41.8280 O   0  0  0  0  0  0  0  0  0  0  0  0
   39.2920   27.5600   42.3110 C   0  0  0  0  0  0  0  0  0  0  0  0
   39.4460   27.3060   43.6270 O   0  0  0  0  0  0  0  0  0  0  0  0
   36.5230   26.9330   42.9540 F   0  0  0  0  0  0  0  0  0  0  0  0
   37.3550   26.0490   42.3650 C   0  0  0  0  0  0  0  0  0  0  0  0
   38.6570   26.2510   42.0340 C   0  0  0  0  0  0  0  0  0  0  0  0
   39.3500   25.2040   41.4350 C   0  0  0  0  0  0  0  0  0  0  0  0
   40.3970   25.4730   41.2060 H   0  0  0  0  0  0  0  0  0  0  0  0
   38.8790   23.9560   41.1290 C   0  0  0  0  0  0  0  0  0  0  0  0
   39.4930   23.2070   40.6630 H   0  0  0  0  0  0  0  0  0  0  0  0
   37.5670   23.8100   41.4840 C   0  0  0  0  0  3  0  0  0  0  0  0
   36.8140   24.7870   42.0750 C   0  0  0  0  0  3  0  0  0  0  0  0
   37.4300   29.3680   40.3580 O   0  0  0  0  0  0  0  0  0  0  0  0
   36.5170   29.8510   41.2820 C   0  0  0  0  0  0  0  0  0  0  0  0
   36.9900   29.7870   42.5840 F   0  0  0  0  0  0  0  0  0  0  0  0
   36.1040   31.0970   40.9340 F   0  0  0  0  0  0  0  0  0  0  0  0
   35.4150   28.9990   41.2230 F   0  0  0  0  0  0  0  0  0  0  0  0
  2  1  2  6  0  0  0
  2  3  1  0  0  0  0
  2 13  1  0  0  0  0
  4 10  1  0  0  0  0
  4  5  1  0  0  0  0
  5 11  1  0  0  0  0
  6  3  1  0  0  0  0
  6  5  2  0  0  0  0
  7  6  1  0  0  0  0
  8  7  2  0  0  0  0
  8  9  1  0  0  0  0
  9  4  2  0  0  0  0
 12  8  1  0  0  0  0
 13 14  1  0  0  0  0
 14 15  2  0  0  0  0
 17 16  1  0  0  0  0
 18 14  1  0  0  0  0
 18 17  2  0  0  0  0
 19 18  1  0  0  0  0
 20 19  1  0  0  0  0
 21 19  2  0  0  0  0
 21 23  1  0  0  0  0
 22 21  1  0  0  0  0
 23 24  2  0  0  0  0
 24 17  1  0  0  0  0
 25  2  1  0  0  0  0
 25 26  1  0  0  0  0
 26 27  1  0  0  0  0
 28 26  1  0  0  0  0
 29 26  1  0  0  0  0
M  END
>  <minimizedAffinity>
-5.10761738

$$$$

 OpenBabel03242519433D

 29 30  0  0  0  0  0  0  0  0999 V2000
   40.0130   30.0970   40.3050 O   0  0  0  0  0  0  0  0  0  0  0  0
   39.8670   31.2540   41.3240 P   0  0  2  0  0  0  0  0  0  0  0  0
   39.6180   30.5900   42.8840 O   0  0  0  0  0  0  0  0  0  0  0  0
   37.2580   27.8200   43.0410 C   0  0  0  0  0  0  0  0  0  0  0  0
   37.7630   29.1380   42.9440 C   0  0  0  0  0  0  0  0  0  0  0  0
   39.1540   29.2960   42.9760 C   0  0  0  0  0  0  0  0  0  0  0  0
   39.9270   28.1980   43.0940 N   0  0  0  0  0  0  0  0  0  0  0  0
   39.4120   26.9510   43.1840 C   0  0  0  0  0  0  0  0  0  0  0  0
   38.0850   26.7540   43.1590 N   0  0  0  0  0  0  0  0  0  0  0  0
   36.1830   27.6940   43.0160 H   0  0  0  0  0  0  0  0  0  0  0  0
   37.0320   29.9340   42.8520 H   0  0  0  0  0  0  0  0  0  0  0  0
   40.1200   26.1460   43.2750 H   0  0  0  0  0  0  0  0  0  0  0  0
   38.5560   32.1860   40.9170 O   0  0  0  0  0  0  0  0  0  0  0  0
   37.4930   31.8840   40.1190 C   0  0  0  0  0  0  0  0  0  0  0  0
   36.8460   32.8950   39.5030 O   0  0  0  0  0  0  0  0  0  0  0  0
   37.5900   31.0550   37.3310 F   0  0  0  0  0  0  0  0  0  0  0  0
   36.7350   30.5150   38.2250 C   0  0  0  0  0  0  0  0  0  0  0  0
   36.6170   30.8410   39.5380 C   0  0  0  0  0  0  0  0  0  0  0  0
   35.6650   30.1670   40.2970 C   0  0  0  0  0  0  0  0  0  0  0  0
   35.6530   30.5060   41.3480 H   0  0  0  0  0  0  0  0  0  0  0  0
   34.8020   29.1900   39.8790 C   0  0  0  0  0  0  0  0  0  0  0  0
   34.0960   28.7250   40.5420 H   0  0  0  0  0  0  0  0  0  0  0  0
   34.9650   28.9040   38.5530 C   0  0  0  0  0  3  0  0  0  0  0  0
   35.8770   29.5180   37.7370 C   0  0  0  0  0  3  0  0  0  0  0  0
   41.3120   32.0710   41.3220 O   0  0  0  0  0  0  0  0  0  0  0  0
   41.3800   33.0390   40.3320 C   0  0  0  0  0  0  0  0  0  0  0  0
   42.6700   33.5030   40.1280 F   0  0  0  0  0  0  0  0  0  0  0  0
   40.7950   32.5910   39.1920 F   0  0  0  0  0  0  0  0  0  0  0  0
   40.6410   34.1250   40.7990 F   0  0  0  0  0  0  0  0  0  0  0  0
  2  1  2  6  0  0  0
  2  3  1  0  0  0  0
  3  6  1  0  0  0  0
  4  9  1  0  0  0  0
  5  6  1  0  0  0  0
  5  4  2  0  0  0  0
  6  7  2  0  0  0  0
  7  8  1  0  0  0  0
  8 12  1  0  0  0  0
  9  8  2  0  0  0  0
 10  4  1  0  0  0  0
 11  5  1  0  0  0  0
 13  2  1  0  0  0  0
 14 13  1  0  0  0  0
 15 14  2  0  0  0  0
 16 17  1  0  0  0  0
 17 18  1  0  0  0  0
 18 14  1  0  0  0  0
 18 19  2  0  0  0  0
 19 20  1  0  0  0  0
 21 19  1  0  0  0  0
 21 22  1  0  0  0  0
 23 21  2  0  0  0  0
 24 17  2  0  0  0  0
 24 23  1  0  0  0  0
 25  2  1  0  0  0  0
 26 29  1  0  0  0  0
 26 25  1  0  0  0  0
 27 26  1  0  0  0  0
 28 26  1  0  0  0  0
M  END
>  <minimizedAffinity>
-5.06671476

$$$$

 OpenBabel03242519433D

 29 30  0  0  0  0  0  0  0  0999 V2000
   37.3710   30.3950   37.3110 O   0  0  0  0  0  0  0  0  0  0  0  0
   36.4290   29.5840   38.2350 P   0  0  2  0  0  0  0  0  0  0  0  0
   36.2270   30.4370   39.7070 O   0  0  0  0  0  0  0  0  0  0  0  0
   39.1680   32.0260   41.1550 C   0  0  0  0  0  0  0  0  0  0  0  0
   38.2210   31.0320   40.8150 C   0  0  0  0  0  0  0  0  0  0  0  0
   37.1360   31.4250   40.0200 C   0  0  0  0  0  0  0  0  0  0  0  0
   37.0550   32.7110   39.6260 N   0  0  0  0  0  0  0  0  0  0  0  0
   37.9790   33.6360   39.9690 C   0  0  0  0  0  0  0  0  0  0  0  0
   39.0330   33.3040   40.7300 N   0  0  0  0  0  0  0  0  0  0  0  0
   40.0080   31.7250   41.7690 H   0  0  0  0  0  0  0  0  0  0  0  0
   38.4040   30.0330   41.1960 H   0  0  0  0  0  0  0  0  0  0  0  0
   37.8170   34.6350   39.6000 H   0  0  0  0  0  0  0  0  0  0  0  0
   37.1100   28.1060   38.5560 O   0  0  0  0  0  0  0  0  0  0  0  0
   37.1800   27.4220   39.7330 C   0  0  0  0  0  0  0  0  0  0  0  0
   36.5790   26.2170   39.8110 O   0  0  0  0  0  0  0  0  0  0  0  0
   35.6440   28.3440   42.0270 F   0  0  0  0  0  0  0  0  0  0  0  0
   36.8840   27.8230   42.1390 C   0  0  0  0  0  0  0  0  0  0  0  0
   37.6720   27.3740   41.1290 C   0  0  0  0  0  0  0  0  0  0  0  0
   38.9300   26.8740   41.4520 C   0  0  0  0  0  0  0  0  0  0  0  0
   39.4870   26.5350   40.5610 H   0  0  0  0  0  0  0  0  0  0  0  0
   39.4960   26.7760   42.6950 C   0  0  0  0  0  0  0  0  0  0  0  0
   40.4800   26.3740   42.8490 H   0  0  0  0  0  0  0  0  0  0  0  0
   38.6600   27.2430   43.6700 C   0  0  0  0  0  3  0  0  0  0  0  0
   37.4100   27.7480   43.4380 C   0  0  0  0  0  3  0  0  0  0  0  0
   34.9620   29.5060   37.4640 O   0  0  0  0  0  0  0  0  0  0  0  0
   34.0240   28.7670   38.1690 C   0  0  0  0  0  0  0  0  0  0  0  0
   34.1810   28.8770   39.5410 F   0  0  0  0  0  0  0  0  0  0  0  0
   32.7690   29.0770   37.7560 F   0  0  0  0  0  0  0  0  0  0  0  0
   34.2660   27.4310   37.8530 F   0  0  0  0  0  0  0  0  0  0  0  0
  2  1  2  6  0  0  0
  2 13  1  0  0  0  0
  2  3  1  0  0  0  0
  3  6  1  0  0  0  0
  4 10  1  0  0  0  0
  5  4  1  0  0  0  0
  5 11  1  0  0  0  0
  6  5  2  0  0  0  0
  7  8  2  0  0  0  0
  7  6  1  0  0  0  0
  8  9  1  0  0  0  0
  9  4  2  0  0  0  0
 12  8  1  0  0  0  0
 13 14  1  0  0  0  0
 14 15  2  0  0  0  0
 14 18  1  0  0  0  0
 16 17  1  0  0  0  0
 17 24  1  0  0  0  0
 18 19  1  0  0  0  0
 18 17  2  0  0  0  0
 19 21  2  0  0  0  0
 20 19  1  0  0  0  0
 21 22  1  0  0  0  0
 21 23  1  0  0  0  0
 24 23  2  0  0  0  0
 25 26  1  0  0  0  0
 25  2  1  0  0  0  0
 26 27  1  0  0  0  0
 28 26  1  0  0  0  0
 29 26  1  0  0  0  0
M  END
>  <minimizedAffinity>
-5.03576183

$$$$

 OpenBabel03242519433D

 29 30  0  0  0  0  0  0  0  0999 V2000
   40.4260   30.0420   38.9730 O   0  0  0  0  0  0  0  0  0  0  0  0
   39.2590   30.8690   38.3800 P   0  0  2  0  0  0  0  0  0  0  0  0
   39.9070   32.1710   37.4730 O   0  0  0  0  0  0  0  0  0  0  0  0
   43.3360   33.3790   37.6920 C   0  0  0  0  0  0  0  0  0  0  0  0
   42.1830   32.7190   37.2050 C   0  0  0  0  0  0  0  0  0  0  0  0
   41.0130   32.8260   37.9690 C   0  0  0  0  0  0  0  0  0  0  0  0
   41.0480   33.5420   39.1100 N   0  0  0  0  0  0  0  0  0  0  0  0
   42.1690   34.1610   39.5460 C   0  0  0  0  0  0  0  0  0  0  0  0
   43.3110   34.0840   38.8470 N   0  0  0  0  0  0  0  0  0  0  0  0
   44.2420   33.2990   37.1030 H   0  0  0  0  0  0  0  0  0  0  0  0
   42.2890   32.1770   36.2720 H   0  0  0  0  0  0  0  0  0  0  0  0
   42.0850   34.7060   40.4710 H   0  0  0  0  0  0  0  0  0  0  0  0
   38.3330   31.4790   39.6140 O   0  0  0  0  0  0  0  0  0  0  0  0
   37.6550   30.8200   40.5960 C   0  0  0  0  0  0  0  0  0  0  0  0
   36.4330   31.2700   40.9460 O   0  0  0  0  0  0  0  0  0  0  0  0
   39.7530   30.3230   42.5520 F   0  0  0  0  0  0  0  0  0  0  0  0
   38.6500   29.5510   42.4500 C   0  0  0  0  0  0  0  0  0  0  0  0
   37.6280   29.7040   41.5690 C   0  0  0  0  0  0  0  0  0  0  0  0
   36.5770   28.7930   41.6210 C   0  0  0  0  0  0  0  0  0  0  0  0
   35.8010   29.0080   40.8650 H   0  0  0  0  0  0  0  0  0  0  0  0
   36.4370   27.7270   42.4680 C   0  0  0  0  0  0  0  0  0  0  0  0
   35.5840   27.0740   42.4330 H   0  0  0  0  0  0  0  0  0  0  0  0
   37.4920   27.6220   43.3290 C   0  0  0  0  0  3  0  0  0  0  0  0
   38.5620   28.4740   43.3460 C   0  0  0  0  0  3  0  0  0  0  0  0
   38.4410   29.8600   37.3470 O   0  0  0  0  0  0  0  0  0  0  0  0
   37.2570   30.4120   36.8850 C   0  0  0  0  0  0  0  0  0  0  0  0
   37.2920   31.7970   36.8470 F   0  0  0  0  0  0  0  0  0  0  0  0
   36.9110   29.8620   35.6930 F   0  0  0  0  0  0  0  0  0  0  0  0
   36.2790   30.0710   37.8180 F   0  0  0  0  0  0  0  0  0  0  0  0
  2  1  2  1  0  0  0
  2 13  1  0  0  0  0
  3  6  1  0  0  0  0
  3  2  1  0  0  0  0
  4  9  1  0  0  0  0
  5  4  2  0  0  0  0
  5  6  1  0  0  0  0
  6  7  2  0  0  0  0
  7  8  1  0  0  0  0
  8 12  1  0  0  0  0
  9  8  2  0  0  0  0
 10  4  1  0  0  0  0
 11  5  1  0  0  0  0
 13 14  1  0  0  0  0
 14 15  2  0  0  0  0
 14 18  1  0  0  0  0
 17 16  1  0  0  0  0
 17 24  1  0  0  0  0
 18 19  1  0  0  0  0
 18 17  2  0  0  0  0
 19 21  2  0  0  0  0
 20 19  1  0  0  0  0
 21 23  1  0  0  0  0
 22 21  1  0  0  0  0
 23 24  2  0  0  0  0
 25  2  1  0  0  0  0
 26 25  1  0  0  0  0
 26 29  1  0  0  0  0
 27 26  1  0  0  0  0
 28 26  1  0  0  0  0
M  END
>  <minimizedAffinity>
-5.01041031

$$$$

 OpenBabel03242519433D

 29 30  0  0  0  0  0  0  0  0999 V2000
   38.4700   29.4070   43.3500 O   0  0  0  0  0  0  0  0  0  0  0  0
   38.4810   29.4150   41.8020 P   0  0  2  0  0  0  0  0  0  0  0  0
   40.0500   29.8440   41.2620 O   0  0  0  0  0  0  0  0  0  0  0  0
   40.5510   33.3390   40.3640 C   0  0  0  0  0  0  0  0  0  0  0  0
   40.4120   32.1700   41.1500 C   0  0  0  0  0  0  0  0  0  0  0  0
   40.1850   30.9650   40.4720 C   0  0  0  0  0  0  0  0  0  0  0  0
   40.1130   30.9840   39.1260 N   0  0  0  0  0  0  0  0  0  0  0  0
   40.2510   32.1190   38.4060 C   0  0  0  0  0  0  0  0  0  0  0  0
   40.4690   33.2950   39.0140 N   0  0  0  0  0  0  0  0  0  0  0  0
   40.7280   34.2710   40.8860 H   0  0  0  0  0  0  0  0  0  0  0  0
   40.4930   32.2920   42.2240 H   0  0  0  0  0  0  0  0  0  0  0  0
   40.1760   32.0200   37.3360 H   0  0  0  0  0  0  0  0  0  0  0  0
   37.3930   30.5370   41.2470 O   0  0  0  0  0  0  0  0  0  0  0  0
   36.7640   30.6110   40.0400 C   0  0  0  0  0  0  0  0  0  0  0  0
   36.6940   31.8090   39.4240 O   0  0  0  0  0  0  0  0  0  0  0  0
   34.3260   29.0740   40.4470 F   0  0  0  0  0  0  0  0  0  0  0  0
   34.9080   29.2150   39.2380 C   0  0  0  0  0  0  0  0  0  0  0  0
   36.0430   29.9050   38.9560 C   0  0  0  0  0  0  0  0  0  0  0  0
   36.4870   29.9250   37.6370 C   0  0  0  0  0  0  0  0  0  0  0  0
   37.4140   30.5140   37.5170 H   0  0  0  0  0  0  0  0  0  0  0  0
   35.9130   29.3170   36.5530 C   0  0  0  0  0  0  0  0  0  0  0  0
   36.3310   29.3890   35.5660 H   0  0  0  0  0  0  0  0  0  0  0  0
   34.7780   28.6380   36.8960 C   0  0  0  0  0  3  0  0  0  0  0  0
   34.2730   28.5700   38.1650 C   0  0  0  0  0  3  0  0  0  0  0  0
   38.1640   27.8590   41.3180 O   0  0  0  0  0  0  0  0  0  0  0  0
   37.1920   27.2450   42.0920 C   0  0  0  0  0  0  0  0  0  0  0  0
   37.7080   26.6770   43.2460 F   0  0  0  0  0  0  0  0  0  0  0  0
   36.1710   28.1040   42.3400 F   0  0  0  0  0  0  0  0  0  0  0  0
   36.6940   26.1920   41.3260 F   0  0  0  0  0  0  0  0  0  0  0  0
  2  1  2  1  0  0  0
  3  2  1  0  0  0  0
  4 10  1  0  0  0  0
  4  5  1  0  0  0  0
  5 11  1  0  0  0  0
  6  5  2  0  0  0  0
  6  3  1  0  0  0  0
  7  6  1  0  0  0  0
  8  9  1  0  0  0  0
  8  7  2  0  0  0  0
  9  4  2  0  0  0  0
 12  8  1  0  0  0  0
 13  2  1  0  0  0  0
 14 13  1  0  0  0  0
 15 14  2  0  0  0  0
 17 16  1  0  0  0  0
 18 17  1  0  0  0  0
 18 14  1  0  0  0  0
 19 18  2  0  0  0  0
 20 19  1  0  0  0  0
 21 23  2  0  0  0  0
 21 19  1  0  0  0  0
 22 21  1  0  0  0  0
 23 24  1  0  0  0  0
 24 17  2  0  0  0  0
 25  2  1  0  0  0  0
 25 26  1  0  0  0  0
 26 28  1  0  0  0  0
 26 27  1  0  0  0  0
 29 26  1  0  0  0  0
M  END
>  <minimizedAffinity>
-4.99152756

$$$$

 OpenBabel03242519433D

 29 30  0  0  0  0  0  0  0  0999 V2000
   36.3090   31.1420   40.7910 O   0  0  0  0  0  0  0  0  0  0  0  0
   37.5710   30.3150   41.1410 P   0  0  2  0  0  0  0  0  0  0  0  0
   37.8410   29.1640   39.9000 O   0  0  0  0  0  0  0  0  0  0  0  0
   36.0330   29.4100   36.7470 C   0  0  0  0  0  0  0  0  0  0  0  0
   37.0380   29.5930   37.7260 C   0  0  0  0  0  0  0  0  0  0  0  0
   36.8480   28.9670   38.9650 C   0  0  0  0  0  0  0  0  0  0  0  0
   35.7340   28.2330   39.1540 N   0  0  0  0  0  0  0  0  0  0  0  0
   34.7930   28.0780   38.1960 C   0  0  0  0  0  0  0  0  0  0  0  0
   34.9340   28.6610   36.9960 N   0  0  0  0  0  0  0  0  0  0  0  0
   36.1770   29.8930   35.7880 H   0  0  0  0  0  0  0  0  0  0  0  0
   37.8870   30.2070   37.4440 H   0  0  0  0  0  0  0  0  0  0  0  0
   33.9420   27.4710   38.4540 H   0  0  0  0  0  0  0  0  0  0  0  0
   37.3280   29.5160   42.5740 O   0  0  0  0  0  0  0  0  0  0  0  0
   37.2720   28.1770   42.8200 C   0  0  0  0  0  0  0  0  0  0  0  0
   36.1550   27.6740   43.3860 O   0  0  0  0  0  0  0  0  0  0  0  0
   40.0110   27.6920   43.6800 F   0  0  0  0  0  0  0  0  0  0  0  0
   39.2220   26.7230   43.1690 C   0  0  0  0  0  0  0  0  0  0  0  0
   37.9410   26.8570   42.7400 C   0  0  0  0  0  0  0  0  0  0  0  0
   37.2960   25.7310   42.2390 C   0  0  0  0  0  0  0  0  0  0  0  0
   36.2610   25.9490   41.9200 H   0  0  0  0  0  0  0  0  0  0  0  0
   37.8020   24.4650   42.1140 C   0  0  0  0  0  0  0  0  0  0  0  0
   37.2250   23.6520   41.7120 H   0  0  0  0  0  0  0  0  0  0  0  0
   39.0920   24.3890   42.5590 C   0  0  0  0  0  3  0  0  0  0  0  0
   39.7960   25.4460   43.0670 C   0  0  0  0  0  3  0  0  0  0  0  0
   38.8440   31.3800   41.1610 O   0  0  0  0  0  0  0  0  0  0  0  0
   39.9000   30.9380   41.9420 C   0  0  0  0  0  0  0  0  0  0  0  0
   39.6630   31.0950   43.2980 F   0  0  0  0  0  0  0  0  0  0  0  0
   40.2340   29.6650   41.6100 F   0  0  0  0  0  0  0  0  0  0  0  0
   40.9810   31.7630   41.6350 F   0  0  0  0  0  0  0  0  0  0  0  0
  2  1  2  6  0  0  0
  2 25  1  0  0  0  0
  2 13  1  0  0  0  0
  3  2  1  0  0  0  0
  4  9  2  0  0  0  0
  4  5  1  0  0  0  0
  5  6  2  0  0  0  0
  6  7  1  0  0  0  0
  6  3  1  0  0  0  0
  8 12  1  0  0  0  0
  8  7  2  0  0  0  0
  9  8  1  0  0  0  0
 10  4  1  0  0  0  0
 11  5  1  0  0  0  0
 13 14  1  0  0  0  0
 14 15  2  0  0  0  0
 17 16  1  0  0  0  0
 18 14  1  0  0  0  0
 18 17  2  0  0  0  0
 19 18  1  0  0  0  0
 20 19  1  0  0  0  0
 21 19  2  0  0  0  0
 21 23  1  0  0  0  0
 22 21  1  0  0  0  0
 23 24  2  0  0  0  0
 24 17  1  0  0  0  0
 25 26  1  0  0  0  0
 26 27  1  0  0  0  0
 28 26  1  0  0  0  0
 29 26  1  0  0  0  0
M  END
>  <minimizedAffinity>
-4.97968102

$$$$
