
 OpenBabel03252507593D

 29 31  0  0  1  0  0  0  0  0999 V2000
   47.2870   34.0800   43.4660 C   0  0  0  0  0  0  0  0  0  0  0  0
   46.1940   34.9660   43.2320 C   0  0  0  0  0  0  0  0  0  0  0  0
   45.1150   34.8330   44.1020 C   0  0  0  0  0  0  0  0  0  0  0  0
   45.1670   33.9020   45.0840 N   0  0  0  0  0  0  0  0  0  0  0  0
   46.2590   33.0820   45.2450 C   0  0  0  0  0  0  0  0  0  0  0  0
   47.3160   33.1500   44.4600 N   0  0  0  0  0  0  0  0  0  0  0  0
   46.2540   35.6730   42.4190 H   0  0  0  0  0  0  0  0  0  0  0  0
   44.2650   35.4860   43.9610 H   0  0  0  0  0  0  0  0  0  0  0  0
   46.2420   32.0910   46.3570 C   0  0  1  0  0  0  0  0  0  0  0  0
   46.8730   32.4630   47.6790 C   0  0  0  0  0  0  0  0  0  0  0  0
   45.3810   32.4610   47.5020 C   0  0  1  0  0  0  0  0  0  0  0  0
   46.2970   31.0440   46.0370 H   0  0  0  0  0  0  0  0  0  0  0  0
   47.2580   31.5960   48.2510 H   0  0  0  0  0  0  0  0  0  0  0  0
   47.4450   33.4040   47.7480 H   0  0  0  0  0  0  0  0  0  0  0  0
   44.7820   31.6830   48.0040 H   0  0  0  0  0  0  0  0  0  0  0  0
   44.8280   33.8180   47.5730 N   0  0  0  0  0  0  0  0  0  0  0  0
   45.5610   34.5540   47.6500 H   0  0  0  0  0  0  0  0  0  0  0  0
   44.3020   33.8670   48.4740 H   0  0  0  0  0  0  0  0  0  0  0  0
   48.4160   34.2310   42.5630 C   0  0  0  0  0  0  0  0  0  0  0  0
   49.5400   34.7230   42.9430 O   0  0  0  0  0  0  0  0  0  0  0  0
   48.8560   36.0300   40.5570 F   0  0  0  0  0  0  0  0  0  0  0  0
   48.4200   34.7660   40.2670 C   0  0  0  0  0  0  0  0  0  0  0  0
   48.1650   33.7760   41.1940 C   0  0  0  0  0  0  0  0  0  0  0  0
   47.7320   32.5420   40.8020 C   0  0  0  0  0  0  0  0  0  0  0  0
   47.5580   31.8320   41.5860 H   0  0  0  0  0  0  0  0  0  0  0  0
   47.5480   32.2930   39.4420 C   0  0  0  0  0  0  0  0  0  0  0  0
   47.2060   31.2950   39.2240 H   0  0  0  0  0  0  0  0  0  0  0  0
   47.7950   33.2610   38.5070 C   0  0  0  0  0  3  0  0  0  0  0  0
   48.2320   34.5010   38.9080 C   0  0  0  0  0  3  0  0  0  0  0  0
  1  6  1  0  0  0  0
  2  1  2  0  0  0  0
  2  3  1  0  0  0  0
  3  4  2  0  0  0  0
  4  5  1  0  0  0  0
  5  9  1  0  0  0  0
  6  5  2  0  0  0  0
  7  2  1  0  0  0  0
  8  3  1  0  0  0  0
  9 12  1  6  0  0  0
  9 11  1  0  0  0  0
  9 10  1  0  0  0  0
 10 14  1  0  0  0  0
 10 13  1  0  0  0  0
 11 16  1  0  0  0  0
 11 10  1  0  0  0  0
 11 15  1  1  0  0  0
 16 17  1  0  0  0  0
 16 18  1  0  0  0  0
 19 20  2  0  0  0  0
 19  1  1  0  0  0  0
 22 21  1  0  0  0  0
 22 23  1  0  0  0  0
 23 19  1  0  0  0  0
 24 23  2  0  0  0  0
 24 25  1  0  0  0  0
 26 24  1  0  0  0  0
 27 26  1  0  0  0  0
 28 29  1  0  0  0  0
 28 26  2  0  0  0  0
 29 22  2  0  0  0  0
M  END
>  <minimizedAffinity>
-5.84442616

>  <minimizedRMSD>
1.66449797

$$$$
