REMARK  Name = 
REMARK  4 active torsions:
REMARK  status: ('A' for Active; 'I' for Inactive)
REMARK    1  A    between atoms: C_1  and  C_11
REMARK    2  A    between atoms: C_5  and  C_7
REMARK    3  A    between atoms: C_9  and  N_10
REMARK    4  A    between atoms: C_11  and  C_23
REMARK                            x       y       z     vdW  Elec       q    Type
REMARK                         _______ _______ _______ _____ _____    ______ ____
ROOT
ATOM      1  C   UNL     1      46.262  34.744  43.244  0.00  0.00    +0.000 A 
ATOM      2  C   UNL     1      45.304  35.743  43.585  0.00  0.00    +0.000 A 
ATOM      3  C   UNL     1      44.661  35.569  44.808  0.00  0.00    +0.000 A 
ATOM      4  N   UNL     1      44.974  34.497  45.573  0.00  0.00    +0.000 NA
ATOM      5  C   UNL     1      45.912  33.573  45.174  0.00  0.00    +0.000 A 
ATOM      6  N   UNL     1      46.560  33.673  44.031  0.00  0.00    +0.000 NA
ATOM      7  H   UNL     1      45.129  36.560  42.901  0.00  0.00    +0.000 HD
ATOM      8  H   UNL     1      43.927  36.304  45.105  0.00  0.00    +0.000 HD
ENDROOT
BRANCH   5   9
ATOM      9  C   UNL     1      46.207  32.428  46.080  0.00  0.00    +0.000 C 
ATOM     10  C   UNL     1      47.033  32.670  47.322  0.00  0.00    +0.000 C 
ATOM     11  C   UNL     1      45.543  32.496  47.400  0.00  0.00    +0.000 C 
ATOM     12  H   UNL     1      46.309  31.460  45.574  0.00  0.00    +0.000 HD
ATOM     13  H   UNL     1      47.607  31.785  47.658  0.00  0.00    +0.000 HD
ATOM     14  H   UNL     1      47.507  33.657  47.459  0.00  0.00    +0.000 HD
ATOM     15  H   UNL     1      45.133  31.576  47.849  0.00  0.00    +0.000 HD
BRANCH  11  16
ATOM     16  N   UNL     1      44.875  33.739  47.802  0.00  0.00    +0.000 NA
ATOM     17  H   UNL     1      45.529  34.546  47.885  0.00  0.00    +0.000 HD
ATOM     18  H   UNL     1      44.526  33.576  48.773  0.00  0.00    +0.000 HD
ENDBRANCH  11  16
ENDBRANCH   5   9
BRANCH   1  19
ATOM     19  C   UNL     1      46.940  34.937  41.973  0.00  0.00    +0.000 C 
ATOM     20  O   UNL     1      48.064  35.550  41.878  0.00  0.00    +0.000 OA
BRANCH  19  23
ATOM     21  F   UNL     1      45.915  32.420  42.245  0.00  0.00    +0.000 F 
ATOM     22  C   UNL     1      45.763  33.103  41.069  0.00  0.00    +0.000 A 
ATOM     23  C   UNL     1      46.236  34.376  40.818  0.00  0.00    +0.000 A 
ATOM     24  C   UNL     1      46.032  34.974  39.608  0.00  0.00    +0.000 A 
ATOM     25  H   UNL     1      46.432  35.962  39.496  0.00  0.00    +0.000 HD
ATOM     26  C   UNL     1      45.333  34.277  38.621  0.00  0.00    +0.000 A 
ATOM     27  H   UNL     1      45.219  34.824  37.700  0.00  0.00    +0.000 HD
ATOM     28  C   UNL     1      44.856  33.016  38.851  0.00  0.00    +0.000 A 
ATOM     29  C   UNL     1      45.065  32.419  40.072  0.00  0.00    +0.000 A 
ENDBRANCH  19  23
ENDBRANCH   1  19
TORSDOF 4
