
     RDKit          3D

 36 39  0  0  0  0  0  0  0  0999 V2000
   46.0445   31.6948   45.1338 C   0  0  0  0  0  0  0  0  0  0  0  0
   45.8066   33.0098   45.5366 C   0  0  0  0  0  0  0  0  0  0  0  0
   45.5310   33.2958   46.8632 C   0  0  0  0  0  0  0  0  0  0  0  0
   45.4986   32.2468   47.7695 C   0  0  0  0  0  0  0  0  0  0  0  0
   45.2704   32.1941   49.0795 N   0  0  0  0  0  0  0  0  0  0  0  0
   45.3420   30.9470   49.5497 C   0  0  0  0  0  0  0  0  0  0  0  0
   45.6338   30.1254   48.4968 C   0  0  0  0  0  0  0  0  0  0  0  0
   45.7334   30.9340   47.3798 C   0  0  0  0  0  0  0  0  0  0  0  0
   46.0079   30.6650   46.0493 C   0  0  0  0  0  0  0  0  0  0  0  0
   46.8814   34.9341   42.6365 C   0  0  0  0  0  0  0  0  0  0  0  0
   45.9647   35.9614   42.5417 C   0  0  0  0  0  0  0  0  0  0  0  0
   44.9581   35.9934   43.4949 C   0  0  0  0  0  0  0  0  0  0  0  0
   44.9213   35.0325   44.4577 N   0  0  0  0  0  0  0  0  0  0  0  0
   45.8603   34.0392   44.4976 C   0  0  0  0  0  0  0  0  0  0  0  0
   46.8405   33.9884   43.5886 N   0  0  0  0  0  0  0  0  0  0  0  0
   47.9190   34.9450   41.6103 C   0  0  0  0  0  0  0  0  0  0  0  0
   48.8297   35.8153   41.4894 O   0  0  0  0  0  0  0  0  0  0  0  0
   46.2680   31.3684   44.1255 H   0  0  0  0  0  0  0  0  0  0  0  0
   45.3524   34.3208   47.1407 H   0  0  0  0  0  0  0  0  0  0  0  0
   45.0591   33.0459   49.6638 H   0  0  0  0  0  0  0  0  0  0  0  0
   45.1911   30.6744   50.5802 H   0  0  0  0  0  0  0  0  0  0  0  0
   45.7692   29.0346   48.5013 H   0  0  0  0  0  0  0  0  0  0  0  0
   46.1822   29.6261   45.8054 H   0  0  0  0  0  0  0  0  0  0  0  0
   45.9842   36.7303   41.7811 H   0  0  0  0  0  0  0  0  0  0  0  0
   44.1874   36.7557   43.5129 H   0  0  0  0  0  0  0  0  0  0  0  0
   45.4931   33.8388   40.9869 F   0  0  0  0  0  0  0  0  0  0  0  0
   46.6409   33.3742   40.3927 C   0  0  0  0  0  0  0  0  0  0  0  0
   47.9113   33.8567   40.6321 C   0  0  0  0  0  0  0  0  0  0  0  0
   48.9954   33.3125   39.9762 C   0  0  0  0  0  0  0  0  0  0  0  0
   49.9388   33.7492   40.2244 H   0  0  0  0  0  0  0  0  0  0  0  0
   48.8013   32.2807   39.0774 C   0  0  0  0  0  0  0  0  0  0  0  0
   49.6522   31.8660   38.5737 H   0  0  0  0  0  0  0  0  0  0  0  0
   47.5107   31.8052   38.8474 C   0  0  0  0  0  0  0  0  0  0  0  0
   46.3933   32.3341   39.4947 C   0  0  0  0  0  0  0  0  0  0  0  0
   47.3299   30.9899   38.1413 H   0  0  0  0  0  0  0  0  0  0  0  0
   45.4178   31.9297   39.2802 H   0  0  0  0  0  0  0  0  0  0  0  0
  1  2  2  0
  1  9  1  0
  2  3  1  0
  3  4  2  0
  4  5  1  0
  5  6  1  0
  7  6  2  0
  8  4  1  0
  8  7  1  0
  9  8  2  0
 10 15  1  0
 11 10  2  0
 11 12  1  0
 12 13  2  0
 13 14  1  0
 14  2  1  0
 15 14  2  0
 16 10  1  0
 17 16  2  0
  1 18  1  0
  3 19  1  0
  5 20  1  0
  6 21  1  0
  7 22  1  0
  9 23  1  0
 11 24  1  0
 12 25  1  0
 26 27  1  0
 27 28  2  0
 28 29  1  0
 29 30  1  0
 29 31  2  0
 31 32  1  0
 31 33  1  0
 33 34  2  0
 34 27  1  0
 33 35  1  0
 34 36  1  0
 16 28  1  0
M  ISO  8  18  14  19  14  20   9  21  14  22  14  23  14  24  14  25  14
M  ISO  2  30  15  32  16
M  END
>  <DihAtoms>  (1) 
9,15,27,26

>  <DihDeg>  (1) 
134.99974762567476

$$$$
