
     RDKit          3D

 30 32  0  0  0  0  0  0  0  0999 V2000
   46.0823   34.1600   41.0128 C   0  0  0  0  0  0  0  0  0  0  0  0
   46.6105   34.8315   42.1092 C   0  0  0  0  0  0  0  0  0  0  0  0
   47.9393   35.2771   41.9865 C   0  0  0  0  0  0  0  0  0  0  0  0
   48.6097   35.0242   40.8176 N   0  0  0  0  0  0  0  0  0  0  0  0
   48.0489   34.3764   39.8039 C   0  0  0  0  0  0  0  0  0  0  0  0
   46.7823   33.9377   39.8892 N   0  0  0  0  0  0  0  0  0  0  0  0
   45.8090   35.0420   43.2934 C   0  0  0  0  0  0  0  0  0  0  0  0
   45.0503   36.1857   43.4961 C   0  0  0  0  0  0  0  0  0  0  0  0
   44.4638   35.9679   44.7243 C   0  0  0  0  0  0  0  0  0  0  0  0
   44.8405   34.7683   45.2380 N   0  0  0  0  0  0  0  0  0  0  0  0
   45.6516   34.2349   44.3510 N   0  0  0  0  0  0  0  0  0  0  0  0
   44.7806   33.7073   41.0967 O   0  0  0  0  0  0  0  0  0  0  0  0
   43.6904   34.1854   40.4294 C   0  0  0  0  0  0  0  0  0  0  0  0
   43.2509   35.3905   40.4150 O   0  0  0  0  0  0  0  0  0  0  0  0
   48.3637   35.8044   42.8396 H   0  0  0  0  0  0  0  0  0  0  0  0
   48.5865   34.1817   38.8848 H   0  0  0  0  0  0  0  0  0  0  0  0
   44.8904   37.0867   42.8970 H   0  0  0  0  0  0  0  0  0  0  0  0
   43.7765   36.5978   45.3028 H   0  0  0  0  0  0  0  0  0  0  0  0
   44.6254   34.2593   46.1058 H   0  0  0  0  0  0  0  0  0  0  0  0
   43.6651   31.3465   40.5523 F   0  0  0  0  0  0  0  0  0  0  0  0
   42.8174   31.9322   39.6612 C   0  0  0  0  0  0  0  0  0  0  0  0
   42.8122   33.3284   39.5839 C   0  0  0  0  0  0  0  0  0  0  0  0
   41.9203   33.8045   38.6537 C   0  0  0  0  0  0  0  0  0  0  0  0
   41.8422   34.8722   38.5192 H   0  0  0  0  0  0  0  0  0  0  0  0
   41.1120   33.0116   37.8737 C   0  0  0  0  0  0  0  0  0  0  0  0
   40.4328   33.4588   37.1609 H   0  0  0  0  0  0  0  0  0  0  0  0
   41.1829   31.6593   38.0154 C   0  0  0  0  0  0  0  0  0  0  0  0
   42.0364   31.0849   38.9118 C   0  0  0  0  0  0  0  0  0  0  0  0
   40.5641   31.0033   37.4209 H   0  0  0  0  0  0  0  0  0  0  0  0
   42.0925   30.0263   39.0233 H   0  0  0  0  0  0  0  0  0  0  0  0
  1 12  1  0
  1  2  1  0
  2  7  1  0
  3  2  2  0
  4  3  1  0
  5  6  1  0
  5  4  2  0
  6  1  2  0
  7  8  1  0
  7 11  2  0
  8  9  2  0
  9 10  1  0
 11 10  1  0
 13 14  2  0
 13 12  1  0
  3 15  1  0
  5 16  1  0
  8 17  1  0
  9 18  1  0
 10 19  1  0
 20 21  1  0
 21 22  2  0
 22 23  1  0
 23 24  1  0
 23 25  2  0
 25 26  1  0
 25 27  1  0
 27 28  2  0
 28 21  1  0
 27 29  1  0
 28 30  1  0
 13 22  1  0
M  ISO  7  15  14  16  14  17  14  18  14  19   9  24  15  26  16
M  END
>  <DihAtoms>  (1) 
13,12,21,20

>  <DihDeg>  (1) 
-178.37922688413806

$$$$
