
 OpenBabel03242512323D

 20 21  0  0  0  0  0  0  0  0999 V2000
   48.3360   34.2360   42.4880 C   0  0  0  0  0  0  0  0  0  0  0  0
   49.5340   34.3470   42.8840 O   0  0  0  0  0  0  0  0  0  0  0  0
   47.1430   34.3770   43.2640 C   0  0  0  0  0  0  0  0  0  0  0  0
   46.2990   35.3880   42.8050 C   0  0  0  0  0  0  0  0  0  0  0  0
   45.1010   35.5900   43.5160 C   0  0  0  0  0  0  0  0  0  0  0  0
   44.8560   34.7850   44.5980 N   0  0  0  0  0  0  0  0  0  0  0  0
   45.7190   33.8200   44.9900 C   0  0  0  0  0  0  0  0  0  0  0  0
   46.8680   33.6150   44.3180 N   0  0  0  0  0  0  0  0  0  0  0  0
   46.4920   36.0230   41.9520 H   0  0  0  0  0  0  0  0  0  0  0  0
   44.3670   36.3370   43.2650 H   0  0  0  0  0  0  0  0  0  0  0  0
   45.5150   33.1890   45.8460 H   0  0  0  0  0  0  0  0  0  0  0  0
   48.8620   35.9420   40.2720 F   0  0  0  0  0  0  0  0  0  0  0  0
   48.3520   34.7230   39.9830 C   0  0  0  0  0  0  0  0  0  0  0  0
   48.1080   33.9240   41.0610 C   0  0  0  0  0  0  0  0  0  0  0  0
   47.5850   32.6630   40.8490 C   0  0  0  0  0  0  0  0  0  0  0  0
   47.3500   31.9350   41.6370 H   0  0  0  0  0  0  0  0  0  0  0  0
   47.2980   32.1770   39.5860 C   0  0  0  0  0  0  0  0  0  0  0  0
   46.8900   31.1960   39.3880 H   0  0  0  0  0  0  0  0  0  0  0  0
   47.5480   32.9920   38.5000 C   0  0  0  0  0  0  0  0  0  0  0  0
   48.0720   34.2570   38.7140 C   0  0  0  0  0  0  0  0  0  0  0  0
  1  2  2  0  0  0  0
  1  3  1  0  0  0  0
  3  8  1  0  0  0  0
  4  3  2  0  0  0  0
  4  5  1  0  0  0  0
  5  6  2  0  0  0  0
  6  7  1  0  0  0  0
  7 11  1  0  0  0  0
  8  7  2  0  0  0  0
  9  4  1  0  0  0  0
 10  5  1  0  0  0  0
 13 12  1  0  0  0  0
 13 14  1  0  0  0  0
 14  1  1  0  0  0  0
 15 14  2  0  0  0  0
 15 16  1  0  0  0  0
 17 15  1  0  0  0  0
 18 17  1  0  0  0  0
 19 20  1  0  0  0  0
 19 17  2  0  0  0  0
 20 13  2  0  0  0  0
M  END
>  <minimizedAffinity>
-4.51623964

>  <minimizedRMSD>
1.82227862

$$$$
