
 OpenBabel03242513123D

 20 21  0  0  0  0  0  0  0  0999 V2000
   35.8600   29.3690   40.4080 C   0  0  0  0  0  0  0  0  0  0  0  0
   34.6190   29.2170   40.3000 O   0  0  0  0  0  0  0  0  0  0  0  0
   37.4060   26.7460   42.4030 C   0  0  0  0  0  0  0  0  0  0  0  0
   38.0750   27.4420   43.4370 C   0  0  0  0  0  0  0  0  0  0  0  0
   37.9670   28.8360   43.4090 C   0  0  0  0  0  0  0  0  0  0  0  0
   37.2540   29.4540   42.4350 N   0  0  0  0  0  0  0  0  0  0  0  0
   36.6350   28.7350   41.4720 C   0  0  0  0  0  0  0  0  0  0  0  0
   36.7200   27.3940   41.4710 N   0  0  0  0  0  0  0  0  0  0  0  0
   37.4580   25.6750   42.3800 H   0  0  0  0  0  0  0  0  0  0  0  0
   38.6120   26.8600   44.1600 H   0  0  0  0  0  0  0  0  0  0  0  0
   38.4770   29.3400   44.1960 H   0  0  0  0  0  0  0  0  0  0  0  0
   36.6950   32.0650   40.7860 F   0  0  0  0  0  0  0  0  0  0  0  0
   36.8920   31.5310   39.5610 C   0  0  0  0  0  0  0  0  0  0  0  0
   36.4810   30.2230   39.4000 C   0  0  0  0  0  0  0  0  0  0  0  0
   36.6770   29.6500   38.1390 C   0  0  0  0  0  0  0  0  0  0  0  0
   36.3770   28.6220   37.9380 H   0  0  0  0  0  0  0  0  0  0  0  0
   37.2520   30.3300   37.0810 C   0  0  0  0  0  0  0  0  0  0  0  0
   37.3770   29.8230   36.1150 H   0  0  0  0  0  0  0  0  0  0  0  0
   37.6600   31.6400   37.2550 C   0  0  0  0  0  3  0  0  0  0  0  0
   37.4640   32.2000   38.5010 C   0  0  0  0  0  3  0  0  0  0  0  0
  1  7  1  0  0  0  0
  2  1  2  0  0  0  0
  3  4  1  0  0  0  0
  4 10  1  0  0  0  0
  5  4  2  0  0  0  0
  5 11  1  0  0  0  0
  6  5  1  0  0  0  0
  7  6  2  0  0  0  0
  8  7  1  0  0  0  0
  8  3  2  0  0  0  0
  9  3  1  0  0  0  0
 13 12  1  0  0  0  0
 14 13  1  0  0  0  0
 14  1  1  0  0  0  0
 15 14  2  0  0  0  0
 16 15  1  0  0  0  0
 17 19  2  0  0  0  0
 17 15  1  0  0  0  0
 18 17  1  0  0  0  0
 19 20  1  0  0  0  0
 20 13  2  0  0  0  0
M  END
>  <minimizedAffinity>
-4.79794455

$$$$

 OpenBabel03242513123D

 20 21  0  0  0  0  0  0  0  0999 V2000
   36.9530   27.6060   42.8200 C   0  0  0  0  0  0  0  0  0  0  0  0
   36.0600   27.4140   43.6800 O   0  0  0  0  0  0  0  0  0  0  0  0
   35.8170   29.8450   40.1830 C   0  0  0  0  0  0  0  0  0  0  0  0
   36.7940   30.8680   40.1500 C   0  0  0  0  0  0  0  0  0  0  0  0
   37.8430   30.7470   41.0660 C   0  0  0  0  0  0  0  0  0  0  0  0
   37.8930   29.6970   41.9230 N   0  0  0  0  0  0  0  0  0  0  0  0
   36.9300   28.7490   41.9090 C   0  0  0  0  0  0  0  0  0  0  0  0
   35.9090   28.8370   41.0410 N   0  0  0  0  0  0  0  0  0  0  0  0
   34.9920   29.8920   39.5000 H   0  0  0  0  0  0  0  0  0  0  0  0
   36.6630   31.6540   39.4330 H   0  0  0  0  0  0  0  0  0  0  0  0
   38.5670   31.5260   41.0230 H   0  0  0  0  0  0  0  0  0  0  0  0
   36.9640   25.2180   41.2700 F   0  0  0  0  0  0  0  0  0  0  0  0
   38.0460   25.4470   42.0440 C   0  0  0  0  0  0  0  0  0  0  0  0
   38.0210   26.6100   42.7870 C   0  0  0  0  0  0  0  0  0  0  0  0
   39.1320   26.8680   43.5960 C   0  0  0  0  0  0  0  0  0  0  0  0
   39.1820   27.7660   44.2100 H   0  0  0  0  0  0  0  0  0  0  0  0
   40.2220   26.0200   43.6740 C   0  0  0  0  0  0  0  0  0  0  0  0
   41.0640   26.2800   44.3300 H   0  0  0  0  0  0  0  0  0  0  0  0
   40.2360   24.8580   42.9250 C   0  0  0  0  0  3  0  0  0  0  0  0
   39.1370   24.6100   42.1290 C   0  0  0  0  0  3  0  0  0  0  0  0
  1  2  2  0  0  0  0
  3  8  1  0  0  0  0
  4  3  2  0  0  0  0
  4  5  1  0  0  0  0
  5  6  2  0  0  0  0
  7  6  1  0  0  0  0
  7  1  1  0  0  0  0
  8  7  2  0  0  0  0
  9  3  1  0  0  0  0
 10  4  1  0  0  0  0
 11  5  1  0  0  0  0
 12 13  1  0  0  0  0
 13 20  2  0  0  0  0
 13 14  1  0  0  0  0
 14  1  1  0  0  0  0
 14 15  2  0  0  0  0
 15 17  1  0  0  0  0
 15 16  1  0  0  0  0
 17 18  1  0  0  0  0
 19 17  2  0  0  0  0
 20 19  1  0  0  0  0
M  END
>  <minimizedAffinity>
-4.75832462

$$$$

 OpenBabel03242513123D

 20 21  0  0  0  0  0  0  0  0999 V2000
   36.9530   27.5350   42.9060 C   0  0  0  0  0  0  0  0  0  0  0  0
   35.9730   27.4070   43.6800 O   0  0  0  0  0  0  0  0  0  0  0  0
   39.0160   24.6350   42.1440 C   0  0  0  0  0  0  0  0  0  0  0  0
   40.1920   24.8330   42.9050 C   0  0  0  0  0  0  0  0  0  0  0  0
   40.2340   25.9970   43.6790 C   0  0  0  0  0  0  0  0  0  0  0  0
   39.1920   26.8640   43.6790 N   0  0  0  0  0  0  0  0  0  0  0  0
   38.0930   26.6210   42.9300 C   0  0  0  0  0  0  0  0  0  0  0  0
   38.0220   25.5120   42.1760 N   0  0  0  0  0  0  0  0  0  0  0  0
   38.9350   23.7570   41.5340 H   0  0  0  0  0  0  0  0  0  0  0  0
   40.9590   24.0870   42.8370 H   0  0  0  0  0  0  0  0  0  0  0  0
   41.1270   26.1250   44.2450 H   0  0  0  0  0  0  0  0  0  0  0  0
   38.5570   29.8860   43.0040 F   0  0  0  0  0  0  0  0  0  0  0  0
   37.6480   29.8090   42.0090 C   0  0  0  0  0  0  0  0  0  0  0  0
   36.8820   28.6610   41.9790 C   0  0  0  0  0  0  0  0  0  0  0  0
   35.9330   28.5600   40.9560 C   0  0  0  0  0  0  0  0  0  0  0  0
   35.2930   27.6830   40.8700 H   0  0  0  0  0  0  0  0  0  0  0  0
   35.7440   29.5430   40.0010 C   0  0  0  0  0  0  0  0  0  0  0  0
   34.9820   29.4030   39.2230 H   0  0  0  0  0  0  0  0  0  0  0  0
   36.5190   30.6880   40.0410 C   0  0  0  0  0  3  0  0  0  0  0  0
   37.4520   30.7820   41.0530 C   0  0  0  0  0  3  0  0  0  0  0  0
  1  7  1  0  0  0  0
  1  2  2  0  0  0  0
  3  8  2  0  0  0  0
  3  4  1  0  0  0  0
  4  5  2  0  0  0  0
  5 11  1  0  0  0  0
  6  5  1  0  0  0  0
  7  6  2  0  0  0  0
  8  7  1  0  0  0  0
  9  3  1  0  0  0  0
 10  4  1  0  0  0  0
 13 12  1  0  0  0  0
 14 13  1  0  0  0  0
 14  1  1  0  0  0  0
 15 14  2  0  0  0  0
 16 15  1  0  0  0  0
 17 19  2  0  0  0  0
 17 15  1  0  0  0  0
 18 17  1  0  0  0  0
 19 20  1  0  0  0  0
 20 13  2  0  0  0  0
M  END
>  <minimizedAffinity>
-4.7058773

$$$$

 OpenBabel03242513123D

 20 21  0  0  0  0  0  0  0  0999 V2000
   36.3240   30.1410   40.7830 C   0  0  0  0  0  0  0  0  0  0  0  0
   36.1900   31.3630   41.0380 O   0  0  0  0  0  0  0  0  0  0  0  0
   38.7520   28.7410   43.1050 C   0  0  0  0  0  0  0  0  0  0  0  0
   38.1770   27.5140   43.5130 C   0  0  0  0  0  0  0  0  0  0  0  0
   36.9330   27.2030   42.9560 C   0  0  0  0  0  0  0  0  0  0  0  0
   36.3390   28.0480   42.0780 N   0  0  0  0  0  0  0  0  0  0  0  0
   36.9370   29.2080   41.7260 C   0  0  0  0  0  0  0  0  0  0  0  0
   38.1320   29.5360   42.2430 N   0  0  0  0  0  0  0  0  0  0  0  0
   39.7050   29.0250   43.5040 H   0  0  0  0  0  0  0  0  0  0  0  0
   38.7280   26.9160   44.2120 H   0  0  0  0  0  0  0  0  0  0  0  0
   36.5200   26.2750   43.2760 H   0  0  0  0  0  0  0  0  0  0  0  0
   33.7460   29.0540   40.2540 F   0  0  0  0  0  0  0  0  0  0  0  0
   34.5820   29.1820   39.2010 C   0  0  0  0  0  0  0  0  0  0  0  0
   35.8260   29.7120   39.4800 C   0  0  0  0  0  0  0  0  0  0  0  0
   36.7080   29.8540   38.4030 C   0  0  0  0  0  0  0  0  0  0  0  0
   37.7060   30.2650   38.5480 H   0  0  0  0  0  0  0  0  0  0  0  0
   36.3830   29.4920   37.1080 C   0  0  0  0  0  0  0  0  0  0  0  0
   37.1210   29.6300   36.3070 H   0  0  0  0  0  0  0  0  0  0  0  0
   35.1330   28.9630   36.8420 C   0  0  0  0  0  3  0  0  0  0  0  0
   34.2680   28.8250   37.9080 C   0  0  0  0  0  3  0  0  0  0  0  0
  1  2  2  0  0  0  0
  1  7  1  0  0  0  0
  3  9  1  0  0  0  0
  3  4  1  0  0  0  0
  4 10  1  0  0  0  0
  5 11  1  0  0  0  0
  5  4  2  0  0  0  0
  6  5  1  0  0  0  0
  7  6  2  0  0  0  0
  7  8  1  0  0  0  0
  8  3  2  0  0  0  0
 13 14  1  0  0  0  0
 13 12  1  0  0  0  0
 14  1  1  0  0  0  0
 15 16  1  0  0  0  0
 15 14  2  0  0  0  0
 17 15  1  0  0  0  0
 18 17  1  0  0  0  0
 19 17  2  0  0  0  0
 19 20  1  0  0  0  0
 20 13  2  0  0  0  0
M  END
>  <minimizedAffinity>
-4.69755459

$$$$

 OpenBabel03242513123D

 20 21  0  0  0  0  0  0  0  0999 V2000
   36.6310   27.4850   42.6790 C   0  0  0  0  0  0  0  0  0  0  0  0
   35.8790   27.3890   43.6800 O   0  0  0  0  0  0  0  0  0  0  0  0
   37.3280   30.7010   41.1230 C   0  0  0  0  0  0  0  0  0  0  0  0
   36.4500   30.7490   40.0140 C   0  0  0  0  0  0  0  0  0  0  0  0
   35.6220   29.6360   39.8370 C   0  0  0  0  0  0  0  0  0  0  0  0
   35.6810   28.5880   40.6940 N   0  0  0  0  0  0  0  0  0  0  0  0
   36.5420   28.5980   41.7370 C   0  0  0  0  0  0  0  0  0  0  0  0
   37.3500   29.6520   41.9350 N   0  0  0  0  0  0  0  0  0  0  0  0
   37.9830   31.5300   41.3020 H   0  0  0  0  0  0  0  0  0  0  0  0
   36.4790   31.6240   39.3960 H   0  0  0  0  0  0  0  0  0  0  0  0
   34.9690   29.6940   38.9980 H   0  0  0  0  0  0  0  0  0  0  0  0
   39.3540   27.5510   43.5100 F   0  0  0  0  0  0  0  0  0  0  0  0
   38.9260   26.4190   42.9110 C   0  0  0  0  0  0  0  0  0  0  0  0
   37.6030   26.4080   42.5170 C   0  0  0  0  0  0  0  0  0  0  0  0
   37.1390   25.2440   41.8940 C   0  0  0  0  0  0  0  0  0  0  0  0
   36.1070   25.1630   41.5560 H   0  0  0  0  0  0  0  0  0  0  0  0
   37.9380   24.1380   41.6680 C   0  0  0  0  0  0  0  0  0  0  0  0
   37.5130   23.2550   41.1730 H   0  0  0  0  0  0  0  0  0  0  0  0
   39.2620   24.1620   42.0680 C   0  0  0  0  0  3  0  0  0  0  0  0
   39.7140   25.3120   42.6810 C   0  0  0  0  0  3  0  0  0  0  0  0
  1  2  2  0  0  0  0
  3  9  1  0  0  0  0
  3  8  1  0  0  0  0
  4  3  2  0  0  0  0
  5  4  1  0  0  0  0
  5  6  2  0  0  0  0
  6  7  1  0  0  0  0
  7  8  2  0  0  0  0
  7  1  1  0  0  0  0
 10  4  1  0  0  0  0
 11  5  1  0  0  0  0
 13 12  1  0  0  0  0
 14  1  1  0  0  0  0
 14 13  2  0  0  0  0
 15 14  1  0  0  0  0
 16 15  1  0  0  0  0
 17 15  2  0  0  0  0
 17 19  1  0  0  0  0
 18 17  1  0  0  0  0
 19 20  2  0  0  0  0
 20 13  1  0  0  0  0
M  END
>  <minimizedAffinity>
-4.61566877

$$$$

 OpenBabel03242513123D

 20 21  0  0  0  0  0  0  0  0999 V2000
   35.5240   29.1710   40.2210 C   0  0  0  0  0  0  0  0  0  0  0  0
   34.2840   29.2180   40.0320 O   0  0  0  0  0  0  0  0  0  0  0  0
   37.1520   25.9530   40.7150 C   0  0  0  0  0  0  0  0  0  0  0  0
   37.3970   25.8970   42.1070 C   0  0  0  0  0  0  0  0  0  0  0  0
   36.9790   27.0050   42.8510 C   0  0  0  0  0  0  0  0  0  0  0  0
   36.3770   28.0570   42.2430 N   0  0  0  0  0  0  0  0  0  0  0  0
   36.1690   28.0540   40.9070 C   0  0  0  0  0  0  0  0  0  0  0  0
   36.5590   27.0050   40.1650 N   0  0  0  0  0  0  0  0  0  0  0  0
   37.4530   25.1280   40.1010 H   0  0  0  0  0  0  0  0  0  0  0  0
   37.8790   25.0190   42.4900 H   0  0  0  0  0  0  0  0  0  0  0  0
   37.1720   26.9410   43.8950 H   0  0  0  0  0  0  0  0  0  0  0  0
   36.2930   29.5870   37.5110 F   0  0  0  0  0  0  0  0  0  0  0  0
   36.6660   30.5300   38.4030 C   0  0  0  0  0  0  0  0  0  0  0  0
   36.2820   30.3100   39.7100 C   0  0  0  0  0  0  0  0  0  0  0  0
   36.6570   31.2760   40.6510 C   0  0  0  0  0  0  0  0  0  0  0  0
   36.3900   31.1680   41.7010 H   0  0  0  0  0  0  0  0  0  0  0  0
   37.3780   32.4090   40.3230 C   0  0  0  0  0  0  0  0  0  0  0  0
   37.6420   33.1300   41.1090 H   0  0  0  0  0  0  0  0  0  0  0  0
   37.7560   32.6190   39.0090 C   0  0  0  0  0  3  0  0  0  0  0  0
   37.3830   31.6630   38.0860 C   0  0  0  0  0  3  0  0  0  0  0  0
  1  7  1  0  0  0  0
  2  1  2  0  0  0  0
  3  4  1  0  0  0  0
  4 10  1  0  0  0  0
  4  5  2  0  0  0  0
  5 11  1  0  0  0  0
  6  5  1  0  0  0  0
  7  6  2  0  0  0  0
  8  3  2  0  0  0  0
  8  7  1  0  0  0  0
  9  3  1  0  0  0  0
 12 13  1  0  0  0  0
 13 14  1  0  0  0  0
 14  1  1  0  0  0  0
 14 15  2  0  0  0  0
 15 16  1  0  0  0  0
 17 15  1  0  0  0  0
 17 18  1  0  0  0  0
 19 17  2  0  0  0  0
 20 13  2  0  0  0  0
 20 19  1  0  0  0  0
M  END
>  <minimizedAffinity>
-4.61072731

$$$$

 OpenBabel03242513123D

 20 21  0  0  0  0  0  0  0  0999 V2000
   35.5650   29.2160   40.2390 C   0  0  0  0  0  0  0  0  0  0  0  0
   34.3130   29.1730   40.1650 O   0  0  0  0  0  0  0  0  0  0  0  0
   37.3820   32.3680   40.3680 C   0  0  0  0  0  0  0  0  0  0  0  0
   37.7900   32.5900   39.0310 C   0  0  0  0  0  0  0  0  0  0  0  0
   37.4120   31.6140   38.1030 C   0  0  0  0  0  0  0  0  0  0  0  0
   36.6970   30.5310   38.4930 N   0  0  0  0  0  0  0  0  0  0  0  0
   36.3350   30.3720   39.7860 C   0  0  0  0  0  0  0  0  0  0  0  0
   36.6830   31.2910   40.7010 N   0  0  0  0  0  0  0  0  0  0  0  0
   37.6470   33.0870   41.1170 H   0  0  0  0  0  0  0  0  0  0  0  0
   38.3530   33.4790   38.8260 H   0  0  0  0  0  0  0  0  0  0  0  0
   37.7290   31.8020   37.1040 H   0  0  0  0  0  0  0  0  0  0  0  0
   36.4200   26.9190   38.7920 F   0  0  0  0  0  0  0  0  0  0  0  0
   36.6260   26.9100   40.1260 C   0  0  0  0  0  0  0  0  0  0  0  0
   36.2040   28.0330   40.8090 C   0  0  0  0  0  0  0  0  0  0  0  0
   36.4080   28.0460   42.1930 C   0  0  0  0  0  0  0  0  0  0  0  0
   36.1010   28.8990   42.7960 H   0  0  0  0  0  0  0  0  0  0  0  0
   37.0000   27.0010   42.8780 C   0  0  0  0  0  0  0  0  0  0  0  0
   37.1310   27.0720   43.9660 H   0  0  0  0  0  0  0  0  0  0  0  0
   37.4180   25.8810   42.1830 C   0  0  0  0  0  3  0  0  0  0  0  0
   37.2140   25.8740   40.8190 C   0  0  0  0  0  3  0  0  0  0  0  0
  1 14  1  0  0  0  0
  2  1  2  0  0  0  0
  3  8  1  0  0  0  0
  3  9  1  0  0  0  0
  4  3  2  0  0  0  0
  5  6  2  0  0  0  0
  5  4  1  0  0  0  0
  6  7  1  0  0  0  0
  7  1  1  0  0  0  0
  7  8  2  0  0  0  0
 10  4  1  0  0  0  0
 11  5  1  0  0  0  0
 12 13  1  0  0  0  0
 13 14  2  0  0  0  0
 13 20  1  0  0  0  0
 14 15  1  0  0  0  0
 15 16  1  0  0  0  0
 15 17  2  0  0  0  0
 17 18  1  0  0  0  0
 19 17  1  0  0  0  0
 20 19  2  0  0  0  0
M  END
>  <minimizedAffinity>
-4.58575296

$$$$

 OpenBabel03242513123D

 20 21  0  0  0  0  0  0  0  0999 V2000
   35.7170   29.1950   40.4060 C   0  0  0  0  0  0  0  0  0  0  0  0
   34.4690   29.0910   40.3350 O   0  0  0  0  0  0  0  0  0  0  0  0
   37.3540   31.5190   38.1320 C   0  0  0  0  0  0  0  0  0  0  0  0
   37.7720   32.5850   38.9640 C   0  0  0  0  0  0  0  0  0  0  0  0
   37.4650   32.4610   40.3220 C   0  0  0  0  0  0  0  0  0  0  0  0
   36.8050   31.3710   40.7840 N   0  0  0  0  0  0  0  0  0  0  0  0
   36.4300   30.3830   39.9410 C   0  0  0  0  0  0  0  0  0  0  0  0
   36.7100   30.4720   38.6300 N   0  0  0  0  0  0  0  0  0  0  0  0
   37.5660   31.5660   37.0820 H   0  0  0  0  0  0  0  0  0  0  0  0
   38.2880   33.4020   38.5000 H   0  0  0  0  0  0  0  0  0  0  0  0
   37.7890   33.2730   40.9290 H   0  0  0  0  0  0  0  0  0  0  0  0
   36.8330   29.0610   43.0220 F   0  0  0  0  0  0  0  0  0  0  0  0
   36.9620   27.9630   42.2470 C   0  0  0  0  0  0  0  0  0  0  0  0
   36.4140   28.0490   40.9830 C   0  0  0  0  0  0  0  0  0  0  0  0
   36.5360   26.9220   40.1630 C   0  0  0  0  0  0  0  0  0  0  0  0
   36.1280   26.9180   39.1530 H   0  0  0  0  0  0  0  0  0  0  0  0
   37.1680   25.7600   40.5660 C   0  0  0  0  0  0  0  0  0  0  0  0
   37.2310   24.9100   39.8730 H   0  0  0  0  0  0  0  0  0  0  0  0
   37.7130   25.6860   41.8350 C   0  0  0  0  0  3  0  0  0  0  0  0
   37.5900   26.8010   42.6390 C   0  0  0  0  0  3  0  0  0  0  0  0
  1 14  1  0  0  0  0
  2  1  2  0  0  0  0
  3  8  2  0  0  0  0
  3  4  1  0  0  0  0
  4  5  2  0  0  0  0
  5  6  1  0  0  0  0
  5 11  1  0  0  0  0
  7  1  1  0  0  0  0
  7  6  2  0  0  0  0
  8  7  1  0  0  0  0
  9  3  1  0  0  0  0
 10  4  1  0  0  0  0
 13 20  1  0  0  0  0
 13 12  1  0  0  0  0
 14 13  2  0  0  0  0
 15 17  2  0  0  0  0
 15 14  1  0  0  0  0
 16 15  1  0  0  0  0
 17 19  1  0  0  0  0
 18 17  1  0  0  0  0
 19 20  2  0  0  0  0
M  END
>  <minimizedAffinity>
-4.4648571

$$$$

 OpenBabel03242513123D

 20 21  0  0  0  0  0  0  0  0999 V2000
   39.2420   30.1090   41.0790 C   0  0  0  0  0  0  0  0  0  0  0  0
   40.4650   29.8350   41.0110 O   0  0  0  0  0  0  0  0  0  0  0  0
   37.1300   32.4850   39.3060 C   0  0  0  0  0  0  0  0  0  0  0  0
   37.6110   33.7520   39.7150 C   0  0  0  0  0  0  0  0  0  0  0  0
   38.6800   33.7420   40.6160 C   0  0  0  0  0  0  0  0  0  0  0  0
   39.2040   32.5700   41.0530 N   0  0  0  0  0  0  0  0  0  0  0  0
   38.7020   31.3900   40.6270 C   0  0  0  0  0  0  0  0  0  0  0  0
   37.6750   31.3650   39.7620 N   0  0  0  0  0  0  0  0  0  0  0  0
   36.3120   32.4390   38.6160 H   0  0  0  0  0  0  0  0  0  0  0  0
   37.1290   34.6190   39.3110 H   0  0  0  0  0  0  0  0  0  0  0  0
   39.0260   34.7050   40.9090 H   0  0  0  0  0  0  0  0  0  0  0  0
   38.1620   27.8900   39.6600 F   0  0  0  0  0  0  0  0  0  0  0  0
   37.8570   27.9810   40.9730 C   0  0  0  0  0  0  0  0  0  0  0  0
   38.3920   29.0640   41.6420 C   0  0  0  0  0  0  0  0  0  0  0  0
   38.0900   29.1780   43.0030 C   0  0  0  0  0  0  0  0  0  0  0  0
   38.4770   30.0070   43.5950 H   0  0  0  0  0  0  0  0  0  0  0  0
   37.2980   28.2690   43.6800 C   0  0  0  0  0  0  0  0  0  0  0  0
   37.0980   28.4150   44.7500 H   0  0  0  0  0  0  0  0  0  0  0  0
   36.7680   27.1880   42.9980 C   0  0  0  0  0  3  0  0  0  0  0  0
   37.0700   27.0810   41.6560 C   0  0  0  0  0  3  0  0  0  0  0  0
  1 14  1  0  0  0  0
  2  1  2  0  0  0  0
  3  4  2  0  0  0  0
  3  8  1  0  0  0  0
  4  5  1  0  0  0  0
  5 11  1  0  0  0  0
  5  6  2  0  0  0  0
  7  6  1  0  0  0  0
  7  1  1  0  0  0  0
  8  7  2  0  0  0  0
  9  3  1  0  0  0  0
 10  4  1  0  0  0  0
 12 13  1  0  0  0  0
 13 14  2  0  0  0  0
 13 20  1  0  0  0  0
 14 15  1  0  0  0  0
 15 16  1  0  0  0  0
 15 17  2  0  0  0  0
 17 18  1  0  0  0  0
 19 17  1  0  0  0  0
 20 19  2  0  0  0  0
M  END
>  <minimizedAffinity>
-4.46429062

$$$$
