
 OpenBabel03242520183D

 35 37  0  0  0  0  0  0  0  0999 V2000
   40.8990   35.7960   39.4140 C   0  0  0  0  0  0  0  0  0  0  0  0
   41.0570   36.8910   39.3750 H   0  0  0  0  0  0  0  0  0  0  0  0
   40.6660   35.4080   38.3840 H   0  0  0  0  0  0  0  0  0  0  0  0
   43.8830   34.7240   41.4620 C   0  0  0  0  0  0  0  0  0  0  0  0
   42.7090   35.3880   41.0770 C   0  0  0  0  0  0  0  0  0  0  0  0
   42.1450   35.1170   39.8430 C   0  0  0  0  0  0  0  0  0  0  0  0
   42.7800   34.1980   39.0570 N   0  0  0  0  0  0  0  0  0  0  0  0
   43.9260   33.5720   39.4720 C   0  0  0  0  0  0  0  0  0  0  0  0
   44.4580   33.8370   40.6520 N   0  0  0  0  0  0  0  0  0  0  0  0
   42.2950   36.0960   41.7740 H   0  0  0  0  0  0  0  0  0  0  0  0
   44.3710   32.8540   38.7880 H   0  0  0  0  0  0  0  0  0  0  0  0
   44.4780   35.0400   42.7920 C   0  0  0  0  0  0  0  0  0  0  0  0
   46.0180   35.3110   42.6870 C   0  0  0  0  0  0  0  0  0  0  0  0
   45.0330   36.2980   43.1430 C   0  0  0  0  0  0  0  0  0  0  0  0
   44.2020   34.2930   43.5650 H   0  0  0  0  0  0  0  0  0  0  0  0
   46.4330   35.4560   41.6770 H   0  0  0  0  0  0  0  0  0  0  0  0
   46.6160   34.7580   43.4330 H   0  0  0  0  0  0  0  0  0  0  0  0
   44.7980   37.1790   42.4770 H   0  0  0  0  0  0  0  0  0  0  0  0
   45.0490   36.6180   44.2080 H   0  0  0  0  0  0  0  0  0  0  0  0
   39.7700   35.5150   40.3630 C   0  0  0  0  0  0  0  0  0  0  0  0
   40.2070   35.4360   41.3810 H   0  0  0  0  0  0  0  0  0  0  0  0
   39.0620   36.3800   40.4370 H   0  0  0  0  0  0  0  0  0  0  0  0
   39.1450   33.1400   40.7520 C   0  0  0  0  0  0  0  0  0  0  0  0
   39.8010   33.1010   41.8400 O   0  0  0  0  0  0  0  0  0  0  0  0
   39.0010   34.3360   40.0130 N   0  0  0  0  0  0  0  0  0  0  0  0
   38.3750   34.4430   39.2250 H   0  0  0  0  0  0  0  0  0  0  0  0
   39.3950   31.8500   38.1540 F   0  0  0  0  0  0  0  0  0  0  0  0
   38.6620   31.2480   39.1140 C   0  0  0  0  0  0  0  0  0  0  0  0
   38.5600   31.8690   40.3370 C   0  0  0  0  0  0  0  0  0  0  0  0
   37.7880   31.1360   41.2150 C   0  0  0  0  0  0  0  0  0  0  0  0
   37.6110   31.5010   42.2400 H   0  0  0  0  0  0  0  0  0  0  0  0
   37.1840   29.9340   40.9310 C   0  0  0  0  0  0  0  0  0  0  0  0
   36.5950   29.4120   41.6570 H   0  0  0  0  0  0  0  0  0  0  0  0
   37.3360   29.3810   39.6800 C   0  0  0  0  0  0  0  0  0  0  0  0
   38.0890   30.0550   38.7630 C   0  0  0  0  0  0  0  0  0  0  0  0
  1  6  1  0  0  0  0
  1 20  1  0  0  0  0
  2  1  1  0  0  0  0
  3  1  1  0  0  0  0
  4 12  1  0  0  0  0
  5  4  1  0  0  0  0
  5 10  1  0  0  0  0
  6  5  2  0  0  0  0
  7  8  2  0  0  0  0
  7  6  1  0  0  0  0
  8  9  1  0  0  0  0
  9  4  2  0  0  0  0
 11  8  1  0  0  0  0
 12 14  1  0  0  0  0
 12 15  1  0  0  0  0
 13 12  1  0  0  0  0
 13 14  1  0  0  0  0
 13 17  1  0  0  0  0
 14 19  1  0  0  0  0
 16 13  1  0  0  0  0
 18 14  1  0  0  0  0
 20 22  1  0  0  0  0
 20 21  1  0  0  0  0
 23 24  2  0  0  0  0
 25 20  1  0  0  0  0
 25 23  1  0  0  0  0
 26 25  1  0  0  0  0
 27 28  1  0  0  0  0
 28 29  1  0  0  0  0
 29 23  1  0  0  0  0
 29 30  2  0  0  0  0
 30 31  1  0  0  0  0
 32 30  1  0  0  0  0
 32 33  1  0  0  0  0
 34 32  2  0  0  0  0
 35 28  2  0  0  0  0
 35 34  1  0  0  0  0
M  END
>  <minimizedAffinity>
-5.43898201

>  <minimizedRMSD>
0.764059544

$$$$
