
 OpenBabel03252508493D

 28 30  0  0  0  0  0  0  0  0999 V2000
   44.2250   33.7960   40.7690 C   0  0  0  0  0  0  0  0  0  0  0  0
   45.2880   34.2560   41.5360 C   0  0  0  0  0  0  0  0  0  0  0  0
   46.5630   34.1730   40.9490 C   0  0  0  0  0  0  0  0  0  0  0  0
   46.6700   33.6520   39.6850 N   0  0  0  0  0  0  0  0  0  0  0  0
   45.6140   33.2280   39.0010 C   0  0  0  0  0  0  0  0  0  0  0  0
   44.3830   33.2950   39.5330 N   0  0  0  0  0  0  0  0  0  0  0  0
   47.4040   34.5300   41.5420 H   0  0  0  0  0  0  0  0  0  0  0  0
   45.7090   32.8190   38.0030 H   0  0  0  0  0  0  0  0  0  0  0  0
   45.0570   34.7870   42.8610 C   0  0  0  0  0  0  0  0  0  0  0  0
   44.9320   36.1450   43.1180 C   0  0  0  0  0  0  0  0  0  0  0  0
   44.7270   36.1950   44.4800 C   0  0  0  0  0  0  0  0  0  0  0  0
   44.7270   34.9490   45.0200 N   0  0  0  0  0  0  0  0  0  0  0  0
   44.9290   34.1220   44.0170 N   0  0  0  0  0  0  0  0  0  0  0  0
   44.9700   37.0290   42.4750 H   0  0  0  0  0  0  0  0  0  0  0  0
   44.5730   37.0570   45.1420 H   0  0  0  0  0  0  0  0  0  0  0  0
   44.6100   34.5780   45.9720 H   0  0  0  0  0  0  0  0  0  0  0  0
   42.9580   33.8620   41.3120 O   0  0  0  0  0  0  0  0  0  0  0  0
   41.9900   34.7910   41.0540 C   0  0  0  0  0  0  0  0  0  0  0  0
   41.8180   35.9200   41.6390 O   0  0  0  0  0  0  0  0  0  0  0  0
   39.3850   33.7880   41.5840 F   0  0  0  0  0  0  0  0  0  0  0  0
   39.6690   34.1150   40.2920 C   0  0  0  0  0  0  0  0  0  0  0  0
   40.9450   34.6100   40.0080 C   0  0  0  0  0  0  0  0  0  0  0  0
   41.1160   34.9040   38.6760 C   0  0  0  0  0  0  0  0  0  0  0  0
   42.0700   35.2940   38.3570 H   0  0  0  0  0  0  0  0  0  0  0  0
   40.1510   34.7350   37.7130 C   0  0  0  0  0  0  0  0  0  0  0  0
   40.3590   34.9880   36.6820 H   0  0  0  0  0  0  0  0  0  0  0  0
   38.9340   34.2460   38.0780 C   0  0  0  0  0  3  0  0  0  0  0  0
   38.6620   33.9230   39.3760 C   0  0  0  0  0  3  0  0  0  0  0  0
  1 17  1  0  0  0  0
  1  2  1  0  0  0  0
  2  9  1  0  0  0  0
  3  2  2  0  0  0  0
  3  7  1  0  0  0  0
  4  3  1  0  0  0  0
  5  6  1  0  0  0  0
  5  4  2  0  0  0  0
  6  1  2  0  0  0  0
  8  5  1  0  0  0  0
  9 10  1  0  0  0  0
  9 13  2  0  0  0  0
 10 11  2  0  0  0  0
 11 12  1  0  0  0  0
 11 15  1  0  0  0  0
 12 16  1  0  0  0  0
 13 12  1  0  0  0  0
 14 10  1  0  0  0  0
 18 17  1  0  0  0  0
 18 19  2  0  0  0  0
 21 20  1  0  0  0  0
 22 21  1  0  0  0  0
 22 18  1  0  0  0  0
 23 22  2  0  0  0  0
 24 23  1  0  0  0  0
 25 27  2  0  0  0  0
 25 23  1  0  0  0  0
 26 25  1  0  0  0  0
 27 28  1  0  0  0  0
 28 21  2  0  0  0  0
M  END
>  <minimizedAffinity>
-5.94520807

>  <minimizedRMSD>
2.28833127

$$$$
