
 OpenBabel03252508493D

 28 30  0  0  0  0  0  0  0  0999 V2000
   45.9070   34.1980   41.0390 C   0  0  0  0  0  0  0  0  0  0  0  0
   46.5080   34.7910   42.1430 C   0  0  0  0  0  0  0  0  0  0  0  0
   47.8690   35.1190   42.0110 C   0  0  0  0  0  0  0  0  0  0  0  0
   48.5000   34.8370   40.8270 N   0  0  0  0  0  0  0  0  0  0  0  0
   47.8700   34.2680   39.8060 C   0  0  0  0  0  0  0  0  0  0  0  0
   46.5700   33.9430   39.8990 N   0  0  0  0  0  0  0  0  0  0  0  0
   48.3510   35.5840   42.8710 H   0  0  0  0  0  0  0  0  0  0  0  0
   48.3770   34.0500   38.8750 H   0  0  0  0  0  0  0  0  0  0  0  0
   45.7430   35.0430   43.3430 C   0  0  0  0  0  0  0  0  0  0  0  0
   45.0830   36.2400   43.5800 C   0  0  0  0  0  0  0  0  0  0  0  0
   44.4990   36.0460   44.8130 C   0  0  0  0  0  0  0  0  0  0  0  0
   44.7840   34.8090   45.2980 N   0  0  0  0  0  0  0  0  0  0  0  0
   45.5360   34.2300   44.3880 N   0  0  0  0  0  0  0  0  0  0  0  0
   44.9890   37.1630   43.0000 H   0  0  0  0  0  0  0  0  0  0  0  0
   43.8740   36.7180   45.4140 H   0  0  0  0  0  0  0  0  0  0  0  0
   44.5400   34.3020   46.1600 H   0  0  0  0  0  0  0  0  0  0  0  0
   44.5720   33.8610   41.1310 O   0  0  0  0  0  0  0  0  0  0  0  0
   43.5050   34.5500   40.6290 C   0  0  0  0  0  0  0  0  0  0  0  0
   43.2900   35.8140   40.6980 O   0  0  0  0  0  0  0  0  0  0  0  0
   43.8440   33.0340   38.2500 F   0  0  0  0  0  0  0  0  0  0  0  0
   42.5750   33.1550   38.7280 C   0  0  0  0  0  0  0  0  0  0  0  0
   42.3840   33.8960   39.8980 C   0  0  0  0  0  0  0  0  0  0  0  0
   41.0660   33.9490   40.2840 C   0  0  0  0  0  0  0  0  0  0  0  0
   40.8150   34.4980   41.1780 H   0  0  0  0  0  0  0  0  0  0  0  0
   40.0330   33.3460   39.6070 C   0  0  0  0  0  0  0  0  0  0  0  0
   39.0180   33.4300   39.9720 H   0  0  0  0  0  0  0  0  0  0  0  0
   40.3100   32.6430   38.4740 C   0  0  0  0  0  3  0  0  0  0  0  0
   41.5870   32.5290   38.0050 C   0  0  0  0  0  3  0  0  0  0  0  0
  1 17  1  0  0  0  0
  1  2  1  0  0  0  0
  2  9  1  0  0  0  0
  3  2  2  0  0  0  0
  3  7  1  0  0  0  0
  4  3  1  0  0  0  0
  5  6  1  0  0  0  0
  5  4  2  0  0  0  0
  6  1  2  0  0  0  0
  8  5  1  0  0  0  0
  9 10  1  0  0  0  0
  9 13  2  0  0  0  0
 10 11  2  0  0  0  0
 11 12  1  0  0  0  0
 11 15  1  0  0  0  0
 12 16  1  0  0  0  0
 13 12  1  0  0  0  0
 14 10  1  0  0  0  0
 18 19  2  0  0  0  0
 18 17  1  0  0  0  0
 20 21  1  0  0  0  0
 21 22  1  0  0  0  0
 22 23  2  0  0  0  0
 22 18  1  0  0  0  0
 23 24  1  0  0  0  0
 25 26  1  0  0  0  0
 25 23  1  0  0  0  0
 27 25  2  0  0  0  0
 28 27  1  0  0  0  0
 28 21  2  0  0  0  0
M  END
>  <minimizedAffinity>
-5.3630476

>  <minimizedRMSD>
0.70531857

$$$$
