
 OpenBabel03252508493D

 28 30  0  0  0  0  0  0  0  0999 V2000
   45.7030   34.2060   41.0890 C   0  0  0  0  0  0  0  0  0  0  0  0
   46.3570   34.7700   42.1780 C   0  0  0  0  0  0  0  0  0  0  0  0
   47.7270   35.0400   42.0110 C   0  0  0  0  0  0  0  0  0  0  0  0
   48.3150   34.7330   40.8120 N   0  0  0  0  0  0  0  0  0  0  0  0
   47.6350   34.1930   39.8070 C   0  0  0  0  0  0  0  0  0  0  0  0
   46.3250   33.9240   39.9330 N   0  0  0  0  0  0  0  0  0  0  0  0
   48.2490   35.4830   42.8590 H   0  0  0  0  0  0  0  0  0  0  0  0
   48.1090   33.9550   38.8630 H   0  0  0  0  0  0  0  0  0  0  0  0
   45.6340   35.0530   43.3970 C   0  0  0  0  0  0  0  0  0  0  0  0
   45.0820   36.2950   43.6770 C   0  0  0  0  0  0  0  0  0  0  0  0
   44.5020   36.1170   44.9140 C   0  0  0  0  0  0  0  0  0  0  0  0
   44.6870   34.8480   45.3620 N   0  0  0  0  0  0  0  0  0  0  0  0
   45.3740   34.2320   44.4240 N   0  0  0  0  0  0  0  0  0  0  0  0
   45.0570   37.2380   43.1230 H   0  0  0  0  0  0  0  0  0  0  0  0
   43.9440   36.8230   45.5440 H   0  0  0  0  0  0  0  0  0  0  0  0
   44.4150   34.3390   46.2140 H   0  0  0  0  0  0  0  0  0  0  0  0
   44.3570   33.9260   41.2150 O   0  0  0  0  0  0  0  0  0  0  0  0
   43.3070   34.7160   40.8440 C   0  0  0  0  0  0  0  0  0  0  0  0
   43.1500   35.9680   41.0800 O   0  0  0  0  0  0  0  0  0  0  0  0
   42.4910   35.7600   38.3300 F   0  0  0  0  0  0  0  0  0  0  0  0
   41.7520   34.7360   38.8420 C   0  0  0  0  0  0  0  0  0  0  0  0
   42.1350   34.2060   40.0780 C   0  0  0  0  0  0  0  0  0  0  0  0
   41.3190   33.1810   40.4910 C   0  0  0  0  0  0  0  0  0  0  0  0
   41.5330   32.7060   41.4360 H   0  0  0  0  0  0  0  0  0  0  0  0
   40.2380   32.7140   39.7830 C   0  0  0  0  0  0  0  0  0  0  0  0
   39.6390   31.9020   40.1730 H   0  0  0  0  0  0  0  0  0  0  0  0
   39.9360   33.2900   38.5860 C   0  0  0  0  0  3  0  0  0  0  0  0
   40.6840   34.3140   38.0860 C   0  0  0  0  0  3  0  0  0  0  0  0
  1 17  1  0  0  0  0
  1  2  1  0  0  0  0
  2  9  1  0  0  0  0
  3  2  2  0  0  0  0
  3  7  1  0  0  0  0
  4  3  1  0  0  0  0
  5  6  1  0  0  0  0
  5  4  2  0  0  0  0
  6  1  2  0  0  0  0
  8  5  1  0  0  0  0
  9 10  1  0  0  0  0
  9 13  2  0  0  0  0
 10 11  2  0  0  0  0
 11 12  1  0  0  0  0
 11 15  1  0  0  0  0
 12 16  1  0  0  0  0
 13 12  1  0  0  0  0
 14 10  1  0  0  0  0
 18 19  2  0  0  0  0
 18 17  1  0  0  0  0
 20 21  1  0  0  0  0
 21 22  1  0  0  0  0
 22 23  2  0  0  0  0
 22 18  1  0  0  0  0
 23 24  1  0  0  0  0
 25 26  1  0  0  0  0
 25 23  1  0  0  0  0
 27 25  2  0  0  0  0
 28 27  1  0  0  0  0
 28 21  2  0  0  0  0
M  END
>  <minimizedAffinity>
-5.61331511

>  <minimizedRMSD>
0.994357824

$$$$
