
 OpenBabel03252508523D

 28 30  0  0  0  0  0  0  0  0999 V2000
   38.9990   31.3480   39.7510 C   0  0  0  0  0  0  0  0  0  0  0  0
   37.6730   31.7610   39.8100 C   0  0  0  0  0  0  0  0  0  0  0  0
   37.4560   33.1470   39.9080 C   0  0  0  0  0  0  0  0  0  0  0  0
   38.5430   33.9810   39.9400 N   0  0  0  0  0  0  0  0  0  0  0  0
   39.7880   33.5250   39.8810 C   0  0  0  0  0  0  0  0  0  0  0  0
   40.0300   32.2070   39.7850 N   0  0  0  0  0  0  0  0  0  0  0  0
   36.4200   33.4820   39.9560 H   0  0  0  0  0  0  0  0  0  0  0  0
   40.6410   34.1920   39.9050 H   0  0  0  0  0  0  0  0  0  0  0  0
   36.6030   30.7910   39.7680 C   0  0  0  0  0  0  0  0  0  0  0  0
   36.2720   30.0820   38.6210 C   0  0  0  0  0  0  0  0  0  0  0  0
   35.2210   29.2890   39.0270 C   0  0  0  0  0  0  0  0  0  0  0  0
   34.9280   29.5000   40.3370 N   0  0  0  0  0  0  0  0  0  0  0  0
   35.7790   30.4120   40.7540 N   0  0  0  0  0  0  0  0  0  0  0  0
   36.6800   30.0790   37.6060 H   0  0  0  0  0  0  0  0  0  0  0  0
   34.6270   28.5560   38.4650 H   0  0  0  0  0  0  0  0  0  0  0  0
   34.2310   29.1140   40.9890 H   0  0  0  0  0  0  0  0  0  0  0  0
   39.2520   29.9950   39.6540 O   0  0  0  0  0  0  0  0  0  0  0  0
   39.5880   29.1380   40.6630 C   0  0  0  0  0  0  0  0  0  0  0  0
   40.7660   28.7580   41.0030 O   0  0  0  0  0  0  0  0  0  0  0  0
   38.8820   30.1280   43.2310 F   0  0  0  0  0  0  0  0  0  0  0  0
   38.2510   28.9950   42.8120 C   0  0  0  0  0  0  0  0  0  0  0  0
   38.5820   28.4910   41.5500 C   0  0  0  0  0  0  0  0  0  0  0  0
   37.8840   27.3500   41.2350 C   0  0  0  0  0  0  0  0  0  0  0  0
   38.0710   26.8840   40.2800 H   0  0  0  0  0  0  0  0  0  0  0  0
   36.9580   26.7540   42.0570 C   0  0  0  0  0  0  0  0  0  0  0  0
   36.4470   25.8540   41.7410 H   0  0  0  0  0  0  0  0  0  0  0  0
   36.6960   27.3140   43.2700 C   0  0  0  0  0  3  0  0  0  0  0  0
   37.3360   28.4480   43.6790 C   0  0  0  0  0  3  0  0  0  0  0  0
  1  6  2  0  0  0  0
  1  2  1  0  0  0  0
  2  3  2  0  0  0  0
  3  4  1  0  0  0  0
  3  7  1  0  0  0  0
  5  8  1  0  0  0  0
  5  4  2  0  0  0  0
  6  5  1  0  0  0  0
  9  2  1  0  0  0  0
  9 13  2  0  0  0  0
 10 11  2  0  0  0  0
 10  9  1  0  0  0  0
 11 12  1  0  0  0  0
 12 13  1  0  0  0  0
 12 16  1  0  0  0  0
 14 10  1  0  0  0  0
 15 11  1  0  0  0  0
 17  1  1  0  0  0  0
 17 18  1  0  0  0  0
 18 19  2  0  0  0  0
 18 22  1  0  0  0  0
 21 20  1  0  0  0  0
 21 28  1  0  0  0  0
 22 21  2  0  0  0  0
 23 22  1  0  0  0  0
 23 25  2  0  0  0  0
 24 23  1  0  0  0  0
 25 27  1  0  0  0  0
 26 25  1  0  0  0  0
 27 28  2  0  0  0  0
M  END
>  <minimizedAffinity>
-5.61284256

$$$$

 OpenBabel03252508523D

 28 30  0  0  0  0  0  0  0  0999 V2000
   39.8550   31.3380   40.4640 C   0  0  0  0  0  0  0  0  0  0  0  0
   38.7650   31.2890   39.6040 C   0  0  0  0  0  0  0  0  0  0  0  0
   39.0030   31.6680   38.2710 C   0  0  0  0  0  0  0  0  0  0  0  0
   40.2690   32.0560   37.9160 N   0  0  0  0  0  0  0  0  0  0  0  0
   41.2720   32.0820   38.7850 C   0  0  0  0  0  0  0  0  0  0  0  0
   41.0780   31.7250   40.0660 N   0  0  0  0  0  0  0  0  0  0  0  0
   38.1540   31.6340   37.5890 H   0  0  0  0  0  0  0  0  0  0  0  0
   42.2690   32.3890   38.4950 H   0  0  0  0  0  0  0  0  0  0  0  0
   37.4710   30.8630   40.0890 C   0  0  0  0  0  0  0  0  0  0  0  0
   36.8450   29.7040   39.6510 C   0  0  0  0  0  0  0  0  0  0  0  0
   35.6630   29.6920   40.3590 C   0  0  0  0  0  0  0  0  0  0  0  0
   35.5730   30.7720   41.1780 N   0  0  0  0  0  0  0  0  0  0  0  0
   36.6790   31.4590   40.9900 N   0  0  0  0  0  0  0  0  0  0  0  0
   37.1320   28.9320   38.9320 H   0  0  0  0  0  0  0  0  0  0  0  0
   34.8380   28.9670   40.3490 H   0  0  0  0  0  0  0  0  0  0  0  0
   34.8670   31.1110   41.8460 H   0  0  0  0  0  0  0  0  0  0  0  0
   39.6600   30.9730   41.7800 O   0  0  0  0  0  0  0  0  0  0  0  0
   39.9110   29.7580   42.3520 C   0  0  0  0  0  0  0  0  0  0  0  0
   41.0360   29.3210   42.7900 O   0  0  0  0  0  0  0  0  0  0  0  0
   39.7390   27.3740   40.8160 F   0  0  0  0  0  0  0  0  0  0  0  0
   38.7970   27.5530   41.7840 C   0  0  0  0  0  0  0  0  0  0  0  0
   38.8630   28.7200   42.5530 C   0  0  0  0  0  0  0  0  0  0  0  0
   37.8660   28.7910   43.4950 C   0  0  0  0  0  0  0  0  0  0  0  0
   37.8310   29.6560   44.1390 H   0  0  0  0  0  0  0  0  0  0  0  0
   36.8980   27.8310   43.6770 C   0  0  0  0  0  0  0  0  0  0  0  0
   36.1420   27.9570   44.4410 H   0  0  0  0  0  0  0  0  0  0  0  0
   36.9090   26.7250   42.8820 C   0  0  0  0  0  3  0  0  0  0  0  0
   37.8580   26.5580   41.9160 C   0  0  0  0  0  3  0  0  0  0  0  0
  1 17  1  0  0  0  0
  2  9  1  0  0  0  0
  2  1  2  0  0  0  0
  3  2  1  0  0  0  0
  4  3  2  0  0  0  0
  4  5  1  0  0  0  0
  5  6  2  0  0  0  0
  6  1  1  0  0  0  0
  7  3  1  0  0  0  0
  8  5  1  0  0  0  0
  9 13  2  0  0  0  0
 10  9  1  0  0  0  0
 10 11  2  0  0  0  0
 11 12  1  0  0  0  0
 12 16  1  0  0  0  0
 13 12  1  0  0  0  0
 14 10  1  0  0  0  0
 15 11  1  0  0  0  0
 17 18  1  0  0  0  0
 18 22  1  0  0  0  0
 18 19  2  0  0  0  0
 20 21  1  0  0  0  0
 21 28  2  0  0  0  0
 21 22  1  0  0  0  0
 22 23  2  0  0  0  0
 23 25  1  0  0  0  0
 23 24  1  0  0  0  0
 25 26  1  0  0  0  0
 27 25  2  0  0  0  0
 28 27  1  0  0  0  0
M  END
>  <minimizedAffinity>
-5.45577478

$$$$

 OpenBabel03252508523D

 28 30  0  0  0  0  0  0  0  0999 V2000
   36.4660   26.9920   39.8400 C   0  0  0  0  0  0  0  0  0  0  0  0
   37.4510   26.8390   40.8080 C   0  0  0  0  0  0  0  0  0  0  0  0
   38.2730   25.7050   40.6880 C   0  0  0  0  0  0  0  0  0  0  0  0
   38.0520   24.8420   39.6460 N   0  0  0  0  0  0  0  0  0  0  0  0
   37.0920   25.0430   38.7510 C   0  0  0  0  0  0  0  0  0  0  0  0
   36.2900   26.1170   38.8370 N   0  0  0  0  0  0  0  0  0  0  0  0
   39.0490   25.5750   41.4420 H   0  0  0  0  0  0  0  0  0  0  0  0
   36.9260   24.3560   37.9310 H   0  0  0  0  0  0  0  0  0  0  0  0
   37.5940   27.8150   41.8650 C   0  0  0  0  0  0  0  0  0  0  0  0
   38.6320   28.7360   41.9070 C   0  0  0  0  0  0  0  0  0  0  0  0
   38.3800   29.4500   43.0580 C   0  0  0  0  0  0  0  0  0  0  0  0
   37.2610   28.9960   43.6790 N   0  0  0  0  0  0  0  0  0  0  0  0
   36.8110   28.0090   42.9350 N   0  0  0  0  0  0  0  0  0  0  0  0
   39.4810   28.9270   41.2450 H   0  0  0  0  0  0  0  0  0  0  0  0
   38.9320   30.2850   43.5090 H   0  0  0  0  0  0  0  0  0  0  0  0
   36.7580   29.2590   44.5380 H   0  0  0  0  0  0  0  0  0  0  0  0
   35.6390   28.0940   39.9250 O   0  0  0  0  0  0  0  0  0  0  0  0
   35.5210   29.1160   39.0280 C   0  0  0  0  0  0  0  0  0  0  0  0
   34.6840   29.2110   38.0590 O   0  0  0  0  0  0  0  0  0  0  0  0
   35.8340   30.8000   41.2950 F   0  0  0  0  0  0  0  0  0  0  0  0
   36.5330   31.1380   40.1750 C   0  0  0  0  0  0  0  0  0  0  0  0
   36.3950   30.3230   39.0470 C   0  0  0  0  0  0  0  0  0  0  0  0
   37.1460   30.7590   37.9830 C   0  0  0  0  0  0  0  0  0  0  0  0
   37.1060   30.1950   37.0640 H   0  0  0  0  0  0  0  0  0  0  0  0
   37.9500   31.8730   38.0040 C   0  0  0  0  0  0  0  0  0  0  0  0
   38.5130   32.1570   37.1240 H   0  0  0  0  0  0  0  0  0  0  0  0
   38.0250   32.6100   39.1460 C   0  0  0  0  0  3  0  0  0  0  0  0
   37.3190   32.2620   40.2610 C   0  0  0  0  0  3  0  0  0  0  0  0
  1 17  1  0  0  0  0
  1  2  1  0  0  0  0
  2  9  1  0  0  0  0
  3  2  2  0  0  0  0
  3  7  1  0  0  0  0
  4  3  1  0  0  0  0
  5  6  1  0  0  0  0
  5  4  2  0  0  0  0
  6  1  2  0  0  0  0
  8  5  1  0  0  0  0
  9 10  1  0  0  0  0
  9 13  2  0  0  0  0
 10 11  2  0  0  0  0
 11 15  1  0  0  0  0
 11 12  1  0  0  0  0
 12 16  1  0  0  0  0
 13 12  1  0  0  0  0
 14 10  1  0  0  0  0
 18 22  1  0  0  0  0
 18 17  1  0  0  0  0
 19 18  2  0  0  0  0
 21 28  1  0  0  0  0
 21 20  1  0  0  0  0
 22 21  2  0  0  0  0
 23 25  2  0  0  0  0
 23 22  1  0  0  0  0
 24 23  1  0  0  0  0
 25 27  1  0  0  0  0
 26 25  1  0  0  0  0
 27 28  2  0  0  0  0
M  END
>  <minimizedAffinity>
-5.33756447

$$$$

 OpenBabel03252508523D

 28 30  0  0  0  0  0  0  0  0999 V2000
   38.6600   30.9000   40.7700 C   0  0  0  0  0  0  0  0  0  0  0  0
   37.4830   31.3900   40.2160 C   0  0  0  0  0  0  0  0  0  0  0  0
   37.4390   32.7740   39.9700 C   0  0  0  0  0  0  0  0  0  0  0  0
   38.5350   33.5320   40.2890 N   0  0  0  0  0  0  0  0  0  0  0  0
   39.6320   33.0040   40.8180 C   0  0  0  0  0  0  0  0  0  0  0  0
   39.7080   31.6860   41.0640 N   0  0  0  0  0  0  0  0  0  0  0  0
   36.5210   33.1690   39.5360 H   0  0  0  0  0  0  0  0  0  0  0  0
   40.4940   33.6110   41.0660 H   0  0  0  0  0  0  0  0  0  0  0  0
   36.3880   30.4950   39.9190 C   0  0  0  0  0  0  0  0  0  0  0  0
   36.1900   29.9340   38.6650 C   0  0  0  0  0  0  0  0  0  0  0  0
   35.0570   29.1680   38.8320 C   0  0  0  0  0  0  0  0  0  0  0  0
   34.5930   29.2530   40.1060 N   0  0  0  0  0  0  0  0  0  0  0  0
   35.4170   30.0620   40.7350 N   0  0  0  0  0  0  0  0  0  0  0  0
   36.7350   30.0160   37.7200 H   0  0  0  0  0  0  0  0  0  0  0  0
   34.5170   28.5360   38.1150 H   0  0  0  0  0  0  0  0  0  0  0  0
   33.7960   28.8420   40.6090 H   0  0  0  0  0  0  0  0  0  0  0  0
   38.7410   29.5460   41.0250 O   0  0  0  0  0  0  0  0  0  0  0  0
   38.5760   28.9150   42.2260 C   0  0  0  0  0  0  0  0  0  0  0  0
   38.3190   29.4550   43.3610 O   0  0  0  0  0  0  0  0  0  0  0  0
   36.7670   27.0650   41.0530 F   0  0  0  0  0  0  0  0  0  0  0  0
   37.7780   26.5460   41.8050 C   0  0  0  0  0  0  0  0  0  0  0  0
   38.6810   27.4390   42.3910 C   0  0  0  0  0  0  0  0  0  0  0  0
   39.6540   26.8030   43.1230 C   0  0  0  0  0  0  0  0  0  0  0  0
   40.4000   27.4080   43.6160 H   0  0  0  0  0  0  0  0  0  0  0  0
   39.7480   25.4400   43.2750 C   0  0  0  0  0  0  0  0  0  0  0  0
   40.5440   25.0110   43.8690 H   0  0  0  0  0  0  0  0  0  0  0  0
   38.8240   24.6450   42.6680 C   0  0  0  0  0  3  0  0  0  0  0  0
   37.8160   25.1770   41.9180 C   0  0  0  0  0  3  0  0  0  0  0  0
  1 17  1  0  0  0  0
  1  6  1  0  0  0  0
  2  1  2  0  0  0  0
  3  2  1  0  0  0  0
  3  4  2  0  0  0  0
  4  5  1  0  0  0  0
  5  6  2  0  0  0  0
  5  8  1  0  0  0  0
  7  3  1  0  0  0  0
  9  2  1  0  0  0  0
  9 13  2  0  0  0  0
 10 11  2  0  0  0  0
 10  9  1  0  0  0  0
 11 12  1  0  0  0  0
 12 16  1  0  0  0  0
 12 13  1  0  0  0  0
 14 10  1  0  0  0  0
 15 11  1  0  0  0  0
 17 18  1  0  0  0  0
 18 22  1  0  0  0  0
 18 19  2  0  0  0  0
 20 21  1  0  0  0  0
 21 28  2  0  0  0  0
 21 22  1  0  0  0  0
 22 23  2  0  0  0  0
 23 25  1  0  0  0  0
 23 24  1  0  0  0  0
 25 26  1  0  0  0  0
 27 25  2  0  0  0  0
 28 27  1  0  0  0  0
M  END
>  <minimizedAffinity>
-5.3077302

$$$$

 OpenBabel03252508523D

 28 30  0  0  0  0  0  0  0  0999 V2000
   36.2830   29.8210   40.4750 C   0  0  0  0  0  0  0  0  0  0  0  0
   36.8790   30.6110   39.4980 C   0  0  0  0  0  0  0  0  0  0  0  0
   36.4110   30.4350   38.1840 C   0  0  0  0  0  0  0  0  0  0  0  0
   35.4210   29.5150   37.9570 N   0  0  0  0  0  0  0  0  0  0  0  0
   34.8910   28.7880   38.9350 C   0  0  0  0  0  0  0  0  0  0  0  0
   35.3150   28.9330   40.2010 N   0  0  0  0  0  0  0  0  0  0  0  0
   36.8710   31.0490   37.4100 H   0  0  0  0  0  0  0  0  0  0  0  0
   34.1090   28.0650   38.7460 H   0  0  0  0  0  0  0  0  0  0  0  0
   37.9170   31.5520   39.8530 C   0  0  0  0  0  0  0  0  0  0  0  0
   37.6660   32.8940   40.1030 C   0  0  0  0  0  0  0  0  0  0  0  0
   38.9120   33.4040   40.3950 C   0  0  0  0  0  0  0  0  0  0  0  0
   39.8640   32.4360   40.3280 N   0  0  0  0  0  0  0  0  0  0  0  0
   39.2310   31.3320   39.9970 N   0  0  0  0  0  0  0  0  0  0  0  0
   36.7500   33.4910   40.0970 H   0  0  0  0  0  0  0  0  0  0  0  0
   39.2160   34.4250   40.6590 H   0  0  0  0  0  0  0  0  0  0  0  0
   40.8820   32.4190   40.4730 H   0  0  0  0  0  0  0  0  0  0  0  0
   36.7170   29.9660   41.7770 O   0  0  0  0  0  0  0  0  0  0  0  0
   37.6360   29.2010   42.4370 C   0  0  0  0  0  0  0  0  0  0  0  0
   38.4470   29.5780   43.3580 O   0  0  0  0  0  0  0  0  0  0  0  0
   35.9610   27.1520   43.4680 F   0  0  0  0  0  0  0  0  0  0  0  0
   37.0010   26.7590   42.6810 C   0  0  0  0  0  0  0  0  0  0  0  0
   37.8380   27.7510   42.1610 C   0  0  0  0  0  0  0  0  0  0  0  0
   38.8480   27.2390   41.3840 C   0  0  0  0  0  0  0  0  0  0  0  0
   39.5490   27.9270   40.9370 H   0  0  0  0  0  0  0  0  0  0  0  0
   39.0330   25.9000   41.1330 C   0  0  0  0  0  0  0  0  0  0  0  0
   39.8540   25.5700   40.5090 H   0  0  0  0  0  0  0  0  0  0  0  0
   38.1680   25.0020   41.6800 C   0  0  0  0  0  3  0  0  0  0  0  0
   37.1310   25.4080   42.4680 C   0  0  0  0  0  3  0  0  0  0  0  0
  1 17  1  0  0  0  0
  2  9  1  0  0  0  0
  2  1  2  0  0  0  0
  3  2  1  0  0  0  0
  4  3  2  0  0  0  0
  4  5  1  0  0  0  0
  5  6  2  0  0  0  0
  6  1  1  0  0  0  0
  7  3  1  0  0  0  0
  8  5  1  0  0  0  0
  9 13  2  0  0  0  0
  9 10  1  0  0  0  0
 10 11  2  0  0  0  0
 11 15  1  0  0  0  0
 12 11  1  0  0  0  0
 12 16  1  0  0  0  0
 13 12  1  0  0  0  0
 14 10  1  0  0  0  0
 17 18  1  0  0  0  0
 18 19  2  0  0  0  0
 21 20  1  0  0  0  0
 22 18  1  0  0  0  0
 22 21  2  0  0  0  0
 23 22  1  0  0  0  0
 24 23  1  0  0  0  0
 25 23  2  0  0  0  0
 25 27  1  0  0  0  0
 26 25  1  0  0  0  0
 27 28  2  0  0  0  0
 28 21  1  0  0  0  0
M  END
>  <minimizedAffinity>
-5.27875471

$$$$

 OpenBabel03252508523D

 28 30  0  0  0  0  0  0  0  0999 V2000
   36.5430   30.2390   39.2120 C   0  0  0  0  0  0  0  0  0  0  0  0
   37.2250   30.6120   38.0610 C   0  0  0  0  0  0  0  0  0  0  0  0
   37.8240   31.8840   38.0740 C   0  0  0  0  0  0  0  0  0  0  0  0
   37.6960   32.6570   39.1990 N   0  0  0  0  0  0  0  0  0  0  0  0
   37.0290   32.2450   40.2700 C   0  0  0  0  0  0  0  0  0  0  0  0
   36.4470   31.0350   40.2900 N   0  0  0  0  0  0  0  0  0  0  0  0
   38.3620   32.1860   37.1750 H   0  0  0  0  0  0  0  0  0  0  0  0
   36.9350   32.8620   41.1540 H   0  0  0  0  0  0  0  0  0  0  0  0
   37.2960   29.7130   36.9310 C   0  0  0  0  0  0  0  0  0  0  0  0
   36.3700   29.7250   35.8970 C   0  0  0  0  0  0  0  0  0  0  0  0
   36.8130   28.7270   35.0580 C   0  0  0  0  0  0  0  0  0  0  0  0
   37.9380   28.1420   35.5460 N   0  0  0  0  0  0  0  0  0  0  0  0
   38.2030   28.7590   36.6770 N   0  0  0  0  0  0  0  0  0  0  0  0
   35.4810   30.3320   35.7050 H   0  0  0  0  0  0  0  0  0  0  0  0
   36.4020   28.3670   34.1060 H   0  0  0  0  0  0  0  0  0  0  0  0
   38.5520   27.3830   35.2210 H   0  0  0  0  0  0  0  0  0  0  0  0
   35.9420   28.9970   39.2360 O   0  0  0  0  0  0  0  0  0  0  0  0
   36.4260   27.8500   39.7970 C   0  0  0  0  0  0  0  0  0  0  0  0
   36.4260   26.6730   39.2870 O   0  0  0  0  0  0  0  0  0  0  0  0
   39.2300   27.9390   40.2440 F   0  0  0  0  0  0  0  0  0  0  0  0
   38.4330   27.8500   41.3460 C   0  0  0  0  0  0  0  0  0  0  0  0
   37.0500   27.8050   41.1500 C   0  0  0  0  0  0  0  0  0  0  0  0
   36.3500   27.7160   42.3280 C   0  0  0  0  0  0  0  0  0  0  0  0
   35.2720   27.6760   42.2820 H   0  0  0  0  0  0  0  0  0  0  0  0
   36.9280   27.6730   43.5750 C   0  0  0  0  0  0  0  0  0  0  0  0
   36.3110   27.6020   44.4600 H   0  0  0  0  0  0  0  0  0  0  0  0
   38.2850   27.7220   43.6730 C   0  0  0  0  0  3  0  0  0  0  0  0
   39.0730   27.8110   42.5620 C   0  0  0  0  0  3  0  0  0  0  0  0
  1 17  1  0  0  0  0
  1  6  1  0  0  0  0
  2  3  1  0  0  0  0
  2  1  2  0  0  0  0
  3  4  2  0  0  0  0
  4  5  1  0  0  0  0
  5  6  2  0  0  0  0
  5  8  1  0  0  0  0
  7  3  1  0  0  0  0
  9  2  1  0  0  0  0
 10  9  1  0  0  0  0
 11 12  1  0  0  0  0
 11 10  2  0  0  0  0
 12 13  1  0  0  0  0
 13  9  2  0  0  0  0
 14 10  1  0  0  0  0
 15 11  1  0  0  0  0
 16 12  1  0  0  0  0
 17 18  1  0  0  0  0
 18 22  1  0  0  0  0
 19 18  2  0  0  0  0
 20 21  1  0  0  0  0
 21 28  1  0  0  0  0
 22 21  2  0  0  0  0
 22 23  1  0  0  0  0
 23 25  2  0  0  0  0
 24 23  1  0  0  0  0
 25 27  1  0  0  0  0
 25 26  1  0  0  0  0
 28 27  2  0  0  0  0
M  END
>  <minimizedAffinity>
-5.23420668

$$$$

 OpenBabel03252508523D

 28 30  0  0  0  0  0  0  0  0999 V2000
   36.2650   27.7820   37.9580 C   0  0  0  0  0  0  0  0  0  0  0  0
   35.3490   28.7490   38.3550 C   0  0  0  0  0  0  0  0  0  0  0  0
   34.0820   28.6960   37.7470 C   0  0  0  0  0  0  0  0  0  0  0  0
   33.8410   27.7140   36.8220 N   0  0  0  0  0  0  0  0  0  0  0  0
   34.7590   26.8160   36.4830 C   0  0  0  0  0  0  0  0  0  0  0  0
   35.9780   26.8400   37.0460 N   0  0  0  0  0  0  0  0  0  0  0  0
   33.3570   29.4500   38.0500 H   0  0  0  0  0  0  0  0  0  0  0  0
   34.5580   26.0440   35.7520 H   0  0  0  0  0  0  0  0  0  0  0  0
   35.7150   29.7400   39.3430 C   0  0  0  0  0  0  0  0  0  0  0  0
   36.6260   30.7560   39.0910 C   0  0  0  0  0  0  0  0  0  0  0  0
   36.6700   31.4480   40.2820 C   0  0  0  0  0  0  0  0  0  0  0  0
   35.8390   30.8920   41.2010 N   0  0  0  0  0  0  0  0  0  0  0  0
   35.2790   29.8630   40.6040 N   0  0  0  0  0  0  0  0  0  0  0  0
   37.2130   31.0250   38.2080 H   0  0  0  0  0  0  0  0  0  0  0  0
   37.2520   32.3350   40.5640 H   0  0  0  0  0  0  0  0  0  0  0  0
   35.5990   31.1100   42.1780 H   0  0  0  0  0  0  0  0  0  0  0  0
   37.5200   27.8040   38.5330 O   0  0  0  0  0  0  0  0  0  0  0  0
   37.9640   27.0560   39.5860 C   0  0  0  0  0  0  0  0  0  0  0  0
   38.5620   25.9210   39.5390 O   0  0  0  0  0  0  0  0  0  0  0  0
   39.4580   29.1520   40.7890 F   0  0  0  0  0  0  0  0  0  0  0  0
   38.5530   28.5090   41.5780 C   0  0  0  0  0  0  0  0  0  0  0  0
   37.8060   27.4740   41.0070 C   0  0  0  0  0  0  0  0  0  0  0  0
   36.9270   26.9010   41.8940 C   0  0  0  0  0  0  0  0  0  0  0  0
   36.3040   26.0920   41.5470 H   0  0  0  0  0  0  0  0  0  0  0  0
   36.7840   27.2880   43.2060 C   0  0  0  0  0  0  0  0  0  0  0  0
   36.0700   26.7890   43.8470 H   0  0  0  0  0  0  0  0  0  0  0  0
   37.5540   28.3070   43.6790 C   0  0  0  0  0  3  0  0  0  0  0  0
   38.4580   28.9430   42.8790 C   0  0  0  0  0  3  0  0  0  0  0  0
  1  2  1  0  0  0  0
  1 17  1  0  0  0  0
  2  9  1  0  0  0  0
  3  7  1  0  0  0  0
  3  2  2  0  0  0  0
  4  3  1  0  0  0  0
  5  4  2  0  0  0  0
  5  6  1  0  0  0  0
  6  1  2  0  0  0  0
  8  5  1  0  0  0  0
  9 13  2  0  0  0  0
 10  9  1  0  0  0  0
 10 11  2  0  0  0  0
 11 15  1  0  0  0  0
 11 12  1  0  0  0  0
 12 16  1  0  0  0  0
 13 12  1  0  0  0  0
 14 10  1  0  0  0  0
 17 18  1  0  0  0  0
 18 22  1  0  0  0  0
 19 18  2  0  0  0  0
 20 21  1  0  0  0  0
 21 28  1  0  0  0  0
 22 21  2  0  0  0  0
 22 23  1  0  0  0  0
 23 25  2  0  0  0  0
 24 23  1  0  0  0  0
 25 27  1  0  0  0  0
 25 26  1  0  0  0  0
 28 27  2  0  0  0  0
M  END
>  <minimizedAffinity>
-5.20170116

$$$$

 OpenBabel03252508523D

 28 30  0  0  0  0  0  0  0  0999 V2000
   37.5250   28.1220   42.0210 C   0  0  0  0  0  0  0  0  0  0  0  0
   38.8960   28.3360   42.1040 C   0  0  0  0  0  0  0  0  0  0  0  0
   39.6910   27.2030   42.3480 C   0  0  0  0  0  0  0  0  0  0  0  0
   39.0740   25.9870   42.4870 N   0  0  0  0  0  0  0  0  0  0  0  0
   37.7570   25.8450   42.3980 C   0  0  0  0  0  0  0  0  0  0  0  0
   36.9690   26.9080   42.1640 N   0  0  0  0  0  0  0  0  0  0  0  0
   40.7670   27.3600   42.4160 H   0  0  0  0  0  0  0  0  0  0  0  0
   37.2790   24.8800   42.5080 H   0  0  0  0  0  0  0  0  0  0  0  0
   39.4380   29.6660   41.9400 C   0  0  0  0  0  0  0  0  0  0  0  0
   40.0530   30.0920   40.7710 C   0  0  0  0  0  0  0  0  0  0  0  0
   40.4100   31.3930   41.0520 C   0  0  0  0  0  0  0  0  0  0  0  0
   40.0370   31.7400   42.3110 N   0  0  0  0  0  0  0  0  0  0  0  0
   39.4540   30.6760   42.8210 N   0  0  0  0  0  0  0  0  0  0  0  0
   40.2530   29.5990   39.8160 H   0  0  0  0  0  0  0  0  0  0  0  0
   40.9230   32.1380   40.4290 H   0  0  0  0  0  0  0  0  0  0  0  0
   40.1220   32.5970   42.8760 H   0  0  0  0  0  0  0  0  0  0  0  0
   36.7120   29.2110   41.7820 O   0  0  0  0  0  0  0  0  0  0  0  0
   35.9890   29.4770   40.6540 C   0  0  0  0  0  0  0  0  0  0  0  0
   34.7740   29.1420   40.4100 O   0  0  0  0  0  0  0  0  0  0  0  0
   36.9050   32.1630   40.8000 F   0  0  0  0  0  0  0  0  0  0  0  0
   36.9840   31.5500   39.5860 C   0  0  0  0  0  0  0  0  0  0  0  0
   36.5400   30.2270   39.4910 C   0  0  0  0  0  0  0  0  0  0  0  0
   36.6690   29.7140   38.2230 C   0  0  0  0  0  0  0  0  0  0  0  0
   36.3520   28.6980   38.0480 H   0  0  0  0  0  0  0  0  0  0  0  0
   37.1760   30.4100   37.1510 C   0  0  0  0  0  0  0  0  0  0  0  0
   37.2470   29.9390   36.1790 H   0  0  0  0  0  0  0  0  0  0  0  0
   37.5860   31.6950   37.3340 C   0  0  0  0  0  3  0  0  0  0  0  0
   37.5000   32.2980   38.5560 C   0  0  0  0  0  3  0  0  0  0  0  0
  1  2  2  0  0  0  0
  1  6  1  0  0  0  0
  2  3  1  0  0  0  0
  3  7  1  0  0  0  0
  3  4  2  0  0  0  0
  5  4  1  0  0  0  0
  5  8  1  0  0  0  0
  6  5  2  0  0  0  0
  9  2  1  0  0  0  0
  9 13  2  0  0  0  0
 10 11  2  0  0  0  0
 10  9  1  0  0  0  0
 11 12  1  0  0  0  0
 12 13  1  0  0  0  0
 12 16  1  0  0  0  0
 14 10  1  0  0  0  0
 15 11  1  0  0  0  0
 17  1  1  0  0  0  0
 18 17  1  0  0  0  0
 19 18  2  0  0  0  0
 21 20  1  0  0  0  0
 22 21  1  0  0  0  0
 22 18  1  0  0  0  0
 23 22  2  0  0  0  0
 24 23  1  0  0  0  0
 25 27  2  0  0  0  0
 25 23  1  0  0  0  0
 26 25  1  0  0  0  0
 27 28  1  0  0  0  0
 28 21  2  0  0  0  0
M  END
>  <minimizedAffinity>
-5.18889189

$$$$

 OpenBabel03252508523D

 28 30  0  0  0  0  0  0  0  0999 V2000
   39.2800   28.0030   41.2130 C   0  0  0  0  0  0  0  0  0  0  0  0
   38.1450   28.1470   42.0010 C   0  0  0  0  0  0  0  0  0  0  0  0
   38.2070   27.5910   43.2920 C   0  0  0  0  0  0  0  0  0  0  0  0
   39.3590   26.9560   43.6770 N   0  0  0  0  0  0  0  0  0  0  0  0
   40.4130   26.8510   42.8760 C   0  0  0  0  0  0  0  0  0  0  0  0
   40.3860   27.3720   41.6390 N   0  0  0  0  0  0  0  0  0  0  0  0
   37.3220   27.6970   43.9180 H   0  0  0  0  0  0  0  0  0  0  0  0
   41.3190   26.3480   43.1910 H   0  0  0  0  0  0  0  0  0  0  0  0
   36.9830   28.8380   41.4900 C   0  0  0  0  0  0  0  0  0  0  0  0
   36.1130   28.2710   40.5690 C   0  0  0  0  0  0  0  0  0  0  0  0
   35.1730   29.2590   40.3670 C   0  0  0  0  0  0  0  0  0  0  0  0
   35.4500   30.3570   41.1160 N   0  0  0  0  0  0  0  0  0  0  0  0
   36.5490   30.0720   41.7810 N   0  0  0  0  0  0  0  0  0  0  0  0
   36.0910   27.2980   40.0700 H   0  0  0  0  0  0  0  0  0  0  0  0
   34.2860   29.2710   39.7200 H   0  0  0  0  0  0  0  0  0  0  0  0
   35.0010   31.2740   41.2400 H   0  0  0  0  0  0  0  0  0  0  0  0
   39.2570   28.5360   39.9400 O   0  0  0  0  0  0  0  0  0  0  0  0
   39.7870   29.7240   39.5270 C   0  0  0  0  0  0  0  0  0  0  0  0
   40.9470   29.9250   39.0150 O   0  0  0  0  0  0  0  0  0  0  0  0
   37.6110   30.4320   37.8420 F   0  0  0  0  0  0  0  0  0  0  0  0
   37.9880   31.3460   38.7790 C   0  0  0  0  0  0  0  0  0  0  0  0
   39.0560   31.0190   39.6200 C   0  0  0  0  0  0  0  0  0  0  0  0
   39.3450   32.0140   40.5220 C   0  0  0  0  0  0  0  0  0  0  0  0
   40.1560   31.8560   41.2160 H   0  0  0  0  0  0  0  0  0  0  0  0
   38.6700   33.2090   40.6040 C   0  0  0  0  0  0  0  0  0  0  0  0
   38.9550   33.9470   41.3420 H   0  0  0  0  0  0  0  0  0  0  0  0
   37.6400   33.4440   39.7450 C   0  0  0  0  0  3  0  0  0  0  0  0
   37.2730   32.5200   38.8100 C   0  0  0  0  0  3  0  0  0  0  0  0
  1  6  2  0  0  0  0
  1  2  1  0  0  0  0
  2  3  2  0  0  0  0
  3  4  1  0  0  0  0
  3  7  1  0  0  0  0
  5  8  1  0  0  0  0
  5  4  2  0  0  0  0
  6  5  1  0  0  0  0
  9 13  2  0  0  0  0
  9  2  1  0  0  0  0
 10  9  1  0  0  0  0
 11 10  2  0  0  0  0
 11 12  1  0  0  0  0
 12 16  1  0  0  0  0
 12 13  1  0  0  0  0
 14 10  1  0  0  0  0
 15 11  1  0  0  0  0
 17  1  1  0  0  0  0
 18 22  1  0  0  0  0
 18 17  1  0  0  0  0
 19 18  2  0  0  0  0
 20 21  1  0  0  0  0
 21 28  2  0  0  0  0
 21 22  1  0  0  0  0
 22 23  2  0  0  0  0
 23 25  1  0  0  0  0
 23 24  1  0  0  0  0
 25 26  1  0  0  0  0
 27 25  2  0  0  0  0
 28 27  1  0  0  0  0
M  END
>  <minimizedAffinity>
-5.17731428

$$$$
