
 OpenBabel03242517013D

 32 34  0  0  0  0  0  0  0  0999 V2000
   37.3900   31.2960   39.9880 C   0  0  0  0  0  0  0  0  0  0  0  0
   37.3240   32.6180   39.5670 C   0  0  0  0  0  0  0  0  0  0  0  0
   38.2370   33.5200   40.1070 C   0  0  0  0  0  0  0  0  0  0  0  0
   39.1710   33.0880   41.0340 C   0  0  0  0  0  0  0  0  0  0  0  0
   39.2540   31.8000   41.4590 C   0  0  0  0  0  0  0  0  0  0  0  0
   38.3210   30.9080   40.9000 C   0  0  0  0  0  0  0  0  0  0  0  0
   36.5860   32.9330   38.8410 H   0  0  0  0  0  0  0  0  0  0  0  0
   38.1450   34.5350   39.7490 H   0  0  0  0  0  0  0  0  0  0  0  0
   39.8590   33.8170   41.4270 H   0  0  0  0  0  0  0  0  0  0  0  0
   39.9730   31.4380   42.1820 H   0  0  0  0  0  0  0  0  0  0  0  0
   35.3720   29.1470   37.6400 C   0  0  0  0  0  0  0  0  0  0  0  0
   36.3800   30.0360   38.0750 C   0  0  0  0  0  0  0  0  0  0  0  0
   36.4130   30.3840   39.4000 C   0  0  0  0  0  0  0  0  0  0  0  0
   35.4600   29.8450   40.2270 N   0  0  0  0  0  0  0  0  0  0  0  0
   34.5000   28.9970   39.8130 C   0  0  0  0  0  0  0  0  0  0  0  0
   34.4520   28.6390   38.4930 N   0  0  0  0  0  0  0  0  0  0  0  0
   35.3350   28.8630   36.5970 H   0  0  0  0  0  0  0  0  0  0  0  0
   37.1120   30.4440   37.4130 H   0  0  0  0  0  0  0  0  0  0  0  0
   33.8370   28.6750   40.6050 H   0  0  0  0  0  0  0  0  0  0  0  0
   38.0360   28.7850   42.4230 C   0  0  0  0  0  0  0  0  0  0  0  0
   37.7010   29.2860   43.5270 O   0  0  0  0  0  0  0  0  0  0  0  0
   38.3020   29.5480   41.2640 N   0  0  0  0  0  0  0  0  0  0  0  0
   38.5630   29.1590   40.3360 H   0  0  0  0  0  0  0  0  0  0  0  0
   40.0500   27.0720   43.6800 F   0  0  0  0  0  0  0  0  0  0  0  0
   39.0590   26.5090   42.9610 C   0  0  0  0  0  0  0  0  0  0  0  0
   38.1370   27.3320   42.4000 C   0  0  0  0  0  0  0  0  0  0  0  0
   37.1750   26.6030   41.6970 C   0  0  0  0  0  0  0  0  0  0  0  0
   36.3450   27.1070   41.1750 H   0  0  0  0  0  0  0  0  0  0  0  0
   37.1450   25.2410   41.5770 C   0  0  0  0  0  0  0  0  0  0  0  0
   36.3730   24.7360   41.0180 H   0  0  0  0  0  0  0  0  0  0  0  0
   38.1220   24.4880   42.1790 C   0  0  0  0  0  3  0  0  0  0  0  0
   39.1030   25.1410   42.8880 C   0  0  0  0  0  3  0  0  0  0  0  0
  1  6  1  0  0  0  0
  2  1  2  0  0  0  0
  2  3  1  0  0  0  0
  3  4  2  0  0  0  0
  4  9  1  0  0  0  0
  4  5  1  0  0  0  0
  5 10  1  0  0  0  0
  6 22  1  0  0  0  0
  6  5  2  0  0  0  0
  7  2  1  0  0  0  0
  8  3  1  0  0  0  0
 11 12  2  0  0  0  0
 11 16  1  0  0  0  0
 12 13  1  0  0  0  0
 13  1  1  0  0  0  0
 13 14  2  0  0  0  0
 15 14  1  0  0  0  0
 15 19  1  0  0  0  0
 16 15  2  0  0  0  0
 17 11  1  0  0  0  0
 18 12  1  0  0  0  0
 20 21  2  0  0  0  0
 22 20  1  0  0  0  0
 23 22  1  0  0  0  0
 25 24  1  0  0  0  0
 26 20  1  0  0  0  0
 26 25  2  0  0  0  0
 27 26  1  0  0  0  0
 28 27  1  0  0  0  0
 29 27  2  0  0  0  0
 29 31  1  0  0  0  0
 30 29  1  0  0  0  0
 31 32  2  0  0  0  0
 32 25  1  0  0  0  0
M  END
>  <minimizedAffinity>
-5.95631647

$$$$

 OpenBabel03242517013D

 32 34  0  0  0  0  0  0  0  0999 V2000
   37.4320   31.3130   40.0300 C   0  0  0  0  0  0  0  0  0  0  0  0
   37.3240   32.6350   39.6140 C   0  0  0  0  0  0  0  0  0  0  0  0
   38.2380   33.5540   40.1230 C   0  0  0  0  0  0  0  0  0  0  0  0
   39.2130   33.1390   41.0140 C   0  0  0  0  0  0  0  0  0  0  0  0
   39.3370   31.8520   41.4340 C   0  0  0  0  0  0  0  0  0  0  0  0
   38.4030   30.9430   40.9070 C   0  0  0  0  0  0  0  0  0  0  0  0
   36.5540   32.9360   38.9170 H   0  0  0  0  0  0  0  0  0  0  0  0
   38.1130   34.5670   39.7700 H   0  0  0  0  0  0  0  0  0  0  0  0
   39.9010   33.8810   41.3840 H   0  0  0  0  0  0  0  0  0  0  0  0
   40.0900   31.5040   42.1290 H   0  0  0  0  0  0  0  0  0  0  0  0
   35.4450   29.0370   37.7780 C   0  0  0  0  0  0  0  0  0  0  0  0
   36.4600   29.9310   38.1820 C   0  0  0  0  0  0  0  0  0  0  0  0
   36.4530   30.3830   39.4760 C   0  0  0  0  0  0  0  0  0  0  0  0
   35.4540   29.9360   40.3040 N   0  0  0  0  0  0  0  0  0  0  0  0
   34.4860   29.0830   39.9190 C   0  0  0  0  0  0  0  0  0  0  0  0
   34.4780   28.6220   38.6300 N   0  0  0  0  0  0  0  0  0  0  0  0
   35.4390   28.6720   36.7600 H   0  0  0  0  0  0  0  0  0  0  0  0
   37.2290   30.2670   37.5210 H   0  0  0  0  0  0  0  0  0  0  0  0
   33.7840   28.8410   40.7060 H   0  0  0  0  0  0  0  0  0  0  0  0
   38.1230   28.8040   42.4090 C   0  0  0  0  0  0  0  0  0  0  0  0
   37.6990   29.2860   43.4910 O   0  0  0  0  0  0  0  0  0  0  0  0
   38.4240   29.5830   41.2680 N   0  0  0  0  0  0  0  0  0  0  0  0
   38.7580   29.2080   40.3580 H   0  0  0  0  0  0  0  0  0  0  0  0
   36.5830   26.8030   40.9280 F   0  0  0  0  0  0  0  0  0  0  0  0
   37.5920   26.4020   41.7270 C   0  0  0  0  0  0  0  0  0  0  0  0
   38.2920   27.3580   42.3910 C   0  0  0  0  0  0  0  0  0  0  0  0
   39.3040   26.7900   43.1670 C   0  0  0  0  0  0  0  0  0  0  0  0
   39.9760   27.4160   43.7770 H   0  0  0  0  0  0  0  0  0  0  0  0
   39.5740   25.4520   43.2600 C   0  0  0  0  0  0  0  0  0  0  0  0
   40.3740   25.0750   43.8800 H   0  0  0  0  0  0  0  0  0  0  0  0
   38.8120   24.5570   42.5510 C   0  0  0  0  0  3  0  0  0  0  0  0
   37.7960   25.0480   41.7650 C   0  0  0  0  0  3  0  0  0  0  0  0
  1  6  1  0  0  0  0
  2  1  2  0  0  0  0
  2  3  1  0  0  0  0
  3  4  2  0  0  0  0
  4  9  1  0  0  0  0
  4  5  1  0  0  0  0
  5 10  1  0  0  0  0
  6 22  1  0  0  0  0
  6  5  2  0  0  0  0
  7  2  1  0  0  0  0
  8  3  1  0  0  0  0
 11 12  2  0  0  0  0
 11 16  1  0  0  0  0
 12 13  1  0  0  0  0
 13  1  1  0  0  0  0
 13 14  2  0  0  0  0
 15 14  1  0  0  0  0
 15 19  1  0  0  0  0
 16 15  2  0  0  0  0
 17 11  1  0  0  0  0
 18 12  1  0  0  0  0
 20 21  2  0  0  0  0
 22 20  1  0  0  0  0
 23 22  1  0  0  0  0
 24 25  1  0  0  0  0
 25 32  2  0  0  0  0
 25 26  1  0  0  0  0
 26 20  1  0  0  0  0
 26 27  2  0  0  0  0
 27 29  1  0  0  0  0
 27 28  1  0  0  0  0
 29 30  1  0  0  0  0
 31 29  2  0  0  0  0
 32 31  1  0  0  0  0
M  END
>  <minimizedAffinity>
-5.88448572

$$$$

 OpenBabel03242517013D

 32 34  0  0  0  0  0  0  0  0999 V2000
   36.8230   25.6170   40.3710 C   0  0  0  0  0  0  0  0  0  0  0  0
   36.6570   24.2400   40.4500 C   0  0  0  0  0  0  0  0  0  0  0  0
   36.0110   23.6000   39.3960 C   0  0  0  0  0  0  0  0  0  0  0  0
   35.5570   24.3350   38.3140 C   0  0  0  0  0  0  0  0  0  0  0  0
   35.7090   25.6820   38.2150 C   0  0  0  0  0  0  0  0  0  0  0  0
   36.3640   26.3060   39.2920 C   0  0  0  0  0  0  0  0  0  0  0  0
   37.0200   23.6860   41.3050 H   0  0  0  0  0  0  0  0  0  0  0  0
   35.9060   22.5300   39.5050 H   0  0  0  0  0  0  0  0  0  0  0  0
   35.0620   23.8020   37.5190 H   0  0  0  0  0  0  0  0  0  0  0  0
   35.3630   26.2780   37.3810 H   0  0  0  0  0  0  0  0  0  0  0  0
   39.2860   26.5960   43.0500 C   0  0  0  0  0  0  0  0  0  0  0  0
   38.7520   25.9040   41.9410 C   0  0  0  0  0  0  0  0  0  0  0  0
   37.5010   26.2490   41.4980 C   0  0  0  0  0  0  0  0  0  0  0  0
   36.8420   27.2520   42.1630 N   0  0  0  0  0  0  0  0  0  0  0  0
   37.3510   27.9110   43.2210 C   0  0  0  0  0  0  0  0  0  0  0  0
   38.5970   27.5790   43.6760 N   0  0  0  0  0  0  0  0  0  0  0  0
   40.2710   26.3330   43.4100 H   0  0  0  0  0  0  0  0  0  0  0  0
   39.2830   25.1260   41.4370 H   0  0  0  0  0  0  0  0  0  0  0  0
   36.6880   28.6700   43.6170 H   0  0  0  0  0  0  0  0  0  0  0  0
   35.7910   28.8710   39.2920 C   0  0  0  0  0  0  0  0  0  0  0  0
   34.5330   28.8680   39.2620 O   0  0  0  0  0  0  0  0  0  0  0  0
   36.5780   27.6970   39.3090 N   0  0  0  0  0  0  0  0  0  0  0  0
   37.6160   27.6720   39.3530 H   0  0  0  0  0  0  0  0  0  0  0  0
   36.1050   30.7100   41.5480 F   0  0  0  0  0  0  0  0  0  0  0  0
   36.5680   31.0680   40.3340 C   0  0  0  0  0  0  0  0  0  0  0  0
   36.4140   30.1870   39.3120 C   0  0  0  0  0  0  0  0  0  0  0  0
   36.9470   30.6960   38.1270 C   0  0  0  0  0  0  0  0  0  0  0  0
   36.9120   30.1170   37.1900 H   0  0  0  0  0  0  0  0  0  0  0  0
   37.5500   31.9170   37.9890 C   0  0  0  0  0  0  0  0  0  0  0  0
   37.9430   32.2530   37.0420 H   0  0  0  0  0  0  0  0  0  0  0  0
   37.6600   32.7430   39.0790 C   0  0  0  0  0  3  0  0  0  0  0  0
   37.1550   32.3050   40.2810 C   0  0  0  0  0  3  0  0  0  0  0  0
  1  2  1  0  0  0  0
  1 13  1  0  0  0  0
  2  7  1  0  0  0  0
  3  8  1  0  0  0  0
  3  2  2  0  0  0  0
  4  3  1  0  0  0  0
  5  4  2  0  0  0  0
  5  6  1  0  0  0  0
  6 22  1  0  0  0  0
  6  1  2  0  0  0  0
  9  4  1  0  0  0  0
 10  5  1  0  0  0  0
 11 17  1  0  0  0  0
 11 16  1  0  0  0  0
 12 11  2  0  0  0  0
 13 12  1  0  0  0  0
 13 14  2  0  0  0  0
 14 15  1  0  0  0  0
 15 19  1  0  0  0  0
 15 16  2  0  0  0  0
 18 12  1  0  0  0  0
 20 22  1  0  0  0  0
 20 26  1  0  0  0  0
 21 20  2  0  0  0  0
 22 23  1  0  0  0  0
 25 24  1  0  0  0  0
 26 25  2  0  0  0  0
 27 26  1  0  0  0  0
 28 27  1  0  0  0  0
 29 27  2  0  0  0  0
 29 31  1  0  0  0  0
 30 29  1  0  0  0  0
 31 32  2  0  0  0  0
 32 25  1  0  0  0  0
M  END
>  <minimizedAffinity>
-5.72753811

$$$$

 OpenBabel03242517013D

 32 34  0  0  0  0  0  0  0  0999 V2000
   36.8900   25.6130   40.5970 C   0  0  0  0  0  0  0  0  0  0  0  0
   36.7400   24.2650   40.8980 C   0  0  0  0  0  0  0  0  0  0  0  0
   36.1080   23.4550   39.9590 C   0  0  0  0  0  0  0  0  0  0  0  0
   35.6530   23.9990   38.7700 C   0  0  0  0  0  0  0  0  0  0  0  0
   35.7890   25.3150   38.4550 C   0  0  0  0  0  0  0  0  0  0  0  0
   36.4300   26.1130   39.4190 C   0  0  0  0  0  0  0  0  0  0  0  0
   37.1040   23.8610   41.8330 H   0  0  0  0  0  0  0  0  0  0  0  0
   36.0150   22.4150   40.2380 H   0  0  0  0  0  0  0  0  0  0  0  0
   35.1700   23.3390   38.0690 H   0  0  0  0  0  0  0  0  0  0  0  0
   35.4420   25.7630   37.5340 H   0  0  0  0  0  0  0  0  0  0  0  0
   37.7200   27.6510   43.6570 C   0  0  0  0  0  0  0  0  0  0  0  0
   36.9590   26.8610   42.7670 C   0  0  0  0  0  0  0  0  0  0  0  0
   37.5540   26.4270   41.6100 C   0  0  0  0  0  0  0  0  0  0  0  0
   38.8600   26.7880   41.3890 N   0  0  0  0  0  0  0  0  0  0  0  0
   39.5850   27.5410   42.2380 C   0  0  0  0  0  0  0  0  0  0  0  0
   39.0060   27.9820   43.3960 N   0  0  0  0  0  0  0  0  0  0  0  0
   37.2620   28.0000   44.5730 H   0  0  0  0  0  0  0  0  0  0  0  0
   35.9430   26.5920   42.9590 H   0  0  0  0  0  0  0  0  0  0  0  0
   40.5950   27.7250   41.8980 H   0  0  0  0  0  0  0  0  0  0  0  0
   35.8410   28.6160   38.8740 C   0  0  0  0  0  0  0  0  0  0  0  0
   34.6010   28.5640   38.6710 O   0  0  0  0  0  0  0  0  0  0  0  0
   36.6270   27.4910   39.2120 N   0  0  0  0  0  0  0  0  0  0  0  0
   37.6490   27.5090   39.4030 H   0  0  0  0  0  0  0  0  0  0  0  0
   37.0920   29.8220   36.5180 F   0  0  0  0  0  0  0  0  0  0  0  0
   37.0390   30.5210   37.6690 C   0  0  0  0  0  0  0  0  0  0  0  0
   36.4430   29.9340   38.7390 C   0  0  0  0  0  0  0  0  0  0  0  0
   36.4600   30.7820   39.8490 C   0  0  0  0  0  0  0  0  0  0  0  0
   36.0190   30.4720   40.8100 H   0  0  0  0  0  0  0  0  0  0  0  0
   36.9990   32.0390   39.8780 C   0  0  0  0  0  0  0  0  0  0  0  0
   36.9790   32.6460   40.7700 H   0  0  0  0  0  0  0  0  0  0  0  0
   37.5820   32.5500   38.7460 C   0  0  0  0  0  3  0  0  0  0  0  0
   37.6020   31.7690   37.6140 C   0  0  0  0  0  3  0  0  0  0  0  0
  1  2  1  0  0  0  0
  1 13  1  0  0  0  0
  2  7  1  0  0  0  0
  3  8  1  0  0  0  0
  3  2  2  0  0  0  0
  4  3  1  0  0  0  0
  5  4  2  0  0  0  0
  5  6  1  0  0  0  0
  6  1  2  0  0  0  0
  9  4  1  0  0  0  0
 10  5  1  0  0  0  0
 11 17  1  0  0  0  0
 12 18  1  0  0  0  0
 12 11  2  0  0  0  0
 13 12  1  0  0  0  0
 14 13  2  0  0  0  0
 14 15  1  0  0  0  0
 15 16  2  0  0  0  0
 16 11  1  0  0  0  0
 19 15  1  0  0  0  0
 20 22  1  0  0  0  0
 21 20  2  0  0  0  0
 22 23  1  0  0  0  0
 22  6  1  0  0  0  0
 24 25  1  0  0  0  0
 25 26  1  0  0  0  0
 26 20  1  0  0  0  0
 26 27  2  0  0  0  0
 27 29  1  0  0  0  0
 27 28  1  0  0  0  0
 29 30  1  0  0  0  0
 31 29  2  0  0  0  0
 32 25  2  0  0  0  0
 32 31  1  0  0  0  0
M  END
>  <minimizedAffinity>
-5.70268822

$$$$

 OpenBabel03242517013D

 32 34  0  0  0  0  0  0  0  0999 V2000
   40.4920   30.5590   42.1040 C   0  0  0  0  0  0  0  0  0  0  0  0
   41.6300   30.9330   42.8090 C   0  0  0  0  0  0  0  0  0  0  0  0
   42.3700   32.0090   42.3280 C   0  0  0  0  0  0  0  0  0  0  0  0
   41.9640   32.6700   41.1810 C   0  0  0  0  0  0  0  0  0  0  0  0
   40.8540   32.3220   40.4760 C   0  0  0  0  0  0  0  0  0  0  0  0
   40.1240   31.2320   40.9810 C   0  0  0  0  0  0  0  0  0  0  0  0
   41.9280   30.4020   43.7040 H   0  0  0  0  0  0  0  0  0  0  0  0
   43.2440   32.2610   42.9100 H   0  0  0  0  0  0  0  0  0  0  0  0
   42.5630   33.4980   40.8410 H   0  0  0  0  0  0  0  0  0  0  0  0
   40.5180   32.8220   39.5770 H   0  0  0  0  0  0  0  0  0  0  0  0
   39.4250   27.1540   43.3180 C   0  0  0  0  0  0  0  0  0  0  0  0
   40.2630   28.1620   42.7920 C   0  0  0  0  0  0  0  0  0  0  0  0
   39.7480   29.4240   42.6410 C   0  0  0  0  0  0  0  0  0  0  0  0
   38.4430   29.6300   43.0130 N   0  0  0  0  0  0  0  0  0  0  0  0
   37.6450   28.6700   43.5150 C   0  0  0  0  0  0  0  0  0  0  0  0
   38.1430   27.4050   43.6720 N   0  0  0  0  0  0  0  0  0  0  0  0
   39.8190   26.1550   43.4430 H   0  0  0  0  0  0  0  0  0  0  0  0
   41.2760   27.9800   42.5080 H   0  0  0  0  0  0  0  0  0  0  0  0
   36.6480   29.0160   43.7520 H   0  0  0  0  0  0  0  0  0  0  0  0
   37.6680   31.2670   40.0470 C   0  0  0  0  0  0  0  0  0  0  0  0
   37.2730   32.4180   40.3650 O   0  0  0  0  0  0  0  0  0  0  0  0
   38.9590   30.7720   40.3380 N   0  0  0  0  0  0  0  0  0  0  0  0
   39.3160   29.8340   40.0710 H   0  0  0  0  0  0  0  0  0  0  0  0
   35.4420   29.7140   41.1440 F   0  0  0  0  0  0  0  0  0  0  0  0
   35.6610   29.7060   39.8140 C   0  0  0  0  0  0  0  0  0  0  0  0
   36.6960   30.4450   39.3380 C   0  0  0  0  0  0  0  0  0  0  0  0
   36.7890   30.3430   37.9490 C   0  0  0  0  0  0  0  0  0  0  0  0
   37.5720   30.8780   37.3880 H   0  0  0  0  0  0  0  0  0  0  0  0
   35.9590   29.6030   37.1520 C   0  0  0  0  0  0  0  0  0  0  0  0
   36.0840   29.5650   36.0810 H   0  0  0  0  0  0  0  0  0  0  0  0
   34.9370   28.8850   37.7230 C   0  0  0  0  0  3  0  0  0  0  0  0
   34.7870   28.9400   39.0890 C   0  0  0  0  0  3  0  0  0  0  0  0
  1 13  1  0  0  0  0
  1  2  1  0  0  0  0
  2  7  1  0  0  0  0
  3  2  2  0  0  0  0
  3  8  1  0  0  0  0
  4  3  1  0  0  0  0
  5  6  1  0  0  0  0
  5  4  2  0  0  0  0
  6  1  2  0  0  0  0
  9  4  1  0  0  0  0
 10  5  1  0  0  0  0
 11 17  1  0  0  0  0
 11 16  1  0  0  0  0
 12 11  2  0  0  0  0
 13 12  1  0  0  0  0
 13 14  2  0  0  0  0
 14 15  1  0  0  0  0
 15 16  2  0  0  0  0
 15 19  1  0  0  0  0
 18 12  1  0  0  0  0
 20 22  1  0  0  0  0
 20 21  2  0  0  0  0
 22  6  1  0  0  0  0
 23 22  1  0  0  0  0
 25 24  1  0  0  0  0
 26 25  1  0  0  0  0
 26 20  1  0  0  0  0
 27 26  2  0  0  0  0
 28 27  1  0  0  0  0
 29 31  2  0  0  0  0
 29 27  1  0  0  0  0
 30 29  1  0  0  0  0
 31 32  1  0  0  0  0
 32 25  2  0  0  0  0
M  END
>  <minimizedAffinity>
-5.59976578

$$$$

 OpenBabel03242517013D

 32 34  0  0  0  0  0  0  0  0999 V2000
   36.6010   26.1030   39.8490 C   0  0  0  0  0  0  0  0  0  0  0  0
   36.2970   24.7470   39.8070 C   0  0  0  0  0  0  0  0  0  0  0  0
   36.5450   23.9890   40.9490 C   0  0  0  0  0  0  0  0  0  0  0  0
   37.0770   24.5900   42.0770 C   0  0  0  0  0  0  0  0  0  0  0  0
   37.3810   25.9140   42.1400 C   0  0  0  0  0  0  0  0  0  0  0  0
   37.1230   26.6590   40.9750 C   0  0  0  0  0  0  0  0  0  0  0  0
   35.8820   24.2990   38.9150 H   0  0  0  0  0  0  0  0  0  0  0  0
   36.2920   22.9420   40.8670 H   0  0  0  0  0  0  0  0  0  0  0  0
   37.2530   23.9700   42.9390 H   0  0  0  0  0  0  0  0  0  0  0  0
   37.7970   26.4060   43.0080 H   0  0  0  0  0  0  0  0  0  0  0  0
   36.5280   27.3950   36.3090 C   0  0  0  0  0  0  0  0  0  0  0  0
   36.8720   26.5720   37.4050 C   0  0  0  0  0  0  0  0  0  0  0  0
   36.3300   26.8600   38.6310 C   0  0  0  0  0  0  0  0  0  0  0  0
   35.4820   27.9340   38.7180 N   0  0  0  0  0  0  0  0  0  0  0  0
   35.1530   28.7180   37.6750 C   0  0  0  0  0  0  0  0  0  0  0  0
   35.6860   28.4460   36.4440 N   0  0  0  0  0  0  0  0  0  0  0  0
   36.9480   27.1790   35.3360 H   0  0  0  0  0  0  0  0  0  0  0  0
   37.5360   25.7400   37.3140 H   0  0  0  0  0  0  0  0  0  0  0  0
   34.4720   29.5190   37.9320 H   0  0  0  0  0  0  0  0  0  0  0  0
   37.4920   29.1210   41.8160 C   0  0  0  0  0  0  0  0  0  0  0  0
   37.3200   29.0120   43.0570 O   0  0  0  0  0  0  0  0  0  0  0  0
   37.3990   28.0370   40.9130 N   0  0  0  0  0  0  0  0  0  0  0  0
   37.5550   28.0960   39.8880 H   0  0  0  0  0  0  0  0  0  0  0  0
   35.7890   30.9740   40.3220 F   0  0  0  0  0  0  0  0  0  0  0  0
   37.0450   31.3430   40.6400 C   0  0  0  0  0  0  0  0  0  0  0  0
   37.8050   30.4620   41.3420 C   0  0  0  0  0  0  0  0  0  0  0  0
   39.0710   30.9880   41.6010 C   0  0  0  0  0  0  0  0  0  0  0  0
   39.8250   30.4120   42.1620 H   0  0  0  0  0  0  0  0  0  0  0  0
   39.5120   32.2240   41.2110 C   0  0  0  0  0  0  0  0  0  0  0  0
   40.5060   32.5730   41.4430 H   0  0  0  0  0  0  0  0  0  0  0  0
   38.6720   33.0470   40.5030 C   0  0  0  0  0  3  0  0  0  0  0  0
   37.4080   32.5930   40.2110 C   0  0  0  0  0  3  0  0  0  0  0  0
  1  6  1  0  0  0  0
  2  1  2  0  0  0  0
  2  3  1  0  0  0  0
  3  4  2  0  0  0  0
  4  5  1  0  0  0  0
  4  9  1  0  0  0  0
  5 10  1  0  0  0  0
  6  5  2  0  0  0  0
  7  2  1  0  0  0  0
  8  3  1  0  0  0  0
 11 16  2  0  0  0  0
 11 12  1  0  0  0  0
 12 13  2  0  0  0  0
 13 14  1  0  0  0  0
 13  1  1  0  0  0  0
 15 19  1  0  0  0  0
 15 14  2  0  0  0  0
 16 15  1  0  0  0  0
 17 11  1  0  0  0  0
 18 12  1  0  0  0  0
 20 21  2  0  0  0  0
 22  6  1  0  0  0  0
 22 20  1  0  0  0  0
 23 22  1  0  0  0  0
 24 25  1  0  0  0  0
 25 26  1  0  0  0  0
 26 27  2  0  0  0  0
 26 20  1  0  0  0  0
 27 28  1  0  0  0  0
 29 30  1  0  0  0  0
 29 27  1  0  0  0  0
 31 29  2  0  0  0  0
 32 31  1  0  0  0  0
 32 25  2  0  0  0  0
M  END
>  <minimizedAffinity>
-5.51037359

$$$$

 OpenBabel03242517013D

 32 34  0  0  0  0  0  0  0  0999 V2000
   35.5150   28.7530   38.1530 C   0  0  0  0  0  0  0  0  0  0  0  0
   34.7110   29.1290   37.0830 C   0  0  0  0  0  0  0  0  0  0  0  0
   34.1430   28.1210   36.3090 C   0  0  0  0  0  0  0  0  0  0  0  0
   34.3860   26.7930   36.6160 C   0  0  0  0  0  0  0  0  0  0  0  0
   35.1670   26.4020   37.6580 C   0  0  0  0  0  0  0  0  0  0  0  0
   35.7310   27.4380   38.4240 C   0  0  0  0  0  0  0  0  0  0  0  0
   34.5360   30.1740   36.8620 H   0  0  0  0  0  0  0  0  0  0  0  0
   33.5280   28.4640   35.4900 H   0  0  0  0  0  0  0  0  0  0  0  0
   33.9270   26.0430   35.9940 H   0  0  0  0  0  0  0  0  0  0  0  0
   35.3720   25.3720   37.9170 H   0  0  0  0  0  0  0  0  0  0  0  0
   37.4140   31.8000   39.2990 C   0  0  0  0  0  0  0  0  0  0  0  0
   36.9180   30.8090   38.4230 C   0  0  0  0  0  0  0  0  0  0  0  0
   36.0940   29.8400   38.9350 C   0  0  0  0  0  0  0  0  0  0  0  0
   35.8010   29.8940   40.2750 N   0  0  0  0  0  0  0  0  0  0  0  0
   36.2730   30.8380   41.1090 C   0  0  0  0  0  0  0  0  0  0  0  0
   37.0960   31.8130   40.6150 N   0  0  0  0  0  0  0  0  0  0  0  0
   38.0640   32.5710   38.9070 H   0  0  0  0  0  0  0  0  0  0  0  0
   37.1590   30.7860   37.3830 H   0  0  0  0  0  0  0  0  0  0  0  0
   35.9360   30.7210   42.1310 H   0  0  0  0  0  0  0  0  0  0  0  0
   36.8730   26.0510   40.3420 C   0  0  0  0  0  0  0  0  0  0  0  0
   36.3720   24.9080   40.1860 O   0  0  0  0  0  0  0  0  0  0  0  0
   36.5620   27.1620   39.5260 N   0  0  0  0  0  0  0  0  0  0  0  0
   36.9750   28.1110   39.6220 H   0  0  0  0  0  0  0  0  0  0  0  0
   39.1120   24.2940   41.0280 F   0  0  0  0  0  0  0  0  0  0  0  0
   38.8620   25.3750   41.7930 C   0  0  0  0  0  0  0  0  0  0  0  0
   37.8220   26.1740   41.4400 C   0  0  0  0  0  0  0  0  0  0  0  0
   37.6960   27.2510   42.3190 C   0  0  0  0  0  0  0  0  0  0  0  0
   36.9030   28.0060   42.1880 H   0  0  0  0  0  0  0  0  0  0  0  0
   38.5020   27.4910   43.3990 C   0  0  0  0  0  0  0  0  0  0  0  0
   38.3520   28.3440   44.0420 H   0  0  0  0  0  0  0  0  0  0  0  0
   39.5300   26.6270   43.6790 C   0  0  0  0  0  3  0  0  0  0  0  0
   39.7130   25.5420   42.8540 C   0  0  0  0  0  3  0  0  0  0  0  0
  1  6  1  0  0  0  0
  1 13  1  0  0  0  0
  2  1  2  0  0  0  0
  3  4  2  0  0  0  0
  3  2  1  0  0  0  0
  4  5  1  0  0  0  0
  5 10  1  0  0  0  0
  5  6  2  0  0  0  0
  6 22  1  0  0  0  0
  7  2  1  0  0  0  0
  8  3  1  0  0  0  0
  9  4  1  0  0  0  0
 11 16  1  0  0  0  0
 12 13  1  0  0  0  0
 12 11  2  0  0  0  0
 13 14  2  0  0  0  0
 14 15  1  0  0  0  0
 15 19  1  0  0  0  0
 16 15  2  0  0  0  0
 17 11  1  0  0  0  0
 18 12  1  0  0  0  0
 20 26  1  0  0  0  0
 21 20  2  0  0  0  0
 22 23  1  0  0  0  0
 22 20  1  0  0  0  0
 24 25  1  0  0  0  0
 25 32  1  0  0  0  0
 26 25  2  0  0  0  0
 26 27  1  0  0  0  0
 27 29  2  0  0  0  0
 28 27  1  0  0  0  0
 29 31  1  0  0  0  0
 29 30  1  0  0  0  0
 32 31  2  0  0  0  0
M  END
>  <minimizedAffinity>
-5.44560575

$$$$

 OpenBabel03242517013D

 32 34  0  0  0  0  0  0  0  0999 V2000
   37.2570   30.6560   38.4200 C   0  0  0  0  0  0  0  0  0  0  0  0
   37.3650   31.9760   37.9970 C   0  0  0  0  0  0  0  0  0  0  0  0
   37.4420   32.9680   38.9710 C   0  0  0  0  0  0  0  0  0  0  0  0
   37.4110   32.6240   40.3120 C   0  0  0  0  0  0  0  0  0  0  0  0
   37.3070   31.3410   40.7480 C   0  0  0  0  0  0  0  0  0  0  0  0
   37.2290   30.3570   39.7460 C   0  0  0  0  0  0  0  0  0  0  0  0
   37.3880   32.2210   36.9430 H   0  0  0  0  0  0  0  0  0  0  0  0
   37.5250   33.9760   38.5920 H   0  0  0  0  0  0  0  0  0  0  0  0
   37.4740   33.4210   41.0340 H   0  0  0  0  0  0  0  0  0  0  0  0
   37.2800   31.0480   41.7890 H   0  0  0  0  0  0  0  0  0  0  0  0
   36.1380   28.4420   35.5830 C   0  0  0  0  0  0  0  0  0  0  0  0
   36.0830   29.4630   36.5580 C   0  0  0  0  0  0  0  0  0  0  0  0
   37.1740   29.6490   37.3670 C   0  0  0  0  0  0  0  0  0  0  0  0
   38.2580   28.8280   37.1780 N   0  0  0  0  0  0  0  0  0  0  0  0
   38.3100   27.8560   36.2480 C   0  0  0  0  0  0  0  0  0  0  0  0
   37.2290   27.6570   35.4330 N   0  0  0  0  0  0  0  0  0  0  0  0
   35.2840   28.2850   34.9380 H   0  0  0  0  0  0  0  0  0  0  0  0
   35.2290   30.0900   36.6890 H   0  0  0  0  0  0  0  0  0  0  0  0
   39.2440   27.3100   36.2450 H   0  0  0  0  0  0  0  0  0  0  0  0
   37.9070   27.9990   40.6880 C   0  0  0  0  0  0  0  0  0  0  0  0
   39.0600   28.2110   41.1440 O   0  0  0  0  0  0  0  0  0  0  0  0
   37.1140   28.9930   40.0700 N   0  0  0  0  0  0  0  0  0  0  0  0
   36.1530   28.8490   39.7020 H   0  0  0  0  0  0  0  0  0  0  0  0
   37.8470   26.3290   43.0920 F   0  0  0  0  0  0  0  0  0  0  0  0
   37.3810   25.8310   41.9290 C   0  0  0  0  0  0  0  0  0  0  0  0
   37.4150   26.6360   40.8360 C   0  0  0  0  0  0  0  0  0  0  0  0
   36.8940   25.9850   39.7170 C   0  0  0  0  0  0  0  0  0  0  0  0
   36.8410   26.4870   38.7370 H   0  0  0  0  0  0  0  0  0  0  0  0
   36.4070   24.7060   39.7000 C   0  0  0  0  0  0  0  0  0  0  0  0
   36.0170   24.2590   38.7990 H   0  0  0  0  0  0  0  0  0  0  0  0
   36.4140   23.9650   40.8550 C   0  0  0  0  0  3  0  0  0  0  0  0
   36.9140   24.5450   41.9970 C   0  0  0  0  0  3  0  0  0  0  0  0
  1  6  1  0  0  0  0
  2  1  2  0  0  0  0
  2  3  1  0  0  0  0
  3  4  2  0  0  0  0
  4  5  1  0  0  0  0
  4  9  1  0  0  0  0
  5 10  1  0  0  0  0
  6 22  1  0  0  0  0
  6  5  2  0  0  0  0
  7  2  1  0  0  0  0
  8  3  1  0  0  0  0
 11 12  1  0  0  0  0
 12 18  1  0  0  0  0
 12 13  2  0  0  0  0
 13  1  1  0  0  0  0
 14 13  1  0  0  0  0
 15 14  2  0  0  0  0
 16 11  2  0  0  0  0
 16 15  1  0  0  0  0
 17 11  1  0  0  0  0
 19 15  1  0  0  0  0
 20 26  1  0  0  0  0
 20 21  2  0  0  0  0
 22 20  1  0  0  0  0
 23 22  1  0  0  0  0
 25 32  1  0  0  0  0
 25 24  1  0  0  0  0
 26 25  2  0  0  0  0
 27 26  1  0  0  0  0
 28 27  1  0  0  0  0
 29 27  2  0  0  0  0
 29 31  1  0  0  0  0
 30 29  1  0  0  0  0
 31 32  2  0  0  0  0
M  END
>  <minimizedAffinity>
-5.42519379

$$$$

 OpenBabel03242517013D

 32 34  0  0  0  0  0  0  0  0999 V2000
   37.3550   26.7550   41.0430 C   0  0  0  0  0  0  0  0  0  0  0  0
   37.1250   25.4090   41.3040 C   0  0  0  0  0  0  0  0  0  0  0  0
   38.0160   24.7480   42.1450 C   0  0  0  0  0  0  0  0  0  0  0  0
   39.0890   25.4310   42.6910 C   0  0  0  0  0  0  0  0  0  0  0  0
   39.3330   26.7470   42.4490 C   0  0  0  0  0  0  0  0  0  0  0  0
   38.4200   27.3930   41.5970 C   0  0  0  0  0  0  0  0  0  0  0  0
   36.2790   24.8960   40.8670 H   0  0  0  0  0  0  0  0  0  0  0  0
   37.7940   23.7050   42.3170 H   0  0  0  0  0  0  0  0  0  0  0  0
   39.7550   24.8830   43.3370 H   0  0  0  0  0  0  0  0  0  0  0  0
   40.1640   27.3020   42.8630 H   0  0  0  0  0  0  0  0  0  0  0  0
   35.2120   27.7560   38.1090 C   0  0  0  0  0  0  0  0  0  0  0  0
   36.1600   27.0270   38.8590 C   0  0  0  0  0  0  0  0  0  0  0  0
   36.4000   27.4090   40.1540 C   0  0  0  0  0  0  0  0  0  0  0  0
   35.6990   28.4820   40.6430 N   0  0  0  0  0  0  0  0  0  0  0  0
   34.7950   29.1770   39.9280 C   0  0  0  0  0  0  0  0  0  0  0  0
   34.5440   28.8100   38.6340 N   0  0  0  0  0  0  0  0  0  0  0  0
   35.0130   27.4650   37.0860 H   0  0  0  0  0  0  0  0  0  0  0  0
   36.6950   26.1940   38.4580 H   0  0  0  0  0  0  0  0  0  0  0  0
   34.3420   29.9920   40.4790 H   0  0  0  0  0  0  0  0  0  0  0  0
   38.7450   29.9770   41.9510 C   0  0  0  0  0  0  0  0  0  0  0  0
   38.8260   30.0710   43.2020 O   0  0  0  0  0  0  0  0  0  0  0  0
   38.5670   28.7530   41.2660 N   0  0  0  0  0  0  0  0  0  0  0  0
   38.5160   28.6450   40.2340 H   0  0  0  0  0  0  0  0  0  0  0  0
   36.5960   31.6870   40.9380 F   0  0  0  0  0  0  0  0  0  0  0  0
   37.8790   32.0440   40.7280 C   0  0  0  0  0  0  0  0  0  0  0  0
   38.8500   31.2320   41.2200 C   0  0  0  0  0  0  0  0  0  0  0  0
   40.1200   31.7370   40.9320 C   0  0  0  0  0  0  0  0  0  0  0  0
   41.0310   31.2090   41.2540 H   0  0  0  0  0  0  0  0  0  0  0  0
   40.3750   32.8930   40.2460 C   0  0  0  0  0  0  0  0  0  0  0  0
   41.3820   33.2300   40.0540 H   0  0  0  0  0  0  0  0  0  0  0  0
   39.3280   33.6510   39.7840 C   0  0  0  0  0  3  0  0  0  0  0  0
   38.0480   33.2120   40.0330 C   0  0  0  0  0  3  0  0  0  0  0  0
  1  2  2  0  0  0  0
  1  6  1  0  0  0  0
  2  3  1  0  0  0  0
  3  8  1  0  0  0  0
  3  4  2  0  0  0  0
  4  9  1  0  0  0  0
  5  4  1  0  0  0  0
  5 10  1  0  0  0  0
  6  5  2  0  0  0  0
  7  2  1  0  0  0  0
 11 16  2  0  0  0  0
 11 12  1  0  0  0  0
 12 13  2  0  0  0  0
 13 14  1  0  0  0  0
 13  1  1  0  0  0  0
 15 19  1  0  0  0  0
 15 14  2  0  0  0  0
 16 15  1  0  0  0  0
 17 11  1  0  0  0  0
 18 12  1  0  0  0  0
 20 21  2  0  0  0  0
 22  6  1  0  0  0  0
 22 20  1  0  0  0  0
 23 22  1  0  0  0  0
 25 24  1  0  0  0  0
 25 26  1  0  0  0  0
 26 20  1  0  0  0  0
 27 26  2  0  0  0  0
 27 28  1  0  0  0  0
 29 27  1  0  0  0  0
 30 29  1  0  0  0  0
 31 32  1  0  0  0  0
 31 29  2  0  0  0  0
 32 25  2  0  0  0  0
M  END
>  <minimizedAffinity>
-5.40858459

$$$$
