
 OpenBabel03252508493D

 28 30  0  0  0  0  0  0  0  0999 V2000
   45.9070   34.2370   41.0450 C   0  0  0  0  0  0  0  0  0  0  0  0
   46.5120   34.8010   42.1610 C   0  0  0  0  0  0  0  0  0  0  0  0
   47.8810   35.1020   42.0440 C   0  0  0  0  0  0  0  0  0  0  0  0
   48.5150   34.8220   40.8620 N   0  0  0  0  0  0  0  0  0  0  0  0
   47.8810   34.2800   39.8280 C   0  0  0  0  0  0  0  0  0  0  0  0
   46.5740   33.9830   39.9070 N   0  0  0  0  0  0  0  0  0  0  0  0
   48.3650   35.5450   42.9140 H   0  0  0  0  0  0  0  0  0  0  0  0
   48.3910   34.0640   38.8980 H   0  0  0  0  0  0  0  0  0  0  0  0
   45.7430   35.0530   43.3590 C   0  0  0  0  0  0  0  0  0  0  0  0
   45.0980   36.2580   43.6020 C   0  0  0  0  0  0  0  0  0  0  0  0
   44.5030   36.0610   44.8290 C   0  0  0  0  0  0  0  0  0  0  0  0
   44.7680   34.8170   45.3060 N   0  0  0  0  0  0  0  0  0  0  0  0
   45.5190   34.2350   44.3960 N   0  0  0  0  0  0  0  0  0  0  0  0
   45.0190   37.1870   43.0290 H   0  0  0  0  0  0  0  0  0  0  0  0
   43.8830   36.7370   45.4330 H   0  0  0  0  0  0  0  0  0  0  0  0
   44.5130   34.3060   46.1620 H   0  0  0  0  0  0  0  0  0  0  0  0
   44.5640   33.9280   41.1220 O   0  0  0  0  0  0  0  0  0  0  0  0
   43.5160   34.6480   40.6240 C   0  0  0  0  0  0  0  0  0  0  0  0
   43.2440   35.8830   40.8440 O   0  0  0  0  0  0  0  0  0  0  0  0
   43.5570   31.9590   39.7070 F   0  0  0  0  0  0  0  0  0  0  0  0
   42.5310   32.7420   39.2740 C   0  0  0  0  0  0  0  0  0  0  0  0
   42.4900   34.0680   39.7130 C   0  0  0  0  0  0  0  0  0  0  0  0
   41.4130   34.7600   39.2120 C   0  0  0  0  0  0  0  0  0  0  0  0
   41.2930   35.7950   39.4940 H   0  0  0  0  0  0  0  0  0  0  0  0
   40.4680   34.2230   38.3700 C   0  0  0  0  0  0  0  0  0  0  0  0
   39.6460   34.8310   38.0160 H   0  0  0  0  0  0  0  0  0  0  0  0
   40.5860   32.9210   37.9930 C   0  0  0  0  0  3  0  0  0  0  0  0
   41.6190   32.1460   38.4350 C   0  0  0  0  0  3  0  0  0  0  0  0
  1 17  1  0  0  0  0
  1  2  1  0  0  0  0
  2  9  1  0  0  0  0
  3  2  2  0  0  0  0
  3  7  1  0  0  0  0
  4  3  1  0  0  0  0
  5  6  1  0  0  0  0
  5  4  2  0  0  0  0
  6  1  2  0  0  0  0
  8  5  1  0  0  0  0
  9 10  1  0  0  0  0
  9 13  2  0  0  0  0
 10 11  2  0  0  0  0
 11 12  1  0  0  0  0
 11 15  1  0  0  0  0
 12 16  1  0  0  0  0
 13 12  1  0  0  0  0
 14 10  1  0  0  0  0
 18 19  2  0  0  0  0
 18 17  1  0  0  0  0
 21 20  1  0  0  0  0
 21 22  1  0  0  0  0
 22 18  1  0  0  0  0
 23 24  1  0  0  0  0
 23 22  2  0  0  0  0
 25 23  1  0  0  0  0
 26 25  1  0  0  0  0
 27 25  2  0  0  0  0
 27 28  1  0  0  0  0
 28 21  2  0  0  0  0
M  END
>  <minimizedAffinity>
-5.47126389

>  <minimizedRMSD>
0.684433818

$$$$
