
 OpenBabel03242520463D

 22 23  0  0  0  0  0  0  0  0999 V2000
   36.5960   30.6340   40.5480 C   0  0  0  0  0  0  0  0  0  0  0  0
   36.8280   29.7640   41.6180 C   0  0  0  0  0  0  0  0  0  0  0  0
   36.6120   28.3860   41.4680 C   0  0  0  0  0  0  0  0  0  0  0  0
   36.1740   27.9650   40.2490 N   0  0  0  0  0  0  0  0  0  0  0  0
   35.9610   28.8290   39.2410 C   0  0  0  0  0  0  0  0  0  0  0  0
   36.1710   30.1430   39.3950 N   0  0  0  0  0  0  0  0  0  0  0  0
   36.8160   32.0170   40.7050 N   0  0  0  0  0  0  0  0  0  0  0  0
   37.1790   30.2330   42.5460 H   0  0  0  0  0  0  0  0  0  0  0  0
   35.6120   28.4340   38.2900 H   0  0  0  0  0  0  0  0  0  0  0  0
   35.9210   32.2810   41.2070 H   0  0  0  0  0  0  0  0  0  0  0  0
   37.6080   32.6390   40.4260 H   0  0  0  0  0  0  0  0  0  0  0  0
   36.8710   27.5620   42.6080 C   0  0  0  0  0  0  0  0  0  0  0  0
   36.1280   27.5500   43.6380 O   0  0  0  0  0  0  0  0  0  0  0  0
   36.7660   24.9840   41.6720 F   0  0  0  0  0  0  0  0  0  0  0  0
   37.9100   25.3250   42.3440 C   0  0  0  0  0  0  0  0  0  0  0  0
   37.9680   26.6210   42.8170 C   0  0  0  0  0  0  0  0  0  0  0  0
   39.1370   26.9690   43.5030 C   0  0  0  0  0  0  0  0  0  0  0  0
   39.2390   27.9620   43.8940 H   0  0  0  0  0  0  0  0  0  0  0  0
   40.1520   26.0460   43.6780 C   0  0  0  0  0  0  0  0  0  0  0  0
   41.0660   26.2680   44.1990 H   0  0  0  0  0  0  0  0  0  0  0  0
   40.0430   24.7630   43.1850 C   0  0  0  0  0  3  0  0  0  0  0  0
   38.8940   24.3680   42.4920 C   0  0  0  0  0  3  0  0  0  0  0  0
  1  7  1  0  0  0  0
  1  2  1  0  0  0  0
  2  8  1  0  0  0  0
  3  2  2  0  0  0  0
  3 12  1  0  0  0  0
  4  3  1  0  0  0  0
  5  6  1  0  0  0  0
  5  4  2  0  0  0  0
  6  1  2  0  0  0  0
  7 10  1  0  0  0  0
  9  5  1  0  0  0  0
 11  7  1  0  0  0  0
 12 16  1  0  0  0  0
 12 13  2  0  0  0  0
 14 15  1  0  0  0  0
 15 22  2  0  0  0  0
 15 16  1  0  0  0  0
 16 17  2  0  0  0  0
 17 19  1  0  0  0  0
 17 18  1  0  0  0  0
 19 20  1  0  0  0  0
 21 19  2  0  0  0  0
 22 21  1  0  0  0  0
M  END
>  <minimizedAffinity>
-5.29417849

$$$$

 OpenBabel03242520463D

 22 23  0  0  0  0  0  0  0  0999 V2000
   37.5500   32.7280   40.2000 C   0  0  0  0  0  0  0  0  0  0  0  0
   36.7350   31.5920   40.2050 C   0  0  0  0  0  0  0  0  0  0  0  0
   37.1770   30.4080   40.8140 C   0  0  0  0  0  0  0  0  0  0  0  0
   38.4140   30.4370   41.3810 N   0  0  0  0  0  0  0  0  0  0  0  0
   39.1730   31.5480   41.3590 C   0  0  0  0  0  0  0  0  0  0  0  0
   38.7410   32.6730   40.7750 N   0  0  0  0  0  0  0  0  0  0  0  0
   37.1010   33.9150   39.5870 N   0  0  0  0  0  0  0  0  0  0  0  0
   35.7610   31.7020   39.7110 H   0  0  0  0  0  0  0  0  0  0  0  0
   40.1520   31.5100   41.8290 H   0  0  0  0  0  0  0  0  0  0  0  0
   37.3040   33.6780   38.5750 H   0  0  0  0  0  0  0  0  0  0  0  0
   36.6850   34.7920   39.9750 H   0  0  0  0  0  0  0  0  0  0  0  0
   36.2860   29.2890   40.7770 C   0  0  0  0  0  0  0  0  0  0  0  0
   35.0430   29.4000   40.5440 O   0  0  0  0  0  0  0  0  0  0  0  0
   36.7700   28.2630   43.2760 F   0  0  0  0  0  0  0  0  0  0  0  0
   36.8370   27.3660   42.2430 C   0  0  0  0  0  0  0  0  0  0  0  0
   36.5940   27.8770   40.9830 C   0  0  0  0  0  0  0  0  0  0  0  0
   36.6620   26.9590   39.9290 C   0  0  0  0  0  0  0  0  0  0  0  0
   36.4830   27.2980   38.9280 H   0  0  0  0  0  0  0  0  0  0  0  0
   36.9570   25.6300   40.1700 C   0  0  0  0  0  0  0  0  0  0  0  0
   37.0200   24.8900   39.3920 H   0  0  0  0  0  0  0  0  0  0  0  0
   37.1910   25.1710   41.4490 C   0  0  0  0  0  3  0  0  0  0  0  0
   37.1340   26.0490   42.5360 C   0  0  0  0  0  3  0  0  0  0  0  0
  1  2  2  0  0  0  0
  1  6  1  0  0  0  0
  2  3  1  0  0  0  0
  3  4  2  0  0  0  0
  5  4  1  0  0  0  0
  5  9  1  0  0  0  0
  6  5  2  0  0  0  0
  7 11  1  0  0  0  0
  7  1  1  0  0  0  0
  8  2  1  0  0  0  0
 10  7  1  0  0  0  0
 12  3  1  0  0  0  0
 12 16  1  0  0  0  0
 13 12  2  0  0  0  0
 15 22  1  0  0  0  0
 15 14  1  0  0  0  0
 16 15  2  0  0  0  0
 17 19  2  0  0  0  0
 17 16  1  0  0  0  0
 18 17  1  0  0  0  0
 19 21  1  0  0  0  0
 20 19  1  0  0  0  0
 21 22  2  0  0  0  0
M  END
>  <minimizedAffinity>
-5.2288847

$$$$

 OpenBabel03242520463D

 22 23  0  0  0  0  0  0  0  0999 V2000
   37.7070   31.2610   37.1410 C   0  0  0  0  0  0  0  0  0  0  0  0
   37.5500   31.2310   38.5300 C   0  0  0  0  0  0  0  0  0  0  0  0
   36.7150   30.2740   39.1260 C   0  0  0  0  0  0  0  0  0  0  0  0
   36.0860   29.4040   38.2870 N   0  0  0  0  0  0  0  0  0  0  0  0
   36.2600   29.4610   36.9550 C   0  0  0  0  0  0  0  0  0  0  0  0
   37.0600   30.3780   36.3960 N   0  0  0  0  0  0  0  0  0  0  0  0
   38.5480   32.2240   36.5470 N   0  0  0  0  0  0  0  0  0  0  0  0
   38.1130   31.9890   39.0890 H   0  0  0  0  0  0  0  0  0  0  0  0
   35.7320   28.7390   36.3370 H   0  0  0  0  0  0  0  0  0  0  0  0
   37.8960   33.0600   36.5630 H   0  0  0  0  0  0  0  0  0  0  0  0
   39.5260   32.1740   36.1850 H   0  0  0  0  0  0  0  0  0  0  0  0
   36.6060   30.3080   40.5510 C   0  0  0  0  0  0  0  0  0  0  0  0
   36.0400   31.2550   41.1810 O   0  0  0  0  0  0  0  0  0  0  0  0
   38.9830   30.6380   41.8840 F   0  0  0  0  0  0  0  0  0  0  0  0
   38.2840   29.5000   42.1900 C   0  0  0  0  0  0  0  0  0  0  0  0
   37.0870   29.3290   41.5220 C   0  0  0  0  0  0  0  0  0  0  0  0
   36.3740   28.1670   41.8360 C   0  0  0  0  0  0  0  0  0  0  0  0
   35.4370   27.9800   41.3490 H   0  0  0  0  0  0  0  0  0  0  0  0
   36.8670   27.2660   42.7620 C   0  0  0  0  0  0  0  0  0  0  0  0
   36.3550   26.3610   43.0340 H   0  0  0  0  0  0  0  0  0  0  0  0
   38.0690   27.4850   43.4010 C   0  0  0  0  0  3  0  0  0  0  0  0
   38.8180   28.6320   43.1220 C   0  0  0  0  0  3  0  0  0  0  0  0
  1  2  1  0  0  0  0
  2  8  1  0  0  0  0
  2  3  2  0  0  0  0
  3 12  1  0  0  0  0
  4  3  1  0  0  0  0
  5  4  2  0  0  0  0
  6  5  1  0  0  0  0
  6  1  2  0  0  0  0
  7 10  1  0  0  0  0
  7  1  1  0  0  0  0
  9  5  1  0  0  0  0
 11  7  1  0  0  0  0
 12 13  2  0  0  0  0
 12 16  1  0  0  0  0
 14 15  1  0  0  0  0
 15 22  1  0  0  0  0
 16 17  1  0  0  0  0
 16 15  2  0  0  0  0
 17 19  2  0  0  0  0
 18 17  1  0  0  0  0
 19 20  1  0  0  0  0
 19 21  1  0  0  0  0
 22 21  2  0  0  0  0
M  END
>  <minimizedAffinity>
-5.18630171

$$$$

 OpenBabel03242520463D

 22 23  0  0  0  0  0  0  0  0999 V2000
   39.5100   32.1480   38.3600 C   0  0  0  0  0  0  0  0  0  0  0  0
   38.5050   31.4320   39.0170 C   0  0  0  0  0  0  0  0  0  0  0  0
   38.4750   31.3810   40.4190 C   0  0  0  0  0  0  0  0  0  0  0  0
   39.4600   32.0530   41.0760 N   0  0  0  0  0  0  0  0  0  0  0  0
   40.4130   32.7320   40.4120 C   0  0  0  0  0  0  0  0  0  0  0  0
   40.4310   32.7740   39.0740 N   0  0  0  0  0  0  0  0  0  0  0  0
   39.5340   32.1960   36.9520 N   0  0  0  0  0  0  0  0  0  0  0  0
   37.7720   30.9340   38.3690 H   0  0  0  0  0  0  0  0  0  0  0  0
   41.1730   33.2500   40.9920 H   0  0  0  0  0  0  0  0  0  0  0  0
   39.9750   31.2540   36.7510 H   0  0  0  0  0  0  0  0  0  0  0  0
   39.2220   32.9220   36.2680 H   0  0  0  0  0  0  0  0  0  0  0  0
   37.4160   30.6280   41.0170 C   0  0  0  0  0  0  0  0  0  0  0  0
   36.2390   31.0820   41.1630 O   0  0  0  0  0  0  0  0  0  0  0  0
   38.6290   30.0480   43.4100 F   0  0  0  0  0  0  0  0  0  0  0  0
   38.0700   28.9830   42.7560 C   0  0  0  0  0  0  0  0  0  0  0  0
   37.4580   29.2690   41.5500 C   0  0  0  0  0  0  0  0  0  0  0  0
   36.8860   28.1800   40.8820 C   0  0  0  0  0  0  0  0  0  0  0  0
   36.3970   28.3410   39.9420 H   0  0  0  0  0  0  0  0  0  0  0  0
   36.9490   26.9090   41.4250 C   0  0  0  0  0  0  0  0  0  0  0  0
   36.5250   26.0440   40.9470 H   0  0  0  0  0  0  0  0  0  0  0  0
   37.5720   26.6780   42.6320 C   0  0  0  0  0  3  0  0  0  0  0  0
   38.1580   27.7340   43.3380 C   0  0  0  0  0  3  0  0  0  0  0  0
  1  2  2  0  0  0  0
  1  6  1  0  0  0  0
  2  3  1  0  0  0  0
  3 12  1  0  0  0  0
  3  4  2  0  0  0  0
  5  9  1  0  0  0  0
  5  4  1  0  0  0  0
  6  5  2  0  0  0  0
  7  1  1  0  0  0  0
  8  2  1  0  0  0  0
 10  7  1  0  0  0  0
 11  7  1  0  0  0  0
 12 13  2  0  0  0  0
 12 16  1  0  0  0  0
 15 22  1  0  0  0  0
 15 14  1  0  0  0  0
 16 15  2  0  0  0  0
 17 19  2  0  0  0  0
 17 16  1  0  0  0  0
 18 17  1  0  0  0  0
 19 21  1  0  0  0  0
 20 19  1  0  0  0  0
 21 22  2  0  0  0  0
M  END
>  <minimizedAffinity>
-5.17505455

$$$$

 OpenBabel03242520463D

 22 23  0  0  0  0  0  0  0  0999 V2000
   37.5860   31.3170   36.8880 C   0  0  0  0  0  0  0  0  0  0  0  0
   37.5190   31.3890   38.2830 C   0  0  0  0  0  0  0  0  0  0  0  0
   36.8670   30.3840   39.0110 C   0  0  0  0  0  0  0  0  0  0  0  0
   36.3200   29.3650   38.2920 N   0  0  0  0  0  0  0  0  0  0  0  0
   36.4030   29.3260   36.9500 C   0  0  0  0  0  0  0  0  0  0  0  0
   37.0280   30.2920   36.2650 N   0  0  0  0  0  0  0  0  0  0  0  0
   38.2430   32.3310   36.1610 N   0  0  0  0  0  0  0  0  0  0  0  0
   38.0000   32.2640   38.7380 H   0  0  0  0  0  0  0  0  0  0  0  0
   35.9470   28.4870   36.4310 H   0  0  0  0  0  0  0  0  0  0  0  0
   37.4810   33.0670   36.1580 H   0  0  0  0  0  0  0  0  0  0  0  0
   39.1960   32.3840   35.7340 H   0  0  0  0  0  0  0  0  0  0  0  0
   36.8400   30.5290   40.4340 C   0  0  0  0  0  0  0  0  0  0  0  0
   36.4240   31.5780   41.0160 O   0  0  0  0  0  0  0  0  0  0  0  0
   35.2200   28.4560   41.2160 F   0  0  0  0  0  0  0  0  0  0  0  0
   36.4360   28.5260   41.8420 C   0  0  0  0  0  0  0  0  0  0  0  0
   37.2560   29.5680   41.4520 C   0  0  0  0  0  0  0  0  0  0  0  0
   38.4980   29.6390   42.0920 C   0  0  0  0  0  0  0  0  0  0  0  0
   39.1770   30.4270   41.8310 H   0  0  0  0  0  0  0  0  0  0  0  0
   38.8510   28.7070   43.0510 C   0  0  0  0  0  0  0  0  0  0  0  0
   39.7930   28.7230   43.5680 H   0  0  0  0  0  0  0  0  0  0  0  0
   37.9950   27.6860   43.4030 C   0  0  0  0  0  3  0  0  0  0  0  0
   36.7420   27.5720   42.7920 C   0  0  0  0  0  3  0  0  0  0  0  0
  1  2  1  0  0  0  0
  2  8  1  0  0  0  0
  2  3  2  0  0  0  0
  3 12  1  0  0  0  0
  4  3  1  0  0  0  0
  5  4  2  0  0  0  0
  6  1  2  0  0  0  0
  6  5  1  0  0  0  0
  7  1  1  0  0  0  0
  9  5  1  0  0  0  0
 10  7  1  0  0  0  0
 11  7  1  0  0  0  0
 12 13  2  0  0  0  0
 12 16  1  0  0  0  0
 14 15  1  0  0  0  0
 15 22  1  0  0  0  0
 16 15  2  0  0  0  0
 16 17  1  0  0  0  0
 17 19  2  0  0  0  0
 18 17  1  0  0  0  0
 19 21  1  0  0  0  0
 19 20  1  0  0  0  0
 22 21  2  0  0  0  0
M  END
>  <minimizedAffinity>
-5.14134836

$$$$

 OpenBabel03242520463D

 22 23  0  0  0  0  0  0  0  0999 V2000
   38.3970   24.0530   41.8760 C   0  0  0  0  0  0  0  0  0  0  0  0
   37.4990   25.1190   41.9860 C   0  0  0  0  0  0  0  0  0  0  0  0
   37.8580   26.2740   42.6960 C   0  0  0  0  0  0  0  0  0  0  0  0
   39.1000   26.2870   43.2550 N   0  0  0  0  0  0  0  0  0  0  0  0
   39.9390   25.2440   43.1300 C   0  0  0  0  0  0  0  0  0  0  0  0
   39.5860   24.1460   42.4490 N   0  0  0  0  0  0  0  0  0  0  0  0
   38.0310   22.8950   41.1600 N   0  0  0  0  0  0  0  0  0  0  0  0
   36.5310   24.9790   41.4890 H   0  0  0  0  0  0  0  0  0  0  0  0
   40.9180   25.3130   43.5970 H   0  0  0  0  0  0  0  0  0  0  0  0
   37.4390   22.4140   41.8960 H   0  0  0  0  0  0  0  0  0  0  0  0
   38.2540   22.5670   40.1940 H   0  0  0  0  0  0  0  0  0  0  0  0
   36.8860   27.3210   42.7640 C   0  0  0  0  0  0  0  0  0  0  0  0
   36.0040   27.3900   43.6760 O   0  0  0  0  0  0  0  0  0  0  0  0
   38.4650   29.5600   42.9310 F   0  0  0  0  0  0  0  0  0  0  0  0
   37.5080   29.5810   41.9520 C   0  0  0  0  0  0  0  0  0  0  0  0
   36.7100   28.4560   41.8630 C   0  0  0  0  0  0  0  0  0  0  0  0
   35.7330   28.4780   40.8620 C   0  0  0  0  0  0  0  0  0  0  0  0
   35.0840   27.6340   40.7450 H   0  0  0  0  0  0  0  0  0  0  0  0
   35.6020   29.5750   40.0290 C   0  0  0  0  0  0  0  0  0  0  0  0
   34.8660   29.6370   39.2480 H   0  0  0  0  0  0  0  0  0  0  0  0
   36.4250   30.6740   40.1600 C   0  0  0  0  0  3  0  0  0  0  0  0
   37.4170   30.6990   41.1460 C   0  0  0  0  0  3  0  0  0  0  0  0
  1  2  2  0  0  0  0
  1  6  1  0  0  0  0
  2  3  1  0  0  0  0
  3 12  1  0  0  0  0
  3  4  2  0  0  0  0
  5  4  1  0  0  0  0
  5  9  1  0  0  0  0
  6  5  2  0  0  0  0
  7  1  1  0  0  0  0
  7 10  1  0  0  0  0
  8  2  1  0  0  0  0
 11  7  1  0  0  0  0
 12 13  2  0  0  0  0
 15 14  1  0  0  0  0
 16 15  1  0  0  0  0
 16 12  1  0  0  0  0
 17 16  2  0  0  0  0
 18 17  1  0  0  0  0
 19 21  2  0  0  0  0
 19 17  1  0  0  0  0
 20 19  1  0  0  0  0
 21 22  1  0  0  0  0
 22 15  2  0  0  0  0
M  END
>  <minimizedAffinity>
-5.10392952

$$$$

 OpenBabel03242520463D

 22 23  0  0  0  0  0  0  0  0999 V2000
   39.5260   32.1200   38.3610 C   0  0  0  0  0  0  0  0  0  0  0  0
   38.4810   31.4640   39.0180 C   0  0  0  0  0  0  0  0  0  0  0  0
   38.4760   31.3690   40.4180 C   0  0  0  0  0  0  0  0  0  0  0  0
   39.5250   31.9390   41.0730 N   0  0  0  0  0  0  0  0  0  0  0  0
   40.5150   32.5630   40.4090 C   0  0  0  0  0  0  0  0  0  0  0  0
   40.5090   32.6480   39.0720 N   0  0  0  0  0  0  0  0  0  0  0  0
   39.5250   32.2120   36.9540 N   0  0  0  0  0  0  0  0  0  0  0  0
   37.6980   31.0480   38.3710 H   0  0  0  0  0  0  0  0  0  0  0  0
   41.3250   32.9990   40.9860 H   0  0  0  0  0  0  0  0  0  0  0  0
   39.8850   31.2450   36.7140 H   0  0  0  0  0  0  0  0  0  0  0  0
   39.2580   32.9830   36.3010 H   0  0  0  0  0  0  0  0  0  0  0  0
   37.3730   30.6830   41.0160 C   0  0  0  0  0  0  0  0  0  0  0  0
   36.1980   31.1630   41.0580 O   0  0  0  0  0  0  0  0  0  0  0  0
   36.6680   28.4050   39.6580 F   0  0  0  0  0  0  0  0  0  0  0  0
   37.0060   28.2300   40.9730 C   0  0  0  0  0  0  0  0  0  0  0  0
   37.3610   29.3730   41.6620 C   0  0  0  0  0  0  0  0  0  0  0  0
   37.7070   29.1940   43.0060 C   0  0  0  0  0  0  0  0  0  0  0  0
   37.9910   30.0450   43.5920 H   0  0  0  0  0  0  0  0  0  0  0  0
   37.6820   27.9350   43.5780 C   0  0  0  0  0  0  0  0  0  0  0  0
   37.9380   27.7500   44.6050 H   0  0  0  0  0  0  0  0  0  0  0  0
   37.3190   26.8250   42.8450 C   0  0  0  0  0  3  0  0  0  0  0  0
   36.9660   26.9530   41.4980 C   0  0  0  0  0  3  0  0  0  0  0  0
  1  2  2  0  0  0  0
  1  6  1  0  0  0  0
  2  3  1  0  0  0  0
  3 12  1  0  0  0  0
  3  4  2  0  0  0  0
  5  9  1  0  0  0  0
  5  4  1  0  0  0  0
  6  5  2  0  0  0  0
  7  1  1  0  0  0  0
  8  2  1  0  0  0  0
 10  7  1  0  0  0  0
 11  7  1  0  0  0  0
 12 13  2  0  0  0  0
 12 16  1  0  0  0  0
 14 15  1  0  0  0  0
 15 22  2  0  0  0  0
 15 16  1  0  0  0  0
 16 17  2  0  0  0  0
 17 19  1  0  0  0  0
 17 18  1  0  0  0  0
 19 20  1  0  0  0  0
 21 19  2  0  0  0  0
 22 21  1  0  0  0  0
M  END
>  <minimizedAffinity>
-5.10111952

$$$$

 OpenBabel03242520463D

 22 23  0  0  0  0  0  0  0  0999 V2000
   36.7680   30.8860   40.4380 C   0  0  0  0  0  0  0  0  0  0  0  0
   36.8940   29.9820   41.4970 C   0  0  0  0  0  0  0  0  0  0  0  0
   36.7870   28.6030   41.2640 C   0  0  0  0  0  0  0  0  0  0  0  0
   36.5580   28.2160   39.9780 N   0  0  0  0  0  0  0  0  0  0  0  0
   36.4430   29.1130   38.9830 C   0  0  0  0  0  0  0  0  0  0  0  0
   36.5470   30.4270   39.2170 N   0  0  0  0  0  0  0  0  0  0  0  0
   36.8780   32.2710   40.6780 N   0  0  0  0  0  0  0  0  0  0  0  0
   37.0760   30.4260   42.4840 H   0  0  0  0  0  0  0  0  0  0  0  0
   36.2610   28.7430   37.9770 H   0  0  0  0  0  0  0  0  0  0  0  0
   35.9050   32.4620   41.0500 H   0  0  0  0  0  0  0  0  0  0  0  0
   37.6630   32.9470   40.5430 H   0  0  0  0  0  0  0  0  0  0  0  0
   36.9260   27.7420   42.3980 C   0  0  0  0  0  0  0  0  0  0  0  0
   36.2550   27.8880   43.4660 O   0  0  0  0  0  0  0  0  0  0  0  0
   39.3450   27.9380   43.6800 F   0  0  0  0  0  0  0  0  0  0  0  0
   39.0240   26.6940   43.2050 C   0  0  0  0  0  0  0  0  0  0  0  0
   37.8080   26.5890   42.5590 C   0  0  0  0  0  0  0  0  0  0  0  0
   37.4810   25.3180   42.0750 C   0  0  0  0  0  0  0  0  0  0  0  0
   36.5490   25.1750   41.5650 H   0  0  0  0  0  0  0  0  0  0  0  0
   38.3460   24.2530   42.2510 C   0  0  0  0  0  0  0  0  0  0  0  0
   38.1380   23.2600   41.8960 H   0  0  0  0  0  0  0  0  0  0  0  0
   39.5500   24.4120   42.9040 C   0  0  0  0  0  3  0  0  0  0  0  0
   39.9210   25.6630   43.4060 C   0  0  0  0  0  3  0  0  0  0  0  0
  1  7  1  0  0  0  0
  1  2  1  0  0  0  0
  2  8  1  0  0  0  0
  3  2  2  0  0  0  0
  3 12  1  0  0  0  0
  4  3  1  0  0  0  0
  5  6  1  0  0  0  0
  5  4  2  0  0  0  0
  6  1  2  0  0  0  0
  7 10  1  0  0  0  0
  9  5  1  0  0  0  0
 11  7  1  0  0  0  0
 12 16  1  0  0  0  0
 12 13  2  0  0  0  0
 15 22  1  0  0  0  0
 15 14  1  0  0  0  0
 16 15  2  0  0  0  0
 17 19  2  0  0  0  0
 17 16  1  0  0  0  0
 18 17  1  0  0  0  0
 19 21  1  0  0  0  0
 20 19  1  0  0  0  0
 21 22  2  0  0  0  0
M  END
>  <minimizedAffinity>
-5.07975435

$$$$

 OpenBabel03242520463D

 22 23  0  0  0  0  0  0  0  0999 V2000
   37.6030   26.4070   42.2010 C   0  0  0  0  0  0  0  0  0  0  0  0
   36.9170   27.1610   41.2440 C   0  0  0  0  0  0  0  0  0  0  0  0
   36.7020   28.5330   41.4480 C   0  0  0  0  0  0  0  0  0  0  0  0
   37.1890   29.0630   42.6040 N   0  0  0  0  0  0  0  0  0  0  0  0
   37.8450   28.3080   43.5030 C   0  0  0  0  0  0  0  0  0  0  0  0
   38.0450   26.9990   43.2980 N   0  0  0  0  0  0  0  0  0  0  0  0
   37.8170   25.0300   41.9900 N   0  0  0  0  0  0  0  0  0  0  0  0
   36.5770   26.6110   40.3580 H   0  0  0  0  0  0  0  0  0  0  0  0
   38.2110   28.7870   44.4070 H   0  0  0  0  0  0  0  0  0  0  0  0
   36.8670   24.6580   42.2750 H   0  0  0  0  0  0  0  0  0  0  0  0
   38.6480   24.4910   41.6550 H   0  0  0  0  0  0  0  0  0  0  0  0
   35.9920   29.2360   40.4250 C   0  0  0  0  0  0  0  0  0  0  0  0
   34.7280   29.1980   40.3070 O   0  0  0  0  0  0  0  0  0  0  0  0
   36.6320   31.8660   40.8760 F   0  0  0  0  0  0  0  0  0  0  0  0
   36.8510   31.4130   39.6020 C   0  0  0  0  0  0  0  0  0  0  0  0
   36.5300   30.0890   39.3690 C   0  0  0  0  0  0  0  0  0  0  0  0
   36.7540   29.6260   38.0680 C   0  0  0  0  0  0  0  0  0  0  0  0
   36.5240   28.6080   37.8280 H   0  0  0  0  0  0  0  0  0  0  0  0
   37.2670   30.4700   37.0990 C   0  0  0  0  0  0  0  0  0  0  0  0
   37.4540   30.1590   36.0870 H   0  0  0  0  0  0  0  0  0  0  0  0
   37.5700   31.7840   37.3840 C   0  0  0  0  0  3  0  0  0  0  0  0
   37.3640   32.2930   38.6700 C   0  0  0  0  0  3  0  0  0  0  0  0
  1  6  1  0  0  0  0
  2  3  1  0  0  0  0
  2  1  2  0  0  0  0
  3  4  2  0  0  0  0
  4  5  1  0  0  0  0
  5  9  1  0  0  0  0
  6  5  2  0  0  0  0
  7  1  1  0  0  0  0
  7 10  1  0  0  0  0
  8  2  1  0  0  0  0
 11  7  1  0  0  0  0
 12  3  1  0  0  0  0
 13 12  2  0  0  0  0
 15 14  1  0  0  0  0
 16 15  1  0  0  0  0
 16 12  1  0  0  0  0
 17 16  2  0  0  0  0
 18 17  1  0  0  0  0
 19 21  2  0  0  0  0
 19 17  1  0  0  0  0
 20 19  1  0  0  0  0
 21 22  1  0  0  0  0
 22 15  2  0  0  0  0
M  END
>  <minimizedAffinity>
-4.83311462

$$$$
