
 OpenBabel03252503103D

 27 29  0  0  1  0  0  0  0  0999 V2000
   36.0760   29.2900   38.4500 C   0  0  0  0  0  0  0  0  0  0  0  0
   36.7740   30.2480   39.2300 C   0  0  0  0  0  0  0  0  0  0  0  0
   37.4990   31.1700   38.5060 C   0  0  0  0  0  0  0  0  0  0  0  0
   37.5480   31.1750   37.1570 N   0  0  0  0  0  0  0  0  0  0  0  0
   36.8560   30.2300   36.4430 C   0  0  0  0  0  0  0  0  0  0  0  0
   36.1250   29.2940   37.1000 N   0  0  0  0  0  0  0  0  0  0  0  0
   35.4660   28.5020   38.8710 H   0  0  0  0  0  0  0  0  0  0  0  0
   36.9270   30.2780   35.3680 H   0  0  0  0  0  0  0  0  0  0  0  0
   38.2080   32.1460   39.2010 C   0  0  0  0  0  0  0  0  0  0  0  0
   37.8750   33.3400   39.7920 C   0  0  0  0  0  0  0  0  0  0  0  0
   38.7590   34.1290   40.3880 C   0  0  0  0  0  0  0  0  0  0  0  0
   40.0650   33.7000   40.3990 C   0  0  0  0  0  0  0  0  0  0  0  0
   39.9670   32.0830   39.4990 S   0  0  0  0  0  0  0  0  0  0  0  0
   36.9040   33.7910   39.8840 H   0  0  0  0  0  0  0  0  0  0  0  0
   38.8130   35.0520   40.9020 H   0  0  0  0  0  0  0  0  0  0  0  0
   41.1060   33.9240   40.7150 H   0  0  0  0  0  0  0  0  0  0  0  0
   36.6360   30.1800   40.6290 C   0  0  2  0  0  3  0  0  0  0  0  0
   35.7360   31.0250   41.1180 O   0  0  0  0  0  1  0  0  0  0  0  0
   39.1710   30.4910   42.2850 F   0  0  0  0  0  0  0  0  0  0  0  0
   38.4650   29.3610   42.4090 C   0  0  0  0  0  0  0  0  0  0  0  0
   37.3290   29.3500   41.6550 C   0  0  0  0  0  0  0  0  0  0  0  0
   36.6110   28.1550   41.9130 C   0  0  0  0  0  0  0  0  0  0  0  0
   35.6480   27.9260   41.4160 H   0  0  0  0  0  0  0  0  0  0  0  0
   36.9500   27.1290   42.7740 C   0  0  0  0  0  0  0  0  0  0  0  0
   36.3590   26.2410   42.9280 H   0  0  0  0  0  0  0  0  0  0  0  0
   38.1300   27.2970   43.4580 C   0  0  0  0  0  3  0  0  0  0  0  0
   38.9040   28.4160   43.2850 C   0  0  0  0  0  3  0  0  0  0  0  0
  1  7  1  0  0  0  0
  1  2  1  0  0  0  0
  2 17  1  0  0  0  0
  3  9  1  0  0  0  0
  3  2  2  0  0  0  0
  4  3  1  0  0  0  0
  5  6  1  0  0  0  0
  5  4  2  0  0  0  0
  6  1  2  0  0  0  0
  8  5  1  0  0  0  0
  9 13  1  0  0  0  0
  9 10  2  0  0  0  0
 10 14  1  0  0  0  0
 10 11  1  0  0  0  0
 11 12  2  0  0  0  0
 11 15  1  0  0  0  0
 12 16  1  0  0  0  0
 13 12  1  0  0  0  0
 17 18  1  1  0  0  0
 17 21  1  0  0  0  0
 19 20  1  0  0  0  0
 20 27  1  0  0  0  0
 21 22  1  0  0  0  0
 21 20  2  0  0  0  0
 22 24  2  0  0  0  0
 23 22  1  0  0  0  0
 24 25  1  0  0  0  0
 24 26  1  0  0  0  0
 27 26  2  0  0  0  0
M  END
>  <minimizedAffinity>
-5.41667747

$$$$

 OpenBabel03252503103D

 27 29  0  0  1  0  0  0  0  0999 V2000
   35.4650   27.0180   38.0590 C   0  0  0  0  0  0  0  0  0  0  0  0
   35.8760   27.6520   39.2600 C   0  0  0  0  0  0  0  0  0  0  0  0
   36.6630   26.8790   40.0860 C   0  0  0  0  0  0  0  0  0  0  0  0
   37.0240   25.6130   39.7880 N   0  0  0  0  0  0  0  0  0  0  0  0
   36.6050   25.0400   38.6150 C   0  0  0  0  0  0  0  0  0  0  0  0
   35.8260   25.7510   37.7600 N   0  0  0  0  0  0  0  0  0  0  0  0
   34.8460   27.4920   37.3110 H   0  0  0  0  0  0  0  0  0  0  0  0
   36.9210   24.0270   38.4230 H   0  0  0  0  0  0  0  0  0  0  0  0
   37.1090   27.4340   41.2830 C   0  0  0  0  0  0  0  0  0  0  0  0
   36.5640   27.5890   42.5340 C   0  0  0  0  0  0  0  0  0  0  0  0
   37.1950   28.1930   43.5320 C   0  0  0  0  0  0  0  0  0  0  0  0
   38.4560   28.6730   43.2700 C   0  0  0  0  0  0  0  0  0  0  0  0
   38.7020   28.2120   41.4920 S   0  0  0  0  0  0  0  0  0  0  0  0
   35.6110   27.2500   42.8930 H   0  0  0  0  0  0  0  0  0  0  0  0
   37.0530   28.4550   44.5470 H   0  0  0  0  0  0  0  0  0  0  0  0
   39.3430   29.2020   43.6760 H   0  0  0  0  0  0  0  0  0  0  0  0
   35.4740   28.9850   39.4670 C   0  0  2  0  0  3  0  0  0  0  0  0
   34.1620   29.1290   39.6160 O   0  0  0  0  0  1  0  0  0  0  0  0
   36.1720   30.9680   41.6690 F   0  0  0  0  0  0  0  0  0  0  0  0
   36.5780   31.2330   40.4210 C   0  0  0  0  0  0  0  0  0  0  0  0
   36.2470   30.2570   39.5280 C   0  0  0  0  0  0  0  0  0  0  0  0
   36.7860   30.5860   38.2590 C   0  0  0  0  0  0  0  0  0  0  0  0
   36.6500   29.9360   37.3730 H   0  0  0  0  0  0  0  0  0  0  0  0
   37.5320   31.6980   37.9140 C   0  0  0  0  0  0  0  0  0  0  0  0
   37.9160   31.8930   36.9260 H   0  0  0  0  0  0  0  0  0  0  0  0
   37.7740   32.5860   38.9340 C   0  0  0  0  0  3  0  0  0  0  0  0
   37.3010   32.3660   40.2030 C   0  0  0  0  0  3  0  0  0  0  0  0
  1  2  1  0  0  0  0
  2 17  1  0  0  0  0
  2  3  2  0  0  0  0
  3  9  1  0  0  0  0
  4  3  1  0  0  0  0
  5  4  2  0  0  0  0
  6  1  2  0  0  0  0
  6  5  1  0  0  0  0
  7  1  1  0  0  0  0
  8  5  1  0  0  0  0
  9 13  1  0  0  0  0
  9 10  2  0  0  0  0
 10 14  1  0  0  0  0
 10 11  1  0  0  0  0
 11 15  1  0  0  0  0
 12 11  2  0  0  0  0
 12 16  1  0  0  0  0
 13 12  1  0  0  0  0
 17 21  1  0  0  0  0
 17 18  1  6  0  0  0
 20 19  1  0  0  0  0
 21 20  2  0  0  0  0
 22 21  1  0  0  0  0
 23 22  1  0  0  0  0
 24 22  2  0  0  0  0
 24 26  1  0  0  0  0
 25 24  1  0  0  0  0
 26 27  2  0  0  0  0
 27 20  1  0  0  0  0
M  END
>  <minimizedAffinity>
-5.39282322

$$$$

 OpenBabel03252503103D

 27 29  0  0  1  0  0  0  0  0999 V2000
   39.4940   32.1080   40.8810 C   0  0  0  0  0  0  0  0  0  0  0  0
   38.6010   31.0960   40.4460 C   0  0  0  0  0  0  0  0  0  0  0  0
   37.4860   31.5530   39.7770 C   0  0  0  0  0  0  0  0  0  0  0  0
   37.2490   32.8610   39.5450 N   0  0  0  0  0  0  0  0  0  0  0  0
   38.1410   33.8070   39.9840 C   0  0  0  0  0  0  0  0  0  0  0  0
   39.2580   33.4190   40.6500 N   0  0  0  0  0  0  0  0  0  0  0  0
   40.4110   31.9100   41.4200 H   0  0  0  0  0  0  0  0  0  0  0  0
   37.9070   34.8380   39.7730 H   0  0  0  0  0  0  0  0  0  0  0  0
   36.5630   30.6180   39.3140 C   0  0  0  0  0  0  0  0  0  0  0  0
   35.4820   29.9780   39.8690 C   0  0  0  0  0  0  0  0  0  0  0  0
   34.7540   29.0820   39.2150 C   0  0  0  0  0  0  0  0  0  0  0  0
   35.1240   28.8050   37.9210 C   0  0  0  0  0  0  0  0  0  0  0  0
   36.5930   29.9080   37.6770 S   0  0  0  0  0  0  0  0  0  0  0  0
   35.0620   30.1050   40.8490 H   0  0  0  0  0  0  0  0  0  0  0  0
   33.9150   28.4530   39.3570 H   0  0  0  0  0  0  0  0  0  0  0  0
   34.9080   28.2130   37.0070 H   0  0  0  0  0  0  0  0  0  0  0  0
   38.9500   29.7580   40.7080 C   0  0  2  0  0  3  0  0  0  0  0  0
   39.9940   29.3320   40.0060 O   0  0  0  0  0  1  0  0  0  0  0  0
   38.3030   29.6300   43.6800 F   0  0  0  0  0  0  0  0  0  0  0  0
   38.0620   28.5490   42.9290 C   0  0  0  0  0  0  0  0  0  0  0  0
   38.3490   28.7340   41.6090 C   0  0  0  0  0  0  0  0  0  0  0  0
   37.9870   27.5690   40.8860 C   0  0  0  0  0  0  0  0  0  0  0  0
   38.1240   27.4880   39.7910 H   0  0  0  0  0  0  0  0  0  0  0  0
   37.4330   26.4020   41.3770 C   0  0  0  0  0  0  0  0  0  0  0  0
   37.1790   25.5460   40.7740 H   0  0  0  0  0  0  0  0  0  0  0  0
   37.2100   26.3790   42.7330 C   0  0  0  0  0  3  0  0  0  0  0  0
   37.5210   27.4520   43.5290 C   0  0  0  0  0  3  0  0  0  0  0  0
  1  7  1  0  0  0  0
  2 17  1  0  0  0  0
  2  1  2  0  0  0  0
  3  2  1  0  0  0  0
  4  3  2  0  0  0  0
  4  5  1  0  0  0  0
  5  6  2  0  0  0  0
  6  1  1  0  0  0  0
  8  5  1  0  0  0  0
  9  3  1  0  0  0  0
  9 10  2  0  0  0  0
 10 14  1  0  0  0  0
 11 15  1  0  0  0  0
 11 10  1  0  0  0  0
 12 11  2  0  0  0  0
 13 12  1  0  0  0  0
 13  9  1  0  0  0  0
 16 12  1  0  0  0  0
 17 18  1  6  0  0  0
 17 21  1  0  0  0  0
 20 27  1  0  0  0  0
 20 19  1  0  0  0  0
 21 20  2  0  0  0  0
 22 24  2  0  0  0  0
 22 21  1  0  0  0  0
 23 22  1  0  0  0  0
 24 26  1  0  0  0  0
 25 24  1  0  0  0  0
 26 27  2  0  0  0  0
M  END
>  <minimizedAffinity>
-5.19169188

$$$$

 OpenBabel03252503103D

 27 29  0  0  1  0  0  0  0  0999 V2000
   39.8790   30.2160   42.5990 C   0  0  0  0  0  0  0  0  0  0  0  0
   38.7020   29.6310   42.0660 C   0  0  0  0  0  0  0  0  0  0  0  0
   38.2620   30.1830   40.8830 C   0  0  0  0  0  0  0  0  0  0  0  0
   38.8950   31.2030   40.2650 N   0  0  0  0  0  0  0  0  0  0  0  0
   40.0310   31.7380   40.8160 C   0  0  0  0  0  0  0  0  0  0  0  0
   40.5130   31.2370   41.9820 N   0  0  0  0  0  0  0  0  0  0  0  0
   40.3470   29.8950   43.5200 H   0  0  0  0  0  0  0  0  0  0  0  0
   40.4990   32.5500   40.2820 H   0  0  0  0  0  0  0  0  0  0  0  0
   37.1140   29.6580   40.2950 C   0  0  0  0  0  0  0  0  0  0  0  0
   35.7670   29.7820   40.5370 C   0  0  0  0  0  0  0  0  0  0  0  0
   34.8410   29.1420   39.8350 C   0  0  0  0  0  0  0  0  0  0  0  0
   35.2830   28.3250   38.8230 C   0  0  0  0  0  0  0  0  0  0  0  0
   37.1240   28.5170   38.9230 S   0  0  0  0  0  0  0  0  0  0  0  0
   35.2740   30.3950   41.2680 H   0  0  0  0  0  0  0  0  0  0  0  0
   33.7900   29.0340   39.7800 H   0  0  0  0  0  0  0  0  0  0  0  0
   34.9940   27.6270   38.0090 H   0  0  0  0  0  0  0  0  0  0  0  0
   38.1330   28.5510   42.7680 C   0  0  2  0  0  3  0  0  0  0  0  0
   37.2360   28.9200   43.6770 O   0  0  0  0  0  1  0  0  0  0  0  0
   40.4570   26.7120   43.4610 F   0  0  0  0  0  0  0  0  0  0  0  0
   39.3590   26.1730   42.9180 C   0  0  0  0  0  0  0  0  0  0  0  0
   38.3680   27.0820   42.6900 C   0  0  0  0  0  0  0  0  0  0  0  0
   37.2240   26.4080   42.1930 C   0  0  0  0  0  0  0  0  0  0  0  0
   36.2890   26.9430   41.9390 H   0  0  0  0  0  0  0  0  0  0  0  0
   37.0720   25.0550   41.9540 C   0  0  0  0  0  0  0  0  0  0  0  0
   36.1710   24.6010   41.5740 H   0  0  0  0  0  0  0  0  0  0  0  0
   38.1690   24.2780   42.2350 C   0  0  0  0  0  3  0  0  0  0  0  0
   39.3290   24.8260   42.7220 C   0  0  0  0  0  3  0  0  0  0  0  0
  1  7  1  0  0  0  0
  2  1  1  0  0  0  0
  2 17  1  0  0  0  0
  3  2  2  0  0  0  0
  4  5  2  0  0  0  0
  4  3  1  0  0  0  0
  5  6  1  0  0  0  0
  6  1  2  0  0  0  0
  8  5  1  0  0  0  0
  9 10  2  0  0  0  0
  9  3  1  0  0  0  0
 10 14  1  0  0  0  0
 11 10  1  0  0  0  0
 12 13  1  0  0  0  0
 12 11  2  0  0  0  0
 13  9  1  0  0  0  0
 15 11  1  0  0  0  0
 16 12  1  0  0  0  0
 17 18  1  1  0  0  0
 20 19  1  0  0  0  0
 21 17  1  0  0  0  0
 21 20  2  0  0  0  0
 22 21  1  0  0  0  0
 23 22  1  0  0  0  0
 24 22  2  0  0  0  0
 24 26  1  0  0  0  0
 25 24  1  0  0  0  0
 26 27  2  0  0  0  0
 27 20  1  0  0  0  0
M  END
>  <minimizedAffinity>
-5.18267536

$$$$

 OpenBabel03252503103D

 27 29  0  0  1  0  0  0  0  0999 V2000
   36.6290   24.8430   41.5160 C   0  0  0  0  0  0  0  0  0  0  0  0
   37.5220   25.8460   41.9730 C   0  0  0  0  0  0  0  0  0  0  0  0
   38.8580   25.5230   41.8760 C   0  0  0  0  0  0  0  0  0  0  0  0
   39.2980   24.3460   41.3820 N   0  0  0  0  0  0  0  0  0  0  0  0
   38.3980   23.4060   40.9500 C   0  0  0  0  0  0  0  0  0  0  0  0
   37.0680   23.6640   41.0220 N   0  0  0  0  0  0  0  0  0  0  0  0
   35.5520   24.9460   41.5290 H   0  0  0  0  0  0  0  0  0  0  0  0
   38.8010   22.4830   40.5640 H   0  0  0  0  0  0  0  0  0  0  0  0
   39.7970   26.4590   42.3010 C   0  0  0  0  0  0  0  0  0  0  0  0
   40.3320   26.7990   43.5200 C   0  0  0  0  0  0  0  0  0  0  0  0
   41.2180   27.7730   43.6770 C   0  0  0  0  0  0  0  0  0  0  0  0
   41.6010   28.4550   42.5470 C   0  0  0  0  0  0  0  0  0  0  0  0
   40.6130   27.6210   41.2190 S   0  0  0  0  0  0  0  0  0  0  0  0
   40.1510   26.3480   44.4770 H   0  0  0  0  0  0  0  0  0  0  0  0
   41.7820   28.2480   44.4370 H   0  0  0  0  0  0  0  0  0  0  0  0
   42.2330   29.2670   42.1300 H   0  0  0  0  0  0  0  0  0  0  0  0
   36.9680   27.0520   42.4420 C   0  0  2  0  0  3  0  0  0  0  0  0
   36.4160   26.9530   43.6470 O   0  0  0  0  0  1  0  0  0  0  0  0
   38.4090   29.7020   42.8450 F   0  0  0  0  0  0  0  0  0  0  0  0
   37.4120   29.6490   41.9540 C   0  0  0  0  0  0  0  0  0  0  0  0
   36.8700   28.4050   41.8250 C   0  0  0  0  0  0  0  0  0  0  0  0
   35.8840   28.4300   40.8070 C   0  0  0  0  0  0  0  0  0  0  0  0
   35.3080   27.5290   40.5210 H   0  0  0  0  0  0  0  0  0  0  0  0
   35.4880   29.5050   40.0340 C   0  0  0  0  0  0  0  0  0  0  0  0
   34.7280   29.4610   39.2710 H   0  0  0  0  0  0  0  0  0  0  0  0
   36.1340   30.6900   40.2930 C   0  0  0  0  0  3  0  0  0  0  0  0
   37.1070   30.7790   41.2570 C   0  0  0  0  0  3  0  0  0  0  0  0
  1  7  1  0  0  0  0
  1  2  1  0  0  0  0
  2 17  1  0  0  0  0
  3  2  2  0  0  0  0
  3  9  1  0  0  0  0
  4  3  1  0  0  0  0
  5  6  1  0  0  0  0
  5  4  2  0  0  0  0
  6  1  2  0  0  0  0
  8  5  1  0  0  0  0
  9 10  2  0  0  0  0
 10 11  1  0  0  0  0
 10 14  1  0  0  0  0
 11 15  1  0  0  0  0
 12 11  2  0  0  0  0
 13  9  1  0  0  0  0
 13 12  1  0  0  0  0
 16 12  1  0  0  0  0
 17 18  1  6  0  0  0
 20 19  1  0  0  0  0
 21 20  1  0  0  0  0
 21 17  1  0  0  0  0
 22 21  2  0  0  0  0
 23 22  1  0  0  0  0
 24 26  2  0  0  0  0
 24 22  1  0  0  0  0
 25 24  1  0  0  0  0
 26 27  1  0  0  0  0
 27 20  2  0  0  0  0
M  END
>  <minimizedAffinity>
-5.09876013

$$$$

 OpenBabel03252503103D

 27 29  0  0  1  0  0  0  0  0999 V2000
   35.8370   29.5630   38.2530 C   0  0  0  0  0  0  0  0  0  0  0  0
   36.4130   29.4410   39.5440 C   0  0  0  0  0  0  0  0  0  0  0  0
   36.5440   28.1480   40.0030 C   0  0  0  0  0  0  0  0  0  0  0  0
   36.1590   27.0700   39.2880 N   0  0  0  0  0  0  0  0  0  0  0  0
   35.6080   27.2340   38.0430 C   0  0  0  0  0  0  0  0  0  0  0  0
   35.4510   28.4840   37.5370 N   0  0  0  0  0  0  0  0  0  0  0  0
   35.6680   30.5090   37.7570 H   0  0  0  0  0  0  0  0  0  0  0  0
   35.3180   26.3410   37.5140 H   0  0  0  0  0  0  0  0  0  0  0  0
   37.1060   27.9470   41.2610 C   0  0  0  0  0  0  0  0  0  0  0  0
   36.5990   27.8230   42.5320 C   0  0  0  0  0  0  0  0  0  0  0  0
   37.3610   27.6590   43.6050 C   0  0  0  0  0  0  0  0  0  0  0  0
   38.7190   27.6140   43.4020 C   0  0  0  0  0  0  0  0  0  0  0  0
   38.8600   27.8220   41.5660 S   0  0  0  0  0  0  0  0  0  0  0  0
   35.5710   27.8140   42.8420 H   0  0  0  0  0  0  0  0  0  0  0  0
   37.2780   27.5410   44.6540 H   0  0  0  0  0  0  0  0  0  0  0  0
   39.7190   27.5100   43.8740 H   0  0  0  0  0  0  0  0  0  0  0  0
   36.8110   30.6230   40.1970 C   0  0  2  0  0  3  0  0  0  0  0  0
   35.9890   30.9950   41.1720 O   0  0  0  0  0  1  0  0  0  0  0  0
   39.7160   30.2450   39.3690 F   0  0  0  0  0  0  0  0  0  0  0  0
   39.2930   31.4810   39.6640 C   0  0  0  0  0  0  0  0  0  0  0  0
   37.9680   31.5360   39.9790 C   0  0  0  0  0  0  0  0  0  0  0  0
   37.5970   32.8880   40.1950 C   0  0  0  0  0  0  0  0  0  0  0  0
   36.5630   33.1810   40.4600 H   0  0  0  0  0  0  0  0  0  0  0  0
   38.3990   34.0110   40.1180 C   0  0  0  0  0  0  0  0  0  0  0  0
   38.0560   35.0180   40.2940 H   0  0  0  0  0  0  0  0  0  0  0  0
   39.7130   33.7790   39.7920 C   0  0  0  0  0  3  0  0  0  0  0  0
   40.1790   32.5100   39.5590 C   0  0  0  0  0  3  0  0  0  0  0  0
  1  2  1  0  0  0  0
  2  3  2  0  0  0  0
  2 17  1  0  0  0  0
  3  9  1  0  0  0  0
  4  3  1  0  0  0  0
  5  4  2  0  0  0  0
  6  5  1  0  0  0  0
  6  1  2  0  0  0  0
  7  1  1  0  0  0  0
  8  5  1  0  0  0  0
  9 13  1  0  0  0  0
  9 10  2  0  0  0  0
 10 14  1  0  0  0  0
 10 11  1  0  0  0  0
 11 15  1  0  0  0  0
 12 11  2  0  0  0  0
 12 16  1  0  0  0  0
 13 12  1  0  0  0  0
 17 18  1  6  0  0  0
 19 20  1  0  0  0  0
 20 21  1  0  0  0  0
 21 22  2  0  0  0  0
 21 17  1  0  0  0  0
 22 23  1  0  0  0  0
 24 22  1  0  0  0  0
 24 25  1  0  0  0  0
 26 24  2  0  0  0  0
 27 20  2  0  0  0  0
 27 26  1  0  0  0  0
M  END
>  <minimizedAffinity>
-5.07438755

$$$$

 OpenBabel03252503103D

 27 29  0  0  1  0  0  0  0  0999 V2000
   39.5590   27.6040   43.4410 C   0  0  0  0  0  0  0  0  0  0  0  0
   38.5820   26.9800   42.6230 C   0  0  0  0  0  0  0  0  0  0  0  0
   38.9560   25.7630   42.0970 C   0  0  0  0  0  0  0  0  0  0  0  0
   40.1560   25.1930   42.3350 N   0  0  0  0  0  0  0  0  0  0  0  0
   41.0700   25.8310   43.1330 C   0  0  0  0  0  0  0  0  0  0  0  0
   40.7610   27.0350   43.6800 N   0  0  0  0  0  0  0  0  0  0  0  0
   39.4160   28.5610   43.9240 H   0  0  0  0  0  0  0  0  0  0  0  0
   42.0140   25.3340   43.2930 H   0  0  0  0  0  0  0  0  0  0  0  0
   38.0470   25.0860   41.2860 C   0  0  0  0  0  0  0  0  0  0  0  0
   36.8890   24.3840   41.5160 C   0  0  0  0  0  0  0  0  0  0  0  0
   36.1960   23.7910   40.5540 C   0  0  0  0  0  0  0  0  0  0  0  0
   36.6850   23.9050   39.2740 C   0  0  0  0  0  0  0  0  0  0  0  0
   38.2160   24.9200   39.5160 S   0  0  0  0  0  0  0  0  0  0  0  0
   36.3760   24.2310   42.4470 H   0  0  0  0  0  0  0  0  0  0  0  0
   35.3210   23.2110   40.4180 H   0  0  0  0  0  0  0  0  0  0  0  0
   36.5390   23.6420   38.2060 H   0  0  0  0  0  0  0  0  0  0  0  0
   37.3490   27.6380   42.4590 C   0  0  2  0  0  3  0  0  0  0  0  0
   36.4720   27.3760   43.4220 O   0  0  0  0  0  1  0  0  0  0  0  0
   35.8490   27.2600   39.8370 F   0  0  0  0  0  0  0  0  0  0  0  0
   36.2210   28.4980   40.1840 C   0  0  0  0  0  0  0  0  0  0  0  0
   36.8460   28.5530   41.3950 C   0  0  0  0  0  0  0  0  0  0  0  0
   37.1270   29.9060   41.7120 C   0  0  0  0  0  0  0  0  0  0  0  0
   37.6300   30.1990   42.6540 H   0  0  0  0  0  0  0  0  0  0  0  0
   36.8440   31.0310   40.9610 C   0  0  0  0  0  0  0  0  0  0  0  0
   37.0850   32.0390   41.2580 H   0  0  0  0  0  0  0  0  0  0  0  0
   36.2140   30.7990   39.7630 C   0  0  0  0  0  3  0  0  0  0  0  0
   35.8920   29.5290   39.3570 C   0  0  0  0  0  3  0  0  0  0  0  0
  1  6  1  0  0  0  0
  1  7  1  0  0  0  0
  2  1  2  0  0  0  0
  3  4  2  0  0  0  0
  3  2  1  0  0  0  0
  4  5  1  0  0  0  0
  5  8  1  0  0  0  0
  5  6  2  0  0  0  0
  9 10  2  0  0  0  0
  9  3  1  0  0  0  0
 10 14  1  0  0  0  0
 11 10  1  0  0  0  0
 12 13  1  0  0  0  0
 12 11  2  0  0  0  0
 13  9  1  0  0  0  0
 15 11  1  0  0  0  0
 16 12  1  0  0  0  0
 17  2  1  0  0  0  0
 17 18  1  6  0  0  0
 19 20  1  0  0  0  0
 20 21  1  0  0  0  0
 21 22  2  0  0  0  0
 21 17  1  0  0  0  0
 22 23  1  0  0  0  0
 24 25  1  0  0  0  0
 24 22  1  0  0  0  0
 26 24  2  0  0  0  0
 27 26  1  0  0  0  0
 27 20  2  0  0  0  0
M  END
>  <minimizedAffinity>
-5.0612402

$$$$

 OpenBabel03252503103D

 27 29  0  0  1  0  0  0  0  0999 V2000
   37.7660   33.1510   39.9650 C   0  0  0  0  0  0  0  0  0  0  0  0
   37.7920   31.8160   40.4420 C   0  0  0  0  0  0  0  0  0  0  0  0
   38.9970   31.4120   40.9740 C   0  0  0  0  0  0  0  0  0  0  0  0
   40.0790   32.2150   41.0440 N   0  0  0  0  0  0  0  0  0  0  0  0
   40.0080   33.5010   40.5710 C   0  0  0  0  0  0  0  0  0  0  0  0
   38.8490   33.9570   40.0340 N   0  0  0  0  0  0  0  0  0  0  0  0
   36.8960   33.6140   39.5190 H   0  0  0  0  0  0  0  0  0  0  0  0
   40.9000   34.1020   40.6510 H   0  0  0  0  0  0  0  0  0  0  0  0
   39.0990   30.1130   41.4680 C   0  0  0  0  0  0  0  0  0  0  0  0
   38.9060   29.5340   42.6980 C   0  0  0  0  0  0  0  0  0  0  0  0
   39.0980   28.2430   42.9320 C   0  0  0  0  0  0  0  0  0  0  0  0
   39.5080   27.4740   41.8690 C   0  0  0  0  0  0  0  0  0  0  0  0
   39.6100   28.7090   40.4920 S   0  0  0  0  0  0  0  0  0  0  0  0
   38.5670   29.9960   43.6070 H   0  0  0  0  0  0  0  0  0  0  0  0
   39.0390   27.5390   43.7200 H   0  0  0  0  0  0  0  0  0  0  0  0
   39.7920   26.4580   41.5230 H   0  0  0  0  0  0  0  0  0  0  0  0
   36.6040   31.0660   40.3530 C   0  0  2  0  0  3  0  0  0  0  0  0
   35.8310   31.1610   41.4290 O   0  0  0  0  0  1  0  0  0  0  0  0
   34.3320   29.0470   40.1800 F   0  0  0  0  0  0  0  0  0  0  0  0
   35.1170   29.2150   39.1090 C   0  0  0  0  0  0  0  0  0  0  0  0
   36.0710   30.1730   39.2850 C   0  0  0  0  0  0  0  0  0  0  0  0
   36.7960   30.3360   38.0780 C   0  0  0  0  0  0  0  0  0  0  0  0
   37.6220   31.0660   37.9790 H   0  0  0  0  0  0  0  0  0  0  0  0
   36.6170   29.6650   36.8820 C   0  0  0  0  0  0  0  0  0  0  0  0
   37.2040   29.8340   35.9940 H   0  0  0  0  0  0  0  0  0  0  0  0
   35.6130   28.7280   36.8750 C   0  0  0  0  0  3  0  0  0  0  0  0
   34.8470   28.4900   37.9880 C   0  0  0  0  0  3  0  0  0  0  0  0
  1  6  2  0  0  0  0
  1  2  1  0  0  0  0
  2  3  2  0  0  0  0
  3  4  1  0  0  0  0
  3  9  1  0  0  0  0
  5  8  1  0  0  0  0
  5  4  2  0  0  0  0
  6  5  1  0  0  0  0
  7  1  1  0  0  0  0
  9 10  2  0  0  0  0
 10 11  1  0  0  0  0
 10 14  1  0  0  0  0
 11 15  1  0  0  0  0
 12 11  2  0  0  0  0
 13  9  1  0  0  0  0
 13 12  1  0  0  0  0
 16 12  1  0  0  0  0
 17  2  1  0  0  0  0
 17 18  1  1  0  0  0
 20 21  1  0  0  0  0
 20 19  1  0  0  0  0
 21 17  1  0  0  0  0
 22 21  2  0  0  0  0
 23 22  1  0  0  0  0
 24 22  1  0  0  0  0
 25 24  1  0  0  0  0
 26 24  2  0  0  0  0
 26 27  1  0  0  0  0
 27 20  2  0  0  0  0
M  END
>  <minimizedAffinity>
-5.01296711

$$$$

 OpenBabel03252503103D

 27 29  0  0  1  0  0  0  0  0999 V2000
   39.6820   31.4360   39.6610 C   0  0  0  0  0  0  0  0  0  0  0  0
   38.7560   30.6210   40.3610 C   0  0  0  0  0  0  0  0  0  0  0  0
   39.3220   29.7120   41.2280 C   0  0  0  0  0  0  0  0  0  0  0  0
   40.6540   29.5960   41.4100 N   0  0  0  0  0  0  0  0  0  0  0  0
   41.5130   30.4060   40.7120 C   0  0  0  0  0  0  0  0  0  0  0  0
   41.0170   31.3210   39.8410 N   0  0  0  0  0  0  0  0  0  0  0  0
   39.3950   32.1950   38.9450 H   0  0  0  0  0  0  0  0  0  0  0  0
   42.5680   30.2740   40.8940 H   0  0  0  0  0  0  0  0  0  0  0  0
   38.4760   28.8780   41.9560 C   0  0  0  0  0  0  0  0  0  0  0  0
   37.8530   28.9690   43.1770 C   0  0  0  0  0  0  0  0  0  0  0  0
   37.0960   28.0030   43.6790 C   0  0  0  0  0  0  0  0  0  0  0  0
   36.9450   26.8700   42.9160 C   0  0  0  0  0  0  0  0  0  0  0  0
   37.9590   27.2580   41.4140 S   0  0  0  0  0  0  0  0  0  0  0  0
   37.8570   29.7900   43.8680 H   0  0  0  0  0  0  0  0  0  0  0  0
   36.5170   27.7840   44.5380 H   0  0  0  0  0  0  0  0  0  0  0  0
   36.4840   25.8630   42.8420 H   0  0  0  0  0  0  0  0  0  0  0  0
   37.3850   30.8380   40.1270 C   0  0  2  0  0  3  0  0  0  0  0  0
   36.9040   31.9150   40.7370 O   0  0  0  0  0  1  0  0  0  0  0  0
   34.9410   29.1630   40.8230 F   0  0  0  0  0  0  0  0  0  0  0  0
   35.2990   29.2620   39.5380 C   0  0  0  0  0  0  0  0  0  0  0  0
   36.3790   30.0700   39.3390 C   0  0  0  0  0  0  0  0  0  0  0  0
   36.6320   30.1770   37.9480 C   0  0  0  0  0  0  0  0  0  0  0  0
   37.4620   30.7890   37.5450 H   0  0  0  0  0  0  0  0  0  0  0  0
   35.9370   29.5850   36.9110 C   0  0  0  0  0  0  0  0  0  0  0  0
   36.1790   29.7050   35.8680 H   0  0  0  0  0  0  0  0  0  0  0  0
   34.8750   28.7970   37.2840 C   0  0  0  0  0  3  0  0  0  0  0  0
   34.5400   28.6250   38.6030 C   0  0  0  0  0  3  0  0  0  0  0  0
  1  6  2  0  0  0  0
  1  2  1  0  0  0  0
  2  3  2  0  0  0  0
  3  4  1  0  0  0  0
  3  9  1  0  0  0  0
  5  8  1  0  0  0  0
  5  4  2  0  0  0  0
  6  5  1  0  0  0  0
  7  1  1  0  0  0  0
  9 10  2  0  0  0  0
 10 11  1  0  0  0  0
 10 14  1  0  0  0  0
 11 15  1  0  0  0  0
 12 11  2  0  0  0  0
 13  9  1  0  0  0  0
 13 12  1  0  0  0  0
 16 12  1  0  0  0  0
 17  2  1  0  0  0  0
 17 18  1  1  0  0  0
 20 19  1  0  0  0  0
 21 20  1  0  0  0  0
 21 17  1  0  0  0  0
 22 21  2  0  0  0  0
 23 22  1  0  0  0  0
 24 26  2  0  0  0  0
 24 22  1  0  0  0  0
 25 24  1  0  0  0  0
 26 27  1  0  0  0  0
 27 20  2  0  0  0  0
M  END
>  <minimizedAffinity>
-4.92905855

$$$$
