
 OpenBabel03252508493D

 28 30  0  0  0  0  0  0  0  0999 V2000
   45.8860   34.2110   41.0580 C   0  0  0  0  0  0  0  0  0  0  0  0
   46.4920   34.8000   42.1610 C   0  0  0  0  0  0  0  0  0  0  0  0
   47.8520   35.1280   42.0250 C   0  0  0  0  0  0  0  0  0  0  0  0
   48.4780   34.8490   40.8380 N   0  0  0  0  0  0  0  0  0  0  0  0
   47.8440   34.2830   39.8180 C   0  0  0  0  0  0  0  0  0  0  0  0
   46.5440   33.9590   39.9150 N   0  0  0  0  0  0  0  0  0  0  0  0
   48.3380   35.5900   42.8840 H   0  0  0  0  0  0  0  0  0  0  0  0
   48.3460   34.0680   38.8830 H   0  0  0  0  0  0  0  0  0  0  0  0
   45.7320   35.0480   43.3660 C   0  0  0  0  0  0  0  0  0  0  0  0
   45.0990   36.2560   43.6230 C   0  0  0  0  0  0  0  0  0  0  0  0
   44.5100   36.0550   44.8520 C   0  0  0  0  0  0  0  0  0  0  0  0
   44.7670   34.8040   45.3170 N   0  0  0  0  0  0  0  0  0  0  0  0
   45.5070   34.2230   44.3970 N   0  0  0  0  0  0  0  0  0  0  0  0
   45.0250   37.1910   43.0590 H   0  0  0  0  0  0  0  0  0  0  0  0
   43.8990   36.7300   45.4650 H   0  0  0  0  0  0  0  0  0  0  0  0
   44.5120   34.2880   46.1690 H   0  0  0  0  0  0  0  0  0  0  0  0
   44.5510   33.8740   41.1550 O   0  0  0  0  0  0  0  0  0  0  0  0
   43.4770   34.6100   40.7430 C   0  0  0  0  0  0  0  0  0  0  0  0
   43.3310   35.8830   40.8110 O   0  0  0  0  0  0  0  0  0  0  0  0
   42.7540   34.9450   38.0160 F   0  0  0  0  0  0  0  0  0  0  0  0
   41.9250   34.1840   38.7840 C   0  0  0  0  0  0  0  0  0  0  0  0
   42.2620   34.0050   40.1290 C   0  0  0  0  0  0  0  0  0  0  0  0
   41.3560   33.2210   40.8020 C   0  0  0  0  0  0  0  0  0  0  0  0
   41.5280   33.0250   41.8490 H   0  0  0  0  0  0  0  0  0  0  0  0
   40.2350   32.6650   40.2330 C   0  0  0  0  0  0  0  0  0  0  0  0
   39.5660   32.0580   40.8270 H   0  0  0  0  0  0  0  0  0  0  0  0
   39.9840   32.8920   38.9140 C   0  0  0  0  0  3  0  0  0  0  0  0
   40.8230   33.6570   38.1560 C   0  0  0  0  0  3  0  0  0  0  0  0
  1 17  1  0  0  0  0
  1  2  1  0  0  0  0
  2  9  1  0  0  0  0
  3  2  2  0  0  0  0
  3  7  1  0  0  0  0
  4  3  1  0  0  0  0
  5  6  1  0  0  0  0
  5  4  2  0  0  0  0
  6  1  2  0  0  0  0
  8  5  1  0  0  0  0
  9 10  1  0  0  0  0
  9 13  2  0  0  0  0
 10 11  2  0  0  0  0
 11 12  1  0  0  0  0
 11 15  1  0  0  0  0
 12 16  1  0  0  0  0
 13 12  1  0  0  0  0
 14 10  1  0  0  0  0
 18 19  2  0  0  0  0
 18 17  1  0  0  0  0
 20 21  1  0  0  0  0
 21 22  1  0  0  0  0
 22 18  1  0  0  0  0
 22 23  2  0  0  0  0
 23 24  1  0  0  0  0
 25 23  1  0  0  0  0
 25 26  1  0  0  0  0
 27 25  2  0  0  0  0
 28 21  2  0  0  0  0
 28 27  1  0  0  0  0
M  END
>  <minimizedAffinity>
-5.50763845

>  <minimizedRMSD>
0.861888587

$$$$
