
 OpenBabel03252501123D

 20 21  0  0  0  0  0  0  0  0999 V2000
   37.0240   27.6490   42.7690 C   0  0  0  0  0  0  0  0  0  0  0  0
   36.1650   27.4230   43.6800 O   0  0  0  0  0  0  0  0  0  0  0  0
   35.7820   30.0070   40.1950 C   0  0  0  0  0  0  0  0  0  0  0  0
   35.8560   28.8920   41.0330 C   0  0  0  0  0  0  0  0  0  0  0  0
   36.9450   28.7970   41.9050 C   0  0  0  0  0  0  0  0  0  0  0  0
   37.8740   29.8060   41.8820 N   0  0  0  0  0  0  0  0  0  0  0  0
   37.7570   30.8580   41.0570 C   0  0  0  0  0  0  0  0  0  0  0  0
   36.7080   30.9640   40.2070 N   0  0  0  0  0  0  0  0  0  0  0  0
   34.9570   30.1230   39.5040 H   0  0  0  0  0  0  0  0  0  0  0  0
   35.0650   28.1540   40.9660 H   0  0  0  0  0  0  0  0  0  0  0  0
   38.5320   31.6120   41.1000 H   0  0  0  0  0  0  0  0  0  0  0  0
   36.7530   25.1460   41.4390 F   0  0  0  0  0  0  0  0  0  0  0  0
   37.8880   25.3630   42.1660 C   0  0  0  0  0  0  0  0  0  0  0  0
   38.0060   26.5790   42.8040 C   0  0  0  0  0  0  0  0  0  0  0  0
   39.1300   26.8770   43.5630 C   0  0  0  0  0  0  0  0  0  0  0  0
   39.3130   27.8080   44.1030 H   0  0  0  0  0  0  0  0  0  0  0  0
   40.1440   25.9430   43.6800 C   0  0  0  0  0  0  0  0  0  0  0  0
   41.0530   26.0890   44.2480 H   0  0  0  0  0  0  0  0  0  0  0  0
   39.9790   24.7340   43.0180 C   0  0  0  0  0  3  0  0  0  0  0  0
   38.8940   24.4130   42.2700 C   0  0  0  0  0  3  0  0  0  0  0  0
  1 14  1  0  0  0  0
  1  2  2  0  0  0  0
  3  8  2  0  0  0  0
  3  4  1  0  0  0  0
  4  5  2  0  0  0  0
  5  1  1  0  0  0  0
  6  5  1  0  0  0  0
  7 11  1  0  0  0  0
  7  6  2  0  0  0  0
  8  7  1  0  0  0  0
  9  3  1  0  0  0  0
 10  4  1  0  0  0  0
 12 13  1  0  0  0  0
 13 20  2  0  0  0  0
 13 14  1  0  0  0  0
 14 15  2  0  0  0  0
 15 17  1  0  0  0  0
 15 16  1  0  0  0  0
 17 18  1  0  0  0  0
 19 17  2  0  0  0  0
 20 19  1  0  0  0  0
M  END
>  <minimizedAffinity>
-4.92608929

$$$$

 OpenBabel03252501123D

 20 21  0  0  0  0  0  0  0  0999 V2000
   36.9800   27.5650   42.7200 C   0  0  0  0  0  0  0  0  0  0  0  0
   36.1610   27.3580   43.6710 O   0  0  0  0  0  0  0  0  0  0  0  0
   35.7460   30.0250   40.2400 C   0  0  0  0  0  0  0  0  0  0  0  0
   35.8070   28.8860   41.0470 C   0  0  0  0  0  0  0  0  0  0  0  0
   36.9140   28.7370   41.8880 C   0  0  0  0  0  0  0  0  0  0  0  0
   37.8730   29.7170   41.8670 N   0  0  0  0  0  0  0  0  0  0  0  0
   37.7670   30.7940   41.0720 C   0  0  0  0  0  0  0  0  0  0  0  0
   36.7010   30.9530   40.2530 N   0  0  0  0  0  0  0  0  0  0  0  0
   34.9080   30.1840   39.5730 H   0  0  0  0  0  0  0  0  0  0  0  0
   34.9930   28.1750   40.9810 H   0  0  0  0  0  0  0  0  0  0  0  0
   38.5660   31.5230   41.1150 H   0  0  0  0  0  0  0  0  0  0  0  0
   39.6600   27.6330   43.6790 F   0  0  0  0  0  0  0  0  0  0  0  0
   39.2060   26.4650   43.1370 C   0  0  0  0  0  0  0  0  0  0  0  0
   37.9060   26.4460   42.6770 C   0  0  0  0  0  0  0  0  0  0  0  0
   37.3690   25.2970   42.1120 C   0  0  0  0  0  0  0  0  0  0  0  0
   36.3560   25.1850   41.7210 H   0  0  0  0  0  0  0  0  0  0  0  0
   38.1470   24.1570   42.0100 C   0  0  0  0  0  0  0  0  0  0  0  0
   37.8120   23.2200   41.5850 H   0  0  0  0  0  0  0  0  0  0  0  0
   39.4480   24.2260   42.4880 C   0  0  0  0  0  3  0  0  0  0  0  0
   40.0010   25.3320   43.0440 C   0  0  0  0  0  3  0  0  0  0  0  0
  1  2  2  0  0  0  0
  3  8  2  0  0  0  0
  3  4  1  0  0  0  0
  4  5  2  0  0  0  0
  5  1  1  0  0  0  0
  6  5  1  0  0  0  0
  7 11  1  0  0  0  0
  7  6  2  0  0  0  0
  8  7  1  0  0  0  0
  9  3  1  0  0  0  0
 10  4  1  0  0  0  0
 13 12  1  0  0  0  0
 14  1  1  0  0  0  0
 14 13  2  0  0  0  0
 15 14  1  0  0  0  0
 16 15  1  0  0  0  0
 17 15  2  0  0  0  0
 17 19  1  0  0  0  0
 18 17  1  0  0  0  0
 19 20  2  0  0  0  0
 20 13  1  0  0  0  0
M  END
>  <minimizedAffinity>
-4.81096792

$$$$

 OpenBabel03252501123D

 20 21  0  0  0  0  0  0  0  0999 V2000
   37.1540   27.5340   42.7650 C   0  0  0  0  0  0  0  0  0  0  0  0
   36.1980   27.4310   43.5980 O   0  0  0  0  0  0  0  0  0  0  0  0
   40.3550   25.8970   43.6570 C   0  0  0  0  0  0  0  0  0  0  0  0
   39.2830   26.7920   43.6800 C   0  0  0  0  0  0  0  0  0  0  0  0
   38.2600   26.6140   42.7430 C   0  0  0  0  0  0  0  0  0  0  0  0
   38.3740   25.5730   41.8580 N   0  0  0  0  0  0  0  0  0  0  0  0
   39.4270   24.7390   41.8780 C   0  0  0  0  0  0  0  0  0  0  0  0
   40.4250   24.8980   42.7790 N   0  0  0  0  0  0  0  0  0  0  0  0
   41.1700   25.9950   44.3630 H   0  0  0  0  0  0  0  0  0  0  0  0
   39.2960   27.5800   44.4240 H   0  0  0  0  0  0  0  0  0  0  0  0
   39.4420   23.9420   41.1460 H   0  0  0  0  0  0  0  0  0  0  0  0
   38.6310   29.9680   42.8310 F   0  0  0  0  0  0  0  0  0  0  0  0
   37.5970   29.8730   41.9450 C   0  0  0  0  0  0  0  0  0  0  0  0
   36.8900   28.6890   41.9230 C   0  0  0  0  0  0  0  0  0  0  0  0
   35.8240   28.5130   41.0510 C   0  0  0  0  0  0  0  0  0  0  0  0
   35.2080   27.6170   40.9620 H   0  0  0  0  0  0  0  0  0  0  0  0
   35.4660   29.5370   40.1920 C   0  0  0  0  0  0  0  0  0  0  0  0
   34.6520   29.4890   39.4820 H   0  0  0  0  0  0  0  0  0  0  0  0
   36.2080   30.7090   40.2510 C   0  0  0  0  0  3  0  0  0  0  0  0
   37.2540   30.9120   41.0910 C   0  0  0  0  0  3  0  0  0  0  0  0
  1  2  2  0  0  0  0
  3  4  1  0  0  0  0
  3  9  1  0  0  0  0
  4 10  1  0  0  0  0
  5  1  1  0  0  0  0
  5  4  2  0  0  0  0
  6  7  2  0  0  0  0
  6  5  1  0  0  0  0
  7  8  1  0  0  0  0
  8  3  2  0  0  0  0
 11  7  1  0  0  0  0
 13 12  1  0  0  0  0
 14 13  1  0  0  0  0
 14  1  1  0  0  0  0
 15 14  2  0  0  0  0
 16 15  1  0  0  0  0
 17 19  2  0  0  0  0
 17 15  1  0  0  0  0
 18 17  1  0  0  0  0
 19 20  1  0  0  0  0
 20 13  2  0  0  0  0
M  END
>  <minimizedAffinity>
-4.73148012

$$$$

 OpenBabel03252501123D

 20 21  0  0  0  0  0  0  0  0999 V2000
   36.0240   29.3850   40.3940 C   0  0  0  0  0  0  0  0  0  0  0  0
   34.7720   29.2730   40.1970 O   0  0  0  0  0  0  0  0  0  0  0  0
   37.4230   26.6900   42.5170 C   0  0  0  0  0  0  0  0  0  0  0  0
   36.7720   27.3290   41.4590 C   0  0  0  0  0  0  0  0  0  0  0  0
   36.6940   28.7240   41.4830 C   0  0  0  0  0  0  0  0  0  0  0  0
   37.2600   29.3800   42.5460 N   0  0  0  0  0  0  0  0  0  0  0  0
   37.8760   28.7190   43.5390 C   0  0  0  0  0  0  0  0  0  0  0  0
   37.9600   27.3680   43.5300 N   0  0  0  0  0  0  0  0  0  0  0  0
   37.5090   25.6110   42.5420 H   0  0  0  0  0  0  0  0  0  0  0  0
   36.3600   26.7100   40.6710 H   0  0  0  0  0  0  0  0  0  0  0  0
   38.2970   29.3110   44.3420 H   0  0  0  0  0  0  0  0  0  0  0  0
   36.8100   32.0930   40.7880 F   0  0  0  0  0  0  0  0  0  0  0  0
   36.9480   31.5640   39.5380 C   0  0  0  0  0  0  0  0  0  0  0  0
   36.5640   30.2520   39.3600 C   0  0  0  0  0  0  0  0  0  0  0  0
   36.6730   29.6410   38.1190 C   0  0  0  0  0  0  0  0  0  0  0  0
   36.3960   28.6120   37.8820 H   0  0  0  0  0  0  0  0  0  0  0  0
   37.1740   30.3560   37.0450 C   0  0  0  0  0  0  0  0  0  0  0  0
   37.2940   29.9620   36.0450 H   0  0  0  0  0  0  0  0  0  0  0  0
   37.5470   31.6730   37.2740 C   0  0  0  0  0  3  0  0  0  0  0  0
   37.4530   32.2980   38.4740 C   0  0  0  0  0  3  0  0  0  0  0  0
  1  5  1  0  0  0  0
  2  1  2  0  0  0  0
  3  9  1  0  0  0  0
  3  8  1  0  0  0  0
  4  5  1  0  0  0  0
  4  3  2  0  0  0  0
  5  6  2  0  0  0  0
  6  7  1  0  0  0  0
  7 11  1  0  0  0  0
  8  7  2  0  0  0  0
 10  4  1  0  0  0  0
 13 12  1  0  0  0  0
 14 13  1  0  0  0  0
 14  1  1  0  0  0  0
 15 14  2  0  0  0  0
 16 15  1  0  0  0  0
 17 19  2  0  0  0  0
 17 15  1  0  0  0  0
 18 17  1  0  0  0  0
 19 20  1  0  0  0  0
 20 13  2  0  0  0  0
M  END
>  <minimizedAffinity>
-4.67353439

$$$$

 OpenBabel03252501123D

 20 21  0  0  0  0  0  0  0  0999 V2000
   38.0800   29.8910   40.3470 C   0  0  0  0  0  0  0  0  0  0  0  0
   38.2350   29.1550   39.3220 O   0  0  0  0  0  0  0  0  0  0  0  0
   37.1730   33.3660   39.4390 C   0  0  0  0  0  0  0  0  0  0  0  0
   37.1390   31.9720   39.5060 C   0  0  0  0  0  0  0  0  0  0  0  0
   38.1130   31.3280   40.2760 C   0  0  0  0  0  0  0  0  0  0  0  0
   39.0430   32.1070   40.9150 N   0  0  0  0  0  0  0  0  0  0  0  0
   39.0320   33.4460   40.8190 C   0  0  0  0  0  0  0  0  0  0  0  0
   38.0950   34.0840   40.0770 N   0  0  0  0  0  0  0  0  0  0  0  0
   36.4390   33.9080   38.8560 H   0  0  0  0  0  0  0  0  0  0  0  0
   36.3580   31.4570   38.9590 H   0  0  0  0  0  0  0  0  0  0  0  0
   39.8010   33.9880   41.3540 H   0  0  0  0  0  0  0  0  0  0  0  0
   35.5700   28.8270   41.1680 F   0  0  0  0  0  0  0  0  0  0  0  0
   36.6720   28.5010   41.9040 C   0  0  0  0  0  0  0  0  0  0  0  0
   37.8810   29.0230   41.4960 C   0  0  0  0  0  0  0  0  0  0  0  0
   39.0490   28.7400   42.1900 C   0  0  0  0  0  0  0  0  0  0  0  0
   40.0480   29.1040   41.9450 H   0  0  0  0  0  0  0  0  0  0  0  0
   39.0000   27.9230   43.3070 C   0  0  0  0  0  0  0  0  0  0  0  0
   39.8570   27.6490   43.9070 H   0  0  0  0  0  0  0  0  0  0  0  0
   37.7600   27.4220   43.6780 C   0  0  0  0  0  3  0  0  0  0  0  0
   36.6020   27.6800   43.0200 C   0  0  0  0  0  3  0  0  0  0  0  0
  1 14  1  0  0  0  0
  2  1  2  0  0  0  0
  3  4  2  0  0  0  0
  3  8  1  0  0  0  0
  4  5  1  0  0  0  0
  5  1  1  0  0  0  0
  5  6  2  0  0  0  0
  7  6  1  0  0  0  0
  7 11  1  0  0  0  0
  8  7  2  0  0  0  0
  9  3  1  0  0  0  0
 10  4  1  0  0  0  0
 12 13  1  0  0  0  0
 13 20  1  0  0  0  0
 14 13  2  0  0  0  0
 14 15  1  0  0  0  0
 15 17  2  0  0  0  0
 16 15  1  0  0  0  0
 17 19  1  0  0  0  0
 17 18  1  0  0  0  0
 20 19  2  0  0  0  0
M  END
>  <minimizedAffinity>
-4.63729477

$$$$

 OpenBabel03252501123D

 20 21  0  0  0  0  0  0  0  0999 V2000
   37.3060   30.7480   41.0870 C   0  0  0  0  0  0  0  0  0  0  0  0
   36.0770   31.0720   41.0990 O   0  0  0  0  0  0  0  0  0  0  0  0
   39.1940   33.7140   39.9180 C   0  0  0  0  0  0  0  0  0  0  0  0
   38.2210   32.9390   40.5530 C   0  0  0  0  0  0  0  0  0  0  0  0
   38.3070   31.5490   40.4330 C   0  0  0  0  0  0  0  0  0  0  0  0
   39.3420   31.0320   39.6960 N   0  0  0  0  0  0  0  0  0  0  0  0
   40.2530   31.8200   39.1030 C   0  0  0  0  0  0  0  0  0  0  0  0
   40.1830   33.1680   39.2110 N   0  0  0  0  0  0  0  0  0  0  0  0
   39.1690   34.7940   39.9830 H   0  0  0  0  0  0  0  0  0  0  0  0
   37.4480   33.4550   41.1100 H   0  0  0  0  0  0  0  0  0  0  0  0
   41.0380   31.3340   38.5390 H   0  0  0  0  0  0  0  0  0  0  0  0
   39.0730   30.3400   43.2830 F   0  0  0  0  0  0  0  0  0  0  0  0
   38.2990   29.2890   42.8830 C   0  0  0  0  0  0  0  0  0  0  0  0
   37.4480   29.5010   41.8190 C   0  0  0  0  0  0  0  0  0  0  0  0
   36.6270   28.4830   41.3520 C   0  0  0  0  0  0  0  0  0  0  0  0
   35.9250   28.5540   40.5200 H   0  0  0  0  0  0  0  0  0  0  0  0
   36.6630   27.2410   41.9610 C   0  0  0  0  0  0  0  0  0  0  0  0
   36.0610   26.3930   41.6640 H   0  0  0  0  0  0  0  0  0  0  0  0
   37.5350   27.0770   43.0280 C   0  0  0  0  0  3  0  0  0  0  0  0
   38.3490   28.0510   43.5080 C   0  0  0  0  0  3  0  0  0  0  0  0
  1  2  2  0  0  0  0
  1 14  1  0  0  0  0
  3  9  1  0  0  0  0
  3  4  1  0  0  0  0
  4 10  1  0  0  0  0
  5  4  2  0  0  0  0
  5  1  1  0  0  0  0
  6  5  1  0  0  0  0
  7  8  1  0  0  0  0
  7  6  2  0  0  0  0
  8  3  2  0  0  0  0
 11  7  1  0  0  0  0
 13 12  1  0  0  0  0
 13 20  1  0  0  0  0
 14 13  2  0  0  0  0
 15 14  1  0  0  0  0
 15 17  2  0  0  0  0
 16 15  1  0  0  0  0
 17 19  1  0  0  0  0
 18 17  1  0  0  0  0
 19 20  2  0  0  0  0
M  END
>  <minimizedAffinity>
-4.59397411

$$$$

 OpenBabel03252501123D

 20 21  0  0  0  0  0  0  0  0999 V2000
   36.4290   29.9780   40.8070 C   0  0  0  0  0  0  0  0  0  0  0  0
   36.1560   31.1960   41.0510 O   0  0  0  0  0  0  0  0  0  0  0  0
   37.2470   27.1910   43.1070 C   0  0  0  0  0  0  0  0  0  0  0  0
   36.5380   27.9920   42.2090 C   0  0  0  0  0  0  0  0  0  0  0  0
   37.1580   29.1520   41.7330 C   0  0  0  0  0  0  0  0  0  0  0  0
   38.4230   29.4320   42.1800 N   0  0  0  0  0  0  0  0  0  0  0  0
   39.0630   28.6290   43.0450 C   0  0  0  0  0  0  0  0  0  0  0  0
   38.4760   27.5020   43.5150 N   0  0  0  0  0  0  0  0  0  0  0  0
   36.8080   26.2840   43.5020 H   0  0  0  0  0  0  0  0  0  0  0  0
   35.5420   27.6740   41.9230 H   0  0  0  0  0  0  0  0  0  0  0  0
   40.0600   28.9200   43.3490 H   0  0  0  0  0  0  0  0  0  0  0  0
   33.8050   28.9780   40.3390 F   0  0  0  0  0  0  0  0  0  0  0  0
   34.6180   29.1660   39.2590 C   0  0  0  0  0  0  0  0  0  0  0  0
   35.8860   29.6510   39.4990 C   0  0  0  0  0  0  0  0  0  0  0  0
   36.7740   29.8700   38.4550 C   0  0  0  0  0  0  0  0  0  0  0  0
   37.7930   30.2490   38.5460 H   0  0  0  0  0  0  0  0  0  0  0  0
   36.3820   29.5990   37.1560 C   0  0  0  0  0  0  0  0  0  0  0  0
   37.0060   29.7380   36.2830 H   0  0  0  0  0  0  0  0  0  0  0  0
   35.0970   29.1130   36.9640 C   0  0  0  0  0  3  0  0  0  0  0  0
   34.2060   28.8880   37.9630 C   0  0  0  0  0  3  0  0  0  0  0  0
  1  2  2  0  0  0  0
  1  5  1  0  0  0  0
  3  9  1  0  0  0  0
  3  8  1  0  0  0  0
  4  3  2  0  0  0  0
  5  6  2  0  0  0  0
  5  4  1  0  0  0  0
  6  7  1  0  0  0  0
  7 11  1  0  0  0  0
  7  8  2  0  0  0  0
 10  4  1  0  0  0  0
 13 14  1  0  0  0  0
 13 12  1  0  0  0  0
 14  1  1  0  0  0  0
 15 16  1  0  0  0  0
 15 14  2  0  0  0  0
 17 15  1  0  0  0  0
 18 17  1  0  0  0  0
 19 17  2  0  0  0  0
 19 20  1  0  0  0  0
 20 13  2  0  0  0  0
M  END
>  <minimizedAffinity>
-4.5673666

$$$$

 OpenBabel03252501123D

 20 21  0  0  0  0  0  0  0  0999 V2000
   35.7240   29.1560   40.2370 C   0  0  0  0  0  0  0  0  0  0  0  0
   34.4800   29.2650   39.9970 O   0  0  0  0  0  0  0  0  0  0  0  0
   37.1870   25.8060   40.8430 C   0  0  0  0  0  0  0  0  0  0  0  0
   36.6490   26.9060   40.1710 C   0  0  0  0  0  0  0  0  0  0  0  0
   36.2780   28.0210   40.9280 C   0  0  0  0  0  0  0  0  0  0  0  0
   36.4650   27.9650   42.2860 N   0  0  0  0  0  0  0  0  0  0  0  0
   36.9870   26.8830   42.8850 C   0  0  0  0  0  0  0  0  0  0  0  0
   37.3510   25.7950   42.1650 N   0  0  0  0  0  0  0  0  0  0  0  0
   37.4890   24.9200   40.2990 H   0  0  0  0  0  0  0  0  0  0  0  0
   36.5460   26.8400   39.0940 H   0  0  0  0  0  0  0  0  0  0  0  0
   37.1020   26.9180   43.9600 H   0  0  0  0  0  0  0  0  0  0  0  0
   36.3610   29.5580   37.4910 F   0  0  0  0  0  0  0  0  0  0  0  0
   36.7030   30.5400   38.3760 C   0  0  0  0  0  0  0  0  0  0  0  0
   36.3890   30.3320   39.7030 C   0  0  0  0  0  0  0  0  0  0  0  0
   36.7030   31.2820   40.6650 C   0  0  0  0  0  0  0  0  0  0  0  0
   36.4960   31.2080   41.7330 H   0  0  0  0  0  0  0  0  0  0  0  0
   37.3390   32.4530   40.2890 C   0  0  0  0  0  0  0  0  0  0  0  0
   37.6200   33.2450   40.9680 H   0  0  0  0  0  0  0  0  0  0  0  0
   37.6340   32.6160   38.9430 C   0  0  0  0  0  3  0  0  0  0  0  0
   37.3400   31.7060   37.9790 C   0  0  0  0  0  3  0  0  0  0  0  0
  1  5  1  0  0  0  0
  2  1  2  0  0  0  0
  3  8  1  0  0  0  0
  4  3  2  0  0  0  0
  4  5  1  0  0  0  0
  5  6  2  0  0  0  0
  6  7  1  0  0  0  0
  7 11  1  0  0  0  0
  8  7  2  0  0  0  0
  9  3  1  0  0  0  0
 10  4  1  0  0  0  0
 12 13  1  0  0  0  0
 13 14  1  0  0  0  0
 14  1  1  0  0  0  0
 14 15  2  0  0  0  0
 15 16  1  0  0  0  0
 17 15  1  0  0  0  0
 17 18  1  0  0  0  0
 19 17  2  0  0  0  0
 20 13  2  0  0  0  0
 20 19  1  0  0  0  0
M  END
>  <minimizedAffinity>
-4.55039263

$$$$

 OpenBabel03252501123D

 20 21  0  0  0  0  0  0  0  0999 V2000
   36.3430   29.9420   40.8630 C   0  0  0  0  0  0  0  0  0  0  0  0
   36.0980   31.1650   41.1130 O   0  0  0  0  0  0  0  0  0  0  0  0
   38.9850   28.5950   43.0850 C   0  0  0  0  0  0  0  0  0  0  0  0
   38.3260   29.4270   42.1760 C   0  0  0  0  0  0  0  0  0  0  0  0
   37.0240   29.0860   41.7980 C   0  0  0  0  0  0  0  0  0  0  0  0
   36.4740   27.9540   42.3420 N   0  0  0  0  0  0  0  0  0  0  0  0
   37.1500   27.1870   43.2130 C   0  0  0  0  0  0  0  0  0  0  0  0
   38.4120   27.5040   43.5880 N   0  0  0  0  0  0  0  0  0  0  0  0
   39.9930   28.8200   43.4060 H   0  0  0  0  0  0  0  0  0  0  0  0
   38.8570   30.2980   41.8090 H   0  0  0  0  0  0  0  0  0  0  0  0
   36.6450   26.3090   43.5970 H   0  0  0  0  0  0  0  0  0  0  0  0
   37.7820   30.3020   38.4320 F   0  0  0  0  0  0  0  0  0  0  0  0
   36.5100   29.8130   38.3540 C   0  0  0  0  0  0  0  0  0  0  0  0
   35.8240   29.6430   39.5390 C   0  0  0  0  0  0  0  0  0  0  0  0
   34.5270   29.1510   39.5450 C   0  0  0  0  0  0  0  0  0  0  0  0
   33.9060   28.9840   40.4270 H   0  0  0  0  0  0  0  0  0  0  0  0
   33.9120   28.8260   38.3480 C   0  0  0  0  0  0  0  0  0  0  0  0
   32.9070   28.4380   38.2580 H   0  0  0  0  0  0  0  0  0  0  0  0
   34.6430   29.0140   37.1830 C   0  0  0  0  0  3  0  0  0  0  0  0
   35.9120   29.4920   37.1440 C   0  0  0  0  0  3  0  0  0  0  0  0
  1  2  2  0  0  0  0
  1  5  1  0  0  0  0
  3  9  1  0  0  0  0
  3  8  1  0  0  0  0
  4  3  2  0  0  0  0
  5  4  1  0  0  0  0
  5  6  2  0  0  0  0
  6  7  1  0  0  0  0
  7  8  2  0  0  0  0
  7 11  1  0  0  0  0
 10  4  1  0  0  0  0
 13 12  1  0  0  0  0
 13 14  1  0  0  0  0
 14 15  2  0  0  0  0
 14  1  1  0  0  0  0
 15 16  1  0  0  0  0
 17 15  1  0  0  0  0
 18 17  1  0  0  0  0
 19 17  2  0  0  0  0
 20 19  1  0  0  0  0
 20 13  2  0  0  0  0
M  END
>  <minimizedAffinity>
-4.51259804

$$$$
