
 OpenBabel03252507453D

 37 39  0  0  0  0  0  0  0  0999 V2000
   47.0540   34.1920   40.9530 C   0  0  0  0  0  0  0  0  0  0  0  0
   46.4870   33.2710   40.7710 H   0  0  0  0  0  0  0  0  0  0  0  0
   47.1560   34.7470   39.9930 H   0  0  0  0  0  0  0  0  0  0  0  0
   48.4260   33.9130   41.4280 C   0  0  0  0  0  0  0  0  0  0  0  0
   48.9760   32.6930   41.0580 C   0  0  0  0  0  0  0  0  0  0  0  0
   50.2670   32.3730   41.4750 C   0  0  0  0  0  0  0  0  0  0  0  0
   50.9360   33.2830   42.2360 N   0  0  0  0  0  0  0  0  0  0  0  0
   50.3640   34.4580   42.5740 C   0  0  0  0  0  0  0  0  0  0  0  0
   49.1380   34.7520   42.1720 N   0  0  0  0  0  0  0  0  0  0  0  0
   50.7310   31.4310   41.2070 H   0  0  0  0  0  0  0  0  0  0  0  0
   50.9960   35.0950   43.1800 H   0  0  0  0  0  0  0  0  0  0  0  0
   48.0320   31.5470   40.0540 S   0  0  0  0  0  0  0  0  0  0  0  0
   50.3950   30.9650   38.4520 F   0  0  0  0  0  0  0  0  0  0  0  0
   49.3720   31.5450   37.7700 C   0  0  0  0  0  0  0  0  0  0  0  0
   48.1520   31.9090   38.3240 C   0  0  0  0  0  0  0  0  0  0  0  0
   47.2020   32.4910   37.5050 C   0  0  0  0  0  0  0  0  0  0  0  0
   46.2860   32.7430   38.0160 H   0  0  0  0  0  0  0  0  0  0  0  0
   47.4830   32.6930   36.1790 C   0  0  0  0  0  0  0  0  0  0  0  0
   46.7230   33.1480   35.5690 H   0  0  0  0  0  0  0  0  0  0  0  0
   48.6930   32.3330   35.6250 C   0  0  0  0  0  3  0  0  0  0  0  0
   49.6520   31.7500   36.4290 C   0  0  0  0  0  3  0  0  0  0  0  0
   46.2600   35.0450   41.8850 C   0  0  0  0  0  0  0  0  0  0  0  0
   46.5640   36.1030   41.7530 H   0  0  0  0  0  0  0  0  0  0  0  0
   46.4630   34.7500   42.9340 H   0  0  0  0  0  0  0  0  0  0  0  0
   44.7840   34.9560   41.6740 C   0  0  0  0  0  0  0  0  0  0  0  0
   43.8970   35.3710   42.7130 C   0  0  0  0  0  0  0  0  0  0  0  0
   42.2370   35.0720   41.9820 S   0  0  0  0  0  0  0  0  0  0  0  0
   43.0360   34.4280   40.3770 C   0  0  0  0  0  0  0  0  0  0  0  0
   44.1520   34.5290   40.6190 N   0  0  0  0  0  0  0  0  0  0  0  0
   44.1670   35.7630   43.6840 H   0  0  0  0  0  0  0  0  0  0  0  0
   42.2940   33.9870   39.2830 O   0  0  0  0  0  0  0  0  0  0  0  0
   40.3530   34.5180   37.5560 O   0  0  0  0  0  0  0  0  0  0  0  0
   41.4610   35.1650   38.3790 P   0  0  0  0  0  0  0  0  0  0  0  0
   40.7670   36.2510   39.4740 O   0  0  0  0  0  0  0  0  0  0  0  0
   39.9530   35.7930   39.8360 H   0  0  0  0  0  0  0  0  0  0  0  0
   42.5350   36.0070   37.3850 O   0  0  0  0  0  0  0  0  0  0  0  0
   42.9900   35.4160   36.7480 H   0  0  0  0  0  0  0  0  0  0  0  0
  1  4  1  0  0  0  0
  1 22  1  0  0  0  0
  2  1  1  0  0  0  0
  3  1  1  0  0  0  0
  4  9  1  0  0  0  0
  5  4  2  0  0  0  0
  5  6  1  0  0  0  0
  6  7  2  0  0  0  0
  7  8  1  0  0  0  0
  8 11  1  0  0  0  0
  9  8  2  0  0  0  0
 10  6  1  0  0  0  0
 12  5  1  0  0  0  0
 14 15  1  0  0  0  0
 14 13  1  0  0  0  0
 15 12  1  0  0  0  0
 16 17  1  0  0  0  0
 16 15  2  0  0  0  0
 18 16  1  0  0  0  0
 19 18  1  0  0  0  0
 20 18  2  0  0  0  0
 20 21  1  0  0  0  0
 21 14  2  0  0  0  0
 22 24  1  0  0  0  0
 23 22  1  0  0  0  0
 25 22  1  0  0  0  0
 25 26  2  0  0  0  0
 26 30  1  0  0  0  0
 27 26  1  0  0  0  0
 28 29  2  0  0  0  0
 28 27  1  0  0  0  0
 29 25  1  0  0  0  0
 31 28  1  0  0  0  0
 32 33  2  0  0  0  0
 33 31  1  0  0  0  0
 33 34  1  0  0  0  0
 34 35  1  0  0  0  0
 36 33  1  0  0  0  0
 37 36  1  0  0  0  0
M  END
>  <minimizedAffinity>
-4.88118458

>  <minimizedRMSD>
0.317382097

$$$$
