
 OpenBabel03252507473D

 37 39  0  0  0  0  0  0  0  0999 V2000
   38.9550   29.5780   42.7540 C   0  0  0  0  0  0  0  0  0  0  0  0
   38.2280   29.8210   43.5380 H   0  0  0  0  0  0  0  0  0  0  0  0
   38.4110   29.4370   41.7920 H   0  0  0  0  0  0  0  0  0  0  0  0
   39.6630   28.3110   43.0290 C   0  0  0  0  0  0  0  0  0  0  0  0
   38.8870   27.1620   43.0810 C   0  0  0  0  0  0  0  0  0  0  0  0
   39.4990   25.9360   43.3370 C   0  0  0  0  0  0  0  0  0  0  0  0
   40.8470   25.9230   43.5260 N   0  0  0  0  0  0  0  0  0  0  0  0
   41.5660   27.0630   43.4660 C   0  0  0  0  0  0  0  0  0  0  0  0
   40.9750   28.2220   43.2230 N   0  0  0  0  0  0  0  0  0  0  0  0
   38.9260   25.0160   43.3860 H   0  0  0  0  0  0  0  0  0  0  0  0
   42.6270   26.9230   43.6330 H   0  0  0  0  0  0  0  0  0  0  0  0
   37.1150   27.2600   42.8220 S   0  0  0  0  0  0  0  0  0  0  0  0
   35.8200   29.4760   41.4460 F   0  0  0  0  0  0  0  0  0  0  0  0
   36.0750   28.3920   40.6660 C   0  0  0  0  0  0  0  0  0  0  0  0
   36.6830   27.2240   41.1040 C   0  0  0  0  0  0  0  0  0  0  0  0
   36.8800   26.2010   40.1960 C   0  0  0  0  0  0  0  0  0  0  0  0
   37.3570   25.3310   40.6190 H   0  0  0  0  0  0  0  0  0  0  0  0
   36.4740   26.3600   38.8970 C   0  0  0  0  0  0  0  0  0  0  0  0
   36.6400   25.5470   38.2140 H   0  0  0  0  0  0  0  0  0  0  0  0
   35.8690   27.5210   38.4580 C   0  0  0  0  0  3  0  0  0  0  0  0
   35.6670   28.5510   39.3530 C   0  0  0  0  0  3  0  0  0  0  0  0
   39.8640   30.7500   42.5890 C   0  0  0  0  0  0  0  0  0  0  0  0
   40.8990   30.3830   42.4350 H   0  0  0  0  0  0  0  0  0  0  0  0
   39.8460   31.3740   43.5040 H   0  0  0  0  0  0  0  0  0  0  0  0
   39.5080   31.6330   41.4390 C   0  0  0  0  0  0  0  0  0  0  0  0
   38.1410   31.7700   41.0520 C   0  0  0  0  0  0  0  0  0  0  0  0
   38.2290   32.9300   39.6280 S   0  0  0  0  0  0  0  0  0  0  0  0
   40.1230   33.0320   39.8010 C   0  0  0  0  0  0  0  0  0  0  0  0
   40.3110   32.3370   40.6930 N   0  0  0  0  0  0  0  0  0  0  0  0
   37.2830   31.2930   41.5070 H   0  0  0  0  0  0  0  0  0  0  0  0
   40.9210   33.8100   38.9650 O   0  0  0  0  0  0  0  0  0  0  0  0
   42.4750   31.8790   38.0190 O   0  0  0  0  0  0  0  0  0  0  0  0
   41.5920   33.0480   37.5970 P   0  0  0  0  0  0  0  0  0  0  0  0
   40.3110   32.4570   36.6640 O   0  0  0  0  0  0  0  0  0  0  0  0
   40.0040   31.6190   37.1180 H   0  0  0  0  0  0  0  0  0  0  0  0
   42.4670   34.1610   36.6780 O   0  0  0  0  0  0  0  0  0  0  0  0
   43.2060   34.5590   37.1840 H   0  0  0  0  0  0  0  0  0  0  0  0
  1  4  1  0  0  0  0
  1  2  1  0  0  0  0
  3  1  1  0  0  0  0
  4  5  2  0  0  0  0
  4  9  1  0  0  0  0
  5  6  1  0  0  0  0
  6 10  1  0  0  0  0
  6  7  2  0  0  0  0
  8  7  1  0  0  0  0
  8 11  1  0  0  0  0
  9  8  2  0  0  0  0
 12  5  1  0  0  0  0
 14 15  1  0  0  0  0
 14 13  1  0  0  0  0
 15 12  1  0  0  0  0
 16 17  1  0  0  0  0
 16 15  2  0  0  0  0
 18 16  1  0  0  0  0
 19 18  1  0  0  0  0
 20 18  2  0  0  0  0
 20 21  1  0  0  0  0
 21 14  2  0  0  0  0
 22  1  1  0  0  0  0
 22 24  1  0  0  0  0
 23 22  1  0  0  0  0
 25 22  1  0  0  0  0
 26 25  2  0  0  0  0
 26 30  1  0  0  0  0
 27 28  1  0  0  0  0
 27 26  1  0  0  0  0
 28 29  2  0  0  0  0
 29 25  1  0  0  0  0
 31 28  1  0  0  0  0
 33 32  2  0  0  0  0
 33 31  1  0  0  0  0
 34 35  1  0  0  0  0
 34 33  1  0  0  0  0
 36 37  1  0  0  0  0
 36 33  1  0  0  0  0
M  END
>  <minimizedAffinity>
-6.12461329

$$$$

 OpenBabel03252507473D

 37 39  0  0  0  0  0  0  0  0999 V2000
   37.6110   29.9550   37.9700 C   0  0  0  0  0  0  0  0  0  0  0  0
   38.3600   29.9710   37.1690 H   0  0  0  0  0  0  0  0  0  0  0  0
   38.0990   29.6200   38.9130 H   0  0  0  0  0  0  0  0  0  0  0  0
   36.5240   28.9920   37.6920 C   0  0  0  0  0  0  0  0  0  0  0  0
   36.6350   27.7400   38.2830 C   0  0  0  0  0  0  0  0  0  0  0  0
   35.6410   26.7900   38.0580 C   0  0  0  0  0  0  0  0  0  0  0  0
   34.5950   27.1370   37.2590 N   0  0  0  0  0  0  0  0  0  0  0  0
   34.5240   28.3650   36.7040 C   0  0  0  0  0  0  0  0  0  0  0  0
   35.4740   29.2600   36.9240 N   0  0  0  0  0  0  0  0  0  0  0  0
   35.6920   25.8020   38.5020 H   0  0  0  0  0  0  0  0  0  0  0  0
   33.6460   28.5200   36.0900 H   0  0  0  0  0  0  0  0  0  0  0  0
   38.0440   27.3570   39.3230 S   0  0  0  0  0  0  0  0  0  0  0  0
   39.1340   29.6590   40.7360 F   0  0  0  0  0  0  0  0  0  0  0  0
   38.3520   28.8440   41.4930 C   0  0  0  0  0  0  0  0  0  0  0  0
   37.7290   27.6920   41.0340 C   0  0  0  0  0  0  0  0  0  0  0  0
   36.9610   26.9590   41.9200 C   0  0  0  0  0  0  0  0  0  0  0  0
   36.5140   26.0810   41.4820 H   0  0  0  0  0  0  0  0  0  0  0  0
   36.8350   27.3820   43.2180 C   0  0  0  0  0  0  0  0  0  0  0  0
   36.2320   26.7900   43.8820 H   0  0  0  0  0  0  0  0  0  0  0  0
   37.4530   28.5270   43.6760 C   0  0  0  0  0  3  0  0  0  0  0  0
   38.2220   29.2700   42.8040 C   0  0  0  0  0  3  0  0  0  0  0  0
   37.1320   31.3520   38.1810 C   0  0  0  0  0  0  0  0  0  0  0  0
   36.2330   31.3310   38.8300 H   0  0  0  0  0  0  0  0  0  0  0  0
   36.8540   31.8080   37.2110 H   0  0  0  0  0  0  0  0  0  0  0  0
   38.1440   32.2460   38.8190 C   0  0  0  0  0  0  0  0  0  0  0  0
   37.7140   33.2840   39.7000 C   0  0  0  0  0  0  0  0  0  0  0  0
   39.2930   34.0770   40.2060 S   0  0  0  0  0  0  0  0  0  0  0  0
   40.2780   32.8550   39.1270 C   0  0  0  0  0  0  0  0  0  0  0  0
   39.4390   32.2150   38.6810 N   0  0  0  0  0  0  0  0  0  0  0  0
   36.6970   33.5210   39.9810 H   0  0  0  0  0  0  0  0  0  0  0  0
   41.6670   32.8800   39.0270 O   0  0  0  0  0  0  0  0  0  0  0  0
   43.7090   31.9910   37.5850 O   0  0  0  0  0  0  0  0  0  0  0  0
   42.3420   32.6570   37.4790 P   0  0  0  0  0  0  0  0  0  0  0  0
   41.3040   31.6410   36.6120 O   0  0  0  0  0  0  0  0  0  0  0  0
   41.4850   30.7140   36.9460 H   0  0  0  0  0  0  0  0  0  0  0  0
   42.4550   34.1360   36.6720 O   0  0  0  0  0  0  0  0  0  0  0  0
   43.0230   34.7750   37.1500 H   0  0  0  0  0  0  0  0  0  0  0  0
  1 22  1  0  0  0  0
  1  3  1  0  0  0  0
  2  1  1  0  0  0  0
  4  1  1  0  0  0  0
  4  5  1  0  0  0  0
  5 12  1  0  0  0  0
  6  5  2  0  0  0  0
  6 10  1  0  0  0  0
  7  6  1  0  0  0  0
  8  9  1  0  0  0  0
  8  7  2  0  0  0  0
  9  4  2  0  0  0  0
 11  8  1  0  0  0  0
 12 15  1  0  0  0  0
 13 14  1  0  0  0  0
 14 21  1  0  0  0  0
 15 14  2  0  0  0  0
 15 16  1  0  0  0  0
 16 18  2  0  0  0  0
 17 16  1  0  0  0  0
 18 20  1  0  0  0  0
 18 19  1  0  0  0  0
 21 20  2  0  0  0  0
 22 25  1  0  0  0  0
 22 23  1  0  0  0  0
 24 22  1  0  0  0  0
 25 26  2  0  0  0  0
 26 30  1  0  0  0  0
 26 27  1  0  0  0  0
 28 27  1  0  0  0  0
 29 25  1  0  0  0  0
 29 28  2  0  0  0  0
 31 28  1  0  0  0  0
 33 32  2  0  0  0  0
 33 31  1  0  0  0  0
 34 35  1  0  0  0  0
 34 33  1  0  0  0  0
 36 37  1  0  0  0  0
 36 33  1  0  0  0  0
M  END
>  <minimizedAffinity>
-5.80499411

$$$$

 OpenBabel03252507473D

 37 39  0  0  0  0  0  0  0  0999 V2000
   37.1050   28.3610   42.4620 C   0  0  0  0  0  0  0  0  0  0  0  0
   36.3010   28.5240   43.1900 H   0  0  0  0  0  0  0  0  0  0  0  0
   36.9870   29.0910   41.6290 H   0  0  0  0  0  0  0  0  0  0  0  0
   37.0380   27.0140   41.8560 C   0  0  0  0  0  0  0  0  0  0  0  0
   37.0520   26.9540   40.4690 C   0  0  0  0  0  0  0  0  0  0  0  0
   36.9920   25.7110   39.8400 C   0  0  0  0  0  0  0  0  0  0  0  0
   36.9210   24.6010   40.6250 N   0  0  0  0  0  0  0  0  0  0  0  0
   36.9110   24.7040   41.9710 C   0  0  0  0  0  0  0  0  0  0  0  0
   36.9680   25.8880   42.5580 N   0  0  0  0  0  0  0  0  0  0  0  0
   37.0000   25.6230   38.7600 H   0  0  0  0  0  0  0  0  0  0  0  0
   36.8520   23.7520   42.4830 H   0  0  0  0  0  0  0  0  0  0  0  0
   37.1460   28.4610   39.5030 S   0  0  0  0  0  0  0  0  0  0  0  0
   34.4590   29.0470   40.4620 F   0  0  0  0  0  0  0  0  0  0  0  0
   34.5700   28.9370   39.1110 C   0  0  0  0  0  0  0  0  0  0  0  0
   35.7490   28.6630   38.4320 C   0  0  0  0  0  0  0  0  0  0  0  0
   35.7120   28.5800   37.0520 C   0  0  0  0  0  0  0  0  0  0  0  0
   36.6700   28.3640   36.6060 H   0  0  0  0  0  0  0  0  0  0  0  0
   34.5250   28.7680   36.3930 C   0  0  0  0  0  0  0  0  0  0  0  0
   34.5290   28.6960   35.3210 H   0  0  0  0  0  0  0  0  0  0  0  0
   33.3520   29.0410   37.0660 C   0  0  0  0  0  3  0  0  0  0  0  0
   33.3730   29.1270   38.4430 C   0  0  0  0  0  3  0  0  0  0  0  0
   38.4040   28.6510   43.1360 C   0  0  0  0  0  0  0  0  0  0  0  0
   39.0110   27.7240   43.1610 H   0  0  0  0  0  0  0  0  0  0  0  0
   38.2240   28.9820   44.1780 H   0  0  0  0  0  0  0  0  0  0  0  0
   39.2080   29.7150   42.4630 C   0  0  0  0  0  0  0  0  0  0  0  0
   40.6330   29.6680   42.5260 C   0  0  0  0  0  0  0  0  0  0  0  0
   41.1380   31.1560   41.5720 S   0  0  0  0  0  0  0  0  0  0  0  0
   39.3120   31.5930   41.2470 C   0  0  0  0  0  0  0  0  0  0  0  0
   38.7720   30.7400   41.7880 N   0  0  0  0  0  0  0  0  0  0  0  0
   41.2400   28.9230   43.0220 H   0  0  0  0  0  0  0  0  0  0  0  0
   38.9180   32.7100   40.5130 O   0  0  0  0  0  0  0  0  0  0  0  0
   37.5840   31.7300   38.4420 O   0  0  0  0  0  0  0  0  0  0  0  0
   37.4380   32.6110   39.6770 P   0  0  0  0  0  0  0  0  0  0  0  0
   36.3080   31.9080   40.7210 O   0  0  0  0  0  0  0  0  0  0  0  0
   36.5040   30.9260   40.7160 H   0  0  0  0  0  0  0  0  0  0  0  0
   36.9010   34.1550   39.2540 O   0  0  0  0  0  0  0  0  0  0  0  0
   37.5370   34.6210   38.6710 H   0  0  0  0  0  0  0  0  0  0  0  0
  1 22  1  0  0  0  0
  1  2  1  0  0  0  0
  3  1  1  0  0  0  0
  4  1  1  0  0  0  0
  4  9  1  0  0  0  0
  5  4  2  0  0  0  0
  6  5  1  0  0  0  0
  6  7  2  0  0  0  0
  7  8  1  0  0  0  0
  8 11  1  0  0  0  0
  8  9  2  0  0  0  0
 10  6  1  0  0  0  0
 12  5  1  0  0  0  0
 14 13  1  0  0  0  0
 15 14  2  0  0  0  0
 15 12  1  0  0  0  0
 16 15  1  0  0  0  0
 17 16  1  0  0  0  0
 18 16  2  0  0  0  0
 18 20  1  0  0  0  0
 19 18  1  0  0  0  0
 20 21  2  0  0  0  0
 21 14  1  0  0  0  0
 22 23  1  0  0  0  0
 22 24  1  0  0  0  0
 25 26  2  0  0  0  0
 25 22  1  0  0  0  0
 26 30  1  0  0  0  0
 27 26  1  0  0  0  0
 28 27  1  0  0  0  0
 28 29  2  0  0  0  0
 29 25  1  0  0  0  0
 31 28  1  0  0  0  0
 32 33  2  0  0  0  0
 33 31  1  0  0  0  0
 33 34  1  0  0  0  0
 35 34  1  0  0  0  0
 36 33  1  0  0  0  0
 37 36  1  0  0  0  0
M  END
>  <minimizedAffinity>
-5.76498699

$$$$

 OpenBabel03252507473D

 37 39  0  0  0  0  0  0  0  0999 V2000
   36.6330   31.5060   39.8330 C   0  0  0  0  0  0  0  0  0  0  0  0
   37.2590   31.1580   40.6630 H   0  0  0  0  0  0  0  0  0  0  0  0
   35.5800   31.5840   40.1850 H   0  0  0  0  0  0  0  0  0  0  0  0
   36.6320   30.5530   38.7030 C   0  0  0  0  0  0  0  0  0  0  0  0
   36.1430   29.2800   38.9630 C   0  0  0  0  0  0  0  0  0  0  0  0
   36.1160   28.3370   37.9360 C   0  0  0  0  0  0  0  0  0  0  0  0
   36.5760   28.7140   36.7110 N   0  0  0  0  0  0  0  0  0  0  0  0
   37.0430   29.9630   36.5000 C   0  0  0  0  0  0  0  0  0  0  0  0
   37.0640   30.8500   37.4810 N   0  0  0  0  0  0  0  0  0  0  0  0
   35.7430   27.3330   38.1000 H   0  0  0  0  0  0  0  0  0  0  0  0
   37.3790   30.1400   35.4870 H   0  0  0  0  0  0  0  0  0  0  0  0
   35.5560   28.8590   40.6030 S   0  0  0  0  0  0  0  0  0  0  0  0
   36.5160   26.1250   40.8980 F   0  0  0  0  0  0  0  0  0  0  0  0
   37.1610   27.0420   41.6680 C   0  0  0  0  0  0  0  0  0  0  0  0
   36.8750   28.3990   41.6940 C   0  0  0  0  0  0  0  0  0  0  0  0
   37.6150   29.2150   42.5290 C   0  0  0  0  0  0  0  0  0  0  0  0
   37.3280   30.2530   42.4870 H   0  0  0  0  0  0  0  0  0  0  0  0
   38.6050   28.6700   43.3050 C   0  0  0  0  0  0  0  0  0  0  0  0
   39.1620   29.3300   43.9440 H   0  0  0  0  0  0  0  0  0  0  0  0
   38.8920   27.3210   43.2820 C   0  0  0  0  0  3  0  0  0  0  0  0
   38.1620   26.4940   42.4530 C   0  0  0  0  0  3  0  0  0  0  0  0
   37.0860   32.8780   39.4580 C   0  0  0  0  0  0  0  0  0  0  0  0
   36.4710   33.6220   40.0040 H   0  0  0  0  0  0  0  0  0  0  0  0
   36.9480   33.0380   38.3710 H   0  0  0  0  0  0  0  0  0  0  0  0
   38.5220   33.1440   39.7700 C   0  0  0  0  0  0  0  0  0  0  0  0
   38.8630   34.1610   40.7130 C   0  0  0  0  0  0  0  0  0  0  0  0
   40.7000   34.0980   40.7420 S   0  0  0  0  0  0  0  0  0  0  0  0
   40.6930   32.6920   39.4570 C   0  0  0  0  0  0  0  0  0  0  0  0
   39.5710   32.5510   39.2760 N   0  0  0  0  0  0  0  0  0  0  0  0
   38.1810   34.7960   41.2620 H   0  0  0  0  0  0  0  0  0  0  0  0
   41.8580   32.1010   38.9720 O   0  0  0  0  0  0  0  0  0  0  0  0
   41.9730   30.2900   37.0380 O   0  0  0  0  0  0  0  0  0  0  0  0
   41.9390   31.7910   37.3000 P   0  0  0  0  0  0  0  0  0  0  0  0
   40.5440   32.4380   36.5940 O   0  0  0  0  0  0  0  0  0  0  0  0
   39.8090   31.7880   36.7920 H   0  0  0  0  0  0  0  0  0  0  0  0
   43.2900   32.5490   36.6280 O   0  0  0  0  0  0  0  0  0  0  0  0
   44.1270   32.2320   37.0260 H   0  0  0  0  0  0  0  0  0  0  0  0
  1  3  1  0  0  0  0
  1  2  1  0  0  0  0
  4  5  1  0  0  0  0
  4  1  1  0  0  0  0
  5 12  1  0  0  0  0
  6 10  1  0  0  0  0
  6  5  2  0  0  0  0
  7  6  1  0  0  0  0
  8  7  2  0  0  0  0
  8  9  1  0  0  0  0
  9  4  2  0  0  0  0
 11  8  1  0  0  0  0
 12 15  1  0  0  0  0
 13 14  1  0  0  0  0
 14 15  2  0  0  0  0
 14 21  1  0  0  0  0
 15 16  1  0  0  0  0
 16 18  2  0  0  0  0
 17 16  1  0  0  0  0
 18 19  1  0  0  0  0
 20 18  1  0  0  0  0
 21 20  2  0  0  0  0
 22 25  1  0  0  0  0
 22  1  1  0  0  0  0
 22 23  1  0  0  0  0
 24 22  1  0  0  0  0
 25 26  2  0  0  0  0
 26 27  1  0  0  0  0
 26 30  1  0  0  0  0
 28 27  1  0  0  0  0
 29 28  2  0  0  0  0
 29 25  1  0  0  0  0
 31 28  1  0  0  0  0
 32 33  2  0  0  0  0
 33 31  1  0  0  0  0
 34 35  1  0  0  0  0
 34 33  1  0  0  0  0
 36 37  1  0  0  0  0
 36 33  1  0  0  0  0
M  END
>  <minimizedAffinity>
-5.75460052

$$$$

 OpenBabel03252507473D

 37 39  0  0  0  0  0  0  0  0999 V2000
   39.2560   29.7470   42.5330 C   0  0  0  0  0  0  0  0  0  0  0  0
   39.1720   28.9520   43.2850 H   0  0  0  0  0  0  0  0  0  0  0  0
   39.4350   30.7150   43.0530 H   0  0  0  0  0  0  0  0  0  0  0  0
   38.0090   29.9080   41.7570 C   0  0  0  0  0  0  0  0  0  0  0  0
   37.1060   28.8540   41.8020 C   0  0  0  0  0  0  0  0  0  0  0  0
   35.9110   28.9490   41.0900 C   0  0  0  0  0  0  0  0  0  0  0  0
   35.6830   30.0840   40.3740 N   0  0  0  0  0  0  0  0  0  0  0  0
   36.5870   31.0860   40.3560 C   0  0  0  0  0  0  0  0  0  0  0  0
   37.7180   30.9860   41.0360 N   0  0  0  0  0  0  0  0  0  0  0  0
   35.1820   28.1470   41.1000 H   0  0  0  0  0  0  0  0  0  0  0  0
   36.2910   31.9340   39.7520 H   0  0  0  0  0  0  0  0  0  0  0  0
   37.4780   27.3910   42.7680 S   0  0  0  0  0  0  0  0  0  0  0  0
   36.3420   24.7100   42.7160 F   0  0  0  0  0  0  0  0  0  0  0  0
   37.4230   24.8860   41.9100 C   0  0  0  0  0  0  0  0  0  0  0  0
   38.1260   26.0750   41.7740 C   0  0  0  0  0  0  0  0  0  0  0  0
   39.2090   26.1070   40.9150 C   0  0  0  0  0  0  0  0  0  0  0  0
   39.6970   27.0680   40.8690 H   0  0  0  0  0  0  0  0  0  0  0  0
   39.5610   24.9760   40.2250 C   0  0  0  0  0  0  0  0  0  0  0  0
   40.4080   25.0330   39.5650 H   0  0  0  0  0  0  0  0  0  0  0  0
   38.8640   23.7930   40.3580 C   0  0  0  0  0  3  0  0  0  0  0  0
   37.7800   23.7450   41.2110 C   0  0  0  0  0  3  0  0  0  0  0  0
   40.4530   29.4590   41.6900 C   0  0  0  0  0  0  0  0  0  0  0  0
   40.1160   29.1160   40.6910 H   0  0  0  0  0  0  0  0  0  0  0  0
   41.0570   28.6530   42.1530 H   0  0  0  0  0  0  0  0  0  0  0  0
   41.3520   30.6360   41.4990 C   0  0  0  0  0  0  0  0  0  0  0  0
   41.8550   31.3330   42.6400 C   0  0  0  0  0  0  0  0  0  0  0  0
   42.8820   32.6620   41.8930 S   0  0  0  0  0  0  0  0  0  0  0  0
   42.4500   32.0410   40.1440 C   0  0  0  0  0  0  0  0  0  0  0  0
   41.7690   31.1510   40.3770 N   0  0  0  0  0  0  0  0  0  0  0  0
   41.6600   31.1080   43.6800 H   0  0  0  0  0  0  0  0  0  0  0  0
   42.9340   32.6430   38.9840 O   0  0  0  0  0  0  0  0  0  0  0  0
   41.6530   31.5950   36.9120 O   0  0  0  0  0  0  0  0  0  0  0  0
   41.8300   32.8810   37.7100 P   0  0  0  0  0  0  0  0  0  0  0  0
   40.3450   33.3100   38.3960 O   0  0  0  0  0  0  0  0  0  0  0  0
   39.9420   32.4570   38.7330 H   0  0  0  0  0  0  0  0  0  0  0  0
   42.3510   34.1400   36.7120 O   0  0  0  0  0  0  0  0  0  0  0  0
   43.2270   33.9550   36.3110 H   0  0  0  0  0  0  0  0  0  0  0  0
  1  3  1  0  0  0  0
  1  2  1  0  0  0  0
  4  5  1  0  0  0  0
  4  1  1  0  0  0  0
  5 12  1  0  0  0  0
  6 10  1  0  0  0  0
  6  5  2  0  0  0  0
  7  6  1  0  0  0  0
  8  7  2  0  0  0  0
  8  9  1  0  0  0  0
  9  4  2  0  0  0  0
 11  8  1  0  0  0  0
 14 13  1  0  0  0  0
 15 14  1  0  0  0  0
 15 12  1  0  0  0  0
 16 15  2  0  0  0  0
 17 16  1  0  0  0  0
 18 20  2  0  0  0  0
 18 16  1  0  0  0  0
 19 18  1  0  0  0  0
 20 21  1  0  0  0  0
 21 14  2  0  0  0  0
 22 24  1  0  0  0  0
 22  1  1  0  0  0  0
 23 22  1  0  0  0  0
 25 22  1  0  0  0  0
 25 26  2  0  0  0  0
 26 30  1  0  0  0  0
 27 26  1  0  0  0  0
 28 29  2  0  0  0  0
 28 27  1  0  0  0  0
 29 25  1  0  0  0  0
 31 28  1  0  0  0  0
 32 33  2  0  0  0  0
 33 34  1  0  0  0  0
 33 31  1  0  0  0  0
 34 35  1  0  0  0  0
 36 33  1  0  0  0  0
 37 36  1  0  0  0  0
M  END
>  <minimizedAffinity>
-5.72167397

$$$$

 OpenBabel03252507473D

 37 39  0  0  0  0  0  0  0  0999 V2000
   34.5150   28.3460   38.4640 C   0  0  0  0  0  0  0  0  0  0  0  0
   35.0530   27.5030   38.9140 H   0  0  0  0  0  0  0  0  0  0  0  0
   33.4840   28.0160   38.2040 H   0  0  0  0  0  0  0  0  0  0  0  0
   35.1450   28.7940   37.2030 C   0  0  0  0  0  0  0  0  0  0  0  0
   34.3030   28.9590   36.1120 C   0  0  0  0  0  0  0  0  0  0  0  0
   34.8390   29.3810   34.8960 C   0  0  0  0  0  0  0  0  0  0  0  0
   36.1790   29.6120   34.8350 N   0  0  0  0  0  0  0  0  0  0  0  0
   36.9630   29.4400   35.9200 C   0  0  0  0  0  0  0  0  0  0  0  0
   36.4440   29.0400   37.0700 N   0  0  0  0  0  0  0  0  0  0  0  0
   34.2150   29.5210   34.0210 H   0  0  0  0  0  0  0  0  0  0  0  0
   38.0090   29.6560   35.7450 H   0  0  0  0  0  0  0  0  0  0  0  0
   32.5480   28.6330   36.2700 S   0  0  0  0  0  0  0  0  0  0  0  0
   31.1110   29.8160   38.5100 F   0  0  0  0  0  0  0  0  0  0  0  0
   30.9810   30.4850   37.3330 C   0  0  0  0  0  0  0  0  0  0  0  0
   31.5740   30.1070   36.1360 C   0  0  0  0  0  0  0  0  0  0  0  0
   31.3540   30.8860   35.0160 C   0  0  0  0  0  0  0  0  0  0  0  0
   31.8510   30.5210   34.1300 H   0  0  0  0  0  0  0  0  0  0  0  0
   30.5630   32.0010   35.1100 C   0  0  0  0  0  0  0  0  0  0  0  0
   30.4100   32.5850   34.2210 H   0  0  0  0  0  0  0  0  0  0  0  0
   29.9720   32.3790   36.2980 C   0  0  0  0  0  3  0  0  0  0  0  0
   30.1830   31.6130   37.4260 C   0  0  0  0  0  3  0  0  0  0  0  0
   34.4010   29.4220   39.4910 C   0  0  0  0  0  0  0  0  0  0  0  0
   33.5510   29.1880   40.1640 H   0  0  0  0  0  0  0  0  0  0  0  0
   34.2030   30.3950   39.0000 H   0  0  0  0  0  0  0  0  0  0  0  0
   35.6250   29.5870   40.3300 C   0  0  0  0  0  0  0  0  0  0  0  0
   35.9780   28.5730   41.2710 C   0  0  0  0  0  0  0  0  0  0  0  0
   37.5180   29.2310   42.0300 S   0  0  0  0  0  0  0  0  0  0  0  0
   37.4200   30.7850   40.9320 C   0  0  0  0  0  0  0  0  0  0  0  0
   36.4670   30.5810   40.3280 N   0  0  0  0  0  0  0  0  0  0  0  0
   35.4470   27.6510   41.4670 H   0  0  0  0  0  0  0  0  0  0  0  0
   38.3600   31.8120   40.9830 O   0  0  0  0  0  0  0  0  0  0  0  0
   39.3400   34.0750   40.0090 O   0  0  0  0  0  0  0  0  0  0  0  0
   38.2600   33.0230   39.7900 P   0  0  0  0  0  0  0  0  0  0  0  0
   38.5120   32.2820   38.2900 O   0  0  0  0  0  0  0  0  0  0  0  0
   39.5000   32.1370   38.2180 H   0  0  0  0  0  0  0  0  0  0  0  0
   36.7250   33.7260   39.7980 O   0  0  0  0  0  0  0  0  0  0  0  0
   36.5150   34.1450   40.6590 H   0  0  0  0  0  0  0  0  0  0  0  0
  1  2  1  0  0  0  0
  1 22  1  0  0  0  0
  3  1  1  0  0  0  0
  4  1  1  0  0  0  0
  5 12  1  0  0  0  0
  5  4  2  0  0  0  0
  6  5  1  0  0  0  0
  7  6  2  0  0  0  0
  7  8  1  0  0  0  0
  8  9  2  0  0  0  0
  9  4  1  0  0  0  0
 10  6  1  0  0  0  0
 11  8  1  0  0  0  0
 14 21  1  0  0  0  0
 14 13  1  0  0  0  0
 15 12  1  0  0  0  0
 15 14  2  0  0  0  0
 16 18  2  0  0  0  0
 16 15  1  0  0  0  0
 17 16  1  0  0  0  0
 18 20  1  0  0  0  0
 19 18  1  0  0  0  0
 20 21  2  0  0  0  0
 22 23  1  0  0  0  0
 22 25  1  0  0  0  0
 24 22  1  0  0  0  0
 25 26  2  0  0  0  0
 26 30  1  0  0  0  0
 26 27  1  0  0  0  0
 28 31  1  0  0  0  0
 28 27  1  0  0  0  0
 29 25  1  0  0  0  0
 29 28  2  0  0  0  0
 33 36  1  0  0  0  0
 33 32  2  0  0  0  0
 33 31  1  0  0  0  0
 34 33  1  0  0  0  0
 35 34  1  0  0  0  0
 36 37  1  0  0  0  0
M  END
>  <minimizedAffinity>
-5.68075657

$$$$

 OpenBabel03252507473D

 37 39  0  0  0  0  0  0  0  0999 V2000
   39.4530   30.5260   41.6120 C   0  0  0  0  0  0  0  0  0  0  0  0
   38.7820   31.3080   41.2360 H   0  0  0  0  0  0  0  0  0  0  0  0
   40.0740   30.1490   40.7680 H   0  0  0  0  0  0  0  0  0  0  0  0
   38.7070   29.3650   42.1400 C   0  0  0  0  0  0  0  0  0  0  0  0
   37.3420   29.3360   41.8900 C   0  0  0  0  0  0  0  0  0  0  0  0
   36.5850   28.2650   42.3630 C   0  0  0  0  0  0  0  0  0  0  0  0
   37.2280   27.2860   43.0570 N   0  0  0  0  0  0  0  0  0  0  0  0
   38.5570   27.3520   43.2780 C   0  0  0  0  0  0  0  0  0  0  0  0
   39.2670   28.3730   42.8250 N   0  0  0  0  0  0  0  0  0  0  0  0
   35.5160   28.2060   42.1880 H   0  0  0  0  0  0  0  0  0  0  0  0
   38.9510   26.5150   43.8400 H   0  0  0  0  0  0  0  0  0  0  0  0
   36.5660   30.6640   40.9690 S   0  0  0  0  0  0  0  0  0  0  0  0
   38.0370   32.3480   39.1030 F   0  0  0  0  0  0  0  0  0  0  0  0
   37.3700   31.3110   38.5300 C   0  0  0  0  0  0  0  0  0  0  0  0
   36.6040   30.3820   39.2200 C   0  0  0  0  0  0  0  0  0  0  0  0
   35.9810   29.3770   38.5030 C   0  0  0  0  0  0  0  0  0  0  0  0
   35.4080   28.7000   39.1160 H   0  0  0  0  0  0  0  0  0  0  0  0
   36.1300   29.3230   37.1420 C   0  0  0  0  0  0  0  0  0  0  0  0
   35.6320   28.5310   36.6130 H   0  0  0  0  0  0  0  0  0  0  0  0
   36.8900   30.2460   36.4530 C   0  0  0  0  0  3  0  0  0  0  0  0
   37.5190   31.2540   37.1540 C   0  0  0  0  0  3  0  0  0  0  0  0
   40.3740   31.1490   42.6070 C   0  0  0  0  0  0  0  0  0  0  0  0
   40.6170   30.4020   43.3890 H   0  0  0  0  0  0  0  0  0  0  0  0
   39.8810   32.0150   43.0900 H   0  0  0  0  0  0  0  0  0  0  0  0
   41.6560   31.6380   42.0180 C   0  0  0  0  0  0  0  0  0  0  0  0
   42.8200   31.7330   42.8400 C   0  0  0  0  0  0  0  0  0  0  0  0
   44.0950   32.3690   41.6780 S   0  0  0  0  0  0  0  0  0  0  0  0
   42.8210   32.3990   40.2620 C   0  0  0  0  0  0  0  0  0  0  0  0
   41.8800   32.0140   40.7910 N   0  0  0  0  0  0  0  0  0  0  0  0
   42.9000   31.4830   43.8890 H   0  0  0  0  0  0  0  0  0  0  0  0
   43.1330   32.8140   38.9690 O   0  0  0  0  0  0  0  0  0  0  0  0
   41.1800   31.9170   37.4150 O   0  0  0  0  0  0  0  0  0  0  0  0
   41.8320   33.1920   37.9360 P   0  0  0  0  0  0  0  0  0  0  0  0
   40.6960   34.0570   38.8430 O   0  0  0  0  0  0  0  0  0  0  0  0
   40.2070   33.3770   39.3920 H   0  0  0  0  0  0  0  0  0  0  0  0
   42.3610   34.1610   36.6590 O   0  0  0  0  0  0  0  0  0  0  0  0
   43.0470   33.7170   36.1170 H   0  0  0  0  0  0  0  0  0  0  0  0
  1  4  1  0  0  0  0
  1 22  1  0  0  0  0
  2  1  1  0  0  0  0
  3  1  1  0  0  0  0
  4  9  1  0  0  0  0
  5  4  2  0  0  0  0
  5  6  1  0  0  0  0
  6  7  2  0  0  0  0
  7  8  1  0  0  0  0
  8 11  1  0  0  0  0
  9  8  2  0  0  0  0
 10  6  1  0  0  0  0
 12  5  1  0  0  0  0
 14 13  1  0  0  0  0
 14 15  1  0  0  0  0
 15 12  1  0  0  0  0
 16 17  1  0  0  0  0
 16 15  2  0  0  0  0
 18 16  1  0  0  0  0
 19 18  1  0  0  0  0
 20 18  2  0  0  0  0
 20 21  1  0  0  0  0
 21 14  2  0  0  0  0
 22 24  1  0  0  0  0
 22 23  1  0  0  0  0
 25 22  1  0  0  0  0
 25 26  2  0  0  0  0
 26 30  1  0  0  0  0
 27 26  1  0  0  0  0
 28 29  2  0  0  0  0
 28 27  1  0  0  0  0
 29 25  1  0  0  0  0
 31 28  1  0  0  0  0
 32 33  2  0  0  0  0
 33 34  1  0  0  0  0
 33 31  1  0  0  0  0
 34 35  1  0  0  0  0
 36 33  1  0  0  0  0
 37 36  1  0  0  0  0
M  END
>  <minimizedAffinity>
-5.64338636

$$$$

 OpenBabel03252507473D

 37 39  0  0  0  0  0  0  0  0999 V2000
   36.4660   27.9590   40.4940 C   0  0  0  0  0  0  0  0  0  0  0  0
   36.8260   28.5270   41.3600 H   0  0  0  0  0  0  0  0  0  0  0  0
   35.3630   28.0880   40.4130 H   0  0  0  0  0  0  0  0  0  0  0  0
   36.7110   26.5080   40.6430 C   0  0  0  0  0  0  0  0  0  0  0  0
   37.2230   26.0850   41.8610 C   0  0  0  0  0  0  0  0  0  0  0  0
   37.4740   24.7290   42.0610 C   0  0  0  0  0  0  0  0  0  0  0  0
   37.2020   23.8720   41.0390 N   0  0  0  0  0  0  0  0  0  0  0  0
   36.7040   24.3240   39.8690 C   0  0  0  0  0  0  0  0  0  0  0  0
   36.4690   25.6140   39.6900 N   0  0  0  0  0  0  0  0  0  0  0  0
   37.8740   24.3600   42.9990 H   0  0  0  0  0  0  0  0  0  0  0  0
   36.5300   23.5470   39.1360 H   0  0  0  0  0  0  0  0  0  0  0  0
   37.5560   27.2750   43.1600 S   0  0  0  0  0  0  0  0  0  0  0  0
   37.9790   30.1090   42.6390 F   0  0  0  0  0  0  0  0  0  0  0  0
   39.1180   29.3760   42.7570 C   0  0  0  0  0  0  0  0  0  0  0  0
   39.1610   28.0110   43.0040 C   0  0  0  0  0  0  0  0  0  0  0  0
   40.3950   27.3950   43.1000 C   0  0  0  0  0  0  0  0  0  0  0  0
   40.3370   26.3360   43.2930 H   0  0  0  0  0  0  0  0  0  0  0  0
   41.5360   28.1380   42.9490 C   0  0  0  0  0  0  0  0  0  0  0  0
   42.4810   27.6310   43.0280 H   0  0  0  0  0  0  0  0  0  0  0  0
   41.4970   29.4960   42.7040 C   0  0  0  0  0  3  0  0  0  0  0  0
   40.2730   30.1250   42.6060 C   0  0  0  0  0  3  0  0  0  0  0  0
   37.0810   28.5470   39.2680 C   0  0  0  0  0  0  0  0  0  0  0  0
   36.3470   28.4990   38.4390 H   0  0  0  0  0  0  0  0  0  0  0  0
   37.9770   27.9650   38.9780 H   0  0  0  0  0  0  0  0  0  0  0  0
   37.5060   29.9690   39.4310 C   0  0  0  0  0  0  0  0  0  0  0  0
   36.5600   30.9430   39.8730 C   0  0  0  0  0  0  0  0  0  0  0  0
   37.5480   32.4930   39.9090 S   0  0  0  0  0  0  0  0  0  0  0  0
   39.0910   31.5480   39.3120 C   0  0  0  0  0  0  0  0  0  0  0  0
   38.6840   30.4810   39.2140 N   0  0  0  0  0  0  0  0  0  0  0  0
   35.5200   30.7770   40.1190 H   0  0  0  0  0  0  0  0  0  0  0  0
   40.3230   32.1630   39.1010 O   0  0  0  0  0  0  0  0  0  0  0  0
   41.7820   31.1820   37.1150 O   0  0  0  0  0  0  0  0  0  0  0  0
   40.8480   32.3270   37.4890 P   0  0  0  0  0  0  0  0  0  0  0  0
   39.4790   32.2630   36.4980 O   0  0  0  0  0  0  0  0  0  0  0  0
   39.2300   31.2950   36.4360 H   0  0  0  0  0  0  0  0  0  0  0  0
   41.6090   33.8180   37.2710 O   0  0  0  0  0  0  0  0  0  0  0  0
   42.3950   33.9200   37.8470 H   0  0  0  0  0  0  0  0  0  0  0  0
  1  4  1  0  0  0  0
  1  2  1  0  0  0  0
  3  1  1  0  0  0  0
  4  5  1  0  0  0  0
  5  6  2  0  0  0  0
  5 12  1  0  0  0  0
  6 10  1  0  0  0  0
  7  6  1  0  0  0  0
  8  7  2  0  0  0  0
  9  8  1  0  0  0  0
  9  4  2  0  0  0  0
 11  8  1  0  0  0  0
 13 14  1  0  0  0  0
 14 15  1  0  0  0  0
 15 16  2  0  0  0  0
 15 12  1  0  0  0  0
 16 17  1  0  0  0  0
 18 19  1  0  0  0  0
 18 16  1  0  0  0  0
 20 18  2  0  0  0  0
 21 20  1  0  0  0  0
 21 14  2  0  0  0  0
 22 25  1  0  0  0  0
 22  1  1  0  0  0  0
 23 22  1  0  0  0  0
 24 22  1  0  0  0  0
 25 26  2  0  0  0  0
 26 27  1  0  0  0  0
 26 30  1  0  0  0  0
 28 27  1  0  0  0  0
 29 28  2  0  0  0  0
 29 25  1  0  0  0  0
 31 28  1  0  0  0  0
 32 33  2  0  0  0  0
 33 31  1  0  0  0  0
 34 33  1  0  0  0  0
 35 34  1  0  0  0  0
 36 33  1  0  0  0  0
 36 37  1  0  0  0  0
M  END
>  <minimizedAffinity>
-5.60948467

$$$$

 OpenBabel03252507473D

 37 39  0  0  0  0  0  0  0  0999 V2000
   38.1610   29.6730   42.0520 C   0  0  0  0  0  0  0  0  0  0  0  0
   37.2190   29.8270   42.5920 H   0  0  0  0  0  0  0  0  0  0  0  0
   38.1020   30.1970   41.0710 H   0  0  0  0  0  0  0  0  0  0  0  0
   38.4020   28.2460   41.7550 C   0  0  0  0  0  0  0  0  0  0  0  0
   38.4000   27.8800   40.4160 C   0  0  0  0  0  0  0  0  0  0  0  0
   38.6230   26.5470   40.0730 C   0  0  0  0  0  0  0  0  0  0  0  0
   38.8330   25.6550   41.0800 N   0  0  0  0  0  0  0  0  0  0  0  0
   38.8270   26.0520   42.3700 C   0  0  0  0  0  0  0  0  0  0  0  0
   38.6150   27.3200   42.6850 N   0  0  0  0  0  0  0  0  0  0  0  0
   38.6290   26.2220   39.0380 H   0  0  0  0  0  0  0  0  0  0  0  0
   39.0050   25.2520   43.0760 H   0  0  0  0  0  0  0  0  0  0  0  0
   38.1150   29.1120   39.1460 S   0  0  0  0  0  0  0  0  0  0  0  0
   37.4910   29.3480   36.3110 F   0  0  0  0  0  0  0  0  0  0  0  0
   36.4110   29.1790   37.1200 C   0  0  0  0  0  0  0  0  0  0  0  0
   36.4670   29.0450   38.5000 C   0  0  0  0  0  0  0  0  0  0  0  0
   35.2830   28.8790   39.1950 C   0  0  0  0  0  0  0  0  0  0  0  0
   35.4170   28.7830   40.2610 H   0  0  0  0  0  0  0  0  0  0  0  0
   34.0950   28.8520   38.5140 C   0  0  0  0  0  0  0  0  0  0  0  0
   33.1920   28.7230   39.0820 H   0  0  0  0  0  0  0  0  0  0  0  0
   34.0370   28.9860   37.1410 C   0  0  0  0  0  3  0  0  0  0  0  0
   35.2090   29.1510   36.4330 C   0  0  0  0  0  3  0  0  0  0  0  0
   39.2540   30.3130   42.8410 C   0  0  0  0  0  0  0  0  0  0  0  0
   39.8500   29.5220   43.3380 H   0  0  0  0  0  0  0  0  0  0  0  0
   38.8220   30.9700   43.6220 H   0  0  0  0  0  0  0  0  0  0  0  0
   40.1810   31.1480   42.0200 C   0  0  0  0  0  0  0  0  0  0  0  0
   41.5350   31.3180   42.4390 C   0  0  0  0  0  0  0  0  0  0  0  0
   42.2400   32.3980   41.1290 S   0  0  0  0  0  0  0  0  0  0  0  0
   40.5620   32.4360   40.2270 C   0  0  0  0  0  0  0  0  0  0  0  0
   39.9180   31.7810   40.9120 N   0  0  0  0  0  0  0  0  0  0  0  0
   42.0030   30.8990   43.3190 H   0  0  0  0  0  0  0  0  0  0  0  0
   40.3530   33.1360   39.0410 O   0  0  0  0  0  0  0  0  0  0  0  0
   41.4450   31.0160   37.8810 O   0  0  0  0  0  0  0  0  0  0  0  0
   40.8980   32.4110   37.6000 P   0  0  0  0  0  0  0  0  0  0  0  0
   39.5700   32.2790   36.5610 O   0  0  0  0  0  0  0  0  0  0  0  0
   39.0420   31.4930   36.8890 H   0  0  0  0  0  0  0  0  0  0  0  0
   42.0700   33.3790   36.8650 O   0  0  0  0  0  0  0  0  0  0  0  0
   42.8520   33.5130   37.4400 H   0  0  0  0  0  0  0  0  0  0  0  0
  1  2  1  0  0  0  0
  1 22  1  0  0  0  0
  3  1  1  0  0  0  0
  4  1  1  0  0  0  0
  4  9  1  0  0  0  0
  5  4  2  0  0  0  0
  6  5  1  0  0  0  0
  6  7  2  0  0  0  0
  7  8  1  0  0  0  0
  8  9  2  0  0  0  0
  8 11  1  0  0  0  0
 10  6  1  0  0  0  0
 12  5  1  0  0  0  0
 13 14  1  0  0  0  0
 14 15  1  0  0  0  0
 15 12  1  0  0  0  0
 15 16  2  0  0  0  0
 16 17  1  0  0  0  0
 18 19  1  0  0  0  0
 18 16  1  0  0  0  0
 20 18  2  0  0  0  0
 21 14  2  0  0  0  0
 21 20  1  0  0  0  0
 22 23  1  0  0  0  0
 22 24  1  0  0  0  0
 25 26  2  0  0  0  0
 25 22  1  0  0  0  0
 26 30  1  0  0  0  0
 27 26  1  0  0  0  0
 28 29  2  0  0  0  0
 28 27  1  0  0  0  0
 29 25  1  0  0  0  0
 31 28  1  0  0  0  0
 33 32  2  0  0  0  0
 33 31  1  0  0  0  0
 34 35  1  0  0  0  0
 34 33  1  0  0  0  0
 36 37  1  0  0  0  0
 36 33  1  0  0  0  0
M  END
>  <minimizedAffinity>
-5.37661695

$$$$
