
 OpenBabel03252508023D

 42 45  0  0  1  0  0  0  0  0999 V2000
   42.0230   33.3090   41.1800 C   0  0  0  0  0  0  0  0  0  0  0  0
   42.7950   34.4260   41.3200 C   0  0  0  0  0  0  0  0  0  0  0  0
   42.1610   35.6810   41.2290 C   0  0  0  0  0  0  0  0  0  0  0  0
   40.8140   35.8340   41.0080 C   0  0  0  0  0  0  0  0  0  0  0  0
   40.0470   34.7090   40.8680 C   0  0  0  0  0  0  0  0  0  0  0  0
   40.6530   33.4930   40.9540 C   0  0  0  0  0  0  0  0  0  0  0  0
   42.6930   36.6210   41.3180 H   0  0  0  0  0  0  0  0  0  0  0  0
   40.3430   36.7780   40.9390 H   0  0  0  0  0  0  0  0  0  0  0  0
   39.0020   34.7590   40.6960 H   0  0  0  0  0  0  0  0  0  0  0  0
   40.0350   32.6090   40.8420 H   0  0  0  0  0  0  0  0  0  0  0  0
   42.6280   31.7520   41.3730 S   0  0  0  0  0  0  0  0  0  0  0  0
   41.9290   31.0300   40.1780 O   0  0  0  0  0  0  0  0  0  0  0  0
   42.1560   31.0910   42.6150 O   0  0  0  0  0  0  0  0  0  0  0  0
   44.4490   30.4630   43.1850 F   0  0  0  0  0  0  0  0  0  0  0  0
   44.8340   30.4390   41.8600 C   0  0  0  0  0  0  0  0  0  0  0  0
   44.0670   31.0590   40.8320 C   0  0  0  0  0  0  0  0  0  0  0  0
   44.6840   30.8800   39.6000 C   0  0  0  0  0  0  0  0  0  0  0  0
   44.0440   31.3240   38.8140 H   0  0  0  0  0  0  0  0  0  0  0  0
   45.8420   30.2490   39.2200 C   0  0  0  0  0  0  0  0  0  0  0  0
   46.1300   30.2350   38.2020 H   0  0  0  0  0  0  0  0  0  0  0  0
   46.4330   29.7210   40.3350 C   0  0  0  0  0  3  0  0  0  0  0  0
   46.0100   29.7710   41.6340 C   0  0  0  0  0  3  0  0  0  0  0  0
   44.2280   34.3710   41.5570 C   0  0  0  0  0  0  0  0  0  0  0  0
   45.1020   34.2590   40.6440 O   0  0  0  0  0  0  0  0  0  0  0  0
   44.5750   34.4570   42.9540 C   0  0  0  0  0  0  0  0  0  0  0  0
   44.2890   35.7170   43.5850 C   0  0  0  0  0  0  0  0  0  0  0  0
   44.6100   35.8270   44.9240 C   0  0  0  0  0  0  0  0  0  0  0  0
   45.1660   34.7530   45.5530 N   0  0  0  0  0  0  0  0  0  0  0  0
   45.4160   33.5740   44.9000 C   0  0  0  0  0  0  0  0  0  0  0  0
   45.1210   33.4620   43.6510 N   0  0  0  0  0  0  0  0  0  0  0  0
   43.8640   36.5970   43.1740 H   0  0  0  0  0  0  0  0  0  0  0  0
   44.4490   36.7150   45.5170 H   0  0  0  0  0  0  0  0  0  0  0  0
   46.0110   32.4560   45.6640 C   0  0  1  0  0  0  0  0  0  0  0  0
   46.9620   32.7660   46.7970 C   0  0  0  0  0  0  0  0  0  0  0  0
   45.5520   32.3490   47.0670 C   0  0  1  0  0  0  0  0  0  0  0  0
   46.1260   31.5060   45.1200 H   0  0  0  0  0  0  0  0  0  0  0  0
   47.7290   31.9790   46.9710 H   0  0  0  0  0  0  0  0  0  0  0  0
   47.2760   33.8200   46.8690 H   0  0  0  0  0  0  0  0  0  0  0  0
   45.3740   31.3480   47.5270 H   0  0  0  0  0  0  0  0  0  0  0  0
   44.7600   33.4150   47.6600 N   0  0  0  0  0  0  0  0  0  0  0  0
   45.3060   33.9500   48.3840 H   0  0  0  0  0  0  0  0  0  0  0  0
   43.9330   33.0160   48.1300 H   0  0  0  0  0  0  0  0  0  0  0  0
  1  2  1  0  0  0  0
  1 11  1  0  0  0  0
  2 23  1  0  0  0  0
  3  7  1  0  0  0  0
  3  2  2  0  0  0  0
  4  3  1  0  0  0  0
  5  6  1  0  0  0  0
  5  4  2  0  0  0  0
  6  1  2  0  0  0  0
  8  4  1  0  0  0  0
  9  5  1  0  0  0  0
 10  6  1  0  0  0  0
 11 13  2  0  0  0  0
 12 11  2  0  0  0  0
 15 14  1  0  0  0  0
 16 11  1  0  0  0  0
 16 15  2  0  0  0  0
 17 16  1  0  0  0  0
 18 17  1  0  0  0  0
 19 17  2  0  0  0  0
 19 21  1  0  0  0  0
 20 19  1  0  0  0  0
 21 22  2  0  0  0  0
 22 15  1  0  0  0  0
 23 25  1  0  0  0  0
 24 23  2  0  0  0  0
 25 26  2  0  0  0  0
 25 30  1  0  0  0  0
 26 27  1  0  0  0  0
 27 32  1  0  0  0  0
 27 28  2  0  0  0  0
 29 28  1  0  0  0  0
 29 33  1  0  0  0  0
 30 29  2  0  0  0  0
 31 26  1  0  0  0  0
 33 36  1  6  0  0  0
 33 34  1  0  0  0  0
 33 35  1  0  0  0  0
 34 38  1  0  0  0  0
 34 37  1  0  0  0  0
 34 35  1  0  0  0  0
 35 39  1  1  0  0  0
 35 40  1  0  0  0  0
 40 42  1  0  0  0  0
 40 41  1  0  0  0  0
M  END
>  <minimizedAffinity>
-5.80426168

>  <minimizedRMSD>
0.770009696

$$$$
