
 OpenBabel03252508023D

 42 45  0  0  1  0  0  0  0  0999 V2000
   42.0260   33.3080   41.1810 C   0  0  0  0  0  0  0  0  0  0  0  0
   42.7970   34.4260   41.3210 C   0  0  0  0  0  0  0  0  0  0  0  0
   42.1630   35.6800   41.2310 C   0  0  0  0  0  0  0  0  0  0  0  0
   40.8150   35.8330   41.0090 C   0  0  0  0  0  0  0  0  0  0  0  0
   40.0490   34.7070   40.8680 C   0  0  0  0  0  0  0  0  0  0  0  0
   40.6550   33.4910   40.9540 C   0  0  0  0  0  0  0  0  0  0  0  0
   42.6940   36.6210   41.3200 H   0  0  0  0  0  0  0  0  0  0  0  0
   40.3430   36.7770   40.9400 H   0  0  0  0  0  0  0  0  0  0  0  0
   39.0040   34.7560   40.6960 H   0  0  0  0  0  0  0  0  0  0  0  0
   40.0380   32.6070   40.8420 H   0  0  0  0  0  0  0  0  0  0  0  0
   42.6320   31.7520   41.3740 S   0  0  0  0  0  0  0  0  0  0  0  0
   41.9330   31.0290   40.1780 O   0  0  0  0  0  0  0  0  0  0  0  0
   42.1610   31.0900   42.6160 O   0  0  0  0  0  0  0  0  0  0  0  0
   44.4540   30.4650   43.1860 F   0  0  0  0  0  0  0  0  0  0  0  0
   44.8380   30.4410   41.8600 C   0  0  0  0  0  0  0  0  0  0  0  0
   44.0710   31.0600   40.8330 C   0  0  0  0  0  0  0  0  0  0  0  0
   44.6870   30.8800   39.6000 C   0  0  0  0  0  0  0  0  0  0  0  0
   44.0470   31.3230   38.8140 H   0  0  0  0  0  0  0  0  0  0  0  0
   45.8460   30.2490   39.2200 C   0  0  0  0  0  0  0  0  0  0  0  0
   46.1350   30.2350   38.2020 H   0  0  0  0  0  0  0  0  0  0  0  0
   46.4390   29.7230   40.3360 C   0  0  0  0  0  3  0  0  0  0  0  0
   46.0150   29.7730   41.6350 C   0  0  0  0  0  3  0  0  0  0  0  0
   44.2300   34.3710   41.5590 C   0  0  0  0  0  0  0  0  0  0  0  0
   45.1040   34.2610   40.6460 O   0  0  0  0  0  0  0  0  0  0  0  0
   44.5760   34.4570   42.9560 C   0  0  0  0  0  0  0  0  0  0  0  0
   44.2910   35.7180   43.5870 C   0  0  0  0  0  0  0  0  0  0  0  0
   44.6110   35.8260   44.9260 C   0  0  0  0  0  0  0  0  0  0  0  0
   45.1670   34.7520   45.5550 N   0  0  0  0  0  0  0  0  0  0  0  0
   45.4170   33.5740   44.9020 C   0  0  0  0  0  0  0  0  0  0  0  0
   45.1220   33.4620   43.6530 N   0  0  0  0  0  0  0  0  0  0  0  0
   43.8660   36.5970   43.1760 H   0  0  0  0  0  0  0  0  0  0  0  0
   44.4500   36.7140   45.5190 H   0  0  0  0  0  0  0  0  0  0  0  0
   46.0110   32.4560   45.6660 C   0  0  1  0  0  0  0  0  0  0  0  0
   46.9620   32.7650   46.8000 C   0  0  0  0  0  0  0  0  0  0  0  0
   45.5530   32.3480   47.0680 C   0  0  1  0  0  0  0  0  0  0  0  0
   46.1270   31.5050   45.1210 H   0  0  0  0  0  0  0  0  0  0  0  0
   47.7290   31.9780   46.9730 H   0  0  0  0  0  0  0  0  0  0  0  0
   47.2770   33.8190   46.8710 H   0  0  0  0  0  0  0  0  0  0  0  0
   45.3740   31.3470   47.5280 H   0  0  0  0  0  0  0  0  0  0  0  0
   44.7610   33.4140   47.6610 N   0  0  0  0  0  0  0  0  0  0  0  0
   45.3060   33.9490   48.3860 H   0  0  0  0  0  0  0  0  0  0  0  0
   43.9330   33.0160   48.1320 H   0  0  0  0  0  0  0  0  0  0  0  0
  1  2  1  0  0  0  0
  1 11  1  0  0  0  0
  2 23  1  0  0  0  0
  3  7  1  0  0  0  0
  3  2  2  0  0  0  0
  4  3  1  0  0  0  0
  5  6  1  0  0  0  0
  5  4  2  0  0  0  0
  6  1  2  0  0  0  0
  8  4  1  0  0  0  0
  9  5  1  0  0  0  0
 10  6  1  0  0  0  0
 11 13  2  0  0  0  0
 12 11  2  0  0  0  0
 15 14  1  0  0  0  0
 16 11  1  0  0  0  0
 16 15  2  0  0  0  0
 17 16  1  0  0  0  0
 18 17  1  0  0  0  0
 19 17  2  0  0  0  0
 19 21  1  0  0  0  0
 20 19  1  0  0  0  0
 21 22  2  0  0  0  0
 22 15  1  0  0  0  0
 23 25  1  0  0  0  0
 24 23  2  0  0  0  0
 25 26  2  0  0  0  0
 25 30  1  0  0  0  0
 26 27  1  0  0  0  0
 27 32  1  0  0  0  0
 27 28  2  0  0  0  0
 29 28  1  0  0  0  0
 29 33  1  0  0  0  0
 30 29  2  0  0  0  0
 31 26  1  0  0  0  0
 33 36  1  6  0  0  0
 33 34  1  0  0  0  0
 33 35  1  0  0  0  0
 34 38  1  0  0  0  0
 34 37  1  0  0  0  0
 34 35  1  0  0  0  0
 35 39  1  1  0  0  0
 35 40  1  0  0  0  0
 40 42  1  0  0  0  0
 40 41  1  0  0  0  0
M  END
>  <minimizedAffinity>
-5.80452156

>  <minimizedRMSD>
0.882235944

$$$$
