
 OpenBabel03252508023D

 42 45  0  0  1  0  0  0  0  0999 V2000
   42.0390   33.2750   41.1080 C   0  0  0  0  0  0  0  0  0  0  0  0
   42.7900   34.3970   41.3050 C   0  0  0  0  0  0  0  0  0  0  0  0
   42.1330   35.6430   41.2840 C   0  0  0  0  0  0  0  0  0  0  0  0
   40.7830   35.7830   41.0760 C   0  0  0  0  0  0  0  0  0  0  0  0
   40.0360   34.6520   40.8780 C   0  0  0  0  0  0  0  0  0  0  0  0
   40.6640   33.4450   40.8980 C   0  0  0  0  0  0  0  0  0  0  0  0
   42.6480   36.5870   41.4210 H   0  0  0  0  0  0  0  0  0  0  0  0
   40.2940   36.7200   41.0590 H   0  0  0  0  0  0  0  0  0  0  0  0
   38.9890   34.6920   40.7140 H   0  0  0  0  0  0  0  0  0  0  0  0
   40.0620   32.5570   40.7410 H   0  0  0  0  0  0  0  0  0  0  0  0
   42.6730   31.7210   41.2160 S   0  0  0  0  0  0  0  0  0  0  0  0
   41.5320   30.9050   40.5300 O   0  0  0  0  0  0  0  0  0  0  0  0
   42.7790   31.2290   42.6120 O   0  0  0  0  0  0  0  0  0  0  0  0
   43.1340   32.5700   38.5110 F   0  0  0  0  0  0  0  0  0  0  0  0
   43.8720   31.4740   38.9090 C   0  0  0  0  0  0  0  0  0  0  0  0
   43.7440   30.9010   40.2060 C   0  0  0  0  0  0  0  0  0  0  0  0
   44.6020   29.8150   40.3360 C   0  0  0  0  0  0  0  0  0  0  0  0
   44.5230   29.4210   41.3670 H   0  0  0  0  0  0  0  0  0  0  0  0
   45.5010   29.2290   39.4790 C   0  0  0  0  0  0  0  0  0  0  0  0
   46.0630   28.3890   39.7930 H   0  0  0  0  0  0  0  0  0  0  0  0
   45.4800   29.9130   38.2950 C   0  0  0  0  0  3  0  0  0  0  0  0
   44.7260   31.0010   37.9460 C   0  0  0  0  0  3  0  0  0  0  0  0
   44.2250   34.3560   41.5340 C   0  0  0  0  0  0  0  0  0  0  0  0
   45.0950   34.2550   40.6150 O   0  0  0  0  0  0  0  0  0  0  0  0
   44.5790   34.4430   42.9290 C   0  0  0  0  0  0  0  0  0  0  0  0
   44.3060   35.7060   43.5580 C   0  0  0  0  0  0  0  0  0  0  0  0
   44.6340   35.8160   44.8960 C   0  0  0  0  0  0  0  0  0  0  0  0
   45.1850   34.7390   45.5250 N   0  0  0  0  0  0  0  0  0  0  0  0
   45.4230   33.5570   44.8730 C   0  0  0  0  0  0  0  0  0  0  0  0
   45.1220   33.4450   43.6250 N   0  0  0  0  0  0  0  0  0  0  0  0
   43.8860   36.5870   43.1480 H   0  0  0  0  0  0  0  0  0  0  0  0
   44.4830   36.7060   45.4870 H   0  0  0  0  0  0  0  0  0  0  0  0
   46.0130   32.4360   45.6360 C   0  0  1  0  0  0  0  0  0  0  0  0
   46.9660   32.7410   46.7690 C   0  0  0  0  0  0  0  0  0  0  0  0
   45.5550   32.3300   47.0390 C   0  0  1  0  0  0  0  0  0  0  0  0
   46.1240   31.4850   45.0920 H   0  0  0  0  0  0  0  0  0  0  0  0
   47.7300   31.9510   46.9420 H   0  0  0  0  0  0  0  0  0  0  0  0
   47.2850   33.7940   46.8410 H   0  0  0  0  0  0  0  0  0  0  0  0
   45.3720   31.3300   47.4990 H   0  0  0  0  0  0  0  0  0  0  0  0
   44.7680   33.4000   47.6320 N   0  0  0  0  0  0  0  0  0  0  0  0
   45.3160   33.9320   48.3570 H   0  0  0  0  0  0  0  0  0  0  0  0
   43.9380   33.0050   48.1030 H   0  0  0  0  0  0  0  0  0  0  0  0
  1 11  1  0  0  0  0
  1  2  1  0  0  0  0
  2 23  1  0  0  0  0
  3  2  2  0  0  0  0
  3  7  1  0  0  0  0
  4  3  1  0  0  0  0
  5  6  1  0  0  0  0
  5  4  2  0  0  0  0
  6  1  2  0  0  0  0
  8  4  1  0  0  0  0
  9  5  1  0  0  0  0
 10  6  1  0  0  0  0
 11 13  2  0  0  0  0
 12 11  2  0  0  0  0
 14 15  1  0  0  0  0
 15 16  1  0  0  0  0
 16 17  2  0  0  0  0
 16 11  1  0  0  0  0
 17 18  1  0  0  0  0
 19 20  1  0  0  0  0
 19 17  1  0  0  0  0
 21 19  2  0  0  0  0
 22 21  1  0  0  0  0
 22 15  2  0  0  0  0
 23 25  1  0  0  0  0
 24 23  2  0  0  0  0
 25 26  2  0  0  0  0
 25 30  1  0  0  0  0
 26 27  1  0  0  0  0
 27 32  1  0  0  0  0
 27 28  2  0  0  0  0
 29 28  1  0  0  0  0
 29 33  1  0  0  0  0
 30 29  2  0  0  0  0
 31 26  1  0  0  0  0
 33 36  1  6  0  0  0
 33 34  1  0  0  0  0
 33 35  1  0  0  0  0
 34 38  1  0  0  0  0
 34 37  1  0  0  0  0
 34 35  1  0  0  0  0
 35 39  1  1  0  0  0
 35 40  1  0  0  0  0
 40 42  1  0  0  0  0
 40 41  1  0  0  0  0
M  END
>  <minimizedAffinity>
-5.83441782

>  <minimizedRMSD>
1.42841256

$$$$
