
 OpenBabel03252508023D

 42 45  0  0  1  0  0  0  0  0999 V2000
   42.0750   33.2710   41.0770 C   0  0  0  0  0  0  0  0  0  0  0  0
   42.8070   34.3960   41.3290 C   0  0  0  0  0  0  0  0  0  0  0  0
   42.1310   35.6300   41.3610 C   0  0  0  0  0  0  0  0  0  0  0  0
   40.7790   35.7580   41.1530 C   0  0  0  0  0  0  0  0  0  0  0  0
   40.0510   34.6260   40.9000 C   0  0  0  0  0  0  0  0  0  0  0  0
   40.6990   33.4290   40.8670 C   0  0  0  0  0  0  0  0  0  0  0  0
   42.6300   36.5750   41.5440 H   0  0  0  0  0  0  0  0  0  0  0  0
   40.2750   36.6870   41.1770 H   0  0  0  0  0  0  0  0  0  0  0  0
   39.0050   34.6570   40.7310 H   0  0  0  0  0  0  0  0  0  0  0  0
   40.1110   32.5400   40.6670 H   0  0  0  0  0  0  0  0  0  0  0  0
   42.7340   31.7250   41.1170 S   0  0  0  0  0  0  0  0  0  0  0  0
   41.5420   30.8990   40.5370 O   0  0  0  0  0  0  0  0  0  0  0  0
   42.9760   31.2280   42.4940 O   0  0  0  0  0  0  0  0  0  0  0  0
   45.5350   31.3120   41.6090 F   0  0  0  0  0  0  0  0  0  0  0  0
   45.0680   30.7800   40.4230 C   0  0  0  0  0  0  0  0  0  0  0  0
   43.7140   30.9210   40.0070 C   0  0  0  0  0  0  0  0  0  0  0  0
   43.5230   30.2920   38.7820 C   0  0  0  0  0  0  0  0  0  0  0  0
   42.4540   30.3700   38.5060 H   0  0  0  0  0  0  0  0  0  0  0  0
   44.3650   29.5990   37.9490 C   0  0  0  0  0  0  0  0  0  0  0  0
   44.0000   29.1940   37.0410 H   0  0  0  0  0  0  0  0  0  0  0  0
   45.6100   29.5710   38.5150 C   0  0  0  0  0  3  0  0  0  0  0  0
   46.0240   30.1150   39.6990 C   0  0  0  0  0  3  0  0  0  0  0  0
   44.2410   34.3660   41.5630 C   0  0  0  0  0  0  0  0  0  0  0  0
   45.1160   34.2730   40.6480 O   0  0  0  0  0  0  0  0  0  0  0  0
   44.5900   34.4560   42.9600 C   0  0  0  0  0  0  0  0  0  0  0  0
   44.3090   35.7200   43.5870 C   0  0  0  0  0  0  0  0  0  0  0  0
   44.6310   35.8320   44.9250 C   0  0  0  0  0  0  0  0  0  0  0  0
   45.1830   34.7580   45.5580 N   0  0  0  0  0  0  0  0  0  0  0  0
   45.4290   33.5760   44.9080 C   0  0  0  0  0  0  0  0  0  0  0  0
   45.1330   33.4620   43.6600 N   0  0  0  0  0  0  0  0  0  0  0  0
   43.8870   36.5990   43.1740 H   0  0  0  0  0  0  0  0  0  0  0  0
   44.4740   36.7230   45.5150 H   0  0  0  0  0  0  0  0  0  0  0  0
   46.0200   32.4590   45.6760 C   0  0  1  0  0  0  0  0  0  0  0  0
   46.9620   32.7690   46.8160 C   0  0  0  0  0  0  0  0  0  0  0  0
   45.5520   32.3500   47.0750 C   0  0  1  0  0  0  0  0  0  0  0  0
   46.1410   31.5090   45.1320 H   0  0  0  0  0  0  0  0  0  0  0  0
   47.7300   31.9840   46.9950 H   0  0  0  0  0  0  0  0  0  0  0  0
   47.2750   33.8240   46.8910 H   0  0  0  0  0  0  0  0  0  0  0  0
   45.3720   31.3480   47.5330 H   0  0  0  0  0  0  0  0  0  0  0  0
   44.7540   33.4140   47.6630 N   0  0  0  0  0  0  0  0  0  0  0  0
   45.2930   33.9490   48.3920 H   0  0  0  0  0  0  0  0  0  0  0  0
   43.9230   33.0140   48.1280 H   0  0  0  0  0  0  0  0  0  0  0  0
  1 11  1  0  0  0  0
  1  2  1  0  0  0  0
  2  3  2  0  0  0  0
  2 23  1  0  0  0  0
  3  7  1  0  0  0  0
  4  8  1  0  0  0  0
  4  3  1  0  0  0  0
  5  4  2  0  0  0  0
  6  5  1  0  0  0  0
  6  1  2  0  0  0  0
  9  5  1  0  0  0  0
 10  6  1  0  0  0  0
 11 13  2  0  0  0  0
 12 11  2  0  0  0  0
 15 14  1  0  0  0  0
 16 15  1  0  0  0  0
 16 11  1  0  0  0  0
 17 16  2  0  0  0  0
 18 17  1  0  0  0  0
 19 21  2  0  0  0  0
 19 17  1  0  0  0  0
 20 19  1  0  0  0  0
 21 22  1  0  0  0  0
 22 15  2  0  0  0  0
 23 25  1  0  0  0  0
 24 23  2  0  0  0  0
 25 26  2  0  0  0  0
 25 30  1  0  0  0  0
 26 27  1  0  0  0  0
 27 32  1  0  0  0  0
 27 28  2  0  0  0  0
 29 28  1  0  0  0  0
 29 33  1  0  0  0  0
 30 29  2  0  0  0  0
 31 26  1  0  0  0  0
 33 36  1  6  0  0  0
 33 34  1  0  0  0  0
 33 35  1  0  0  0  0
 34 38  1  0  0  0  0
 34 37  1  0  0  0  0
 34 35  1  0  0  0  0
 35 39  1  1  0  0  0
 35 40  1  0  0  0  0
 40 42  1  0  0  0  0
 40 41  1  0  0  0  0
M  END
>  <minimizedAffinity>
-5.75169182

>  <minimizedRMSD>
1.61903036

$$$$
