
     RDKit          3D

 39 41  0  0  0  0  0  0  0  0999 V2000
   46.3293   34.9954   41.9183 C   0  0  0  0  0  0  0  0  0  0  0  0
   44.8527   34.9417   41.6984 C   0  0  0  0  0  0  0  0  0  0  0  0
   43.9707   35.4351   42.7071 C   0  0  0  0  0  0  0  0  0  0  0  0
   42.3080   35.1518   41.9763 S   0  0  0  0  0  0  0  0  0  0  0  0
   43.0988   34.4053   40.4123 C   0  0  0  0  0  0  0  0  0  0  0  0
   44.2153   34.4829   40.6587 N   0  0  0  0  0  0  0  0  0  0  0  0
   42.3517   33.9329   39.3353 O   0  0  0  0  0  0  0  0  0  0  0  0
   40.4151   34.4022   37.5850 O   0  0  0  0  0  0  0  0  0  0  0  0
   41.4966   35.0834   38.4150 P   0  0  0  0  0  0  0  0  0  0  0  0
   40.7631   36.1570   39.4965 O   0  0  0  0  0  0  0  0  0  0  0  0
   42.5577   35.9469   37.4263 O   0  0  0  0  0  0  0  0  0  0  0  0
   47.1217   34.3245   40.8460 C   0  0  0  0  0  0  0  0  0  0  0  0
   48.4682   33.8978   41.2830 C   0  0  0  0  0  0  0  0  0  0  0  0
   48.9311   32.6894   40.7825 C   0  0  0  0  0  0  0  0  0  0  0  0
   50.1942   32.2336   41.1583 C   0  0  0  0  0  0  0  0  0  0  0  0
   50.9232   33.0064   42.0101 N   0  0  0  0  0  0  0  0  0  0  0  0
   50.4358   34.1758   42.4740 C   0  0  0  0  0  0  0  0  0  0  0  0
   49.2357   34.5991   42.1109 N   0  0  0  0  0  0  0  0  0  0  0  0
   47.9111   31.7276   39.6639 S   0  0  0  0  0  0  0  0  0  0  0  0
   46.6308   36.0604   41.9766 H   0  0  0  0  0  0  0  0  0  0  0  0
   46.5346   34.5172   42.8956 H   0  0  0  0  0  0  0  0  0  0  0  0
   44.2464   35.8657   43.6604 H   0  0  0  0  0  0  0  0  0  0  0  0
   39.9577   35.6798   39.8528 H   0  0  0  0  0  0  0  0  0  0  0  0
   43.0350   35.3649   36.7977 H   0  0  0  0  0  0  0  0  0  0  0  0
   46.5298   33.4858   40.4611 H   0  0  0  0  0  0  0  0  0  0  0  0
   47.2733   35.0643   40.0274 H   0  0  0  0  0  0  0  0  0  0  0  0
   50.5899   31.2953   40.7885 H   0  0  0  0  0  0  0  0  0  0  0  0
   51.1090   34.6974   43.1428 H   0  0  0  0  0  0  0  0  0  0  0  0
   49.4191   30.0508   37.8200 F   0  0  0  0  0  0  0  0  0  0  0  0
   48.9356   31.2017   37.2795 C   0  0  0  0  0  0  0  0  0  0  0  0
   48.1915   32.1501   37.9661 C   0  0  0  0  0  0  0  0  0  0  0  0
   47.7654   33.2751   37.2848 C   0  0  0  0  0  0  0  0  0  0  0  0
   47.1942   33.9593   37.8929 H   0  0  0  0  0  0  0  0  0  0  0  0
   48.0843   33.4270   35.9606 C   0  0  0  0  0  0  0  0  0  0  0  0
   47.7381   34.3128   35.4592 H   0  0  0  0  0  0  0  0  0  0  0  0
   48.8238   32.4860   35.2751 C   0  0  0  0  0  0  0  0  0  0  0  0
   49.2566   31.3571   35.9412 C   0  0  0  0  0  0  0  0  0  0  0  0
   49.0703   32.6145   34.2306 H   0  0  0  0  0  0  0  0  0  0  0  0
   49.8300   30.6454   35.3767 H   0  0  0  0  0  0  0  0  0  0  0  0
  2  1  1  0
  2  3  2  0
  4  3  1  0
  5  6  2  0
  5  4  1  0
  6  2  1  0
  7  5  1  0
  8  9  2  0
  9  7  1  0
  9 10  1  0
 11  9  1  0
 12 13  1  0
 12  1  1  0
 13 18  2  0
 14 15  2  0
 14 13  1  0
 15 16  1  0
 16 17  2  0
 18 17  1  0
 19 14  1  0
  1 20  1  0
  1 21  1  0
  3 22  1  0
 10 23  1  0
 11 24  1  0
 12 25  1  0
 12 26  1  0
 15 27  1  0
 17 28  1  0
 29 30  1  0
 30 31  2  0
 31 32  1  0
 32 33  1  0
 32 34  2  0
 34 35  1  0
 34 36  1  0
 36 37  2  0
 37 30  1  0
 36 38  1  0
 37 39  1  0
 19 31  1  0
M  ISO  8  20   8  21   8  22  14  23   3  24   3  25   8  26   8  27  14
M  ISO  3  28  14  33  15  35  16
M  END
>  <DihAtoms>  (1) 
13,18,30,29

>  <DihDeg>  (1) 
-179.99983481360618

$$$$
