
 OpenBabel03252508023D

 42 45  0  0  1  0  0  0  0  0999 V2000
   42.0390   33.2760   41.1070 C   0  0  0  0  0  0  0  0  0  0  0  0
   42.7900   34.3990   41.3040 C   0  0  0  0  0  0  0  0  0  0  0  0
   42.1340   35.6440   41.2830 C   0  0  0  0  0  0  0  0  0  0  0  0
   40.7830   35.7840   41.0750 C   0  0  0  0  0  0  0  0  0  0  0  0
   40.0360   34.6530   40.8770 C   0  0  0  0  0  0  0  0  0  0  0  0
   40.6640   33.4460   40.8960 C   0  0  0  0  0  0  0  0  0  0  0  0
   42.6480   36.5880   41.4210 H   0  0  0  0  0  0  0  0  0  0  0  0
   40.2940   36.7210   41.0590 H   0  0  0  0  0  0  0  0  0  0  0  0
   38.9900   34.6930   40.7120 H   0  0  0  0  0  0  0  0  0  0  0  0
   40.0620   32.5580   40.7390 H   0  0  0  0  0  0  0  0  0  0  0  0
   42.6740   31.7220   41.2140 S   0  0  0  0  0  0  0  0  0  0  0  0
   41.5330   30.9070   40.5270 O   0  0  0  0  0  0  0  0  0  0  0  0
   42.7800   31.2290   42.6090 O   0  0  0  0  0  0  0  0  0  0  0  0
   43.1320   32.5710   38.5080 F   0  0  0  0  0  0  0  0  0  0  0  0
   43.8720   31.4760   38.9070 C   0  0  0  0  0  0  0  0  0  0  0  0
   43.7450   30.9030   40.2030 C   0  0  0  0  0  0  0  0  0  0  0  0
   44.6040   29.8170   40.3330 C   0  0  0  0  0  0  0  0  0  0  0  0
   44.5250   29.4230   41.3640 H   0  0  0  0  0  0  0  0  0  0  0  0
   45.5030   29.2320   39.4760 C   0  0  0  0  0  0  0  0  0  0  0  0
   46.0660   28.3920   39.7890 H   0  0  0  0  0  0  0  0  0  0  0  0
   45.4810   29.9160   38.2920 C   0  0  0  0  0  3  0  0  0  0  0  0
   44.7260   31.0020   37.9430 C   0  0  0  0  0  3  0  0  0  0  0  0
   44.2250   34.3570   41.5330 C   0  0  0  0  0  0  0  0  0  0  0  0
   45.0960   34.2570   40.6150 O   0  0  0  0  0  0  0  0  0  0  0  0
   44.5800   34.4430   42.9290 C   0  0  0  0  0  0  0  0  0  0  0  0
   44.3070   35.7070   43.5580 C   0  0  0  0  0  0  0  0  0  0  0  0
   44.6340   35.8160   44.8950 C   0  0  0  0  0  0  0  0  0  0  0  0
   45.1850   34.7390   45.5240 N   0  0  0  0  0  0  0  0  0  0  0  0
   45.4230   33.5570   44.8720 C   0  0  0  0  0  0  0  0  0  0  0  0
   45.1210   33.4460   43.6250 N   0  0  0  0  0  0  0  0  0  0  0  0
   43.8870   36.5880   43.1480 H   0  0  0  0  0  0  0  0  0  0  0  0
   44.4830   36.7070   45.4870 H   0  0  0  0  0  0  0  0  0  0  0  0
   46.0120   32.4360   45.6360 C   0  0  1  0  0  0  0  0  0  0  0  0
   46.9650   32.7410   46.7680 C   0  0  0  0  0  0  0  0  0  0  0  0
   45.5540   32.3310   47.0390 C   0  0  1  0  0  0  0  0  0  0  0  0
   46.1230   31.4850   45.0910 H   0  0  0  0  0  0  0  0  0  0  0  0
   47.7290   31.9500   46.9410 H   0  0  0  0  0  0  0  0  0  0  0  0
   47.2860   33.7940   46.8400 H   0  0  0  0  0  0  0  0  0  0  0  0
   45.3710   31.3310   47.4990 H   0  0  0  0  0  0  0  0  0  0  0  0
   44.7680   33.4010   47.6320 N   0  0  0  0  0  0  0  0  0  0  0  0
   45.3170   33.9330   48.3560 H   0  0  0  0  0  0  0  0  0  0  0  0
   43.9390   33.0070   48.1040 H   0  0  0  0  0  0  0  0  0  0  0  0
  1 11  1  0  0  0  0
  1  2  1  0  0  0  0
  2 23  1  0  0  0  0
  3  2  2  0  0  0  0
  3  7  1  0  0  0  0
  4  3  1  0  0  0  0
  5  6  1  0  0  0  0
  5  4  2  0  0  0  0
  6  1  2  0  0  0  0
  8  4  1  0  0  0  0
  9  5  1  0  0  0  0
 10  6  1  0  0  0  0
 11 13  2  0  0  0  0
 12 11  2  0  0  0  0
 14 15  1  0  0  0  0
 15 16  1  0  0  0  0
 16 17  2  0  0  0  0
 16 11  1  0  0  0  0
 17 18  1  0  0  0  0
 19 20  1  0  0  0  0
 19 17  1  0  0  0  0
 21 19  2  0  0  0  0
 22 21  1  0  0  0  0
 22 15  2  0  0  0  0
 23 25  1  0  0  0  0
 24 23  2  0  0  0  0
 25 26  2  0  0  0  0
 25 30  1  0  0  0  0
 26 27  1  0  0  0  0
 27 32  1  0  0  0  0
 27 28  2  0  0  0  0
 29 28  1  0  0  0  0
 29 33  1  0  0  0  0
 30 29  2  0  0  0  0
 31 26  1  0  0  0  0
 33 36  1  6  0  0  0
 33 34  1  0  0  0  0
 33 35  1  0  0  0  0
 34 38  1  0  0  0  0
 34 37  1  0  0  0  0
 34 35  1  0  0  0  0
 35 39  1  1  0  0  0
 35 40  1  0  0  0  0
 40 42  1  0  0  0  0
 40 41  1  0  0  0  0
M  END
>  <minimizedAffinity>
-5.8377161

>  <minimizedRMSD>
1.36581624

$$$$
