
 OpenBabel03252508593D

 45 47  0  0  1  0  0  0  0  0999 V2000
   47.2100   33.9250   43.5540 N   0  0  0  0  0  0  0  0  0  0  0  0
   46.8560   35.1230   42.8880 C   0  0  0  0  0  0  0  0  0  0  0  0
   45.3780   35.4630   42.9360 C   0  0  0  0  0  0  0  0  0  0  0  0
   44.7020   35.0720   44.2290 C   0  0  0  0  0  0  0  0  0  0  0  0
   45.6700   34.4630   45.2100 C   0  0  0  0  0  0  0  0  0  0  0  0
   46.3200   33.2830   44.4010 C   0  0  2  0  0  0  0  0  0  0  0  0
   47.1830   35.2140   41.8530 H   0  0  0  0  0  0  0  0  0  0  0  0
   47.3650   35.9570   43.4340 H   0  0  0  0  0  0  0  0  0  0  0  0
   45.2310   36.5020   42.6430 H   0  0  0  0  0  0  0  0  0  0  0  0
   44.9160   34.8240   42.1360 H   0  0  0  0  0  0  0  0  0  0  0  0
   43.8170   34.4430   44.0900 H   0  0  0  0  0  0  0  0  0  0  0  0
   44.3500   36.0290   44.6860 H   0  0  0  0  0  0  0  0  0  0  0  0
   45.0970   34.0530   46.0430 H   0  0  0  0  0  0  0  0  0  0  0  0
   46.4580   35.1810   45.4690 H   0  0  0  0  0  0  0  0  0  0  0  0
   45.4670   32.7310   43.9600 H   0  0  0  0  0  0  0  0  0  0  0  0
   48.1970   33.1440   42.8690 C   0  0  0  0  0  0  0  0  0  0  0  0
   48.8580   33.8610   42.3320 H   0  0  0  0  0  0  0  0  0  0  0  0
   48.8160   32.5630   43.5630 H   0  0  0  0  0  0  0  0  0  0  0  0
   47.5190   32.2410   41.8970 C   0  0  0  0  0  0  0  0  0  0  0  0
   47.6980   31.1850   42.1080 H   0  0  0  0  0  0  0  0  0  0  0  0
   46.4020   32.3720   41.9400 H   0  0  0  0  0  0  0  0  0  0  0  0
   49.4060   32.1140   38.6500 C   0  0  0  0  0  0  0  0  0  0  0  0
   48.9680   31.8110   39.9540 C   0  0  0  0  0  0  0  0  0  0  0  0
   47.9710   32.5700   40.5210 C   0  0  0  0  0  0  0  0  0  0  0  0
   47.4580   33.5770   39.7950 N   0  0  0  0  0  0  0  0  0  0  0  0
   47.8890   33.8540   38.5450 C   0  0  0  0  0  0  0  0  0  0  0  0
   48.8640   33.1260   37.9660 N   0  0  0  0  0  0  0  0  0  0  0  0
   50.1950   31.4910   38.2320 H   0  0  0  0  0  0  0  0  0  0  0  0
   49.4070   31.0030   40.4870 H   0  0  0  0  0  0  0  0  0  0  0  0
   47.4850   34.6630   37.9460 H   0  0  0  0  0  0  0  0  0  0  0  0
   46.9770   32.5840   45.4060 O   0  0  0  0  0  0  0  0  0  0  0  0
   45.4730   30.5630   44.5840 O   0  0  0  0  0  0  0  0  0  0  0  0
   46.2260   31.1260   45.7720 P   0  0  2  0  0  0  0  0  0  0  0  0
   45.0400   31.4800   46.9530 O   0  0  0  0  0  0  0  0  0  0  0  0
   45.3840   32.1300   47.6170 H   0  0  0  0  0  0  0  0  0  0  0  0
   47.2870   30.0000   46.4210 O   0  0  0  0  0  0  0  0  0  0  0  0
   49.5570   28.5520   46.4520 F   0  0  0  0  0  0  0  0  0  0  0  0
   49.3170   29.5240   47.3870 C   0  0  0  0  0  0  0  0  0  0  0  0
   48.1800   30.3050   47.4340 C   0  0  0  0  0  0  0  0  0  0  0  0
   48.0720   31.2520   48.4380 C   0  0  0  0  0  0  0  0  0  0  0  0
   47.1550   31.8140   48.3990 H   0  0  0  0  0  0  0  0  0  0  0  0
   49.0710   31.4110   49.3620 C   0  0  0  0  0  0  0  0  0  0  0  0
   48.9040   32.1840   50.1250 H   0  0  0  0  0  0  0  0  0  0  0  0
   50.2150   30.6430   49.3360 C   0  0  0  0  0  3  0  0  0  0  0  0
   50.3360   29.6830   48.3270 C   0  0  0  0  0  3  0  0  0  0  0  0
  1  6  1  0  0  0  0
  2  3  1  0  0  0  0
  2  8  1  0  0  0  0
  2  1  1  0  0  0  0
  3  4  1  0  0  0  0
  4 12  1  0  0  0  0
  4  5  1  0  0  0  0
  5 14  1  0  0  0  0
  5 13  1  0  0  0  0
  6 15  1  6  0  0  0
  6  5  1  0  0  0  0
  6 31  1  0  0  0  0
  7  2  1  0  0  0  0
  9  3  1  0  0  0  0
 10  3  1  0  0  0  0
 11  4  1  0  0  0  0
 16  1  1  0  0  0  0
 16 18  1  0  0  0  0
 17 16  1  0  0  0  0
 19 21  1  0  0  0  0
 19 20  1  0  0  0  0
 19 16  1  0  0  0  0
 22 23  1  0  0  0  0
 23 29  1  0  0  0  0
 23 24  2  0  0  0  0
 24 19  1  0  0  0  0
 25 24  1  0  0  0  0
 26 25  2  0  0  0  0
 27 26  1  0  0  0  0
 27 22  2  0  0  0  0
 28 22  1  0  0  0  0
 30 26  1  0  0  0  0
 31 33  1  0  0  0  0
 33 32  2  6  0  0  0
 33 36  1  0  0  0  0
 33 34  1  0  0  0  0
 34 35  1  0  0  0  0
 36 39  1  0  0  0  0
 37 38  1  0  0  0  0
 38 39  2  0  0  0  0
 38 45  1  0  0  0  0
 39 40  1  0  0  0  0
 40 42  2  0  0  0  0
 41 40  1  0  0  0  0
 42 43  1  0  0  0  0
 44 42  1  0  0  0  0
 45 44  2  0  0  0  0
M  END
>  <minimizedAffinity>
-4.64079666

>  <minimizedRMSD>
0.940258741

$$$$
