
 OpenBabel03252508593D

 45 47  0  0  1  0  0  0  0  0999 V2000
   47.1600   33.8550   42.8280 N   0  0  0  0  0  0  0  0  0  0  0  0
   46.9390   35.2300   42.5670 C   0  0  0  0  0  0  0  0  0  0  0  0
   45.5230   35.7070   42.8360 C   0  0  0  0  0  0  0  0  0  0  0  0
   44.8640   35.0300   44.0140 C   0  0  0  0  0  0  0  0  0  0  0  0
   45.7880   34.0520   44.6930 C   0  0  0  0  0  0  0  0  0  0  0  0
   46.2340   33.0980   43.5270 C   0  0  2  0  0  0  0  0  0  0  0  0
   47.2240   35.5850   41.5770 H   0  0  0  0  0  0  0  0  0  0  0  0
   47.5800   35.8010   43.2840 H   0  0  0  0  0  0  0  0  0  0  0  0
   45.5030   36.7960   42.8680 H   0  0  0  0  0  0  0  0  0  0  0  0
   44.9420   35.3910   41.9290 H   0  0  0  0  0  0  0  0  0  0  0  0
   43.8960   34.5760   43.7770 H   0  0  0  0  0  0  0  0  0  0  0  0
   44.6660   35.8430   44.7560 H   0  0  0  0  0  0  0  0  0  0  0  0
   45.2050   33.4820   45.4180 H   0  0  0  0  0  0  0  0  0  0  0  0
   46.6760   34.5660   45.0790 H   0  0  0  0  0  0  0  0  0  0  0  0
   45.2940   32.8030   43.0190 H   0  0  0  0  0  0  0  0  0  0  0  0
   47.9990   33.2050   41.8650 C   0  0  0  0  0  0  0  0  0  0  0  0
   48.7280   33.9680   41.5070 H   0  0  0  0  0  0  0  0  0  0  0  0
   48.5630   32.3740   42.3060 H   0  0  0  0  0  0  0  0  0  0  0  0
   47.1610   32.7210   40.7320 C   0  0  0  0  0  0  0  0  0  0  0  0
   46.9370   31.6540   40.8010 H   0  0  0  0  0  0  0  0  0  0  0  0
   46.1630   33.2390   40.7220 H   0  0  0  0  0  0  0  0  0  0  0  0
   49.3120   32.3170   37.6770 C   0  0  0  0  0  0  0  0  0  0  0  0
   48.6530   32.0490   38.8940 C   0  0  0  0  0  0  0  0  0  0  0  0
   47.8500   33.0160   39.4490 C   0  0  0  0  0  0  0  0  0  0  0  0
   47.7300   34.1850   38.7980 N   0  0  0  0  0  0  0  0  0  0  0  0
   48.3680   34.4260   37.6320 C   0  0  0  0  0  0  0  0  0  0  0  0
   49.1620   33.4960   37.0660 N   0  0  0  0  0  0  0  0  0  0  0  0
   49.9390   31.5290   37.2660 H   0  0  0  0  0  0  0  0  0  0  0  0
   48.7820   31.1070   39.3700 H   0  0  0  0  0  0  0  0  0  0  0  0
   48.2830   35.3640   37.0950 H   0  0  0  0  0  0  0  0  0  0  0  0
   46.8380   32.0620   44.2280 O   0  0  0  0  0  0  0  0  0  0  0  0
   46.4270   29.5570   43.4700 O   0  0  0  0  0  0  0  0  0  0  0  0
   45.8720   30.6900   44.3080 P   0  0  2  0  0  0  0  0  0  0  0  0
   44.3770   31.1130   43.5920 O   0  0  0  0  0  0  0  0  0  0  0  0
   44.1000   32.0260   43.8610 H   0  0  0  0  0  0  0  0  0  0  0  0
   45.5740   30.2030   45.8850 O   0  0  0  0  0  0  0  0  0  0  0  0
   45.1170   32.3050   47.5040 F   0  0  0  0  0  0  0  0  0  0  0  0
   46.1880   31.4740   47.6990 C   0  0  0  0  0  0  0  0  0  0  0  0
   46.4860   30.3790   46.9120 C   0  0  0  0  0  0  0  0  0  0  0  0
   47.6040   29.6260   47.2270 C   0  0  0  0  0  0  0  0  0  0  0  0
   47.7620   28.7940   46.5630 H   0  0  0  0  0  0  0  0  0  0  0  0
   48.3960   29.9600   48.2940 C   0  0  0  0  0  0  0  0  0  0  0  0
   49.2630   29.3100   48.4740 H   0  0  0  0  0  0  0  0  0  0  0  0
   48.1190   31.0480   49.0950 C   0  0  0  0  0  3  0  0  0  0  0  0
   46.9910   31.8160   48.7860 C   0  0  0  0  0  3  0  0  0  0  0  0
  1  6  1  0  0  0  0
  2  1  1  0  0  0  0
  2  3  1  0  0  0  0
  2  8  1  0  0  0  0
  3  9  1  0  0  0  0
  3  4  1  0  0  0  0
  4  5  1  0  0  0  0
  4 12  1  0  0  0  0
  5 14  1  0  0  0  0
  5 13  1  0  0  0  0
  6 15  1  6  0  0  0
  6 31  1  0  0  0  0
  6  5  1  0  0  0  0
  7  2  1  0  0  0  0
 10  3  1  0  0  0  0
 11  4  1  0  0  0  0
 16 18  1  0  0  0  0
 16  1  1  0  0  0  0
 17 16  1  0  0  0  0
 19 20  1  0  0  0  0
 19 16  1  0  0  0  0
 21 19  1  0  0  0  0
 22 23  1  0  0  0  0
 23 29  1  0  0  0  0
 23 24  2  0  0  0  0
 24 19  1  0  0  0  0
 25 24  1  0  0  0  0
 26 25  2  0  0  0  0
 27 26  1  0  0  0  0
 27 22  2  0  0  0  0
 28 22  1  0  0  0  0
 30 26  1  0  0  0  0
 31 33  1  0  0  0  0
 33 32  2  6  0  0  0
 33 36  1  0  0  0  0
 34 35  1  0  0  0  0
 34 33  1  0  0  0  0
 36 39  1  0  0  0  0
 37 38  1  0  0  0  0
 38 45  1  0  0  0  0
 39 40  1  0  0  0  0
 39 38  2  0  0  0  0
 40 42  2  0  0  0  0
 41 40  1  0  0  0  0
 42 43  1  0  0  0  0
 42 44  1  0  0  0  0
 45 44  2  0  0  0  0
M  END
>  <minimizedAffinity>
-4.89578867

>  <minimizedRMSD>
1.47124243

$$$$
