
 OpenBabel03252503153D

 36 39  0  0  0  0  0  0  0  0999 V2000
   46.0230   34.6990   41.7420 C   0  0  0  0  0  0  0  0  0  0  0  0
   47.2490   34.9560   41.5220 O   0  0  0  0  0  0  0  0  0  0  0  0
   45.0530   34.2610   40.6790 C   0  0  0  0  0  0  0  0  0  0  0  0
   43.7280   34.6150   40.5900 C   0  0  0  0  0  0  0  0  0  0  0  0
   43.2610   33.9910   39.4860 N   0  0  0  0  0  0  0  0  0  0  0  0
   44.2670   33.2870   38.9300 C   0  0  0  0  0  0  0  0  0  0  0  0
   45.3800   33.4510   39.6650 N   0  0  0  0  0  0  0  0  0  0  0  0
   44.2730   32.4730   37.7660 N   0  0  0  0  0  0  0  0  0  0  0  0
   43.1970   35.2580   41.2730 H   0  0  0  0  0  0  0  0  0  0  0  0
   44.8880   31.6720   37.6370 H   0  0  0  0  0  0  0  0  0  0  0  0
   43.6180   32.6670   36.9510 H   0  0  0  0  0  0  0  0  0  0  0  0
   42.5340   36.0410   37.8590 F   0  0  0  0  0  0  0  0  0  0  0  0
   41.5770   35.1160   38.1460 C   0  0  0  0  0  0  0  0  0  0  0  0
   41.9310   34.0550   38.9810 C   0  0  0  0  0  0  0  0  0  0  0  0
   40.9990   33.0830   39.3090 C   0  0  0  0  0  0  0  0  0  0  0  0
   41.2460   32.2450   39.9550 H   0  0  0  0  0  0  0  0  0  0  0  0
   39.7050   33.1760   38.7960 C   0  0  0  0  0  0  0  0  0  0  0  0
   38.9700   32.4000   39.0600 H   0  0  0  0  0  0  0  0  0  0  0  0
   39.3530   34.2210   37.9710 C   0  0  0  0  0  3  0  0  0  0  0  0
   40.2810   35.2030   37.6370 C   0  0  0  0  0  3  0  0  0  0  0  0
   44.9690   36.0430   43.4920 C   0  0  0  0  0  0  0  0  0  0  0  0
   45.5910   34.8470   43.0780 C   0  0  0  0  0  0  0  0  0  0  0  0
   45.7220   33.8940   44.0650 C   0  0  0  0  0  0  0  0  0  0  0  0
   45.2900   34.0930   45.3220 N   0  0  0  0  0  0  0  0  0  0  0  0
   44.6980   35.2640   45.6670 C   0  0  0  0  0  0  0  0  0  0  0  0
   44.5420   36.2290   44.7520 N   0  0  0  0  0  0  0  0  0  0  0  0
   44.8210   36.8610   42.7740 H   0  0  0  0  0  0  0  0  0  0  0  0
   44.3670   35.3760   46.6950 H   0  0  0  0  0  0  0  0  0  0  0  0
   46.3370   32.6610   43.7400 C   0  0  0  0  0  0  0  0  0  0  0  0
   47.6100   32.1830   43.7690 C   0  0  0  0  0  0  0  0  0  0  0  0
   47.9000   30.9540   43.3980 C   0  0  0  0  0  0  0  0  0  0  0  0
   46.8810   30.1710   42.9820 C   0  0  0  0  0  0  0  0  0  0  0  0
   45.4220   31.2610   43.1310 S   0  0  0  0  0  0  0  0  0  0  0  0
   48.3630   32.9140   44.1290 H   0  0  0  0  0  0  0  0  0  0  0  0
   48.8820   30.4980   43.3920 H   0  0  0  0  0  0  0  0  0  0  0  0
   46.8280   29.1280   42.6230 H   0  0  0  0  0  0  0  0  0  0  0  0
  1 22  1  0  0  0  0
  2  1  2  0  0  0  0
  3  1  1  0  0  0  0
  4  3  2  0  0  0  0
  4  9  1  0  0  0  0
  5  4  1  0  0  0  0
  6  5  1  0  0  0  0
  6  7  2  0  0  0  0
  7  3  1  0  0  0  0
  8  6  1  0  0  0  0
 10  8  1  0  0  0  0
 11  8  1  0  0  0  0
 12 13  1  0  0  0  0
 13 14  1  0  0  0  0
 14 15  2  0  0  0  0
 14  5  1  0  0  0  0
 15 16  1  0  0  0  0
 17 18  1  0  0  0  0
 17 15  1  0  0  0  0
 19 17  2  0  0  0  0
 20 19  1  0  0  0  0
 20 13  2  0  0  0  0
 21 26  1  0  0  0  0
 22 21  2  0  0  0  0
 22 23  1  0  0  0  0
 23 24  2  0  0  0  0
 24 25  1  0  0  0  0
 25 28  1  0  0  0  0
 26 25  2  0  0  0  0
 27 21  1  0  0  0  0
 29 30  2  0  0  0  0
 29 23  1  0  0  0  0
 30 34  1  0  0  0  0
 31 30  1  0  0  0  0
 32 33  1  0  0  0  0
 32 31  2  0  0  0  0
 33 29  1  0  0  0  0
 35 31  1  0  0  0  0
 36 32  1  0  0  0  0
M  END
>  <minimizedAffinity>
-6.15783358

>  <minimizedRMSD>
1.18135047

$$$$
