
     RDKit          3D

 38 41  0  0  0  0  0  0  0  0999 V2000
   45.2177   36.1731   43.4964 C   0  0  0  0  0  0  0  0  0  0  0  0
   45.8717   34.9694   43.1641 C   0  0  0  0  0  0  0  0  0  0  0  0
   45.8153   33.9955   44.1367 C   0  0  0  0  0  0  0  0  0  0  0  0
   45.1852   34.1825   45.3089 N   0  0  0  0  0  0  0  0  0  0  0  0
   44.5712   35.3622   45.5775 C   0  0  0  0  0  0  0  0  0  0  0  0
   44.5920   36.3469   44.6709 N   0  0  0  0  0  0  0  0  0  0  0  0
   46.4471   32.7525   43.8910 C   0  0  0  0  0  0  0  0  0  0  0  0
   47.7155   32.2755   44.0124 C   0  0  0  0  0  0  0  0  0  0  0  0
   48.0248   31.0350   43.7005 C   0  0  0  0  0  0  0  0  0  0  0  0
   47.0315   30.2380   43.2498 C   0  0  0  0  0  0  0  0  0  0  0  0
   45.5676   31.3319   43.2747 S   0  0  0  0  0  0  0  0  0  0  0  0
   46.5165   34.8342   41.9153 C   0  0  0  0  0  0  0  0  0  0  0  0
   47.7163   35.2530   41.8598 O   0  0  0  0  0  0  0  0  0  0  0  0
   45.7861   34.2246   40.7497 C   0  0  0  0  0  0  0  0  0  0  0  0
   44.4393   34.3226   40.4917 C   0  0  0  0  0  0  0  0  0  0  0  0
   44.2377   33.6260   39.3522 N   0  0  0  0  0  0  0  0  0  0  0  0
   45.4196   33.1261   38.9379 C   0  0  0  0  0  0  0  0  0  0  0  0
   46.3817   33.4938   39.7997 N   0  0  0  0  0  0  0  0  0  0  0  0
   45.7232   32.3311   37.7999 N   0  0  0  0  0  0  0  0  0  0  0  0
   45.2098   37.0078   42.7820 H   0  0  0  0  0  0  0  0  0  0  0  0
   44.0756   35.4643   46.5387 H   0  0  0  0  0  0  0  0  0  0  0  0
   48.4457   33.0192   44.3916 H   0  0  0  0  0  0  0  0  0  0  0  0
   49.0049   30.5803   43.7682 H   0  0  0  0  0  0  0  0  0  0  0  0
   46.9991   29.1839   42.9228 H   0  0  0  0  0  0  0  0  0  0  0  0
   43.7171   34.8518   41.0911 H   0  0  0  0  0  0  0  0  0  0  0  0
   46.4877   31.6610   37.7645 H   0  0  0  0  0  0  0  0  0  0  0  0
   45.1499   32.4013   36.9075 H   0  0  0  0  0  0  0  0  0  0  0  0
   41.9662   34.6554   40.4276 F   0  0  0  0  0  0  0  0  0  0  0  0
   41.8374   33.9770   39.2548 C   0  0  0  0  0  0  0  0  0  0  0  0
   42.9931   33.4402   38.6859 C   0  0  0  0  0  0  0  0  0  0  0  0
   42.9247   32.7391   37.4923 C   0  0  0  0  0  0  0  0  0  0  0  0
   43.8071   32.3103   37.0259 H   0  0  0  0  0  0  0  0  0  0  0  0
   41.6885   32.5760   36.8663 C   0  0  0  0  0  0  0  0  0  0  0  0
   41.6415   32.0180   35.9185 H   0  0  0  0  0  0  0  0  0  0  0  0
   40.5467   33.1044   37.4253 C   0  0  0  0  0  0  0  0  0  0  0  0
   40.6047   33.8099   38.6231 C   0  0  0  0  0  0  0  0  0  0  0  0
   39.5931   32.9802   36.9451 H   0  0  0  0  0  0  0  0  0  0  0  0
   39.7132   34.2459   39.0989 H   0  0  0  0  0  0  0  0  0  0  0  0
  1  6  2  0
  2  1  1  0
  2  3  2  0
  3  4  1  0
  4  5  2  0
  6  5  1  0
  7  8  2  0
  7  3  1  0
  9  8  1  0
 10 11  1  0
 10  9  2  0
 11  7  1  0
 12  2  1  0
 13 12  2  0
 14 12  1  0
 15 14  2  0
 16 15  1  0
 17 16  1  0
 17 18  2  0
 18 14  1  0
 19 17  1  0
  1 20  1  0
  5 21  1  0
  8 22  1  0
  9 23  1  0
 10 24  1  0
 15 25  1  0
 19 26  1  0
 19 27  1  0
 28 29  1  0
 29 30  2  0
 30 31  1  0
 31 32  1  0
 31 33  2  0
 33 34  1  0
 33 35  1  0
 35 36  2  0
 36 29  1  0
 35 37  1  0
 36 38  1  0
 16 30  1  0
M  ISO  8  20  14  21  14  22  14  23  14  24  14  25  14  32  15  34  16
M  END
>  <DihAtoms>  (1) 
14,15,29,28

>  <DihDeg>  (1) 
-107.25386850351023

$$$$
