
 OpenBabel03252503153D

 36 39  0  0  0  0  0  0  0  0999 V2000
   45.9190   34.6120   41.6410 C   0  0  0  0  0  0  0  0  0  0  0  0
   47.1520   34.8000   41.3950 O   0  0  0  0  0  0  0  0  0  0  0  0
   44.9040   34.2230   40.6010 C   0  0  0  0  0  0  0  0  0  0  0  0
   43.5750   34.5740   40.5880 C   0  0  0  0  0  0  0  0  0  0  0  0
   43.0620   34.0040   39.4750 N   0  0  0  0  0  0  0  0  0  0  0  0
   44.0450   33.3340   38.8410 C   0  0  0  0  0  0  0  0  0  0  0  0
   45.1890   33.4660   39.5340 N   0  0  0  0  0  0  0  0  0  0  0  0
   44.0030   32.5790   37.6380 N   0  0  0  0  0  0  0  0  0  0  0  0
   43.0730   35.1790   41.3240 H   0  0  0  0  0  0  0  0  0  0  0  0
   44.6140   31.7890   37.4430 H   0  0  0  0  0  0  0  0  0  0  0  0
   43.3120   32.8100   36.8630 H   0  0  0  0  0  0  0  0  0  0  0  0
   42.3390   35.9290   37.7020 F   0  0  0  0  0  0  0  0  0  0  0  0
   41.3600   35.0820   38.1200 C   0  0  0  0  0  0  0  0  0  0  0  0
   41.7110   34.0860   39.0320 C   0  0  0  0  0  0  0  0  0  0  0  0
   40.7570   33.1940   39.4950 C   0  0  0  0  0  0  0  0  0  0  0  0
   41.0000   32.4080   40.2050 H   0  0  0  0  0  0  0  0  0  0  0  0
   39.4420   33.3030   39.0400 C   0  0  0  0  0  0  0  0  0  0  0  0
   38.6900   32.5910   39.4110 H   0  0  0  0  0  0  0  0  0  0  0  0
   39.0930   34.2850   38.1400 C   0  0  0  0  0  3  0  0  0  0  0  0
   40.0440   35.1850   37.6690 C   0  0  0  0  0  3  0  0  0  0  0  0
   44.9620   36.0150   43.4010 C   0  0  0  0  0  0  0  0  0  0  0  0
   45.5230   34.7900   42.9850 C   0  0  0  0  0  0  0  0  0  0  0  0
   45.6350   33.8410   43.9780 C   0  0  0  0  0  0  0  0  0  0  0  0
   45.2400   34.0700   45.2420 N   0  0  0  0  0  0  0  0  0  0  0  0
   44.7060   35.2680   45.5890 C   0  0  0  0  0  0  0  0  0  0  0  0
   44.5710   36.2300   44.6670 N   0  0  0  0  0  0  0  0  0  0  0  0
   44.8320   36.8330   42.6780 H   0  0  0  0  0  0  0  0  0  0  0  0
   44.4020   35.4030   46.6230 H   0  0  0  0  0  0  0  0  0  0  0  0
   46.1900   32.5800   43.6520 C   0  0  0  0  0  0  0  0  0  0  0  0
   47.4410   32.0480   43.6590 C   0  0  0  0  0  0  0  0  0  0  0  0
   47.6700   30.8040   43.2940 C   0  0  0  0  0  0  0  0  0  0  0  0
   46.6100   30.0620   42.9050 C   0  0  0  0  0  0  0  0  0  0  0  0
   45.2030   31.2160   43.0740 S   0  0  0  0  0  0  0  0  0  0  0  0
   48.2320   32.7480   43.9980 H   0  0  0  0  0  0  0  0  0  0  0  0
   48.6310   30.3060   43.2720 H   0  0  0  0  0  0  0  0  0  0  0  0
   46.5050   29.0200   42.5560 H   0  0  0  0  0  0  0  0  0  0  0  0
  1 22  1  0  0  0  0
  2  1  2  0  0  0  0
  3  1  1  0  0  0  0
  4  3  2  0  0  0  0
  4  9  1  0  0  0  0
  5  4  1  0  0  0  0
  6  5  1  0  0  0  0
  6  7  2  0  0  0  0
  7  3  1  0  0  0  0
  8  6  1  0  0  0  0
 10  8  1  0  0  0  0
 11  8  1  0  0  0  0
 12 13  1  0  0  0  0
 13 14  1  0  0  0  0
 14  5  1  0  0  0  0
 14 15  2  0  0  0  0
 15 16  1  0  0  0  0
 17 18  1  0  0  0  0
 17 15  1  0  0  0  0
 19 17  2  0  0  0  0
 20 13  2  0  0  0  0
 20 19  1  0  0  0  0
 21 26  1  0  0  0  0
 22 21  2  0  0  0  0
 22 23  1  0  0  0  0
 23 24  2  0  0  0  0
 24 25  1  0  0  0  0
 25 28  1  0  0  0  0
 26 25  2  0  0  0  0
 27 21  1  0  0  0  0
 29 30  2  0  0  0  0
 29 23  1  0  0  0  0
 30 34  1  0  0  0  0
 31 30  1  0  0  0  0
 32 33  1  0  0  0  0
 32 31  2  0  0  0  0
 33 29  1  0  0  0  0
 35 31  1  0  0  0  0
 36 32  1  0  0  0  0
M  END
>  <minimizedAffinity>
-6.18641329

>  <minimizedRMSD>
1.26633286

$$$$
