
 OpenBabel03252508593D

 45 47  0  0  1  0  0  0  0  0999 V2000
   47.1590   33.8530   42.8270 N   0  0  0  0  0  0  0  0  0  0  0  0
   46.9390   35.2280   42.5660 C   0  0  0  0  0  0  0  0  0  0  0  0
   45.5240   35.7050   42.8370 C   0  0  0  0  0  0  0  0  0  0  0  0
   44.8660   35.0290   44.0160 C   0  0  0  0  0  0  0  0  0  0  0  0
   45.7890   34.0510   44.6940 C   0  0  0  0  0  0  0  0  0  0  0  0
   46.2330   33.0960   43.5280 C   0  0  2  0  0  0  0  0  0  0  0  0
   47.2230   35.5820   41.5760 H   0  0  0  0  0  0  0  0  0  0  0  0
   47.5810   35.7980   43.2820 H   0  0  0  0  0  0  0  0  0  0  0  0
   45.5040   36.7940   42.8680 H   0  0  0  0  0  0  0  0  0  0  0  0
   44.9410   35.3890   41.9310 H   0  0  0  0  0  0  0  0  0  0  0  0
   43.8970   34.5760   43.7800 H   0  0  0  0  0  0  0  0  0  0  0  0
   44.6690   35.8420   44.7580 H   0  0  0  0  0  0  0  0  0  0  0  0
   45.2070   33.4810   45.4200 H   0  0  0  0  0  0  0  0  0  0  0  0
   46.6790   34.5640   45.0790 H   0  0  0  0  0  0  0  0  0  0  0  0
   45.2930   32.8020   43.0220 H   0  0  0  0  0  0  0  0  0  0  0  0
   47.9970   33.2020   41.8640 C   0  0  0  0  0  0  0  0  0  0  0  0
   48.7280   33.9630   41.5070 H   0  0  0  0  0  0  0  0  0  0  0  0
   48.5580   32.3690   42.3040 H   0  0  0  0  0  0  0  0  0  0  0  0
   47.1580   32.7220   40.7300 C   0  0  0  0  0  0  0  0  0  0  0  0
   46.9310   31.6560   40.7970 H   0  0  0  0  0  0  0  0  0  0  0  0
   46.1610   33.2430   40.7200 H   0  0  0  0  0  0  0  0  0  0  0  0
   49.3130   32.3170   37.6780 C   0  0  0  0  0  0  0  0  0  0  0  0
   48.6530   32.0500   38.8930 C   0  0  0  0  0  0  0  0  0  0  0  0
   47.8480   33.0170   39.4480 C   0  0  0  0  0  0  0  0  0  0  0  0
   47.7290   34.1850   38.7960 N   0  0  0  0  0  0  0  0  0  0  0  0
   48.3690   34.4260   37.6310 C   0  0  0  0  0  0  0  0  0  0  0  0
   49.1630   33.4960   37.0660 N   0  0  0  0  0  0  0  0  0  0  0  0
   49.9410   31.5280   37.2670 H   0  0  0  0  0  0  0  0  0  0  0  0
   48.7800   31.1080   39.3700 H   0  0  0  0  0  0  0  0  0  0  0  0
   48.2840   35.3630   37.0930 H   0  0  0  0  0  0  0  0  0  0  0  0
   46.8380   32.0610   44.2290 O   0  0  0  0  0  0  0  0  0  0  0  0
   46.4270   29.5550   43.4710 O   0  0  0  0  0  0  0  0  0  0  0  0
   45.8730   30.6880   44.3080 P   0  0  2  0  0  0  0  0  0  0  0  0
   44.3770   31.1110   43.5930 O   0  0  0  0  0  0  0  0  0  0  0  0
   44.1010   32.0240   43.8620 H   0  0  0  0  0  0  0  0  0  0  0  0
   45.5740   30.2010   45.8870 O   0  0  0  0  0  0  0  0  0  0  0  0
   45.1170   32.3040   47.5040 F   0  0  0  0  0  0  0  0  0  0  0  0
   46.1880   31.4740   47.6990 C   0  0  0  0  0  0  0  0  0  0  0  0
   46.4870   30.3780   46.9130 C   0  0  0  0  0  0  0  0  0  0  0  0
   47.6050   29.6260   47.2280 C   0  0  0  0  0  0  0  0  0  0  0  0
   47.7620   28.7930   46.5650 H   0  0  0  0  0  0  0  0  0  0  0  0
   48.3960   29.9610   48.2950 C   0  0  0  0  0  0  0  0  0  0  0  0
   49.2640   29.3110   48.4750 H   0  0  0  0  0  0  0  0  0  0  0  0
   48.1190   31.0490   49.0940 C   0  0  0  0  0  3  0  0  0  0  0  0
   46.9920   31.8170   48.7860 C   0  0  0  0  0  3  0  0  0  0  0  0
  1  6  1  0  0  0  0
  2  1  1  0  0  0  0
  2  3  1  0  0  0  0
  2  8  1  0  0  0  0
  3  9  1  0  0  0  0
  3  4  1  0  0  0  0
  4  5  1  0  0  0  0
  4 12  1  0  0  0  0
  5 14  1  0  0  0  0
  5 13  1  0  0  0  0
  6 15  1  6  0  0  0
  6 31  1  0  0  0  0
  6  5  1  0  0  0  0
  7  2  1  0  0  0  0
 10  3  1  0  0  0  0
 11  4  1  0  0  0  0
 16 18  1  0  0  0  0
 16  1  1  0  0  0  0
 17 16  1  0  0  0  0
 19 20  1  0  0  0  0
 19 16  1  0  0  0  0
 21 19  1  0  0  0  0
 22 23  1  0  0  0  0
 23 29  1  0  0  0  0
 23 24  2  0  0  0  0
 24 19  1  0  0  0  0
 25 24  1  0  0  0  0
 26 25  2  0  0  0  0
 27 26  1  0  0  0  0
 27 22  2  0  0  0  0
 28 22  1  0  0  0  0
 30 26  1  0  0  0  0
 31 33  1  0  0  0  0
 33 32  2  6  0  0  0
 33 36  1  0  0  0  0
 34 35  1  0  0  0  0
 34 33  1  0  0  0  0
 36 39  1  0  0  0  0
 37 38  1  0  0  0  0
 38 45  1  0  0  0  0
 39 40  1  0  0  0  0
 39 38  2  0  0  0  0
 40 42  2  0  0  0  0
 41 40  1  0  0  0  0
 42 43  1  0  0  0  0
 42 44  1  0  0  0  0
 45 44  2  0  0  0  0
M  END
>  <minimizedAffinity>
-4.89608574

>  <minimizedRMSD>
1.49105179

$$$$
