
 OpenBabel03252505483D

 29 31  0  0  1  0  0  0  0  0999 V2000
   36.7720   30.6300   40.3070 C   0  0  0  0  0  0  0  0  0  0  0  0
   36.3250   30.0790   39.0830 C   0  0  0  0  0  0  0  0  0  0  0  0
   35.9370   28.7310   38.9990 C   0  0  0  0  0  0  0  0  0  0  0  0
   36.0230   28.0120   40.1540 N   0  0  0  0  0  0  0  0  0  0  0  0
   36.4580   28.5810   41.3100 C   0  0  0  0  0  0  0  0  0  0  0  0
   36.8230   29.8500   41.3910 N   0  0  0  0  0  0  0  0  0  0  0  0
   36.2500   30.6330   38.1580 H   0  0  0  0  0  0  0  0  0  0  0  0
   35.5950   28.3060   38.0670 H   0  0  0  0  0  0  0  0  0  0  0  0
   37.1780   32.0440   40.3220 C   0  0  1  0  0  0  0  0  0  0  0  0
   38.5980   32.2280   39.6700 C   0  0  1  0  0  0  0  0  0  0  0  0
   37.3180   32.8690   39.1820 C   0  0  0  0  0  0  0  0  0  0  0  0
   37.1170   32.4880   41.3510 H   0  0  0  0  0  0  0  0  0  0  0  0
   39.0280   31.3870   39.1360 H   0  0  0  0  0  0  0  0  0  0  0  0
   37.2180   33.9550   39.2490 H   0  0  0  0  0  0  0  0  0  0  0  0
   37.0250   32.4980   38.1560 H   0  0  0  0  0  0  0  0  0  0  0  0
   39.4970   33.1730   40.4310 C   0  0  0  0  0  0  0  0  0  0  0  0
   40.3280   32.5440   41.3120 F   0  0  0  0  0  0  0  0  0  0  0  0
   40.3020   33.8680   39.5060 F   0  0  0  0  0  0  0  0  0  0  0  0
   38.7550   34.1610   41.0600 F   0  0  0  0  0  0  0  0  0  0  0  0
   36.4920   27.7180   42.3990 O   0  0  0  0  0  0  0  0  0  0  0  0
   36.6500   25.1110   41.6110 F   0  0  0  0  0  0  0  0  0  0  0  0
   37.6510   25.7410   42.3090 C   0  0  0  0  0  0  0  0  0  0  0  0
   37.6550   27.0680   42.7510 C   0  0  0  0  0  0  0  0  0  0  0  0
   38.7580   27.5070   43.4380 C   0  0  0  0  0  0  0  0  0  0  0  0
   38.6650   28.5520   43.7390 H   0  0  0  0  0  0  0  0  0  0  0  0
   39.8190   26.6730   43.6800 C   0  0  0  0  0  0  0  0  0  0  0  0
   40.6500   27.0930   44.2260 H   0  0  0  0  0  0  0  0  0  0  0  0
   39.8270   25.3640   43.2500 C   0  0  0  0  0  3  0  0  0  0  0  0
   38.7250   24.9030   42.5560 C   0  0  0  0  0  3  0  0  0  0  0  0
  1  9  1  0  0  0  0
  1  6  1  0  0  0  0
  2  1  2  0  0  0  0
  3  2  1  0  0  0  0
  3  4  2  0  0  0  0
  4  5  1  0  0  0  0
  5  6  2  0  0  0  0
  5 20  1  0  0  0  0
  7  2  1  0  0  0  0
  8  3  1  0  0  0  0
  9 12  1  1  0  0  0
 10 13  1  6  0  0  0
 10  9  1  0  0  0  0
 10 16  1  0  0  0  0
 11 14  1  0  0  0  0
 11 10  1  0  0  0  0
 11  9  1  0  0  0  0
 15 11  1  0  0  0  0
 16 19  1  0  0  0  0
 16 17  1  0  0  0  0
 18 16  1  0  0  0  0
 20 23  1  0  0  0  0
 21 22  1  0  0  0  0
 22 29  2  0  0  0  0
 22 23  1  0  0  0  0
 23 24  2  0  0  0  0
 24 26  1  0  0  0  0
 24 25  1  0  0  0  0
 26 27  1  0  0  0  0
 28 26  2  0  0  0  0
 29 28  1  0  0  0  0
M  END
>  <minimizedAffinity>
-5.7545352

$$$$

 OpenBabel03252505483D

 29 31  0  0  1  0  0  0  0  0999 V2000
   37.1960   26.8820   42.2740 C   0  0  0  0  0  0  0  0  0  0  0  0
   38.0430   27.4890   43.2310 C   0  0  0  0  0  0  0  0  0  0  0  0
   38.1450   28.8890   43.3180 C   0  0  0  0  0  0  0  0  0  0  0  0
   37.3870   29.5980   42.4350 N   0  0  0  0  0  0  0  0  0  0  0  0
   36.5860   28.9740   41.5310 C   0  0  0  0  0  0  0  0  0  0  0  0
   36.4880   27.6580   41.4480 N   0  0  0  0  0  0  0  0  0  0  0  0
   38.6510   26.9440   43.9390 H   0  0  0  0  0  0  0  0  0  0  0  0
   38.7910   29.3560   44.0470 H   0  0  0  0  0  0  0  0  0  0  0  0
   37.1480   25.4120   42.2270 C   0  0  1  0  0  0  0  0  0  0  0  0
   37.8100   24.8710   40.9070 C   0  0  1  0  0  0  0  0  0  0  0  0
   38.2670   24.5530   42.3120 C   0  0  0  0  0  0  0  0  0  0  0  0
   36.1070   25.0210   42.3760 H   0  0  0  0  0  0  0  0  0  0  0  0
   38.3720   25.5690   40.2930 H   0  0  0  0  0  0  0  0  0  0  0  0
   38.1700   23.5260   42.6740 H   0  0  0  0  0  0  0  0  0  0  0  0
   39.2990   24.9600   42.5240 H   0  0  0  0  0  0  0  0  0  0  0  0
   37.0350   23.7530   40.2530 C   0  0  0  0  0  0  0  0  0  0  0  0
   35.6820   23.8970   40.3510 F   0  0  0  0  0  0  0  0  0  0  0  0
   37.3630   23.7220   38.8820 F   0  0  0  0  0  0  0  0  0  0  0  0
   37.4450   22.5200   40.7370 F   0  0  0  0  0  0  0  0  0  0  0  0
   35.8790   29.8340   40.6990 O   0  0  0  0  0  0  0  0  0  0  0  0
   36.9690   32.3350   40.6620 F   0  0  0  0  0  0  0  0  0  0  0  0
   36.9340   31.5210   39.5560 C   0  0  0  0  0  0  0  0  0  0  0  0
   36.3990   30.2310   39.4850 C   0  0  0  0  0  0  0  0  0  0  0  0
   36.4630   29.5810   38.2790 C   0  0  0  0  0  0  0  0  0  0  0  0
   36.0200   28.5850   38.3260 H   0  0  0  0  0  0  0  0  0  0  0  0
   37.0340   30.1760   37.1840 C   0  0  0  0  0  0  0  0  0  0  0  0
   37.0460   29.6000   36.2710 H   0  0  0  0  0  0  0  0  0  0  0  0
   37.5650   31.4460   37.2420 C   0  0  0  0  0  3  0  0  0  0  0  0
   37.5100   32.1170   38.4480 C   0  0  0  0  0  3  0  0  0  0  0  0
  1  2  1  0  0  0  0
  2  3  2  0  0  0  0
  2  7  1  0  0  0  0
  3  8  1  0  0  0  0
  4  3  1  0  0  0  0
  5  4  2  0  0  0  0
  6  5  1  0  0  0  0
  6  1  2  0  0  0  0
  9  1  1  0  0  0  0
  9 11  1  0  0  0  0
  9 12  1  1  0  0  0
 10 13  1  6  0  0  0
 10  9  1  0  0  0  0
 10 11  1  0  0  0  0
 11 15  1  0  0  0  0
 11 14  1  0  0  0  0
 16 17  1  0  0  0  0
 16 19  1  0  0  0  0
 16 10  1  0  0  0  0
 18 16  1  0  0  0  0
 20  5  1  0  0  0  0
 22 21  1  0  0  0  0
 23 22  1  0  0  0  0
 23 20  1  0  0  0  0
 24 25  1  0  0  0  0
 24 23  2  0  0  0  0
 26 28  2  0  0  0  0
 26 24  1  0  0  0  0
 27 26  1  0  0  0  0
 28 29  1  0  0  0  0
 29 22  2  0  0  0  0
M  END
>  <minimizedAffinity>
-5.68345451

$$$$

 OpenBabel03252505483D

 29 31  0  0  1  0  0  0  0  0999 V2000
   36.8740   30.7220   38.2780 C   0  0  0  0  0  0  0  0  0  0  0  0
   37.4370   32.0190   38.2220 C   0  0  0  0  0  0  0  0  0  0  0  0
   37.7060   32.7390   39.3990 C   0  0  0  0  0  0  0  0  0  0  0  0
   37.3910   32.1120   40.5680 N   0  0  0  0  0  0  0  0  0  0  0  0
   36.8510   30.8640   40.5760 C   0  0  0  0  0  0  0  0  0  0  0  0
   36.5980   30.1840   39.4700 N   0  0  0  0  0  0  0  0  0  0  0  0
   37.6930   32.5330   37.3060 H   0  0  0  0  0  0  0  0  0  0  0  0
   38.1350   33.7290   39.3610 H   0  0  0  0  0  0  0  0  0  0  0  0
   36.6040   30.0300   37.0080 C   0  0  1  0  0  0  0  0  0  0  0  0
   37.0100   28.5140   37.0970 C   0  0  1  0  0  0  0  0  0  0  0  0
   35.6200   29.0340   36.8110 C   0  0  0  0  0  0  0  0  0  0  0  0
   37.0800   30.5520   36.1360 H   0  0  0  0  0  0  0  0  0  0  0  0
   37.2520   28.1050   38.0730 H   0  0  0  0  0  0  0  0  0  0  0  0
   35.1850   28.8510   35.8250 H   0  0  0  0  0  0  0  0  0  0  0  0
   34.8910   28.7660   37.6300 H   0  0  0  0  0  0  0  0  0  0  0  0
   37.7330   28.0060   35.8730 C   0  0  0  0  0  0  0  0  0  0  0  0
   37.3970   28.6680   34.7270 F   0  0  0  0  0  0  0  0  0  0  0  0
   39.1190   28.1690   36.0700 F   0  0  0  0  0  0  0  0  0  0  0  0
   37.5600   26.6370   35.7300 F   0  0  0  0  0  0  0  0  0  0  0  0
   36.5830   30.3620   41.8440 O   0  0  0  0  0  0  0  0  0  0  0  0
   39.0860   30.4310   42.9280 F   0  0  0  0  0  0  0  0  0  0  0  0
   38.3680   29.2680   42.7840 C   0  0  0  0  0  0  0  0  0  0  0  0
   37.0850   29.1410   42.2420 C   0  0  0  0  0  0  0  0  0  0  0  0
   36.5400   27.8840   42.1870 C   0  0  0  0  0  0  0  0  0  0  0  0
   35.5400   27.8890   41.7490 H   0  0  0  0  0  0  0  0  0  0  0  0
   37.2290   26.7920   42.6470 C   0  0  0  0  0  0  0  0  0  0  0  0
   36.7330   25.8370   42.5700 H   0  0  0  0  0  0  0  0  0  0  0  0
   38.4940   26.9050   43.1830 C   0  0  0  0  0  3  0  0  0  0  0  0
   39.0610   28.1630   43.2480 C   0  0  0  0  0  3  0  0  0  0  0  0
  1  6  1  0  0  0  0
  2  1  2  0  0  0  0
  2  3  1  0  0  0  0
  3  4  2  0  0  0  0
  4  5  1  0  0  0  0
  5 20  1  0  0  0  0
  6  5  2  0  0  0  0
  7  2  1  0  0  0  0
  8  3  1  0  0  0  0
  9 12  1  6  0  0  0
  9 10  1  0  0  0  0
  9  1  1  0  0  0  0
 10 13  1  1  0  0  0
 11  9  1  0  0  0  0
 11 10  1  0  0  0  0
 11 15  1  0  0  0  0
 14 11  1  0  0  0  0
 16 18  1  0  0  0  0
 16 10  1  0  0  0  0
 17 16  1  0  0  0  0
 19 16  1  0  0  0  0
 20 23  1  0  0  0  0
 22 21  1  0  0  0  0
 22 29  1  0  0  0  0
 23 22  2  0  0  0  0
 24 23  1  0  0  0  0
 24 26  2  0  0  0  0
 25 24  1  0  0  0  0
 26 28  1  0  0  0  0
 27 26  1  0  0  0  0
 28 29  2  0  0  0  0
M  END
>  <minimizedAffinity>
-5.48666191

$$$$

 OpenBabel03252505483D

 29 31  0  0  1  0  0  0  0  0999 V2000
   38.8770   28.4050   42.8580 C   0  0  0  0  0  0  0  0  0  0  0  0
   39.9640   29.3100   42.9030 C   0  0  0  0  0  0  0  0  0  0  0  0
   39.8610   30.5880   42.3270 C   0  0  0  0  0  0  0  0  0  0  0  0
   38.6690   30.8830   41.7360 N   0  0  0  0  0  0  0  0  0  0  0  0
   37.6490   29.9830   41.7160 C   0  0  0  0  0  0  0  0  0  0  0  0
   37.7430   28.7800   42.2580 N   0  0  0  0  0  0  0  0  0  0  0  0
   40.9160   29.0940   43.3670 H   0  0  0  0  0  0  0  0  0  0  0  0
   40.6890   31.2810   42.3590 H   0  0  0  0  0  0  0  0  0  0  0  0
   39.0560   27.0780   43.4680 C   0  0  1  0  0  0  0  0  0  0  0  0
   39.5790   26.0390   42.4080 C   0  0  1  0  0  0  0  0  0  0  0  0
   40.2970   26.4340   43.6790 C   0  0  0  0  0  0  0  0  0  0  0  0
   38.1270   26.7270   43.9910 H   0  0  0  0  0  0  0  0  0  0  0  0
   39.9180   26.4150   41.4480 H   0  0  0  0  0  0  0  0  0  0  0  0
   40.4230   25.6830   44.4630 H   0  0  0  0  0  0  0  0  0  0  0  0
   41.2710   26.9640   43.4660 H   0  0  0  0  0  0  0  0  0  0  0  0
   38.8970   24.6950   42.4890 C   0  0  0  0  0  0  0  0  0  0  0  0
   37.5350   24.7740   42.5150 F   0  0  0  0  0  0  0  0  0  0  0  0
   39.2590   23.9400   41.3550 F   0  0  0  0  0  0  0  0  0  0  0  0
   39.3780   23.9620   43.5640 F   0  0  0  0  0  0  0  0  0  0  0  0
   36.5010   30.4310   41.0750 O   0  0  0  0  0  0  0  0  0  0  0  0
   34.3000   28.8630   40.6940 F   0  0  0  0  0  0  0  0  0  0  0  0
   35.1010   29.2870   39.6610 C   0  0  0  0  0  0  0  0  0  0  0  0
   36.2420   30.0890   39.7640 C   0  0  0  0  0  0  0  0  0  0  0  0
   36.9060   30.4020   38.6060 C   0  0  0  0  0  0  0  0  0  0  0  0
   37.7800   31.0290   38.7900 H   0  0  0  0  0  0  0  0  0  0  0  0
   36.4650   29.9450   37.3910 C   0  0  0  0  0  0  0  0  0  0  0  0
   37.0400   30.2350   36.5260 H   0  0  0  0  0  0  0  0  0  0  0  0
   35.3420   29.1550   37.2770 C   0  0  0  0  0  3  0  0  0  0  0  0
   34.6590   28.8280   38.4330 C   0  0  0  0  0  3  0  0  0  0  0  0
  1  2  1  0  0  0  0
  1  9  1  0  0  0  0
  2  7  1  0  0  0  0
  3  8  1  0  0  0  0
  3  2  2  0  0  0  0
  4  3  1  0  0  0  0
  5  4  2  0  0  0  0
  5  6  1  0  0  0  0
  6  1  2  0  0  0  0
  9 11  1  0  0  0  0
  9 12  1  1  0  0  0
 10 13  1  6  0  0  0
 10 16  1  0  0  0  0
 10  9  1  0  0  0  0
 10 11  1  0  0  0  0
 11 14  1  0  0  0  0
 15 11  1  0  0  0  0
 16 17  1  0  0  0  0
 16 19  1  0  0  0  0
 18 16  1  0  0  0  0
 20  5  1  0  0  0  0
 22 23  1  0  0  0  0
 22 21  1  0  0  0  0
 23 20  1  0  0  0  0
 24 25  1  0  0  0  0
 24 23  2  0  0  0  0
 26 24  1  0  0  0  0
 27 26  1  0  0  0  0
 28 26  2  0  0  0  0
 28 29  1  0  0  0  0
 29 22  2  0  0  0  0
M  END
>  <minimizedAffinity>
-5.46912479

$$$$

 OpenBabel03252505483D

 29 31  0  0  1  0  0  0  0  0999 V2000
   38.8290   30.4470   41.6840 C   0  0  0  0  0  0  0  0  0  0  0  0
   40.2150   30.7260   41.6260 C   0  0  0  0  0  0  0  0  0  0  0  0
   41.1480   29.8670   42.2300 C   0  0  0  0  0  0  0  0  0  0  0  0
   40.6330   28.7740   42.8610 N   0  0  0  0  0  0  0  0  0  0  0  0
   39.2930   28.5430   42.8920 C   0  0  0  0  0  0  0  0  0  0  0  0
   38.4130   29.3500   42.3230 N   0  0  0  0  0  0  0  0  0  0  0  0
   40.6420   31.5870   41.1310 H   0  0  0  0  0  0  0  0  0  0  0  0
   42.2070   30.0760   42.1880 H   0  0  0  0  0  0  0  0  0  0  0  0
   37.9050   31.3960   41.0430 C   0  0  1  0  0  0  0  0  0  0  0  0
   37.6110   30.9780   39.5560 C   0  0  1  0  0  0  0  0  0  0  0  0
   36.5770   31.1090   40.6510 C   0  0  0  0  0  0  0  0  0  0  0  0
   38.2650   32.4560   41.1280 H   0  0  0  0  0  0  0  0  0  0  0  0
   37.9390   29.9960   39.2260 H   0  0  0  0  0  0  0  0  0  0  0  0
   35.8250   31.8980   40.5680 H   0  0  0  0  0  0  0  0  0  0  0  0
   36.0980   30.1180   40.9010 H   0  0  0  0  0  0  0  0  0  0  0  0
   37.6200   32.1350   38.5870 C   0  0  0  0  0  0  0  0  0  0  0  0
   36.8520   33.1890   38.9880 F   0  0  0  0  0  0  0  0  0  0  0  0
   38.9440   32.5980   38.4530 F   0  0  0  0  0  0  0  0  0  0  0  0
   37.2680   31.7140   37.3130 F   0  0  0  0  0  0  0  0  0  0  0  0
   38.9250   27.3900   43.5750 O   0  0  0  0  0  0  0  0  0  0  0  0
   36.2940   26.8360   43.1120 F   0  0  0  0  0  0  0  0  0  0  0  0
   37.3130   26.0090   42.7040 C   0  0  0  0  0  0  0  0  0  0  0  0
   38.6830   26.2130   42.8980 C   0  0  0  0  0  0  0  0  0  0  0  0
   39.5430   25.2620   42.4120 C   0  0  0  0  0  0  0  0  0  0  0  0
   40.5860   25.5110   42.6130 H   0  0  0  0  0  0  0  0  0  0  0  0
   39.0740   24.1510   41.7590 C   0  0  0  0  0  0  0  0  0  0  0  0
   39.8130   23.4490   41.4060 H   0  0  0  0  0  0  0  0  0  0  0  0
   37.7270   23.9390   41.5630 C   0  0  0  0  0  3  0  0  0  0  0  0
   36.8440   24.8860   42.0450 C   0  0  0  0  0  3  0  0  0  0  0  0
  1  6  1  0  0  0  0
  2  1  2  0  0  0  0
  2  3  1  0  0  0  0
  3  4  2  0  0  0  0
  4  5  1  0  0  0  0
  5 20  1  0  0  0  0
  6  5  2  0  0  0  0
  7  2  1  0  0  0  0
  8  3  1  0  0  0  0
  9 12  1  1  0  0  0
  9  1  1  0  0  0  0
 10 13  1  6  0  0  0
 10 11  1  0  0  0  0
 10  9  1  0  0  0  0
 11 15  1  0  0  0  0
 11  9  1  0  0  0  0
 14 11  1  0  0  0  0
 16 17  1  0  0  0  0
 16 10  1  0  0  0  0
 18 16  1  0  0  0  0
 19 16  1  0  0  0  0
 22 23  1  0  0  0  0
 22 21  1  0  0  0  0
 23 20  1  0  0  0  0
 24 25  1  0  0  0  0
 24 23  2  0  0  0  0
 26 24  1  0  0  0  0
 27 26  1  0  0  0  0
 28 26  2  0  0  0  0
 28 29  1  0  0  0  0
 29 22  2  0  0  0  0
M  END
>  <minimizedAffinity>
-5.34935522

$$$$

 OpenBabel03252505483D

 29 31  0  0  1  0  0  0  0  0999 V2000
   37.2600   28.3240   42.2020 C   0  0  0  0  0  0  0  0  0  0  0  0
   36.0710   27.9900   41.5130 C   0  0  0  0  0  0  0  0  0  0  0  0
   35.4290   28.9280   40.6860 C   0  0  0  0  0  0  0  0  0  0  0  0
   36.0230   30.1520   40.6000 N   0  0  0  0  0  0  0  0  0  0  0  0
   37.1670   30.4310   41.2800 C   0  0  0  0  0  0  0  0  0  0  0  0
   37.7730   29.5490   42.0580 N   0  0  0  0  0  0  0  0  0  0  0  0
   35.5850   27.0250   41.5680 H   0  0  0  0  0  0  0  0  0  0  0  0
   34.5210   28.6770   40.1580 H   0  0  0  0  0  0  0  0  0  0  0  0
   37.8710   27.2990   43.0640 C   0  0  1  0  0  0  0  0  0  0  0  0
   38.9720   26.4920   42.2830 C   0  0  1  0  0  0  0  0  0  0  0  0
   39.2050   27.3110   43.5320 C   0  0  0  0  0  0  0  0  0  0  0  0
   37.1010   26.6310   43.5330 H   0  0  0  0  0  0  0  0  0  0  0  0
   39.2910   26.8670   41.3150 H   0  0  0  0  0  0  0  0  0  0  0  0
   39.4910   26.7940   44.4510 H   0  0  0  0  0  0  0  0  0  0  0  0
   39.8820   28.1950   43.3380 H   0  0  0  0  0  0  0  0  0  0  0  0
   38.9260   25.0040   42.5320 C   0  0  0  0  0  0  0  0  0  0  0  0
   37.6600   24.4970   42.5740 F   0  0  0  0  0  0  0  0  0  0  0  0
   39.6140   24.3530   41.4890 F   0  0  0  0  0  0  0  0  0  0  0  0
   39.6370   24.6740   43.6770 F   0  0  0  0  0  0  0  0  0  0  0  0
   37.6470   31.7220   41.0910 O   0  0  0  0  0  0  0  0  0  0  0  0
   38.8550   34.1550   41.3430 F   0  0  0  0  0  0  0  0  0  0  0  0
   39.2090   33.2440   40.3770 C   0  0  0  0  0  0  0  0  0  0  0  0
   38.6460   31.9790   40.1760 C   0  0  0  0  0  0  0  0  0  0  0  0
   39.1440   31.2170   39.1500 C   0  0  0  0  0  0  0  0  0  0  0  0
   38.6410   30.2510   39.0750 H   0  0  0  0  0  0  0  0  0  0  0  0
   40.1570   31.6800   38.3510 C   0  0  0  0  0  0  0  0  0  0  0  0
   40.4940   31.0230   37.5660 H   0  0  0  0  0  0  0  0  0  0  0  0
   40.7180   32.9240   38.5390 C   0  0  0  0  0  3  0  0  0  0  0  0
   40.2310   33.7070   39.5680 C   0  0  0  0  0  3  0  0  0  0  0  0
  1  9  1  0  0  0  0
  2  7  1  0  0  0  0
  2  1  2  0  0  0  0
  3  2  1  0  0  0  0
  4  3  2  0  0  0  0
  4  5  1  0  0  0  0
  5  6  2  0  0  0  0
  6  1  1  0  0  0  0
  8  3  1  0  0  0  0
  9 11  1  0  0  0  0
  9 12  1  1  0  0  0
 10 13  1  6  0  0  0
 10 16  1  0  0  0  0
 10  9  1  0  0  0  0
 10 11  1  0  0  0  0
 11 14  1  0  0  0  0
 15 11  1  0  0  0  0
 16 17  1  0  0  0  0
 16 19  1  0  0  0  0
 18 16  1  0  0  0  0
 20  5  1  0  0  0  0
 22 21  1  0  0  0  0
 23 22  1  0  0  0  0
 23 20  1  0  0  0  0
 24 23  2  0  0  0  0
 25 24  1  0  0  0  0
 26 28  2  0  0  0  0
 26 24  1  0  0  0  0
 27 26  1  0  0  0  0
 28 29  1  0  0  0  0
 29 22  2  0  0  0  0
M  END
>  <minimizedAffinity>
-5.31415653

$$$$

 OpenBabel03252505483D

 29 31  0  0  1  0  0  0  0  0999 V2000
   35.9200   29.3610   39.5440 C   0  0  0  0  0  0  0  0  0  0  0  0
   36.5760   30.5760   39.8500 C   0  0  0  0  0  0  0  0  0  0  0  0
   37.1810   30.7720   41.1030 C   0  0  0  0  0  0  0  0  0  0  0  0
   37.0900   29.7320   41.9790 N   0  0  0  0  0  0  0  0  0  0  0  0
   36.4500   28.5800   41.6440 C   0  0  0  0  0  0  0  0  0  0  0  0
   35.8810   28.3930   40.4640 N   0  0  0  0  0  0  0  0  0  0  0  0
   36.6580   31.4120   39.1690 H   0  0  0  0  0  0  0  0  0  0  0  0
   37.6830   31.6990   41.3410 H   0  0  0  0  0  0  0  0  0  0  0  0
   35.2940   29.2270   38.2190 C   0  0  1  0  0  0  0  0  0  0  0  0
   36.2590   28.5000   37.2120 C   0  0  1  0  0  0  0  0  0  0  0  0
   34.8880   28.0120   37.6220 C   0  0  0  0  0  0  0  0  0  0  0  0
   34.9280   30.2130   37.8260 H   0  0  0  0  0  0  0  0  0  0  0  0
   37.1510   28.0260   37.6110 H   0  0  0  0  0  0  0  0  0  0  0  0
   34.0960   27.9830   36.8700 H   0  0  0  0  0  0  0  0  0  0  0  0
   34.9400   27.0380   38.1930 H   0  0  0  0  0  0  0  0  0  0  0  0
   36.2940   29.1300   35.8410 C   0  0  0  0  0  0  0  0  0  0  0  0
   36.7390   30.4200   35.8440 F   0  0  0  0  0  0  0  0  0  0  0  0
   37.1640   28.3800   35.0240 F   0  0  0  0  0  0  0  0  0  0  0  0
   35.0580   29.0270   35.2190 F   0  0  0  0  0  0  0  0  0  0  0  0
   36.4410   27.6150   42.6440 O   0  0  0  0  0  0  0  0  0  0  0  0
   38.9640   27.8030   43.6650 F   0  0  0  0  0  0  0  0  0  0  0  0
   38.4810   26.6580   43.0800 C   0  0  0  0  0  0  0  0  0  0  0  0
   37.2060   26.4730   42.5330 C   0  0  0  0  0  0  0  0  0  0  0  0
   36.9180   25.2470   41.9920 C   0  0  0  0  0  0  0  0  0  0  0  0
   35.9030   25.2030   41.5920 H   0  0  0  0  0  0  0  0  0  0  0  0
   37.8460   24.2380   41.9890 C   0  0  0  0  0  0  0  0  0  0  0  0
   37.5440   23.3020   41.5450 H   0  0  0  0  0  0  0  0  0  0  0  0
   39.1040   24.4080   42.5250 C   0  0  0  0  0  3  0  0  0  0  0  0
   39.4150   25.6370   43.0750 C   0  0  0  0  0  3  0  0  0  0  0  0
  1  2  2  0  0  0  0
  1  6  1  0  0  0  0
  2  3  1  0  0  0  0
  3  8  1  0  0  0  0
  3  4  2  0  0  0  0
  5  4  1  0  0  0  0
  5 20  1  0  0  0  0
  6  5  2  0  0  0  0
  7  2  1  0  0  0  0
  9 12  1  6  0  0  0
  9  1  1  0  0  0  0
 10 13  1  1  0  0  0
 10 11  1  0  0  0  0
 10  9  1  0  0  0  0
 11 15  1  0  0  0  0
 11  9  1  0  0  0  0
 14 11  1  0  0  0  0
 16 17  1  0  0  0  0
 16 10  1  0  0  0  0
 18 16  1  0  0  0  0
 19 16  1  0  0  0  0
 22 21  1  0  0  0  0
 23 20  1  0  0  0  0
 23 22  2  0  0  0  0
 24 23  1  0  0  0  0
 25 24  1  0  0  0  0
 26 24  2  0  0  0  0
 26 28  1  0  0  0  0
 27 26  1  0  0  0  0
 28 29  2  0  0  0  0
 29 22  1  0  0  0  0
M  END
>  <minimizedAffinity>
-5.29910898

$$$$

 OpenBabel03252505483D

 29 31  0  0  1  0  0  0  0  0999 V2000
   36.2050   28.8360   39.9100 C   0  0  0  0  0  0  0  0  0  0  0  0
   35.6880   27.9870   38.9040 C   0  0  0  0  0  0  0  0  0  0  0  0
   35.6690   28.3940   37.5580 C   0  0  0  0  0  0  0  0  0  0  0  0
   36.1720   29.6340   37.3020 N   0  0  0  0  0  0  0  0  0  0  0  0
   36.6600   30.4190   38.3010 C   0  0  0  0  0  0  0  0  0  0  0  0
   36.6800   30.0370   39.5670 N   0  0  0  0  0  0  0  0  0  0  0  0
   35.2850   27.0010   39.0870 H   0  0  0  0  0  0  0  0  0  0  0  0
   35.2740   27.7490   36.7870 H   0  0  0  0  0  0  0  0  0  0  0  0
   36.1810   28.3550   41.3010 C   0  0  1  0  0  0  0  0  0  0  0  0
   37.4660   27.5080   41.6240 C   0  0  1  0  0  0  0  0  0  0  0  0
   37.0520   28.7790   42.3300 C   0  0  0  0  0  0  0  0  0  0  0  0
   35.2330   27.8040   41.5380 H   0  0  0  0  0  0  0  0  0  0  0  0
   38.2810   27.5200   40.9070 H   0  0  0  0  0  0  0  0  0  0  0  0
   36.7610   28.7230   43.3820 H   0  0  0  0  0  0  0  0  0  0  0  0
   37.7900   29.6170   42.1590 H   0  0  0  0  0  0  0  0  0  0  0  0
   37.1840   26.2540   42.4160 C   0  0  0  0  0  0  0  0  0  0  0  0
   36.6910   25.2310   41.6610 F   0  0  0  0  0  0  0  0  0  0  0  0
   38.3870   25.8120   43.0010 F   0  0  0  0  0  0  0  0  0  0  0  0
   36.3530   26.5280   43.4930 F   0  0  0  0  0  0  0  0  0  0  0  0
   37.1340   31.6550   37.8800 O   0  0  0  0  0  0  0  0  0  0  0  0
   39.8260   31.2520   37.6950 F   0  0  0  0  0  0  0  0  0  0  0  0
   39.2670   32.1670   38.5540 C   0  0  0  0  0  0  0  0  0  0  0  0
   37.9040   32.4390   38.7140 C   0  0  0  0  0  0  0  0  0  0  0  0
   37.5500   33.3950   39.6310 C   0  0  0  0  0  0  0  0  0  0  0  0
   36.4680   33.5330   39.6820 H   0  0  0  0  0  0  0  0  0  0  0  0
   38.4980   34.0600   40.3620 C   0  0  0  0  0  0  0  0  0  0  0  0
   38.1400   34.7980   41.0630 H   0  0  0  0  0  0  0  0  0  0  0  0
   39.8430   33.8010   40.2140 C   0  0  0  0  0  3  0  0  0  0  0  0
   40.2210   32.8410   39.2950 C   0  0  0  0  0  3  0  0  0  0  0  0
  1  9  1  0  0  0  0
  2  7  1  0  0  0  0
  2  1  2  0  0  0  0
  3  2  1  0  0  0  0
  4  3  2  0  0  0  0
  4  5  1  0  0  0  0
  5  6  2  0  0  0  0
  6  1  1  0  0  0  0
  8  3  1  0  0  0  0
  9 12  1  1  0  0  0
  9 10  1  0  0  0  0
  9 11  1  0  0  0  0
 10 13  1  6  0  0  0
 10 11  1  0  0  0  0
 10 16  1  0  0  0  0
 11 14  1  0  0  0  0
 15 11  1  0  0  0  0
 16 18  1  0  0  0  0
 16 19  1  0  0  0  0
 17 16  1  0  0  0  0
 20  5  1  0  0  0  0
 20 23  1  0  0  0  0
 21 22  1  0  0  0  0
 22 23  2  0  0  0  0
 22 29  1  0  0  0  0
 23 24  1  0  0  0  0
 24 25  1  0  0  0  0
 24 26  2  0  0  0  0
 26 27  1  0  0  0  0
 28 26  1  0  0  0  0
 29 28  2  0  0  0  0
M  END
>  <minimizedAffinity>
-5.2385726

$$$$

 OpenBabel03252505483D

 29 31  0  0  1  0  0  0  0  0999 V2000
   36.4560   28.8840   41.1830 C   0  0  0  0  0  0  0  0  0  0  0  0
   35.9160   28.7850   39.8790 C   0  0  0  0  0  0  0  0  0  0  0  0
   36.0270   29.8520   38.9710 C   0  0  0  0  0  0  0  0  0  0  0  0
   36.6730   30.9610   39.4290 N   0  0  0  0  0  0  0  0  0  0  0  0
   37.1770   31.0140   40.6910 C   0  0  0  0  0  0  0  0  0  0  0  0
   37.0750   30.0110   41.5460 N   0  0  0  0  0  0  0  0  0  0  0  0
   35.4010   27.9150   39.4980 H   0  0  0  0  0  0  0  0  0  0  0  0
   35.6170   29.7800   37.9740 H   0  0  0  0  0  0  0  0  0  0  0  0
   36.2920   27.7360   42.0880 C   0  0  1  0  0  0  0  0  0  0  0  0
   37.5870   26.8430   42.1040 C   0  0  1  0  0  0  0  0  0  0  0  0
   36.9880   27.5430   43.3030 C   0  0  0  0  0  0  0  0  0  0  0  0
   35.3660   27.1450   41.8540 H   0  0  0  0  0  0  0  0  0  0  0  0
   38.4830   27.2340   41.6320 H   0  0  0  0  0  0  0  0  0  0  0  0
   36.5710   26.9360   44.1100 H   0  0  0  0  0  0  0  0  0  0  0  0
   37.6750   28.3420   43.7130 H   0  0  0  0  0  0  0  0  0  0  0  0
   37.3030   25.3610   42.0630 C   0  0  0  0  0  0  0  0  0  0  0  0
   36.2610   24.9820   42.8570 F   0  0  0  0  0  0  0  0  0  0  0  0
   36.9830   25.0020   40.7380 F   0  0  0  0  0  0  0  0  0  0  0  0
   38.4470   24.6320   42.3550 F   0  0  0  0  0  0  0  0  0  0  0  0
   37.8060   32.2120   41.0080 O   0  0  0  0  0  0  0  0  0  0  0  0
   39.8320   31.2890   42.5860 F   0  0  0  0  0  0  0  0  0  0  0  0
   40.0510   31.9800   41.4190 C   0  0  0  0  0  0  0  0  0  0  0  0
   39.0780   32.4870   40.5520 C   0  0  0  0  0  0  0  0  0  0  0  0
   39.5070   33.1520   39.4320 C   0  0  0  0  0  0  0  0  0  0  0  0
   38.6750   33.5080   38.8220 H   0  0  0  0  0  0  0  0  0  0  0  0
   40.8430   33.3110   39.1720 C   0  0  0  0  0  0  0  0  0  0  0  0
   41.1010   33.8450   38.2710 H   0  0  0  0  0  0  0  0  0  0  0  0
   41.8110   32.8160   40.0180 C   0  0  0  0  0  3  0  0  0  0  0  0
   41.3990   32.1430   41.1520 C   0  0  0  0  0  3  0  0  0  0  0  0
  1  6  1  0  0  0  0
  1  9  1  0  0  0  0
  2  1  2  0  0  0  0
  3  4  2  0  0  0  0
  3  2  1  0  0  0  0
  4  5  1  0  0  0  0
  5 20  1  0  0  0  0
  5  6  2  0  0  0  0
  7  2  1  0  0  0  0
  8  3  1  0  0  0  0
  9 12  1  6  0  0  0
  9 10  1  0  0  0  0
  9 11  1  0  0  0  0
 10 13  1  6  0  0  0
 10 11  1  0  0  0  0
 11 15  1  0  0  0  0
 11 14  1  0  0  0  0
 16 10  1  0  0  0  0
 16 19  1  0  0  0  0
 16 17  1  0  0  0  0
 18 16  1  0  0  0  0
 22 21  1  0  0  0  0
 23 20  1  0  0  0  0
 23 22  2  0  0  0  0
 24 23  1  0  0  0  0
 25 24  1  0  0  0  0
 26 24  2  0  0  0  0
 26 28  1  0  0  0  0
 27 26  1  0  0  0  0
 28 29  2  0  0  0  0
 29 22  1  0  0  0  0
M  END
>  <minimizedAffinity>
-5.20575619

$$$$
