REMARK  Name = 
REMARK  3 active torsions:
REMARK  status: ('A' for Active; 'I' for Inactive)
REMARK    1  A    between atoms: C_1  and  C_7
REMARK    2  A    between atoms: C_11  and  C_13
REMARK    3  A    between atoms: N_16  and  C_34
REMARK                            x       y       z     vdW  Elec       q    Type
REMARK                         _______ _______ _______ _____ _____    ______ ____
ROOT
ATOM      1  C   UNL     1      47.881  33.705  42.900  0.00  0.00    +0.000 A 
ATOM      2  C   UNL     1      48.586  34.905  42.719  0.00  0.00    +0.000 A 
ATOM      3  C   UNL     1      49.947  34.869  42.387  0.00  0.00    +0.000 A 
ATOM      4  N   UNL     1      50.507  33.624  42.260  0.00  0.00    +0.000 NA
ATOM      5  C   UNL     1      49.789  32.476  42.443  0.00  0.00    +0.000 A 
ATOM      6  N   UNL     1      48.497  32.531  42.758  0.00  0.00    +0.000 NA
ATOM      7  H   UNL     1      48.231  35.920  42.799  0.00  0.00    +0.000 HD
ATOM      8  H   UNL     1      50.555  35.748  42.233  0.00  0.00    +0.000 HD
ENDROOT
BRANCH   1   9
ATOM      9  C   UNL     1      46.454  33.863  43.253  0.00  0.00    +0.000 C 
ATOM     10  C   UNL     1      45.743  34.845  42.434  0.00  0.00    +0.000 C 
ATOM     11  C   UNL     1      45.327  36.068  43.169  0.00  0.00    +0.000 C 
ATOM     12  C   UNL     1      44.541  35.775  44.439  0.00  0.00    +0.000 C 
ATOM     13  C   UNL     1      44.984  34.514  45.144  0.00  0.00    +0.000 C 
ATOM     14  C   UNL     1      46.407  34.165  44.762  0.00  0.00    +0.000 C 
ATOM     15  H   UNL     1      46.007  32.827  43.194  0.00  0.00    +0.000 HD
ATOM     16  H   UNL     1      46.259  35.157  41.524  0.00  0.00    +0.000 HD
ATOM     17  H   UNL     1      44.791  34.361  42.067  0.00  0.00    +0.000 HD
ATOM     18  H   UNL     1      46.095  36.816  43.367  0.00  0.00    +0.000 HD
ATOM     19  H   UNL     1      44.579  36.593  42.503  0.00  0.00    +0.000 HD
ATOM     20  H   UNL     1      43.451  35.727  44.256  0.00  0.00    +0.000 HD
ATOM     21  H   UNL     1      44.717  36.616  45.142  0.00  0.00    +0.000 HD
ATOM     22  H   UNL     1      44.858  34.548  46.222  0.00  0.00    +0.000 HD
ATOM     23  H   UNL     1      44.343  33.687  44.754  0.00  0.00    +0.000 HD
ATOM     24  H   UNL     1      47.042  35.014  45.037  0.00  0.00    +0.000 HD
ATOM     25  H   UNL     1      46.683  33.274  45.325  0.00  0.00    +0.000 HD
ENDBRANCH   1   9
BRANCH   5  26
ATOM     26  C   UNL     1      50.524  31.228  42.273  0.00  0.00    +0.000 A 
ATOM     27  N   UNL     1      51.572  31.256  41.406  0.00  0.00    +0.000 NA
ATOM     28  C   UNL     1      52.140  30.030  41.366  0.00  0.00    +0.000 A 
ATOM     29  N   UNL     1      51.420  29.244  42.225  0.00  0.00    +0.000 N 
ATOM     30  N   UNL     1      50.451  29.971  42.767  0.00  0.00    +0.000 NA
ATOM     31  H   UNL     1      52.992  29.739  40.769  0.00  0.00    +0.000 HD
BRANCH  29  34
ATOM     32  F   UNL     1      50.008  27.113  41.017  0.00  0.00    +0.000 F 
ATOM     33  C   UNL     1      50.951  26.838  41.916  0.00  0.00    +0.000 A 
ATOM     34  C   UNL     1      51.648  27.869  42.514  0.00  0.00    +0.000 A 
ATOM     35  C   UNL     1      52.611  27.515  43.437  0.00  0.00    +0.000 A 
ATOM     36  H   UNL     1      53.163  28.331  43.910  0.00  0.00    +0.000 HD
ATOM     37  C   UNL     1      52.902  26.216  43.781  0.00  0.00    +0.000 A 
ATOM     38  H   UNL     1      53.691  26.066  44.529  0.00  0.00    +0.000 HD
ATOM     39  C   UNL     1      52.208  25.195  43.185  0.00  0.00    +0.000 A 
ATOM     40  C   UNL     1      51.228  25.517  42.248  0.00  0.00    +0.000 A 
ENDBRANCH  29  34
ENDBRANCH   5  26
TORSDOF 3
