
 OpenBabel03252509073D

 41 44  0  0  0  0  0  0  0  0999 V2000
   46.6720   32.8350   38.6890 C   0  0  0  0  0  0  0  0  0  0  0  0
   45.4460   32.6840   38.1030 C   0  0  0  0  0  0  0  0  0  0  0  0
   44.3160   33.1910   38.7280 C   0  0  0  0  0  0  0  0  0  0  0  0
   44.4270   33.8440   39.9310 C   0  0  0  0  0  0  0  0  0  0  0  0
   45.6550   34.0200   40.5610 C   0  0  0  0  0  0  0  0  0  0  0  0
   46.7790   33.5010   39.9120 C   0  0  0  0  0  0  0  0  0  0  0  0
   43.3320   33.0830   38.2840 H   0  0  0  0  0  0  0  0  0  0  0  0
   43.5600   34.2330   40.4100 H   0  0  0  0  0  0  0  0  0  0  0  0
   45.8210   34.5150   41.4920 H   0  0  0  0  0  0  0  0  0  0  0  0
   47.7600   33.6240   40.3830 H   0  0  0  0  0  0  0  0  0  0  0  0
   44.1220   28.4490   35.4680 Cl  0  0  0  0  0  0  0  0  0  0  0  0
   44.6440   30.1080   35.6040 C   0  0  0  0  0  0  0  0  0  0  0  0
   44.8170   30.6940   36.8120 C   0  0  0  0  0  0  0  0  0  0  0  0
   45.2260   32.0220   36.8230 C   0  0  0  0  0  0  0  0  0  0  0  0
   45.4470   32.7260   35.6650 C   0  0  0  0  0  0  0  0  0  0  0  0
   45.2710   32.1280   34.4610 C   0  0  0  0  0  0  0  0  0  0  0  0
   44.8630   30.7990   34.4340 C   0  0  0  0  0  0  0  0  0  0  0  0
   45.7620   33.7550   35.7410 H   0  0  0  0  0  0  0  0  0  0  0  0
   45.4530   32.7000   33.5660 H   0  0  0  0  0  0  0  0  0  0  0  0
   44.7360   30.3610   33.4490 H   0  0  0  0  0  0  0  0  0  0  0  0
   43.0840   29.0880   39.7620 C   0  0  0  0  0  0  0  0  0  0  0  0
   43.3120   29.8400   38.6050 C   0  0  0  0  0  0  0  0  0  0  0  0
   44.5540   29.9310   38.0210 C   0  0  0  0  0  0  0  0  0  0  0  0
   45.4920   29.2400   38.6680 N   0  0  0  0  0  0  0  0  0  0  0  0
   45.3140   28.5130   39.7700 C   0  0  0  0  0  0  0  0  0  0  0  0
   44.1040   28.4470   40.3060 N   0  0  0  0  0  0  0  0  0  0  0  0
   42.1060   29.0300   40.2020 H   0  0  0  0  0  0  0  0  0  0  0  0
   42.4640   30.3680   38.1620 H   0  0  0  0  0  0  0  0  0  0  0  0
   46.2380   28.0460   40.0990 H   0  0  0  0  0  0  0  0  0  0  0  0
   48.0760   32.2730   37.9530 S   0  0  0  0  0  0  0  0  0  0  0  0
   47.8180   31.0170   37.1380 O   0  0  0  0  0  0  0  0  0  0  0  0
   48.3660   33.3490   36.8480 O   0  0  0  0  0  0  0  0  0  0  0  0
   49.2990   31.9390   40.8720 F   0  0  0  0  0  0  0  0  0  0  0  0
   50.1740   31.7270   39.8630 C   0  0  0  0  0  0  0  0  0  0  0  0
   49.5870   31.9850   38.6460 C   0  0  0  0  0  0  0  0  0  0  0  0
   50.6640   31.8910   37.6990 C   0  0  0  0  0  0  0  0  0  0  0  0
   50.4580   32.0640   36.6170 H   0  0  0  0  0  0  0  0  0  0  0  0
   52.0260   31.6020   37.8920 C   0  0  0  0  0  0  0  0  0  0  0  0
   52.7160   31.5670   37.0770 H   0  0  0  0  0  0  0  0  0  0  0  0
   52.3590   31.3780   39.2050 C   0  0  0  0  0  3  0  0  0  0  0  0
   51.4490   31.4310   40.2340 C   0  0  0  0  0  3  0  0  0  0  0  0
  1  6  1  0  0  0  0
  2  1  2  0  0  0  0
  2  3  1  0  0  0  0
  3  4  2  0  0  0  0
  4  8  1  0  0  0  0
  4  5  1  0  0  0  0
  5  9  1  0  0  0  0
  6 10  1  0  0  0  0
  6  5  2  0  0  0  0
  7  3  1  0  0  0  0
 11 12  1  0  0  0  0
 12 13  1  0  0  0  0
 13 14  2  0  0  0  0
 13 23  1  0  0  0  0
 14  2  1  0  0  0  0
 15 18  1  0  0  0  0
 15 14  1  0  0  0  0
 16 15  2  0  0  0  0
 17 16  1  0  0  0  0
 17 12  2  0  0  0  0
 19 16  1  0  0  0  0
 20 17  1  0  0  0  0
 21 27  1  0  0  0  0
 21 26  1  0  0  0  0
 22 21  2  0  0  0  0
 23 22  1  0  0  0  0
 23 24  2  0  0  0  0
 24 25  1  0  0  0  0
 25 29  1  0  0  0  0
 25 26  2  0  0  0  0
 28 22  1  0  0  0  0
 30 35  1  0  0  0  0
 30  1  1  0  0  0  0
 31 30  2  0  0  0  0
 32 30  2  0  0  0  0
 34 41  1  0  0  0  0
 34 33  1  0  0  0  0
 35 34  2  0  0  0  0
 36 38  2  0  0  0  0
 36 35  1  0  0  0  0
 37 36  1  0  0  0  0
 38 40  1  0  0  0  0
 39 38  1  0  0  0  0
 40 41  2  0  0  0  0
M  END
>  <minimizedAffinity>
-3.78527379

>  <minimizedRMSD>
6.299932

$$$$
