
 OpenBabel03252509073D

 41 44  0  0  0  0  0  0  0  0999 V2000
   48.7490   31.9580   38.0130 C   0  0  0  0  0  0  0  0  0  0  0  0
   47.6700   31.2310   38.4320 C   0  0  0  0  0  0  0  0  0  0  0  0
   46.6290   31.8610   39.0970 C   0  0  0  0  0  0  0  0  0  0  0  0
   46.6790   33.2130   39.3340 C   0  0  0  0  0  0  0  0  0  0  0  0
   47.7580   33.9910   38.9240 C   0  0  0  0  0  0  0  0  0  0  0  0
   48.7950   33.3330   38.2560 C   0  0  0  0  0  0  0  0  0  0  0  0
   45.7630   31.3060   39.4400 H   0  0  0  0  0  0  0  0  0  0  0  0
   45.8810   33.6960   39.8440 H   0  0  0  0  0  0  0  0  0  0  0  0
   47.8690   35.0420   39.0700 H   0  0  0  0  0  0  0  0  0  0  0  0
   49.6580   33.9190   37.9210 H   0  0  0  0  0  0  0  0  0  0  0  0
   45.8760   27.3480   35.5440 Cl  0  0  0  0  0  0  0  0  0  0  0  0
   46.6980   28.0180   36.9300 C   0  0  0  0  0  0  0  0  0  0  0  0
   46.8380   29.3550   37.0850 C   0  0  0  0  0  0  0  0  0  0  0  0
   47.5160   29.7970   38.2150 C   0  0  0  0  0  0  0  0  0  0  0  0
   48.0290   28.9260   39.1440 C   0  0  0  0  0  0  0  0  0  0  0  0
   47.8810   27.5890   38.9780 C   0  0  0  0  0  0  0  0  0  0  0  0
   47.2040   27.1310   37.8520 C   0  0  0  0  0  0  0  0  0  0  0  0
   48.5460   29.3320   40.0000 H   0  0  0  0  0  0  0  0  0  0  0  0
   48.2900   26.9240   39.7210 H   0  0  0  0  0  0  0  0  0  0  0  0
   47.1080   26.0540   37.7600 H   0  0  0  0  0  0  0  0  0  0  0  0
   46.4780   31.5270   34.0130 C   0  0  0  0  0  0  0  0  0  0  0  0
   47.0210   30.6730   34.9770 C   0  0  0  0  0  0  0  0  0  0  0  0
   46.3040   30.2530   36.0740 C   0  0  0  0  0  0  0  0  0  0  0  0
   45.0650   30.7420   36.1120 N   0  0  0  0  0  0  0  0  0  0  0  0
   44.5130   31.5560   35.2130 C   0  0  0  0  0  0  0  0  0  0  0  0
   45.2320   31.9410   34.1690 N   0  0  0  0  0  0  0  0  0  0  0  0
   47.0550   31.8430   33.1640 H   0  0  0  0  0  0  0  0  0  0  0  0
   48.0510   30.3360   34.8410 H   0  0  0  0  0  0  0  0  0  0  0  0
   43.4890   31.8090   35.4750 H   0  0  0  0  0  0  0  0  0  0  0  0
   50.0190   31.2480   37.1690 S   0  0  0  0  0  0  0  0  0  0  0  0
   49.9700   31.5900   35.6900 O   0  0  0  0  0  0  0  0  0  0  0  0
   51.2780   32.0410   37.6670 O   0  0  0  0  0  0  0  0  0  0  0  0
   49.5710   28.6310   35.4150 F   0  0  0  0  0  0  0  0  0  0  0  0
   50.4640   28.4930   36.4200 C   0  0  0  0  0  0  0  0  0  0  0  0
   50.5220   29.6370   37.1810 C   0  0  0  0  0  0  0  0  0  0  0  0
   51.3620   29.2880   38.2940 C   0  0  0  0  0  0  0  0  0  0  0  0
   51.5730   30.0490   39.0810 H   0  0  0  0  0  0  0  0  0  0  0  0
   52.0140   28.0810   38.6020 C   0  0  0  0  0  0  0  0  0  0  0  0
   52.6130   27.9720   39.4800 H   0  0  0  0  0  0  0  0  0  0  0  0
   51.7990   27.0890   37.6770 C   0  0  0  0  0  3  0  0  0  0  0  0
   51.0200   27.2580   36.5580 C   0  0  0  0  0  3  0  0  0  0  0  0
  1  6  2  0  0  0  0
  1  2  1  0  0  0  0
  2  3  2  0  0  0  0
  3  4  1  0  0  0  0
  3  7  1  0  0  0  0
  4  8  1  0  0  0  0
  5  9  1  0  0  0  0
  5  4  2  0  0  0  0
  6  5  1  0  0  0  0
 10  6  1  0  0  0  0
 11 12  1  0  0  0  0
 12 13  2  0  0  0  0
 12 17  1  0  0  0  0
 13 14  1  0  0  0  0
 14  2  1  0  0  0  0
 14 15  2  0  0  0  0
 15 18  1  0  0  0  0
 16 15  1  0  0  0  0
 16 19  1  0  0  0  0
 17 16  2  0  0  0  0
 20 17  1  0  0  0  0
 21 26  2  0  0  0  0
 21 22  1  0  0  0  0
 22 23  2  0  0  0  0
 23 24  1  0  0  0  0
 23 13  1  0  0  0  0
 25 29  1  0  0  0  0
 25 24  2  0  0  0  0
 26 25  1  0  0  0  0
 27 21  1  0  0  0  0
 28 22  1  0  0  0  0
 30 35  1  0  0  0  0
 30 32  2  0  0  0  0
 30  1  1  0  0  0  0
 31 30  2  0  0  0  0
 33 34  1  0  0  0  0
 34 41  2  0  0  0  0
 34 35  1  0  0  0  0
 35 36  2  0  0  0  0
 36 38  1  0  0  0  0
 36 37  1  0  0  0  0
 38 39  1  0  0  0  0
 40 38  2  0  0  0  0
 41 40  1  0  0  0  0
M  END
>  <minimizedAffinity>
-2.46825886

>  <minimizedRMSD>
7.1075182

$$$$
