
 OpenBabel03242519243D

 40 43  0  0  0  0  0  0  0  0999 V2000
   47.9440   33.8530   42.8770 C   0  0  0  0  0  0  0  0  0  0  0  0
   48.5670   35.0890   42.6480 C   0  0  0  0  0  0  0  0  0  0  0  0
   49.9290   35.1320   42.3220 C   0  0  0  0  0  0  0  0  0  0  0  0
   50.5730   33.9230   42.2490 N   0  0  0  0  0  0  0  0  0  0  0  0
   49.9330   32.7380   42.4780 C   0  0  0  0  0  0  0  0  0  0  0  0
   48.6380   32.7190   42.7860 N   0  0  0  0  0  0  0  0  0  0  0  0
   48.1440   36.0810   42.6850 H   0  0  0  0  0  0  0  0  0  0  0  0
   50.4780   36.0430   42.1330 H   0  0  0  0  0  0  0  0  0  0  0  0
   46.5070   33.9290   43.2190 C   0  0  0  0  0  0  0  0  0  0  0  0
   45.7560   34.9010   42.4240 C   0  0  0  0  0  0  0  0  0  0  0  0
   45.2730   36.0770   43.1940 C   0  0  0  0  0  0  0  0  0  0  0  0
   44.4900   35.7040   44.4440 C   0  0  0  0  0  0  0  0  0  0  0  0
   44.9880   34.4440   45.1130 C   0  0  0  0  0  0  0  0  0  0  0  0
   46.4300   34.1780   44.7360 C   0  0  0  0  0  0  0  0  0  0  0  0
   46.1130   32.8740   43.1210 H   0  0  0  0  0  0  0  0  0  0  0  0
   46.2650   35.2680   41.5310 H   0  0  0  0  0  0  0  0  0  0  0  0
   44.8330   34.3830   42.0310 H   0  0  0  0  0  0  0  0  0  0  0  0
   46.0010   36.8550   43.4250 H   0  0  0  0  0  0  0  0  0  0  0  0
   44.5060   36.5860   42.5370 H   0  0  0  0  0  0  0  0  0  0  0  0
   43.4060   35.6080   44.2480 H   0  0  0  0  0  0  0  0  0  0  0  0
   44.6170   36.5290   45.1760 H   0  0  0  0  0  0  0  0  0  0  0  0
   44.8500   34.4360   46.1900 H   0  0  0  0  0  0  0  0  0  0  0  0
   44.3930   33.5990   44.6890 H   0  0  0  0  0  0  0  0  0  0  0  0
   47.0200   35.0480   45.0460 H   0  0  0  0  0  0  0  0  0  0  0  0
   46.7450   33.2840   45.2730 H   0  0  0  0  0  0  0  0  0  0  0  0
   50.7510   31.5370   42.3620 C   0  0  0  0  0  0  0  0  0  0  0  0
   51.1940   31.2240   41.1150 N   0  0  0  0  0  0  0  0  0  0  0  0
   51.9320   30.0930   41.1830 C   0  0  0  0  0  0  0  0  0  0  0  0
   51.9340   29.7130   42.4980 N   0  0  0  0  0  0  0  0  0  0  0  0
   51.2230   30.5860   43.2010 N   0  0  0  0  0  0  0  0  0  0  0  0
   52.4180   29.5950   40.3560 H   0  0  0  0  0  0  0  0  0  0  0  0
   54.2760   29.8360   44.0770 F   0  0  0  0  0  0  0  0  0  0  0  0
   53.7270   28.6490   43.8230 C   0  0  0  0  0  0  0  0  0  0  0  0
   52.5830   28.5750   43.0540 C   0  0  0  0  0  0  0  0  0  0  0  0
   52.0660   27.3150   42.8290 C   0  0  0  0  0  0  0  0  0  0  0  0
   51.1600   27.2560   42.2200 H   0  0  0  0  0  0  0  0  0  0  0  0
   52.6220   26.1590   43.3230 C   0  0  0  0  0  0  0  0  0  0  0  0
   52.1140   25.2190   43.0720 H   0  0  0  0  0  0  0  0  0  0  0  0
   53.7580   26.2370   44.0860 C   0  0  0  0  0  0  0  0  0  0  0  0
   54.3070   27.4930   44.3340 C   0  0  0  0  0  0  0  0  0  0  0  0
  1  9  1  0  0  0  0
  2  7  1  0  0  0  0
  2  1  2  0  0  0  0
  3  2  1  0  0  0  0
  4  3  2  0  0  0  0
  4  5  1  0  0  0  0
  5  6  2  0  0  0  0
  6  1  1  0  0  0  0
  8  3  1  0  0  0  0
  9 14  1  0  0  0  0
 10 11  1  0  0  0  0
 10  9  1  0  0  0  0
 11 18  1  0  0  0  0
 11 12  1  0  0  0  0
 12 13  1  0  0  0  0
 12 21  1  0  0  0  0
 13 22  1  0  0  0  0
 14 24  1  0  0  0  0
 14 13  1  0  0  0  0
 14 25  1  0  0  0  0
 15  9  1  0  0  0  0
 16 10  1  0  0  0  0
 17 10  1  0  0  0  0
 19 11  1  0  0  0  0
 20 12  1  0  0  0  0
 23 13  1  0  0  0  0
 26  5  1  0  0  0  0
 26 30  2  0  0  0  0
 27 28  2  0  0  0  0
 27 26  1  0  0  0  0
 28 29  1  0  0  0  0
 29 34  1  0  0  0  0
 29 30  1  0  0  0  0
 31 28  1  0  0  0  0
 33 32  1  0  0  0  0
 33 40  1  0  0  0  0
 34 33  2  0  0  0  0
 35 34  1  0  0  0  0
 35 37  2  0  0  0  0
 36 35  1  0  0  0  0
 37 39  1  0  0  0  0
 38 37  1  0  0  0  0
 39 40  2  0  0  0  0
M  END
>  <minimizedAffinity>
-4.29602051

>  <minimizedRMSD>
1.23330784

$$$$
