
 OpenBabel03252504313D

 33 34  0  0  0  0  0  0  0  0999 V2000
   40.5480   30.1690   39.4990 C   0  0  0  0  0  0  0  0  0  0  0  0
   40.9150   31.1350   39.8700 H   0  0  0  0  0  0  0  0  0  0  0  0
   41.3930   29.4850   39.2240 H   0  0  0  0  0  0  0  0  0  0  0  0
   39.5630   29.9020   41.8170 C   0  0  0  0  0  3  0  0  0  0  0  0
   39.7740   29.4330   40.5750 C   0  0  0  0  0  3  0  0  0  0  0  0
   38.8290   29.0850   42.6690 O   0  0  0  0  0  0  0  0  0  0  0  0
   39.2750   27.9470   43.2960 C   0  0  0  0  0  0  0  0  0  0  0  0
   40.3620   27.8020   43.0040 H   0  0  0  0  0  0  0  0  0  0  0  0
   39.2100   28.0290   44.3850 H   0  0  0  0  0  0  0  0  0  0  0  0
   39.4340   25.5730   42.9660 C   0  0  0  0  0  0  0  0  0  0  0  0
   38.6110   26.7070   42.8200 C   0  0  0  0  0  0  0  0  0  0  0  0
   37.3640   26.5340   42.2960 C   0  0  0  0  0  0  0  0  0  0  0  0
   37.0060   25.2970   41.9550 N   0  0  0  0  0  0  0  0  0  0  0  0
   37.7790   24.2080   42.0890 C   0  0  0  0  0  0  0  0  0  0  0  0
   39.0590   24.3060   42.6140 N   0  0  0  0  0  0  0  0  0  0  0  0
   40.4400   25.5700   43.3650 H   0  0  0  0  0  0  0  0  0  0  0  0
   36.8020   27.4330   42.2160 H   0  0  0  0  0  0  0  0  0  0  0  0
   37.4160   23.2310   41.7890 H   0  0  0  0  0  0  0  0  0  0  0  0
   39.7210   30.2410   38.3910 O   0  0  0  0  0  0  0  0  0  0  0  0
   39.7540   32.7880   39.1570 O   0  0  0  0  0  0  0  0  0  0  0  0
   39.2460   31.8430   38.1060 P   0  0  1  0  0  0  0  0  0  0  0  0
   39.8340   32.3690   36.6080 O   0  0  0  0  0  0  0  0  0  0  0  0
   40.2990   33.2190   36.6570 H   0  0  0  0  0  0  0  0  0  0  0  0
   37.5490   31.8950   38.0410 O   0  0  0  0  0  0  0  0  0  0  0  0
   37.0860   32.3320   40.7470 F   0  0  0  0  0  0  0  0  0  0  0  0
   36.6240   31.2120   40.1330 C   0  0  0  0  0  0  0  0  0  0  0  0
   36.8360   30.9580   38.7770 C   0  0  0  0  0  0  0  0  0  0  0  0
   36.3040   29.7780   38.2990 C   0  0  0  0  0  0  0  0  0  0  0  0
   36.4580   29.5680   37.2550 H   0  0  0  0  0  0  0  0  0  0  0  0
   35.6100   28.9050   39.0980 C   0  0  0  0  0  0  0  0  0  0  0  0
   35.2210   27.9880   38.6310 H   0  0  0  0  0  0  0  0  0  0  0  0
   35.4060   29.1630   40.4280 C   0  0  0  0  0  3  0  0  0  0  0  0
   35.9180   30.3300   40.9540 C   0  0  0  0  0  3  0  0  0  0  0  0
  1  2  1  0  0  0  0
  1  5  1  0  0  0  0
  3  1  1  0  0  0  0
  4  6  1  0  0  0  0
  5  4  2  0  0  0  0
  6  7  1  0  0  0  0
  7  9  1  0  0  0  0
  8  7  1  0  0  0  0
 10 16  1  0  0  0  0
 11 10  1  0  0  0  0
 11  7  1  0  0  0  0
 12 11  2  0  0  0  0
 13 14  2  0  0  0  0
 13 12  1  0  0  0  0
 14 15  1  0  0  0  0
 15 10  2  0  0  0  0
 17 12  1  0  0  0  0
 18 14  1  0  0  0  0
 19  1  1  0  0  0  0
 21 19  1  0  0  0  0
 21 20  2  1  0  0  0
 22 23  1  0  0  0  0
 22 21  1  0  0  0  0
 24 21  1  0  0  0  0
 24 27  1  0  0  0  0
 26 25  1  0  0  0  0
 26 33  1  0  0  0  0
 27 26  2  0  0  0  0
 28 27  1  0  0  0  0
 28 30  2  0  0  0  0
 29 28  1  0  0  0  0
 30 32  1  0  0  0  0
 31 30  1  0  0  0  0
 32 33  2  0  0  0  0
M  END
>  <minimizedAffinity>
-5.0913043

$$$$

 OpenBabel03252504313D

 33 34  0  0  0  0  0  0  0  0999 V2000
   40.2950   30.4920   39.5460 C   0  0  0  0  0  0  0  0  0  0  0  0
   41.3810   30.5260   39.3800 H   0  0  0  0  0  0  0  0  0  0  0  0
   39.7920   29.7890   38.8310 H   0  0  0  0  0  0  0  0  0  0  0  0
   39.0320   30.4610   41.7410 C   0  0  0  0  0  3  0  0  0  0  0  0
   39.9740   29.9550   40.9260 C   0  0  0  0  0  3  0  0  0  0  0  0
   38.8790   29.8350   42.9720 O   0  0  0  0  0  0  0  0  0  0  0  0
   37.8670   28.9800   43.3340 C   0  0  0  0  0  0  0  0  0  0  0  0
   37.7700   29.0280   44.4640 H   0  0  0  0  0  0  0  0  0  0  0  0
   36.9110   29.2640   42.8850 H   0  0  0  0  0  0  0  0  0  0  0  0
   37.1380   26.9120   42.3520 C   0  0  0  0  0  0  0  0  0  0  0  0
   38.1720   27.5510   43.0650 C   0  0  0  0  0  0  0  0  0  0  0  0
   39.2740   26.8200   43.3940 C   0  0  0  0  0  0  0  0  0  0  0  0
   39.3010   25.5420   43.0170 N   0  0  0  0  0  0  0  0  0  0  0  0
   38.3240   24.9210   42.3380 C   0  0  0  0  0  0  0  0  0  0  0  0
   37.1730   25.6000   41.9680 N   0  0  0  0  0  0  0  0  0  0  0  0
   36.2140   27.3740   42.0300 H   0  0  0  0  0  0  0  0  0  0  0  0
   40.0100   27.3680   43.9310 H   0  0  0  0  0  0  0  0  0  0  0  0
   38.4180   23.8750   42.0650 H   0  0  0  0  0  0  0  0  0  0  0  0
   39.6450   31.7080   39.4280 O   0  0  0  0  0  0  0  0  0  0  0  0
   37.3160   32.5040   38.4210 O   0  0  0  0  0  0  0  0  0  0  0  0
   38.5340   31.6680   38.1490 P   0  0  1  0  0  0  0  0  0  0  0  0
   39.2560   32.2470   36.7310 O   0  0  0  0  0  0  0  0  0  0  0  0
   38.7290   32.9290   36.2860 H   0  0  0  0  0  0  0  0  0  0  0  0
   38.0870   30.0510   37.8770 O   0  0  0  0  0  0  0  0  0  0  0  0
   36.1510   29.7130   35.9110 F   0  0  0  0  0  0  0  0  0  0  0  0
   35.8600   29.4980   37.2200 C   0  0  0  0  0  0  0  0  0  0  0  0
   36.8040   29.6570   38.2350 C   0  0  0  0  0  0  0  0  0  0  0  0
   36.3570   29.4000   39.5140 C   0  0  0  0  0  0  0  0  0  0  0  0
   37.0730   29.5180   40.3080 H   0  0  0  0  0  0  0  0  0  0  0  0
   35.0670   29.0130   39.7810 C   0  0  0  0  0  0  0  0  0  0  0  0
   34.7990   28.8300   40.8320 H   0  0  0  0  0  0  0  0  0  0  0  0
   34.1470   28.8590   38.7780 C   0  0  0  0  0  3  0  0  0  0  0  0
   34.5460   29.1030   37.4810 C   0  0  0  0  0  3  0  0  0  0  0  0
  1  5  1  0  0  0  0
  2  1  1  0  0  0  0
  3  1  1  0  0  0  0
  4  6  1  0  0  0  0
  5  4  2  0  0  0  0
  6  7  1  0  0  0  0
  7  8  1  0  0  0  0
  9  7  1  0  0  0  0
 10 11  1  0  0  0  0
 11  7  1  0  0  0  0
 11 12  2  0  0  0  0
 12 17  1  0  0  0  0
 13 12  1  0  0  0  0
 14 13  2  0  0  0  0
 15 14  1  0  0  0  0
 15 10  2  0  0  0  0
 16 10  1  0  0  0  0
 18 14  1  0  0  0  0
 19  1  1  0  0  0  0
 21 20  2  1  0  0  0
 21 19  1  0  0  0  0
 22 21  1  0  0  0  0
 23 22  1  0  0  0  0
 24 21  1  0  0  0  0
 24 27  1  0  0  0  0
 25 26  1  0  0  0  0
 26 33  2  0  0  0  0
 26 27  1  0  0  0  0
 27 28  2  0  0  0  0
 28 30  1  0  0  0  0
 28 29  1  0  0  0  0
 30 31  1  0  0  0  0
 32 30  2  0  0  0  0
 33 32  1  0  0  0  0
M  END
>  <minimizedAffinity>
-4.90954685

$$$$

 OpenBabel03252504313D

 33 34  0  0  0  0  0  0  0  0999 V2000
   37.2270   31.0520   38.0670 C   0  0  0  0  0  0  0  0  0  0  0  0
   37.6250   31.2960   37.0720 H   0  0  0  0  0  0  0  0  0  0  0  0
   36.4330   31.7780   38.3820 H   0  0  0  0  0  0  0  0  0  0  0  0
   37.1940   28.5190   38.1070 C   0  0  0  0  0  3  0  0  0  0  0  0
   36.5470   29.6970   38.0600 C   0  0  0  0  0  3  0  0  0  0  0  0
   36.4010   27.3780   38.0920 O   0  0  0  0  0  0  0  0  0  0  0  0
   36.8140   26.1000   37.8040 C   0  0  0  0  0  0  0  0  0  0  0  0
   35.9040   25.5190   37.4540 H   0  0  0  0  0  0  0  0  0  0  0  0
   37.5690   26.0830   37.0120 H   0  0  0  0  0  0  0  0  0  0  0  0
   36.2300   24.6610   39.6380 C   0  0  0  0  0  0  0  0  0  0  0  0
   37.2820   25.3440   38.9940 C   0  0  0  0  0  0  0  0  0  0  0  0
   38.5370   25.2230   39.5100 C   0  0  0  0  0  0  0  0  0  0  0  0
   38.6870   24.4640   40.5950 N   0  0  0  0  0  0  0  0  0  0  0  0
   37.6960   23.8080   41.2170 C   0  0  0  0  0  0  0  0  0  0  0  0
   36.3920   23.8840   40.7510 N   0  0  0  0  0  0  0  0  0  0  0  0
   35.1910   24.6720   39.3340 H   0  0  0  0  0  0  0  0  0  0  0  0
   39.2780   25.7660   38.9730 H   0  0  0  0  0  0  0  0  0  0  0  0
   37.8960   23.2080   42.0980 H   0  0  0  0  0  0  0  0  0  0  0  0
   38.1640   31.0240   39.0840 O   0  0  0  0  0  0  0  0  0  0  0  0
   38.8030   32.5160   41.1910 O   0  0  0  0  0  0  0  0  0  0  0  0
   37.6530   31.9740   40.3910 P   0  0  1  0  0  0  0  0  0  0  0  0
   36.7410   33.2880   39.8360 O   0  0  0  0  0  0  0  0  0  0  0  0
   37.0390   34.1380   40.1970 H   0  0  0  0  0  0  0  0  0  0  0  0
   36.6450   31.0280   41.3800 O   0  0  0  0  0  0  0  0  0  0  0  0
   35.2100   28.6810   40.9790 F   0  0  0  0  0  0  0  0  0  0  0  0
   36.3950   28.6690   41.6440 C   0  0  0  0  0  0  0  0  0  0  0  0
   37.1430   29.8260   41.8640 C   0  0  0  0  0  0  0  0  0  0  0  0
   38.3260   29.6510   42.5540 C   0  0  0  0  0  0  0  0  0  0  0  0
   38.9140   30.5340   42.7320 H   0  0  0  0  0  0  0  0  0  0  0  0
   38.7460   28.4230   42.9990 C   0  0  0  0  0  0  0  0  0  0  0  0
   39.7020   28.3790   43.5400 H   0  0  0  0  0  0  0  0  0  0  0  0
   38.0050   27.2920   42.7770 C   0  0  0  0  0  3  0  0  0  0  0  0
   36.8140   27.4150   42.0910 C   0  0  0  0  0  3  0  0  0  0  0  0
  1  3  1  0  0  0  0
  1 19  1  0  0  0  0
  2  1  1  0  0  0  0
  5  1  1  0  0  0  0
  5  4  2  0  0  0  0
  6  4  1  0  0  0  0
  7  6  1  0  0  0  0
  7 11  1  0  0  0  0
  8  7  1  0  0  0  0
  9  7  1  0  0  0  0
 10 15  1  0  0  0  0
 11 12  1  0  0  0  0
 11 10  2  0  0  0  0
 12 13  2  0  0  0  0
 13 14  1  0  0  0  0
 14 18  1  0  0  0  0
 15 14  2  0  0  0  0
 16 10  1  0  0  0  0
 17 12  1  0  0  0  0
 19 21  1  0  0  0  0
 21 20  2  1  0  0  0
 21 24  1  0  0  0  0
 22 23  1  0  0  0  0
 22 21  1  0  0  0  0
 24 27  1  0  0  0  0
 25 26  1  0  0  0  0
 26 27  2  0  0  0  0
 26 33  1  0  0  0  0
 27 28  1  0  0  0  0
 28 29  1  0  0  0  0
 28 30  2  0  0  0  0
 30 31  1  0  0  0  0
 32 30  1  0  0  0  0
 33 32  2  0  0  0  0
M  END
>  <minimizedAffinity>
-4.83909369

$$$$

 OpenBabel03252504313D

 33 34  0  0  0  0  0  0  0  0999 V2000
   37.4310   30.9900   38.1580 C   0  0  0  0  0  0  0  0  0  0  0  0
   38.0750   31.0580   37.2700 H   0  0  0  0  0  0  0  0  0  0  0  0
   37.0270   31.9950   38.4510 H   0  0  0  0  0  0  0  0  0  0  0  0
   36.1960   29.0730   37.0560 C   0  0  0  0  0  3  0  0  0  0  0  0
   36.2090   30.1370   37.8760 C   0  0  0  0  0  3  0  0  0  0  0  0
   34.9810   28.4110   36.9210 O   0  0  0  0  0  0  0  0  0  0  0  0
   33.8560   28.6060   37.6840 C   0  0  0  0  0  0  0  0  0  0  0  0
   33.4700   27.5820   37.9880 H   0  0  0  0  0  0  0  0  0  0  0  0
   34.0700   29.1840   38.5870 H   0  0  0  0  0  0  0  0  0  0  0  0
   32.9600   29.2250   35.5420 C   0  0  0  0  0  0  0  0  0  0  0  0
   32.7230   29.2030   36.9310 C   0  0  0  0  0  0  0  0  0  0  0  0
   31.5380   29.6970   37.3890 C   0  0  0  0  0  0  0  0  0  0  0  0
   30.6780   30.1710   36.4880 N   0  0  0  0  0  0  0  0  0  0  0  0
   30.8910   30.1970   35.1640 C   0  0  0  0  0  0  0  0  0  0  0  0
   32.0730   29.7130   34.6230 N   0  0  0  0  0  0  0  0  0  0  0  0
   33.8540   28.8660   35.0490 H   0  0  0  0  0  0  0  0  0  0  0  0
   31.4310   29.6470   38.4460 H   0  0  0  0  0  0  0  0  0  0  0  0
   30.1410   30.5990   34.4910 H   0  0  0  0  0  0  0  0  0  0  0  0
   38.0360   30.4630   39.2840 O   0  0  0  0  0  0  0  0  0  0  0  0
   38.8930   31.8390   41.3910 O   0  0  0  0  0  0  0  0  0  0  0  0
   37.6650   31.3930   40.6510 P   0  0  1  0  0  0  0  0  0  0  0  0
   36.8000   32.7760   40.1990 O   0  0  0  0  0  0  0  0  0  0  0  0
   37.1690   33.5950   40.5660 H   0  0  0  0  0  0  0  0  0  0  0  0
   36.6670   30.4710   41.6720 O   0  0  0  0  0  0  0  0  0  0  0  0
   35.7090   28.1580   40.4630 F   0  0  0  0  0  0  0  0  0  0  0  0
   36.6240   28.0940   41.4650 C   0  0  0  0  0  0  0  0  0  0  0  0
   37.1290   29.2320   42.0950 C   0  0  0  0  0  0  0  0  0  0  0  0
   38.0530   29.0030   43.0940 C   0  0  0  0  0  0  0  0  0  0  0  0
   38.4510   29.8710   43.5900 H   0  0  0  0  0  0  0  0  0  0  0  0
   38.4560   27.7410   43.4510 C   0  0  0  0  0  0  0  0  0  0  0  0
   39.1970   27.6540   44.2590 H   0  0  0  0  0  0  0  0  0  0  0  0
   37.9560   26.6290   42.8260 C   0  0  0  0  0  3  0  0  0  0  0  0
   37.0290   26.8060   41.8200 C   0  0  0  0  0  3  0  0  0  0  0  0
  1  3  1  0  0  0  0
  1 19  1  0  0  0  0
  2  1  1  0  0  0  0
  4  5  2  0  0  0  0
  5  1  1  0  0  0  0
  6  4  1  0  0  0  0
  6  7  1  0  0  0  0
  7  8  1  0  0  0  0
  7  9  1  0  0  0  0
 10 11  1  0  0  0  0
 11 12  2  0  0  0  0
 11  7  1  0  0  0  0
 12 17  1  0  0  0  0
 13 12  1  0  0  0  0
 14 13  2  0  0  0  0
 15 14  1  0  0  0  0
 15 10  2  0  0  0  0
 16 10  1  0  0  0  0
 18 14  1  0  0  0  0
 19 21  1  0  0  0  0
 21 20  2  1  0  0  0
 21 24  1  0  0  0  0
 22 23  1  0  0  0  0
 22 21  1  0  0  0  0
 24 27  1  0  0  0  0
 25 26  1  0  0  0  0
 26 33  2  0  0  0  0
 26 27  1  0  0  0  0
 27 28  2  0  0  0  0
 28 30  1  0  0  0  0
 28 29  1  0  0  0  0
 30 31  1  0  0  0  0
 32 30  2  0  0  0  0
 33 32  1  0  0  0  0
M  END
>  <minimizedAffinity>
-4.80891371

$$$$

 OpenBabel03252504313D

 33 34  0  0  0  0  0  0  0  0999 V2000
   37.7150   25.0660   38.5840 C   0  0  0  0  0  0  0  0  0  0  0  0
   36.9160   24.3620   38.3120 H   0  0  0  0  0  0  0  0  0  0  0  0
   38.5490   25.0500   37.8340 H   0  0  0  0  0  0  0  0  0  0  0  0
   35.9090   26.8390   38.6810 C   0  0  0  0  0  3  0  0  0  0  0  0
   37.2040   26.4930   38.5810 C   0  0  0  0  0  3  0  0  0  0  0  0
   35.6300   28.2010   38.6610 O   0  0  0  0  0  0  0  0  0  0  0  0
   35.3810   29.0010   39.7500 C   0  0  0  0  0  0  0  0  0  0  0  0
   34.3050   29.3530   39.6730 H   0  0  0  0  0  0  0  0  0  0  0  0
   35.5090   28.4600   40.6920 H   0  0  0  0  0  0  0  0  0  0  0  0
   36.6160   30.6130   38.4650 C   0  0  0  0  0  0  0  0  0  0  0  0
   36.1680   30.2600   39.7540 C   0  0  0  0  0  0  0  0  0  0  0  0
   36.4870   31.0840   40.7920 C   0  0  0  0  0  0  0  0  0  0  0  0
   37.2040   32.1720   40.5180 N   0  0  0  0  0  0  0  0  0  0  0  0
   37.6360   32.5200   39.2960 C   0  0  0  0  0  0  0  0  0  0  0  0
   37.3520   31.7320   38.1910 N   0  0  0  0  0  0  0  0  0  0  0  0
   36.4340   30.0500   37.5580 H   0  0  0  0  0  0  0  0  0  0  0  0
   36.1160   30.7530   41.7330 H   0  0  0  0  0  0  0  0  0  0  0  0
   38.2170   33.4250   39.1510 H   0  0  0  0  0  0  0  0  0  0  0  0
   38.2920   24.8500   39.8230 O   0  0  0  0  0  0  0  0  0  0  0  0
   36.0270   23.4830   40.0890 O   0  0  0  0  0  0  0  0  0  0  0  0
   37.3380   23.7980   40.7490 P   0  0  1  0  0  0  0  0  0  0  0  0
   38.1570   22.3380   41.0030 O   0  0  0  0  0  0  0  0  0  0  0  0
   37.6230   21.5590   40.7840 H   0  0  0  0  0  0  0  0  0  0  0  0
   37.0740   24.5130   42.2680 O   0  0  0  0  0  0  0  0  0  0  0  0
   39.6660   24.6020   43.2690 F   0  0  0  0  0  0  0  0  0  0  0  0
   38.9710   25.7440   43.0300 C   0  0  0  0  0  0  0  0  0  0  0  0
   37.6690   25.7400   42.5280 C   0  0  0  0  0  0  0  0  0  0  0  0
   37.0970   26.9810   42.3370 C   0  0  0  0  0  0  0  0  0  0  0  0
   36.0930   26.9950   41.9500 H   0  0  0  0  0  0  0  0  0  0  0  0
   37.7590   28.1500   42.6200 C   0  0  0  0  0  0  0  0  0  0  0  0
   37.2240   29.0930   42.4370 H   0  0  0  0  0  0  0  0  0  0  0  0
   39.0370   28.1440   43.1130 C   0  0  0  0  0  3  0  0  0  0  0  0
   39.6530   26.9280   43.3200 C   0  0  0  0  0  3  0  0  0  0  0  0
  1 19  1  0  0  0  0
  2  1  1  0  0  0  0
  3  1  1  0  0  0  0
  5  1  1  0  0  0  0
  5  4  2  0  0  0  0
  6  4  1  0  0  0  0
  6  7  1  0  0  0  0
  7 11  1  0  0  0  0
  7  9  1  0  0  0  0
  8  7  1  0  0  0  0
 10 11  1  0  0  0  0
 11 12  2  0  0  0  0
 12 17  1  0  0  0  0
 13 12  1  0  0  0  0
 14 13  2  0  0  0  0
 15 10  2  0  0  0  0
 15 14  1  0  0  0  0
 16 10  1  0  0  0  0
 18 14  1  0  0  0  0
 19 21  1  0  0  0  0
 21 20  2  6  0  0  0
 21 22  1  0  0  0  0
 21 24  1  0  0  0  0
 23 22  1  0  0  0  0
 24 27  1  0  0  0  0
 26 25  1  0  0  0  0
 26 33  1  0  0  0  0
 27 26  2  0  0  0  0
 28 27  1  0  0  0  0
 28 30  2  0  0  0  0
 29 28  1  0  0  0  0
 30 32  1  0  0  0  0
 31 30  1  0  0  0  0
 32 33  2  0  0  0  0
M  END
>  <minimizedAffinity>
-4.71633148

$$$$

 OpenBabel03252504313D

 33 34  0  0  0  0  0  0  0  0999 V2000
   36.8260   29.3990   37.2830 C   0  0  0  0  0  0  0  0  0  0  0  0
   36.9990   28.5150   37.9110 H   0  0  0  0  0  0  0  0  0  0  0  0
   37.6700   29.5640   36.5630 H   0  0  0  0  0  0  0  0  0  0  0  0
   34.3580   28.9850   36.8910 C   0  0  0  0  0  3  0  0  0  0  0  0
   35.5940   29.2170   36.4180 C   0  0  0  0  0  3  0  0  0  0  0  0
   33.3500   28.8440   35.9450 O   0  0  0  0  0  0  0  0  0  0  0  0
   32.0230   28.5950   36.1950 C   0  0  0  0  0  0  0  0  0  0  0  0
   31.5250   28.3740   35.2000 H   0  0  0  0  0  0  0  0  0  0  0  0
   31.8860   27.7340   36.8570 H   0  0  0  0  0  0  0  0  0  0  0  0
   31.2470   30.8300   35.7720 C   0  0  0  0  0  0  0  0  0  0  0  0
   31.2830   29.7760   36.7080 C   0  0  0  0  0  0  0  0  0  0  0  0
   30.6560   29.9580   37.9050 C   0  0  0  0  0  0  0  0  0  0  0  0
   30.0480   31.1260   38.1110 N   0  0  0  0  0  0  0  0  0  0  0  0
   30.0060   32.1360   37.2290 C   0  0  0  0  0  0  0  0  0  0  0  0
   30.6210   32.0250   35.9910 N   0  0  0  0  0  0  0  0  0  0  0  0
   31.7020   30.8170   34.7900 H   0  0  0  0  0  0  0  0  0  0  0  0
   30.7260   29.1220   38.5590 H   0  0  0  0  0  0  0  0  0  0  0  0
   29.4890   33.0590   37.4690 H   0  0  0  0  0  0  0  0  0  0  0  0
   36.6570   30.5870   37.9730 O   0  0  0  0  0  0  0  0  0  0  0  0
   38.2430   30.0110   40.0280 O   0  0  0  0  0  0  0  0  0  0  0  0
   36.8290   30.3360   39.6400 P   0  0  1  0  0  0  0  0  0  0  0  0
   36.3630   31.7240   40.4900 O   0  0  0  0  0  0  0  0  0  0  0  0
   37.0220   32.0120   41.1410 H   0  0  0  0  0  0  0  0  0  0  0  0
   35.7880   29.0750   40.1030 O   0  0  0  0  0  0  0  0  0  0  0  0
   36.4670   26.6690   38.8850 F   0  0  0  0  0  0  0  0  0  0  0  0
   36.6400   26.8480   40.2200 C   0  0  0  0  0  0  0  0  0  0  0  0
   36.3120   28.0400   40.8670 C   0  0  0  0  0  0  0  0  0  0  0  0
   36.5470   28.0680   42.2260 C   0  0  0  0  0  0  0  0  0  0  0  0
   36.2990   28.9800   42.7400 H   0  0  0  0  0  0  0  0  0  0  0  0
   37.0690   26.9970   42.9070 C   0  0  0  0  0  0  0  0  0  0  0  0
   37.2230   27.1090   43.9900 H   0  0  0  0  0  0  0  0  0  0  0  0
   37.3890   25.8300   42.2630 C   0  0  0  0  0  3  0  0  0  0  0  0
   37.1730   25.7530   40.9030 C   0  0  0  0  0  3  0  0  0  0  0  0
  1  2  1  0  0  0  0
  1 19  1  0  0  0  0
  3  1  1  0  0  0  0
  5  4  2  0  0  0  0
  5  1  1  0  0  0  0
  6  7  1  0  0  0  0
  6  4  1  0  0  0  0
  7 11  1  0  0  0  0
  7  9  1  0  0  0  0
  8  7  1  0  0  0  0
 10 15  2  0  0  0  0
 10 11  1  0  0  0  0
 11 12  2  0  0  0  0
 12 13  1  0  0  0  0
 12 17  1  0  0  0  0
 14 18  1  0  0  0  0
 14 13  2  0  0  0  0
 15 14  1  0  0  0  0
 16 10  1  0  0  0  0
 19 21  1  0  0  0  0
 21 20  2  1  0  0  0
 21 24  1  0  0  0  0
 21 22  1  0  0  0  0
 22 23  1  0  0  0  0
 24 27  1  0  0  0  0
 25 26  1  0  0  0  0
 26 27  2  0  0  0  0
 26 33  1  0  0  0  0
 27 28  1  0  0  0  0
 28 29  1  0  0  0  0
 28 30  2  0  0  0  0
 30 31  1  0  0  0  0
 32 30  1  0  0  0  0
 33 32  2  0  0  0  0
M  END
>  <minimizedAffinity>
-4.68468332

$$$$

 OpenBabel03252504313D

 33 34  0  0  0  0  0  0  0  0999 V2000
   38.0520   30.1450   39.3460 C   0  0  0  0  0  0  0  0  0  0  0  0
   37.1690   30.0600   38.6980 H   0  0  0  0  0  0  0  0  0  0  0  0
   38.9920   29.8710   38.7990 H   0  0  0  0  0  0  0  0  0  0  0  0
   39.1130   31.9570   40.7620 C   0  0  0  0  0  3  0  0  0  0  0  0
   38.2580   31.5770   39.7970 C   0  0  0  0  0  3  0  0  0  0  0  0
   39.1660   33.3180   41.0400 O   0  0  0  0  0  0  0  0  0  0  0  0
   39.6560   34.3020   40.2170 C   0  0  0  0  0  0  0  0  0  0  0  0
   39.2010   34.1430   39.1890 H   0  0  0  0  0  0  0  0  0  0  0  0
   39.3870   35.3020   40.5700 H   0  0  0  0  0  0  0  0  0  0  0  0
   41.4220   34.0210   38.6130 C   0  0  0  0  0  0  0  0  0  0  0  0
   41.1180   34.2040   39.9760 C   0  0  0  0  0  0  0  0  0  0  0  0
   42.1520   34.2750   40.8620 C   0  0  0  0  0  0  0  0  0  0  0  0
   43.3880   34.1660   40.3760 N   0  0  0  0  0  0  0  0  0  0  0  0
   43.6920   33.9930   39.0810 C   0  0  0  0  0  0  0  0  0  0  0  0
   42.6930   33.9100   38.1210 N   0  0  0  0  0  0  0  0  0  0  0  0
   40.7000   33.9470   37.8090 H   0  0  0  0  0  0  0  0  0  0  0  0
   41.8460   34.4130   41.8710 H   0  0  0  0  0  0  0  0  0  0  0  0
   44.7250   33.9130   38.7600 H   0  0  0  0  0  0  0  0  0  0  0  0
   38.0190   29.3660   40.4890 O   0  0  0  0  0  0  0  0  0  0  0  0
   35.3820   29.6880   40.6080 O   0  0  0  0  0  0  0  0  0  0  0  0
   36.4860   28.6740   40.6940 P   0  0  1  0  0  0  0  0  0  0  0  0
   36.2100   27.5030   39.5030 O   0  0  0  0  0  0  0  0  0  0  0  0
   35.3630   27.6170   39.0450 H   0  0  0  0  0  0  0  0  0  0  0  0
   36.4480   27.8920   42.2030 O   0  0  0  0  0  0  0  0  0  0  0  0
   36.6800   25.2170   41.4850 F   0  0  0  0  0  0  0  0  0  0  0  0
   37.6480   25.8290   42.2160 C   0  0  0  0  0  0  0  0  0  0  0  0
   37.5670   27.1700   42.5950 C   0  0  0  0  0  0  0  0  0  0  0  0
   38.6300   27.6480   43.3340 C   0  0  0  0  0  0  0  0  0  0  0  0
   38.5820   28.6800   43.6350 H   0  0  0  0  0  0  0  0  0  0  0  0
   39.7010   26.8620   43.6800 C   0  0  0  0  0  0  0  0  0  0  0  0
   40.5020   27.3280   44.2710 H   0  0  0  0  0  0  0  0  0  0  0  0
   39.7720   25.5470   43.3030 C   0  0  0  0  0  3  0  0  0  0  0  0
   38.7340   25.0220   42.5610 C   0  0  0  0  0  3  0  0  0  0  0  0
  1  5  1  0  0  0  0
  1 19  1  0  0  0  0
  2  1  1  0  0  0  0
  3  1  1  0  0  0  0
  4  6  1  0  0  0  0
  5  4  2  0  0  0  0
  7  9  1  0  0  0  0
  7  6  1  0  0  0  0
  8  7  1  0  0  0  0
 10 11  1  0  0  0  0
 11  7  1  0  0  0  0
 11 12  2  0  0  0  0
 12 17  1  0  0  0  0
 13 12  1  0  0  0  0
 14 13  2  0  0  0  0
 15 10  2  0  0  0  0
 15 14  1  0  0  0  0
 16 10  1  0  0  0  0
 18 14  1  0  0  0  0
 19 21  1  0  0  0  0
 21 20  2  6  0  0  0
 21 24  1  0  0  0  0
 22 21  1  0  0  0  0
 23 22  1  0  0  0  0
 24 27  1  0  0  0  0
 25 26  1  0  0  0  0
 26 33  2  0  0  0  0
 26 27  1  0  0  0  0
 27 28  2  0  0  0  0
 28 29  1  0  0  0  0
 28 30  1  0  0  0  0
 30 31  1  0  0  0  0
 32 30  2  0  0  0  0
 33 32  1  0  0  0  0
M  END
>  <minimizedAffinity>
-4.6814537

$$$$

 OpenBabel03252504313D

 33 34  0  0  0  0  0  0  0  0999 V2000
   37.3870   31.9240   38.4140 C   0  0  0  0  0  0  0  0  0  0  0  0
   37.5140   31.6520   37.3570 H   0  0  0  0  0  0  0  0  0  0  0  0
   36.6520   32.7620   38.5380 H   0  0  0  0  0  0  0  0  0  0  0  0
   36.4620   29.5810   38.6780 C   0  0  0  0  0  3  0  0  0  0  0  0
   36.8110   30.7670   39.2060 C   0  0  0  0  0  3  0  0  0  0  0  0
   35.9500   28.6380   39.5610 O   0  0  0  0  0  0  0  0  0  0  0  0
   35.6340   28.8420   40.8820 C   0  0  0  0  0  0  0  0  0  0  0  0
   35.5800   29.9630   41.0490 H   0  0  0  0  0  0  0  0  0  0  0  0
   34.6680   28.4000   41.1440 H   0  0  0  0  0  0  0  0  0  0  0  0
   36.9170   27.0040   41.7460 C   0  0  0  0  0  0  0  0  0  0  0  0
   36.6920   28.3930   41.8220 C   0  0  0  0  0  0  0  0  0  0  0  0
   37.4430   29.1190   42.6970 C   0  0  0  0  0  0  0  0  0  0  0  0
   38.3450   28.4640   43.4270 N   0  0  0  0  0  0  0  0  0  0  0  0
   38.5710   27.1420   43.3640 C   0  0  0  0  0  0  0  0  0  0  0  0
   37.8450   26.3380   42.4980 N   0  0  0  0  0  0  0  0  0  0  0  0
   36.3930   26.3140   41.0970 H   0  0  0  0  0  0  0  0  0  0  0  0
   37.2170   30.1590   42.7000 H   0  0  0  0  0  0  0  0  0  0  0  0
   39.3250   26.6790   43.9910 H   0  0  0  0  0  0  0  0  0  0  0  0
   38.5450   32.3150   39.0630 O   0  0  0  0  0  0  0  0  0  0  0  0
   39.9490   30.2980   38.0460 O   0  0  0  0  0  0  0  0  0  0  0  0
   39.9130   31.7900   38.2090 P   0  0  1  0  0  0  0  0  0  0  0  0
   39.9370   32.4830   36.6640 O   0  0  0  0  0  0  0  0  0  0  0  0
   40.0700   31.8320   35.9570 H   0  0  0  0  0  0  0  0  0  0  0  0
   41.2980   32.3250   39.0350 O   0  0  0  0  0  0  0  0  0  0  0  0
   43.3560   33.4210   40.5490 F   0  0  0  0  0  0  0  0  0  0  0  0
   42.5100   32.5030   41.0830 C   0  0  0  0  0  0  0  0  0  0  0  0
   41.4660   31.9310   40.3560 C   0  0  0  0  0  0  0  0  0  0  0  0
   40.6930   31.0140   41.0380 C   0  0  0  0  0  0  0  0  0  0  0  0
   39.8830   30.5640   40.4910 H   0  0  0  0  0  0  0  0  0  0  0  0
   40.9290   30.6800   42.3490 C   0  0  0  0  0  0  0  0  0  0  0  0
   40.2610   29.9390   42.8120 H   0  0  0  0  0  0  0  0  0  0  0  0
   41.9560   31.2470   43.0560 C   0  0  0  0  0  3  0  0  0  0  0  0
   42.7570   32.1700   42.4170 C   0  0  0  0  0  3  0  0  0  0  0  0
  1  3  1  0  0  0  0
  1 19  1  0  0  0  0
  1  5  1  0  0  0  0
  2  1  1  0  0  0  0
  4  5  2  0  0  0  0
  4  6  1  0  0  0  0
  6  7  1  0  0  0  0
  7  8  1  0  0  0  0
  7  9  1  0  0  0  0
  7 11  1  0  0  0  0
 10 11  2  0  0  0  0
 10 15  1  0  0  0  0
 11 12  1  0  0  0  0
 12 17  1  0  0  0  0
 12 13  2  0  0  0  0
 14 13  1  0  0  0  0
 14 18  1  0  0  0  0
 15 14  2  0  0  0  0
 16 10  1  0  0  0  0
 21 20  2  6  0  0  0
 21 24  1  0  0  0  0
 21 19  1  0  0  0  0
 22 21  1  0  0  0  0
 23 22  1  0  0  0  0
 24 27  1  0  0  0  0
 25 26  1  0  0  0  0
 26 33  1  0  0  0  0
 27 28  1  0  0  0  0
 27 26  2  0  0  0  0
 28 30  2  0  0  0  0
 29 28  1  0  0  0  0
 30 31  1  0  0  0  0
 30 32  1  0  0  0  0
 33 32  2  0  0  0  0
M  END
>  <minimizedAffinity>
-4.67093706

$$$$

 OpenBabel03252504313D

 33 34  0  0  0  0  0  0  0  0999 V2000
   37.6080   25.7600   39.4350 C   0  0  0  0  0  0  0  0  0  0  0  0
   36.6940   25.1760   39.6100 H   0  0  0  0  0  0  0  0  0  0  0  0
   37.9990   25.6110   38.3940 H   0  0  0  0  0  0  0  0  0  0  0  0
   36.1740   27.7760   39.9780 C   0  0  0  0  0  3  0  0  0  0  0  0
   37.3320   27.2460   39.5470 C   0  0  0  0  0  3  0  0  0  0  0  0
   36.1040   29.1640   40.0130 O   0  0  0  0  0  0  0  0  0  0  0  0
   36.6140   30.0320   39.0790 C   0  0  0  0  0  0  0  0  0  0  0  0
   37.2500   29.4230   38.3620 H   0  0  0  0  0  0  0  0  0  0  0  0
   35.8240   30.5330   38.5130 H   0  0  0  0  0  0  0  0  0  0  0  0
   38.9060   30.7020   39.3450 C   0  0  0  0  0  0  0  0  0  0  0  0
   37.5670   31.0210   39.6450 C   0  0  0  0  0  0  0  0  0  0  0  0
   37.3220   32.1470   40.3720 C   0  0  0  0  0  0  0  0  0  0  0  0
   38.3700   32.8760   40.7530 N   0  0  0  0  0  0  0  0  0  0  0  0
   39.6500   32.5840   40.4730 C   0  0  0  0  0  0  0  0  0  0  0  0
   39.9780   31.4550   39.7390 N   0  0  0  0  0  0  0  0  0  0  0  0
   39.2380   29.8410   38.7790 H   0  0  0  0  0  0  0  0  0  0  0  0
   36.2890   32.3220   40.5600 H   0  0  0  0  0  0  0  0  0  0  0  0
   40.4530   33.2280   40.8180 H   0  0  0  0  0  0  0  0  0  0  0  0
   38.6560   25.4820   40.2940 O   0  0  0  0  0  0  0  0  0  0  0  0
   36.5940   24.6160   41.7330 O   0  0  0  0  0  0  0  0  0  0  0  0
   38.0920   24.6930   41.6850 P   0  0  1  0  0  0  0  0  0  0  0  0
   38.6960   23.1130   41.7440 O   0  0  0  0  0  0  0  0  0  0  0  0
   38.0080   22.4470   41.8980 H   0  0  0  0  0  0  0  0  0  0  0  0
   38.6820   25.5220   43.0470 O   0  0  0  0  0  0  0  0  0  0  0  0
   36.4590   27.0690   43.6740 F   0  0  0  0  0  0  0  0  0  0  0  0
   37.6310   27.6490   43.3070 C   0  0  0  0  0  0  0  0  0  0  0  0
   38.7670   26.9060   42.9850 C   0  0  0  0  0  0  0  0  0  0  0  0
   39.8820   27.6400   42.6320 C   0  0  0  0  0  0  0  0  0  0  0  0
   40.7660   27.0820   42.3810 H   0  0  0  0  0  0  0  0  0  0  0  0
   39.8810   29.0120   42.5970 C   0  0  0  0  0  0  0  0  0  0  0  0
   40.8150   29.5130   42.3040 H   0  0  0  0  0  0  0  0  0  0  0  0
   38.7600   29.7330   42.9150 C   0  0  0  0  0  3  0  0  0  0  0  0
   37.6200   29.0450   43.2750 C   0  0  0  0  0  3  0  0  0  0  0  0
  1  5  1  0  0  0  0
  1  2  1  0  0  0  0
  1 19  1  0  0  0  0
  3  1  1  0  0  0  0
  4  6  1  0  0  0  0
  5  4  2  0  0  0  0
  7 11  1  0  0  0  0
  7  6  1  0  0  0  0
  8  7  1  0  0  0  0
  9  7  1  0  0  0  0
 10 11  2  0  0  0  0
 10 15  1  0  0  0  0
 11 12  1  0  0  0  0
 12 17  1  0  0  0  0
 12 13  2  0  0  0  0
 14 13  1  0  0  0  0
 14 18  1  0  0  0  0
 15 14  2  0  0  0  0
 16 10  1  0  0  0  0
 19 21  1  0  0  0  0
 21 20  2  1  0  0  0
 21 22  1  0  0  0  0
 21 24  1  0  0  0  0
 22 23  1  0  0  0  0
 26 25  1  0  0  0  0
 27 24  1  0  0  0  0
 27 26  2  0  0  0  0
 28 27  1  0  0  0  0
 29 28  1  0  0  0  0
 30 28  2  0  0  0  0
 30 32  1  0  0  0  0
 31 30  1  0  0  0  0
 32 33  2  0  0  0  0
 33 26  1  0  0  0  0
M  END
>  <minimizedAffinity>
-4.66564989

$$$$
