
 OpenBabel03252506373D

 44 47  0  0  1  0  0  0  0  0999 V2000
   44.4960   35.5660   45.1230 C   0  0  0  0  0  0  0  0  0  0  0  0
   45.1360   35.5490   43.8700 C   0  0  0  0  0  0  0  0  0  0  0  0
   46.0430   34.5830   43.6010 C   0  0  0  0  0  0  0  0  0  0  0  0
   46.2860   33.6710   44.5740 N   0  0  0  0  0  0  0  0  0  0  0  0
   45.6820   33.6890   45.7530 C   0  0  0  0  0  0  0  0  0  0  0  0
   44.7830   34.6320   46.0440 N   0  0  0  0  0  0  0  0  0  0  0  0
   46.0150   32.6770   46.7170 N   0  0  0  0  0  0  0  0  0  0  0  0
   45.2820   32.4400   47.9150 C   0  0  0  0  0  0  0  0  0  0  0  0
   46.3670   32.0630   48.9080 C   0  0  0  0  0  0  0  0  0  0  0  0
   47.6340   31.9640   48.1350 C   0  0  0  0  0  0  0  0  0  0  0  0
   47.1260   31.7550   46.7060 C   0  0  1  0  0  0  0  0  0  0  0  0
   43.7730   36.3550   45.3090 H   0  0  0  0  0  0  0  0  0  0  0  0
   46.5510   34.5430   42.6470 H   0  0  0  0  0  0  0  0  0  0  0  0
   44.3960   31.8860   47.9700 H   0  0  0  0  0  0  0  0  0  0  0  0
   44.9800   33.4750   48.2820 H   0  0  0  0  0  0  0  0  0  0  0  0
   46.3810   32.6460   49.8210 H   0  0  0  0  0  0  0  0  0  0  0  0
   46.1050   31.0090   49.2220 H   0  0  0  0  0  0  0  0  0  0  0  0
   48.2880   31.1350   48.4580 H   0  0  0  0  0  0  0  0  0  0  0  0
   48.1510   32.9400   48.2080 H   0  0  0  0  0  0  0  0  0  0  0  0
   47.9540   32.0410   46.0510 H   0  0  0  0  0  0  0  0  0  0  0  0
   44.7850   36.5790   42.9280 N   0  0  0  0  0  0  0  0  0  0  0  0
   44.6280   36.2720   41.9320 H   0  0  0  0  0  0  0  0  0  0  0  0
   44.6790   37.5770   43.1670 H   0  0  0  0  0  0  0  0  0  0  0  0
   46.6010   30.0660   46.5210 S   0  0  0  0  0  0  0  0  0  0  0  0
   45.7850   30.5120   43.3180 O   0  0  0  0  0  0  0  0  0  0  0  0
   45.0910   29.9950   44.2100 C   0  0  0  0  0  0  0  0  0  0  0  0
   45.0990   29.7890   45.6750 C   0  0  1  0  0  0  0  0  0  0  0  0
   44.5300   28.3960   45.7920 C   0  0  0  0  0  0  0  0  0  0  0  0
   43.2670   28.6180   44.9500 C   0  0  0  0  0  0  0  0  0  0  0  0
   43.8560   29.3560   43.8390 N   0  0  0  0  0  0  0  0  0  0  0  0
   44.2050   30.4050   45.9730 H   0  0  0  0  0  0  0  0  0  0  0  0
   44.2380   28.1130   46.8060 H   0  0  0  0  0  0  0  0  0  0  0  0
   45.1590   27.6370   45.2890 H   0  0  0  0  0  0  0  0  0  0  0  0
   42.8910   27.6450   44.5830 H   0  0  0  0  0  0  0  0  0  0  0  0
   42.5240   29.2020   45.5160 H   0  0  0  0  0  0  0  0  0  0  0  0
   42.5350   31.5520   42.6420 F   0  0  0  0  0  0  0  0  0  0  0  0
   42.5370   30.3950   41.9580 C   0  0  0  0  0  0  0  0  0  0  0  0
   43.1810   29.3650   42.5680 C   0  0  0  0  0  0  0  0  0  0  0  0
   43.2370   28.1190   41.9340 C   0  0  0  0  0  0  0  0  0  0  0  0
   43.7390   27.2370   42.3570 H   0  0  0  0  0  0  0  0  0  0  0  0
   42.6420   27.9120   40.6850 C   0  0  0  0  0  0  0  0  0  0  0  0
   42.6980   26.9390   40.2120 H   0  0  0  0  0  0  0  0  0  0  0  0
   41.9810   28.9780   40.0660 C   0  0  0  0  0  3  0  0  0  0  0  0
   41.9580   30.1870   40.7400 C   0  0  0  0  0  3  0  0  0  0  0  0
  1 12  1  0  0  0  0
  1  6  1  0  0  0  0
  2  1  2  0  0  0  0
  3  2  1  0  0  0  0
  3  4  2  0  0  0  0
  4  5  1  0  0  0  0
  5  6  2  0  0  0  0
  5  7  1  0  0  0  0
  7  8  1  0  0  0  0
  8 14  1  0  0  0  0
  8 15  1  0  0  0  0
  8  9  1  0  0  0  0
  9 17  1  0  0  0  0
  9 16  1  0  0  0  0
 10 19  1  0  0  0  0
 10 18  1  0  0  0  0
 10  9  1  0  0  0  0
 11 20  1  6  0  0  0
 11  7  1  0  0  0  0
 11 10  1  0  0  0  0
 13  3  1  0  0  0  0
 21 23  1  0  0  0  0
 21  2  1  0  0  0  0
 22 21  1  0  0  0  0
 24 11  1  0  0  0  0
 25 26  2  0  0  0  0
 26 27  1  0  0  0  0
 27 28  1  0  0  0  0
 27 31  1  1  0  0  0
 27 24  1  0  0  0  0
 28 32  1  0  0  0  0
 29 35  1  0  0  0  0
 29 28  1  0  0  0  0
 30 26  1  0  0  0  0
 30 29  1  0  0  0  0
 33 28  1  0  0  0  0
 34 29  1  0  0  0  0
 37 38  1  0  0  0  0
 37 36  1  0  0  0  0
 38 30  1  0  0  0  0
 39 40  1  0  0  0  0
 39 38  2  0  0  0  0
 41 39  1  0  0  0  0
 42 41  1  0  0  0  0
 43 41  2  0  0  0  0
 43 44  1  0  0  0  0
 44 37  2  0  0  0  0
M  END
>  <minimizedAffinity>
-5.35400867

>  <minimizedRMSD>
0.285442144

$$$$
