
 OpenBabel03252506373D

 44 47  0  0  1  0  0  0  0  0999 V2000
   44.4930   35.5700   45.1200 C   0  0  0  0  0  0  0  0  0  0  0  0
   45.1300   35.5440   43.8650 C   0  0  0  0  0  0  0  0  0  0  0  0
   46.0330   34.5740   43.5990 C   0  0  0  0  0  0  0  0  0  0  0  0
   46.2750   33.6660   44.5760 N   0  0  0  0  0  0  0  0  0  0  0  0
   45.6730   33.6910   45.7560 C   0  0  0  0  0  0  0  0  0  0  0  0
   44.7780   34.6390   46.0440 N   0  0  0  0  0  0  0  0  0  0  0  0
   46.0050   32.6830   46.7240 N   0  0  0  0  0  0  0  0  0  0  0  0
   45.2720   32.4530   47.9240 C   0  0  0  0  0  0  0  0  0  0  0  0
   46.3580   32.0770   48.9170 C   0  0  0  0  0  0  0  0  0  0  0  0
   47.6230   31.9700   48.1420 C   0  0  0  0  0  0  0  0  0  0  0  0
   47.1120   31.7570   46.7150 C   0  0  1  0  0  0  0  0  0  0  0  0
   43.7730   36.3620   45.3040 H   0  0  0  0  0  0  0  0  0  0  0  0
   46.5390   34.5280   42.6440 H   0  0  0  0  0  0  0  0  0  0  0  0
   44.3850   31.9030   47.9840 H   0  0  0  0  0  0  0  0  0  0  0  0
   44.9750   33.4910   48.2870 H   0  0  0  0  0  0  0  0  0  0  0  0
   46.3760   32.6650   49.8280 H   0  0  0  0  0  0  0  0  0  0  0  0
   46.0930   31.0260   49.2360 H   0  0  0  0  0  0  0  0  0  0  0  0
   48.2760   31.1400   48.4680 H   0  0  0  0  0  0  0  0  0  0  0  0
   48.1440   32.9440   48.2100 H   0  0  0  0  0  0  0  0  0  0  0  0
   47.9400   32.0370   46.0570 H   0  0  0  0  0  0  0  0  0  0  0  0
   44.7800   36.5710   42.9190 N   0  0  0  0  0  0  0  0  0  0  0  0
   44.6210   36.2600   41.9250 H   0  0  0  0  0  0  0  0  0  0  0  0
   44.6790   37.5710   43.1550 H   0  0  0  0  0  0  0  0  0  0  0  0
   46.5810   30.0690   46.5380 S   0  0  0  0  0  0  0  0  0  0  0  0
   45.8300   30.5150   43.3200 O   0  0  0  0  0  0  0  0  0  0  0  0
   45.1180   29.9970   44.1980 C   0  0  0  0  0  0  0  0  0  0  0  0
   45.0970   29.7900   45.6620 C   0  0  1  0  0  0  0  0  0  0  0  0
   44.5270   28.3970   45.7670 C   0  0  0  0  0  0  0  0  0  0  0  0
   43.2810   28.6170   44.9000 C   0  0  0  0  0  0  0  0  0  0  0  0
   43.8910   29.3560   43.8010 N   0  0  0  0  0  0  0  0  0  0  0  0
   44.1960   30.4050   45.9430 H   0  0  0  0  0  0  0  0  0  0  0  0
   44.2140   28.1120   46.7750 H   0  0  0  0  0  0  0  0  0  0  0  0
   45.1670   27.6380   45.2770 H   0  0  0  0  0  0  0  0  0  0  0  0
   42.9140   27.6440   44.5250 H   0  0  0  0  0  0  0  0  0  0  0  0
   42.5260   29.2010   45.4510 H   0  0  0  0  0  0  0  0  0  0  0  0
   41.8090   31.0800   42.9710 F   0  0  0  0  0  0  0  0  0  0  0  0
   42.2420   30.1730   42.0780 C   0  0  0  0  0  0  0  0  0  0  0  0
   43.2420   29.3650   42.5170 C   0  0  0  0  0  0  0  0  0  0  0  0
   43.7620   28.3880   41.6590 C   0  0  0  0  0  0  0  0  0  0  0  0
   44.5680   27.6960   41.9350 H   0  0  0  0  0  0  0  0  0  0  0  0
   43.2700   28.2280   40.3590 C   0  0  0  0  0  0  0  0  0  0  0  0
   43.6850   27.4650   39.7120 H   0  0  0  0  0  0  0  0  0  0  0  0
   42.2390   29.0650   39.9190 C   0  0  0  0  0  3  0  0  0  0  0  0
   41.7670   30.0120   40.8090 C   0  0  0  0  0  3  0  0  0  0  0  0
  1 12  1  0  0  0  0
  1  6  1  0  0  0  0
  2  1  2  0  0  0  0
  3  2  1  0  0  0  0
  3  4  2  0  0  0  0
  4  5  1  0  0  0  0
  5  6  2  0  0  0  0
  5  7  1  0  0  0  0
  7  8  1  0  0  0  0
  8 14  1  0  0  0  0
  8 15  1  0  0  0  0
  8  9  1  0  0  0  0
  9 17  1  0  0  0  0
  9 16  1  0  0  0  0
 10 19  1  0  0  0  0
 10 18  1  0  0  0  0
 10  9  1  0  0  0  0
 11 20  1  6  0  0  0
 11  7  1  0  0  0  0
 11 10  1  0  0  0  0
 13  3  1  0  0  0  0
 21 23  1  0  0  0  0
 21  2  1  0  0  0  0
 22 21  1  0  0  0  0
 24 11  1  0  0  0  0
 25 26  2  0  0  0  0
 26 27  1  0  0  0  0
 27 28  1  0  0  0  0
 27 31  1  1  0  0  0
 27 24  1  0  0  0  0
 28 32  1  0  0  0  0
 29 35  1  0  0  0  0
 29 28  1  0  0  0  0
 30 26  1  0  0  0  0
 30 29  1  0  0  0  0
 33 28  1  0  0  0  0
 34 29  1  0  0  0  0
 37 38  1  0  0  0  0
 37 36  1  0  0  0  0
 38 30  1  0  0  0  0
 39 40  1  0  0  0  0
 39 38  2  0  0  0  0
 41 39  1  0  0  0  0
 42 41  1  0  0  0  0
 43 41  2  0  0  0  0
 43 44  1  0  0  0  0
 44 37  2  0  0  0  0
M  END
>  <minimizedAffinity>
-5.33800507

>  <minimizedRMSD>
0.354080349

$$$$
