
 OpenBabel03242515553D

 37 40  0  0  0  0  0  0  0  0999 V2000
   45.9680   32.7960   46.2850 C   0  0  0  0  0  0  0  0  0  0  0  0
   45.4310   32.8860   47.5740 C   0  0  0  0  0  0  0  0  0  0  0  0
   45.6610   31.9510   48.5510 C   0  0  0  0  0  0  0  0  0  0  0  0
   46.4270   30.8780   48.3160 C   0  0  0  0  0  0  0  0  0  0  0  0
   46.9820   30.7350   47.0640 C   0  0  0  0  0  0  0  0  0  0  0  0
   47.7620   29.6330   46.8330 C   0  0  0  0  0  0  0  0  0  0  0  0
   48.3370   29.4300   45.6100 C   0  0  0  0  0  0  0  0  0  0  0  0
   48.0920   30.3840   44.6270 C   0  0  0  0  0  0  0  0  0  0  0  0
   47.3130   31.4450   44.9260 C   0  0  0  0  0  0  0  0  0  0  0  0
   46.7370   31.6840   46.1000 C   0  0  0  0  0  0  0  0  0  0  0  0
   44.8040   33.7280   47.8310 H   0  0  0  0  0  0  0  0  0  0  0  0
   45.2100   32.0850   49.5340 H   0  0  0  0  0  0  0  0  0  0  0  0
   46.5850   30.1630   49.1160 H   0  0  0  0  0  0  0  0  0  0  0  0
   47.9150   28.9090   47.6650 H   0  0  0  0  0  0  0  0  0  0  0  0
   48.9440   28.5080   45.5490 H   0  0  0  0  0  0  0  0  0  0  0  0
   48.6420   30.0450   43.7560 H   0  0  0  0  0  0  0  0  0  0  0  0
   44.4930   35.8130   45.0000 C   0  0  0  0  0  0  0  0  0  0  0  0
   45.1030   35.9520   43.7150 C   0  0  0  0  0  0  0  0  0  0  0  0
   46.0450   34.9740   43.2710 C   0  0  0  0  0  0  0  0  0  0  0  0
   46.2990   33.9630   44.1160 N   0  0  0  0  0  0  0  0  0  0  0  0
   45.7450   33.8320   45.2900 C   0  0  0  0  0  0  0  0  0  0  0  0
   44.8400   34.7690   45.7200 N   0  0  0  0  0  0  0  0  0  0  0  0
   43.7860   36.5710   45.3040 H   0  0  0  0  0  0  0  0  0  0  0  0
   46.4920   35.1000   42.2970 H   0  0  0  0  0  0  0  0  0  0  0  0
   44.7390   37.0740   42.9280 N   0  0  0  0  0  0  0  0  0  0  0  0
   44.4770   37.9460   43.4240 H   0  0  0  0  0  0  0  0  0  0  0  0
   44.7340   37.0290   41.8720 H   0  0  0  0  0  0  0  0  0  0  0  0
   47.2310   32.1960   43.8100 O   0  0  0  0  0  0  0  0  0  0  0  0
   46.6550   30.4700   41.6290 F   0  0  0  0  0  0  0  0  0  0  0  0
   47.8370   31.1740   41.5810 C   0  0  0  0  0  0  0  0  0  0  0  0
   48.0300   32.0000   42.6960 C   0  0  0  0  0  0  0  0  0  0  0  0
   49.1670   32.7700   42.7610 C   0  0  0  0  0  0  0  0  0  0  0  0
   49.4520   33.4590   43.5660 H   0  0  0  0  0  0  0  0  0  0  0  0
   50.1340   32.7600   41.7640 C   0  0  0  0  0  0  0  0  0  0  0  0
   51.0430   33.3460   41.7710 H   0  0  0  0  0  0  0  0  0  0  0  0
   49.9090   31.9260   40.6710 C   0  0  0  0  0  0  0  0  0  0  0  0
   48.7760   31.1450   40.5820 C   0  0  0  0  0  0  0  0  0  0  0  0
  1  2  1  0  0  0  0
  2 11  1  0  0  0  0
  2  3  2  0  0  0  0
  3 12  1  0  0  0  0
  4  3  1  0  0  0  0
  4 13  1  0  0  0  0
  5  4  2  0  0  0  0
  6  5  1  0  0  0  0
  6 14  1  0  0  0  0
  7  6  2  0  0  0  0
  8  9  2  0  0  0  0
  8  7  1  0  0  0  0
  9 10  1  0  0  0  0
 10  1  2  0  0  0  0
 10  5  1  0  0  0  0
 15  7  1  0  0  0  0
 16  8  1  0  0  0  0
 17 23  1  0  0  0  0
 17 22  1  0  0  0  0
 18 17  2  0  0  0  0
 19 18  1  0  0  0  0
 19 20  2  0  0  0  0
 20 21  1  0  0  0  0
 21 22  2  0  0  0  0
 21  1  1  0  0  0  0
 24 19  1  0  0  0  0
 25 26  1  0  0  0  0
 25 18  1  0  0  0  0
 27 25  1  0  0  0  0
 28  9  1  0  0  0  0
 30 29  1  0  0  0  0
 30 31  1  0  0  0  0
 31 32  2  0  0  0  0
 31 28  1  0  0  0  0
 32 33  1  0  0  0  0
 34 35  1  0  0  0  0
 34 32  1  0  0  0  0
 36 34  2  0  0  0  0
 37 36  1  0  0  0  0
 37 30  2  0  0  0  0
M  END
>  <minimizedAffinity>
-6.01488447

>  <minimizedRMSD>
1.02341199

$$$$
