REMARK  Name = 
REMARK  4 active torsions:
REMARK  status: ('A' for Active; 'I' for Inactive)
REMARK    1  A    between atoms: C_2  and  N_12
REMARK    2  A    between atoms: C_11  and  S_13
REMARK    3  A    between atoms: S_13  and  C_16
REMARK    4  A    between atoms: N_19  and  C_38
REMARK                            x       y       z     vdW  Elec       q    Type
REMARK                         _______ _______ _______ _____ _____    ______ ____
ROOT
ATOM      1  C   UNL     1      44.500  35.536  45.123  0.00  0.00    +0.000 A 
ATOM      2  C   UNL     1      45.161  35.506  43.881  0.00  0.00    +0.000 A 
ATOM      3  C   UNL     1      46.081  34.544  43.642  0.00  0.00    +0.000 A 
ATOM      4  N   UNL     1      46.315  33.649  44.632  0.00  0.00    +0.000 NA
ATOM      5  C   UNL     1      45.691  33.679  45.800  0.00  0.00    +0.000 A 
ATOM      6  N   UNL     1      44.779  34.618  46.062  0.00  0.00    +0.000 NA
ATOM      7  N   UNL     1      46.016  32.684  46.785  0.00  0.00    +0.000 N 
ATOM      8  C   UNL     1      45.264  32.458  47.973  0.00  0.00    +0.000 C 
ATOM      9  C   UNL     1      46.335  32.105  48.990  0.00  0.00    +0.000 C 
ATOM     10  C   UNL     1      47.616  32.006  48.240  0.00  0.00    +0.000 C 
ATOM     11  C   UNL     1      47.134  31.772  46.806  0.00  0.00    +0.000 C 
ATOM     12  H   UNL     1      43.767  36.321  45.285  0.00  0.00    +0.000 HD
ATOM     13  H   UNL     1      46.605  34.495  42.697  0.00  0.00    +0.000 HD
ATOM     14  H   UNL     1      44.382  31.897  48.022  0.00  0.00    +0.000 HD
ATOM     15  H   UNL     1      44.947  33.496  48.320  0.00  0.00    +0.000 HD
ATOM     16  H   UNL     1      46.329  32.702  49.895  0.00  0.00    +0.000 HD
ATOM     17  H   UNL     1      46.077  31.054  49.315  0.00  0.00    +0.000 HD
ATOM     18  H   UNL     1      48.272  31.187  48.587  0.00  0.00    +0.000 HD
ATOM     19  H   UNL     1      48.124  32.987  48.308  0.00  0.00    +0.000 HD
ATOM     20  H   UNL     1      47.971  32.055  46.161  0.00  0.00    +0.000 HD
ENDROOT
BRANCH   2  21
ATOM     21  N   UNL     1      44.817  36.519  42.918  0.00  0.00    +0.000 N 
ATOM     22  H   UNL     1      44.680  36.196  41.924  0.00  0.00    +0.000 HD
ATOM     23  H   UNL     1      44.699  37.520  43.141  0.00  0.00    +0.000 HD
ENDBRANCH   2  21
BRANCH  11  24
ATOM     24  S   UNL     1      46.627  30.076  46.637  0.00  0.00    +0.000 S 
BRANCH  24  27
ATOM     25  O   UNL     1      45.612  30.511  43.490  0.00  0.00    +0.000 OA
ATOM     26  C   UNL     1      44.980  29.986  44.423  0.00  0.00    +0.000 C 
ATOM     27  C   UNL     1      45.080  29.780  45.884  0.00  0.00    +0.000 C 
ATOM     28  C   UNL     1      44.536  28.381  46.035  0.00  0.00    +0.000 C 
ATOM     29  C   UNL     1      43.221  28.587  45.272  0.00  0.00    +0.000 C 
ATOM     30  N   UNL     1      43.732  29.332  44.127  0.00  0.00    +0.000 N 
ATOM     31  H   UNL     1      44.198  30.386  46.237  0.00  0.00    +0.000 HD
ATOM     32  H   UNL     1      44.309  28.094  47.065  0.00  0.00    +0.000 HD
ATOM     33  H   UNL     1      45.142  27.629  45.494  0.00  0.00    +0.000 HD
ATOM     34  H   UNL     1      42.835  27.610  44.928  0.00  0.00    +0.000 HD
ATOM     35  H   UNL     1      42.507  29.163  45.882  0.00  0.00    +0.000 HD
BRANCH  30  38
ATOM     36  F   UNL     1      41.087  30.265  43.764  0.00  0.00    +0.000 F 
ATOM     37  C   UNL     1      41.713  29.771  42.682  0.00  0.00    +0.000 A 
ATOM     38  C   UNL     1      42.981  29.333  42.900  0.00  0.00    +0.000 A 
ATOM     39  C   UNL     1      43.716  28.800  41.834  0.00  0.00    +0.000 A 
ATOM     40  H   UNL     1      44.745  28.425  41.925  0.00  0.00    +0.000 HD
ATOM     41  C   UNL     1      43.169  28.709  40.549  0.00  0.00    +0.000 A 
ATOM     42  H   UNL     1      43.755  28.293  39.739  0.00  0.00    +0.000 HD
ATOM     43  C   UNL     1      41.863  29.162  40.337  0.00  0.00    +0.000 A 
ATOM     44  C   UNL     1      41.186  29.679  41.427  0.00  0.00    +0.000 A 
ENDBRANCH  30  38
ENDBRANCH  24  27
ENDBRANCH  11  24
TORSDOF 4
