
 OpenBabel03242523533D

 43 46  0  0  1  0  0  0  0  0999 V2000
   39.5000   30.7690   40.2050 C   0  0  1  0  0  0  0  0  0  0  0  0
   40.5700   30.8360   41.2940 C   0  0  1  0  0  0  0  0  0  0  0  0
   41.0300   32.1640   41.4000 O   0  0  0  0  0  0  0  0  0  0  0  0
   41.0630   32.8260   40.1770 C   0  0  0  0  0  0  0  0  0  0  0  0
   39.6540   33.1070   39.6750 C   0  0  2  0  0  0  0  0  0  0  0  0
   38.7230   32.0680   40.3380 C   0  0  1  0  0  0  0  0  0  0  0  0
   38.8290   29.9010   40.3530 H   0  0  0  0  0  0  0  0  0  0  0  0
   41.3940   30.1500   41.0850 H   0  0  0  0  0  0  0  0  0  0  0  0
   41.5180   33.7990   40.3670 H   0  0  0  0  0  0  0  0  0  0  0  0
   41.6990   32.3200   39.4290 H   0  0  0  0  0  0  0  0  0  0  0  0
   39.3230   34.1290   39.8990 H   0  0  0  0  0  0  0  0  0  0  0  0
   38.6200   32.3570   41.3960 H   0  0  0  0  0  0  0  0  0  0  0  0
   40.0900   30.6950   38.9440 O   0  0  0  0  0  0  0  0  0  0  0  0
   39.4490   30.2090   38.3720 H   0  0  0  0  0  0  0  0  0  0  0  0
   39.6120   32.7910   38.3140 O   0  0  0  0  0  0  0  0  0  0  0  0
   39.0590   33.4420   37.8040 H   0  0  0  0  0  0  0  0  0  0  0  0
   39.9070   30.5980   42.5050 O   0  0  0  0  0  0  0  0  0  0  0  0
   39.3770   29.4280   42.8760 C   0  0  0  0  0  0  0  0  0  0  0  0
   40.1770   28.2980   43.0290 C   0  0  0  0  0  0  0  0  0  0  0  0
   39.5870   27.1060   43.4180 C   0  0  0  0  0  0  0  0  0  0  0  0
   38.2180   27.0680   43.6450 N   0  0  0  0  0  0  0  0  0  0  0  0
   37.4810   28.1790   43.4860 C   0  0  0  0  0  0  0  0  0  0  0  0
   38.0440   29.3530   43.1060 N   0  0  0  0  0  0  0  0  0  0  0  0
   41.2300   28.3190   42.8560 H   0  0  0  0  0  0  0  0  0  0  0  0
   36.4050   28.1880   43.6540 H   0  0  0  0  0  0  0  0  0  0  0  0
   40.4000   25.8540   43.5810 C   0  0  0  0  0  0  0  0  0  0  0  0
   39.7590   24.5490   43.1700 C   0  0  0  0  0  0  0  0  0  0  0  0
   40.9340   25.1880   42.4240 C   0  0  0  0  0  0  0  0  0  0  0  0
   40.9590   25.8690   44.5370 H   0  0  0  0  0  0  0  0  0  0  0  0
   40.0690   23.6790   43.7820 H   0  0  0  0  0  0  0  0  0  0  0  0
   38.7620   24.5540   42.7330 H   0  0  0  0  0  0  0  0  0  0  0  0
   41.9010   24.6440   42.3920 H   0  0  0  0  0  0  0  0  0  0  0  0
   40.6340   25.5010   41.3870 H   0  0  0  0  0  0  0  0  0  0  0  0
   37.4930   32.0430   39.7180 O   0  0  0  0  0  0  0  0  0  0  0  0
   37.1940   31.0490   37.2330 F   0  0  0  0  0  0  0  0  0  0  0  0
   36.5380   30.5260   38.3050 C   0  0  0  0  0  0  0  0  0  0  0  0
   36.6340   30.9760   39.6250 C   0  0  0  0  0  0  0  0  0  0  0  0
   35.8930   30.3220   40.5870 C   0  0  0  0  0  0  0  0  0  0  0  0
   36.0370   30.7460   41.5680 H   0  0  0  0  0  0  0  0  0  0  0  0
   35.0870   29.2570   40.2380 C   0  0  0  0  0  0  0  0  0  0  0  0
   34.5350   28.7940   41.0500 H   0  0  0  0  0  0  0  0  0  0  0  0
   34.9950   28.8130   38.9340 C   0  0  0  0  0  3  0  0  0  0  0  0
   35.7270   29.4520   37.9530 C   0  0  0  0  0  3  0  0  0  0  0  0
  1  6  1  0  0  0  0
  1  7  1  1  0  0  0
  1  2  1  0  0  0  0
  2  8  1  6  0  0  0
  2  3  1  0  0  0  0
  2 17  1  0  0  0  0
  4  9  1  0  0  0  0
  4  3  1  0  0  0  0
  5 11  1  1  0  0  0
  5  4  1  0  0  0  0
  5  6  1  0  0  0  0
  6 12  1  1  0  0  0
 10  4  1  0  0  0  0
 13  1  1  0  0  0  0
 14 13  1  0  0  0  0
 15  5  1  0  0  0  0
 16 15  1  0  0  0  0
 17 18  1  0  0  0  0
 18 19  2  0  0  0  0
 18 23  1  0  0  0  0
 19 20  1  0  0  0  0
 20 26  1  0  0  0  0
 20 21  2  0  0  0  0
 22 21  1  0  0  0  0
 22 25  1  0  0  0  0
 23 22  2  0  0  0  0
 24 19  1  0  0  0  0
 26 29  1  0  0  0  0
 27 26  1  0  0  0  0
 27 30  1  0  0  0  0
 28 27  1  0  0  0  0
 28 26  1  0  0  0  0
 31 27  1  0  0  0  0
 32 28  1  0  0  0  0
 33 28  1  0  0  0  0
 34  6  1  0  0  0  0
 35 36  1  0  0  0  0
 36 37  1  0  0  0  0
 37 34  1  0  0  0  0
 37 38  2  0  0  0  0
 38 39  1  0  0  0  0
 40 38  1  0  0  0  0
 40 41  1  0  0  0  0
 42 40  2  0  0  0  0
 43 36  2  0  0  0  0
 43 42  1  0  0  0  0
M  END
>  <minimizedAffinity>
-6.26476431

$$$$

 OpenBabel03242523533D

 43 46  0  0  1  0  0  0  0  0999 V2000
   37.0270   31.6710   39.7710 C   0  0  1  0  0  0  0  0  0  0  0  0
   37.4360   31.6490   38.2980 C   0  0  1  0  0  0  0  0  0  0  0  0
   38.8140   31.9330   38.2030 O   0  0  0  0  0  0  0  0  0  0  0  0
   39.2470   32.8450   39.1600 C   0  0  0  0  0  0  0  0  0  0  0  0
   39.2330   32.2210   40.5480 C   0  0  2  0  0  0  0  0  0  0  0  0
   38.2070   31.0660   40.5140 C   0  0  1  0  0  0  0  0  0  0  0  0
   36.1130   31.0700   39.9430 H   0  0  0  0  0  0  0  0  0  0  0  0
   36.8470   32.3570   37.7110 H   0  0  0  0  0  0  0  0  0  0  0  0
   40.2920   33.0560   38.9320 H   0  0  0  0  0  0  0  0  0  0  0  0
   38.7110   33.8100   39.1110 H   0  0  0  0  0  0  0  0  0  0  0  0
   40.2220   31.8570   40.8570 H   0  0  0  0  0  0  0  0  0  0  0  0
   38.6610   30.2490   39.9310 H   0  0  0  0  0  0  0  0  0  0  0  0
   36.8150   32.9800   40.1990 O   0  0  0  0  0  0  0  0  0  0  0  0
   36.1510   32.9240   40.9270 H   0  0  0  0  0  0  0  0  0  0  0  0
   38.6780   33.1510   41.4320 O   0  0  0  0  0  0  0  0  0  0  0  0
   39.1440   33.1440   42.3110 H   0  0  0  0  0  0  0  0  0  0  0  0
   37.3260   30.3160   37.8840 O   0  0  0  0  0  0  0  0  0  0  0  0
   36.4560   29.8610   36.9760 C   0  0  0  0  0  0  0  0  0  0  0  0
   35.1920   29.4160   37.3560 C   0  0  0  0  0  0  0  0  0  0  0  0
   34.3210   28.9560   36.3810 C   0  0  0  0  0  0  0  0  0  0  0  0
   34.7300   28.9470   35.0550 N   0  0  0  0  0  0  0  0  0  0  0  0
   35.9580   29.3830   34.7280 C   0  0  0  0  0  0  0  0  0  0  0  0
   36.8210   29.8370   35.6700 N   0  0  0  0  0  0  0  0  0  0  0  0
   34.8710   29.4190   38.3740 H   0  0  0  0  0  0  0  0  0  0  0  0
   36.3130   29.3920   33.6990 H   0  0  0  0  0  0  0  0  0  0  0  0
   32.9540   28.4490   36.7380 C   0  0  0  0  0  0  0  0  0  0  0  0
   31.9430   29.4590   37.2300 C   0  0  0  0  0  0  0  0  0  0  0  0
   31.8340   28.7380   35.8820 C   0  0  0  0  0  0  0  0  0  0  0  0
   33.0200   27.4870   37.2820 H   0  0  0  0  0  0  0  0  0  0  0  0
   31.2330   29.0610   37.9810 H   0  0  0  0  0  0  0  0  0  0  0  0
   32.2120   30.5120   37.2690 H   0  0  0  0  0  0  0  0  0  0  0  0
   30.9720   28.0600   35.7120 H   0  0  0  0  0  0  0  0  0  0  0  0
   31.9320   29.4600   35.0270 H   0  0  0  0  0  0  0  0  0  0  0  0
   37.8990   30.6440   41.7890 O   0  0  0  0  0  0  0  0  0  0  0  0
   35.7960   29.0110   41.3930 F   0  0  0  0  0  0  0  0  0  0  0  0
   36.9140   28.6010   42.0510 C   0  0  0  0  0  0  0  0  0  0  0  0
   38.0500   29.3790   42.3010 C   0  0  0  0  0  0  0  0  0  0  0  0
   39.0950   28.7960   42.9860 C   0  0  0  0  0  0  0  0  0  0  0  0
   39.9180   29.4780   43.1260 H   0  0  0  0  0  0  0  0  0  0  0  0
   39.0050   27.4840   43.4050 C   0  0  0  0  0  0  0  0  0  0  0  0
   39.8680   27.0960   43.9380 H   0  0  0  0  0  0  0  0  0  0  0  0
   37.8830   26.7170   43.1570 C   0  0  0  0  0  3  0  0  0  0  0  0
   36.8240   27.2790   42.4730 C   0  0  0  0  0  3  0  0  0  0  0  0
  1  7  1  1  0  0  0
  1 13  1  0  0  0  0
  1  6  1  0  0  0  0
  2  8  1  6  0  0  0
  2  1  1  0  0  0  0
  3  2  1  0  0  0  0
  3  4  1  0  0  0  0
  4  5  1  0  0  0  0
  5 11  1  1  0  0  0
  5 15  1  0  0  0  0
  6 12  1  6  0  0  0
  6  5  1  0  0  0  0
  6 34  1  0  0  0  0
  9  4  1  0  0  0  0
 10  4  1  0  0  0  0
 13 14  1  0  0  0  0
 15 16  1  0  0  0  0
 17  2  1  0  0  0  0
 18 19  1  0  0  0  0
 18 17  1  0  0  0  0
 19 24  1  0  0  0  0
 20 26  1  0  0  0  0
 20 19  2  0  0  0  0
 21 20  1  0  0  0  0
 22 21  2  0  0  0  0
 22 23  1  0  0  0  0
 23 18  2  0  0  0  0
 25 22  1  0  0  0  0
 26 27  1  0  0  0  0
 26 29  1  0  0  0  0
 27 31  1  0  0  0  0
 27 30  1  0  0  0  0
 28 26  1  0  0  0  0
 28 27  1  0  0  0  0
 32 28  1  0  0  0  0
 33 28  1  0  0  0  0
 34 37  1  0  0  0  0
 35 36  1  0  0  0  0
 36 37  2  0  0  0  0
 36 43  1  0  0  0  0
 37 38  1  0  0  0  0
 38 39  1  0  0  0  0
 38 40  2  0  0  0  0
 40 41  1  0  0  0  0
 42 40  1  0  0  0  0
 43 42  2  0  0  0  0
M  END
>  <minimizedAffinity>
-6.25165796

$$$$

 OpenBabel03242523533D

 43 46  0  0  1  0  0  0  0  0999 V2000
   39.5430   30.7820   40.2690 C   0  0  1  0  0  0  0  0  0  0  0  0
   40.6270   30.6900   41.3420 C   0  0  1  0  0  0  0  0  0  0  0  0
   40.9970   31.9940   41.7300 O   0  0  0  0  0  0  0  0  0  0  0  0
   40.9600   32.9040   40.6780 C   0  0  0  0  0  0  0  0  0  0  0  0
   39.5250   33.1840   40.2550 C   0  0  2  0  0  0  0  0  0  0  0  0
   38.6810   31.9630   40.6830 C   0  0  1  0  0  0  0  0  0  0  0  0
   38.9360   29.8560   40.2300 H   0  0  0  0  0  0  0  0  0  0  0  0
   41.4920   30.1260   40.9860 H   0  0  0  0  0  0  0  0  0  0  0  0
   41.3500   33.8430   41.0710 H   0  0  0  0  0  0  0  0  0  0  0  0
   41.6140   32.6160   39.8360 H   0  0  0  0  0  0  0  0  0  0  0  0
   39.1290   34.1080   40.6950 H   0  0  0  0  0  0  0  0  0  0  0  0
   38.5800   32.0100   41.7790 H   0  0  0  0  0  0  0  0  0  0  0  0
   40.1120   31.0220   39.0200 O   0  0  0  0  0  0  0  0  0  0  0  0
   39.4940   30.6270   38.3590 H   0  0  0  0  0  0  0  0  0  0  0  0
   39.4780   33.1650   38.8580 O   0  0  0  0  0  0  0  0  0  0  0  0
   38.8710   33.8690   38.5030 H   0  0  0  0  0  0  0  0  0  0  0  0
   40.0070   30.1510   42.4760 O   0  0  0  0  0  0  0  0  0  0  0  0
   39.8000   28.8490   42.6960 C   0  0  0  0  0  0  0  0  0  0  0  0
   38.5780   28.2560   42.3820 C   0  0  0  0  0  0  0  0  0  0  0  0
   38.4080   26.9020   42.6230 C   0  0  0  0  0  0  0  0  0  0  0  0
   39.4540   26.1720   43.1700 N   0  0  0  0  0  0  0  0  0  0  0  0
   40.6160   26.7800   43.4600 C   0  0  0  0  0  0  0  0  0  0  0  0
   40.7990   28.1040   43.2290 N   0  0  0  0  0  0  0  0  0  0  0  0
   37.7690   28.8110   41.9610 H   0  0  0  0  0  0  0  0  0  0  0  0
   41.4590   26.2410   43.8900 H   0  0  0  0  0  0  0  0  0  0  0  0
   37.1070   26.2180   42.3190 C   0  0  0  0  0  0  0  0  0  0  0  0
   36.9050   25.6940   40.9160 C   0  0  0  0  0  0  0  0  0  0  0  0
   37.0690   24.7910   42.1430 C   0  0  0  0  0  0  0  0  0  0  0  0
   36.2600   26.7550   42.7900 H   0  0  0  0  0  0  0  0  0  0  0  0
   35.8560   25.7400   40.5620 H   0  0  0  0  0  0  0  0  0  0  0  0
   37.7090   25.7840   40.1890 H   0  0  0  0  0  0  0  0  0  0  0  0
   36.2230   24.1350   42.4350 H   0  0  0  0  0  0  0  0  0  0  0  0
   38.0170   24.1910   42.0810 H   0  0  0  0  0  0  0  0  0  0  0  0
   37.4430   31.9840   40.0780 O   0  0  0  0  0  0  0  0  0  0  0  0
   37.1840   31.2360   37.5040 F   0  0  0  0  0  0  0  0  0  0  0  0
   36.5280   30.5980   38.5120 C   0  0  0  0  0  0  0  0  0  0  0  0
   36.6050   30.9170   39.8720 C   0  0  0  0  0  0  0  0  0  0  0  0
   35.8670   30.1580   40.7560 C   0  0  0  0  0  0  0  0  0  0  0  0
   35.9950   30.4860   41.7750 H   0  0  0  0  0  0  0  0  0  0  0  0
   35.0840   29.1190   40.2960 C   0  0  0  0  0  0  0  0  0  0  0  0
   34.5330   28.5690   41.0520 H   0  0  0  0  0  0  0  0  0  0  0  0
   35.0110   28.8050   38.9530 C   0  0  0  0  0  3  0  0  0  0  0  0
   35.7400   29.5500   38.0480 C   0  0  0  0  0  3  0  0  0  0  0  0
  1  7  1  6  0  0  0
  1  6  1  0  0  0  0
  1  2  1  0  0  0  0
  2  8  1  6  0  0  0
  2  3  1  0  0  0  0
  2 17  1  0  0  0  0
  4  9  1  0  0  0  0
  4  3  1  0  0  0  0
  5  4  1  0  0  0  0
  5  6  1  0  0  0  0
  5 11  1  1  0  0  0
  6 12  1  1  0  0  0
 10  4  1  0  0  0  0
 13  1  1  0  0  0  0
 14 13  1  0  0  0  0
 15  5  1  0  0  0  0
 16 15  1  0  0  0  0
 17 18  1  0  0  0  0
 18 23  1  0  0  0  0
 19 20  1  0  0  0  0
 19 18  2  0  0  0  0
 20 21  2  0  0  0  0
 21 22  1  0  0  0  0
 22 25  1  0  0  0  0
 23 22  2  0  0  0  0
 24 19  1  0  0  0  0
 26 20  1  0  0  0  0
 26 29  1  0  0  0  0
 27 28  1  0  0  0  0
 27 26  1  0  0  0  0
 28 26  1  0  0  0  0
 28 32  1  0  0  0  0
 30 27  1  0  0  0  0
 31 27  1  0  0  0  0
 33 28  1  0  0  0  0
 34  6  1  0  0  0  0
 35 36  1  0  0  0  0
 36 37  1  0  0  0  0
 37 34  1  0  0  0  0
 37 38  2  0  0  0  0
 38 39  1  0  0  0  0
 40 38  1  0  0  0  0
 40 41  1  0  0  0  0
 42 40  2  0  0  0  0
 43 36  2  0  0  0  0
 43 42  1  0  0  0  0
M  END
>  <minimizedAffinity>
-6.11374903

$$$$

 OpenBabel03242523533D

 43 46  0  0  1  0  0  0  0  0999 V2000
   37.5290   31.6840   39.9920 C   0  0  1  0  0  0  0  0  0  0  0  0
   37.9380   31.7390   38.5210 C   0  0  1  0  0  0  0  0  0  0  0  0
   39.2330   32.2900   38.4280 O   0  0  0  0  0  0  0  0  0  0  0  0
   39.4740   33.2730   39.3830 C   0  0  0  0  0  0  0  0  0  0  0  0
   39.5790   32.6620   40.7730 C   0  0  2  0  0  0  0  0  0  0  0  0
   38.8020   31.3270   40.7410 C   0  0  1  0  0  0  0  0  0  0  0  0
   36.7510   30.9150   40.1650 H   0  0  0  0  0  0  0  0  0  0  0  0
   37.2230   32.3150   37.9300 H   0  0  0  0  0  0  0  0  0  0  0  0
   40.4580   33.6850   39.1570 H   0  0  0  0  0  0  0  0  0  0  0  0
   38.7580   34.1120   39.3290 H   0  0  0  0  0  0  0  0  0  0  0  0
   40.6200   32.5020   41.0860 H   0  0  0  0  0  0  0  0  0  0  0  0
   39.4110   30.6150   40.1620 H   0  0  0  0  0  0  0  0  0  0  0  0
   37.0600   32.9270   40.4150 O   0  0  0  0  0  0  0  0  0  0  0  0
   36.4180   32.7420   41.1420 H   0  0  0  0  0  0  0  0  0  0  0  0
   38.8490   33.4670   41.6520 O   0  0  0  0  0  0  0  0  0  0  0  0
   39.3040   33.5540   42.5320 H   0  0  0  0  0  0  0  0  0  0  0  0
   38.0950   30.4090   38.1110 O   0  0  0  0  0  0  0  0  0  0  0  0
   37.1660   29.4540   38.2230 C   0  0  0  0  0  0  0  0  0  0  0  0
   35.8840   29.6410   37.7110 C   0  0  0  0  0  0  0  0  0  0  0  0
   34.9530   28.6240   37.8460 C   0  0  0  0  0  0  0  0  0  0  0  0
   35.3190   27.4480   38.4870 N   0  0  0  0  0  0  0  0  0  0  0  0
   36.5650   27.3070   38.9690 C   0  0  0  0  0  0  0  0  0  0  0  0
   37.4880   28.2930   38.8440 N   0  0  0  0  0  0  0  0  0  0  0  0
   35.5950   30.5420   37.2180 H   0  0  0  0  0  0  0  0  0  0  0  0
   36.8880   26.4000   39.4770 H   0  0  0  0  0  0  0  0  0  0  0  0
   33.5520   28.7790   37.3280 C   0  0  0  0  0  0  0  0  0  0  0  0
   33.3850   29.1910   35.8840 C   0  0  0  0  0  0  0  0  0  0  0  0
   33.0090   27.8050   36.4200 C   0  0  0  0  0  0  0  0  0  0  0  0
   32.9080   29.2780   38.0790 H   0  0  0  0  0  0  0  0  0  0  0  0
   32.4970   29.8250   35.6940 H   0  0  0  0  0  0  0  0  0  0  0  0
   34.2640   29.3170   35.2560 H   0  0  0  0  0  0  0  0  0  0  0  0
   31.9450   27.4930   36.3830 H   0  0  0  0  0  0  0  0  0  0  0  0
   33.6600   27.0070   35.9720 H   0  0  0  0  0  0  0  0  0  0  0  0
   38.5800   30.8560   42.0160 O   0  0  0  0  0  0  0  0  0  0  0  0
   40.6730   29.4090   42.8980 F   0  0  0  0  0  0  0  0  0  0  0  0
   39.4170   28.8920   42.8250 C   0  0  0  0  0  0  0  0  0  0  0  0
   38.2750   29.5680   42.3820 C   0  0  0  0  0  0  0  0  0  0  0  0
   37.0790   28.8820   42.3750 C   0  0  0  0  0  0  0  0  0  0  0  0
   36.2650   29.4910   42.0160 H   0  0  0  0  0  0  0  0  0  0  0  0
   37.0290   27.5690   42.7970 C   0  0  0  0  0  0  0  0  0  0  0  0
   36.0510   27.0970   42.7620 H   0  0  0  0  0  0  0  0  0  0  0  0
   38.1560   26.9030   43.2350 C   0  0  0  0  0  3  0  0  0  0  0  0
   39.3650   27.5690   43.2510 C   0  0  0  0  0  3  0  0  0  0  0  0
  1  7  1  1  0  0  0
  1 13  1  0  0  0  0
  1  6  1  0  0  0  0
  2  8  1  6  0  0  0
  2  1  1  0  0  0  0
  3  2  1  0  0  0  0
  3  4  1  0  0  0  0
  4  5  1  0  0  0  0
  5 11  1  1  0  0  0
  5 15  1  0  0  0  0
  6 12  1  6  0  0  0
  6  5  1  0  0  0  0
  6 34  1  0  0  0  0
  9  4  1  0  0  0  0
 10  4  1  0  0  0  0
 13 14  1  0  0  0  0
 15 16  1  0  0  0  0
 17 18  1  0  0  0  0
 17  2  1  0  0  0  0
 18 23  1  0  0  0  0
 19 20  1  0  0  0  0
 19 18  2  0  0  0  0
 20 21  2  0  0  0  0
 21 22  1  0  0  0  0
 22 25  1  0  0  0  0
 23 22  2  0  0  0  0
 24 19  1  0  0  0  0
 26 20  1  0  0  0  0
 26 29  1  0  0  0  0
 27 28  1  0  0  0  0
 27 26  1  0  0  0  0
 28 26  1  0  0  0  0
 30 27  1  0  0  0  0
 31 27  1  0  0  0  0
 32 28  1  0  0  0  0
 33 28  1  0  0  0  0
 34 37  1  0  0  0  0
 36 35  1  0  0  0  0
 36 43  1  0  0  0  0
 37 36  2  0  0  0  0
 38 37  1  0  0  0  0
 38 40  2  0  0  0  0
 39 38  1  0  0  0  0
 40 42  1  0  0  0  0
 41 40  1  0  0  0  0
 42 43  2  0  0  0  0
M  END
>  <minimizedAffinity>
-6.09595013

$$$$

 OpenBabel03242523533D

 43 46  0  0  1  0  0  0  0  0999 V2000
   37.7600   31.3800   40.2850 C   0  0  1  0  0  0  0  0  0  0  0  0
   38.0640   31.3800   38.7880 C   0  0  1  0  0  0  0  0  0  0  0  0
   39.2240   32.1480   38.5580 O   0  0  0  0  0  0  0  0  0  0  0  0
   39.3320   33.2380   39.4160 C   0  0  0  0  0  0  0  0  0  0  0  0
   39.6320   32.7810   40.8360 C   0  0  2  0  0  0  0  0  0  0  0  0
   39.1200   31.3290   40.9620 C   0  0  1  0  0  0  0  0  0  0  0  0
   37.1520   30.5000   40.5720 H   0  0  0  0  0  0  0  0  0  0  0  0
   37.2190   31.7620   38.2100 H   0  0  0  0  0  0  0  0  0  0  0  0
   40.2060   33.8020   39.0870 H   0  0  0  0  0  0  0  0  0  0  0  0
   38.4690   33.9240   39.3530 H   0  0  0  0  0  0  0  0  0  0  0  0
   40.7010   32.8420   41.0820 H   0  0  0  0  0  0  0  0  0  0  0  0
   39.8160   30.6920   40.3950 H   0  0  0  0  0  0  0  0  0  0  0  0
   37.0920   32.5490   40.6480 O   0  0  0  0  0  0  0  0  0  0  0  0
   36.5400   32.3140   41.4320 H   0  0  0  0  0  0  0  0  0  0  0  0
   38.8170   33.5130   41.7050 O   0  0  0  0  0  0  0  0  0  0  0  0
   39.2990   33.7580   42.5390 H   0  0  0  0  0  0  0  0  0  0  0  0
   38.4440   30.0700   38.4690 O   0  0  0  0  0  0  0  0  0  0  0  0
   37.7180   28.9760   38.7180 C   0  0  0  0  0  0  0  0  0  0  0  0
   38.2340   27.9350   39.4870 C   0  0  0  0  0  0  0  0  0  0  0  0
   37.4460   26.8200   39.7230 C   0  0  0  0  0  0  0  0  0  0  0  0
   36.1670   26.7670   39.1880 N   0  0  0  0  0  0  0  0  0  0  0  0
   35.7050   27.7900   38.4500 C   0  0  0  0  0  0  0  0  0  0  0  0
   36.4640   28.8890   38.2110 N   0  0  0  0  0  0  0  0  0  0  0  0
   39.2170   27.9680   39.9010 H   0  0  0  0  0  0  0  0  0  0  0  0
   34.7070   27.7840   38.0150 H   0  0  0  0  0  0  0  0  0  0  0  0
   37.9590   25.6630   40.5300 C   0  0  0  0  0  0  0  0  0  0  0  0
   36.9490   24.8560   41.3120 C   0  0  0  0  0  0  0  0  0  0  0  0
   37.7090   24.3150   40.0950 C   0  0  0  0  0  0  0  0  0  0  0  0
   38.9060   25.9290   41.0410 H   0  0  0  0  0  0  0  0  0  0  0  0
   37.3350   24.4480   42.2670 H   0  0  0  0  0  0  0  0  0  0  0  0
   35.8920   25.1000   41.2350 H   0  0  0  0  0  0  0  0  0  0  0  0
   38.4020   23.4600   40.2400 H   0  0  0  0  0  0  0  0  0  0  0  0
   37.0090   24.1040   39.2420 H   0  0  0  0  0  0  0  0  0  0  0  0
   39.0660   30.9380   42.2820 O   0  0  0  0  0  0  0  0  0  0  0  0
   41.2630   29.3920   42.4610 F   0  0  0  0  0  0  0  0  0  0  0  0
   40.0310   28.9410   42.8220 C   0  0  0  0  0  0  0  0  0  0  0  0
   38.8400   29.6730   42.7630 C   0  0  0  0  0  0  0  0  0  0  0  0
   37.6780   29.0510   43.1710 C   0  0  0  0  0  0  0  0  0  0  0  0
   36.8210   29.6990   43.0850 H   0  0  0  0  0  0  0  0  0  0  0  0
   37.7100   27.7470   43.6210 C   0  0  0  0  0  0  0  0  0  0  0  0
   36.7550   27.3260   43.9240 H   0  0  0  0  0  0  0  0  0  0  0  0
   38.8860   27.0260   43.6800 C   0  0  0  0  0  3  0  0  0  0  0  0
   40.0620   27.6270   43.2760 C   0  0  0  0  0  3  0  0  0  0  0  0
  1  7  1  1  0  0  0
  1 13  1  0  0  0  0
  1  6  1  0  0  0  0
  2  8  1  6  0  0  0
  2  1  1  0  0  0  0
  3  2  1  0  0  0  0
  3  4  1  0  0  0  0
  4  5  1  0  0  0  0
  5  6  1  0  0  0  0
  5 11  1  1  0  0  0
  5 15  1  0  0  0  0
  6 12  1  6  0  0  0
  6 34  1  0  0  0  0
  9  4  1  0  0  0  0
 10  4  1  0  0  0  0
 13 14  1  0  0  0  0
 15 16  1  0  0  0  0
 17 18  1  0  0  0  0
 17  2  1  0  0  0  0
 18 19  1  0  0  0  0
 19 20  2  0  0  0  0
 19 24  1  0  0  0  0
 20 26  1  0  0  0  0
 21 20  1  0  0  0  0
 22 21  2  0  0  0  0
 23 22  1  0  0  0  0
 23 18  2  0  0  0  0
 25 22  1  0  0  0  0
 26 29  1  0  0  0  0
 26 27  1  0  0  0  0
 27 30  1  0  0  0  0
 28 32  1  0  0  0  0
 28 26  1  0  0  0  0
 28 27  1  0  0  0  0
 31 27  1  0  0  0  0
 33 28  1  0  0  0  0
 34 37  1  0  0  0  0
 35 36  1  0  0  0  0
 36 43  1  0  0  0  0
 37 36  2  0  0  0  0
 37 38  1  0  0  0  0
 38 40  2  0  0  0  0
 39 38  1  0  0  0  0
 40 42  1  0  0  0  0
 40 41  1  0  0  0  0
 43 42  2  0  0  0  0
M  END
>  <minimizedAffinity>
-6.01187849

$$$$

 OpenBabel03242523533D

 43 46  0  0  1  0  0  0  0  0999 V2000
   38.7640   31.7270   38.6740 C   0  0  1  0  0  0  0  0  0  0  0  0
   40.1660   32.3070   38.4920 C   0  0  1  0  0  0  0  0  0  0  0  0
   40.4190   33.2240   39.5330 O   0  0  0  0  0  0  0  0  0  0  0  0
   39.2850   33.9300   39.9220 C   0  0  0  0  0  0  0  0  0  0  0  0
   38.3030   33.0200   40.6460 C   0  0  2  0  0  0  0  0  0  0  0  0
   38.5950   31.5770   40.1770 C   0  0  1  0  0  0  0  0  0  0  0  0
   38.6680   30.7440   38.1750 H   0  0  0  0  0  0  0  0  0  0  0  0
   40.2770   32.7810   37.5150 H   0  0  0  0  0  0  0  0  0  0  0  0
   39.6170   34.6650   40.6550 H   0  0  0  0  0  0  0  0  0  0  0  0
   38.8230   34.4950   39.0930 H   0  0  0  0  0  0  0  0  0  0  0  0
   38.3820   33.1000   41.7380 H   0  0  0  0  0  0  0  0  0  0  0  0
   39.5400   31.2690   40.6500 H   0  0  0  0  0  0  0  0  0  0  0  0
   37.8040   32.6040   38.1720 O   0  0  0  0  0  0  0  0  0  0  0  0
   37.0430   32.0410   37.8910 H   0  0  0  0  0  0  0  0  0  0  0  0
   37.0230   33.2920   40.1560 O   0  0  0  0  0  0  0  0  0  0  0  0
   36.3410   33.2650   40.8800 H   0  0  0  0  0  0  0  0  0  0  0  0
   41.0570   31.2530   38.7330 O   0  0  0  0  0  0  0  0  0  0  0  0
   41.6030   30.4760   37.7910 C   0  0  0  0  0  0  0  0  0  0  0  0
   41.3230   29.1130   37.7390 C   0  0  0  0  0  0  0  0  0  0  0  0
   41.9080   28.3450   36.7450 C   0  0  0  0  0  0  0  0  0  0  0  0
   42.7570   28.9510   35.8300 N   0  0  0  0  0  0  0  0  0  0  0  0
   43.0030   30.2690   35.9140 C   0  0  0  0  0  0  0  0  0  0  0  0
   42.4380   31.0340   36.8800 N   0  0  0  0  0  0  0  0  0  0  0  0
   40.6710   28.6390   38.4390 H   0  0  0  0  0  0  0  0  0  0  0  0
   43.6630   30.7790   35.2140 H   0  0  0  0  0  0  0  0  0  0  0  0
   41.6530   26.8680   36.6530 C   0  0  0  0  0  0  0  0  0  0  0  0
   41.0450   26.1890   37.8590 C   0  0  0  0  0  0  0  0  0  0  0  0
   40.3080   26.3770   36.5280 C   0  0  0  0  0  0  0  0  0  0  0  0
   42.4950   26.3540   36.1490 H   0  0  0  0  0  0  0  0  0  0  0  0
   41.3850   25.1460   38.0100 H   0  0  0  0  0  0  0  0  0  0  0  0
   40.7700   26.7830   38.7270 H   0  0  0  0  0  0  0  0  0  0  0  0
   40.0100   25.4740   35.9550 H   0  0  0  0  0  0  0  0  0  0  0  0
   39.4280   27.0650   36.6460 H   0  0  0  0  0  0  0  0  0  0  0  0
   37.5710   30.7270   40.5360 O   0  0  0  0  0  0  0  0  0  0  0  0
   35.6670   28.8340   40.3330 F   0  0  0  0  0  0  0  0  0  0  0  0
   36.5680   28.8460   41.3530 C   0  0  0  0  0  0  0  0  0  0  0  0
   37.5870   29.7870   41.5360 C   0  0  0  0  0  0  0  0  0  0  0  0
   38.4110   29.6430   42.6330 C   0  0  0  0  0  0  0  0  0  0  0  0
   39.1600   30.4170   42.6810 H   0  0  0  0  0  0  0  0  0  0  0  0
   38.2220   28.5950   43.5110 C   0  0  0  0  0  0  0  0  0  0  0  0
   38.9100   28.5490   44.3500 H   0  0  0  0  0  0  0  0  0  0  0  0
   37.2160   27.6670   43.3290 C   0  0  0  0  0  3  0  0  0  0  0  0
   36.3780   27.7910   42.2390 C   0  0  0  0  0  3  0  0  0  0  0  0
  1  7  1  6  0  0  0
  1  6  1  0  0  0  0
  2  8  1  6  0  0  0
  2  1  1  0  0  0  0
  2 17  1  0  0  0  0
  2  3  1  0  0  0  0
  3  4  1  0  0  0  0
  4  5  1  0  0  0  0
  4  9  1  0  0  0  0
  5 11  1  1  0  0  0
  6 34  1  0  0  0  0
  6  5  1  0  0  0  0
  6 12  1  1  0  0  0
 10  4  1  0  0  0  0
 13  1  1  0  0  0  0
 14 13  1  0  0  0  0
 15  5  1  0  0  0  0
 15 16  1  0  0  0  0
 18 17  1  0  0  0  0
 19 18  1  0  0  0  0
 19 24  1  0  0  0  0
 20 19  2  0  0  0  0
 21 22  2  0  0  0  0
 21 20  1  0  0  0  0
 22 23  1  0  0  0  0
 23 18  2  0  0  0  0
 25 22  1  0  0  0  0
 26 20  1  0  0  0  0
 26 27  1  0  0  0  0
 27 30  1  0  0  0  0
 27 31  1  0  0  0  0
 28 33  1  0  0  0  0
 28 26  1  0  0  0  0
 28 27  1  0  0  0  0
 29 26  1  0  0  0  0
 32 28  1  0  0  0  0
 34 37  1  0  0  0  0
 35 36  1  0  0  0  0
 36 37  2  0  0  0  0
 36 43  1  0  0  0  0
 37 38  1  0  0  0  0
 38 39  1  0  0  0  0
 38 40  2  0  0  0  0
 40 41  1  0  0  0  0
 42 40  1  0  0  0  0
 43 42  2  0  0  0  0
M  END
>  <minimizedAffinity>
-5.9433527

$$$$

 OpenBabel03242523533D

 43 46  0  0  1  0  0  0  0  0999 V2000
   38.5590   30.4090   39.5810 C   0  0  1  0  0  0  0  0  0  0  0  0
   38.4400   31.0560   40.9600 C   0  0  1  0  0  0  0  0  0  0  0  0
   37.6480   32.2180   40.8530 O   0  0  0  0  0  0  0  0  0  0  0  0
   37.8290   32.8870   39.6470 C   0  0  0  0  0  0  0  0  0  0  0  0
   37.2350   32.0930   38.4930 C   0  0  2  0  0  0  0  0  0  0  0  0
   37.1990   30.6130   38.9340 C   0  0  1  0  0  0  0  0  0  0  0  0
   38.7900   29.3300   39.6620 H   0  0  0  0  0  0  0  0  0  0  0  0
   39.4230   31.2870   41.3770 H   0  0  0  0  0  0  0  0  0  0  0  0
   37.2450   33.8060   39.7160 H   0  0  0  0  0  0  0  0  0  0  0  0
   38.8770   33.1900   39.4740 H   0  0  0  0  0  0  0  0  0  0  0  0
   36.2330   32.4420   38.2110 H   0  0  0  0  0  0  0  0  0  0  0  0
   36.3920   30.5190   39.6780 H   0  0  0  0  0  0  0  0  0  0  0  0
   39.5440   31.0450   38.8270 O   0  0  0  0  0  0  0  0  0  0  0  0
   39.8920   30.3620   38.2040 H   0  0  0  0  0  0  0  0  0  0  0  0
   38.1520   32.1170   37.4380 O   0  0  0  0  0  0  0  0  0  0  0  0
   37.6950   32.2030   36.5580 H   0  0  0  0  0  0  0  0  0  0  0  0
   37.6700   30.1800   41.7350 O   0  0  0  0  0  0  0  0  0  0  0  0
   38.0740   28.9840   42.1760 C   0  0  0  0  0  0  0  0  0  0  0  0
   37.3080   27.8420   41.9490 C   0  0  0  0  0  0  0  0  0  0  0  0
   37.7660   26.6220   42.4210 C   0  0  0  0  0  0  0  0  0  0  0  0
   38.9700   26.5680   43.1080 N   0  0  0  0  0  0  0  0  0  0  0  0
   39.6790   27.6920   43.3080 C   0  0  0  0  0  0  0  0  0  0  0  0
   39.2450   28.8930   42.8520 N   0  0  0  0  0  0  0  0  0  0  0  0
   36.3810   27.8760   41.4210 H   0  0  0  0  0  0  0  0  0  0  0  0
   40.6280   27.6880   43.8420 H   0  0  0  0  0  0  0  0  0  0  0  0
   36.9720   25.3640   42.2180 C   0  0  0  0  0  0  0  0  0  0  0  0
   36.8660   24.8260   40.8100 C   0  0  0  0  0  0  0  0  0  0  0  0
   37.6470   24.1270   41.9280 C   0  0  0  0  0  0  0  0  0  0  0  0
   36.0490   25.3780   42.8290 H   0  0  0  0  0  0  0  0  0  0  0  0
   35.9040   24.3230   40.5870 H   0  0  0  0  0  0  0  0  0  0  0  0
   37.3950   25.3280   40.0020 H   0  0  0  0  0  0  0  0  0  0  0  0
   37.3100   23.1250   42.2630 H   0  0  0  0  0  0  0  0  0  0  0  0
   38.7480   24.1090   41.7030 H   0  0  0  0  0  0  0  0  0  0  0  0
   36.9690   29.7840   37.8580 O   0  0  0  0  0  0  0  0  0  0  0  0
   36.7840   29.7870   35.1720 F   0  0  0  0  0  0  0  0  0  0  0  0
   35.7430   29.4170   35.9670 C   0  0  0  0  0  0  0  0  0  0  0  0
   35.7510   29.3850   37.3660 C   0  0  0  0  0  0  0  0  0  0  0  0
   34.6000   28.9810   38.0090 C   0  0  0  0  0  0  0  0  0  0  0  0
   34.7110   28.9920   39.0820 H   0  0  0  0  0  0  0  0  0  0  0  0
   33.4850   28.6240   37.2790 C   0  0  0  0  0  0  0  0  0  0  0  0
   32.6180   28.3180   37.8570 H   0  0  0  0  0  0  0  0  0  0  0  0
   33.4790   28.6560   35.8990 C   0  0  0  0  0  3  0  0  0  0  0  0
   34.6190   29.0560   35.2320 C   0  0  0  0  0  3  0  0  0  0  0  0
  1  7  1  1  0  0  0
  1  2  1  0  0  0  0
  2  8  1  1  0  0  0
  2 17  1  0  0  0  0
  3  2  1  0  0  0  0
  4  9  1  0  0  0  0
  4  3  1  0  0  0  0
  5 11  1  6  0  0  0
  5  6  1  0  0  0  0
  5  4  1  0  0  0  0
  6  1  1  0  0  0  0
  6 12  1  1  0  0  0
 10  4  1  0  0  0  0
 13  1  1  0  0  0  0
 14 13  1  0  0  0  0
 15  5  1  0  0  0  0
 16 15  1  0  0  0  0
 17 18  1  0  0  0  0
 18 23  1  0  0  0  0
 19 18  2  0  0  0  0
 19 20  1  0  0  0  0
 20 21  2  0  0  0  0
 21 22  1  0  0  0  0
 22 25  1  0  0  0  0
 23 22  2  0  0  0  0
 24 19  1  0  0  0  0
 26 20  1  0  0  0  0
 26 29  1  0  0  0  0
 27 28  1  0  0  0  0
 27 26  1  0  0  0  0
 28 26  1  0  0  0  0
 28 32  1  0  0  0  0
 30 27  1  0  0  0  0
 31 27  1  0  0  0  0
 33 28  1  0  0  0  0
 34  6  1  0  0  0  0
 35 36  1  0  0  0  0
 36 37  1  0  0  0  0
 37 34  1  0  0  0  0
 37 38  2  0  0  0  0
 38 39  1  0  0  0  0
 40 41  1  0  0  0  0
 40 38  1  0  0  0  0
 42 40  2  0  0  0  0
 43 42  1  0  0  0  0
 43 36  2  0  0  0  0
M  END
>  <minimizedAffinity>
-5.9324379

$$$$

 OpenBabel03242523533D

 43 46  0  0  1  0  0  0  0  0999 V2000
   35.5960   28.6980   40.1290 C   0  0  1  0  0  0  0  0  0  0  0  0
   35.7400   28.7040   38.6080 C   0  0  1  0  0  0  0  0  0  0  0  0
   36.4920   29.8340   38.2250 O   0  0  0  0  0  0  0  0  0  0  0  0
   36.2510   30.9440   39.0300 C   0  0  0  0  0  0  0  0  0  0  0  0
   36.8300   30.7380   40.4230 C   0  0  2  0  0  0  0  0  0  0  0  0
   36.9260   29.2130   40.6520 C   0  0  1  0  0  0  0  0  0  0  0  0
   35.4000   27.6770   40.5100 H   0  0  0  0  0  0  0  0  0  0  0  0
   34.7650   28.6950   38.1160 H   0  0  0  0  0  0  0  0  0  0  0  0
   36.8070   31.7700   38.5880 H   0  0  0  0  0  0  0  0  0  0  0  0
   35.1880   31.2460   39.0410 H   0  0  0  0  0  0  0  0  0  0  0  0
   37.8110   31.2160   40.5460 H   0  0  0  0  0  0  0  0  0  0  0  0
   37.7600   28.8470   40.0320 H   0  0  0  0  0  0  0  0  0  0  0  0
   34.5660   29.5510   40.5250 O   0  0  0  0  0  0  0  0  0  0  0  0
   34.2200   29.1820   41.3730 H   0  0  0  0  0  0  0  0  0  0  0  0
   35.8780   31.1680   41.3520 O   0  0  0  0  0  0  0  0  0  0  0  0
   36.3020   31.6380   42.1190 H   0  0  0  0  0  0  0  0  0  0  0  0
   36.5630   27.6160   38.2920 O   0  0  0  0  0  0  0  0  0  0  0  0
   36.2640   26.3330   38.5200 C   0  0  0  0  0  0  0  0  0  0  0  0
   36.9090   25.6160   39.5250 C   0  0  0  0  0  0  0  0  0  0  0  0
   36.5660   24.2890   39.7290 C   0  0  0  0  0  0  0  0  0  0  0  0
   35.5920   23.7080   38.9290 N   0  0  0  0  0  0  0  0  0  0  0  0
   34.9930   24.4320   37.9690 C   0  0  0  0  0  0  0  0  0  0  0  0
   35.3170   25.7320   37.7580 N   0  0  0  0  0  0  0  0  0  0  0  0
   37.6600   26.0550   40.1440 H   0  0  0  0  0  0  0  0  0  0  0  0
   34.2250   24.0110   37.3230 H   0  0  0  0  0  0  0  0  0  0  0  0
   37.2430   23.4660   40.7860 C   0  0  0  0  0  0  0  0  0  0  0  0
   38.0790   22.2930   40.3290 C   0  0  0  0  0  0  0  0  0  0  0  0
   38.6670   23.5560   40.9670 C   0  0  0  0  0  0  0  0  0  0  0  0
   36.5700   23.3060   41.6510 H   0  0  0  0  0  0  0  0  0  0  0  0
   38.0710   21.4310   41.0250 H   0  0  0  0  0  0  0  0  0  0  0  0
   38.2040   22.1060   39.2640 H   0  0  0  0  0  0  0  0  0  0  0  0
   39.1930   23.4630   41.9390 H   0  0  0  0  0  0  0  0  0  0  0  0
   39.3070   24.1190   40.2350 H   0  0  0  0  0  0  0  0  0  0  0  0
   37.1460   28.9280   41.9820 O   0  0  0  0  0  0  0  0  0  0  0  0
   36.6680   26.3990   42.7720 F   0  0  0  0  0  0  0  0  0  0  0  0
   37.8930   26.9790   42.9040 C   0  0  0  0  0  0  0  0  0  0  0  0
   38.2290   28.2810   42.5220 C   0  0  0  0  0  0  0  0  0  0  0  0
   39.5260   28.7020   42.7330 C   0  0  0  0  0  0  0  0  0  0  0  0
   39.6800   29.7180   42.4050 H   0  0  0  0  0  0  0  0  0  0  0  0
   40.4490   27.8500   43.3040 C   0  0  0  0  0  0  0  0  0  0  0  0
   41.4480   28.2540   43.4380 H   0  0  0  0  0  0  0  0  0  0  0  0
   40.1150   26.5640   43.6800 C   0  0  0  0  0  3  0  0  0  0  0  0
   38.8230   26.1200   43.4790 C   0  0  0  0  0  3  0  0  0  0  0  0
  1  7  1  1  0  0  0
  1 13  1  0  0  0  0
  1  6  1  0  0  0  0
  2  8  1  6  0  0  0
  2  1  1  0  0  0  0
  3  2  1  0  0  0  0
  3  4  1  0  0  0  0
  4 10  1  0  0  0  0
  4  5  1  0  0  0  0
  5 11  1  1  0  0  0
  5  6  1  0  0  0  0
  5 15  1  0  0  0  0
  6 12  1  6  0  0  0
  6 34  1  0  0  0  0
  9  4  1  0  0  0  0
 13 14  1  0  0  0  0
 15 16  1  0  0  0  0
 17 18  1  0  0  0  0
 17  2  1  0  0  0  0
 18 19  1  0  0  0  0
 19 20  2  0  0  0  0
 19 24  1  0  0  0  0
 20 26  1  0  0  0  0
 21 20  1  0  0  0  0
 22 21  2  0  0  0  0
 23 22  1  0  0  0  0
 23 18  2  0  0  0  0
 25 22  1  0  0  0  0
 26 28  1  0  0  0  0
 26 29  1  0  0  0  0
 27 26  1  0  0  0  0
 27 28  1  0  0  0  0
 27 30  1  0  0  0  0
 28 32  1  0  0  0  0
 31 27  1  0  0  0  0
 33 28  1  0  0  0  0
 34 37  1  0  0  0  0
 35 36  1  0  0  0  0
 36 43  1  0  0  0  0
 37 38  1  0  0  0  0
 37 36  2  0  0  0  0
 38 40  2  0  0  0  0
 39 38  1  0  0  0  0
 40 41  1  0  0  0  0
 40 42  1  0  0  0  0
 43 42  2  0  0  0  0
M  END
>  <minimizedAffinity>
-5.93134451

$$$$

 OpenBabel03242523533D

 43 46  0  0  1  0  0  0  0  0999 V2000
   40.1300   30.3480   38.6250 C   0  0  1  0  0  0  0  0  0  0  0  0
   41.4700   30.3140   39.3600 C   0  0  1  0  0  0  0  0  0  0  0  0
   42.0820   31.5790   39.2520 O   0  0  0  0  0  0  0  0  0  0  0  0
   41.8320   32.2000   38.0320 C   0  0  0  0  0  0  0  0  0  0  0  0
   40.3770   32.6350   37.9330 C   0  0  2  0  0  0  0  0  0  0  0  0
   39.5700   31.7340   38.8950 C   0  0  1  0  0  0  0  0  0  0  0  0
   39.4410   29.5710   39.0090 H   0  0  0  0  0  0  0  0  0  0  0  0
   42.1190   29.5280   38.9680 H   0  0  0  0  0  0  0  0  0  0  0  0
   42.4250   33.1150   38.0260 H   0  0  0  0  0  0  0  0  0  0  0  0
   42.1670   31.6000   37.1660 H   0  0  0  0  0  0  0  0  0  0  0  0
   40.2370   33.6960   38.1800 H   0  0  0  0  0  0  0  0  0  0  0  0
   39.8090   32.0620   39.9190 H   0  0  0  0  0  0  0  0  0  0  0  0
   40.3210   30.1690   37.2560 O   0  0  0  0  0  0  0  0  0  0  0  0
   39.4930   29.7500   36.9190 H   0  0  0  0  0  0  0  0  0  0  0  0
   39.9100   32.2900   36.6620 O   0  0  0  0  0  0  0  0  0  0  0  0
   39.3080   32.9890   36.2910 H   0  0  0  0  0  0  0  0  0  0  0  0
   41.1630   30.1910   40.7210 O   0  0  0  0  0  0  0  0  0  0  0  0
   40.9310   29.0380   41.3570 C   0  0  0  0  0  0  0  0  0  0  0  0
   39.7670   28.8530   42.1010 C   0  0  0  0  0  0  0  0  0  0  0  0
   39.5660   27.6410   42.7420 C   0  0  0  0  0  0  0  0  0  0  0  0
   40.5260   26.6450   42.6280 N   0  0  0  0  0  0  0  0  0  0  0  0
   41.6350   26.8620   41.9020 C   0  0  0  0  0  0  0  0  0  0  0  0
   41.8460   28.0420   41.2690 N   0  0  0  0  0  0  0  0  0  0  0  0
   39.0250   29.6140   42.1930 H   0  0  0  0  0  0  0  0  0  0  0  0
   42.4090   26.1040   41.7900 H   0  0  0  0  0  0  0  0  0  0  0  0
   38.3380   27.3950   43.5700 C   0  0  0  0  0  0  0  0  0  0  0  0
   37.3340   28.5190   43.6800 C   0  0  0  0  0  0  0  0  0  0  0  0
   37.0640   27.2100   42.9300 C   0  0  0  0  0  0  0  0  0  0  0  0
   38.5930   26.8460   44.4980 H   0  0  0  0  0  0  0  0  0  0  0  0
   36.8090   28.5650   44.6540 H   0  0  0  0  0  0  0  0  0  0  0  0
   37.5010   29.4430   43.1300 H   0  0  0  0  0  0  0  0  0  0  0  0
   36.2560   26.5450   43.2990 H   0  0  0  0  0  0  0  0  0  0  0  0
   36.9390   27.3930   41.8280 H   0  0  0  0  0  0  0  0  0  0  0  0
   38.2180   31.8410   38.6510 O   0  0  0  0  0  0  0  0  0  0  0  0
   36.8960   30.4100   36.7930 F   0  0  0  0  0  0  0  0  0  0  0  0
   36.5890   30.3340   38.1160 C   0  0  0  0  0  0  0  0  0  0  0  0
   37.2210   31.0380   39.1470 C   0  0  0  0  0  0  0  0  0  0  0  0
   36.7750   30.8360   40.4360 C   0  0  0  0  0  0  0  0  0  0  0  0
   37.3270   31.4250   41.1520 H   0  0  0  0  0  0  0  0  0  0  0  0
   35.7370   29.9610   40.6830 C   0  0  0  0  0  0  0  0  0  0  0  0
   35.4430   29.8560   41.7230 H   0  0  0  0  0  0  0  0  0  0  0  0
   35.1150   29.2670   39.6650 C   0  0  0  0  0  3  0  0  0  0  0  0
   35.5430   29.4530   38.3660 C   0  0  0  0  0  3  0  0  0  0  0  0
  1  6  1  0  0  0  0
  1  7  1  1  0  0  0
  1  2  1  0  0  0  0
  2  8  1  6  0  0  0
  2 17  1  0  0  0  0
  3  2  1  0  0  0  0
  4  3  1  0  0  0  0
  5  4  1  0  0  0  0
  5 11  1  1  0  0  0
  5  6  1  0  0  0  0
  6 12  1  1  0  0  0
  9  4  1  0  0  0  0
 10  4  1  0  0  0  0
 13  1  1  0  0  0  0
 14 13  1  0  0  0  0
 15  5  1  0  0  0  0
 16 15  1  0  0  0  0
 17 18  1  0  0  0  0
 18 19  1  0  0  0  0
 19 24  1  0  0  0  0
 19 20  2  0  0  0  0
 20 26  1  0  0  0  0
 21 20  1  0  0  0  0
 22 21  2  0  0  0  0
 23 18  2  0  0  0  0
 23 22  1  0  0  0  0
 25 22  1  0  0  0  0
 26 27  1  0  0  0  0
 26 29  1  0  0  0  0
 27 30  1  0  0  0  0
 28 32  1  0  0  0  0
 28 26  1  0  0  0  0
 28 27  1  0  0  0  0
 31 27  1  0  0  0  0
 33 28  1  0  0  0  0
 34  6  1  0  0  0  0
 34 37  1  0  0  0  0
 35 36  1  0  0  0  0
 36 43  2  0  0  0  0
 36 37  1  0  0  0  0
 37 38  2  0  0  0  0
 38 40  1  0  0  0  0
 38 39  1  0  0  0  0
 40 41  1  0  0  0  0
 42 40  2  0  0  0  0
 43 42  1  0  0  0  0
M  END
>  <minimizedAffinity>
-5.92620754

$$$$
