
 OpenBabel03252506373D

 44 47  0  0  1  0  0  0  0  0999 V2000
   44.5010   35.5400   45.1290 C   0  0  0  0  0  0  0  0  0  0  0  0
   45.1480   35.5310   43.8790 C   0  0  0  0  0  0  0  0  0  0  0  0
   46.0630   34.5720   43.6120 C   0  0  0  0  0  0  0  0  0  0  0  0
   46.3070   33.6590   44.5830 N   0  0  0  0  0  0  0  0  0  0  0  0
   45.6960   33.6690   45.7580 C   0  0  0  0  0  0  0  0  0  0  0  0
   44.7890   34.6040   46.0480 N   0  0  0  0  0  0  0  0  0  0  0  0
   46.0300   32.6550   46.7210 N   0  0  0  0  0  0  0  0  0  0  0  0
   45.2920   32.4090   47.9140 C   0  0  0  0  0  0  0  0  0  0  0  0
   46.3740   32.0360   48.9120 C   0  0  0  0  0  0  0  0  0  0  0  0
   47.6460   31.9480   48.1450 C   0  0  0  0  0  0  0  0  0  0  0  0
   47.1470   31.7410   46.7130 C   0  0  1  0  0  0  0  0  0  0  0  0
   43.7720   36.3230   45.3140 H   0  0  0  0  0  0  0  0  0  0  0  0
   46.5760   34.5390   42.6600 H   0  0  0  0  0  0  0  0  0  0  0  0
   44.4090   31.8490   47.9630 H   0  0  0  0  0  0  0  0  0  0  0  0
   44.9810   33.4410   48.2830 H   0  0  0  0  0  0  0  0  0  0  0  0
   46.3790   32.6160   49.8270 H   0  0  0  0  0  0  0  0  0  0  0  0
   46.1170   30.9790   49.2210 H   0  0  0  0  0  0  0  0  0  0  0  0
   48.3040   31.1220   48.4700 H   0  0  0  0  0  0  0  0  0  0  0  0
   48.1560   32.9270   48.2250 H   0  0  0  0  0  0  0  0  0  0  0  0
   47.9770   32.0340   46.0640 H   0  0  0  0  0  0  0  0  0  0  0  0
   44.7950   36.5620   42.9390 N   0  0  0  0  0  0  0  0  0  0  0  0
   44.6460   36.2580   41.9410 H   0  0  0  0  0  0  0  0  0  0  0  0
   44.6810   37.5590   43.1810 H   0  0  0  0  0  0  0  0  0  0  0  0
   46.6340   30.0490   46.5190 S   0  0  0  0  0  0  0  0  0  0  0  0
   45.6700   30.5780   43.3710 O   0  0  0  0  0  0  0  0  0  0  0  0
   45.0260   30.0200   44.2750 C   0  0  0  0  0  0  0  0  0  0  0  0
   45.1020   29.7680   45.7310 C   0  0  1  0  0  0  0  0  0  0  0  0
   44.5650   28.3620   45.8280 C   0  0  0  0  0  0  0  0  0  0  0  0
   43.2620   28.5840   45.0490 C   0  0  0  0  0  0  0  0  0  0  0  0
   43.7870   29.3680   43.9370 N   0  0  0  0  0  0  0  0  0  0  0  0
   44.2110   30.3570   46.0880 H   0  0  0  0  0  0  0  0  0  0  0  0
   44.3230   28.0410   46.8440 H   0  0  0  0  0  0  0  0  0  0  0  0
   45.1850   27.6310   45.2730 H   0  0  0  0  0  0  0  0  0  0  0  0
   42.8880   27.6160   44.6680 H   0  0  0  0  0  0  0  0  0  0  0  0
   42.5340   29.1360   45.6650 H   0  0  0  0  0  0  0  0  0  0  0  0
   44.4110   27.9590   41.5660 F   0  0  0  0  0  0  0  0  0  0  0  0
   43.3210   28.7450   41.5390 C   0  0  0  0  0  0  0  0  0  0  0  0
   43.0570   29.4040   42.6980 C   0  0  0  0  0  0  0  0  0  0  0  0
   41.9420   30.2480   42.7690 C   0  0  0  0  0  0  0  0  0  0  0  0
   41.6600   30.8160   43.6670 H   0  0  0  0  0  0  0  0  0  0  0  0
   41.0960   30.4260   41.6710 C   0  0  0  0  0  0  0  0  0  0  0  0
   40.2390   31.0840   41.7470 H   0  0  0  0  0  0  0  0  0  0  0  0
   41.3760   29.7430   40.4830 C   0  0  0  0  0  3  0  0  0  0  0  0
   42.4910   28.9230   40.4700 C   0  0  0  0  0  3  0  0  0  0  0  0
  1 12  1  0  0  0  0
  1  6  1  0  0  0  0
  2  1  2  0  0  0  0
  3  2  1  0  0  0  0
  3  4  2  0  0  0  0
  4  5  1  0  0  0  0
  5  6  2  0  0  0  0
  5  7  1  0  0  0  0
  7  8  1  0  0  0  0
  8 14  1  0  0  0  0
  8 15  1  0  0  0  0
  8  9  1  0  0  0  0
  9 17  1  0  0  0  0
  9 16  1  0  0  0  0
 10 19  1  0  0  0  0
 10 18  1  0  0  0  0
 10  9  1  0  0  0  0
 11 20  1  6  0  0  0
 11  7  1  0  0  0  0
 11 10  1  0  0  0  0
 13  3  1  0  0  0  0
 21 23  1  0  0  0  0
 21  2  1  0  0  0  0
 22 21  1  0  0  0  0
 24 11  1  0  0  0  0
 25 26  2  0  0  0  0
 26 27  1  0  0  0  0
 27 28  1  0  0  0  0
 27 31  1  1  0  0  0
 27 24  1  0  0  0  0
 28 32  1  0  0  0  0
 29 35  1  0  0  0  0
 29 28  1  0  0  0  0
 30 26  1  0  0  0  0
 30 29  1  0  0  0  0
 33 28  1  0  0  0  0
 34 29  1  0  0  0  0
 37 36  1  0  0  0  0
 37 38  1  0  0  0  0
 38 39  2  0  0  0  0
 38 30  1  0  0  0  0
 39 40  1  0  0  0  0
 41 42  1  0  0  0  0
 41 39  1  0  0  0  0
 43 41  2  0  0  0  0
 44 43  1  0  0  0  0
 44 37  2  0  0  0  0
M  END
>  <minimizedAffinity>
-5.33386374

>  <minimizedRMSD>
0.678474963

$$$$
