
 OpenBabel03252506373D

 44 47  0  0  1  0  0  0  0  0999 V2000
   44.4860   35.6110   45.1190 C   0  0  0  0  0  0  0  0  0  0  0  0
   45.1290   35.5960   43.8670 C   0  0  0  0  0  0  0  0  0  0  0  0
   46.0340   34.6290   43.5960 C   0  0  0  0  0  0  0  0  0  0  0  0
   46.2730   33.7140   44.5660 N   0  0  0  0  0  0  0  0  0  0  0  0
   45.6670   33.7290   45.7440 C   0  0  0  0  0  0  0  0  0  0  0  0
   44.7690   34.6720   46.0360 N   0  0  0  0  0  0  0  0  0  0  0  0
   45.9960   32.7130   46.7050 N   0  0  0  0  0  0  0  0  0  0  0  0
   45.2590   32.4730   47.9000 C   0  0  0  0  0  0  0  0  0  0  0  0
   46.3410   32.0900   48.8940 C   0  0  0  0  0  0  0  0  0  0  0  0
   47.6100   31.9910   48.1240 C   0  0  0  0  0  0  0  0  0  0  0  0
   47.1040   31.7890   46.6930 C   0  0  1  0  0  0  0  0  0  0  0  0
   43.7640   36.4000   45.3060 H   0  0  0  0  0  0  0  0  0  0  0  0
   46.5440   34.5920   42.6430 H   0  0  0  0  0  0  0  0  0  0  0  0
   44.3720   31.9200   47.9520 H   0  0  0  0  0  0  0  0  0  0  0  0
   44.9580   33.5070   48.2710 H   0  0  0  0  0  0  0  0  0  0  0  0
   46.3550   32.6700   49.8100 H   0  0  0  0  0  0  0  0  0  0  0  0
   46.0760   31.0360   49.2040 H   0  0  0  0  0  0  0  0  0  0  0  0
   48.2620   31.1590   48.4460 H   0  0  0  0  0  0  0  0  0  0  0  0
   48.1290   32.9650   48.2020 H   0  0  0  0  0  0  0  0  0  0  0  0
   47.9340   32.0750   46.0410 H   0  0  0  0  0  0  0  0  0  0  0  0
   44.7810   36.6310   42.9270 N   0  0  0  0  0  0  0  0  0  0  0  0
   44.6260   36.3270   41.9300 H   0  0  0  0  0  0  0  0  0  0  0  0
   44.6770   37.6290   43.1700 H   0  0  0  0  0  0  0  0  0  0  0  0
   46.5760   30.1010   46.5010 S   0  0  0  0  0  0  0  0  0  0  0  0
   45.9010   30.7180   43.2930 O   0  0  0  0  0  0  0  0  0  0  0  0
   45.1850   30.1210   44.1160 C   0  0  0  0  0  0  0  0  0  0  0  0
   45.1300   29.8230   45.5630 C   0  0  1  0  0  0  0  0  0  0  0  0
   44.6110   28.4060   45.5660 C   0  0  0  0  0  0  0  0  0  0  0  0
   43.3830   28.6340   44.6760 C   0  0  0  0  0  0  0  0  0  0  0  0
   43.9950   29.4610   43.6430 N   0  0  0  0  0  0  0  0  0  0  0  0
   44.1980   30.3870   45.8530 H   0  0  0  0  0  0  0  0  0  0  0  0
   44.2810   28.0490   46.5450 H   0  0  0  0  0  0  0  0  0  0  0  0
   45.2940   27.7030   45.0510 H   0  0  0  0  0  0  0  0  0  0  0  0
   43.0640   27.6730   44.2320 H   0  0  0  0  0  0  0  0  0  0  0  0
   42.5910   29.1540   45.2370 H   0  0  0  0  0  0  0  0  0  0  0  0
   41.9050   31.1890   42.8420 F   0  0  0  0  0  0  0  0  0  0  0  0
   42.3810   30.3380   41.9170 C   0  0  0  0  0  0  0  0  0  0  0  0
   43.3840   29.5260   42.3430 C   0  0  0  0  0  0  0  0  0  0  0  0
   43.9460   28.6030   41.4510 C   0  0  0  0  0  0  0  0  0  0  0  0
   44.7580   27.9120   41.7150 H   0  0  0  0  0  0  0  0  0  0  0  0
   43.4950   28.5020   40.1310 C   0  0  0  0  0  0  0  0  0  0  0  0
   43.9440   27.7830   39.4580 H   0  0  0  0  0  0  0  0  0  0  0  0
   42.4610   29.3430   39.7030 C   0  0  0  0  0  3  0  0  0  0  0  0
   41.9450   30.2350   40.6280 C   0  0  0  0  0  3  0  0  0  0  0  0
  1 12  1  0  0  0  0
  1  6  1  0  0  0  0
  2  1  2  0  0  0  0
  3  2  1  0  0  0  0
  3  4  2  0  0  0  0
  4  5  1  0  0  0  0
  5  6  2  0  0  0  0
  5  7  1  0  0  0  0
  7  8  1  0  0  0  0
  8 14  1  0  0  0  0
  8 15  1  0  0  0  0
  8  9  1  0  0  0  0
  9 17  1  0  0  0  0
  9 16  1  0  0  0  0
 10 19  1  0  0  0  0
 10 18  1  0  0  0  0
 10  9  1  0  0  0  0
 11 20  1  6  0  0  0
 11  7  1  0  0  0  0
 11 10  1  0  0  0  0
 13  3  1  0  0  0  0
 21 23  1  0  0  0  0
 21  2  1  0  0  0  0
 22 21  1  0  0  0  0
 24 11  1  0  0  0  0
 25 26  2  0  0  0  0
 26 27  1  0  0  0  0
 27 28  1  0  0  0  0
 27 31  1  1  0  0  0
 27 24  1  0  0  0  0
 28 32  1  0  0  0  0
 29 35  1  0  0  0  0
 29 28  1  0  0  0  0
 30 26  1  0  0  0  0
 30 29  1  0  0  0  0
 33 28  1  0  0  0  0
 34 29  1  0  0  0  0
 37 38  1  0  0  0  0
 37 36  1  0  0  0  0
 38 30  1  0  0  0  0
 39 40  1  0  0  0  0
 39 38  2  0  0  0  0
 41 39  1  0  0  0  0
 42 41  1  0  0  0  0
 43 41  2  0  0  0  0
 43 44  1  0  0  0  0
 44 37  2  0  0  0  0
M  END
>  <minimizedAffinity>
-5.31032991

>  <minimizedRMSD>
0.895756483

$$$$
