
 OpenBabel03252505133D

 44 47  0  0  1  0  0  0  0  0999 V2000
   39.9950   35.0940   39.9360 C   0  0  0  0  0  0  0  0  0  0  0  0
   38.9910   34.1610   40.2780 C   0  0  0  0  0  0  0  0  0  0  0  0
   39.2940   32.7860   40.1440 C   0  0  0  0  0  0  0  0  0  0  0  0
   40.5320   32.4350   39.6940 N   0  0  0  0  0  0  0  0  0  0  0  0
   41.4570   33.3470   39.3810 C   0  0  0  0  0  0  0  0  0  0  0  0
   41.2010   34.6830   39.4980 N   0  0  0  0  0  0  0  0  0  0  0  0
   39.8170   36.1630   40.0190 H   0  0  0  0  0  0  0  0  0  0  0  0
   38.0360   34.5080   40.6270 H   0  0  0  0  0  0  0  0  0  0  0  0
   42.7940   32.9120   38.8920 C   0  0  2  0  0  0  0  0  0  0  0  0
   43.5770   32.5890   40.1460 C   0  0  0  0  0  0  0  0  0  0  0  0
   44.6020   33.5660   40.5400 C   0  0  0  0  0  0  0  0  0  0  0  0
   45.5120   33.7150   39.3230 C   0  0  0  0  0  0  0  0  0  0  0  0
   44.8130   34.3310   38.1980 C   0  0  0  0  0  0  0  0  0  0  0  0
   43.4100   33.8760   38.0250 C   0  0  0  0  0  0  0  0  0  0  0  0
   42.5950   31.9650   38.3350 H   0  0  0  0  0  0  0  0  0  0  0  0
   42.9300   32.4060   41.0320 H   0  0  0  0  0  0  0  0  0  0  0  0
   44.0860   31.6110   39.9760 H   0  0  0  0  0  0  0  0  0  0  0  0
   45.1900   33.1500   41.3560 H   0  0  0  0  0  0  0  0  0  0  0  0
   44.1770   34.5660   40.7280 H   0  0  0  0  0  0  0  0  0  0  0  0
   46.2830   34.4400   39.6350 H   0  0  0  0  0  0  0  0  0  0  0  0
   45.9820   32.7520   39.0480 H   0  0  0  0  0  0  0  0  0  0  0  0
   45.0620   35.0430   37.4500 H   0  0  0  0  0  0  0  0  0  0  0  0
   42.6140   34.4010   36.9650 N   0  0  0  0  0  0  0  0  0  0  0  0
   42.2910   35.3950   37.0290 H   0  0  0  0  0  0  0  0  0  0  0  0
   42.4090   33.7330   36.1820 H   0  0  0  0  0  0  0  0  0  0  0  0
   38.2840   31.8020   40.4890 C   0  0  0  0  0  0  0  0  0  0  0  0
   37.1100   31.8240   39.7850 C   0  0  0  0  0  0  0  0  0  0  0  0
   36.1730   30.8360   40.1750 C   0  0  0  0  0  0  0  0  0  0  0  0
   36.5400   29.9800   41.1980 C   0  0  0  0  0  0  0  0  0  0  0  0
   37.7030   29.9610   41.8920 C   0  0  0  0  0  0  0  0  0  0  0  0
   38.5870   30.9330   41.4870 N   0  0  0  0  0  0  0  0  0  0  0  0
   36.9630   32.5510   39.0120 H   0  0  0  0  0  0  0  0  0  0  0  0
   35.2540   30.8710   39.6090 H   0  0  0  0  0  0  0  0  0  0  0  0
   35.6990   29.3230   41.3300 H   0  0  0  0  0  0  0  0  0  0  0  0
   37.9950   29.0890   42.8730 O   0  0  0  0  0  0  0  0  0  0  0  0
   36.7700   26.8470   42.3030 F   0  0  0  0  0  0  0  0  0  0  0  0
   38.0730   26.9970   42.6930 C   0  0  0  0  0  0  0  0  0  0  0  0
   38.8650   28.1270   43.0310 C   0  0  0  0  0  0  0  0  0  0  0  0
   40.1410   27.7850   43.3660 C   0  0  0  0  0  0  0  0  0  0  0  0
   40.7140   28.6530   43.6150 H   0  0  0  0  0  0  0  0  0  0  0  0
   40.7180   26.5410   43.4120 C   0  0  0  0  0  0  0  0  0  0  0  0
   41.7550   26.5060   43.7080 H   0  0  0  0  0  0  0  0  0  0  0  0
   39.9090   25.4920   43.0780 C   0  0  0  0  0  3  0  0  0  0  0  0
   38.5710   25.6760   42.7100 C   0  0  0  0  0  3  0  0  0  0  0  0
  1  7  1  0  0  0  0
  1  2  1  0  0  0  0
  2  8  1  0  0  0  0
  3  2  2  0  0  0  0
  3 26  1  0  0  0  0
  4  3  1  0  0  0  0
  5  6  1  0  0  0  0
  5  4  2  0  0  0  0
  6  1  2  0  0  0  0
  9 15  1  6  0  0  0
  9  5  1  0  0  0  0
  9 10  1  0  0  0  0
 10 11  1  0  0  0  0
 10 16  1  0  0  0  0
 11 19  1  0  0  0  0
 11 18  1  0  0  0  0
 12 20  1  0  0  0  0
 12 11  1  0  0  0  0
 13 12  1  0  0  0  0
 14 13  2  0  0  0  0
 14  9  1  0  0  0  0
 17 10  1  0  0  0  0
 21 12  1  0  0  0  0
 22 13  1  0  0  0  0
 23 24  1  0  0  0  0
 23 14  1  0  0  0  0
 25 23  1  0  0  0  0
 26 31  1  0  0  0  0
 27 28  1  0  0  0  0
 27 26  2  0  0  0  0
 28 29  2  0  0  0  0
 29 34  1  0  0  0  0
 29 30  1  0  0  0  0
 30 35  1  0  0  0  0
 31 30  2  0  0  0  0
 32 27  1  0  0  0  0
 33 28  1  0  0  0  0
 35 38  1  0  0  0  0
 36 37  1  0  0  0  0
 37 44  2  0  0  0  0
 37 38  1  0  0  0  0
 38 39  2  0  0  0  0
 39 41  1  0  0  0  0
 39 40  1  0  0  0  0
 41 42  1  0  0  0  0
 43 41  2  0  0  0  0
 44 43  1  0  0  0  0
M  END
>  <minimizedAffinity>
-6.97148561

$$$$

 OpenBabel03252505133D

 44 47  0  0  1  0  0  0  0  0999 V2000
   38.6340   34.2230   40.2040 C   0  0  0  0  0  0  0  0  0  0  0  0
   37.7280   33.1440   40.3110 C   0  0  0  0  0  0  0  0  0  0  0  0
   38.2530   31.8730   40.6440 C   0  0  0  0  0  0  0  0  0  0  0  0
   39.5960   31.7570   40.8420 N   0  0  0  0  0  0  0  0  0  0  0  0
   40.4220   32.8020   40.7320 C   0  0  0  0  0  0  0  0  0  0  0  0
   39.9520   34.0430   40.4120 N   0  0  0  0  0  0  0  0  0  0  0  0
   38.2870   35.2220   39.9500 H   0  0  0  0  0  0  0  0  0  0  0  0
   36.6810   33.3070   40.1410 H   0  0  0  0  0  0  0  0  0  0  0  0
   41.8820   32.6210   40.9560 C   0  0  2  0  0  0  0  0  0  0  0  0
   42.4580   32.3880   39.5760 C   0  0  0  0  0  0  0  0  0  0  0  0
   42.8510   31.0070   39.2620 C   0  0  0  0  0  0  0  0  0  0  0  0
   43.8280   30.6000   40.3630 C   0  0  0  0  0  0  0  0  0  0  0  0
   43.1720   30.5220   41.6650 C   0  0  0  0  0  0  0  0  0  0  0  0
   42.1750   31.5950   41.9150 C   0  0  0  0  0  0  0  0  0  0  0  0
   42.2340   33.6120   41.3330 H   0  0  0  0  0  0  0  0  0  0  0  0
   41.7930   32.7420   38.7580 H   0  0  0  0  0  0  0  0  0  0  0  0
   43.3660   33.0300   39.4840 H   0  0  0  0  0  0  0  0  0  0  0  0
   43.3840   30.9990   38.3130 H   0  0  0  0  0  0  0  0  0  0  0  0
   42.0030   30.3050   39.3310 H   0  0  0  0  0  0  0  0  0  0  0  0
   44.1240   29.5690   40.1100 H   0  0  0  0  0  0  0  0  0  0  0  0
   44.7160   31.2600   40.3800 H   0  0  0  0  0  0  0  0  0  0  0  0
   43.2290   29.8730   42.5040 H   0  0  0  0  0  0  0  0  0  0  0  0
   41.4610   31.6330   43.1490 N   0  0  0  0  0  0  0  0  0  0  0  0
   40.7300   30.9030   43.3250 H   0  0  0  0  0  0  0  0  0  0  0  0
   41.7300   32.4090   43.8020 H   0  0  0  0  0  0  0  0  0  0  0  0
   37.3480   30.7440   40.7650 C   0  0  0  0  0  0  0  0  0  0  0  0
   36.2690   30.7020   39.9220 C   0  0  0  0  0  0  0  0  0  0  0  0
   35.4320   29.5730   40.0950 C   0  0  0  0  0  0  0  0  0  0  0  0
   35.7890   28.6610   41.0730 C   0  0  0  0  0  0  0  0  0  0  0  0
   36.8570   28.7060   41.9040 C   0  0  0  0  0  0  0  0  0  0  0  0
   37.6450   29.8150   41.7080 N   0  0  0  0  0  0  0  0  0  0  0  0
   36.1180   31.4860   39.2080 H   0  0  0  0  0  0  0  0  0  0  0  0
   34.5880   29.5600   39.4220 H   0  0  0  0  0  0  0  0  0  0  0  0
   35.0320   27.8990   41.0350 H   0  0  0  0  0  0  0  0  0  0  0  0
   37.1470   27.7730   42.8290 O   0  0  0  0  0  0  0  0  0  0  0  0
   36.7490   25.4640   41.6610 F   0  0  0  0  0  0  0  0  0  0  0  0
   37.8320   25.8310   42.4150 C   0  0  0  0  0  0  0  0  0  0  0  0
   38.1830   27.0250   43.0990 C   0  0  0  0  0  0  0  0  0  0  0  0
   39.3870   26.9270   43.7300 C   0  0  0  0  0  0  0  0  0  0  0  0
   39.6260   27.8380   44.2360 H   0  0  0  0  0  0  0  0  0  0  0  0
   40.2530   25.8640   43.7770 C   0  0  0  0  0  0  0  0  0  0  0  0
   41.1600   26.0110   44.3420 H   0  0  0  0  0  0  0  0  0  0  0  0
   39.8630   24.7420   43.1010 C   0  0  0  0  0  3  0  0  0  0  0  0
   38.6520   24.6820   42.4010 C   0  0  0  0  0  3  0  0  0  0  0  0
  1  2  2  0  0  0  0
  1  6  1  0  0  0  0
  2  3  1  0  0  0  0
  3 26  1  0  0  0  0
  3  4  2  0  0  0  0
  5  4  1  0  0  0  0
  5  9  1  0  0  0  0
  6  5  2  0  0  0  0
  7  1  1  0  0  0  0
  8  2  1  0  0  0  0
  9 15  1  1  0  0  0
  9 14  1  0  0  0  0
 10  9  1  0  0  0  0
 11 19  1  0  0  0  0
 11 10  1  0  0  0  0
 11 12  1  0  0  0  0
 12 21  1  0  0  0  0
 12 13  1  0  0  0  0
 13 14  2  0  0  0  0
 13 22  1  0  0  0  0
 14 23  1  0  0  0  0
 16 10  1  0  0  0  0
 17 10  1  0  0  0  0
 18 11  1  0  0  0  0
 20 12  1  0  0  0  0
 23 24  1  0  0  0  0
 23 25  1  0  0  0  0
 26 31  1  0  0  0  0
 27 28  1  0  0  0  0
 27 26  2  0  0  0  0
 28 29  2  0  0  0  0
 29 30  1  0  0  0  0
 30 35  1  0  0  0  0
 31 30  2  0  0  0  0
 32 27  1  0  0  0  0
 33 28  1  0  0  0  0
 34 29  1  0  0  0  0
 35 38  1  0  0  0  0
 36 37  1  0  0  0  0
 37 38  1  0  0  0  0
 38 39  2  0  0  0  0
 39 41  1  0  0  0  0
 39 40  1  0  0  0  0
 41 42  1  0  0  0  0
 43 41  2  0  0  0  0
 44 37  2  0  0  0  0
 44 43  1  0  0  0  0
M  END
>  <minimizedAffinity>
-6.79180527

$$$$

 OpenBabel03252505133D

 44 47  0  0  1  0  0  0  0  0999 V2000
   38.3530   29.3240   37.6330 C   0  0  0  0  0  0  0  0  0  0  0  0
   38.0810   28.6290   38.8330 C   0  0  0  0  0  0  0  0  0  0  0  0
   38.1030   29.3650   40.0410 C   0  0  0  0  0  0  0  0  0  0  0  0
   38.3840   30.6980   39.9840 N   0  0  0  0  0  0  0  0  0  0  0  0
   38.6360   31.3210   38.8280 C   0  0  0  0  0  0  0  0  0  0  0  0
   38.6230   30.6430   37.6430 N   0  0  0  0  0  0  0  0  0  0  0  0
   38.3500   28.8080   36.6760 H   0  0  0  0  0  0  0  0  0  0  0  0
   37.8670   27.5780   38.8050 H   0  0  0  0  0  0  0  0  0  0  0  0
   38.9400   32.7770   38.8200 C   0  0  2  0  0  0  0  0  0  0  0  0
   40.4490   32.8560   38.8900 C   0  0  0  0  0  0  0  0  0  0  0  0
   41.0180   33.2620   40.1840 C   0  0  0  0  0  0  0  0  0  0  0  0
   40.3620   34.5990   40.5170 C   0  0  0  0  0  0  0  0  0  0  0  0
   38.9300   34.4520   40.7620 C   0  0  0  0  0  0  0  0  0  0  0  0
   38.2470   33.4950   39.8520 C   0  0  0  0  0  0  0  0  0  0  0  0
   38.6040   33.1290   37.8150 H   0  0  0  0  0  0  0  0  0  0  0  0
   40.9530   31.9140   38.5830 H   0  0  0  0  0  0  0  0  0  0  0  0
   40.7770   33.6000   38.1260 H   0  0  0  0  0  0  0  0  0  0  0  0
   42.0870   33.4280   40.0620 H   0  0  0  0  0  0  0  0  0  0  0  0
   40.7390   32.5730   40.9980 H   0  0  0  0  0  0  0  0  0  0  0  0
   40.8050   34.8970   41.4820 H   0  0  0  0  0  0  0  0  0  0  0  0
   40.5790   35.3610   39.7440 H   0  0  0  0  0  0  0  0  0  0  0  0
   38.2310   34.8680   41.4450 H   0  0  0  0  0  0  0  0  0  0  0  0
   36.8480   33.2580   39.9850 N   0  0  0  0  0  0  0  0  0  0  0  0
   36.5110   32.7180   40.8170 H   0  0  0  0  0  0  0  0  0  0  0  0
   36.2490   33.6520   39.2190 H   0  0  0  0  0  0  0  0  0  0  0  0
   37.8260   28.6820   41.2910 C   0  0  0  0  0  0  0  0  0  0  0  0
   37.8890   29.4190   42.4440 C   0  0  0  0  0  0  0  0  0  0  0  0
   37.6070   28.6880   43.6240 C   0  0  0  0  0  0  0  0  0  0  0  0
   37.3060   27.3460   43.4840 C   0  0  0  0  0  0  0  0  0  0  0  0
   37.2440   26.6200   42.3420 C   0  0  0  0  0  0  0  0  0  0  0  0
   37.5250   27.3610   41.2180 N   0  0  0  0  0  0  0  0  0  0  0  0
   38.1370   30.4600   42.4000 H   0  0  0  0  0  0  0  0  0  0  0  0
   37.6630   29.2870   44.5210 H   0  0  0  0  0  0  0  0  0  0  0  0
   37.1290   26.9910   44.4830 H   0  0  0  0  0  0  0  0  0  0  0  0
   36.9350   25.3130   42.2800 O   0  0  0  0  0  0  0  0  0  0  0  0
   39.1810   23.9760   42.1480 F   0  0  0  0  0  0  0  0  0  0  0  0
   38.0700   23.7990   41.3690 C   0  0  0  0  0  0  0  0  0  0  0  0
   36.8010   24.4350   41.3220 C   0  0  0  0  0  0  0  0  0  0  0  0
   35.9930   23.9120   40.3570 C   0  0  0  0  0  0  0  0  0  0  0  0
   35.0460   24.4080   40.3450 H   0  0  0  0  0  0  0  0  0  0  0  0
   36.2510   22.8960   39.4730 C   0  0  0  0  0  0  0  0  0  0  0  0
   35.4560   22.6450   38.7890 H   0  0  0  0  0  0  0  0  0  0  0  0
   37.4880   22.3220   39.5630 C   0  0  0  0  0  3  0  0  0  0  0  0
   38.4340   22.7450   40.5030 C   0  0  0  0  0  3  0  0  0  0  0  0
  1  6  2  0  0  0  0
  1  2  1  0  0  0  0
  2  3  2  0  0  0  0
  3 26  1  0  0  0  0
  4  3  1  0  0  0  0
  5  4  2  0  0  0  0
  6  5  1  0  0  0  0
  7  1  1  0  0  0  0
  8  2  1  0  0  0  0
  9 15  1  6  0  0  0
  9  5  1  0  0  0  0
  9 10  1  0  0  0  0
  9 14  1  0  0  0  0
 10 11  1  0  0  0  0
 11 12  1  0  0  0  0
 11 19  1  0  0  0  0
 12 13  1  0  0  0  0
 12 20  1  0  0  0  0
 13 22  1  0  0  0  0
 14 23  1  0  0  0  0
 14 13  2  0  0  0  0
 16 10  1  0  0  0  0
 17 10  1  0  0  0  0
 18 11  1  0  0  0  0
 21 12  1  0  0  0  0
 23 24  1  0  0  0  0
 25 23  1  0  0  0  0
 26 27  1  0  0  0  0
 27 28  2  0  0  0  0
 28 33  1  0  0  0  0
 29 28  1  0  0  0  0
 29 34  1  0  0  0  0
 30 29  2  0  0  0  0
 31 26  2  0  0  0  0
 31 30  1  0  0  0  0
 32 27  1  0  0  0  0
 35 30  1  0  0  0  0
 37 36  1  0  0  0  0
 38 37  1  0  0  0  0
 38 35  1  0  0  0  0
 39 38  2  0  0  0  0
 40 39  1  0  0  0  0
 41 43  2  0  0  0  0
 41 39  1  0  0  0  0
 42 41  1  0  0  0  0
 43 44  1  0  0  0  0
 44 37  2  0  0  0  0
M  END
>  <minimizedAffinity>
-6.76378107

$$$$

 OpenBabel03252505133D

 44 47  0  0  1  0  0  0  0  0999 V2000
   37.4880   32.6480   39.8960 C   0  0  0  0  0  0  0  0  0  0  0  0
   37.1160   31.4930   40.6190 C   0  0  0  0  0  0  0  0  0  0  0  0
   38.1000   30.4980   40.8250 C   0  0  0  0  0  0  0  0  0  0  0  0
   39.3490   30.7050   40.3180 N   0  0  0  0  0  0  0  0  0  0  0  0
   39.6640   31.8120   39.6390 C   0  0  0  0  0  0  0  0  0  0  0  0
   38.7400   32.7940   39.4200 N   0  0  0  0  0  0  0  0  0  0  0  0
   36.7720   33.4450   39.7070 H   0  0  0  0  0  0  0  0  0  0  0  0
   36.1140   31.3950   40.9900 H   0  0  0  0  0  0  0  0  0  0  0  0
   41.0410   31.9890   39.1040 C   0  0  2  0  0  0  0  0  0  0  0  0
   41.8220   32.6030   40.2450 C   0  0  0  0  0  0  0  0  0  0  0  0
   42.1360   34.0340   40.1210 C   0  0  0  0  0  0  0  0  0  0  0  0
   42.8680   34.1760   38.7880 C   0  0  0  0  0  0  0  0  0  0  0  0
   41.9930   33.8800   37.6570 C   0  0  0  0  0  0  0  0  0  0  0  0
   41.0700   32.7380   37.8790 C   0  0  0  0  0  0  0  0  0  0  0  0
   41.4100   30.9500   38.9280 H   0  0  0  0  0  0  0  0  0  0  0  0
   41.3430   32.4500   41.2370 H   0  0  0  0  0  0  0  0  0  0  0  0
   42.7870   32.0480   40.3220 H   0  0  0  0  0  0  0  0  0  0  0  0
   42.8220   34.3140   40.9180 H   0  0  0  0  0  0  0  0  0  0  0  0
   41.2300   34.6560   40.0400 H   0  0  0  0  0  0  0  0  0  0  0  0
   43.1090   35.2500   38.7130 H   0  0  0  0  0  0  0  0  0  0  0  0
   43.7960   33.5730   38.7700 H   0  0  0  0  0  0  0  0  0  0  0  0
   41.8460   34.2860   36.6870 H   0  0  0  0  0  0  0  0  0  0  0  0
   40.1600   32.3450   36.8540 N   0  0  0  0  0  0  0  0  0  0  0  0
   39.3480   32.9700   36.6420 H   0  0  0  0  0  0  0  0  0  0  0  0
   40.3820   31.4360   36.3790 H   0  0  0  0  0  0  0  0  0  0  0  0
   37.7510   29.2990   41.5660 C   0  0  0  0  0  0  0  0  0  0  0  0
   37.7790   29.3690   42.9330 C   0  0  0  0  0  0  0  0  0  0  0  0
   37.4270   28.1640   43.5900 C   0  0  0  0  0  0  0  0  0  0  0  0
   37.1020   27.0790   42.7950 C   0  0  0  0  0  0  0  0  0  0  0  0
   37.0750   27.0140   41.4430 C   0  0  0  0  0  0  0  0  0  0  0  0
   37.4240   28.2000   40.8410 N   0  0  0  0  0  0  0  0  0  0  0  0
   38.0520   30.2850   43.4170 H   0  0  0  0  0  0  0  0  0  0  0  0
   37.4550   28.2400   44.6660 H   0  0  0  0  0  0  0  0  0  0  0  0
   36.8710   26.2850   43.4830 H   0  0  0  0  0  0  0  0  0  0  0  0
   36.7390   25.9220   40.7340 O   0  0  0  0  0  0  0  0  0  0  0  0
   37.2580   23.8010   42.1790 F   0  0  0  0  0  0  0  0  0  0  0  0
   37.5880   24.0050   40.8660 C   0  0  0  0  0  0  0  0  0  0  0  0
   37.3780   25.0820   39.9640 C   0  0  0  0  0  0  0  0  0  0  0  0
   37.8940   24.8320   38.7280 C   0  0  0  0  0  0  0  0  0  0  0  0
   37.7230   25.6570   38.0700 H   0  0  0  0  0  0  0  0  0  0  0  0
   38.5570   23.7190   38.2780 C   0  0  0  0  0  0  0  0  0  0  0  0
   38.8810   23.7380   37.2490 H   0  0  0  0  0  0  0  0  0  0  0  0
   38.7300   22.7150   39.1880 C   0  0  0  0  0  3  0  0  0  0  0  0
   38.2580   22.8170   40.5020 C   0  0  0  0  0  3  0  0  0  0  0  0
  1  2  1  0  0  0  0
  2  3  2  0  0  0  0
  2  8  1  0  0  0  0
  3 26  1  0  0  0  0
  4  3  1  0  0  0  0
  5  4  2  0  0  0  0
  6  5  1  0  0  0  0
  6  1  2  0  0  0  0
  7  1  1  0  0  0  0
  9 15  1  6  0  0  0
  9  5  1  0  0  0  0
  9 10  1  0  0  0  0
 10 17  1  0  0  0  0
 10 16  1  0  0  0  0
 11 10  1  0  0  0  0
 11 18  1  0  0  0  0
 12 11  1  0  0  0  0
 13 14  2  0  0  0  0
 13 12  1  0  0  0  0
 14  9  1  0  0  0  0
 19 11  1  0  0  0  0
 20 12  1  0  0  0  0
 21 12  1  0  0  0  0
 22 13  1  0  0  0  0
 23 14  1  0  0  0  0
 24 23  1  0  0  0  0
 25 23  1  0  0  0  0
 26 27  1  0  0  0  0
 27 32  1  0  0  0  0
 27 28  2  0  0  0  0
 28 33  1  0  0  0  0
 29 34  1  0  0  0  0
 29 28  1  0  0  0  0
 30 29  2  0  0  0  0
 31 30  1  0  0  0  0
 31 26  2  0  0  0  0
 35 30  1  0  0  0  0
 37 36  1  0  0  0  0
 38 35  1  0  0  0  0
 38 37  2  0  0  0  0
 39 38  1  0  0  0  0
 40 39  1  0  0  0  0
 41 39  2  0  0  0  0
 41 43  1  0  0  0  0
 42 41  1  0  0  0  0
 43 44  2  0  0  0  0
 44 37  1  0  0  0  0
M  END
>  <minimizedAffinity>
-6.68246269

$$$$

 OpenBabel03252505133D

 44 47  0  0  1  0  0  0  0  0999 V2000
   37.4070   31.8220   40.0400 C   0  0  0  0  0  0  0  0  0  0  0  0
   36.6360   30.9410   39.2500 C   0  0  0  0  0  0  0  0  0  0  0  0
   36.6210   29.5730   39.6100 C   0  0  0  0  0  0  0  0  0  0  0  0
   37.3480   29.1790   40.6930 N   0  0  0  0  0  0  0  0  0  0  0  0
   38.0650   30.0430   41.4180 C   0  0  0  0  0  0  0  0  0  0  0  0
   38.1040   31.3710   41.1010 N   0  0  0  0  0  0  0  0  0  0  0  0
   37.4560   32.8840   39.8100 H   0  0  0  0  0  0  0  0  0  0  0  0
   36.0870   31.3200   38.4080 H   0  0  0  0  0  0  0  0  0  0  0  0
   38.8440   29.5620   42.5910 C   0  0  2  0  0  0  0  0  0  0  0  0
   40.1730   29.1210   42.0170 C   0  0  0  0  0  0  0  0  0  0  0  0
   40.3880   27.6700   41.9210 C   0  0  0  0  0  0  0  0  0  0  0  0
   40.1700   27.1300   43.3320 C   0  0  0  0  0  0  0  0  0  0  0  0
   38.7810   27.2800   43.7590 C   0  0  0  0  0  0  0  0  0  0  0  0
   38.1480   28.5590   43.3460 C   0  0  0  0  0  0  0  0  0  0  0  0
   39.0030   30.4730   43.2170 H   0  0  0  0  0  0  0  0  0  0  0  0
   40.3860   29.5590   41.0180 H   0  0  0  0  0  0  0  0  0  0  0  0
   40.9720   29.5410   42.6740 H   0  0  0  0  0  0  0  0  0  0  0  0
   41.4240   27.4850   41.6410 H   0  0  0  0  0  0  0  0  0  0  0  0
   39.6340   27.1770   41.2850 H   0  0  0  0  0  0  0  0  0  0  0  0
   40.3460   26.0440   43.2480 H   0  0  0  0  0  0  0  0  0  0  0  0
   40.8800   27.5790   44.0520 H   0  0  0  0  0  0  0  0  0  0  0  0
   38.0900   26.6890   44.3060 H   0  0  0  0  0  0  0  0  0  0  0  0
   36.7930   28.8310   43.6980 N   0  0  0  0  0  0  0  0  0  0  0  0
   36.0350   28.2920   43.2160 H   0  0  0  0  0  0  0  0  0  0  0  0
   36.6570   29.5690   44.4310 H   0  0  0  0  0  0  0  0  0  0  0  0
   35.8360   28.6420   38.8190 C   0  0  0  0  0  0  0  0  0  0  0  0
   36.2750   27.3460   38.7460 C   0  0  0  0  0  0  0  0  0  0  0  0
   35.4600   26.4950   37.9600 C   0  0  0  0  0  0  0  0  0  0  0  0
   34.3420   27.0530   37.3680 C   0  0  0  0  0  0  0  0  0  0  0  0
   33.9110   28.3350   37.4430 C   0  0  0  0  0  0  0  0  0  0  0  0
   34.7260   29.1320   38.2130 N   0  0  0  0  0  0  0  0  0  0  0  0
   37.1670   27.0540   39.2610 H   0  0  0  0  0  0  0  0  0  0  0  0
   35.8240   25.4790   37.9150 H   0  0  0  0  0  0  0  0  0  0  0  0
   33.8770   26.2470   36.8290 H   0  0  0  0  0  0  0  0  0  0  0  0
   32.8030   28.8080   36.8460 O   0  0  0  0  0  0  0  0  0  0  0  0
   32.3200   30.3480   34.7850 F   0  0  0  0  0  0  0  0  0  0  0  0
   31.6860   30.3720   35.9980 C   0  0  0  0  0  0  0  0  0  0  0  0
   31.8340   29.6140   37.1900 C   0  0  0  0  0  0  0  0  0  0  0  0
   30.9640   30.0020   38.1640 C   0  0  0  0  0  0  0  0  0  0  0  0
   31.0970   29.4160   39.0480 H   0  0  0  0  0  0  0  0  0  0  0  0
   30.0100   30.9880   38.1270 C   0  0  0  0  0  0  0  0  0  0  0  0
   29.4270   31.1220   39.0240 H   0  0  0  0  0  0  0  0  0  0  0  0
   29.9130   31.6840   36.9550 C   0  0  0  0  0  3  0  0  0  0  0  0
   30.7370   31.4070   35.8580 C   0  0  0  0  0  3  0  0  0  0  0  0
  1  6  1  0  0  0  0
  2  3  1  0  0  0  0
  2  1  2  0  0  0  0
  3  4  2  0  0  0  0
  4  5  1  0  0  0  0
  5  9  1  0  0  0  0
  6  5  2  0  0  0  0
  7  1  1  0  0  0  0
  8  2  1  0  0  0  0
  9 15  1  1  0  0  0
  9 14  1  0  0  0  0
 10  9  1  0  0  0  0
 10 17  1  0  0  0  0
 11 10  1  0  0  0  0
 11 12  1  0  0  0  0
 12 13  1  0  0  0  0
 12 21  1  0  0  0  0
 13 22  1  0  0  0  0
 14 23  1  0  0  0  0
 14 13  2  0  0  0  0
 16 10  1  0  0  0  0
 18 11  1  0  0  0  0
 19 11  1  0  0  0  0
 20 12  1  0  0  0  0
 23 25  1  0  0  0  0
 24 23  1  0  0  0  0
 26  3  1  0  0  0  0
 27 26  1  0  0  0  0
 27 32  1  0  0  0  0
 28 27  2  0  0  0  0
 29 30  2  0  0  0  0
 29 28  1  0  0  0  0
 30 31  1  0  0  0  0
 31 26  2  0  0  0  0
 33 28  1  0  0  0  0
 34 29  1  0  0  0  0
 35 38  1  0  0  0  0
 35 30  1  0  0  0  0
 36 37  1  0  0  0  0
 37 38  1  0  0  0  0
 38 39  2  0  0  0  0
 39 40  1  0  0  0  0
 41 39  1  0  0  0  0
 41 42  1  0  0  0  0
 43 41  2  0  0  0  0
 44 37  2  0  0  0  0
 44 43  1  0  0  0  0
M  END
>  <minimizedAffinity>
-6.65288639

$$$$

 OpenBabel03252505133D

 44 47  0  0  1  0  0  0  0  0999 V2000
   36.1870   31.0590   40.7030 C   0  0  0  0  0  0  0  0  0  0  0  0
   37.1360   32.0750   40.4520 C   0  0  0  0  0  0  0  0  0  0  0  0
   38.4800   31.8270   40.8160 C   0  0  0  0  0  0  0  0  0  0  0  0
   38.7870   30.6280   41.3870 N   0  0  0  0  0  0  0  0  0  0  0  0
   37.8610   29.6900   41.6090 C   0  0  0  0  0  0  0  0  0  0  0  0
   36.5540   29.8940   41.2710 N   0  0  0  0  0  0  0  0  0  0  0  0
   35.1390   31.1950   40.4450 H   0  0  0  0  0  0  0  0  0  0  0  0
   36.8240   32.9970   39.9980 H   0  0  0  0  0  0  0  0  0  0  0  0
   38.2470   28.3980   42.2380 C   0  0  2  0  0  0  0  0  0  0  0  0
   38.4140   27.4400   41.0780 C   0  0  0  0  0  0  0  0  0  0  0  0
   37.3430   26.4490   40.8970 C   0  0  0  0  0  0  0  0  0  0  0  0
   37.2360   25.7150   42.2320 C   0  0  0  0  0  0  0  0  0  0  0  0
   36.7620   26.5950   43.2960 C   0  0  0  0  0  0  0  0  0  0  0  0
   37.3200   27.9710   43.2470 C   0  0  0  0  0  0  0  0  0  0  0  0
   39.2480   28.5940   42.6930 H   0  0  0  0  0  0  0  0  0  0  0  0
   38.5640   27.9520   40.1030 H   0  0  0  0  0  0  0  0  0  0  0  0
   39.3670   26.8840   41.2420 H   0  0  0  0  0  0  0  0  0  0  0  0
   37.6510   25.7320   40.1380 H   0  0  0  0  0  0  0  0  0  0  0  0
   36.3610   26.9200   40.7280 H   0  0  0  0  0  0  0  0  0  0  0  0
   36.4400   24.9670   42.0790 H   0  0  0  0  0  0  0  0  0  0  0  0
   38.1870   25.2130   42.4950 H   0  0  0  0  0  0  0  0  0  0  0  0
   36.1010   26.4980   44.1210 H   0  0  0  0  0  0  0  0  0  0  0  0
   36.9380   28.9330   44.2280 N   0  0  0  0  0  0  0  0  0  0  0  0
   35.9650   29.3180   44.1950 H   0  0  0  0  0  0  0  0  0  0  0  0
   37.6800   29.1850   44.9260 H   0  0  0  0  0  0  0  0  0  0  0  0
   39.4800   32.8490   40.5690 C   0  0  0  0  0  0  0  0  0  0  0  0
   39.0540   34.1480   40.4920 C   0  0  0  0  0  0  0  0  0  0  0  0
   40.0830   35.0910   40.2500 C   0  0  0  0  0  0  0  0  0  0  0  0
   41.3720   34.6060   40.1230 C   0  0  0  0  0  0  0  0  0  0  0  0
   41.7900   33.3200   40.2010 C   0  0  0  0  0  0  0  0  0  0  0  0
   40.7650   32.4340   40.4350 N   0  0  0  0  0  0  0  0  0  0  0  0
   38.0140   34.3780   40.6120 H   0  0  0  0  0  0  0  0  0  0  0  0
   39.7260   36.1080   40.1920 H   0  0  0  0  0  0  0  0  0  0  0  0
   41.9830   35.4730   39.9470 H   0  0  0  0  0  0  0  0  0  0  0  0
   43.0690   32.9210   40.0760 O   0  0  0  0  0  0  0  0  0  0  0  0
   42.9490   30.8640   38.4610 F   0  0  0  0  0  0  0  0  0  0  0  0
   43.8240   31.9150   38.3930 C   0  0  0  0  0  0  0  0  0  0  0  0
   44.0080   33.0820   39.1820 C   0  0  0  0  0  0  0  0  0  0  0  0
   45.0280   33.8610   38.7250 C   0  0  0  0  0  0  0  0  0  0  0  0
   45.1440   34.7320   39.3360 H   0  0  0  0  0  0  0  0  0  0  0  0
   45.8530   33.6600   37.6480 C   0  0  0  0  0  0  0  0  0  0  0  0
   46.6010   34.4170   37.4710 H   0  0  0  0  0  0  0  0  0  0  0  0
   45.6310   32.5210   36.9270 C   0  0  0  0  0  3  0  0  0  0  0  0
   44.6200   31.6150   37.2670 C   0  0  0  0  0  3  0  0  0  0  0  0
  1  6  1  0  0  0  0
  2  1  2  0  0  0  0
  2  3  1  0  0  0  0
  3  4  2  0  0  0  0
  4  5  1  0  0  0  0
  5  9  1  0  0  0  0
  6  5  2  0  0  0  0
  7  1  1  0  0  0  0
  8  2  1  0  0  0  0
  9 15  1  1  0  0  0
  9 14  1  0  0  0  0
 10 17  1  0  0  0  0
 10  9  1  0  0  0  0
 11 10  1  0  0  0  0
 11 12  1  0  0  0  0
 12 21  1  0  0  0  0
 12 13  1  0  0  0  0
 13 22  1  0  0  0  0
 14 13  2  0  0  0  0
 14 23  1  0  0  0  0
 16 10  1  0  0  0  0
 18 11  1  0  0  0  0
 19 11  1  0  0  0  0
 20 12  1  0  0  0  0
 23 25  1  0  0  0  0
 24 23  1  0  0  0  0
 26  3  1  0  0  0  0
 27 26  1  0  0  0  0
 27 32  1  0  0  0  0
 28 27  2  0  0  0  0
 29 30  2  0  0  0  0
 29 28  1  0  0  0  0
 30 31  1  0  0  0  0
 31 26  2  0  0  0  0
 33 28  1  0  0  0  0
 34 29  1  0  0  0  0
 35 30  1  0  0  0  0
 37 36  1  0  0  0  0
 37 38  1  0  0  0  0
 38 35  1  0  0  0  0
 39 38  2  0  0  0  0
 39 40  1  0  0  0  0
 41 39  1  0  0  0  0
 42 41  1  0  0  0  0
 43 44  1  0  0  0  0
 43 41  2  0  0  0  0
 44 37  2  0  0  0  0
M  END
>  <minimizedAffinity>
-6.65168667

$$$$

 OpenBabel03252505133D

 44 47  0  0  1  0  0  0  0  0999 V2000
   39.4830   35.0640   40.2920 C   0  0  0  0  0  0  0  0  0  0  0  0
   38.5490   34.0180   40.4640 C   0  0  0  0  0  0  0  0  0  0  0  0
   39.0520   32.7160   40.6970 C   0  0  0  0  0  0  0  0  0  0  0  0
   40.4030   32.5410   40.7430 N   0  0  0  0  0  0  0  0  0  0  0  0
   41.2560   33.5570   40.5770 C   0  0  0  0  0  0  0  0  0  0  0  0
   40.8070   34.8260   40.3500 N   0  0  0  0  0  0  0  0  0  0  0  0
   39.1530   36.0840   40.1090 H   0  0  0  0  0  0  0  0  0  0  0  0
   37.4970   34.2270   40.4140 H   0  0  0  0  0  0  0  0  0  0  0  0
   42.7230   33.3120   40.6350 C   0  0  2  0  0  0  0  0  0  0  0  0
   43.1320   33.0850   39.1960 C   0  0  0  0  0  0  0  0  0  0  0  0
   43.4280   31.6950   38.8180 C   0  0  0  0  0  0  0  0  0  0  0  0
   44.5030   31.2260   39.7970 C   0  0  0  0  0  0  0  0  0  0  0  0
   43.9910   31.1480   41.1630 C   0  0  0  0  0  0  0  0  0  0  0  0
   43.0750   32.2550   41.5390 C   0  0  0  0  0  0  0  0  0  0  0  0
   43.1560   34.2800   40.9870 H   0  0  0  0  0  0  0  0  0  0  0  0
   42.3970   33.4820   38.4620 H   0  0  0  0  0  0  0  0  0  0  0  0
   44.0510   33.6900   39.0140 H   0  0  0  0  0  0  0  0  0  0  0  0
   43.8530   31.6850   37.8160 H   0  0  0  0  0  0  0  0  0  0  0  0
   42.5650   31.0270   38.9700 H   0  0  0  0  0  0  0  0  0  0  0  0
   44.7240   30.1890   39.4960 H   0  0  0  0  0  0  0  0  0  0  0  0
   45.4150   31.8490   39.7260 H   0  0  0  0  0  0  0  0  0  0  0  0
   44.1130   30.4800   41.9790 H   0  0  0  0  0  0  0  0  0  0  0  0
   42.5040   32.2970   42.8450 N   0  0  0  0  0  0  0  0  0  0  0  0
   41.7660   31.5940   43.0890 H   0  0  0  0  0  0  0  0  0  0  0  0
   42.8760   33.0480   43.4760 H   0  0  0  0  0  0  0  0  0  0  0  0
   38.1190   31.6190   40.8800 C   0  0  0  0  0  0  0  0  0  0  0  0
   36.9340   31.6730   40.1950 C   0  0  0  0  0  0  0  0  0  0  0  0
   36.0750   30.5700   40.4210 C   0  0  0  0  0  0  0  0  0  0  0  0
   36.5180   29.5860   41.2860 C   0  0  0  0  0  0  0  0  0  0  0  0
   37.6900   29.5360   41.9610 C   0  0  0  0  0  0  0  0  0  0  0  0
   38.4980   30.6220   41.7180 N   0  0  0  0  0  0  0  0  0  0  0  0
   36.7250   32.5050   39.5540 H   0  0  0  0  0  0  0  0  0  0  0  0
   35.1470   30.6330   39.8720 H   0  0  0  0  0  0  0  0  0  0  0  0
   35.7260   28.8580   41.3120 H   0  0  0  0  0  0  0  0  0  0  0  0
   38.0590   28.5370   42.7830 O   0  0  0  0  0  0  0  0  0  0  0  0
   40.4090   27.8840   43.7350 F   0  0  0  0  0  0  0  0  0  0  0  0
   39.4640   27.0380   43.2210 C   0  0  0  0  0  0  0  0  0  0  0  0
   38.1680   27.2390   42.6760 C   0  0  0  0  0  0  0  0  0  0  0  0
   37.5830   26.0740   42.2810 C   0  0  0  0  0  0  0  0  0  0  0  0
   36.6100   26.2540   41.8770 H   0  0  0  0  0  0  0  0  0  0  0  0
   38.0760   24.7950   42.3460 C   0  0  0  0  0  0  0  0  0  0  0  0
   37.4320   24.0150   41.9710 H   0  0  0  0  0  0  0  0  0  0  0  0
   39.3280   24.6610   42.8790 C   0  0  0  0  0  3  0  0  0  0  0  0
   40.0620   25.7640   43.3320 C   0  0  0  0  0  3  0  0  0  0  0  0
  1  6  2  0  0  0  0
  1  2  1  0  0  0  0
  2  3  2  0  0  0  0
  3  4  1  0  0  0  0
  3 26  1  0  0  0  0
  5  9  1  0  0  0  0
  5  4  2  0  0  0  0
  6  5  1  0  0  0  0
  7  1  1  0  0  0  0
  8  2  1  0  0  0  0
  9 15  1  1  0  0  0
  9 14  1  0  0  0  0
 10  9  1  0  0  0  0
 11 19  1  0  0  0  0
 11 10  1  0  0  0  0
 11 12  1  0  0  0  0
 12 13  1  0  0  0  0
 13 14  2  0  0  0  0
 13 22  1  0  0  0  0
 14 23  1  0  0  0  0
 16 10  1  0  0  0  0
 17 10  1  0  0  0  0
 18 11  1  0  0  0  0
 20 12  1  0  0  0  0
 21 12  1  0  0  0  0
 23 24  1  0  0  0  0
 23 25  1  0  0  0  0
 26 31  1  0  0  0  0
 27 28  1  0  0  0  0
 27 26  2  0  0  0  0
 28 29  2  0  0  0  0
 29 34  1  0  0  0  0
 29 30  1  0  0  0  0
 30 35  1  0  0  0  0
 31 30  2  0  0  0  0
 32 27  1  0  0  0  0
 33 28  1  0  0  0  0
 37 44  1  0  0  0  0
 37 36  1  0  0  0  0
 38 35  1  0  0  0  0
 38 37  2  0  0  0  0
 39 41  2  0  0  0  0
 39 38  1  0  0  0  0
 40 39  1  0  0  0  0
 41 43  1  0  0  0  0
 42 41  1  0  0  0  0
 43 44  2  0  0  0  0
M  END
>  <minimizedAffinity>
-6.61505651

$$$$

 OpenBabel03252505133D

 44 47  0  0  1  0  0  0  0  0999 V2000
   41.3740   34.0810   40.1310 C   0  0  0  0  0  0  0  0  0  0  0  0
   41.9230   33.0810   40.9650 C   0  0  0  0  0  0  0  0  0  0  0  0
   41.1930   31.8790   41.1200 C   0  0  0  0  0  0  0  0  0  0  0  0
   40.0070   31.7500   40.4610 N   0  0  0  0  0  0  0  0  0  0  0  0
   39.5200   32.7190   39.6800 C   0  0  0  0  0  0  0  0  0  0  0  0
   40.1960   33.8930   39.5070 N   0  0  0  0  0  0  0  0  0  0  0  0
   41.8910   35.0250   39.9760 H   0  0  0  0  0  0  0  0  0  0  0  0
   42.8630   33.2500   41.4540 H   0  0  0  0  0  0  0  0  0  0  0  0
   38.2180   32.5290   38.9840 C   0  0  2  0  0  0  0  0  0  0  0  0
   37.3220   31.8790   40.0160 C   0  0  0  0  0  0  0  0  0  0  0  0
   37.0520   30.4460   39.8290 C   0  0  0  0  0  0  0  0  0  0  0  0
   36.4830   30.3180   38.4180 C   0  0  0  0  0  0  0  0  0  0  0  0
   37.4780   30.6520   37.4030 C   0  0  0  0  0  0  0  0  0  0  0  0
   38.3470   31.8060   37.7520 C   0  0  0  0  0  0  0  0  0  0  0  0
   37.8520   33.5650   38.7860 H   0  0  0  0  0  0  0  0  0  0  0  0
   37.6790   32.0200   41.0590 H   0  0  0  0  0  0  0  0  0  0  0  0
   36.3440   32.4160   39.9890 H   0  0  0  0  0  0  0  0  0  0  0  0
   36.2830   30.1370   40.5360 H   0  0  0  0  0  0  0  0  0  0  0  0
   37.9740   29.8420   39.8430 H   0  0  0  0  0  0  0  0  0  0  0  0
   36.2740   29.2420   38.2960 H   0  0  0  0  0  0  0  0  0  0  0  0
   35.5520   30.9050   38.3020 H   0  0  0  0  0  0  0  0  0  0  0  0
   37.7450   30.2680   36.4490 H   0  0  0  0  0  0  0  0  0  0  0  0
   39.3620   32.2350   36.8470 N   0  0  0  0  0  0  0  0  0  0  0  0
   40.2060   31.6280   36.7200 H   0  0  0  0  0  0  0  0  0  0  0  0
   39.1790   33.1490   36.3650 H   0  0  0  0  0  0  0  0  0  0  0  0
   41.7300   30.8300   41.9670 C   0  0  0  0  0  0  0  0  0  0  0  0
   43.0130   30.9770   42.4230 C   0  0  0  0  0  0  0  0  0  0  0  0
   43.4700   29.9170   43.2440 C   0  0  0  0  0  0  0  0  0  0  0  0
   42.5900   28.8770   43.4880 C   0  0  0  0  0  0  0  0  0  0  0  0
   41.3220   28.7360   43.0360 C   0  0  0  0  0  0  0  0  0  0  0  0
   40.9130   29.7820   42.2420 N   0  0  0  0  0  0  0  0  0  0  0  0
   43.5810   31.8430   42.1500 H   0  0  0  0  0  0  0  0  0  0  0  0
   44.4830   30.0520   43.5920 H   0  0  0  0  0  0  0  0  0  0  0  0
   43.1300   28.1950   44.1200 H   0  0  0  0  0  0  0  0  0  0  0  0
   40.5170   27.6960   43.3230 O   0  0  0  0  0  0  0  0  0  0  0  0
   40.2190   25.5870   41.8010 F   0  0  0  0  0  0  0  0  0  0  0  0
   39.2290   26.3180   42.4010 C   0  0  0  0  0  0  0  0  0  0  0  0
   39.2350   27.4640   43.2390 C   0  0  0  0  0  0  0  0  0  0  0  0
   37.9790   27.8480   43.6020 C   0  0  0  0  0  0  0  0  0  0  0  0
   38.0130   28.7120   44.2320 H   0  0  0  0  0  0  0  0  0  0  0  0
   36.7730   27.2840   43.2710 C   0  0  0  0  0  0  0  0  0  0  0  0
   35.8950   27.7600   43.6770 H   0  0  0  0  0  0  0  0  0  0  0  0
   36.8280   26.1840   42.4620 C   0  0  0  0  0  3  0  0  0  0  0  0
   38.0430   25.6630   42.0010 C   0  0  0  0  0  3  0  0  0  0  0  0
  1  2  1  0  0  0  0
  2  3  2  0  0  0  0
  2  8  1  0  0  0  0
  3 26  1  0  0  0  0
  4  3  1  0  0  0  0
  5  4  2  0  0  0  0
  6  5  1  0  0  0  0
  6  1  2  0  0  0  0
  7  1  1  0  0  0  0
  9 15  1  6  0  0  0
  9  5  1  0  0  0  0
  9 10  1  0  0  0  0
 10 16  1  0  0  0  0
 11 19  1  0  0  0  0
 11 10  1  0  0  0  0
 11 18  1  0  0  0  0
 12 11  1  0  0  0  0
 13 14  2  0  0  0  0
 13 12  1  0  0  0  0
 14  9  1  0  0  0  0
 17 10  1  0  0  0  0
 20 12  1  0  0  0  0
 21 12  1  0  0  0  0
 22 13  1  0  0  0  0
 23 14  1  0  0  0  0
 24 23  1  0  0  0  0
 25 23  1  0  0  0  0
 26 31  2  0  0  0  0
 26 27  1  0  0  0  0
 27 28  2  0  0  0  0
 28 29  1  0  0  0  0
 28 33  1  0  0  0  0
 29 34  1  0  0  0  0
 30 35  1  0  0  0  0
 30 29  2  0  0  0  0
 31 30  1  0  0  0  0
 32 27  1  0  0  0  0
 36 37  1  0  0  0  0
 37 38  1  0  0  0  0
 38 35  1  0  0  0  0
 38 39  2  0  0  0  0
 39 40  1  0  0  0  0
 41 39  1  0  0  0  0
 41 42  1  0  0  0  0
 43 41  2  0  0  0  0
 44 37  2  0  0  0  0
 44 43  1  0  0  0  0
M  END
>  <minimizedAffinity>
-6.5929842

$$$$

 OpenBabel03252505133D

 44 47  0  0  1  0  0  0  0  0999 V2000
   35.2920   29.5610   40.2600 C   0  0  0  0  0  0  0  0  0  0  0  0
   36.1590   30.6660   40.1030 C   0  0  0  0  0  0  0  0  0  0  0  0
   37.3810   30.6510   40.8150 C   0  0  0  0  0  0  0  0  0  0  0  0
   37.6570   29.5790   41.6090 N   0  0  0  0  0  0  0  0  0  0  0  0
   36.8120   28.5510   41.7320 C   0  0  0  0  0  0  0  0  0  0  0  0
   35.6230   28.5300   41.0600 N   0  0  0  0  0  0  0  0  0  0  0  0
   34.3390   29.5200   39.7370 H   0  0  0  0  0  0  0  0  0  0  0  0
   35.8780   31.4780   39.4600 H   0  0  0  0  0  0  0  0  0  0  0  0
   37.1590   27.4040   42.6140 C   0  0  2  0  0  0  0  0  0  0  0  0
   38.1220   27.9790   43.6310 C   0  0  0  0  0  0  0  0  0  0  0  0
   39.5370   27.6190   43.4590 C   0  0  0  0  0  0  0  0  0  0  0  0
   39.5700   26.0920   43.4420 C   0  0  0  0  0  0  0  0  0  0  0  0
   38.8960   25.5510   42.2650 C   0  0  0  0  0  0  0  0  0  0  0  0
   37.6530   26.2710   41.8850 C   0  0  0  0  0  0  0  0  0  0  0  0
   36.2020   27.1440   43.1270 H   0  0  0  0  0  0  0  0  0  0  0  0
   38.0650   29.0860   43.7120 H   0  0  0  0  0  0  0  0  0  0  0  0
   37.7970   27.6160   44.6350 H   0  0  0  0  0  0  0  0  0  0  0  0
   40.0950   27.9620   44.3280 H   0  0  0  0  0  0  0  0  0  0  0  0
   39.9360   27.9440   42.4850 H   0  0  0  0  0  0  0  0  0  0  0  0
   40.6360   25.8360   43.3250 H   0  0  0  0  0  0  0  0  0  0  0  0
   39.1750   25.6680   44.3840 H   0  0  0  0  0  0  0  0  0  0  0  0
   39.0740   24.7480   41.5930 H   0  0  0  0  0  0  0  0  0  0  0  0
   36.8980   25.8450   40.7530 N   0  0  0  0  0  0  0  0  0  0  0  0
   37.2950   26.0110   39.7980 H   0  0  0  0  0  0  0  0  0  0  0  0
   35.9800   25.3860   40.9700 H   0  0  0  0  0  0  0  0  0  0  0  0
   38.2960   31.7700   40.6740 C   0  0  0  0  0  0  0  0  0  0  0  0
   37.7780   32.9610   40.2390 C   0  0  0  0  0  0  0  0  0  0  0  0
   38.7270   34.0070   40.1260 C   0  0  0  0  0  0  0  0  0  0  0  0
   40.0370   33.7160   40.4600 C   0  0  0  0  0  0  0  0  0  0  0  0
   40.5450   32.5370   40.8920 C   0  0  0  0  0  0  0  0  0  0  0  0
   39.5960   31.5460   40.9870 N   0  0  0  0  0  0  0  0  0  0  0  0
   36.7340   33.0410   40.0150 H   0  0  0  0  0  0  0  0  0  0  0  0
   38.2990   34.9370   39.7810 H   0  0  0  0  0  0  0  0  0  0  0  0
   40.5770   34.6330   40.3060 H   0  0  0  0  0  0  0  0  0  0  0  0
   41.8350   32.3290   41.2090 O   0  0  0  0  0  0  0  0  0  0  0  0
   43.8820   33.9350   41.5010 F   0  0  0  0  0  0  0  0  0  0  0  0
   43.5380   32.8830   42.3070 C   0  0  0  0  0  0  0  0  0  0  0  0
   42.4770   31.9390   42.2780 C   0  0  0  0  0  0  0  0  0  0  0  0
   42.5420   31.0530   43.3110 C   0  0  0  0  0  0  0  0  0  0  0  0
   41.7330   30.3550   43.2650 H   0  0  0  0  0  0  0  0  0  0  0  0
   43.4640   30.9720   44.3230 C   0  0  0  0  0  0  0  0  0  0  0  0
   43.3170   30.1810   45.0410 H   0  0  0  0  0  0  0  0  0  0  0  0
   44.4620   31.9050   44.3000 C   0  0  0  0  0  3  0  0  0  0  0  0
   44.5370   32.8860   43.3040 C   0  0  0  0  0  3  0  0  0  0  0  0
  1  6  1  0  0  0  0
  2  1  2  0  0  0  0
  2  3  1  0  0  0  0
  3  4  2  0  0  0  0
  4  5  1  0  0  0  0
  5  9  1  0  0  0  0
  6  5  2  0  0  0  0
  7  1  1  0  0  0  0
  8  2  1  0  0  0  0
  9 15  1  1  0  0  0
  9 10  1  0  0  0  0
 10 16  1  0  0  0  0
 10 17  1  0  0  0  0
 11 10  1  0  0  0  0
 11 18  1  0  0  0  0
 12 11  1  0  0  0  0
 12 21  1  0  0  0  0
 13 12  1  0  0  0  0
 14 13  2  0  0  0  0
 14  9  1  0  0  0  0
 19 11  1  0  0  0  0
 20 12  1  0  0  0  0
 22 13  1  0  0  0  0
 23 25  1  0  0  0  0
 23 14  1  0  0  0  0
 24 23  1  0  0  0  0
 26  3  1  0  0  0  0
 26 31  1  0  0  0  0
 27 26  2  0  0  0  0
 28 27  1  0  0  0  0
 28 29  2  0  0  0  0
 29 30  1  0  0  0  0
 30 31  2  0  0  0  0
 30 35  1  0  0  0  0
 32 27  1  0  0  0  0
 33 28  1  0  0  0  0
 34 29  1  0  0  0  0
 35 38  1  0  0  0  0
 36 37  1  0  0  0  0
 37 44  1  0  0  0  0
 38 37  2  0  0  0  0
 38 39  1  0  0  0  0
 39 41  2  0  0  0  0
 40 39  1  0  0  0  0
 41 42  1  0  0  0  0
 43 41  1  0  0  0  0
 44 43  2  0  0  0  0
M  END
>  <minimizedAffinity>
-6.59148788

$$$$
