
 OpenBabel03252506373D

 44 47  0  0  1  0  0  0  0  0999 V2000
   44.4980   35.5560   45.1300 C   0  0  0  0  0  0  0  0  0  0  0  0
   45.1460   35.5460   43.8810 C   0  0  0  0  0  0  0  0  0  0  0  0
   46.0610   34.5850   43.6170 C   0  0  0  0  0  0  0  0  0  0  0  0
   46.3020   33.6730   44.5890 N   0  0  0  0  0  0  0  0  0  0  0  0
   45.6900   33.6850   45.7630 C   0  0  0  0  0  0  0  0  0  0  0  0
   44.7840   34.6220   46.0510 N   0  0  0  0  0  0  0  0  0  0  0  0
   46.0220   32.6720   46.7280 N   0  0  0  0  0  0  0  0  0  0  0  0
   45.2820   32.4280   47.9190 C   0  0  0  0  0  0  0  0  0  0  0  0
   46.3620   32.0550   48.9190 C   0  0  0  0  0  0  0  0  0  0  0  0
   47.6350   31.9650   48.1550 C   0  0  0  0  0  0  0  0  0  0  0  0
   47.1380   31.7570   46.7220 C   0  0  1  0  0  0  0  0  0  0  0  0
   43.7690   36.3410   45.3130 H   0  0  0  0  0  0  0  0  0  0  0  0
   46.5750   34.5510   42.6650 H   0  0  0  0  0  0  0  0  0  0  0  0
   44.3990   31.8690   47.9680 H   0  0  0  0  0  0  0  0  0  0  0  0
   44.9720   33.4610   48.2870 H   0  0  0  0  0  0  0  0  0  0  0  0
   46.3670   32.6360   49.8340 H   0  0  0  0  0  0  0  0  0  0  0  0
   46.1040   30.9990   49.2290 H   0  0  0  0  0  0  0  0  0  0  0  0
   48.2920   31.1380   48.4810 H   0  0  0  0  0  0  0  0  0  0  0  0
   48.1470   32.9430   48.2340 H   0  0  0  0  0  0  0  0  0  0  0  0
   47.9690   32.0480   46.0730 H   0  0  0  0  0  0  0  0  0  0  0  0
   44.7960   36.5760   42.9390 N   0  0  0  0  0  0  0  0  0  0  0  0
   44.6470   36.2710   41.9410 H   0  0  0  0  0  0  0  0  0  0  0  0
   44.6830   37.5730   43.1810 H   0  0  0  0  0  0  0  0  0  0  0  0
   46.6240   30.0650   46.5290 S   0  0  0  0  0  0  0  0  0  0  0  0
   45.7080   30.6340   43.3730 O   0  0  0  0  0  0  0  0  0  0  0  0
   45.0540   30.0570   44.2580 C   0  0  0  0  0  0  0  0  0  0  0  0
   45.1080   29.7830   45.7110 C   0  0  1  0  0  0  0  0  0  0  0  0
   44.5810   28.3710   45.7770 C   0  0  0  0  0  0  0  0  0  0  0  0
   43.2890   28.5940   44.9800 C   0  0  0  0  0  0  0  0  0  0  0  0
   43.8270   29.4000   43.8890 N   0  0  0  0  0  0  0  0  0  0  0  0
   44.2050   30.3600   46.0610 H   0  0  0  0  0  0  0  0  0  0  0  0
   44.3240   28.0330   46.7840 H   0  0  0  0  0  0  0  0  0  0  0  0
   45.2170   27.6540   45.2230 H   0  0  0  0  0  0  0  0  0  0  0  0
   42.9310   27.6290   44.5780 H   0  0  0  0  0  0  0  0  0  0  0  0
   42.5460   29.1310   45.5920 H   0  0  0  0  0  0  0  0  0  0  0  0
   44.2750   27.7620   41.6270 F   0  0  0  0  0  0  0  0  0  0  0  0
   43.3000   28.6820   41.5300 C   0  0  0  0  0  0  0  0  0  0  0  0
   43.1180   29.4480   42.6390 C   0  0  0  0  0  0  0  0  0  0  0  0
   42.1250   30.4360   42.6350 C   0  0  0  0  0  0  0  0  0  0  0  0
   41.9150   31.0960   43.4870 H   0  0  0  0  0  0  0  0  0  0  0  0
   41.3190   30.6510   41.5130 C   0  0  0  0  0  0  0  0  0  0  0  0
   40.5570   31.4200   41.5310 H   0  0  0  0  0  0  0  0  0  0  0  0
   41.5150   29.8560   40.3770 C   0  0  0  0  0  3  0  0  0  0  0  0
   42.5100   28.8970   40.4390 C   0  0  0  0  0  3  0  0  0  0  0  0
  1 12  1  0  0  0  0
  1  6  1  0  0  0  0
  2  1  2  0  0  0  0
  3  2  1  0  0  0  0
  3  4  2  0  0  0  0
  4  5  1  0  0  0  0
  5  6  2  0  0  0  0
  5  7  1  0  0  0  0
  7  8  1  0  0  0  0
  8 14  1  0  0  0  0
  8 15  1  0  0  0  0
  8  9  1  0  0  0  0
  9 17  1  0  0  0  0
  9 16  1  0  0  0  0
 10 19  1  0  0  0  0
 10 18  1  0  0  0  0
 10  9  1  0  0  0  0
 11 20  1  6  0  0  0
 11  7  1  0  0  0  0
 11 10  1  0  0  0  0
 13  3  1  0  0  0  0
 21 23  1  0  0  0  0
 21  2  1  0  0  0  0
 22 21  1  0  0  0  0
 24 11  1  0  0  0  0
 25 26  2  0  0  0  0
 26 27  1  0  0  0  0
 27 28  1  0  0  0  0
 27 31  1  1  0  0  0
 27 24  1  0  0  0  0
 28 32  1  0  0  0  0
 29 35  1  0  0  0  0
 29 28  1  0  0  0  0
 30 26  1  0  0  0  0
 30 29  1  0  0  0  0
 33 28  1  0  0  0  0
 34 29  1  0  0  0  0
 37 36  1  0  0  0  0
 37 38  1  0  0  0  0
 38 30  1  0  0  0  0
 39 38  2  0  0  0  0
 39 40  1  0  0  0  0
 41 42  1  0  0  0  0
 41 39  1  0  0  0  0
 43 44  1  0  0  0  0
 43 41  2  0  0  0  0
 44 37  2  0  0  0  0
M  END
>  <minimizedAffinity>
-5.33504105

>  <minimizedRMSD>
0.472778708

$$$$
