
 OpenBabel03252506373D

 44 47  0  0  1  0  0  0  0  0999 V2000
   44.4990   35.5550   45.1310 C   0  0  0  0  0  0  0  0  0  0  0  0
   45.1470   35.5440   43.8820 C   0  0  0  0  0  0  0  0  0  0  0  0
   46.0610   34.5840   43.6170 C   0  0  0  0  0  0  0  0  0  0  0  0
   46.3030   33.6710   44.5890 N   0  0  0  0  0  0  0  0  0  0  0  0
   45.6910   33.6840   45.7640 C   0  0  0  0  0  0  0  0  0  0  0  0
   44.7850   34.6210   46.0510 N   0  0  0  0  0  0  0  0  0  0  0  0
   46.0230   32.6710   46.7280 N   0  0  0  0  0  0  0  0  0  0  0  0
   45.2820   32.4270   47.9200 C   0  0  0  0  0  0  0  0  0  0  0  0
   46.3630   32.0540   48.9200 C   0  0  0  0  0  0  0  0  0  0  0  0
   47.6350   31.9640   48.1550 C   0  0  0  0  0  0  0  0  0  0  0  0
   47.1380   31.7550   46.7220 C   0  0  1  0  0  0  0  0  0  0  0  0
   43.7700   36.3400   45.3140 H   0  0  0  0  0  0  0  0  0  0  0  0
   46.5750   34.5490   42.6660 H   0  0  0  0  0  0  0  0  0  0  0  0
   44.3990   31.8680   47.9690 H   0  0  0  0  0  0  0  0  0  0  0  0
   44.9720   33.4600   48.2880 H   0  0  0  0  0  0  0  0  0  0  0  0
   46.3680   32.6350   49.8350 H   0  0  0  0  0  0  0  0  0  0  0  0
   46.1050   30.9980   49.2300 H   0  0  0  0  0  0  0  0  0  0  0  0
   48.2920   31.1370   48.4810 H   0  0  0  0  0  0  0  0  0  0  0  0
   48.1470   32.9420   48.2340 H   0  0  0  0  0  0  0  0  0  0  0  0
   47.9690   32.0470   46.0730 H   0  0  0  0  0  0  0  0  0  0  0  0
   44.7960   36.5750   42.9390 N   0  0  0  0  0  0  0  0  0  0  0  0
   44.6480   36.2690   41.9420 H   0  0  0  0  0  0  0  0  0  0  0  0
   44.6840   37.5720   43.1810 H   0  0  0  0  0  0  0  0  0  0  0  0
   46.6240   30.0640   46.5300 S   0  0  0  0  0  0  0  0  0  0  0  0
   45.7080   30.6320   43.3740 O   0  0  0  0  0  0  0  0  0  0  0  0
   45.0540   30.0550   44.2590 C   0  0  0  0  0  0  0  0  0  0  0  0
   45.1080   29.7820   45.7110 C   0  0  1  0  0  0  0  0  0  0  0  0
   44.5800   28.3700   45.7790 C   0  0  0  0  0  0  0  0  0  0  0  0
   43.2890   28.5940   44.9810 C   0  0  0  0  0  0  0  0  0  0  0  0
   43.8260   29.3990   43.8900 N   0  0  0  0  0  0  0  0  0  0  0  0
   44.2050   30.3590   46.0620 H   0  0  0  0  0  0  0  0  0  0  0  0
   44.3230   28.0320   46.7860 H   0  0  0  0  0  0  0  0  0  0  0  0
   45.2160   27.6530   45.2240 H   0  0  0  0  0  0  0  0  0  0  0  0
   42.9300   27.6290   44.5790 H   0  0  0  0  0  0  0  0  0  0  0  0
   42.5460   29.1310   45.5930 H   0  0  0  0  0  0  0  0  0  0  0  0
   44.2720   27.7580   41.6310 F   0  0  0  0  0  0  0  0  0  0  0  0
   43.2990   28.6790   41.5320 C   0  0  0  0  0  0  0  0  0  0  0  0
   43.1170   29.4470   42.6400 C   0  0  0  0  0  0  0  0  0  0  0  0
   42.1260   30.4340   42.6350 C   0  0  0  0  0  0  0  0  0  0  0  0
   41.9150   31.0960   43.4870 H   0  0  0  0  0  0  0  0  0  0  0  0
   41.3190   30.6490   41.5130 C   0  0  0  0  0  0  0  0  0  0  0  0
   40.5590   31.4190   41.5300 H   0  0  0  0  0  0  0  0  0  0  0  0
   41.5150   29.8540   40.3770 C   0  0  0  0  0  3  0  0  0  0  0  0
   42.5090   28.8930   40.4410 C   0  0  0  0  0  3  0  0  0  0  0  0
  1 12  1  0  0  0  0
  1  6  1  0  0  0  0
  2  1  2  0  0  0  0
  3  2  1  0  0  0  0
  3  4  2  0  0  0  0
  4  5  1  0  0  0  0
  5  6  2  0  0  0  0
  5  7  1  0  0  0  0
  7  8  1  0  0  0  0
  8 14  1  0  0  0  0
  8 15  1  0  0  0  0
  8  9  1  0  0  0  0
  9 17  1  0  0  0  0
  9 16  1  0  0  0  0
 10 19  1  0  0  0  0
 10 18  1  0  0  0  0
 10  9  1  0  0  0  0
 11 20  1  6  0  0  0
 11  7  1  0  0  0  0
 11 10  1  0  0  0  0
 13  3  1  0  0  0  0
 21 23  1  0  0  0  0
 21  2  1  0  0  0  0
 22 21  1  0  0  0  0
 24 11  1  0  0  0  0
 25 26  2  0  0  0  0
 26 27  1  0  0  0  0
 27 28  1  0  0  0  0
 27 31  1  1  0  0  0
 27 24  1  0  0  0  0
 28 32  1  0  0  0  0
 29 35  1  0  0  0  0
 29 28  1  0  0  0  0
 30 26  1  0  0  0  0
 30 29  1  0  0  0  0
 33 28  1  0  0  0  0
 34 29  1  0  0  0  0
 37 36  1  0  0  0  0
 37 38  1  0  0  0  0
 38 30  1  0  0  0  0
 39 38  2  0  0  0  0
 39 40  1  0  0  0  0
 41 42  1  0  0  0  0
 41 39  1  0  0  0  0
 43 44  1  0  0  0  0
 43 41  2  0  0  0  0
 44 37  2  0  0  0  0
M  END
>  <minimizedAffinity>
-5.33222532

>  <minimizedRMSD>
0.770997703

$$$$
