
     RDKit          3D

 28 30  0  0  0  0  0  0  0  0999 V2000
   37.9440   32.4890   40.5290 C   0  0  0  0  0  0  0  0  0  0  0  0
   39.2630   32.9540   40.4930 C   0  0  0  0  0  0  0  0  0  0  0  0
   40.2260   32.0990   41.0410 C   0  0  0  0  0  0  0  0  0  0  0  0
   39.8280   30.9230   41.5530 N   0  0  0  0  0  0  0  0  0  0  0  0
   38.5700   30.4810   41.5880 C   0  0  0  0  0  0  0  0  0  0  0  0
   37.6830   31.3140   41.0600 N   0  0  0  0  0  0  0  0  0  0  0  0
   37.9970   29.2500   42.1020 C   0  0  0  0  0  0  0  0  0  0  0  0
   37.6550   29.0850   43.4500 C   0  0  0  0  0  0  0  0  0  0  0  0
   37.1150   27.9380   43.9680 C   0  0  0  0  0  0  0  0  0  0  0  0
   36.8770   26.8690   43.1670 C   0  0  0  0  0  0  0  0  0  0  0  0
   37.1880   26.9560   41.8280 C   0  0  0  0  0  0  0  0  0  0  0  0
   36.9330   25.8550   41.0530 C   0  0  0  0  0  0  0  0  0  0  0  0
   37.2230   25.8810   39.7060 C   0  0  0  0  0  0  0  0  0  0  0  0
   37.7740   27.0540   39.1860 C   0  0  0  0  0  0  0  0  0  0  0  0
   38.0030   28.1210   40.0240 C   0  0  0  0  0  0  0  0  0  0  0  0
   37.7280   28.1330   41.3680 C   0  0  0  0  0  0  0  0  0  0  0  0
   36.8910   33.2980   39.9890 N   0  0  0  0  0  0  0  0  0  0  0  0
   39.5267   33.9306   40.0610 H   0  0  0  0  0  0  0  0  0  0  0  0
   41.2882   32.3847   41.0521 H   0  0  0  0  0  0  0  0  0  0  0  0
   37.8308   29.9280   44.1344 H   0  0  0  0  0  0  0  0  0  0  0  0
   36.8728   27.8830   45.0396 H   0  0  0  0  0  0  0  0  0  0  0  0
   36.4424   25.9470   43.5806 H   0  0  0  0  0  0  0  0  0  0  0  0
   36.4975   24.9518   41.5054 H   0  0  0  0  0  0  0  0  0  0  0  0
   37.0276   25.0095   39.0639 H   0  0  0  0  0  0  0  0  0  0  0  0
   38.0226   27.1243   38.1168 H   0  0  0  0  0  0  0  0  0  0  0  0
   38.4382   29.0306   39.5843 H   0  0  0  0  0  0  0  0  0  0  0  0
   37.1074   34.2163   39.5757 H   0  0  0  0  0  0  0  0  0  0  0  0
   35.9180   32.9610   40.0142 H   0  0  0  0  0  0  0  0  0  0  0  0
  1  6  2  0
  2  1  1  0
  2  3  2  0
  3  4  1  0
  4  5  2  0
  5  7  1  0
  6  5  1  0
  7  8  2  0
  8  9  1  0
 10  9  2  0
 11 10  1  0
 12 11  2  0
 13 12  1  0
 14 13  2  0
 14 15  1  0
 15 16  2  0
 16 11  1  0
 16  7  1  0
 17  1  1  0
  2 18  1  0
  3 19  1  0
  8 20  1  0
  9 21  1  0
 10 22  1  0
 12 23  1  0
 13 24  1  0
 14 25  1  0
 15 26  1  0
 17 27  1  0
 17 28  1  0
M  ISO  8  18  14  19  14  20  14  21  14  22  14  23  14  24  14  25  14
M  ISO  1  26  14
M  END
>  <minimizedAffinity>  (1) 
-5.60211992

>  <minimizedRMSD>  (1) 
3.86822915

$$$$
