
     RDKit          3D

 22 23  0  0  0  0  0  0  0  0999 V2000
   37.1990   32.5530   39.3810 C   0  0  0  0  0  0  0  0  0  0  0  0
   37.4100   32.0620   38.0820 C   0  0  0  0  0  0  0  0  0  0  0  0
   37.5580   30.6570   37.9350 C   0  0  0  0  0  0  0  0  0  0  0  0
   37.4860   29.8790   39.0660 N   0  0  0  0  0  0  0  0  0  0  0  0
   37.2830   30.4130   40.2860 C   0  0  0  0  0  0  0  0  0  0  0  0
   37.1430   31.7360   40.4240 N   0  0  0  0  0  0  0  0  0  0  0  0
   37.2240   29.4900   41.4150 C   0  0  0  0  0  0  0  0  0  0  0  0
   36.3470   28.4260   41.4680 C   0  0  0  0  0  0  0  0  0  0  0  0
   36.3400   27.5890   42.5650 C   0  0  0  0  0  0  0  0  0  0  0  0
   37.1980   27.7790   43.6400 C   0  0  0  0  0  0  0  0  0  0  0  0
   38.0830   28.8550   43.5830 C   0  0  0  0  0  0  0  0  0  0  0  0
   38.0910   29.7060   42.4710 C   0  0  0  0  0  0  0  0  0  0  0  0
   37.0490   33.9670   39.5400 N   0  0  0  0  0  0  0  0  0  0  0  0
   37.4586   32.7372   37.2150 H   0  0  0  0  0  0  0  0  0  0  0  0
   37.7252   30.2052   36.9461 H   0  0  0  0  0  0  0  0  0  0  0  0
   35.6524   28.2448   40.6345 H   0  0  0  0  0  0  0  0  0  0  0  0
   35.6336   26.7461   42.5886 H   0  0  0  0  0  0  0  0  0  0  0  0
   37.1802   27.1032   44.5077 H   0  0  0  0  0  0  0  0  0  0  0  0
   38.7784   29.0363   44.4158 H   0  0  0  0  0  0  0  0  0  0  0  0
   38.7922   30.5529   42.4369 H   0  0  0  0  0  0  0  0  0  0  0  0
   37.0955   34.5855   38.7177 H   0  0  0  0  0  0  0  0  0  0  0  0
   36.8945   34.3664   40.4768 H   0  0  0  0  0  0  0  0  0  0  0  0
  1 13  1  0
  1  6  2  0
  2  1  1  0
  3  2  2  0
  3  4  1  0
  4  5  2  0
  5  6  1  0
  5  7  1  0
  7  8  2  0
  7 12  1  0
  8  9  1  0
  9 10  2  0
 11 10  1  0
 12 11  2  0
  2 14  1  0
  3 15  1  0
  8 16  1  0
  9 17  1  0
 10 18  1  0
 11 19  1  0
 12 20  1  0
 13 21  1  0
 13 22  1  0
M  ISO  7  14  14  15  14  16  14  17  14  18  14  19  14  20  14
M  END
>  <minimizedAffinity>  (1) 
-4.87174606

>  <minimizedRMSD>  (1) 
4.5328064

$$$$
