
     RDKit          3D

 21 22  0  0  0  0  0  0  0  0999 V2000
   37.8810   33.0410   40.1700 C   0  0  0  0  0  0  0  0  0  0  0  0
   39.2450   33.3770   40.2490 C   0  0  0  0  0  0  0  0  0  0  0  0
   40.1120   32.4880   40.9170 C   0  0  0  0  0  0  0  0  0  0  0  0
   39.5790   31.3410   41.4560 N   0  0  0  0  0  0  0  0  0  0  0  0
   38.2630   31.0630   41.3520 C   0  0  0  0  0  0  0  0  0  0  0  0
   37.4300   31.9090   40.7160 N   0  0  0  0  0  0  0  0  0  0  0  0
   37.7660   29.8170   41.9530 C   0  0  0  0  0  0  0  0  0  0  0  0
   38.3480   29.3660   43.1200 C   0  0  0  0  0  0  0  0  0  0  0  0
   37.7870   28.1800   43.5850 C   0  0  0  0  0  0  0  0  0  0  0  0
   36.7580   27.4990   42.9670 C   0  0  0  0  0  0  0  0  0  0  0  0
   36.2470   28.0360   41.8040 C   0  0  0  0  0  0  0  0  0  0  0  0
   36.7600   29.1830   41.3200 N   0  0  0  0  0  0  0  0  0  0  0  0
   37.0030   33.9250   39.5030 N   0  0  0  0  0  0  0  0  0  0  0  0
   39.6246   34.3076   39.8019 H   0  0  0  0  0  0  0  0  0  0  0  0
   41.1865   32.7064   41.0046 H   0  0  0  0  0  0  0  0  0  0  0  0
   39.1701   29.8895   43.6300 H   0  0  0  0  0  0  0  0  0  0  0  0
   38.1940   27.7540   44.5139 H   0  0  0  0  0  0  0  0  0  0  0  0
   36.3603   26.5630   43.3863 H   0  0  0  0  0  0  0  0  0  0  0  0
   35.4256   27.5305   41.2752 H   0  0  0  0  0  0  0  0  0  0  0  0
   36.0004   33.6996   39.4328 H   0  0  0  0  0  0  0  0  0  0  0  0
   37.3657   34.7947   39.0870 H   0  0  0  0  0  0  0  0  0  0  0  0
  1  2  2  0
  1  6  1  0
  2  3  1  0
  3  4  2  0
  5  4  1  0
  5  7  1  0
  6  5  2  0
  7  8  2  0
  8  9  1  0
 10  9  2  0
 11 10  1  0
 12 11  2  0
 12  7  1  0
 13  1  1  0
  2 14  1  0
  3 15  1  0
  8 16  1  0
  9 17  1  0
 10 18  1  0
 11 19  1  0
 13 20  1  0
 13 21  1  0
M  ISO  6  14  14  15  14  16  14  17  14  18  14  19  14
M  END
>  <minimizedAffinity>  (1) 
-4.71947002

>  <minimizedRMSD>  (1) 
4.37425661

$$$$
