
     RDKit          3D

 19 20  0  0  0  0  0  0  0  0999 V2000
   37.6370   32.1780   40.1900 C   0  0  0  0  0  0  0  0  0  0  0  0
   38.8780   32.0440   39.5010 C   0  0  0  0  0  0  0  0  0  0  0  0
   39.6150   30.8620   39.7250 C   0  0  0  0  0  0  0  0  0  0  0  0
   39.1130   29.9270   40.5720 N   0  0  0  0  0  0  0  0  0  0  0  0
   37.9320   30.1000   41.2040 C   0  0  0  0  0  0  0  0  0  0  0  0
   37.2090   31.2210   41.0050 N   0  0  0  0  0  0  0  0  0  0  0  0
   37.4380   29.0960   42.0850 N   0  0  0  0  0  0  0  0  0  0  0  0
   36.5390   28.1180   41.9600 N   0  0  0  0  0  0  0  0  0  0  0  0
   36.4450   27.4400   43.1220 C   0  0  0  0  0  0  0  0  0  0  0  0
   37.3320   28.0270   44.0130 C   0  0  0  0  0  0  0  0  0  0  0  0
   37.9520   29.0740   43.3380 C   0  0  0  0  0  0  0  0  0  0  0  0
   36.8860   33.3580   39.9760 N   0  0  0  0  0  0  0  0  0  0  0  0
   39.2453   32.8289   38.8235 H   0  0  0  0  0  0  0  0  0  0  0  0
   40.5799   30.7006   39.2220 H   0  0  0  0  0  0  0  0  0  0  0  0
   35.7877   26.5817   43.3255 H   0  0  0  0  0  0  0  0  0  0  0  0
   37.5110   27.7226   45.0548 H   0  0  0  0  0  0  0  0  0  0  0  0
   38.7146   29.7545   43.7447 H   0  0  0  0  0  0  0  0  0  0  0  0
   37.2403   34.0854   39.3386 H   0  0  0  0  0  0  0  0  0  0  0  0
   35.9851   33.4895   40.4576 H   0  0  0  0  0  0  0  0  0  0  0  0
  1  6  2  0
  2  3  2  0
  2  1  1  0
  3  4  1  0
  4  5  2  0
  5  7  1  0
  6  5  1  0
  7 11  1  0
  8  7  1  0
  8  9  2  0
  9 10  1  0
 11 10  2  0
 12  1  1  0
  2 13  1  0
  3 14  1  0
  9 15  1  0
 10 16  1  0
 11 17  1  0
 12 18  1  0
 12 19  1  0
M  ISO  5  13  14  14  14  15  14  16  14  17  14
M  END
>  <minimizedAffinity>  (1) 
-4.43975163

>  <minimizedRMSD>  (1) 
3.71690035

$$$$
