
     RDKit          3D

 24 25  0  0  0  0  0  0  0  0999 V2000
   37.6550   32.2520   40.2290 C   0  0  0  0  0  0  0  0  0  0  0  0
   38.9550   32.1710   39.6780 C   0  0  0  0  0  0  0  0  0  0  0  0
   39.7200   31.0220   40.0130 C   0  0  0  0  0  0  0  0  0  0  0  0
   39.1680   30.0850   40.8320 N   0  0  0  0  0  0  0  0  0  0  0  0
   37.9230   30.2230   41.3260 C   0  0  0  0  0  0  0  0  0  0  0  0
   37.1720   31.2880   41.0330 N   0  0  0  0  0  0  0  0  0  0  0  0
   37.4270   29.2080   42.1650 N   0  0  0  0  0  0  0  0  0  0  0  0
   36.4490   28.1810   41.8520 C   0  0  0  0  0  0  0  0  0  0  0  0
   36.9750   26.9150   42.5300 C   0  0  0  0  0  0  0  0  0  0  0  0
   38.0770   27.4300   43.4590 C   0  0  0  0  0  0  0  0  0  0  0  0
   37.7310   28.8960   43.5480 C   0  0  0  0  0  0  0  0  0  0  0  0
   36.8680   33.3930   39.9080 N   0  0  0  0  0  0  0  0  0  0  0  0
   39.3540   32.9590   39.0223 H   0  0  0  0  0  0  0  0  0  0  0  0
   40.7385   30.8918   39.6184 H   0  0  0  0  0  0  0  0  0  0  0  0
   35.4613   28.4525   42.2528 H   0  0  0  0  0  0  0  0  0  0  0  0
   36.3225   28.0472   40.7675 H   0  0  0  0  0  0  0  0  0  0  0  0
   36.1790   26.4181   43.1040 H   0  0  0  0  0  0  0  0  0  0  0  0
   37.3399   26.1671   41.8106 H   0  0  0  0  0  0  0  0  0  0  0  0
   38.0308   26.9452   44.4453 H   0  0  0  0  0  0  0  0  0  0  0  0
   39.0974   27.2300   43.1001 H   0  0  0  0  0  0  0  0  0  0  0  0
   38.5824   29.4878   43.9153 H   0  0  0  0  0  0  0  0  0  0  0  0
   36.9128   29.1211   44.2479 H   0  0  0  0  0  0  0  0  0  0  0  0
   37.2491   34.1245   39.2911 H   0  0  0  0  0  0  0  0  0  0  0  0
   35.9171   33.4875   40.2925 H   0  0  0  0  0  0  0  0  0  0  0  0
  1  6  2  0
  2  3  2  0
  2  1  1  0
  3  4  1  0
  4  5  2  0
  5  7  1  0
  6  5  1  0
  7 11  1  0
  8  7  1  0
  8  9  1  0
  9 10  1  0
 10 11  1  0
 12  1  1  0
  2 13  1  0
  3 14  1  0
  8 15  1  0
  8 16  1  0
  9 17  1  0
  9 18  1  0
 10 19  1  0
 10 20  1  0
 11 21  1  0
 11 22  1  0
 12 23  1  0
 12 24  1  0
M  ISO  8  13  14  14  14  15  13  16  13  17  13  18  13  19  13  20  13
M  ISO  2  21  13  22  13
M  END
>  <minimizedAffinity>  (1) 
-4.4336462

>  <minimizedRMSD>  (1) 
3.63927364

$$$$
