
     RDKit          3D

 17 18  0  0  0  0  0  0  0  0999 V2000
   37.7380   32.7260   40.3390 C   0  0  0  0  0  0  0  0  0  0  0  0
   39.1170   32.9960   40.4130 C   0  0  0  0  0  0  0  0  0  0  0  0
   39.9280   32.0600   41.0830 C   0  0  0  0  0  0  0  0  0  0  0  0
   39.3540   30.9470   41.6220 N   0  0  0  0  0  0  0  0  0  0  0  0
   38.0140   30.7310   41.5230 C   0  0  0  0  0  0  0  0  0  0  0  0
   37.2360   31.6210   40.8860 N   0  0  0  0  0  0  0  0  0  0  0  0
   37.4770   29.5040   42.1340 C   0  0  0  0  0  0  0  0  0  0  0  0
   36.5390   28.6210   41.7360 N   0  0  0  0  0  0  0  0  0  0  0  0
   36.4330   27.7080   42.6370 O   0  0  0  0  0  0  0  0  0  0  0  0
   37.2640   27.9390   43.6280 C   0  0  0  0  0  0  0  0  0  0  0  0
   37.9290   29.0710   43.3230 N   0  0  0  0  0  0  0  0  0  0  0  0
   36.9080   33.6540   39.6710 N   0  0  0  0  0  0  0  0  0  0  0  0
   39.5454   33.9043   39.9642 H   0  0  0  0  0  0  0  0  0  0  0  0
   41.0120   32.2249   41.1705 H   0  0  0  0  0  0  0  0  0  0  0  0
   37.3924   27.3264   44.5326 H   0  0  0  0  0  0  0  0  0  0  0  0
   35.8948   33.4820   39.6016 H   0  0  0  0  0  0  0  0  0  0  0  0
   37.3161   34.5025   39.2535 H   0  0  0  0  0  0  0  0  0  0  0  0
  1  2  2  0
  1  6  1  0
  2  3  1  0
  3  4  2  0
  5  4  1  0
  5  7  1  0
  6  5  2  0
  7 11  1  0
  8  7  2  0
  8  9  1  0
  9 10  1  0
 11 10  2  0
 12  1  1  0
  2 13  1  0
  3 14  1  0
 10 15  1  0
 12 16  1  0
 12 17  1  0
M  ISO  3  13  14  14  14  15  14
M  END
>  <minimizedAffinity>  (1) 
-4.09450674

>  <minimizedRMSD>  (1) 
3.98448873

$$$$
