
     RDKit          3D

 40 43  0  0  1  0  0  0  0  0999 V2000
   37.8490   30.0150   39.0860 C   0  0  1  0  0  0  0  0  0  0  0  0
   36.9290   30.2990   37.8910 C   0  0  0  0  0  0  0  0  0  0  0  0
   35.6130   29.7290   38.3890 C   0  0  0  0  0  0  0  0  0  0  0  0
   35.9680   28.7050   39.4230 C   0  0  0  0  0  0  0  0  0  0  0  0
   37.4790   28.5990   39.4080 C   0  0  2  0  0  0  0  0  0  0  0  0
   40.5440   34.7070   39.5860 C   0  0  0  0  0  0  0  0  0  0  0  0
   39.4120   35.0820   40.3300 C   0  0  0  0  0  0  0  0  0  0  0  0
   38.4750   34.0960   40.5860 C   0  0  0  0  0  0  0  0  0  0  0  0
   38.7070   32.8470   40.1070 N   0  0  0  0  0  0  0  0  0  0  0  0
   39.7760   32.5030   39.4060 C   0  0  0  0  0  0  0  0  0  0  0  0
   40.7150   33.4460   39.1380 N   0  0  0  0  0  0  0  0  0  0  0  0
   40.0570   31.2120   38.8750 N   0  0  0  0  0  0  0  0  0  0  0  0
   41.2860   30.9900   38.4490 N   0  0  0  0  0  0  0  0  0  0  0  0
   41.3500   29.7180   37.9680 C   0  0  0  0  0  0  0  0  0  0  0  0
   40.0650   29.1810   38.1320 C   0  0  0  0  0  0  0  0  0  0  0  0
   39.2560   30.1530   38.7140 C   0  0  0  0  0  0  0  0  0  0  0  0
   38.0090   28.1020   40.6480 N   0  0  0  0  0  0  0  0  0  0  0  0
   37.8580   28.7880   41.8060 C   0  0  0  0  0  0  0  0  0  0  0  0
   38.3250   28.4070   43.0500 C   0  0  0  0  0  0  0  0  0  0  0  0
   39.0030   27.2230   43.1020 C   0  0  0  0  0  0  0  0  0  0  0  0
   39.4600   26.8120   44.2090 O   0  0  0  0  0  0  0  0  0  0  0  0
   39.1670   26.5200   41.9560 N   0  0  0  0  0  0  0  0  0  0  0  0
   38.6840   26.9490   40.7620 C   0  0  0  0  0  0  0  0  0  0  0  0
   38.8780   26.2400   39.7470 O   0  0  0  0  0  0  0  0  0  0  0  0
   37.7287   30.7049   39.9343 H   0  0  0  0  0  0  0  0  0  0  0  0
   37.2749   29.7813   36.9842 H   0  0  0  0  0  0  0  0  0  0  0  0
   36.8806   31.3589   37.6008 H   0  0  0  0  0  0  0  0  0  0  0  0
   34.9971   30.5239   38.8348 H   0  0  0  0  0  0  0  0  0  0  0  0
   35.0310   29.2855   37.5677 H   0  0  0  0  0  0  0  0  0  0  0  0
   35.6177   29.0267   40.4149 H   0  0  0  0  0  0  0  0  0  0  0  0
   35.4950   27.7356   39.2074 H   0  0  0  0  0  0  0  0  0  0  0  0
   37.8936   27.8725   38.6937 H   0  0  0  0  0  0  0  0  0  0  0  0
   41.3117   35.4626   39.3629 H   0  0  0  0  0  0  0  0  0  0  0  0
   39.2770   36.1118   40.6922 H   0  0  0  0  0  0  0  0  0  0  0  0
   37.5653   34.3187   41.1630 H   0  0  0  0  0  0  0  0  0  0  0  0
   42.2290   29.2149   37.5389 H   0  0  0  0  0  0  0  0  0  0  0  0
   39.7502   28.1657   37.8492 H   0  0  0  0  0  0  0  0  0  0  0  0
   37.3107   29.7406   41.7513 H   0  0  0  0  0  0  0  0  0  0  0  0
   38.1599   29.0224   43.9467 H   0  0  0  0  0  0  0  0  0  0  0  0
   39.6775   25.6261   41.9917 H   0  0  0  0  0  0  0  0  0  0  0  0
  1  5  1  0
  2  3  1  0
  2  1  1  0
  3  4  1  0
  5  4  1  0
  5 17  1  0
  6  7  2  0
  7  8  1  0
  9  8  2  0
 10  9  1  0
 11 10  2  0
 11  6  1  0
 12 10  1  0
 13 12  1  0
 14 15  1  0
 14 13  2  0
 15 16  2  0
 16 12  1  0
 16  1  1  0
 17 23  1  0
 17 18  1  0
 18 19  2  0
 19 20  1  0
 20 21  2  0
 22 20  1  0
 23 22  1  0
 24 23  2  0
  1 25  1  1
  2 26  1  0
  2 27  1  0
  3 28  1  0
  3 29  1  0
  4 30  1  0
  4 31  1  0
  5 32  1  6
  6 33  1  0
  7 34  1  0
  8 35  1  0
 14 36  1  0
 15 37  1  0
 18 38  1  0
 19 39  1  0
 22 40  1  0
M  ISO  8  25  13  26  13  27  13  28  13  29  13  30  13  31  13  32  13
M  ISO  8  33  14  34  14  35  14  36  14  37  14  38  14  39  14  40   9
M  END
>  <minimizedAffinity>  (1) 
-5.54962492

>  <minimizedRMSD>  (1) 
5.17150259

$$$$
