
     RDKit          3D

 21 21  0  0  0  0  0  0  0  0999 V2000
   37.2880   30.9870   41.2290 C   0  0  0  0  0  0  0  0  0  0  0  0
   38.6930   31.1400   41.1970 C   0  0  0  0  0  0  0  0  0  0  0  0
   39.4530   30.1500   41.8480 C   0  0  0  0  0  0  0  0  0  0  0  0
   38.8260   29.1160   42.4640 N   0  0  0  0  0  0  0  0  0  0  0  0
   37.4680   29.0180   42.4630 C   0  0  0  0  0  0  0  0  0  0  0  0
   36.7250   29.9470   41.8510 N   0  0  0  0  0  0  0  0  0  0  0  0
   36.4930   31.9690   40.5820 N   0  0  0  0  0  0  0  0  0  0  0  0
   36.7340   27.9010   43.1260 C   0  0  0  0  0  0  0  0  0  0  0  0
   36.7360   27.9880   44.6240 C   0  0  0  0  0  0  0  0  0  0  0  0
   37.3960   26.6050   42.6480 C   0  0  0  0  0  0  0  0  0  0  0  0
   39.1691   31.9911   40.6882 H   0  0  0  0  0  0  0  0  0  0  0  0
   40.5511   30.2142   41.8574 H   0  0  0  0  0  0  0  0  0  0  0  0
   36.9428   32.7646   40.1070 H   0  0  0  0  0  0  0  0  0  0  0  0
   35.4664   31.8859   40.5875 H   0  0  0  0  0  0  0  0  0  0  0  0
   35.6707   27.9463   42.8481 H   0  0  0  0  0  0  0  0  0  0  0  0
   36.7127   26.9742   45.0502 H   0  0  0  0  0  0  0  0  0  0  0  0
   37.6463   28.5062   44.9600 H   0  0  0  0  0  0  0  0  0  0  0  0
   35.8505   28.5474   44.9600 H   0  0  0  0  0  0  0  0  0  0  0  0
   37.7017   26.0066   43.5189 H   0  0  0  0  0  0  0  0  0  0  0  0
   36.6810   26.0303   42.0409 H   0  0  0  0  0  0  0  0  0  0  0  0
   38.2807   26.8474   42.0409 H   0  0  0  0  0  0  0  0  0  0  0  0
  1  6  2  0
  2  1  1  0
  2  3  2  0
  3  4  1  0
  5  4  2  0
  5  8  1  0
  6  5  1  0
  7  1  1  0
  8  9  1  0
 10  8  1  0
  2 11  1  0
  3 12  1  0
  7 13  1  0
  7 14  1  0
  8 15  1  0
  9 16  1  0
  9 17  1  0
  9 18  1  0
 10 19  1  0
 10 20  1  0
 10 21  1  0
M  ISO  8  11  14  12  14  15   8  16   8  17   8  18   8  19   8  20   8
M  ISO  1  21   8
M  END
>  <minimizedAffinity>  (1) 
-3.85748506

>  <minimizedRMSD>  (1) 
2.25947928

$$$$
