
     RDKit          3D

 15 15  0  0  0  0  0  0  0  0999 V2000
   37.3850   31.0170   41.0980 C   0  0  0  0  0  0  0  0  0  0  0  0
   38.7210   31.4560   41.1130 C   0  0  0  0  0  0  0  0  0  0  0  0
   39.6000   30.7940   42.0130 C   0  0  0  0  0  0  0  0  0  0  0  0
   39.1140   29.7960   42.7930 N   0  0  0  0  0  0  0  0  0  0  0  0
   37.8120   29.4190   42.7310 C   0  0  0  0  0  0  0  0  0  0  0  0
   36.9620   30.0230   41.8930 N   0  0  0  0  0  0  0  0  0  0  0  0
   36.4850   31.6530   40.2140 N   0  0  0  0  0  0  0  0  0  0  0  0
   37.3270   28.3390   43.5860 C   0  0  0  0  0  0  0  0  0  0  0  0
   37.4640   27.1190   43.3090 O   0  0  0  0  0  0  0  0  0  0  0  0
   36.6730   28.6240   44.7790 O   0  0  0  0  0  0  0  0  0  0  0  0
   39.0684   32.2709   40.4609 H   0  0  0  0  0  0  0  0  0  0  0  0
   40.6585   31.0866   42.0761 H   0  0  0  0  0  0  0  0  0  0  0  0
   35.4998   31.3545   40.1792 H   0  0  0  0  0  0  0  0  0  0  0  0
   36.8140   32.4151   39.6043 H   0  0  0  0  0  0  0  0  0  0  0  0
   36.3471   27.8864   45.3533 H   0  0  0  0  0  0  0  0  0  0  0  0
  1  2  2  0
  1  6  1  0
  2  3  1  0
  3  4  2  0
  5  4  1  0
  5  8  1  0
  6  5  2  0
  7  1  1  0
  8 10  1  0
  9  8  2  0
  2 11  1  0
  3 12  1  0
  7 13  1  0
  7 14  1  0
 10 15  1  0
M  ISO  3  11  14  12  14  15   3
M  END
>  <minimizedAffinity>  (1) 
-3.76846147

>  <minimizedRMSD>  (1) 
2.66176438

$$$$
