
     RDKit          3D

 18 18  0  0  0  0  0  0  0  0999 V2000
   37.2340   30.6420   41.3350 C   0  0  0  0  0  0  0  0  0  0  0  0
   38.6000   30.9850   41.4640 C   0  0  0  0  0  0  0  0  0  0  0  0
   39.3770   30.2030   42.3410 C   0  0  0  0  0  0  0  0  0  0  0  0
   38.7880   29.1790   43.0050 N   0  0  0  0  0  0  0  0  0  0  0  0
   37.4810   28.8860   42.8520 C   0  0  0  0  0  0  0  0  0  0  0  0
   36.7170   29.6170   42.0210 N   0  0  0  0  0  0  0  0  0  0  0  0
   36.4240   31.4080   40.4610 N   0  0  0  0  0  0  0  0  0  0  0  0
   36.9730   27.7360   43.6450 C   0  0  0  0  0  0  0  0  0  0  0  0
   36.5630   28.1380   45.0410 C   0  0  0  0  0  0  0  0  0  0  0  0
   39.0364   31.8253   40.9042 H   0  0  0  0  0  0  0  0  0  0  0  0
   40.4457   30.4203   42.4847 H   0  0  0  0  0  0  0  0  0  0  0  0
   35.4261   31.1782   40.3497 H   0  0  0  0  0  0  0  0  0  0  0  0
   36.8329   32.1947   39.9368 H   0  0  0  0  0  0  0  0  0  0  0  0
   36.1002   27.3090   43.1293 H   0  0  0  0  0  0  0  0  0  0  0  0
   37.7876   27.0019   43.7322 H   0  0  0  0  0  0  0  0  0  0  0  0
   37.1483   27.5642   45.7746 H   0  0  0  0  0  0  0  0  0  0  0  0
   36.7498   29.2127   45.1829 H   0  0  0  0  0  0  0  0  0  0  0  0
   35.4922   27.9301   45.1829 H   0  0  0  0  0  0  0  0  0  0  0  0
  1  2  2  0
  1  6  1  0
  2  3  1  0
  3  4  2  0
  5  4  1  0
  5  8  1  0
  6  5  2  0
  7  1  1  0
  8  9  1  0
  2 10  1  0
  3 11  1  0
  7 12  1  0
  7 13  1  0
  8 14  1  0
  8 15  1  0
  9 16  1  0
  9 17  1  0
  9 18  1  0
M  ISO  7  10  14  11  14  14   8  15   8  16   8  17   8  18   8
M  END
>  <minimizedAffinity>  (1) 
-3.52646899

>  <minimizedRMSD>  (1) 
2.0118947

$$$$
