
     RDKit          3D

 25 26  0  0  1  0  0  0  0  0999 V2000
   38.0060   32.9990   40.2500 C   0  0  0  0  0  0  0  0  0  0  0  0
   39.2990   33.5640   40.1650 C   0  0  0  0  0  0  0  0  0  0  0  0
   40.3710   32.8440   40.7450 C   0  0  0  0  0  0  0  0  0  0  0  0
   40.0890   31.6530   41.3490 N   0  0  0  0  0  0  0  0  0  0  0  0
   38.8390   31.1580   41.4030 C   0  0  0  0  0  0  0  0  0  0  0  0
   37.8010   31.8270   40.8570 N   0  0  0  0  0  0  0  0  0  0  0  0
   36.9370   33.7060   39.6760 N   0  0  0  0  0  0  0  0  0  0  0  0
   38.7280   29.9360   42.0530 O   0  0  0  0  0  0  0  0  0  0  0  0
   36.8800   28.8020   41.2940 N   0  0  0  0  0  0  0  0  0  0  0  0
   36.7800   27.4080   41.6280 C   0  0  0  0  0  0  0  0  0  0  0  0
   37.5230   27.1860   42.9180 C   0  0  0  0  0  0  0  0  0  0  0  0
   37.5150   28.5520   43.5650 C   0  0  0  0  0  0  0  0  0  0  0  0
   37.4160   29.5170   42.4090 C   0  0  1  0  0  0  0  0  0  0  0  0
   39.4664   34.5297   39.6655 H   0  0  0  0  0  0  0  0  0  0  0  0
   41.3995   33.2324   40.7100 H   0  0  0  0  0  0  0  0  0  0  0  0
   37.1075   34.6089   39.2106 H   0  0  0  0  0  0  0  0  0  0  0  0
   35.9824   33.3217   39.7204 H   0  0  0  0  0  0  0  0  0  0  0  0
   37.5011   28.9173   40.4805 H   0  0  0  0  0  0  0  0  0  0  0  0
   35.7234   27.1286   41.7526 H   0  0  0  0  0  0  0  0  0  0  0  0
   37.2115   26.7904   40.8265 H   0  0  0  0  0  0  0  0  0  0  0  0
   37.0052   26.4484   43.5488 H   0  0  0  0  0  0  0  0  0  0  0  0
   38.5372   26.7878   42.7669 H   0  0  0  0  0  0  0  0  0  0  0  0
   36.6501   28.6593   44.2362 H   0  0  0  0  0  0  0  0  0  0  0  0
   38.4088   28.7281   44.1815 H   0  0  0  0  0  0  0  0  0  0  0  0
   36.7902   30.3803   42.6792 H   0  0  0  0  0  0  0  0  0  0  0  0
  1  6  2  0
  2  1  1  0
  2  3  2  0
  3  4  1  0
  4  5  2  0
  5  8  1  0
  6  5  1  0
  7  1  1  0
  9 10  1  0
  9 13  1  0
 10 11  1  0
 11 12  1  0
 13  8  1  0
 13 12  1  0
  2 14  1  0
  3 15  1  0
  7 16  1  0
  7 17  1  0
  9 18  1  0
 10 19  1  0
 10 20  1  0
 11 21  1  0
 11 22  1  0
 12 23  1  0
 12 24  1  0
 13 25  1  1
M  ISO  8  14  14  15  14  18   5  19  13  20  13  21  13  22  13  23  13
M  ISO  2  24  13  25  13
M  END
>  <minimizedAffinity>  (1) 
-4.1722579

>  <minimizedRMSD>  (1) 
4.41030359

$$$$
