
     RDKit          3D

 26 27  0  0  0  0  0  0  0  0999 V2000
   37.6130   31.0770   37.7530 C   0  0  0  0  0  0  0  0  0  0  0  0
   37.1140   30.0330   36.9530 C   0  0  0  0  0  0  0  0  0  0  0  0
   36.8790   28.7830   37.5880 C   0  0  0  0  0  0  0  0  0  0  0  0
   37.1460   28.6700   38.9170 N   0  0  0  0  0  0  0  0  0  0  0  0
   37.6260   29.7170   39.6340 C   0  0  0  0  0  0  0  0  0  0  0  0
   37.8530   30.9060   39.0480 N   0  0  0  0  0  0  0  0  0  0  0  0
   37.8460   32.3160   37.1260 N   0  0  0  0  0  0  0  0  0  0  0  0
   37.8560   29.4630   40.9860 O   0  0  0  0  0  0  0  0  0  0  0  0
   37.6600   28.1450   41.4620 C   0  0  0  0  0  0  0  0  0  0  0  0
   36.4610   28.0170   42.3410 C   0  0  0  0  0  0  0  0  0  0  0  0
   36.9310   27.5940   43.7060 C   0  0  0  0  0  0  0  0  0  0  0  0
   38.4120   27.4360   43.6430 C   0  0  0  0  0  0  0  0  0  0  0  0
   38.8410   27.6130   42.2210 C   0  0  0  0  0  0  0  0  0  0  0  0
   36.9140   30.1778   35.8811 H   0  0  0  0  0  0  0  0  0  0  0  0
   36.4901   27.9266   37.0176 H   0  0  0  0  0  0  0  0  0  0  0  0
   37.6535   32.4286   36.1204 H   0  0  0  0  0  0  0  0  0  0  0  0
   38.2089   33.1098   37.6729 H   0  0  0  0  0  0  0  0  0  0  0  0
   37.5132   27.5522   40.5471 H   0  0  0  0  0  0  0  0  0  0  0  0
   35.9416   28.9844   42.4078 H   0  0  0  0  0  0  0  0  0  0  0  0
   35.7619   27.2742   41.9294 H   0  0  0  0  0  0  0  0  0  0  0  0
   36.6668   28.3615   44.4484 H   0  0  0  0  0  0  0  0  0  0  0  0
   36.4536   26.6487   44.0035 H   0  0  0  0  0  0  0  0  0  0  0  0
   38.8947   28.1960   44.2749 H   0  0  0  0  0  0  0  0  0  0  0  0
   38.7036   26.4396   44.0065 H   0  0  0  0  0  0  0  0  0  0  0  0
   39.1553   26.6468   41.7995 H   0  0  0  0  0  0  0  0  0  0  0  0
   39.6919   28.3069   42.1541 H   0  0  0  0  0  0  0  0  0  0  0  0
  1  6  2  0
  2  3  2  0
  2  1  1  0
  3  4  1  0
  4  5  2  0
  5  8  1  0
  6  5  1  0
  7  1  1  0
  8  9  1  0
  9 13  1  0
  9 10  1  0
 10 11  1  0
 12 11  1  0
 13 12  1  0
  2 14  1  0
  3 15  1  0
  7 16  1  0
  7 17  1  0
  9 18  1  0
 10 19  1  0
 10 20  1  0
 11 21  1  0
 11 22  1  0
 12 23  1  0
 12 24  1  0
 13 25  1  0
 13 26  1  0
M  ISO  8  14  14  15  14  18  13  19  13  20  13  21  13  22  13  23  13
M  ISO  3  24  13  25  13  26  13
M  END
>  <minimizedAffinity>  (1) 
-3.77023554

>  <minimizedRMSD>  (1) 
4.68512392

$$$$
