
     RDKit          3D

 32 35  0  0  0  0  0  0  0  0999 V2000
   36.7270   28.6230   42.1630 C   0  0  0  0  0  0  0  0  0  0  0  0
   35.9330   28.8020   41.0790 N   0  0  0  0  0  0  0  0  0  0  0  0
   36.2440   29.9290   40.4940 O   0  0  0  0  0  0  0  0  0  0  0  0
   37.2130   30.5150   41.1400 C   0  0  0  0  0  0  0  0  0  0  0  0
   37.5430   29.7280   42.1920 N   0  0  0  0  0  0  0  0  0  0  0  0
   37.7010   31.7620   40.6610 N   0  0  0  0  0  0  0  0  0  0  0  0
   37.0030   32.6550   39.9000 C   0  0  0  0  0  0  0  0  0  0  0  0
   37.8030   33.7110   39.6490 N   0  0  0  0  0  0  0  0  0  0  0  0
   39.0010   33.5040   40.2430 C   0  0  0  0  0  0  0  0  0  0  0  0
   40.1630   34.2770   40.2920 C   0  0  0  0  0  0  0  0  0  0  0  0
   40.1290   35.3760   39.6850 O   0  0  0  0  0  0  0  0  0  0  0  0
   41.2000   33.7690   40.9840 N   0  0  0  0  0  0  0  0  0  0  0  0
   41.1250   32.5740   41.5990 C   0  0  0  0  0  0  0  0  0  0  0  0
   42.2960   32.1270   42.3110 N   0  0  0  0  0  0  0  0  0  0  0  0
   40.0040   31.8260   41.5530 N   0  0  0  0  0  0  0  0  0  0  0  0
   38.9280   32.2710   40.8800 C   0  0  0  0  0  0  0  0  0  0  0  0
   36.9610   27.7360   43.1880 O   0  0  0  0  0  0  0  0  0  0  0  0
   38.5510   24.5750   42.3710 C   0  0  0  0  0  0  0  0  0  0  0  0
   39.7900   24.7210   43.0410 C   0  0  0  0  0  0  0  0  0  0  0  0
   40.0130   25.9210   43.7480 C   0  0  0  0  0  0  0  0  0  0  0  0
   39.0280   26.8790   43.7540 N   0  0  0  0  0  0  0  0  0  0  0  0
   37.8540   26.6800   43.0890 C   0  0  0  0  0  0  0  0  0  0  0  0
   37.6280   25.5340   42.4060 N   0  0  0  0  0  0  0  0  0  0  0  0
   38.3000   23.3870   41.6550 N   0  0  0  0  0  0  0  0  0  0  0  0
   35.9667   32.5339   39.5517 H   0  0  0  0  0  0  0  0  0  0  0  0
   42.0747   34.3095   41.0445 H   0  0  0  0  0  0  0  0  0  0  0  0
   42.2876   31.2193   42.7977 H   0  0  0  0  0  0  0  0  0  0  0  0
   43.1411   32.7153   42.3331 H   0  0  0  0  0  0  0  0  0  0  0  0
   40.5510   23.9273   43.0112 H   0  0  0  0  0  0  0  0  0  0  0  0
   40.9586   26.0869   44.2850 H   0  0  0  0  0  0  0  0  0  0  0  0
   39.0118   22.6431   41.6258 H   0  0  0  0  0  0  0  0  0  0  0  0
   37.4048   23.2628   41.1610 H   0  0  0  0  0  0  0  0  0  0  0  0
  1  5  1  0
  1 17  1  0
  2  1  2  0
  3  2  1  0
  3  4  1  0
  4  5  2  0
  6 16  1  0
  6  4  1  0
  7  6  1  0
  8  7  2  0
  8  9  1  0
  9 10  1  0
  9 16  2  0
 10 12  1  0
 11 10  2  0
 12 13  1  0
 13 14  1  0
 15 13  2  0
 16 15  1  0
 18 23  2  0
 18 19  1  0
 19 20  2  0
 20 21  1  0
 22 17  1  0
 22 21  2  0
 23 22  1  0
 24 18  1  0
  7 25  1  0
 12 26  1  0
 14 27  1  0
 14 28  1  0
 19 29  1  0
 20 30  1  0
 24 31  1  0
 24 32  1  0
M  ISO  4  25  14  26   9  29  14  30  14
M  END
>  <minimizedAffinity>  (1) 
-6.76327848

>  <minimizedRMSD>  (1) 
2.00905275

$$$$
