
     RDKit          3D

 29 32  0  0  0  0  0  0  0  0999 V2000
   37.7470   29.3130   42.5590 C   0  0  0  0  0  0  0  0  0  0  0  0
   36.9180   29.8730   41.6410 N   0  0  0  0  0  0  0  0  0  0  0  0
   37.5500   30.8220   41.0050 O   0  0  0  0  0  0  0  0  0  0  0  0
   38.7660   30.9270   41.4480 C   0  0  0  0  0  0  0  0  0  0  0  0
   38.9320   29.9950   42.4290 N   0  0  0  0  0  0  0  0  0  0  0  0
   39.8060   31.8320   41.0370 N   0  0  0  0  0  0  0  0  0  0  0  0
   41.1030   31.4850   40.9460 C   0  0  0  0  0  0  0  0  0  0  0  0
   41.7640   32.5890   40.5330 N   0  0  0  0  0  0  0  0  0  0  0  0
   40.8920   33.5890   40.3750 C   0  0  0  0  0  0  0  0  0  0  0  0
   41.1180   34.8950   39.9680 C   0  0  0  0  0  0  0  0  0  0  0  0
   40.0260   35.7000   39.8990 N   0  0  0  0  0  0  0  0  0  0  0  0
   38.8000   35.2190   40.2160 C   0  0  0  0  0  0  0  0  0  0  0  0
   38.5590   33.9480   40.6150 N   0  0  0  0  0  0  0  0  0  0  0  0
   39.6280   33.1260   40.6930 C   0  0  0  0  0  0  0  0  0  0  0  0
   37.7410   28.3230   43.5190 O   0  0  0  0  0  0  0  0  0  0  0  0
   38.4150   24.9100   42.5230 C   0  0  0  0  0  0  0  0  0  0  0  0
   39.6960   24.7100   43.0630 C   0  0  0  0  0  0  0  0  0  0  0  0
   40.3010   25.7910   43.7740 C   0  0  0  0  0  0  0  0  0  0  0  0
   39.5920   26.9690   43.8870 N   0  0  0  0  0  0  0  0  0  0  0  0
   38.3610   27.0970   43.3430 C   0  0  0  0  0  0  0  0  0  0  0  0
   37.7890   26.0730   42.6700 N   0  0  0  0  0  0  0  0  0  0  0  0
   37.8220   23.8490   41.8250 N   0  0  0  0  0  0  0  0  0  0  0  0
   41.5386   30.4988   41.1644 H   0  0  0  0  0  0  0  0  0  0  0  0
   42.1249   35.2588   39.7152 H   0  0  0  0  0  0  0  0  0  0  0  0
   37.9441   35.9062   40.1445 H   0  0  0  0  0  0  0  0  0  0  0  0
   40.2179   23.7493   42.9420 H   0  0  0  0  0  0  0  0  0  0  0  0
   41.3020   25.6873   44.2181 H   0  0  0  0  0  0  0  0  0  0  0  0
   38.3241   22.9556   41.7223 H   0  0  0  0  0  0  0  0  0  0  0  0
   36.8841   23.9628   41.4147 H   0  0  0  0  0  0  0  0  0  0  0  0
  1 15  1  0
  2  1  2  0
  3  4  1  0
  3  2  1  0
  4  5  2  0
  5  1  1  0
  6  4  1  0
  7  6  1  0
  8  7  2  0
  9  8  1  0
  9 14  2  0
 10  9  1  0
 11 10  2  0
 11 12  1  0
 12 13  2  0
 13 14  1  0
 14  6  1  0
 16 21  2  0
 16 17  1  0
 17 18  2  0
 18 19  1  0
 20 15  1  0
 20 19  2  0
 21 20  1  0
 22 16  1  0
  7 23  1  0
 10 24  1  0
 12 25  1  0
 17 26  1  0
 18 27  1  0
 22 28  1  0
 22 29  1  0
M  ISO  5  23  14  24  14  25  14  26  14  27  14
M  END
>  <minimizedAffinity>  (1) 
-6.29180145

>  <minimizedRMSD>  (1) 
0.329171985

$$$$
