
     RDKit          3D

 32 35  0  0  0  0  0  0  0  0999 V2000
   37.7790   29.3260   42.5610 C   0  0  0  0  0  0  0  0  0  0  0  0
   36.9980   29.9580   41.6690 N   0  0  0  0  0  0  0  0  0  0  0  0
   37.6850   30.8600   41.0390 O   0  0  0  0  0  0  0  0  0  0  0  0
   38.9240   30.8750   41.4640 C   0  0  0  0  0  0  0  0  0  0  0  0
   39.0030   29.9190   42.4200 N   0  0  0  0  0  0  0  0  0  0  0  0
   40.0130   31.7380   41.0140 C   0  0  0  0  0  0  0  0  0  0  0  0
   41.3500   31.4530   40.8270 C   0  0  0  0  0  0  0  0  0  0  0  0
   41.9590   32.5840   40.3980 N   0  0  0  0  0  0  0  0  0  0  0  0
   41.0800   33.5990   40.2960 C   0  0  0  0  0  0  0  0  0  0  0  0
   41.1290   34.9250   39.9250 C   0  0  0  0  0  0  0  0  0  0  0  0
   40.0060   35.7240   39.9310 C   0  0  0  0  0  0  0  0  0  0  0  0
   38.7580   35.2260   40.3130 C   0  0  0  0  0  0  0  0  0  0  0  0
   38.7580   33.8950   40.6750 C   0  0  0  0  0  0  0  0  0  0  0  0
   39.8620   33.0700   40.6810 C   0  0  0  0  0  0  0  0  0  0  0  0
   37.7420   28.3260   43.5200 O   0  0  0  0  0  0  0  0  0  0  0  0
   38.4120   24.8960   42.5200 C   0  0  0  0  0  0  0  0  0  0  0  0
   39.6870   24.7090   43.0740 C   0  0  0  0  0  0  0  0  0  0  0  0
   40.2830   25.7800   43.7840 C   0  0  0  0  0  0  0  0  0  0  0  0
   39.5780   26.9530   43.8900 N   0  0  0  0  0  0  0  0  0  0  0  0
   38.3430   27.0800   43.3320 C   0  0  0  0  0  0  0  0  0  0  0  0
   37.7620   26.0640   42.6530 N   0  0  0  0  0  0  0  0  0  0  0  0
   37.8190   23.8440   41.8210 N   0  0  0  0  0  0  0  0  0  0  0  0
   41.8349   30.4803   40.9962 H   0  0  0  0  0  0  0  0  0  0  0  0
   42.9626   32.6581   40.1786 H   0  0  0  0  0  0  0  0  0  0  0  0
   42.0915   35.3582   39.6153 H   0  0  0  0  0  0  0  0  0  0  0  0
   40.0944   36.7778   39.6281 H   0  0  0  0  0  0  0  0  0  0  0  0
   37.8489   35.8452   40.3242 H   0  0  0  0  0  0  0  0  0  0  0  0
   37.7980   33.4560   40.9843 H   0  0  0  0  0  0  0  0  0  0  0  0
   40.2134   23.7500   42.9594 H   0  0  0  0  0  0  0  0  0  0  0  0
   41.2801   25.6750   44.2365 H   0  0  0  0  0  0  0  0  0  0  0  0
   38.3170   22.9482   41.7187 H   0  0  0  0  0  0  0  0  0  0  0  0
   36.8833   23.9632   41.4073 H   0  0  0  0  0  0  0  0  0  0  0  0
  1 15  1  0
  2  1  2  0
  3  4  1  0
  3  2  1  0
  4  5  2  0
  5  1  1  0
  6  4  1  0
  7  6  2  0
  8  7  1  0
  9  8  1  0
  9 14  2  0
 10 11  2  0
 10  9  1  0
 11 12  1  0
 12 13  2  0
 13 14  1  0
 14  6  1  0
 16 21  2  0
 16 17  1  0
 17 18  2  0
 18 19  1  0
 20 15  1  0
 20 19  2  0
 21 20  1  0
 22 16  1  0
  7 23  1  0
  8 24  1  0
 10 25  1  0
 11 26  1  0
 12 27  1  0
 13 28  1  0
 17 29  1  0
 18 30  1  0
 22 31  1  0
 22 32  1  0
M  ISO  8  23  14  24   9  25  14  26  14  27  14  28  14  29  14  30  14
M  END
>  <minimizedAffinity>  (1) 
-6.13343859

>  <minimizedRMSD>  (1) 
0.723684013

$$$$
