
     RDKit          3D

 27 29  0  0  0  0  0  0  0  0999 V2000
   36.8130   27.5340   43.0710 O   0  0  0  0  0  0  0  0  0  0  0  0
   38.5250   24.4180   42.3340 C   0  0  0  0  0  0  0  0  0  0  0  0
   39.7590   24.6320   42.9900 C   0  0  0  0  0  0  0  0  0  0  0  0
   39.9400   25.8650   43.6660 C   0  0  0  0  0  0  0  0  0  0  0  0
   38.9170   26.7840   43.6510 N   0  0  0  0  0  0  0  0  0  0  0  0
   37.7560   26.5120   43.0000 C   0  0  0  0  0  0  0  0  0  0  0  0
   37.5770   25.3470   42.3580 N   0  0  0  0  0  0  0  0  0  0  0  0
   38.3300   23.2070   41.6630 N   0  0  0  0  0  0  0  0  0  0  0  0
   36.5980   28.4380   42.0410 C   0  0  0  0  0  0  0  0  0  0  0  0
   35.8500   28.6100   40.9350 N   0  0  0  0  0  0  0  0  0  0  0  0
   36.1640   29.7530   40.3850 O   0  0  0  0  0  0  0  0  0  0  0  0
   37.0940   30.3590   41.0730 C   0  0  0  0  0  0  0  0  0  0  0  0
   37.3890   29.5540   42.1240 N   0  0  0  0  0  0  0  0  0  0  0  0
   37.6620   31.6560   40.7180 C   0  0  0  0  0  0  0  0  0  0  0  0
   36.9110   32.4620   39.8930 C   0  0  0  0  0  0  0  0  0  0  0  0
   37.4380   33.7100   39.5410 C   0  0  0  0  0  0  0  0  0  0  0  0
   38.6640   34.0730   40.0260 C   0  0  0  0  0  0  0  0  0  0  0  0
   39.4120   33.2540   40.8560 C   0  0  0  0  0  0  0  0  0  0  0  0
   38.8700   32.0450   41.1800 N   0  0  0  0  0  0  0  0  0  0  0  0
   40.5509   23.8686   42.9764 H   0  0  0  0  0  0  0  0  0  0  0  0
   40.8810   26.0825   44.1926 H   0  0  0  0  0  0  0  0  0  0  0  0
   39.0762   22.4970   41.6544 H   0  0  0  0  0  0  0  0  0  0  0  0
   37.4402   23.0248   41.1773 H   0  0  0  0  0  0  0  0  0  0  0  0
   35.9281   32.1358   39.5221 H   0  0  0  0  0  0  0  0  0  0  0  0
   36.8744   34.3887   38.8840 H   0  0  0  0  0  0  0  0  0  0  0  0
   39.0728   35.0550   39.7457 H   0  0  0  0  0  0  0  0  0  0  0  0
   40.3967   33.5641   41.2359 H   0  0  0  0  0  0  0  0  0  0  0  0
  2  7  2  0
  2  3  1  0
  3  4  2  0
  5  4  1  0
  6  1  1  0
  6  5  2  0
  7  6  1  0
  8  2  1  0
  9 13  1  0
  9  1  1  0
 10  9  2  0
 11 10  1  0
 11 12  1  0
 12 13  2  0
 14 12  1  0
 14 19  1  0
 15 14  2  0
 16 15  1  0
 16 17  2  0
 17 18  1  0
 18 19  2  0
  3 20  1  0
  4 21  1  0
  8 22  1  0
  8 23  1  0
 15 24  1  0
 16 25  1  0
 17 26  1  0
 18 27  1  0
M  ISO  6  20  14  21  14  24  14  25  14  26  14  27  14
M  END
>  <minimizedAffinity>  (1) 
-5.50970459

>  <minimizedRMSD>  (1) 
2.06986642

$$$$
