
     RDKit          3D

 34 36  0  0  0  0  0  0  0  0999 V2000
   37.4830   28.0480   42.7820 O   0  0  0  0  0  0  0  0  0  0  0  0
   38.4670   24.5810   42.3580 C   0  0  0  0  0  0  0  0  0  0  0  0
   39.6560   24.5350   43.1220 C   0  0  0  0  0  0  0  0  0  0  0  0
   40.0670   25.7430   43.7620 C   0  0  0  0  0  0  0  0  0  0  0  0
   39.3020   26.8600   43.6060 N   0  0  0  0  0  0  0  0  0  0  0  0
   38.1670   26.8390   42.8580 C   0  0  0  0  0  0  0  0  0  0  0  0
   37.7570   25.7070   42.2420 N   0  0  0  0  0  0  0  0  0  0  0  0
   38.0360   23.4180   41.7190 N   0  0  0  0  0  0  0  0  0  0  0  0
   37.7300   28.9890   41.8150 C   0  0  0  0  0  0  0  0  0  0  0  0
   37.5500   29.1650   40.4840 N   0  0  0  0  0  0  0  0  0  0  0  0
   38.0310   30.3410   40.1500 O   0  0  0  0  0  0  0  0  0  0  0  0
   38.5200   30.9580   41.1810 C   0  0  0  0  0  0  0  0  0  0  0  0
   38.3420   30.1290   42.2350 N   0  0  0  0  0  0  0  0  0  0  0  0
   39.1480   32.3060   41.1910 C   0  0  0  0  0  0  0  0  0  0  0  0
   40.5440   32.2860   40.6630 C   0  0  0  0  0  0  0  0  0  0  0  0
   41.0490   33.7100   40.5840 C   0  0  0  0  0  0  0  0  0  0  0  0
   40.1370   34.6070   39.7860 C   0  0  0  0  0  0  0  0  0  0  0  0
   38.7350   34.6330   40.3620 C   0  0  0  0  0  0  0  0  0  0  0  0
   38.2430   33.2120   40.3830 C   0  0  0  0  0  0  0  0  0  0  0  0
   40.2395   23.6076   43.2190 H   0  0  0  0  0  0  0  0  0  0  0  0
   40.9836   25.7717   44.3694 H   0  0  0  0  0  0  0  0  0  0  0  0
   37.1727   23.4287   41.1573 H   0  0  0  0  0  0  0  0  0  0  0  0
   38.5811   22.5487   41.8090 H   0  0  0  0  0  0  0  0  0  0  0  0
   39.2457   32.6767   42.2220 H   0  0  0  0  0  0  0  0  0  0  0  0
   41.1871   31.7013   41.3372 H   0  0  0  0  0  0  0  0  0  0  0  0
   40.5623   31.8242   39.6648 H   0  0  0  0  0  0  0  0  0  0  0  0
   41.1321   34.1111   41.6049 H   0  0  0  0  0  0  0  0  0  0  0  0
   42.0238   33.6892   40.0747 H   0  0  0  0  0  0  0  0  0  0  0  0
   40.0906   34.2385   38.7506 H   0  0  0  0  0  0  0  0  0  0  0  0
   40.5424   35.6289   39.8219 H   0  0  0  0  0  0  0  0  0  0  0  0
   38.7534   35.0417   41.3831 H   0  0  0  0  0  0  0  0  0  0  0  0
   38.0730   35.2692   39.7562 H   0  0  0  0  0  0  0  0  0  0  0  0
   37.2358   33.1922   40.8248 H   0  0  0  0  0  0  0  0  0  0  0  0
   38.2326   32.8426   39.3469 H   0  0  0  0  0  0  0  0  0  0  0  0
  1  6  1  0
  2  3  2  0
  3  4  1  0
  5  4  2  0
  6  5  1  0
  7  2  1  0
  7  6  2  0
  8  2  1  0
  9 13  1  0
  9  1  1  0
 10  9  2  0
 11 10  1  0
 11 12  1  0
 12 14  1  0
 12 13  2  0
 15 14  1  0
 16 15  1  0
 17 18  1  0
 17 16  1  0
 18 19  1  0
 19 14  1  0
  3 20  1  0
  4 21  1  0
  8 22  1  0
  8 23  1  0
 14 24  1  0
 15 25  1  0
 15 26  1  0
 16 27  1  0
 16 28  1  0
 17 29  1  0
 17 30  1  0
 18 31  1  0
 18 32  1  0
 19 33  1  0
 19 34  1  0
M  ISO  8  20  14  21  14  24  13  25  13  26  13  27  13  28  13  29  13
M  ISO  5  30  13  31  13  32  13  33  13  34  13
M  END
>  <minimizedAffinity>  (1) 
-5.27477932

>  <minimizedRMSD>  (1) 
0.995200038

$$$$
