
     RDKit          3D

 25 27  0  0  0  0  0  0  0  0999 V2000
   37.8160   28.2040   43.5770 O   0  0  0  0  0  0  0  0  0  0  0  0
   37.6690   29.1770   42.6010 C   0  0  0  0  0  0  0  0  0  0  0  0
   36.7890   29.6010   41.6680 N   0  0  0  0  0  0  0  0  0  0  0  0
   37.2930   30.6310   41.0470 O   0  0  0  0  0  0  0  0  0  0  0  0
   38.4790   30.9130   41.5290 C   0  0  0  0  0  0  0  0  0  0  0  0
   38.7300   30.0120   42.5050 N   0  0  0  0  0  0  0  0  0  0  0  0
   39.2320   32.0040   41.0080 N   0  0  0  0  0  0  0  0  0  0  0  0
   40.5220   32.2540   40.8430 N   0  0  0  0  0  0  0  0  0  0  0  0
   40.6540   33.4790   40.2860 C   0  0  0  0  0  0  0  0  0  0  0  0
   39.4030   34.0310   40.0870 C   0  0  0  0  0  0  0  0  0  0  0  0
   38.5220   33.0570   40.5620 C   0  0  0  0  0  0  0  0  0  0  0  0
   38.5370   24.8230   42.5130 C   0  0  0  0  0  0  0  0  0  0  0  0
   39.8480   24.6470   43.0270 C   0  0  0  0  0  0  0  0  0  0  0  0
   40.4220   25.7340   43.7290 C   0  0  0  0  0  0  0  0  0  0  0  0
   39.6880   26.8890   43.8750 N   0  0  0  0  0  0  0  0  0  0  0  0
   38.4330   26.9890   43.3550 C   0  0  0  0  0  0  0  0  0  0  0  0
   37.8700   25.9610   42.6820 N   0  0  0  0  0  0  0  0  0  0  0  0
   37.9540   23.7500   41.8120 N   0  0  0  0  0  0  0  0  0  0  0  0
   41.6091   33.9613   40.0309 H   0  0  0  0  0  0  0  0  0  0  0  0
   39.1575   35.0120   39.6540 H   0  0  0  0  0  0  0  0  0  0  0  0
   37.4250   33.1374   40.5703 H   0  0  0  0  0  0  0  0  0  0  0  0
   40.3961   23.7038   42.8856 H   0  0  0  0  0  0  0  0  0  0  0  0
   41.4354   25.6570   44.1498 H   0  0  0  0  0  0  0  0  0  0  0  0
   38.4777   22.8721   41.6857 H   0  0  0  0  0  0  0  0  0  0  0  0
   37.0038   23.8430   41.4255 H   0  0  0  0  0  0  0  0  0  0  0  0
  2  1  1  0
  3  2  2  0
  4  5  1  0
  4  3  1  0
  5  6  2  0
  6  2  1  0
  7  5  1  0
  8  7  1  0
  9  8  2  0
 10  9  1  0
 10 11  2  0
 11  7  1  0
 12 17  2  0
 12 13  1  0
 13 14  2  0
 14 15  1  0
 16  1  1  0
 16 15  2  0
 17 16  1  0
 18 12  1  0
  9 19  1  0
 10 20  1  0
 11 21  1  0
 13 22  1  0
 14 23  1  0
 18 24  1  0
 18 25  1  0
M  ISO  5  19  14  20  14  21  14  22  14  23  14
M  END
>  <minimizedAffinity>  (1) 
-5.18562698

>  <minimizedRMSD>  (1) 
0.512710512

$$$$
