
     RDKit          3D

 24 26  0  0  0  0  0  0  0  0999 V2000
   38.5180   24.8330   42.5300 C   0  0  0  0  0  0  0  0  0  0  0  0
   39.8160   24.6870   43.0910 C   0  0  0  0  0  0  0  0  0  0  0  0
   40.3730   25.7980   43.7700 C   0  0  0  0  0  0  0  0  0  0  0  0
   39.6400   26.9430   43.8510 N   0  0  0  0  0  0  0  0  0  0  0  0
   38.3960   27.0350   43.2950 C   0  0  0  0  0  0  0  0  0  0  0  0
   37.8520   25.9880   42.6450 N   0  0  0  0  0  0  0  0  0  0  0  0
   37.9610   23.7410   41.8560 N   0  0  0  0  0  0  0  0  0  0  0  0
   37.7610   28.2510   43.4490 O   0  0  0  0  0  0  0  0  0  0  0  0
   37.4920   29.1010   42.3840 C   0  0  0  0  0  0  0  0  0  0  0  0
   36.5450   29.2900   41.4310 N   0  0  0  0  0  0  0  0  0  0  0  0
   36.8810   30.3050   40.6880 O   0  0  0  0  0  0  0  0  0  0  0  0
   38.0090   30.8080   41.0970 C   0  0  0  0  0  0  0  0  0  0  0  0
   38.4190   30.0730   42.1610 N   0  0  0  0  0  0  0  0  0  0  0  0
   38.7370   31.9240   40.5690 N   0  0  0  0  0  0  0  0  0  0  0  0
   39.9480   32.1930   40.0100 C   0  0  0  0  0  0  0  0  0  0  0  0
   39.9860   33.5090   39.7290 N   0  0  0  0  0  0  0  0  0  0  0  0
   38.8180   34.0580   40.1070 C   0  0  0  0  0  0  0  0  0  0  0  0
   38.0360   33.0690   40.6320 N   0  0  0  0  0  0  0  0  0  0  0  0
   40.3702   23.7411   43.0006 H   0  0  0  0  0  0  0  0  0  0  0  0
   41.3743   25.7376   44.2214 H   0  0  0  0  0  0  0  0  0  0  0  0
   38.4891   22.8601   41.7779 H   0  0  0  0  0  0  0  0  0  0  0  0
   37.0228   23.8179   41.4379 H   0  0  0  0  0  0  0  0  0  0  0  0
   40.7516   31.4658   39.8216 H   0  0  0  0  0  0  0  0  0  0  0  0
   38.5409   35.1181   40.0103 H   0  0  0  0  0  0  0  0  0  0  0  0
  1  6  2  0
  1  2  1  0
  2  3  2  0
  3  4  1  0
  5  8  1  0
  5  4  2  0
  6  5  1  0
  7  1  1  0
  9  8  1  0
 10  9  2  0
 11 12  1  0
 11 10  1  0
 12 13  2  0
 13  9  1  0
 14 18  1  0
 14 12  1  0
 15 14  1  0
 16 15  2  0
 16 17  1  0
 17 18  2  0
  2 19  1  0
  3 20  1  0
  7 21  1  0
  7 22  1  0
 15 23  1  0
 17 24  1  0
M  ISO  4  19  14  20  14  23  14  24  14
M  END
>  <minimizedAffinity>  (1) 
-5.05829525

>  <minimizedRMSD>  (1) 
1.08117938

$$$$
