
     RDKit          3D

 27 28  0  0  0  0  0  0  0  0999 V2000
   38.4090   24.7550   42.4410 C   0  0  0  0  0  0  0  0  0  0  0  0
   39.6880   24.6490   43.0480 C   0  0  0  0  0  0  0  0  0  0  0  0
   40.1770   25.7980   43.7300 C   0  0  0  0  0  0  0  0  0  0  0  0
   39.3960   26.9270   43.7640 N   0  0  0  0  0  0  0  0  0  0  0  0
   38.1820   26.9530   43.1590 C   0  0  0  0  0  0  0  0  0  0  0  0
   37.7070   25.8820   42.5140 N   0  0  0  0  0  0  0  0  0  0  0  0
   37.8890   23.6380   41.7540 N   0  0  0  0  0  0  0  0  0  0  0  0
   37.4950   28.1530   43.2680 O   0  0  0  0  0  0  0  0  0  0  0  0
   36.8890   28.7730   42.1940 C   0  0  0  0  0  0  0  0  0  0  0  0
   35.9000   28.5660   41.3060 N   0  0  0  0  0  0  0  0  0  0  0  0
   35.8210   29.5810   40.5020 O   0  0  0  0  0  0  0  0  0  0  0  0
   36.7120   30.4770   40.7970 C   0  0  0  0  0  0  0  0  0  0  0  0
   37.4010   29.9910   41.8630 N   0  0  0  0  0  0  0  0  0  0  0  0
   37.0220   31.8140   40.1700 C   0  0  0  0  0  0  0  0  0  0  0  0
   38.2890   32.3890   40.7700 C   0  0  0  0  0  0  0  0  0  0  0  0
   37.1150   31.7060   38.6720 C   0  0  0  0  0  0  0  0  0  0  0  0
   40.2747   23.7201   42.9935 H   0  0  0  0  0  0  0  0  0  0  0  0
   41.1615   25.7822   44.2205 H   0  0  0  0  0  0  0  0  0  0  0  0
   38.4356   22.7667   41.6995 H   0  0  0  0  0  0  0  0  0  0  0  0
   36.9628   23.6938   41.3069 H   0  0  0  0  0  0  0  0  0  0  0  0
   36.1947   32.5049   40.3898 H   0  0  0  0  0  0  0  0  0  0  0  0
   38.2216   32.3584   41.8675 H   0  0  0  0  0  0  0  0  0  0  0  0
   39.1537   31.7951   40.4390 H   0  0  0  0  0  0  0  0  0  0  0  0
   38.4114   33.4309   40.4390 H   0  0  0  0  0  0  0  0  0  0  0  0
   37.8113   30.8973   38.4052 H   0  0  0  0  0  0  0  0  0  0  0  0
   36.1202   31.4848   38.2579 H   0  0  0  0  0  0  0  0  0  0  0  0
   37.4814   32.6569   38.2579 H   0  0  0  0  0  0  0  0  0  0  0  0
  1  6  2  0
  1  2  1  0
  2  3  2  0
  3  4  1  0
  5  8  1  0
  5  4  2  0
  6  5  1  0
  7  1  1  0
  9  8  1  0
 10  9  2  0
 11 12  1  0
 11 10  1  0
 12 13  2  0
 13  9  1  0
 14 15  1  0
 14 12  1  0
 16 14  1  0
  2 17  1  0
  3 18  1  0
  7 19  1  0
  7 20  1  0
 14 21  1  0
 15 22  1  0
 15 23  1  0
 15 24  1  0
 16 25  1  0
 16 26  1  0
 16 27  1  0
M  ISO  8  17  14  18  14  21   8  22   8  23   8  24   8  25   8  26   8
M  ISO  1  27   8
M  END
>  <minimizedAffinity>  (1) 
-4.7860322

>  <minimizedRMSD>  (1) 
1.90449357

$$$$
