
     RDKit          3D

 20 21  0  0  0  0  0  0  0  0999 V2000
   38.2610   24.9140   42.3510 C   0  0  0  0  0  0  0  0  0  0  0  0
   39.5160   24.5840   42.9260 C   0  0  0  0  0  0  0  0  0  0  0  0
   40.1430   25.5770   43.7210 C   0  0  0  0  0  0  0  0  0  0  0  0
   39.5210   26.7760   43.8900 N   0  0  0  0  0  0  0  0  0  0  0  0
   38.3240   27.0430   43.3200 C   0  0  0  0  0  0  0  0  0  0  0  0
   37.7050   26.1100   42.5580 N   0  0  0  0  0  0  0  0  0  0  0  0
   37.6140   23.9600   41.5620 N   0  0  0  0  0  0  0  0  0  0  0  0
   37.7960   28.2980   43.5680 O   0  0  0  0  0  0  0  0  0  0  0  0
   37.8990   29.3500   42.6750 C   0  0  0  0  0  0  0  0  0  0  0  0
   37.2200   29.9450   41.6620 N   0  0  0  0  0  0  0  0  0  0  0  0
   37.9130   30.9540   41.2170 O   0  0  0  0  0  0  0  0  0  0  0  0
   39.0360   31.0700   41.8880 C   0  0  0  0  0  0  0  0  0  0  0  0
   39.0600   30.0700   42.8190 N   0  0  0  0  0  0  0  0  0  0  0  0
   40.0790   32.0510   41.7110 N   0  0  0  0  0  0  0  0  0  0  0  0
   39.9819   23.6011   42.7622 H   0  0  0  0  0  0  0  0  0  0  0  0
   41.1168   25.3814   44.1937 H   0  0  0  0  0  0  0  0  0  0  0  0
   38.0490   23.0394   41.4067 H   0  0  0  0  0  0  0  0  0  0  0  0
   36.7019   24.1772   41.1355 H   0  0  0  0  0  0  0  0  0  0  0  0
   40.9155   32.0274   42.3116 H   0  0  0  0  0  0  0  0  0  0  0  0
   39.9871   32.7749   40.9841 H   0  0  0  0  0  0  0  0  0  0  0  0
  1  6  2  0
  1  2  1  0
  2  3  2  0
  3  4  1  0
  5  8  1  0
  5  4  2  0
  6  5  1  0
  7  1  1  0
  9 13  1  0
  9  8  1  0
 10  9  2  0
 11 10  1  0
 11 12  1  0
 12 13  2  0
 14 12  1  0
  2 15  1  0
  3 16  1  0
  7 17  1  0
  7 18  1  0
 14 19  1  0
 14 20  1  0
M  ISO  2  15  14  16  14
M  END
>  <minimizedAffinity>  (1) 
-4.17328596

>  <minimizedRMSD>  (1) 
0.180073708

$$$$
