
     RDKit          3D

 37 40  0  0  1  0  0  0  0  0999 V2000
   38.2270   30.5160   39.2470 C   0  0  1  0  0  0  0  0  0  0  0  0
   37.5380   30.5920   37.8770 C   0  0  0  0  0  0  0  0  0  0  0  0
   36.1580   30.0480   38.2100 C   0  0  0  0  0  0  0  0  0  0  0  0
   36.3290   29.2100   39.4450 C   0  0  0  0  0  0  0  0  0  0  0  0
   37.8170   29.1370   39.6830 C   0  0  2  0  0  0  0  0  0  0  0  0
   40.7640   35.3150   39.6250 C   0  0  0  0  0  0  0  0  0  0  0  0
   39.5060   35.7470   40.1000 C   0  0  0  0  0  0  0  0  0  0  0  0
   38.5440   34.7730   40.2990 C   0  0  0  0  0  0  0  0  0  0  0  0
   38.8640   33.4810   40.0320 N   0  0  0  0  0  0  0  0  0  0  0  0
   40.0450   33.0830   39.5890 C   0  0  0  0  0  0  0  0  0  0  0  0
   40.9890   34.0180   39.3890 N   0  0  0  0  0  0  0  0  0  0  0  0
   40.4280   31.7490   39.2860 N   0  0  0  0  0  0  0  0  0  0  0  0
   41.7160   31.5140   39.1190 N   0  0  0  0  0  0  0  0  0  0  0  0
   41.8750   30.1970   38.8250 C   0  0  0  0  0  0  0  0  0  0  0  0
   40.5870   29.6410   38.8220 C   0  0  0  0  0  0  0  0  0  0  0  0
   39.6760   30.6510   39.1200 C   0  0  0  0  0  0  0  0  0  0  0  0
   38.1450   28.8680   41.1020 C   0  0  0  0  0  0  0  0  0  0  0  0
   37.5570   29.5460   42.1620 C   0  0  0  0  0  0  0  0  0  0  0  0
   38.0570   29.0840   43.3650 C   0  0  0  0  0  0  0  0  0  0  0  0
   38.9440   28.1290   43.0000 N   0  0  0  0  0  0  0  0  0  0  0  0
   38.9810   28.0190   41.6780 N   0  0  0  0  0  0  0  0  0  0  0  0
   37.9495   31.3116   39.9541 H   0  0  0  0  0  0  0  0  0  0  0  0
   38.0500   29.9642   37.1329 H   0  0  0  0  0  0  0  0  0  0  0  0
   37.5313   31.5971   37.4301 H   0  0  0  0  0  0  0  0  0  0  0  0
   35.4580   30.8743   38.4029 H   0  0  0  0  0  0  0  0  0  0  0  0
   35.7461   29.4586   37.3776 H   0  0  0  0  0  0  0  0  0  0  0  0
   35.8258   29.6818   40.3019 H   0  0  0  0  0  0  0  0  0  0  0  0
   35.8868   28.2102   39.3229 H   0  0  0  0  0  0  0  0  0  0  0  0
   38.3291   28.3211   39.1520 H   0  0  0  0  0  0  0  0  0  0  0  0
   41.5634   36.0497   39.4481 H   0  0  0  0  0  0  0  0  0  0  0  0
   39.3007   36.8086   40.3023 H   0  0  0  0  0  0  0  0  0  0  0  0
   37.5417   35.0396   40.6656 H   0  0  0  0  0  0  0  0  0  0  0  0
   42.8220   29.6728   38.6290 H   0  0  0  0  0  0  0  0  0  0  0  0
   40.3394   28.5886   38.6192 H   0  0  0  0  0  0  0  0  0  0  0  0
   36.8008   30.3381   42.0588 H   0  0  0  0  0  0  0  0  0  0  0  0
   37.7954   29.4149   44.3809 H   0  0  0  0  0  0  0  0  0  0  0  0
   39.5088   27.5685   43.6540 H   0  0  0  0  0  0  0  0  0  0  0  0
  1  5  1  0
  2  3  1  0
  2  1  1  0
  3  4  1  0
  4  5  1  0
  5 17  1  0
  6  7  2  0
  7  8  1  0
  9  8  2  0
 10  9  1  0
 11 10  2  0
 11  6  1  0
 12 10  1  0
 13 12  1  0
 14 13  2  0
 15 14  1  0
 15 16  2  0
 16  1  1  0
 16 12  1  0
 17 21  2  0
 17 18  1  0
 18 19  2  0
 20 19  1  0
 21 20  1  0
  1 22  1  1
  2 23  1  0
  2 24  1  0
  3 25  1  0
  3 26  1  0
  4 27  1  0
  4 28  1  0
  5 29  1  6
  6 30  1  0
  7 31  1  0
  8 32  1  0
 14 33  1  0
 15 34  1  0
 18 35  1  0
 19 36  1  0
 20 37  1  0
M  ISO  8  22  13  23  13  24  13  25  13  26  13  27  13  28  13  29  13
M  ISO  8  30  14  31  14  32  14  33  14  34  14  35  14  36  14  37   9
M  END
>  <minimizedAffinity>  (1) 
-5.23608398

>  <minimizedRMSD>  (1) 
5.37749529

$$$$
