
     RDKit          3D

 42 46  0  0  0  0  0  0  0  0999 V2000
   38.2270   24.4570   42.1920 C   0  0  0  0  0  0  0  0  0  0  0  0
   39.5480   24.6360   42.6310 C   0  0  0  0  0  0  0  0  0  0  0  0
   39.8940   25.9000   43.2060 C   0  0  0  0  0  0  0  0  0  0  0  0
   38.9200   26.8560   43.2920 N   0  0  0  0  0  0  0  0  0  0  0  0
   37.6600   26.6280   42.8520 C   0  0  0  0  0  0  0  0  0  0  0  0
   37.3190   25.4350   42.3060 N   0  0  0  0  0  0  0  0  0  0  0  0
   37.8860   23.2350   41.6350 N   0  0  0  0  0  0  0  0  0  0  0  0
   41.2120   26.1500   43.6700 N   0  0  0  0  0  0  0  0  0  0  0  0
   41.7590   26.6570   44.7880 C   0  0  0  0  0  0  0  0  0  0  0  0
   43.1050   26.6440   44.6540 N   0  0  0  0  0  0  0  0  0  0  0  0
   43.4300   26.1310   43.4540 C   0  0  0  0  0  0  0  0  0  0  0  0
   44.6540   25.9270   42.8930 C   0  0  0  0  0  0  0  0  0  0  0  0
   45.7360   26.2160   43.4680 O   0  0  0  0  0  0  0  0  0  0  0  0
   44.7360   25.3890   41.6580 N   0  0  0  0  0  0  0  0  0  0  0  0
   43.5770   25.0820   41.0480 C   0  0  0  0  0  0  0  0  0  0  0  0
   43.4480   24.5040   39.7360 N   0  0  0  0  0  0  0  0  0  0  0  0
   42.3730   25.2770   41.5870 N   0  0  0  0  0  0  0  0  0  0  0  0
   42.2330   25.8160   42.8290 C   0  0  0  0  0  0  0  0  0  0  0  0
   36.7750   27.6790   42.9990 O   0  0  0  0  0  0  0  0  0  0  0  0
   36.5030   28.5830   41.9790 C   0  0  0  0  0  0  0  0  0  0  0  0
   35.6680   28.7490   40.9180 N   0  0  0  0  0  0  0  0  0  0  0  0
   35.9440   29.8740   40.3300 O   0  0  0  0  0  0  0  0  0  0  0  0
   36.9180   30.4750   40.9410 C   0  0  0  0  0  0  0  0  0  0  0  0
   37.3050   29.6940   41.9920 N   0  0  0  0  0  0  0  0  0  0  0  0
   37.5570   31.7760   40.6210 C   0  0  0  0  0  0  0  0  0  0  0  0
   36.9040   32.7180   39.8380 C   0  0  0  0  0  0  0  0  0  0  0  0
   37.5460   33.9310   39.5670 C   0  0  0  0  0  0  0  0  0  0  0  0
   38.8070   34.2040   40.0610 C   0  0  0  0  0  0  0  0  0  0  0  0
   39.4250   33.2360   40.8390 C   0  0  0  0  0  0  0  0  0  0  0  0
   38.8140   32.0420   41.1170 C   0  0  0  0  0  0  0  0  0  0  0  0
   40.2924   23.8317   42.5363 H   0  0  0  0  0  0  0  0  0  0  0  0
   38.5936   22.4910   41.5530 H   0  0  0  0  0  0  0  0  0  0  0  0
   36.9250   23.0706   41.3029 H   0  0  0  0  0  0  0  0  0  0  0  0
   41.2048   27.0216   45.6654 H   0  0  0  0  0  0  0  0  0  0  0  0
   45.6447   25.2211   41.2032 H   0  0  0  0  0  0  0  0  0  0  0  0
   44.2898   24.2903   39.1823 H   0  0  0  0  0  0  0  0  0  0  0  0
   42.5139   24.3041   39.3509 H   0  0  0  0  0  0  0  0  0  0  0  0
   35.8998   32.5143   39.4378 H   0  0  0  0  0  0  0  0  0  0  0  0
   37.0360   34.6834   38.9475 H   0  0  0  0  0  0  0  0  0  0  0  0
   39.3059   35.1600   39.8440 H   0  0  0  0  0  0  0  0  0  0  0  0
   40.4295   33.4319   41.2422 H   0  0  0  0  0  0  0  0  0  0  0  0
   39.3285   31.2938   41.7379 H   0  0  0  0  0  0  0  0  0  0  0  0
  1  6  2  0
  1  2  1  0
  2  3  2  0
  3  4  1  0
  3  8  1  0
  5 19  1  0
  5  4  2  0
  6  5  1  0
  7  1  1  0
  8  9  1  0
 10  9  2  0
 11 10  1  0
 12 11  1  0
 12 13  2  0
 14 12  1  0
 15 17  2  0
 15 14  1  0
 16 15  1  0
 17 18  1  0
 18 11  2  0
 18  8  1  0
 20 24  1  0
 20 19  1  0
 21 20  2  0
 22 21  1  0
 22 23  1  0
 23 24  2  0
 25 23  1  0
 25 30  1  0
 26 25  2  0
 27 26  1  0
 27 28  2  0
 28 29  1  0
 29 30  2  0
  2 31  1  0
  7 32  1  0
  7 33  1  0
  9 34  1  0
 14 35  1  0
 16 36  1  0
 16 37  1  0
 26 38  1  0
 27 39  1  0
 28 40  1  0
 29 41  1  0
 30 42  1  0
M  ISO  8  31  14  34  14  35   9  38  14  39  14  40  14  41  14  42  14
M  END
>  <minimizedAffinity>  (1) 
-6.59967709

>  <minimizedRMSD>  (1) 
0.728346229

$$$$
