
     RDKit          3D

 44 47  0  0  0  0  0  0  0  0999 V2000
   36.5560   27.4770   42.8180 O   0  0  0  0  0  0  0  0  0  0  0  0
   38.0370   24.3000   41.9100 C   0  0  0  0  0  0  0  0  0  0  0  0
   39.3290   24.4330   42.4440 C   0  0  0  0  0  0  0  0  0  0  0  0
   39.6430   25.6500   43.1160 C   0  0  0  0  0  0  0  0  0  0  0  0
   38.6760   26.6010   43.1960 N   0  0  0  0  0  0  0  0  0  0  0  0
   37.4410   26.4170   42.6580 C   0  0  0  0  0  0  0  0  0  0  0  0
   37.1220   25.2830   42.0230 N   0  0  0  0  0  0  0  0  0  0  0  0
   37.7270   23.1080   41.2520 N   0  0  0  0  0  0  0  0  0  0  0  0
   40.9900   25.7810   43.6690 C   0  0  0  0  0  0  0  0  0  0  0  0
   42.0770   25.5750   42.6210 C   0  0  0  0  0  0  0  0  0  0  0  0
   43.3670   25.3530   43.4020 C   0  0  0  0  0  0  0  0  0  0  0  0
   43.6820   26.4840   44.3240 C   0  0  0  0  0  0  0  0  0  0  0  0
   42.5230   27.0700   45.0510 C   0  0  0  0  0  0  0  0  0  0  0  0
   41.2490   27.1570   44.2710 C   0  0  0  0  0  0  0  0  0  0  0  0
   36.3310   28.4300   41.8320 C   0  0  0  0  0  0  0  0  0  0  0  0
   35.5230   28.6710   40.7780 N   0  0  0  0  0  0  0  0  0  0  0  0
   35.8510   29.8130   40.2360 O   0  0  0  0  0  0  0  0  0  0  0  0
   36.8510   30.3480   40.8920 C   0  0  0  0  0  0  0  0  0  0  0  0
   37.1750   29.5090   41.8960 N   0  0  0  0  0  0  0  0  0  0  0  0
   37.5170   31.6350   40.6010 C   0  0  0  0  0  0  0  0  0  0  0  0
   36.9400   32.6460   39.8790 C   0  0  0  0  0  0  0  0  0  0  0  0
   37.6440   33.8300   39.6510 C   0  0  0  0  0  0  0  0  0  0  0  0
   38.9210   34.0150   40.1410 C   0  0  0  0  0  0  0  0  0  0  0  0
   39.4880   32.9810   40.8710 C   0  0  0  0  0  0  0  0  0  0  0  0
   38.7980   31.8230   41.0920 C   0  0  0  0  0  0  0  0  0  0  0  0
   40.0716   23.6273   42.3472 H   0  0  0  0  0  0  0  0  0  0  0  0
   38.4353   22.3644   41.1724 H   0  0  0  0  0  0  0  0  0  0  0  0
   36.7901   22.9724   40.8462 H   0  0  0  0  0  0  0  0  0  0  0  0
   41.0339   24.9997   44.4421 H   0  0  0  0  0  0  0  0  0  0  0  0
   42.1651   26.4646   41.9800 H   0  0  0  0  0  0  0  0  0  0  0  0
   41.8497   24.7236   41.9626 H   0  0  0  0  0  0  0  0  0  0  0  0
   43.2655   24.4325   43.9956 H   0  0  0  0  0  0  0  0  0  0  0  0
   44.1883   25.2780   42.6741 H   0  0  0  0  0  0  0  0  0  0  0  0
   44.4003   26.1188   45.0728 H   0  0  0  0  0  0  0  0  0  0  0  0
   44.0720   27.2901   43.6851 H   0  0  0  0  0  0  0  0  0  0  0  0
   42.3337   26.4517   45.9409 H   0  0  0  0  0  0  0  0  0  0  0  0
   42.8059   28.1074   45.2830 H   0  0  0  0  0  0  0  0  0  0  0  0
   41.3481   27.9052   43.4707 H   0  0  0  0  0  0  0  0  0  0  0  0
   40.4150   27.4605   44.9208 H   0  0  0  0  0  0  0  0  0  0  0  0
   35.9225   32.5251   39.4790 H   0  0  0  0  0  0  0  0  0  0  0  0
   37.1703   34.6334   39.0678 H   0  0  0  0  0  0  0  0  0  0  0  0
   39.4702   34.9505   39.9588 H   0  0  0  0  0  0  0  0  0  0  0  0
   40.5043   33.0946   41.2764 H   0  0  0  0  0  0  0  0  0  0  0  0
   39.2720   31.0195   41.6748 H   0  0  0  0  0  0  0  0  0  0  0  0
  2  7  2  0
  2  3  1  0
  3  4  2  0
  4  5  1  0
  4  9  1  0
  6  1  1  0
  6  5  2  0
  7  6  1  0
  8  2  1  0
  9 14  1  0
 10 11  1  0
 10  9  1  0
 11 12  1  0
 12 13  1  0
 14 13  1  0
 15 19  1  0
 15  1  1  0
 16 15  2  0
 17 16  1  0
 17 18  1  0
 18 19  2  0
 20 18  1  0
 20 25  1  0
 21 20  2  0
 22 21  1  0
 22 23  2  0
 23 24  1  0
 24 25  2  0
  3 26  1  0
  8 27  1  0
  8 28  1  0
  9 29  1  0
 10 30  1  0
 10 31  1  0
 11 32  1  0
 11 33  1  0
 12 34  1  0
 12 35  1  0
 13 36  1  0
 13 37  1  0
 14 38  1  0
 14 39  1  0
 21 40  1  0
 22 41  1  0
 23 42  1  0
 24 43  1  0
 25 44  1  0
M  ISO  8  26  14  29  13  30  13  31  13  32  13  33  13  34  13  35  13
M  ISO  8  36  13  37  13  38  13  39  13  40  14  41  14  42  14  43  14
M  ISO  1  44  14
M  END
>  <minimizedAffinity>  (1) 
-6.58258677

>  <minimizedRMSD>  (1) 
0.672779918

$$$$
