
     RDKit          3D

 35 38  0  0  0  0  0  0  0  0999 V2000
   36.7140   27.5950   42.9640 O   0  0  0  0  0  0  0  0  0  0  0  0
   38.2590   24.4320   42.1510 C   0  0  0  0  0  0  0  0  0  0  0  0
   39.5630   24.6320   42.6430 C   0  0  0  0  0  0  0  0  0  0  0  0
   39.8640   25.8900   43.2530 C   0  0  0  0  0  0  0  0  0  0  0  0
   38.8790   26.8210   43.3260 N   0  0  0  0  0  0  0  0  0  0  0  0
   37.6340   26.5750   42.8340 C   0  0  0  0  0  0  0  0  0  0  0  0
   37.3210   25.3890   42.2500 N   0  0  0  0  0  0  0  0  0  0  0  0
   37.9680   23.2080   41.5580 N   0  0  0  0  0  0  0  0  0  0  0  0
   41.1950   26.0850   43.7510 C   0  0  0  0  0  0  0  0  0  0  0  0
   42.3290   25.4670   43.2850 C   0  0  0  0  0  0  0  0  0  0  0  0
   43.3580   25.9670   44.0670 C   0  0  0  0  0  0  0  0  0  0  0  0
   42.7760   26.8660   44.9670 C   0  0  0  0  0  0  0  0  0  0  0  0
   41.4880   26.8860   44.7220 O   0  0  0  0  0  0  0  0  0  0  0  0
   36.4530   28.5200   41.9730 C   0  0  0  0  0  0  0  0  0  0  0  0
   35.6020   28.7100   40.9320 N   0  0  0  0  0  0  0  0  0  0  0  0
   35.8860   29.8450   40.3520 O   0  0  0  0  0  0  0  0  0  0  0  0
   36.8810   30.4160   40.9570 C   0  0  0  0  0  0  0  0  0  0  0  0
   37.2630   29.6050   41.9850 N   0  0  0  0  0  0  0  0  0  0  0  0
   37.5370   31.7100   40.6450 C   0  0  0  0  0  0  0  0  0  0  0  0
   36.9110   32.6660   39.8560 C   0  0  0  0  0  0  0  0  0  0  0  0
   37.5640   33.8650   39.5890 C   0  0  0  0  0  0  0  0  0  0  0  0
   38.8320   34.1210   40.0990 C   0  0  0  0  0  0  0  0  0  0  0  0
   39.4130   33.1490   40.8740 C   0  0  0  0  0  0  0  0  0  0  0  0
   38.7940   31.9630   41.1510 C   0  0  0  0  0  0  0  0  0  0  0  0
   40.3268   23.8447   42.5607 H   0  0  0  0  0  0  0  0  0  0  0  0
   38.6965   22.4832   41.4887 H   0  0  0  0  0  0  0  0  0  0  0  0
   37.0240   23.0264   41.1882 H   0  0  0  0  0  0  0  0  0  0  0  0
   42.4044   24.7341   42.4682 H   0  0  0  0  0  0  0  0  0  0  0  0
   44.4245   25.7076   43.9942 H   0  0  0  0  0  0  0  0  0  0  0  0
   43.3018   27.4485   45.7379 H   0  0  0  0  0  0  0  0  0  0  0  0
   35.9080   32.4770   39.4459 H   0  0  0  0  0  0  0  0  0  0  0  0
   37.0691   34.6230   38.9641 H   0  0  0  0  0  0  0  0  0  0  0  0
   39.3504   35.0681   39.8889 H   0  0  0  0  0  0  0  0  0  0  0  0
   40.4156   33.3317   41.2881 H   0  0  0  0  0  0  0  0  0  0  0  0
   39.2977   31.2114   41.7766 H   0  0  0  0  0  0  0  0  0  0  0  0
  2  7  2  0
  2  3  1  0
  3  4  2  0
  4  5  1  0
  4  9  1  0
  6  1  1  0
  6  5  2  0
  7  6  1  0
  8  2  1  0
  9 13  1  0
 10  9  2  0
 10 11  1  0
 11 12  2  0
 13 12  1  0
 14 18  1  0
 14  1  1  0
 15 14  2  0
 16 15  1  0
 16 17  1  0
 17 18  2  0
 19 17  1  0
 19 24  1  0
 20 19  2  0
 21 20  1  0
 21 22  2  0
 22 23  1  0
 23 24  2  0
  3 25  1  0
  8 26  1  0
  8 27  1  0
 10 28  1  0
 11 29  1  0
 12 30  1  0
 20 31  1  0
 21 32  1  0
 22 33  1  0
 23 34  1  0
 24 35  1  0
M  ISO  8  25  14  28  14  29  14  30  14  31  14  32  14  33  14  34  14
M  ISO  1  35  14
M  END
>  <minimizedAffinity>  (1) 
-6.33086777

>  <minimizedRMSD>  (1) 
0.444808424

$$$$
