
     RDKit          3D

 35 38  0  0  0  0  0  0  0  0999 V2000
   36.9520   28.5100   42.3580 C   0  0  0  0  0  0  0  0  0  0  0  0
   36.0160   28.5620   41.3840 N   0  0  0  0  0  0  0  0  0  0  0  0
   36.1490   29.6740   40.7160 O   0  0  0  0  0  0  0  0  0  0  0  0
   37.1420   30.3760   41.2020 C   0  0  0  0  0  0  0  0  0  0  0  0
   37.6710   29.6700   42.2410 N   0  0  0  0  0  0  0  0  0  0  0  0
   37.6440   31.6950   40.7540 C   0  0  0  0  0  0  0  0  0  0  0  0
   36.9170   32.5130   39.9150 C   0  0  0  0  0  0  0  0  0  0  0  0
   37.4380   33.7440   39.5260 C   0  0  0  0  0  0  0  0  0  0  0  0
   38.6820   34.1610   39.9690 C   0  0  0  0  0  0  0  0  0  0  0  0
   39.3840   33.3240   40.8040 C   0  0  0  0  0  0  0  0  0  0  0  0
   38.8750   32.1170   41.1880 C   0  0  0  0  0  0  0  0  0  0  0  0
   37.3740   27.6730   43.3820 O   0  0  0  0  0  0  0  0  0  0  0  0
   38.9060   24.5470   42.4380 C   0  0  0  0  0  0  0  0  0  0  0  0
   40.2220   24.7270   42.9060 C   0  0  0  0  0  0  0  0  0  0  0  0
   40.5350   25.9690   43.5530 C   0  0  0  0  0  0  0  0  0  0  0  0
   39.5390   26.8820   43.6680 N   0  0  0  0  0  0  0  0  0  0  0  0
   38.2940   26.6580   43.2000 C   0  0  0  0  0  0  0  0  0  0  0  0
   37.9750   25.4900   42.5850 N   0  0  0  0  0  0  0  0  0  0  0  0
   38.6360   23.3280   41.8130 N   0  0  0  0  0  0  0  0  0  0  0  0
   41.8210   26.2530   44.0590 C   0  0  0  0  0  0  0  0  0  0  0  0
   42.1960   27.0380   45.1270 C   0  0  0  0  0  0  0  0  0  0  0  0
   43.5090   27.1760   45.4450 C   0  0  0  0  0  0  0  0  0  0  0  0
   44.4560   26.4530   44.5960 C   0  0  0  0  0  0  0  0  0  0  0  0
   43.3300   25.5940   43.3520 S   0  0  0  0  0  0  0  0  0  0  0  0
   35.9282   32.1937   39.5541 H   0  0  0  0  0  0  0  0  0  0  0  0
   36.8538   34.3940   38.8580 H   0  0  0  0  0  0  0  0  0  0  0  0
   39.0961   35.1327   39.6621 H   0  0  0  0  0  0  0  0  0  0  0  0
   40.3745   33.6329   41.1695 H   0  0  0  0  0  0  0  0  0  0  0  0
   39.4624   31.4713   41.8573 H   0  0  0  0  0  0  0  0  0  0  0  0
   40.9833   23.9430   42.7800 H   0  0  0  0  0  0  0  0  0  0  0  0
   39.3802   22.6225   41.7171 H   0  0  0  0  0  0  0  0  0  0  0  0
   37.6926   23.1343   41.4479 H   0  0  0  0  0  0  0  0  0  0  0  0
   41.4298   27.5545   45.7239 H   0  0  0  0  0  0  0  0  0  0  0  0
   43.8411   27.7952   46.2914 H   0  0  0  0  0  0  0  0  0  0  0  0
   45.5532   26.4191   44.6662 H   0  0  0  0  0  0  0  0  0  0  0  0
  1 12  1  0
  2  1  2  0
  3  4  1  0
  3  2  1  0
  4  5  2  0
  5  1  1  0
  6 11  1  0
  6  4  1  0
  7  6  2  0
  8  7  1  0
  8  9  2  0
  9 10  1  0
 10 11  2  0
 13 18  2  0
 13 14  1  0
 14 15  2  0
 15 16  1  0
 15 20  1  0
 17 12  1  0
 17 16  2  0
 18 17  1  0
 19 13  1  0
 20 21  2  0
 21 22  1  0
 23 22  2  0
 24 20  1  0
 24 23  1  0
  7 25  1  0
  8 26  1  0
  9 27  1  0
 10 28  1  0
 11 29  1  0
 14 30  1  0
 19 31  1  0
 19 32  1  0
 21 33  1  0
 22 34  1  0
 23 35  1  0
M  ISO  8  25  14  26  14  27  14  28  14  29  14  30  14  33  14  34  14
M  ISO  1  35  14
M  END
>  <minimizedAffinity>  (1) 
-6.28377485

>  <minimizedRMSD>  (1) 
0.586095691

$$$$
