
     RDKit          3D

 34 37  0  0  0  0  0  0  0  0999 V2000
   36.5400   28.5050   42.0170 C   0  0  0  0  0  0  0  0  0  0  0  0
   35.7110   28.6560   40.9650 N   0  0  0  0  0  0  0  0  0  0  0  0
   35.9750   29.7950   40.3720 O   0  0  0  0  0  0  0  0  0  0  0  0
   36.9490   30.4040   40.9910 C   0  0  0  0  0  0  0  0  0  0  0  0
   37.3270   29.6250   42.0260 N   0  0  0  0  0  0  0  0  0  0  0  0
   37.5500   31.7110   40.6470 C   0  0  0  0  0  0  0  0  0  0  0  0
   36.9160   32.6500   39.8650 C   0  0  0  0  0  0  0  0  0  0  0  0
   37.5450   33.8590   39.5830 C   0  0  0  0  0  0  0  0  0  0  0  0
   38.8080   34.1410   40.0760 C   0  0  0  0  0  0  0  0  0  0  0  0
   39.4210   33.1970   40.8500 C   0  0  0  0  0  0  0  0  0  0  0  0
   38.8060   32.0030   41.1320 C   0  0  0  0  0  0  0  0  0  0  0  0
   36.8130   27.6030   43.0280 O   0  0  0  0  0  0  0  0  0  0  0  0
   38.3410   24.4220   42.2120 C   0  0  0  0  0  0  0  0  0  0  0  0
   39.6450   24.6000   42.6930 C   0  0  0  0  0  0  0  0  0  0  0  0
   39.9530   25.8650   43.3050 C   0  0  0  0  0  0  0  0  0  0  0  0
   38.9690   26.8000   43.3770 N   0  0  0  0  0  0  0  0  0  0  0  0
   37.7160   26.5660   42.8890 C   0  0  0  0  0  0  0  0  0  0  0  0
   37.4220   25.3900   42.3180 N   0  0  0  0  0  0  0  0  0  0  0  0
   38.0390   23.1980   41.6180 N   0  0  0  0  0  0  0  0  0  0  0  0
   41.2580   26.1150   43.8150 N   0  0  0  0  0  0  0  0  0  0  0  0
   41.8890   26.8820   44.7100 C   0  0  0  0  0  0  0  0  0  0  0  0
   43.1930   26.6030   44.6910 N   0  0  0  0  0  0  0  0  0  0  0  0
   43.3940   25.6390   43.7650 C   0  0  0  0  0  0  0  0  0  0  0  0
   42.2020   25.3570   43.2450 N   0  0  0  0  0  0  0  0  0  0  0  0
   35.9128   32.4448   39.4633 H   0  0  0  0  0  0  0  0  0  0  0  0
   37.0301   34.6033   38.9578 H   0  0  0  0  0  0  0  0  0  0  0  0
   39.3031   35.0971   39.8509 H   0  0  0  0  0  0  0  0  0  0  0  0
   40.4243   33.3972   41.2540 H   0  0  0  0  0  0  0  0  0  0  0  0
   39.3267   31.2637   41.7583 H   0  0  0  0  0  0  0  0  0  0  0  0
   40.4013   23.8060   42.6063 H   0  0  0  0  0  0  0  0  0  0  0  0
   38.7618   22.4676   41.5473 H   0  0  0  0  0  0  0  0  0  0  0  0
   37.0930   23.0238   41.2497 H   0  0  0  0  0  0  0  0  0  0  0  0
   41.4077   27.6270   45.3606 H   0  0  0  0  0  0  0  0  0  0  0  0
   44.3552   25.1777   43.4942 H   0  0  0  0  0  0  0  0  0  0  0  0
  1  5  1  0
  1 12  1  0
  2  1  2  0
  3  2  1  0
  3  4  1  0
  4  5  2  0
  6  4  1  0
  6 11  1  0
  7  6  2  0
  8  7  1  0
  8  9  2  0
  9 10  1  0
 10 11  2  0
 13 18  2  0
 13 14  1  0
 14 15  2  0
 15 16  1  0
 15 20  1  0
 17 12  1  0
 17 16  2  0
 18 17  1  0
 19 13  1  0
 20 21  1  0
 22 21  2  0
 23 22  1  0
 24 23  2  0
 24 20  1  0
  7 25  1  0
  8 26  1  0
  9 27  1  0
 10 28  1  0
 11 29  1  0
 14 30  1  0
 19 31  1  0
 19 32  1  0
 21 33  1  0
 23 34  1  0
M  ISO  8  25  14  26  14  27  14  28  14  29  14  30  14  33  14  34  14
M  END
>  <minimizedAffinity>  (1) 
-6.24847889

>  <minimizedRMSD>  (1) 
0.419608921

$$$$
