
     RDKit          3D

 35 38  0  0  0  0  0  0  0  0999 V2000
   36.3480   28.4590   41.8220 C   0  0  0  0  0  0  0  0  0  0  0  0
   35.6040   28.6450   40.7110 N   0  0  0  0  0  0  0  0  0  0  0  0
   35.9340   29.7850   40.1570 O   0  0  0  0  0  0  0  0  0  0  0  0
   36.8760   30.3740   40.8590 C   0  0  0  0  0  0  0  0  0  0  0  0
   37.1460   29.5580   41.9020 N   0  0  0  0  0  0  0  0  0  0  0  0
   37.5210   31.6650   40.5780 C   0  0  0  0  0  0  0  0  0  0  0  0
   36.9200   32.6690   39.8490 C   0  0  0  0  0  0  0  0  0  0  0  0
   37.5890   33.8620   39.6220 C   0  0  0  0  0  0  0  0  0  0  0  0
   38.8790   34.0690   40.1290 C   0  0  0  0  0  0  0  0  0  0  0  0
   39.4660   33.0520   40.8570 C   0  0  0  0  0  0  0  0  0  0  0  0
   38.7880   31.8740   41.0720 C   0  0  0  0  0  0  0  0  0  0  0  0
   36.5190   27.5350   42.8300 O   0  0  0  0  0  0  0  0  0  0  0  0
   38.2760   24.4290   42.2190 C   0  0  0  0  0  0  0  0  0  0  0  0
   39.5290   24.6890   42.8080 C   0  0  0  0  0  0  0  0  0  0  0  0
   39.7050   25.9680   43.4060 C   0  0  0  0  0  0  0  0  0  0  0  0
   38.6810   26.8580   43.3810 N   0  0  0  0  0  0  0  0  0  0  0  0
   37.4850   26.5480   42.7930 C   0  0  0  0  0  0  0  0  0  0  0  0
   37.2830   25.3400   42.2150 N   0  0  0  0  0  0  0  0  0  0  0  0
   38.0870   23.1710   41.6240 N   0  0  0  0  0  0  0  0  0  0  0  0
   40.9950   26.3290   44.0510 C   0  0  0  0  0  0  0  0  0  0  0  0
   42.2010   26.5410   43.1080 C   0  0  0  0  0  0  0  0  0  0  0  0
   41.5850   27.6770   43.8370 C   0  0  0  0  0  0  0  0  0  0  0  0
   35.9068   32.5232   39.4463 H   0  0  0  0  0  0  0  0  0  0  0  0
   37.1013   34.6556   39.0369 H   0  0  0  0  0  0  0  0  0  0  0  0
   39.4100   35.0159   39.9521 H   0  0  0  0  0  0  0  0  0  0  0  0
   40.4785   33.1844   41.2660 H   0  0  0  0  0  0  0  0  0  0  0  0
   39.2726   31.0771   41.6552 H   0  0  0  0  0  0  0  0  0  0  0  0
   40.3333   23.9386   42.8057 H   0  0  0  0  0  0  0  0  0  0  0  0
   37.1856   22.9405   41.1822 H   0  0  0  0  0  0  0  0  0  0  0  0
   38.8498   22.4789   41.6294 H   0  0  0  0  0  0  0  0  0  0  0  0
   40.7628   25.7279   44.9425 H   0  0  0  0  0  0  0  0  0  0  0  0
   42.0751   26.4486   42.0191 H   0  0  0  0  0  0  0  0  0  0  0  0
   43.2136   26.1201   43.0217 H   0  0  0  0  0  0  0  0  0  0  0  0
   42.1397   28.1621   44.6537 H   0  0  0  0  0  0  0  0  0  0  0  0
   41.1727   28.6481   43.5255 H   0  0  0  0  0  0  0  0  0  0  0  0
  1  5  1  0
  1 12  1  0
  2  1  2  0
  3  2  1  0
  3  4  1  0
  4  5  2  0
  6  4  1  0
  6 11  1  0
  7  6  2  0
  8  7  1  0
  8  9  2  0
  9 10  1  0
 10 11  2  0
 13 14  2  0
 14 15  1  0
 15 20  1  0
 16 15  2  0
 17 12  1  0
 17 16  1  0
 18 13  1  0
 18 17  2  0
 19 13  1  0
 21 22  1  0
 21 20  1  0
 22 20  1  0
  7 23  1  0
  8 24  1  0
  9 25  1  0
 10 26  1  0
 11 27  1  0
 14 28  1  0
 19 29  1  0
 19 30  1  0
 20 31  1  0
 21 32  1  0
 21 33  1  0
 22 34  1  0
 22 35  1  0
M  ISO  8  23  14  24  14  25  14  26  14  27  14  28  14  31  13  32  13
M  ISO  3  33  13  34  13  35  13
M  END
>  <minimizedAffinity>  (1) 
-5.88676262

>  <minimizedRMSD>  (1) 
0.687355638

$$$$
