
     RDKit          3D

 40 42  0  0  0  0  0  0  0  0999 V2000
   36.2430   28.6460   41.7700 C   0  0  0  0  0  0  0  0  0  0  0  0
   35.3830   28.9370   40.7600 N   0  0  0  0  0  0  0  0  0  0  0  0
   35.7150   30.0790   40.2290 O   0  0  0  0  0  0  0  0  0  0  0  0
   36.7540   30.5720   40.8320 C   0  0  0  0  0  0  0  0  0  0  0  0
   37.1110   29.6900   41.8100 N   0  0  0  0  0  0  0  0  0  0  0  0
   37.4730   31.8420   40.5670 C   0  0  0  0  0  0  0  0  0  0  0  0
   36.8950   32.8340   39.7880 C   0  0  0  0  0  0  0  0  0  0  0  0
   37.6190   34.0210   39.5670 C   0  0  0  0  0  0  0  0  0  0  0  0
   38.8850   34.1990   40.1160 C   0  0  0  0  0  0  0  0  0  0  0  0
   39.4080   33.1860   40.8760 C   0  0  0  0  0  0  0  0  0  0  0  0
   38.7220   32.0260   41.1040 C   0  0  0  0  0  0  0  0  0  0  0  0
   36.4730   27.6570   42.7090 O   0  0  0  0  0  0  0  0  0  0  0  0
   38.3750   24.6210   42.1660 C   0  0  0  0  0  0  0  0  0  0  0  0
   39.6820   25.0530   42.4460 C   0  0  0  0  0  0  0  0  0  0  0  0
   39.8540   26.4190   42.8230 C   0  0  0  0  0  0  0  0  0  0  0  0
   38.7410   27.2140   42.8850 N   0  0  0  0  0  0  0  0  0  0  0  0
   37.5040   26.7410   42.6040 C   0  0  0  0  0  0  0  0  0  0  0  0
   37.3160   25.4530   42.2460 N   0  0  0  0  0  0  0  0  0  0  0  0
   38.1830   23.2930   41.7970 N   0  0  0  0  0  0  0  0  0  0  0  0
   41.2080   26.9380   43.1320 C   0  0  0  0  0  0  0  0  0  0  0  0
   41.2300   28.4500   42.8840 C   0  0  0  0  0  0  0  0  0  0  0  0
   41.6580   26.6250   44.5230 C   0  0  0  0  0  0  0  0  0  0  0  0
   42.2560   26.3540   42.1960 C   0  0  0  0  0  0  0  0  0  0  0  0
   35.8941   32.6962   39.3531 H   0  0  0  0  0  0  0  0  0  0  0  0
   37.1776   34.8189   38.9517 H   0  0  0  0  0  0  0  0  0  0  0  0
   39.4502   35.1270   39.9447 H   0  0  0  0  0  0  0  0  0  0  0  0
   40.4088   33.3099   41.3153 H   0  0  0  0  0  0  0  0  0  0  0  0
   39.1738   31.2356   41.7214 H   0  0  0  0  0  0  0  0  0  0  0  0
   40.5385   24.3662   42.3775 H   0  0  0  0  0  0  0  0  0  0  0  0
   38.9886   22.6542   41.7346 H   0  0  0  0  0  0  0  0  0  0  0  0
   37.2353   22.9489   41.5863 H   0  0  0  0  0  0  0  0  0  0  0  0
   41.2377   28.9796   43.8481 H   0  0  0  0  0  0  0  0  0  0  0  0
   42.1321   28.7148   42.3129 H   0  0  0  0  0  0  0  0  0  0  0  0
   40.3360   28.7409   42.3129 H   0  0  0  0  0  0  0  0  0  0  0  0
   40.9763   27.0992   45.2444 H   0  0  0  0  0  0  0  0  0  0  0  0
   41.6516   25.5354   44.6740 H   0  0  0  0  0  0  0  0  0  0  0  0
   42.6773   27.0101   44.6740 H   0  0  0  0  0  0  0  0  0  0  0  0
   43.0658   25.9027   42.7881 H   0  0  0  0  0  0  0  0  0  0  0  0
   41.7927   25.5840   41.5616 H   0  0  0  0  0  0  0  0  0  0  0  0
   42.6671   27.1531   41.5616 H   0  0  0  0  0  0  0  0  0  0  0  0
  1  5  1  0
  1 12  1  0
  2  1  2  0
  3  2  1  0
  3  4  1  0
  4  5  2  0
  6  4  1  0
  6 11  1  0
  7  6  2  0
  8  7  1  0
  8  9  2  0
  9 10  1  0
 10 11  2  0
 13 18  2  0
 13 14  1  0
 14 15  2  0
 15 16  1  0
 15 20  1  0
 17 12  1  0
 17 16  2  0
 18 17  1  0
 19 13  1  0
 20 22  1  0
 21 20  1  0
 23 20  1  0
  7 24  1  0
  8 25  1  0
  9 26  1  0
 10 27  1  0
 11 28  1  0
 14 29  1  0
 19 30  1  0
 19 31  1  0
 21 32  1  0
 21 33  1  0
 21 34  1  0
 22 35  1  0
 22 36  1  0
 22 37  1  0
 23 38  1  0
 23 39  1  0
 23 40  1  0
M  ISO  8  24  14  25  14  26  14  27  14  28  14  29  14  32   8  33   8
M  ISO  7  34   8  35   8  36   8  37   8  38   8  39   8  40   8
M  END
>  <minimizedAffinity>  (1) 
-5.88407946

>  <minimizedRMSD>  (1) 
0.8681373

$$$$
