
     RDKit          3D

 31 33  0  0  0  0  0  0  0  0999 V2000
   36.2770   28.5300   41.8250 C   0  0  0  0  0  0  0  0  0  0  0  0
   35.5200   28.7320   40.7210 N   0  0  0  0  0  0  0  0  0  0  0  0
   35.8610   29.8610   40.1590 O   0  0  0  0  0  0  0  0  0  0  0  0
   36.8150   30.4230   40.8380 C   0  0  0  0  0  0  0  0  0  0  0  0
   37.0940   29.6080   41.8860 N   0  0  0  0  0  0  0  0  0  0  0  0
   37.5020   31.6990   40.5700 C   0  0  0  0  0  0  0  0  0  0  0  0
   36.9230   32.7140   39.8450 C   0  0  0  0  0  0  0  0  0  0  0  0
   37.6160   33.9050   39.6180 C   0  0  0  0  0  0  0  0  0  0  0  0
   38.8960   34.0890   40.1180 C   0  0  0  0  0  0  0  0  0  0  0  0
   39.4570   33.0570   40.8420 C   0  0  0  0  0  0  0  0  0  0  0  0
   38.7740   31.8890   41.0630 C   0  0  0  0  0  0  0  0  0  0  0  0
   36.4510   27.6050   42.8410 O   0  0  0  0  0  0  0  0  0  0  0  0
   38.2870   24.5380   42.2460 C   0  0  0  0  0  0  0  0  0  0  0  0
   39.5250   24.8250   42.8600 C   0  0  0  0  0  0  0  0  0  0  0  0
   39.6590   26.1030   43.4630 C   0  0  0  0  0  0  0  0  0  0  0  0
   38.6060   26.9610   43.4160 N   0  0  0  0  0  0  0  0  0  0  0  0
   37.4390   26.6280   42.8110 C   0  0  0  0  0  0  0  0  0  0  0  0
   37.2770   25.4260   42.2290 N   0  0  0  0  0  0  0  0  0  0  0  0
   38.1120   23.2840   41.6380 N   0  0  0  0  0  0  0  0  0  0  0  0
   40.9520   26.4220   44.1120 C   0  0  0  0  0  0  0  0  0  0  0  0
   35.9077   32.5870   39.4413 H   0  0  0  0  0  0  0  0  0  0  0  0
   37.1402   34.7074   39.0351 H   0  0  0  0  0  0  0  0  0  0  0  0
   39.4456   35.0258   39.9435 H   0  0  0  0  0  0  0  0  0  0  0  0
   40.4719   33.1737   41.2498 H   0  0  0  0  0  0  0  0  0  0  0  0
   39.2514   31.0875   41.6458 H   0  0  0  0  0  0  0  0  0  0  0  0
   40.3465   24.0935   42.8707 H   0  0  0  0  0  0  0  0  0  0  0  0
   37.2171   23.0523   41.1837 H   0  0  0  0  0  0  0  0  0  0  0  0
   38.8786   22.5961   41.6464 H   0  0  0  0  0  0  0  0  0  0  0  0
   40.8309   26.3921   45.2049 H   0  0  0  0  0  0  0  0  0  0  0  0
   41.7077   25.6834   43.8065 H   0  0  0  0  0  0  0  0  0  0  0  0
   41.2774   27.4274   43.8065 H   0  0  0  0  0  0  0  0  0  0  0  0
  1  5  1  0
  1 12  1  0
  2  1  2  0
  3  2  1  0
  3  4  1  0
  4  5  2  0
  6  4  1  0
  6 11  1  0
  7  6  2  0
  8  7  1  0
  8  9  2  0
  9 10  1  0
 10 11  2  0
 13 14  2  0
 14 15  1  0
 15 20  1  0
 16 15  2  0
 17 12  1  0
 17 16  1  0
 18 13  1  0
 18 17  2  0
 19 13  1  0
  7 21  1  0
  8 22  1  0
  9 23  1  0
 10 24  1  0
 11 25  1  0
 14 26  1  0
 19 27  1  0
 19 28  1  0
 20 29  1  0
 20 30  1  0
 20 31  1  0
M  ISO  8  21  14  22  14  23  14  24  14  25  14  26  14  29   8  30   8
M  ISO  1  31   8
M  END
>  <minimizedAffinity>  (1) 
-5.85666466

>  <minimizedRMSD>  (1) 
0.365527034

$$$$
