
     RDKit          3D

 36 39  0  0  1  0  0  0  0  0999 V2000
   38.2180   28.5350   42.2480 C   0  0  1  0  0  0  0  0  0  0  0  0
   37.7870   27.9900   43.6090 C   0  0  0  0  0  0  0  0  0  0  0  0
   39.0290   27.2200   44.0260 C   0  0  0  0  0  0  0  0  0  0  0  0
   39.7450   26.8640   42.7530 C   0  0  0  0  0  0  0  0  0  0  0  0
   38.8410   27.3220   41.6250 C   0  0  2  0  0  0  0  0  0  0  0  0
   38.0600   33.5690   40.1910 C   0  0  0  0  0  0  0  0  0  0  0  0
   39.4280   33.5630   40.5250 C   0  0  0  0  0  0  0  0  0  0  0  0
   39.9690   32.3590   40.9870 C   0  0  0  0  0  0  0  0  0  0  0  0
   39.1410   31.2880   41.0810 N   0  0  0  0  0  0  0  0  0  0  0  0
   37.8550   31.3010   40.7650 C   0  0  0  0  0  0  0  0  0  0  0  0
   37.3300   32.4570   40.3190 N   0  0  0  0  0  0  0  0  0  0  0  0
   36.9560   30.2030   40.8540 N   0  0  0  0  0  0  0  0  0  0  0  0
   35.7990   30.3330   40.2330 N   0  0  0  0  0  0  0  0  0  0  0  0
   35.0760   29.1920   40.4450 C   0  0  0  0  0  0  0  0  0  0  0  0
   35.8830   28.3680   41.2390 C   0  0  0  0  0  0  0  0  0  0  0  0
   37.0800   29.0350   41.4860 C   0  0  0  0  0  0  0  0  0  0  0  0
   39.7510   27.8030   40.5230 C   0  0  0  0  0  0  0  0  0  0  0  0
   39.3330   27.6080   39.1820 C   0  0  0  0  0  0  0  0  0  0  0  0
   40.6840   28.3140   38.2740 S   0  0  0  0  0  0  0  0  0  0  0  0
   41.6480   28.7850   39.8550 C   0  0  0  0  0  0  0  0  0  0  0  0
   40.9080   28.3910   40.8330 N   0  0  0  0  0  0  0  0  0  0  0  0
   38.8973   29.3988   42.2979 H   0  0  0  0  0  0  0  0  0  0  0  0
   37.5605   28.8025   44.3151 H   0  0  0  0  0  0  0  0  0  0  0  0
   36.8687   27.3850   43.5826 H   0  0  0  0  0  0  0  0  0  0  0  0
   39.6709   27.8465   44.6628 H   0  0  0  0  0  0  0  0  0  0  0  0
   38.7696   26.3221   44.6061 H   0  0  0  0  0  0  0  0  0  0  0  0
   40.7138   27.3823   42.7012 H   0  0  0  0  0  0  0  0  0  0  0  0
   39.9498   25.7849   42.6933 H   0  0  0  0  0  0  0  0  0  0  0  0
   38.1322   26.5753   41.2375 H   0  0  0  0  0  0  0  0  0  0  0  0
   37.5902   34.4931   39.8231 H   0  0  0  0  0  0  0  0  0  0  0  0
   40.0456   34.4680   40.4266 H   0  0  0  0  0  0  0  0  0  0  0  0
   41.0306   32.2827   41.2650 H   0  0  0  0  0  0  0  0  0  0  0  0
   34.0670   28.9674   40.0688 H   0  0  0  0  0  0  0  0  0  0  0  0
   35.6169   27.3654   41.6050 H   0  0  0  0  0  0  0  0  0  0  0  0
   38.4118   27.1410   38.8036 H   0  0  0  0  0  0  0  0  0  0  0  0
   42.6256   29.2855   39.9168 H   0  0  0  0  0  0  0  0  0  0  0  0
  1  2  1  0
  2  3  1  0
  4  3  1  0
  5  1  1  0
  5  4  1  0
  6 11  2  0
  6  7  1  0
  7  8  2  0
  8  9  1  0
 10 12  1  0
 10  9  2  0
 11 10  1  0
 12 16  1  0
 13 14  2  0
 13 12  1  0
 14 15  1  0
 15 16  2  0
 16  1  1  0
 17 21  1  0
 17  5  1  0
 18 17  2  0
 19 18  1  0
 19 20  1  0
 20 21  2  0
  1 22  1  1
  2 23  1  0
  2 24  1  0
  3 25  1  0
  3 26  1  0
  4 27  1  0
  4 28  1  0
  5 29  1  6
  6 30  1  0
  7 31  1  0
  8 32  1  0
 14 33  1  0
 15 34  1  0
 18 35  1  0
 20 36  1  0
M  ISO  8  22  13  23  13  24  13  25  13  26  13  27  13  28  13  29  13
M  ISO  7  30  14  31  14  32  14  33  14  34  14  35  14  36  14
M  END
>  <minimizedAffinity>  (1) 
-5.07505322

>  <minimizedRMSD>  (1) 
5.18156481

$$$$
