
     RDKit          3D

 43 46  0  0  0  0  0  0  0  0999 V2000
   36.9160   27.4010   42.5960 O   0  0  0  0  0  0  0  0  0  0  0  0
   39.7980   25.5460   41.4110 C   0  0  0  0  0  0  0  0  0  0  0  0
   40.6970   25.7140   42.4710 C   0  0  0  0  0  0  0  0  0  0  0  0
   40.2500   26.4900   43.5920 C   0  0  0  0  0  0  0  0  0  0  0  0
   38.9910   27.0030   43.5400 N   0  0  0  0  0  0  0  0  0  0  0  0
   38.1670   26.8170   42.5040 C   0  0  0  0  0  0  0  0  0  0  0  0
   38.5560   26.0900   41.4300 N   0  0  0  0  0  0  0  0  0  0  0  0
   41.1230   26.6870   44.6890 N   0  0  0  0  0  0  0  0  0  0  0  0
   42.0370   25.1750   42.5520 C   0  0  0  0  0  0  0  0  0  0  0  0
   42.7820   25.6130   41.2840 C   0  0  0  0  0  0  0  0  0  0  0  0
   44.2360   25.7010   41.7150 C   0  0  0  0  0  0  0  0  0  0  0  0
   44.0320   26.3260   43.1050 C   0  0  0  0  0  0  0  0  0  0  0  0
   42.9540   25.4250   43.6150 C   0  0  0  0  0  0  0  0  0  0  0  0
   40.1820   24.8010   40.2960 N   0  0  0  0  0  0  0  0  0  0  0  0
   36.5110   28.4600   41.8040 C   0  0  0  0  0  0  0  0  0  0  0  0
   35.4800   28.8250   41.0220 N   0  0  0  0  0  0  0  0  0  0  0  0
   35.7100   30.0120   40.5250 O   0  0  0  0  0  0  0  0  0  0  0  0
   36.8630   30.4520   40.9510 C   0  0  0  0  0  0  0  0  0  0  0  0
   37.3770   29.4970   41.7510 N   0  0  0  0  0  0  0  0  0  0  0  0
   37.4750   31.7480   40.6150 C   0  0  0  0  0  0  0  0  0  0  0  0
   36.8910   32.7060   39.8360 C   0  0  0  0  0  0  0  0  0  0  0  0
   37.5560   33.9030   39.5770 C   0  0  0  0  0  0  0  0  0  0  0  0
   38.8220   34.1440   40.1040 C   0  0  0  0  0  0  0  0  0  0  0  0
   39.4010   33.1840   40.8810 C   0  0  0  0  0  0  0  0  0  0  0  0
   38.7400   32.0060   41.1330 C   0  0  0  0  0  0  0  0  0  0  0  0
   40.8141   27.2421   45.4998 H   0  0  0  0  0  0  0  0  0  0  0  0
   42.0670   26.2752   44.6763 H   0  0  0  0  0  0  0  0  0  0  0  0
   41.7808   24.1194   42.7254 H   0  0  0  0  0  0  0  0  0  0  0  0
   42.4185   26.5914   40.9368 H   0  0  0  0  0  0  0  0  0  0  0  0
   42.6332   24.9153   40.4467 H   0  0  0  0  0  0  0  0  0  0  0  0
   44.7106   24.7103   41.7729 H   0  0  0  0  0  0  0  0  0  0  0  0
   44.8996   26.2574   41.0368 H   0  0  0  0  0  0  0  0  0  0  0  0
   44.9422   26.2683   43.7201 H   0  0  0  0  0  0  0  0  0  0  0  0
   43.7906   27.3992   43.1087 H   0  0  0  0  0  0  0  0  0  0  0  0
   42.4297   25.9095   44.4519 H   0  0  0  0  0  0  0  0  0  0  0  0
   43.3884   24.4789   43.9702 H   0  0  0  0  0  0  0  0  0  0  0  0
   41.1202   24.3776   40.2577 H   0  0  0  0  0  0  0  0  0  0  0  0
   39.5274   24.6743   39.5110 H   0  0  0  0  0  0  0  0  0  0  0  0
   35.8914   32.5319   39.4112 H   0  0  0  0  0  0  0  0  0  0  0  0
   37.0748   34.6668   38.9485 H   0  0  0  0  0  0  0  0  0  0  0  0
   39.3448   35.0896   39.8979 H   0  0  0  0  0  0  0  0  0  0  0  0
   40.4007   33.3535   41.3074 H   0  0  0  0  0  0  0  0  0  0  0  0
   39.2250   31.2453   41.7623 H   0  0  0  0  0  0  0  0  0  0  0  0
  2  7  2  0
  2  3  1  0
  3  9  1  0
  3  4  2  0
  4  8  1  0
  5  4  1  0
  6  1  1  0
  6  5  2  0
  7  6  1  0
  9 13  1  0
 10 11  1  0
 10  9  1  0
 11 12  1  0
 12 13  1  0
 14  2  1  0
 15  1  1  0
 16 15  2  0
 17 18  1  0
 17 16  1  0
 18 19  2  0
 19 15  1  0
 20 18  1  0
 20 25  1  0
 21 20  2  0
 22 21  1  0
 22 23  2  0
 23 24  1  0
 24 25  2  0
  8 26  1  0
  8 27  1  0
  9 28  1  0
 10 29  1  0
 10 30  1  0
 11 31  1  0
 11 32  1  0
 12 33  1  0
 12 34  1  0
 13 35  1  0
 13 36  1  0
 14 37  1  0
 14 38  1  0
 21 39  1  0
 22 40  1  0
 23 41  1  0
 24 42  1  0
 25 43  1  0
M  ISO  8  28  13  29  13  30  13  31  13  32  13  33  13  34  13  35  13
M  ISO  6  36  13  39  14  40  14  41  14  42  14  43  14
M  END
>  <minimizedAffinity>  (1) 
-5.92619419

>  <minimizedRMSD>  (1) 
1.31140602

$$$$
