
     RDKit          3D

 37 40  0  0  0  0  0  0  0  0999 V2000
   36.3680   28.6760   41.7890 C   0  0  0  0  0  0  0  0  0  0  0  0
   35.4230   28.9990   40.8780 N   0  0  0  0  0  0  0  0  0  0  0  0
   35.7080   30.1590   40.3540 O   0  0  0  0  0  0  0  0  0  0  0  0
   36.8150   30.6300   40.8830 C   0  0  0  0  0  0  0  0  0  0  0  0
   37.2450   29.7160   41.7840 N   0  0  0  0  0  0  0  0  0  0  0  0
   37.4700   31.9040   40.5650 C   0  0  0  0  0  0  0  0  0  0  0  0
   36.9090   32.8880   39.7930 C   0  0  0  0  0  0  0  0  0  0  0  0
   37.6000   34.0640   39.5420 C   0  0  0  0  0  0  0  0  0  0  0  0
   38.8740   34.2730   40.0660 C   0  0  0  0  0  0  0  0  0  0  0  0
   39.4190   33.2830   40.8330 C   0  0  0  0  0  0  0  0  0  0  0  0
   38.7360   32.1260   41.0790 C   0  0  0  0  0  0  0  0  0  0  0  0
   36.6790   27.6590   42.6670 O   0  0  0  0  0  0  0  0  0  0  0  0
   39.2970   25.4050   41.5830 C   0  0  0  0  0  0  0  0  0  0  0  0
   40.2410   25.5570   42.6160 C   0  0  0  0  0  0  0  0  0  0  0  0
   39.9330   26.4580   43.6840 C   0  0  0  0  0  0  0  0  0  0  0  0
   38.7240   27.1230   43.6310 N   0  0  0  0  0  0  0  0  0  0  0  0
   37.8570   26.9330   42.6070 C   0  0  0  0  0  0  0  0  0  0  0  0
   38.1370   26.0760   41.5800 N   0  0  0  0  0  0  0  0  0  0  0  0
   40.8140   26.6670   44.7570 N   0  0  0  0  0  0  0  0  0  0  0  0
   39.6000   24.5220   40.5610 N   0  0  0  0  0  0  0  0  0  0  0  0
   41.5330   24.9200   42.7590 C   0  0  0  0  0  0  0  0  0  0  0  0
   42.7540   25.4740   43.3170 C   0  0  0  0  0  0  0  0  0  0  0  0
   42.6190   25.4310   41.8230 C   0  0  0  0  0  0  0  0  0  0  0  0
   35.9040   32.7439   39.3697 H   0  0  0  0  0  0  0  0  0  0  0  0
   37.1354   34.8433   38.9200 H   0  0  0  0  0  0  0  0  0  0  0  0
   39.4232   35.2054   39.8683 H   0  0  0  0  0  0  0  0  0  0  0  0
   40.4238   33.4196   41.2593 H   0  0  0  0  0  0  0  0  0  0  0  0
   39.2044   31.3500   41.7022 H   0  0  0  0  0  0  0  0  0  0  0  0
   40.5619   27.3228   45.5101 H   0  0  0  0  0  0  0  0  0  0  0  0
   41.7125   26.1645   44.7910 H   0  0  0  0  0  0  0  0  0  0  0  0
   38.9352   24.3827   39.7867 H   0  0  0  0  0  0  0  0  0  0  0  0
   40.4903   24.0042   40.5748 H   0  0  0  0  0  0  0  0  0  0  0  0
   41.0029   23.9930   43.0230 H   0  0  0  0  0  0  0  0  0  0  0  0
   42.7238   26.4420   43.8386 H   0  0  0  0  0  0  0  0  0  0  0  0
   43.5070   25.1047   44.0287 H   0  0  0  0  0  0  0  0  0  0  0  0
   43.2198   24.7261   41.2295 H   0  0  0  0  0  0  0  0  0  0  0  0
   42.6784   26.1590   41.0005 H   0  0  0  0  0  0  0  0  0  0  0  0
  1 12  1  0
  2  1  2  0
  3  2  1  0
  3  4  1  0
  4  5  2  0
  5  1  1  0
  6  4  1  0
  6 11  1  0
  7  6  2  0
  8  7  1  0
  8  9  2  0
  9 10  1  0
 10 11  2  0
 13 14  2  0
 14 21  1  0
 14 15  1  0
 15 19  1  0
 16 15  2  0
 17 12  1  0
 17 16  1  0
 18 13  1  0
 18 17  2  0
 20 13  1  0
 21 22  1  0
 23 21  1  0
 23 22  1  0
  7 24  1  0
  8 25  1  0
  9 26  1  0
 10 27  1  0
 11 28  1  0
 19 29  1  0
 19 30  1  0
 20 31  1  0
 20 32  1  0
 21 33  1  0
 22 34  1  0
 22 35  1  0
 23 36  1  0
 23 37  1  0
M  ISO  8  24  14  25  14  26  14  27  14  28  14  33  13  34  13  35  13
M  ISO  2  36  13  37  13
M  END
>  <minimizedAffinity>  (1) 
-5.83681297

>  <minimizedRMSD>  (1) 
1.07297766

$$$$
