
     RDKit          3D

 33 35  0  0  0  0  0  0  0  0999 V2000
   36.1760   28.9380   41.5600 C   0  0  0  0  0  0  0  0  0  0  0  0
   35.5420   29.1480   40.3860 N   0  0  0  0  0  0  0  0  0  0  0  0
   35.9540   30.2710   39.8720 O   0  0  0  0  0  0  0  0  0  0  0  0
   36.8490   30.8280   40.6660 C   0  0  0  0  0  0  0  0  0  0  0  0
   37.0000   30.0050   41.7290 N   0  0  0  0  0  0  0  0  0  0  0  0
   37.5500   32.1030   40.4390 C   0  0  0  0  0  0  0  0  0  0  0  0
   37.0390   33.1520   39.7410 C   0  0  0  0  0  0  0  0  0  0  0  0
   37.7920   34.3270   39.5810 C   0  0  0  0  0  0  0  0  0  0  0  0
   39.0530   34.4380   40.1240 C   0  0  0  0  0  0  0  0  0  0  0  0
   39.5550   33.3730   40.8230 C   0  0  0  0  0  0  0  0  0  0  0  0
   38.8130   32.2270   40.9760 C   0  0  0  0  0  0  0  0  0  0  0  0
   36.2200   28.0040   42.5720 O   0  0  0  0  0  0  0  0  0  0  0  0
   37.9970   24.8700   42.1590 C   0  0  0  0  0  0  0  0  0  0  0  0
   39.1700   25.1410   42.8930 C   0  0  0  0  0  0  0  0  0  0  0  0
   39.3230   26.3990   43.5140 C   0  0  0  0  0  0  0  0  0  0  0  0
   38.2910   27.2950   43.3560 N   0  0  0  0  0  0  0  0  0  0  0  0
   37.1880   27.0090   42.6530 C   0  0  0  0  0  0  0  0  0  0  0  0
   37.0350   25.7960   42.0510 N   0  0  0  0  0  0  0  0  0  0  0  0
   40.4740   26.7140   44.2550 N   0  0  0  0  0  0  0  0  0  0  0  0
   37.8740   23.6230   41.5570 N   0  0  0  0  0  0  0  0  0  0  0  0
   40.2750   24.2020   43.0690 C   0  0  0  0  0  0  0  0  0  0  0  0
   36.0336   33.0804   39.3006 H   0  0  0  0  0  0  0  0  0  0  0  0
   37.3690   35.1697   39.0145 H   0  0  0  0  0  0  0  0  0  0  0  0
   39.6417   35.3588   39.9993 H   0  0  0  0  0  0  0  0  0  0  0  0
   40.5602   33.4355   41.2654 H   0  0  0  0  0  0  0  0  0  0  0  0
   39.2386   31.3856   41.5425 H   0  0  0  0  0  0  0  0  0  0  0  0
   40.5633   27.6389   44.6994 H   0  0  0  0  0  0  0  0  0  0  0  0
   41.2287   26.0201   44.3540 H   0  0  0  0  0  0  0  0  0  0  0  0
   37.0292   23.3944   41.0139 H   0  0  0  0  0  0  0  0  0  0  0  0
   38.6277   22.9277   41.6540 H   0  0  0  0  0  0  0  0  0  0  0  0
   40.4572   24.0472   44.1427 H   0  0  0  0  0  0  0  0  0  0  0  0
   40.0184   23.2414   42.5984 H   0  0  0  0  0  0  0  0  0  0  0  0
   41.1816   24.6102   42.5984 H   0  0  0  0  0  0  0  0  0  0  0  0
  1  5  1  0
  1 12  1  0
  2  1  2  0
  3  2  1  0
  3  4  1  0
  4  5  2  0
  6  4  1  0
  6 11  1  0
  7  6  2  0
  8  7  1  0
  8  9  2  0
  9 10  1  0
 10 11  2  0
 12 17  1  0
 13 14  2  0
 14 21  1  0
 14 15  1  0
 15 19  1  0
 16 15  2  0
 17 16  1  0
 18 13  1  0
 18 17  2  0
 20 13  1  0
  7 22  1  0
  8 23  1  0
  9 24  1  0
 10 25  1  0
 11 26  1  0
 19 27  1  0
 19 28  1  0
 20 29  1  0
 20 30  1  0
 21 31  1  0
 21 32  1  0
 21 33  1  0
M  ISO  8  22  14  23  14  24  14  25  14  26  14  31   8  32   8  33   8
M  END
>  <minimizedAffinity>  (1) 
-5.71969891

>  <minimizedRMSD>  (1) 
0.563469887

$$$$
