
     RDKit          3D

 57 60  0  0  0  0  0  0  0  0999 V2000
   37.3230   26.6080   41.0750 C   0  0  0  0  0  0  0  0  0  0  0  0
   38.3600   26.3250   41.9850 C   0  0  0  0  0  0  0  0  0  0  0  0
   38.8320   27.3390   42.8240 C   0  0  0  0  0  0  0  0  0  0  0  0
   38.2440   28.5680   42.7060 N   0  0  0  0  0  0  0  0  0  0  0  0
   37.2510   28.8310   41.8320 C   0  0  0  0  0  0  0  0  0  0  0  0
   36.7830   27.8580   41.0120 N   0  0  0  0  0  0  0  0  0  0  0  0
   39.8510   27.0870   43.7200 N   0  0  0  0  0  0  0  0  0  0  0  0
   36.8160   25.6490   40.2120 N   0  0  0  0  0  0  0  0  0  0  0  0
   36.7540   30.1230   41.8270 O   0  0  0  0  0  0  0  0  0  0  0  0
   37.0120   31.0320   40.8220 C   0  0  0  0  0  0  0  0  0  0  0  0
   36.6120   31.3170   39.5720 N   0  0  0  0  0  0  0  0  0  0  0  0
   37.2630   32.3460   39.1280 O   0  0  0  0  0  0  0  0  0  0  0  0
   38.1050   32.7750   40.0470 C   0  0  0  0  0  0  0  0  0  0  0  0
   37.9550   31.9620   41.1070 N   0  0  0  0  0  0  0  0  0  0  0  0
   39.0250   33.9170   39.9370 C   0  0  0  0  0  0  0  0  0  0  0  0
   38.6990   35.2110   40.2840 C   0  0  0  0  0  0  0  0  0  0  0  0
   39.6410   36.2200   40.1420 C   0  0  0  0  0  0  0  0  0  0  0  0
   40.9140   35.9550   39.6570 C   0  0  0  0  0  0  0  0  0  0  0  0
   41.2270   34.6770   39.3170 C   0  0  0  0  0  0  0  0  0  0  0  0
   40.2950   33.6580   39.4530 C   0  0  0  0  0  0  0  0  0  0  0  0
   40.7770   32.3670   39.0530 N   0  0  0  0  0  0  0  0  0  0  0  0
   41.3840   31.3800   39.9220 C   0  0  0  0  0  0  0  0  0  0  0  0
   42.5870   30.8070   39.2240 C   0  0  0  0  0  0  0  0  0  0  0  0
   43.0660   31.6680   38.0810 C   0  0  0  0  0  0  0  0  0  0  0  0
   41.9930   31.9200   37.0570 C   0  0  0  0  0  0  0  0  0  0  0  0
   40.6260   32.0540   37.6530 C   0  0  0  0  0  0  0  0  0  0  0  0
   38.8470   24.9460   41.9470 C   0  0  0  0  0  0  0  0  0  0  0  0
   37.7150   23.9380   41.7250 C   0  0  0  0  0  0  0  0  0  0  0  0
   39.6140   24.4840   43.1390 C   0  0  0  0  0  0  0  0  0  0  0  0
   39.7870   24.8350   40.7540 C   0  0  0  0  0  0  0  0  0  0  0  0
   40.1937   27.8388   44.3350 H   0  0  0  0  0  0  0  0  0  0  0  0
   40.2688   26.1471   43.7737 H   0  0  0  0  0  0  0  0  0  0  0  0
   36.0569   25.8928   39.5598 H   0  0  0  0  0  0  0  0  0  0  0  0
   37.1983   24.6927   40.2229 H   0  0  0  0  0  0  0  0  0  0  0  0
   37.6961   35.4426   40.6719 H   0  0  0  0  0  0  0  0  0  0  0  0
   39.3734   37.2503   40.4194 H   0  0  0  0  0  0  0  0  0  0  0  0
   41.6538   36.7620   39.5501 H   0  0  0  0  0  0  0  0  0  0  0  0
   42.2307   34.4477   38.9296 H   0  0  0  0  0  0  0  0  0  0  0  0
   41.6930   31.8552   40.8647 H   0  0  0  0  0  0  0  0  0  0  0  0
   40.6624   30.5810   40.1478 H   0  0  0  0  0  0  0  0  0  0  0  0
   43.4030   30.7076   39.9549 H   0  0  0  0  0  0  0  0  0  0  0  0
   42.2936   29.8334   38.8045 H   0  0  0  0  0  0  0  0  0  0  0  0
   43.4016   32.6346   38.4847 H   0  0  0  0  0  0  0  0  0  0  0  0
   43.8850   31.1310   37.5800 H   0  0  0  0  0  0  0  0  0  0  0  0
   41.9836   31.0799   36.3470 H   0  0  0  0  0  0  0  0  0  0  0  0
   42.2294   32.8752   36.5654 H   0  0  0  0  0  0  0  0  0  0  0  0
   40.0762   32.8616   37.1474 H   0  0  0  0  0  0  0  0  0  0  0  0
   40.0629   31.1171   37.5302 H   0  0  0  0  0  0  0  0  0  0  0  0
   37.3318   23.5968   42.6980 H   0  0  0  0  0  0  0  0  0  0  0  0
   36.9029   24.4175   41.1588 H   0  0  0  0  0  0  0  0  0  0  0  0
   38.0975   23.0759   41.1588 H   0  0  0  0  0  0  0  0  0  0  0  0
   39.0923   24.7982   44.0550 H   0  0  0  0  0  0  0  0  0  0  0  0
   39.6944   23.3871   43.1207 H   0  0  0  0  0  0  0  0  0  0  0  0
   40.6212   24.9258   43.1207 H   0  0  0  0  0  0  0  0  0  0  0  0
   40.8202   24.7130   41.1114 H   0  0  0  0  0  0  0  0  0  0  0  0
   39.5046   23.9640   40.1445 H   0  0  0  0  0  0  0  0  0  0  0  0
   39.7152   25.7479   40.1445 H   0  0  0  0  0  0  0  0  0  0  0  0
  1  2  2  0
  2  3  1  0
  3  7  1  0
  4  3  2  0
  5  4  1  0
  6  1  1  0
  6  5  2  0
  8  1  1  0
  9  5  1  0
 10 14  1  0
 10  9  1  0
 11 10  2  0
 12 11  1  0
 12 13  1  0
 13 14  2  0
 15 13  1  0
 15 16  2  0
 17 16  1  0
 18 17  2  0
 19 20  2  0
 19 18  1  0
 20 15  1  0
 21 20  1  0
 21 22  1  0
 23 22  1  0
 24 23  1  0
 25 26  1  0
 25 24  1  0
 26 21  1  0
 27  2  1  0
 27 29  1  0
 28 27  1  0
 30 27  1  0
  7 31  1  0
  7 32  1  0
  8 33  1  0
  8 34  1  0
 16 35  1  0
 17 36  1  0
 18 37  1  0
 19 38  1  0
 22 39  1  0
 22 40  1  0
 23 41  1  0
 23 42  1  0
 24 43  1  0
 24 44  1  0
 25 45  1  0
 25 46  1  0
 26 47  1  0
 26 48  1  0
 28 49  1  0
 28 50  1  0
 28 51  1  0
 29 52  1  0
 29 53  1  0
 29 54  1  0
 30 55  1  0
 30 56  1  0
 30 57  1  0
M  ISO  8  35  14  36  14  37  14  38  14  39  13  40  13  41  13  42  13
M  ISO  8  43  13  44  13  45  13  46  13  47  13  48  13  49   8  50   8
M  ISO  7  51   8  52   8  53   8  54   8  55   8  56   8  57   8
M  END
>  <minimizedAffinity>  (1) 
-7.09772778

>  <minimizedRMSD>  (1) 
0.218516171

$$$$
