
     RDKit          3D

 50 53  0  0  0  0  0  0  0  0999 V2000
   37.3030   26.6530   41.0650 C   0  0  0  0  0  0  0  0  0  0  0  0
   38.3390   26.3740   41.9760 C   0  0  0  0  0  0  0  0  0  0  0  0
   38.8080   27.4090   42.7920 C   0  0  0  0  0  0  0  0  0  0  0  0
   38.2240   28.6400   42.6530 N   0  0  0  0  0  0  0  0  0  0  0  0
   37.2320   28.8900   41.7760 C   0  0  0  0  0  0  0  0  0  0  0  0
   36.7640   27.9070   40.9790 N   0  0  0  0  0  0  0  0  0  0  0  0
   39.8310   27.1710   43.7010 N   0  0  0  0  0  0  0  0  0  0  0  0
   36.7860   25.6780   40.2200 N   0  0  0  0  0  0  0  0  0  0  0  0
   36.7410   30.1820   41.7500 O   0  0  0  0  0  0  0  0  0  0  0  0
   37.0270   31.0830   40.7400 C   0  0  0  0  0  0  0  0  0  0  0  0
   36.6730   31.3620   39.4820 N   0  0  0  0  0  0  0  0  0  0  0  0
   37.3370   32.3880   39.0520 O   0  0  0  0  0  0  0  0  0  0  0  0
   38.1430   32.8200   40.0000 C   0  0  0  0  0  0  0  0  0  0  0  0
   37.9660   32.0130   41.0720 N   0  0  0  0  0  0  0  0  0  0  0  0
   39.0650   33.9620   39.9150 C   0  0  0  0  0  0  0  0  0  0  0  0
   38.7670   35.2320   40.3270 C   0  0  0  0  0  0  0  0  0  0  0  0
   39.7110   36.2460   40.2030 C   0  0  0  0  0  0  0  0  0  0  0  0
   40.9520   36.0070   39.6710 C   0  0  0  0  0  0  0  0  0  0  0  0
   41.2550   34.7460   39.2600 C   0  0  0  0  0  0  0  0  0  0  0  0
   40.3300   33.7190   39.3730 C   0  0  0  0  0  0  0  0  0  0  0  0
   40.7640   32.4070   38.8980 C   0  0  0  0  0  0  0  0  0  0  0  0
   40.6660   31.8520   37.6380 C   0  0  0  0  0  0  0  0  0  0  0  0
   41.1690   30.5700   37.4670 C   0  0  0  0  0  0  0  0  0  0  0  0
   41.7270   29.9120   38.5010 N   0  0  0  0  0  0  0  0  0  0  0  0
   41.8250   30.4420   39.7260 C   0  0  0  0  0  0  0  0  0  0  0  0
   41.3380   31.6970   39.9120 N   0  0  0  0  0  0  0  0  0  0  0  0
   38.8220   25.0010   41.9680 C   0  0  0  0  0  0  0  0  0  0  0  0
   37.6870   23.9930   41.7750 C   0  0  0  0  0  0  0  0  0  0  0  0
   39.6030   24.5650   43.1560 C   0  0  0  0  0  0  0  0  0  0  0  0
   39.7500   24.8690   40.7660 C   0  0  0  0  0  0  0  0  0  0  0  0
   40.1749   27.9344   44.3009 H   0  0  0  0  0  0  0  0  0  0  0  0
   40.2457   26.2311   43.7752 H   0  0  0  0  0  0  0  0  0  0  0  0
   36.0276   25.9142   39.5643 H   0  0  0  0  0  0  0  0  0  0  0  0
   37.1613   24.7193   40.2495 H   0  0  0  0  0  0  0  0  0  0  0  0
   37.7788   35.4517   40.7572 H   0  0  0  0  0  0  0  0  0  0  0  0
   39.4564   37.2620   40.5391 H   0  0  0  0  0  0  0  0  0  0  0  0
   41.6882   36.8190   39.5783 H   0  0  0  0  0  0  0  0  0  0  0  0
   42.2469   34.5383   38.8323 H   0  0  0  0  0  0  0  0  0  0  0  0
   40.2080   32.4033   36.8036 H   0  0  0  0  0  0  0  0  0  0  0  0
   41.1115   30.0879   36.4799 H   0  0  0  0  0  0  0  0  0  0  0  0
   42.2838   29.8812   40.5536 H   0  0  0  0  0  0  0  0  0  0  0  0
   37.3172   23.6646   42.7576 H   0  0  0  0  0  0  0  0  0  0  0  0
   36.8675   24.4664   41.2143 H   0  0  0  0  0  0  0  0  0  0  0  0
   38.0603   23.1233   41.2143 H   0  0  0  0  0  0  0  0  0  0  0  0
   39.0721   24.8614   44.0727 H   0  0  0  0  0  0  0  0  0  0  0  0
   39.7195   23.4713   43.1370 H   0  0  0  0  0  0  0  0  0  0  0  0
   40.5951   25.0398   43.1370 H   0  0  0  0  0  0  0  0  0  0  0  0
   40.7829   24.7221   41.1146 H   0  0  0  0  0  0  0  0  0  0  0  0
   39.4419   24.0056   40.1580 H   0  0  0  0  0  0  0  0  0  0  0  0
   39.6949   25.7840   40.1580 H   0  0  0  0  0  0  0  0  0  0  0  0
  1  2  2  0
  2  3  1  0
  3  7  1  0
  4  3  2  0
  5  4  1  0
  6  1  1  0
  6  5  2  0
  8  1  1  0
  9  5  1  0
 10 14  1  0
 10  9  1  0
 11 10  2  0
 12 11  1  0
 12 13  1  0
 13 14  2  0
 15 13  1  0
 15 16  2  0
 17 16  1  0
 18 17  2  0
 19 20  2  0
 19 18  1  0
 20 15  1  0
 21 20  1  0
 21 26  1  0
 22 21  2  0
 23 22  1  0
 23 24  2  0
 24 25  1  0
 25 26  2  0
 27  2  1  0
 27 29  1  0
 28 27  1  0
 30 27  1  0
  7 31  1  0
  7 32  1  0
  8 33  1  0
  8 34  1  0
 16 35  1  0
 17 36  1  0
 18 37  1  0
 19 38  1  0
 22 39  1  0
 23 40  1  0
 25 41  1  0
 28 42  1  0
 28 43  1  0
 28 44  1  0
 29 45  1  0
 29 46  1  0
 29 47  1  0
 30 48  1  0
 30 49  1  0
 30 50  1  0
M  ISO  8  35  14  36  14  37  14  38  14  39  14  40  14  41  14  42   8
M  ISO  8  43   8  44   8  45   8  46   8  47   8  48   8  49   8  50   8
M  END
>  <minimizedAffinity>  (1) 
-6.98429012

>  <minimizedRMSD>  (1) 
0.471123815

$$$$
