
     RDKit          3D

 54 57  0  0  0  0  0  0  0  0999 V2000
   37.3140   26.6180   41.0700 C   0  0  0  0  0  0  0  0  0  0  0  0
   38.3540   26.3260   41.9800 C   0  0  0  0  0  0  0  0  0  0  0  0
   38.8250   27.3420   42.8180 C   0  0  0  0  0  0  0  0  0  0  0  0
   38.2430   28.5730   42.7050 N   0  0  0  0  0  0  0  0  0  0  0  0
   37.2480   28.8430   41.8300 C   0  0  0  0  0  0  0  0  0  0  0  0
   36.7760   27.8660   41.0060 N   0  0  0  0  0  0  0  0  0  0  0  0
   39.8440   27.0870   43.7150 N   0  0  0  0  0  0  0  0  0  0  0  0
   36.8070   25.6600   40.2080 N   0  0  0  0  0  0  0  0  0  0  0  0
   36.7550   30.1370   41.8270 O   0  0  0  0  0  0  0  0  0  0  0  0
   37.0170   31.0440   40.8280 C   0  0  0  0  0  0  0  0  0  0  0  0
   36.6170   31.3390   39.5770 N   0  0  0  0  0  0  0  0  0  0  0  0
   37.2770   32.3670   39.1360 O   0  0  0  0  0  0  0  0  0  0  0  0
   38.1170   32.7830   40.0530 C   0  0  0  0  0  0  0  0  0  0  0  0
   37.9690   31.9660   41.1180 N   0  0  0  0  0  0  0  0  0  0  0  0
   39.0440   33.9160   39.9470 C   0  0  0  0  0  0  0  0  0  0  0  0
   38.7700   35.1830   40.3800 C   0  0  0  0  0  0  0  0  0  0  0  0
   39.7110   36.1960   40.2380 C   0  0  0  0  0  0  0  0  0  0  0  0
   40.9360   35.9580   39.6650 C   0  0  0  0  0  0  0  0  0  0  0  0
   41.2100   34.6980   39.2340 C   0  0  0  0  0  0  0  0  0  0  0  0
   40.2800   33.6740   39.3680 C   0  0  0  0  0  0  0  0  0  0  0  0
   40.6180   32.3660   38.8990 N   0  0  0  0  0  0  0  0  0  0  0  0
   40.4010   31.6390   37.6480 C   0  0  0  0  0  0  0  0  0  0  0  0
   41.7710   31.0310   37.3390 C   0  0  0  0  0  0  0  0  0  0  0  0
   42.4780   31.0350   38.6820 C   0  0  0  0  0  0  0  0  0  0  0  0
   41.3290   31.3300   39.6270 C   0  0  0  0  0  0  0  0  0  0  0  0
   38.8340   24.9480   41.9440 C   0  0  0  0  0  0  0  0  0  0  0  0
   37.7050   23.9440   41.7180 C   0  0  0  0  0  0  0  0  0  0  0  0
   39.6070   24.4930   43.1330 C   0  0  0  0  0  0  0  0  0  0  0  0
   39.7750   24.8460   40.7490 C   0  0  0  0  0  0  0  0  0  0  0  0
   40.1882   27.8377   44.3305 H   0  0  0  0  0  0  0  0  0  0  0  0
   40.2597   26.1461   43.7684 H   0  0  0  0  0  0  0  0  0  0  0  0
   36.0481   25.9040   39.5557 H   0  0  0  0  0  0  0  0  0  0  0  0
   37.1888   24.7034   40.2191 H   0  0  0  0  0  0  0  0  0  0  0  0
   37.7974   35.4027   40.8444 H   0  0  0  0  0  0  0  0  0  0  0  0
   39.4695   37.2091   40.5919 H   0  0  0  0  0  0  0  0  0  0  0  0
   41.6757   36.7650   39.5576 H   0  0  0  0  0  0  0  0  0  0  0  0
   42.1849   34.4853   38.7711 H   0  0  0  0  0  0  0  0  0  0  0  0
   39.6431   30.8524   37.7779 H   0  0  0  0  0  0  0  0  0  0  0  0
   40.0290   32.2847   36.8389 H   0  0  0  0  0  0  0  0  0  0  0  0
   41.6673   30.0060   36.9535 H   0  0  0  0  0  0  0  0  0  0  0  0
   42.3204   31.5890   36.5665 H   0  0  0  0  0  0  0  0  0  0  0  0
   42.9356   30.0584   38.8982 H   0  0  0  0  0  0  0  0  0  0  0  0
   43.3096   31.7519   38.7492 H   0  0  0  0  0  0  0  0  0  0  0  0
   41.6913   31.6973   40.5985 H   0  0  0  0  0  0  0  0  0  0  0  0
   40.7143   30.4522   39.8753 H   0  0  0  0  0  0  0  0  0  0  0  0
   37.3194   23.6011   42.6894 H   0  0  0  0  0  0  0  0  0  0  0  0
   36.8945   24.4251   41.1509 H   0  0  0  0  0  0  0  0  0  0  0  0
   38.0882   23.0828   41.1509 H   0  0  0  0  0  0  0  0  0  0  0  0
   39.0838   24.8010   44.0503 H   0  0  0  0  0  0  0  0  0  0  0  0
   39.6985   23.3970   43.1134 H   0  0  0  0  0  0  0  0  0  0  0  0
   40.6096   24.9450   43.1134 H   0  0  0  0  0  0  0  0  0  0  0  0
   40.8096   24.7339   41.1055 H   0  0  0  0  0  0  0  0  0  0  0  0
   39.5004   23.9724   40.1396 H   0  0  0  0  0  0  0  0  0  0  0  0
   39.6940   25.7582   40.1396 H   0  0  0  0  0  0  0  0  0  0  0  0
  1  2  2  0
  2  3  1  0
  3  7  1  0
  4  3  2  0
  5  4  1  0
  6  1  1  0
  6  5  2  0
  8  1  1  0
  9  5  1  0
 10 14  1  0
 10  9  1  0
 11 10  2  0
 12 11  1  0
 12 13  1  0
 13 14  2  0
 15 13  1  0
 15 16  2  0
 17 16  1  0
 18 17  2  0
 19 20  2  0
 19 18  1  0
 20 15  1  0
 21 20  1  0
 21 25  1  0
 22 21  1  0
 23 22  1  0
 23 24  1  0
 24 25  1  0
 26  2  1  0
 26 28  1  0
 27 26  1  0
 29 26  1  0
  7 30  1  0
  7 31  1  0
  8 32  1  0
  8 33  1  0
 16 34  1  0
 17 35  1  0
 18 36  1  0
 19 37  1  0
 22 38  1  0
 22 39  1  0
 23 40  1  0
 23 41  1  0
 24 42  1  0
 24 43  1  0
 25 44  1  0
 25 45  1  0
 27 46  1  0
 27 47  1  0
 27 48  1  0
 28 49  1  0
 28 50  1  0
 28 51  1  0
 29 52  1  0
 29 53  1  0
 29 54  1  0
M  ISO  8  34  14  35  14  36  14  37  14  38  13  39  13  40  13  41  13
M  ISO  8  42  13  43  13  44  13  45  13  46   8  47   8  48   8  49   8
M  ISO  5  50   8  51   8  52   8  53   8  54   8
M  END
>  <minimizedAffinity>  (1) 
-6.90196609

>  <minimizedRMSD>  (1) 
0.151904836

$$$$
