
     RDKit          3D

 48 51  0  0  0  0  0  0  0  0999 V2000
   37.2840   26.6860   41.0650 C   0  0  0  0  0  0  0  0  0  0  0  0
   38.3270   26.4110   41.9780 C   0  0  0  0  0  0  0  0  0  0  0  0
   38.8050   27.4440   42.7890 C   0  0  0  0  0  0  0  0  0  0  0  0
   38.2260   28.6770   42.6470 N   0  0  0  0  0  0  0  0  0  0  0  0
   37.2300   28.9290   41.7700 C   0  0  0  0  0  0  0  0  0  0  0  0
   36.7510   27.9370   40.9740 N   0  0  0  0  0  0  0  0  0  0  0  0
   39.8270   27.2110   43.6880 N   0  0  0  0  0  0  0  0  0  0  0  0
   36.7700   25.7090   40.2280 N   0  0  0  0  0  0  0  0  0  0  0  0
   36.7420   30.2240   41.7380 O   0  0  0  0  0  0  0  0  0  0  0  0
   37.0400   31.1200   40.7380 C   0  0  0  0  0  0  0  0  0  0  0  0
   36.7050   31.3860   39.4670 N   0  0  0  0  0  0  0  0  0  0  0  0
   37.3620   32.4170   39.0440 O   0  0  0  0  0  0  0  0  0  0  0  0
   38.1440   32.8690   39.9940 C   0  0  0  0  0  0  0  0  0  0  0  0
   37.9520   32.0670   41.0610 N   0  0  0  0  0  0  0  0  0  0  0  0
   39.0520   34.0230   39.9180 C   0  0  0  0  0  0  0  0  0  0  0  0
   38.7010   35.2980   40.2810 C   0  0  0  0  0  0  0  0  0  0  0  0
   39.6420   36.3240   40.1700 C   0  0  0  0  0  0  0  0  0  0  0  0
   40.9150   36.0990   39.7060 C   0  0  0  0  0  0  0  0  0  0  0  0
   41.2550   34.8160   39.3460 C   0  0  0  0  0  0  0  0  0  0  0  0
   40.3400   33.7900   39.4490 C   0  0  0  0  0  0  0  0  0  0  0  0
   40.7370   32.4680   39.0620 N   0  0  0  0  0  0  0  0  0  0  0  0
   41.2520   31.3940   39.6920 C   0  0  0  0  0  0  0  0  0  0  0  0
   41.4200   30.4070   38.7740 N   0  0  0  0  0  0  0  0  0  0  0  0
   41.0050   30.8770   37.5700 C   0  0  0  0  0  0  0  0  0  0  0  0
   40.5990   32.1280   37.7870 N   0  0  0  0  0  0  0  0  0  0  0  0
   38.8000   25.0330   41.9750 C   0  0  0  0  0  0  0  0  0  0  0  0
   37.6580   24.0270   41.8120 C   0  0  0  0  0  0  0  0  0  0  0  0
   39.5950   24.6070   43.1600 C   0  0  0  0  0  0  0  0  0  0  0  0
   39.7080   24.8820   40.7620 C   0  0  0  0  0  0  0  0  0  0  0  0
   40.1744   27.9769   44.2826 H   0  0  0  0  0  0  0  0  0  0  0  0
   40.2419   26.2713   43.7639 H   0  0  0  0  0  0  0  0  0  0  0  0
   36.0095   25.9401   39.5729 H   0  0  0  0  0  0  0  0  0  0  0  0
   37.1484   24.7516   40.2608 H   0  0  0  0  0  0  0  0  0  0  0  0
   37.6888   35.5104   40.6557 H   0  0  0  0  0  0  0  0  0  0  0  0
   39.3546   37.3444   40.4634 H   0  0  0  0  0  0  0  0  0  0  0  0
   41.6414   36.9210   39.6247 H   0  0  0  0  0  0  0  0  0  0  0  0
   42.2679   34.6062   38.9719 H   0  0  0  0  0  0  0  0  0  0  0  0
   41.4942   31.3280   40.7630 H   0  0  0  0  0  0  0  0  0  0  0  0
   41.0040   30.3365   36.6120 H   0  0  0  0  0  0  0  0  0  0  0  0
   37.3016   23.7130   42.8041 H   0  0  0  0  0  0  0  0  0  0  0  0
   36.8322   24.4965   41.2574 H   0  0  0  0  0  0  0  0  0  0  0  0
   38.0195   23.1486   41.2574 H   0  0  0  0  0  0  0  0  0  0  0  0
   39.0633   24.8919   44.0799 H   0  0  0  0  0  0  0  0  0  0  0  0
   39.7302   23.5156   43.1377 H   0  0  0  0  0  0  0  0  0  0  0  0
   40.5786   25.0989   43.1377 H   0  0  0  0  0  0  0  0  0  0  0  0
   40.7416   24.7101   41.0968 H   0  0  0  0  0  0  0  0  0  0  0  0
   39.3718   24.0274   40.1564 H   0  0  0  0  0  0  0  0  0  0  0  0
   39.6665   25.7994   40.1564 H   0  0  0  0  0  0  0  0  0  0  0  0
  1  2  2  0
  2  3  1  0
  3  7  1  0
  4  3  2  0
  5  4  1  0
  6  1  1  0
  6  5  2  0
  8  1  1  0
  9  5  1  0
 10 14  1  0
 10  9  1  0
 11 10  2  0
 12 11  1  0
 12 13  1  0
 13 14  2  0
 15 13  1  0
 15 16  2  0
 17 16  1  0
 18 17  2  0
 19 20  2  0
 19 18  1  0
 20 15  1  0
 21 20  1  0
 21 22  1  0
 23 22  2  0
 24 25  2  0
 24 23  1  0
 25 21  1  0
 26  2  1  0
 26 28  1  0
 27 26  1  0
 29 26  1  0
  7 30  1  0
  7 31  1  0
  8 32  1  0
  8 33  1  0
 16 34  1  0
 17 35  1  0
 18 36  1  0
 19 37  1  0
 22 38  1  0
 24 39  1  0
 27 40  1  0
 27 41  1  0
 27 42  1  0
 28 43  1  0
 28 44  1  0
 28 45  1  0
 29 46  1  0
 29 47  1  0
 29 48  1  0
M  ISO  8  34  14  35  14  36  14  37  14  38  14  39  14  40   8  41   8
M  ISO  7  42   8  43   8  44   8  45   8  46   8  47   8  48   8
M  END
>  <minimizedAffinity>  (1) 
-6.89077044

>  <minimizedRMSD>  (1) 
0.410511851

$$$$
