
     RDKit          3D

 45 47  0  0  0  0  0  0  0  0999 V2000
   37.3130   26.6180   41.0770 C   0  0  0  0  0  0  0  0  0  0  0  0
   38.3480   26.3350   41.9770 C   0  0  0  0  0  0  0  0  0  0  0  0
   38.8370   27.3480   42.8080 C   0  0  0  0  0  0  0  0  0  0  0  0
   38.2580   28.5800   42.6840 N   0  0  0  0  0  0  0  0  0  0  0  0
   37.2600   28.8500   41.8140 C   0  0  0  0  0  0  0  0  0  0  0  0
   36.7810   27.8750   41.0060 N   0  0  0  0  0  0  0  0  0  0  0  0
   39.8580   27.0970   43.7020 N   0  0  0  0  0  0  0  0  0  0  0  0
   36.7880   25.6570   40.2200 N   0  0  0  0  0  0  0  0  0  0  0  0
   36.7760   30.1460   41.8040 O   0  0  0  0  0  0  0  0  0  0  0  0
   37.0460   31.0470   40.7940 C   0  0  0  0  0  0  0  0  0  0  0  0
   36.6620   31.3290   39.5460 N   0  0  0  0  0  0  0  0  0  0  0  0
   37.3240   32.3570   39.1020 O   0  0  0  0  0  0  0  0  0  0  0  0
   38.1500   32.7820   40.0200 C   0  0  0  0  0  0  0  0  0  0  0  0
   37.9950   31.9750   41.0910 N   0  0  0  0  0  0  0  0  0  0  0  0
   39.0840   33.9230   39.9210 C   0  0  0  0  0  0  0  0  0  0  0  0
   38.7770   35.1960   40.3620 C   0  0  0  0  0  0  0  0  0  0  0  0
   39.7310   36.2070   40.2250 C   0  0  0  0  0  0  0  0  0  0  0  0
   40.9610   35.9720   39.6650 C   0  0  0  0  0  0  0  0  0  0  0  0
   41.2450   34.7040   39.2350 C   0  0  0  0  0  0  0  0  0  0  0  0
   40.3230   33.6950   39.3600 C   0  0  0  0  0  0  0  0  0  0  0  0
   40.6510   32.3100   38.8820 C   0  0  0  0  0  0  0  0  0  0  0  0
   40.4500   31.3620   39.8680 F   0  0  0  0  0  0  0  0  0  0  0  0
   41.9220   32.2630   38.3460 F   0  0  0  0  0  0  0  0  0  0  0  0
   39.8010   31.9570   37.8290 F   0  0  0  0  0  0  0  0  0  0  0  0
   38.8280   24.9560   41.9490 C   0  0  0  0  0  0  0  0  0  0  0  0
   37.6850   23.9470   41.7370 C   0  0  0  0  0  0  0  0  0  0  0  0
   39.5960   24.4980   43.1430 C   0  0  0  0  0  0  0  0  0  0  0  0
   39.7630   24.8240   40.7590 C   0  0  0  0  0  0  0  0  0  0  0  0
   40.2089   27.8521   44.3083 H   0  0  0  0  0  0  0  0  0  0  0  0
   40.2691   26.1546   43.7629 H   0  0  0  0  0  0  0  0  0  0  0  0
   36.0265   25.9053   39.5724 H   0  0  0  0  0  0  0  0  0  0  0  0
   37.1606   24.6968   40.2328 H   0  0  0  0  0  0  0  0  0  0  0  0
   37.7971   35.4098   40.8137 H   0  0  0  0  0  0  0  0  0  0  0  0
   39.4890   37.2209   40.5763 H   0  0  0  0  0  0  0  0  0  0  0  0
   41.6994   36.7811   39.5642 H   0  0  0  0  0  0  0  0  0  0  0  0
   42.2251   34.4908   38.7833 H   0  0  0  0  0  0  0  0  0  0  0  0
   37.3057   23.6121   42.7137 H   0  0  0  0  0  0  0  0  0  0  0  0
   36.8719   24.4272   41.1729 H   0  0  0  0  0  0  0  0  0  0  0  0
   38.0607   23.0806   41.1729 H   0  0  0  0  0  0  0  0  0  0  0  0
   39.0718   24.8106   44.0582 H   0  0  0  0  0  0  0  0  0  0  0  0
   39.6812   23.4014   43.1257 H   0  0  0  0  0  0  0  0  0  0  0  0
   40.6013   24.9442   43.1257 H   0  0  0  0  0  0  0  0  0  0  0  0
   40.7931   24.6786   41.1164 H   0  0  0  0  0  0  0  0  0  0  0  0
   39.4609   23.9596   40.1495 H   0  0  0  0  0  0  0  0  0  0  0  0
   39.7120   25.7382   40.1495 H   0  0  0  0  0  0  0  0  0  0  0  0
  1  2  2  0
  2  3  1  0
  3  7  1  0
  4  3  2  0
  5  4  1  0
  6  1  1  0
  6  5  2  0
  8  1  1  0
  9  5  1  0
 10 14  1  0
 10  9  1  0
 11 10  2  0
 12 11  1  0
 12 13  1  0
 13 14  2  0
 15 13  1  0
 15 16  2  0
 17 16  1  0
 18 17  2  0
 19 20  2  0
 19 18  1  0
 20 15  1  0
 21 20  1  0
 21 22  1  0
 23 21  1  0
 24 21  1  0
 25  2  1  0
 25 27  1  0
 26 25  1  0
 28 25  1  0
  7 29  1  0
  7 30  1  0
  8 31  1  0
  8 32  1  0
 16 33  1  0
 17 34  1  0
 18 35  1  0
 19 36  1  0
 26 37  1  0
 26 38  1  0
 26 39  1  0
 27 40  1  0
 27 41  1  0
 27 42  1  0
 28 43  1  0
 28 44  1  0
 28 45  1  0
M  ISO  8  33  14  34  14  35  14  36  14  37   8  38   8  39   8  40   8
M  ISO  5  41   8  42   8  43   8  44   8  45   8
M  END
>  <minimizedAffinity>  (1) 
-6.73343229

>  <minimizedRMSD>  (1) 
0.12526226

$$$$
