
     RDKit          3D

 38 41  0  0  1  0  0  0  0  0999 V2000
   38.4300   29.0560   40.6320 C   0  0  1  0  0  0  0  0  0  0  0  0
   38.8480   27.8630   41.5020 C   0  0  0  0  0  0  0  0  0  0  0  0
   38.7110   28.4430   42.8990 C   0  0  0  0  0  0  0  0  0  0  0  0
   38.7840   29.9350   42.7480 C   0  0  0  0  0  0  0  0  0  0  0  0
   39.2010   30.1600   41.3010 C   0  0  2  0  0  0  0  0  0  0  0  0
   34.7870   28.1600   36.7000 C   0  0  0  0  0  0  0  0  0  0  0  0
   33.8720   28.5530   37.6990 C   0  0  0  0  0  0  0  0  0  0  0  0
   34.3920   29.0290   38.8900 C   0  0  0  0  0  0  0  0  0  0  0  0
   35.7450   29.0870   39.0170 N   0  0  0  0  0  0  0  0  0  0  0  0
   36.5980   28.7170   38.0770 C   0  0  0  0  0  0  0  0  0  0  0  0
   36.1110   28.2470   36.9000 N   0  0  0  0  0  0  0  0  0  0  0  0
   38.0170   28.7530   38.1840 N   0  0  0  0  0  0  0  0  0  0  0  0
   38.6870   28.6300   37.0440 N   0  0  0  0  0  0  0  0  0  0  0  0
   40.0250   28.6680   37.3430 C   0  0  0  0  0  0  0  0  0  0  0  0
   40.0980   28.8220   38.7380 C   0  0  0  0  0  0  0  0  0  0  0  0
   38.8050   28.8740   39.2510 C   0  0  0  0  0  0  0  0  0  0  0  0
   38.8610   31.5160   40.8340 C   0  0  0  0  0  0  0  0  0  0  0  0
   37.6290   31.9250   40.3760 C   0  0  0  0  0  0  0  0  0  0  0  0
   37.4640   33.2500   39.9670 C   0  0  0  0  0  0  0  0  0  0  0  0
   38.4800   34.1310   40.0100 N   0  0  0  0  0  0  0  0  0  0  0  0
   39.6970   33.7130   40.4660 C   0  0  0  0  0  0  0  0  0  0  0  0
   39.8360   32.4480   40.8520 N   0  0  0  0  0  0  0  0  0  0  0  0
   37.3456   29.2317   40.5754 H   0  0  0  0  0  0  0  0  0  0  0  0
   38.1761   27.0044   41.3559 H   0  0  0  0  0  0  0  0  0  0  0  0
   39.8511   27.4727   41.2752 H   0  0  0  0  0  0  0  0  0  0  0  0
   37.7456   28.1520   43.3387 H   0  0  0  0  0  0  0  0  0  0  0  0
   39.5035   28.0705   43.5647 H   0  0  0  0  0  0  0  0  0  0  0  0
   37.8032   30.3927   42.9442 H   0  0  0  0  0  0  0  0  0  0  0  0
   39.4895   30.3901   43.4588 H   0  0  0  0  0  0  0  0  0  0  0  0
   40.2818   30.1196   41.1007 H   0  0  0  0  0  0  0  0  0  0  0  0
   34.4089   27.7758   35.7411 H   0  0  0  0  0  0  0  0  0  0  0  0
   32.7861   28.4838   37.5375 H   0  0  0  0  0  0  0  0  0  0  0  0
   33.7314   29.3505   39.7087 H   0  0  0  0  0  0  0  0  0  0  0  0
   40.8659   28.5935   36.6378 H   0  0  0  0  0  0  0  0  0  0  0  0
   41.0243   28.8902   39.3274 H   0  0  0  0  0  0  0  0  0  0  0  0
   36.7869   31.2186   40.3328 H   0  0  0  0  0  0  0  0  0  0  0  0
   36.4808   33.5810   39.6013 H   0  0  0  0  0  0  0  0  0  0  0  0
   40.5469   34.4097   40.5133 H   0  0  0  0  0  0  0  0  0  0  0  0
  1  5  1  0
  1  2  1  0
  2  3  1  0
  4  3  1  0
  5  4  1  0
  6 11  2  0
  6  7  1  0
  7  8  2  0
  8  9  1  0
 10 12  1  0
 10  9  2  0
 11 10  1  0
 12 16  1  0
 13 14  2  0
 13 12  1  0
 14 15  1  0
 15 16  2  0
 16  1  1  0
 17 22  1  0
 17  5  1  0
 18 17  2  0
 19 20  2  0
 19 18  1  0
 20 21  1  0
 21 22  2  0
  1 23  1  6
  2 24  1  0
  2 25  1  0
  3 26  1  0
  3 27  1  0
  4 28  1  0
  4 29  1  0
  5 30  1  1
  6 31  1  0
  7 32  1  0
  8 33  1  0
 14 34  1  0
 15 35  1  0
 18 36  1  0
 19 37  1  0
 21 38  1  0
M  ISO  8  23  13  24  13  25  13  26  13  27  13  28  13  29  13  30  13
M  ISO  8  31  14  32  14  33  14  34  14  35  14  36  14  37  14  38  14
M  END
>  <minimizedAffinity>  (1) 
-4.74775028

>  <minimizedRMSD>  (1) 
6.82513237

$$$$
