
     RDKit          3D

 35 38  0  0  0  0  0  0  0  0999 V2000
   37.2030   28.5030   40.9500 C   0  0  0  0  0  0  0  0  0  0  0  0
   37.3900   29.2110   42.1560 C   0  0  0  0  0  0  0  0  0  0  0  0
   37.4390   28.6340   43.4120 C   0  0  0  0  0  0  0  0  0  0  0  0
   37.2940   27.2650   43.5060 C   0  0  0  0  0  0  0  0  0  0  0  0
   37.1080   26.5140   42.3700 C   0  0  0  0  0  0  0  0  0  0  0  0
   36.9660   25.1430   42.4580 C   0  0  0  0  0  0  0  0  0  0  0  0
   36.7810   24.3420   41.3450 C   0  0  0  0  0  0  0  0  0  0  0  0
   36.7480   25.0210   40.1300 C   0  0  0  0  0  0  0  0  0  0  0  0
   36.8910   26.3790   40.0700 C   0  0  0  0  0  0  0  0  0  0  0  0
   37.0730   27.1630   41.1660 C   0  0  0  0  0  0  0  0  0  0  0  0
   37.1850   29.2860   39.7630 C   0  0  0  0  0  0  0  0  0  0  0  0
   36.2870   29.2840   38.6940 C   0  0  0  0  0  0  0  0  0  0  0  0
   36.3780   30.1440   37.6010 C   0  0  0  0  0  0  0  0  0  0  0  0
   37.4120   30.9990   37.6420 N   0  0  0  0  0  0  0  0  0  0  0  0
   38.3060   31.0400   38.6520 C   0  0  0  0  0  0  0  0  0  0  0  0
   38.1730   30.1910   39.6760 N   0  0  0  0  0  0  0  0  0  0  0  0
   39.4040   32.0130   38.6020 C   0  0  0  0  0  0  0  0  0  0  0  0
   39.4950   32.9960   39.5650 C   0  0  0  0  0  0  0  0  0  0  0  0
   40.5520   33.9010   39.4820 C   0  0  0  0  0  0  0  0  0  0  0  0
   41.4910   33.8100   38.4500 C   0  0  0  0  0  0  0  0  0  0  0  0
   41.3470   32.8060   37.5170 C   0  0  0  0  0  0  0  0  0  0  0  0
   40.3200   31.9510   37.6230 N   0  0  0  0  0  0  0  0  0  0  0  0
   37.5054   30.3031   42.0926 H   0  0  0  0  0  0  0  0  0  0  0  0
   37.5894   29.2495   44.3112 H   0  0  0  0  0  0  0  0  0  0  0  0
   37.3273   26.7747   44.4901 H   0  0  0  0  0  0  0  0  0  0  0  0
   37.0013   24.6699   43.4505 H   0  0  0  0  0  0  0  0  0  0  0  0
   36.6684   23.2500   41.4149 H   0  0  0  0  0  0  0  0  0  0  0  0
   36.6039   24.4529   39.1992 H   0  0  0  0  0  0  0  0  0  0  0  0
   36.8571   26.8633   39.0829 H   0  0  0  0  0  0  0  0  0  0  0  0
   35.4585   28.5608   38.7157 H   0  0  0  0  0  0  0  0  0  0  0  0
   35.6584   30.1237   36.7693 H   0  0  0  0  0  0  0  0  0  0  0  0
   38.7545   33.0640   40.3756 H   0  0  0  0  0  0  0  0  0  0  0  0
   40.6484   34.6955   40.2367 H   0  0  0  0  0  0  0  0  0  0  0  0
   42.3256   34.5235   38.3843 H   0  0  0  0  0  0  0  0  0  0  0  0
   42.0685   32.7071   36.6926 H   0  0  0  0  0  0  0  0  0  0  0  0
  1 10  1  0
  1  2  2  0
  2  3  1  0
  3  4  2  0
  5  6  2  0
  5  4  1  0
  7  6  1  0
  8  7  2  0
  9  8  1  0
  9 10  2  0
 10  5  1  0
 11  1  1  0
 12 11  2  0
 13 14  2  0
 13 12  1  0
 14 15  1  0
 15 16  2  0
 16 11  1  0
 17 15  1  0
 17 18  2  0
 19 18  1  0
 20 19  2  0
 21 22  2  0
 21 20  1  0
 22 17  1  0
  2 23  1  0
  3 24  1  0
  4 25  1  0
  6 26  1  0
  7 27  1  0
  8 28  1  0
  9 29  1  0
 12 30  1  0
 13 31  1  0
 18 32  1  0
 19 33  1  0
 20 34  1  0
 21 35  1  0
M  ISO  8  23  14  24  14  25  14  26  14  27  14  28  14  29  14  30  14
M  ISO  5  31  14  32  14  33  14  34  14  35  14
M  END
>  <minimizedAffinity>  (1) 
-6.34481907

>  <minimizedRMSD>  (1) 
1.51783288

$$$$
