
     RDKit          3D

 34 37  0  0  0  0  0  0  0  0999 V2000
   37.2130   28.5010   40.9610 C   0  0  0  0  0  0  0  0  0  0  0  0
   37.3990   29.2050   42.1700 C   0  0  0  0  0  0  0  0  0  0  0  0
   37.4340   28.6180   43.4190 C   0  0  0  0  0  0  0  0  0  0  0  0
   37.2790   27.2440   43.5060 C   0  0  0  0  0  0  0  0  0  0  0  0
   37.0940   26.4920   42.3590 C   0  0  0  0  0  0  0  0  0  0  0  0
   36.9540   25.1350   42.4480 C   0  0  0  0  0  0  0  0  0  0  0  0
   36.7800   24.3420   41.3310 C   0  0  0  0  0  0  0  0  0  0  0  0
   36.7590   25.0220   40.1210 C   0  0  0  0  0  0  0  0  0  0  0  0
   36.9020   26.3810   40.0690 C   0  0  0  0  0  0  0  0  0  0  0  0
   37.0730   27.1620   41.1690 C   0  0  0  0  0  0  0  0  0  0  0  0
   37.2080   29.2870   39.7730 C   0  0  0  0  0  0  0  0  0  0  0  0
   36.3260   29.2670   38.6850 C   0  0  0  0  0  0  0  0  0  0  0  0
   36.4430   30.1400   37.6030 C   0  0  0  0  0  0  0  0  0  0  0  0
   37.4730   31.0170   37.6670 N   0  0  0  0  0  0  0  0  0  0  0  0
   38.3260   31.0590   38.6870 C   0  0  0  0  0  0  0  0  0  0  0  0
   38.1810   30.2090   39.7020 N   0  0  0  0  0  0  0  0  0  0  0  0
   39.4000   32.0480   38.6470 C   0  0  0  0  0  0  0  0  0  0  0  0
   39.5230   33.0290   39.5770 C   0  0  0  0  0  0  0  0  0  0  0  0
   40.5720   33.9220   39.4600 C   0  0  0  0  0  0  0  0  0  0  0  0
   41.4270   33.7870   38.4330 N   0  0  0  0  0  0  0  0  0  0  0  0
   41.3180   32.8110   37.4950 C   0  0  0  0  0  0  0  0  0  0  0  0
   40.2920   31.9750   37.6490 N   0  0  0  0  0  0  0  0  0  0  0  0
   37.5247   30.2963   42.1132 H   0  0  0  0  0  0  0  0  0  0  0  0
   37.5814   29.2266   44.3234 H   0  0  0  0  0  0  0  0  0  0  0  0
   37.3030   26.7499   44.4885 H   0  0  0  0  0  0  0  0  0  0  0  0
   36.9808   24.6602   43.4399 H   0  0  0  0  0  0  0  0  0  0  0  0
   36.6662   23.2498   41.3954 H   0  0  0  0  0  0  0  0  0  0  0  0
   36.6248   24.4572   39.1867 H   0  0  0  0  0  0  0  0  0  0  0  0
   36.8774   26.8691   39.0835 H   0  0  0  0  0  0  0  0  0  0  0  0
   35.5071   28.5325   38.6836 H   0  0  0  0  0  0  0  0  0  0  0  0
   35.7444   30.1174   36.7536 H   0  0  0  0  0  0  0  0  0  0  0  0
   38.8040   33.1117   40.4054 H   0  0  0  0  0  0  0  0  0  0  0  0
   40.7041   34.7293   40.1955 H   0  0  0  0  0  0  0  0  0  0  0  0
   42.0305   32.7168   36.6622 H   0  0  0  0  0  0  0  0  0  0  0  0
  1 10  1  0
  1  2  2  0
  2  3  1  0
  3  4  2  0
  5  6  2  0
  5  4  1  0
  7  6  1  0
  8  7  2  0
  9  8  1  0
  9 10  2  0
 10  5  1  0
 11  1  1  0
 12 11  2  0
 13 14  2  0
 13 12  1  0
 14 15  1  0
 15 16  2  0
 16 11  1  0
 17 15  1  0
 17 18  2  0
 19 18  1  0
 20 19  2  0
 21 22  2  0
 21 20  1  0
 22 17  1  0
  2 23  1  0
  3 24  1  0
  4 25  1  0
  6 26  1  0
  7 27  1  0
  8 28  1  0
  9 29  1  0
 12 30  1  0
 13 31  1  0
 18 32  1  0
 19 33  1  0
 21 34  1  0
M  ISO  8  23  14  24  14  25  14  26  14  27  14  28  14  29  14  30  14
M  ISO  4  31  14  32  14  33  14  34  14
M  END
>  <minimizedAffinity>  (1) 
-6.31524372

>  <minimizedRMSD>  (1) 
1.54107034

$$$$
