
     RDKit          3D

 40 43  0  0  0  0  0  0  0  0999 V2000
   37.2650   28.4170   40.9400 C   0  0  0  0  0  0  0  0  0  0  0  0
   37.4440   29.1580   42.1260 C   0  0  0  0  0  0  0  0  0  0  0  0
   37.4570   28.6140   43.4010 C   0  0  0  0  0  0  0  0  0  0  0  0
   37.2810   27.2450   43.5280 C   0  0  0  0  0  0  0  0  0  0  0  0
   37.1040   26.4750   42.4130 C   0  0  0  0  0  0  0  0  0  0  0  0
   36.9340   25.1120   42.5330 C   0  0  0  0  0  0  0  0  0  0  0  0
   36.7540   24.2800   41.4450 C   0  0  0  0  0  0  0  0  0  0  0  0
   36.7560   24.9240   40.2040 C   0  0  0  0  0  0  0  0  0  0  0  0
   36.9270   26.2760   40.1140 C   0  0  0  0  0  0  0  0  0  0  0  0
   37.1040   27.0860   41.1930 C   0  0  0  0  0  0  0  0  0  0  0  0
   37.2870   29.1660   39.7300 C   0  0  0  0  0  0  0  0  0  0  0  0
   36.2440   29.5970   38.9150 C   0  0  0  0  0  0  0  0  0  0  0  0
   36.4190   30.3640   37.7720 C   0  0  0  0  0  0  0  0  0  0  0  0
   37.7060   30.6760   37.4850 N   0  0  0  0  0  0  0  0  0  0  0  0
   38.7440   30.2800   38.2440 C   0  0  0  0  0  0  0  0  0  0  0  0
   38.5110   29.5470   39.3270 N   0  0  0  0  0  0  0  0  0  0  0  0
   40.0440   30.6830   37.8220 N   0  0  0  0  0  0  0  0  0  0  0  0
   41.0250   29.6660   37.5110 C   0  0  0  0  0  0  0  0  0  0  0  0
   42.3960   30.2780   37.7030 C   0  0  0  0  0  0  0  0  0  0  0  0
   42.4540   31.4180   36.8090 N   0  0  0  0  0  0  0  0  0  0  0  0
   41.6320   32.4980   37.2700 C   0  0  0  0  0  0  0  0  0  0  0  0
   40.2740   32.1310   37.7380 C   0  0  0  0  0  0  0  0  0  0  0  0
   37.5833   30.2452   42.0330 H   0  0  0  0  0  0  0  0  0  0  0  0
   37.6028   29.2504   44.2863 H   0  0  0  0  0  0  0  0  0  0  0  0
   37.2838   26.7792   44.5245 H   0  0  0  0  0  0  0  0  0  0  0  0
   36.9421   24.6676   43.5392 H   0  0  0  0  0  0  0  0  0  0  0  0
   36.6193   23.1931   41.5473 H   0  0  0  0  0  0  0  0  0  0  0  0
   36.6178   24.3330   39.2866 H   0  0  0  0  0  0  0  0  0  0  0  0
   36.9213   26.7353   39.1145 H   0  0  0  0  0  0  0  0  0  0  0  0
   35.2188   29.3122   39.1941 H   0  0  0  0  0  0  0  0  0  0  0  0
   35.5766   30.6938   37.1462 H   0  0  0  0  0  0  0  0  0  0  0  0
   40.9046   29.3351   36.4689 H   0  0  0  0  0  0  0  0  0  0  0  0
   40.8968   28.7924   38.1670 H   0  0  0  0  0  0  0  0  0  0  0  0
   42.5268   30.6030   38.7457 H   0  0  0  0  0  0  0  0  0  0  0  0
   43.1945   29.5537   37.4844 H   0  0  0  0  0  0  0  0  0  0  0  0
   42.1295   31.1268   35.8758 H   0  0  0  0  0  0  0  0  0  0  0  0
   42.1552   32.9853   38.1060 H   0  0  0  0  0  0  0  0  0  0  0  0
   41.4775   33.1459   36.3946 H   0  0  0  0  0  0  0  0  0  0  0  0
   40.1236   32.5640   38.7379 H   0  0  0  0  0  0  0  0  0  0  0  0
   39.5637   32.5243   36.9959 H   0  0  0  0  0  0  0  0  0  0  0  0
  1 10  1  0
  1  2  2  0
  2  3  1  0
  3  4  2  0
  5  6  2  0
  5  4  1  0
  7  6  1  0
  8  7  2  0
  9  8  1  0
  9 10  2  0
 10  5  1  0
 11  1  1  0
 12 11  2  0
 13 12  1  0
 14 13  2  0
 14 15  1  0
 15 16  2  0
 16 11  1  0
 17 15  1  0
 18 19  1  0
 18 17  1  0
 20 21  1  0
 20 19  1  0
 21 22  1  0
 22 17  1  0
  2 23  1  0
  3 24  1  0
  4 25  1  0
  6 26  1  0
  7 27  1  0
  8 28  1  0
  9 29  1  0
 12 30  1  0
 13 31  1  0
 18 32  1  0
 18 33  1  0
 19 34  1  0
 19 35  1  0
 20 36  1  0
 21 37  1  0
 21 38  1  0
 22 39  1  0
 22 40  1  0
M  ISO  8  23  14  24  14  25  14  26  14  27  14  28  14  29  14  30  14
M  ISO  8  31  14  32  13  33  13  34  13  35  13  36   5  37  13  38  13
M  ISO  2  39  13  40  13
M  END
>  <minimizedAffinity>  (1) 
-6.28489256

>  <minimizedRMSD>  (1) 
0.560439348

$$$$
