
     RDKit          3D

 32 35  0  0  0  0  0  0  0  0999 V2000
   37.2520   28.4120   40.9360 C   0  0  0  0  0  0  0  0  0  0  0  0
   37.4430   29.1650   42.1130 C   0  0  0  0  0  0  0  0  0  0  0  0
   37.4710   28.6290   43.3900 C   0  0  0  0  0  0  0  0  0  0  0  0
   37.3040   27.2700   43.5360 C   0  0  0  0  0  0  0  0  0  0  0  0
   37.1140   26.4770   42.4250 C   0  0  0  0  0  0  0  0  0  0  0  0
   36.9500   25.1180   42.5550 C   0  0  0  0  0  0  0  0  0  0  0  0
   36.7580   24.2760   41.4680 C   0  0  0  0  0  0  0  0  0  0  0  0
   36.7450   24.9100   40.2350 C   0  0  0  0  0  0  0  0  0  0  0  0
   36.9110   26.2630   40.1330 C   0  0  0  0  0  0  0  0  0  0  0  0
   37.0990   27.0850   41.1980 C   0  0  0  0  0  0  0  0  0  0  0  0
   37.2560   29.1500   39.7180 C   0  0  0  0  0  0  0  0  0  0  0  0
   36.1900   29.5500   38.8980 C   0  0  0  0  0  0  0  0  0  0  0  0
   36.3720   30.3150   37.7480 C   0  0  0  0  0  0  0  0  0  0  0  0
   37.6560   30.6550   37.4620 N   0  0  0  0  0  0  0  0  0  0  0  0
   38.6840   30.2890   38.2200 C   0  0  0  0  0  0  0  0  0  0  0  0
   38.4710   29.5600   39.3100 N   0  0  0  0  0  0  0  0  0  0  0  0
   39.9570   30.7360   37.7640 N   0  0  0  0  0  0  0  0  0  0  0  0
   40.3120   32.0370   37.5920 C   0  0  0  0  0  0  0  0  0  0  0  0
   41.5820   32.1100   37.1510 N   0  0  0  0  0  0  0  0  0  0  0  0
   42.0270   30.8280   37.0460 C   0  0  0  0  0  0  0  0  0  0  0  0
   41.0100   30.0210   37.4280 N   0  0  0  0  0  0  0  0  0  0  0  0
   37.5790   30.2517   42.0100 H   0  0  0  0  0  0  0  0  0  0  0  0
   37.6232   29.2744   44.2676 H   0  0  0  0  0  0  0  0  0  0  0  0
   37.3222   26.8177   44.5385 H   0  0  0  0  0  0  0  0  0  0  0  0
   36.9719   24.6792   43.5634 H   0  0  0  0  0  0  0  0  0  0  0  0
   36.6263   23.1893   41.5766 H   0  0  0  0  0  0  0  0  0  0  0  0
   36.5985   24.3135   39.3225 H   0  0  0  0  0  0  0  0  0  0  0  0
   36.8912   26.7127   39.1293 H   0  0  0  0  0  0  0  0  0  0  0  0
   35.1692   29.2473   39.1744 H   0  0  0  0  0  0  0  0  0  0  0  0
   35.5296   30.6242   37.1118 H   0  0  0  0  0  0  0  0  0  0  0  0
   39.6591   32.9011   37.7844 H   0  0  0  0  0  0  0  0  0  0  0  0
   43.0255   30.5081   36.7132 H   0  0  0  0  0  0  0  0  0  0  0  0
  1 10  1  0
  1  2  2  0
  2  3  1  0
  3  4  2  0
  5  6  2  0
  5  4  1  0
  7  6  1  0
  8  7  2  0
  9  8  1  0
  9 10  2  0
 10  5  1  0
 11  1  1  0
 12 11  2  0
 13 12  1  0
 14 13  2  0
 14 15  1  0
 15 16  2  0
 16 11  1  0
 17 15  1  0
 18 17  1  0
 19 18  2  0
 20 19  1  0
 20 21  2  0
 21 17  1  0
  2 22  1  0
  3 23  1  0
  4 24  1  0
  6 25  1  0
  7 26  1  0
  8 27  1  0
  9 28  1  0
 12 29  1  0
 13 30  1  0
 18 31  1  0
 20 32  1  0
M  ISO  8  22  14  23  14  24  14  25  14  26  14  27  14  28  14  29  14
M  ISO  3  30  14  31  14  32  14
M  END
>  <minimizedAffinity>  (1) 
-6.13800144

>  <minimizedRMSD>  (1) 
0.593605101

$$$$
