
     RDKit          3D

 33 36  0  0  0  0  0  0  0  0999 V2000
   37.2790   28.4710   40.8700 C   0  0  0  0  0  0  0  0  0  0  0  0
   37.4570   29.2780   42.0130 C   0  0  0  0  0  0  0  0  0  0  0  0
   37.4670   28.8110   43.3130 C   0  0  0  0  0  0  0  0  0  0  0  0
   37.2930   27.4530   43.5250 C   0  0  0  0  0  0  0  0  0  0  0  0
   37.1150   26.6160   42.4500 C   0  0  0  0  0  0  0  0  0  0  0  0
   36.9470   25.2640   42.6530 C   0  0  0  0  0  0  0  0  0  0  0  0
   36.7700   24.3700   41.6160 C   0  0  0  0  0  0  0  0  0  0  0  0
   36.7760   24.9430   40.3370 C   0  0  0  0  0  0  0  0  0  0  0  0
   36.9440   26.2830   40.1690 C   0  0  0  0  0  0  0  0  0  0  0  0
   37.1180   27.1580   41.1950 C   0  0  0  0  0  0  0  0  0  0  0  0
   37.2980   29.1510   39.6190 C   0  0  0  0  0  0  0  0  0  0  0  0
   36.2500   29.4860   38.7530 C   0  0  0  0  0  0  0  0  0  0  0  0
   36.4210   30.1910   37.5740 C   0  0  0  0  0  0  0  0  0  0  0  0
   37.7040   30.5450   37.3020 N   0  0  0  0  0  0  0  0  0  0  0  0
   38.7410   30.2470   38.1000 C   0  0  0  0  0  0  0  0  0  0  0  0
   38.5180   29.5600   39.2330 N   0  0  0  0  0  0  0  0  0  0  0  0
   40.0370   30.6800   37.6970 N   0  0  0  0  0  0  0  0  0  0  0  0
   41.1630   30.0460   37.3520 C   0  0  0  0  0  0  0  0  0  0  0  0
   42.0950   31.0240   37.0570 C   0  0  0  0  0  0  0  0  0  0  0  0
   41.5380   32.2380   37.2210 N   0  0  0  0  0  0  0  0  0  0  0  0
   40.2580   32.0170   37.6190 C   0  0  0  0  0  0  0  0  0  0  0  0
   37.5981   30.3578   41.8579 H   0  0  0  0  0  0  0  0  0  0  0  0
   37.6095   29.5000   44.1586 H   0  0  0  0  0  0  0  0  0  0  0  0
   37.2973   27.0474   44.5475 H   0  0  0  0  0  0  0  0  0  0  0  0
   36.9542   24.8808   43.6841 H   0  0  0  0  0  0  0  0  0  0  0  0
   36.6347   23.2909   41.7809 H   0  0  0  0  0  0  0  0  0  0  0  0
   36.6428   24.2994   39.4549 H   0  0  0  0  0  0  0  0  0  0  0  0
   36.9387   26.6813   39.1437 H   0  0  0  0  0  0  0  0  0  0  0  0
   35.2319   29.1707   39.0253 H   0  0  0  0  0  0  0  0  0  0  0  0
   35.5826   30.4450   36.9087 H   0  0  0  0  0  0  0  0  0  0  0  0
   41.3177   28.9577   37.3109 H   0  0  0  0  0  0  0  0  0  0  0  0
   43.1312   30.8384   36.7377 H   0  0  0  0  0  0  0  0  0  0  0  0
   39.5171   32.7987   37.8429 H   0  0  0  0  0  0  0  0  0  0  0  0
  1 10  1  0
  1  2  2  0
  2  3  1  0
  3  4  2  0
  5  6  2  0
  5  4  1  0
  7  6  1  0
  8  7  2  0
  9  8  1  0
  9 10  2  0
 10  5  1  0
 11  1  1  0
 12 11  2  0
 13 12  1  0
 14 13  2  0
 14 15  1  0
 15 16  2  0
 16 11  1  0
 17 15  1  0
 18 17  1  0
 19 20  1  0
 19 18  2  0
 20 21  2  0
 21 17  1  0
  2 22  1  0
  3 23  1  0
  4 24  1  0
  6 25  1  0
  7 26  1  0
  8 27  1  0
  9 28  1  0
 12 29  1  0
 13 30  1  0
 18 31  1  0
 19 32  1  0
 21 33  1  0
M  ISO  8  22  14  23  14  24  14  25  14  26  14  27  14  28  14  29  14
M  ISO  4  30  14  31  14  32  14  33  14
M  END
>  <minimizedAffinity>  (1) 
-6.08575201

>  <minimizedRMSD>  (1) 
0.65514797

$$$$
