
     RDKit          3D

 38 40  0  0  0  0  0  0  0  0999 V2000
   37.4360   28.8260   41.2110 C   0  0  0  0  0  0  0  0  0  0  0  0
   37.5570   29.4190   42.4840 C   0  0  0  0  0  0  0  0  0  0  0  0
   37.4960   28.7270   43.6790 C   0  0  0  0  0  0  0  0  0  0  0  0
   37.3030   27.3630   43.6380 C   0  0  0  0  0  0  0  0  0  0  0  0
   37.1770   26.7200   42.4270 C   0  0  0  0  0  0  0  0  0  0  0  0
   36.9900   25.3620   42.3750 C   0  0  0  0  0  0  0  0  0  0  0  0
   36.8600   24.6670   41.1790 C   0  0  0  0  0  0  0  0  0  0  0  0
   36.9360   25.4540   40.0360 C   0  0  0  0  0  0  0  0  0  0  0  0
   37.1240   26.8050   40.1180 C   0  0  0  0  0  0  0  0  0  0  0  0
   37.2490   27.4810   41.2910 C   0  0  0  0  0  0  0  0  0  0  0  0
   37.5280   29.7140   40.1000 C   0  0  0  0  0  0  0  0  0  0  0  0
   36.6130   29.9620   39.0660 C   0  0  0  0  0  0  0  0  0  0  0  0
   36.8400   30.9040   38.0640 C   0  0  0  0  0  0  0  0  0  0  0  0
   38.0210   31.5780   38.1530 N   0  0  0  0  0  0  0  0  0  0  0  0
   38.9040   31.3620   39.1220 C   0  0  0  0  0  0  0  0  0  0  0  0
   38.6490   30.4540   40.0580 N   0  0  0  0  0  0  0  0  0  0  0  0
   40.1510   32.1720   39.0930 C   0  0  0  0  0  0  0  0  0  0  0  0
   40.6440   32.3840   37.6740 C   0  0  0  0  0  0  0  0  0  0  0  0
   41.2810   31.5440   39.8650 C   0  0  0  0  0  0  0  0  0  0  0  0
   39.9190   33.5560   39.6860 C   0  0  0  0  0  0  0  0  0  0  0  0
   37.7105   30.5073   42.5296 H   0  0  0  0  0  0  0  0  0  0  0  0
   37.5990   29.2525   44.6399 H   0  0  0  0  0  0  0  0  0  0  0  0
   37.2496   26.7874   44.5738 H   0  0  0  0  0  0  0  0  0  0  0  0
   36.9409   24.8000   43.3193 H   0  0  0  0  0  0  0  0  0  0  0  0
   36.7086   23.5782   41.1398 H   0  0  0  0  0  0  0  0  0  0  0  0
   36.8431   24.9807   39.0474 H   0  0  0  0  0  0  0  0  0  0  0  0
   37.1773   27.3787   39.1810 H   0  0  0  0  0  0  0  0  0  0  0  0
   35.6750   29.3878   39.0450 H   0  0  0  0  0  0  0  0  0  0  0  0
   36.1159   31.0904   37.2572 H   0  0  0  0  0  0  0  0  0  0  0  0
   41.6543   32.8184   37.6979 H   0  0  0  0  0  0  0  0  0  0  0  0
   40.6724   31.4185   37.1476 H   0  0  0  0  0  0  0  0  0  0  0  0
   39.9628   33.0687   37.1476 H   0  0  0  0  0  0  0  0  0  0  0  0
   41.0914   31.6494   40.9434 H   0  0  0  0  0  0  0  0  0  0  0  0
   41.3523   30.4769   39.6078 H   0  0  0  0  0  0  0  0  0  0  0  0
   42.2248   32.0470   39.6078 H   0  0  0  0  0  0  0  0  0  0  0  0
   39.9299   33.4910   40.7840 H   0  0  0  0  0  0  0  0  0  0  0  0
   40.7156   34.2367   39.3511 H   0  0  0  0  0  0  0  0  0  0  0  0
   38.9440   33.9397   39.3511 H   0  0  0  0  0  0  0  0  0  0  0  0
  1 10  1  0
  1  2  2  0
  2  3  1  0
  4  3  2  0
  5  4  1  0
  6  5  2  0
  7  6  1  0
  8  9  1  0
  8  7  2  0
  9 10  2  0
 10  5  1  0
 11  1  1  0
 12 11  2  0
 13 14  2  0
 13 12  1  0
 14 15  1  0
 15 16  2  0
 16 11  1  0
 17 15  1  0
 17 20  1  0
 17 19  1  0
 18 17  1  0
  2 21  1  0
  3 22  1  0
  4 23  1  0
  6 24  1  0
  7 25  1  0
  8 26  1  0
  9 27  1  0
 12 28  1  0
 13 29  1  0
 18 30  1  0
 18 31  1  0
 18 32  1  0
 19 33  1  0
 19 34  1  0
 19 35  1  0
 20 36  1  0
 20 37  1  0
 20 38  1  0
M  ISO  8  21  14  22  14  23  14  24  14  25  14  26  14  27  14  28  14
M  ISO  8  29  14  30   8  31   8  32   8  33   8  34   8  35   8  36   8
M  ISO  2  37   8  38   8
M  END
>  <minimizedAffinity>  (1) 
-5.67279148

>  <minimizedRMSD>  (1) 
0.986205637

$$$$
