
     RDKit          3D

 32 34  0  0  0  0  0  0  0  0999 V2000
   37.4540   28.7600   41.3490 C   0  0  0  0  0  0  0  0  0  0  0  0
   37.5450   29.2730   42.6620 C   0  0  0  0  0  0  0  0  0  0  0  0
   37.4360   28.5210   43.8110 C   0  0  0  0  0  0  0  0  0  0  0  0
   37.2220   27.1670   43.6870 C   0  0  0  0  0  0  0  0  0  0  0  0
   37.1200   26.5920   42.4330 C   0  0  0  0  0  0  0  0  0  0  0  0
   36.9130   25.2400   42.3040 C   0  0  0  0  0  0  0  0  0  0  0  0
   36.8130   24.6240   41.0720 C   0  0  0  0  0  0  0  0  0  0  0  0
   36.9370   25.4700   39.9690 C   0  0  0  0  0  0  0  0  0  0  0  0
   37.1430   26.8100   40.1370 C   0  0  0  0  0  0  0  0  0  0  0  0
   37.2420   27.4170   41.3490 C   0  0  0  0  0  0  0  0  0  0  0  0
   37.5980   29.7080   40.2960 C   0  0  0  0  0  0  0  0  0  0  0  0
   36.6410   30.4150   39.5740 C   0  0  0  0  0  0  0  0  0  0  0  0
   36.9580   31.3470   38.5890 C   0  0  0  0  0  0  0  0  0  0  0  0
   38.2830   31.5290   38.3680 N   0  0  0  0  0  0  0  0  0  0  0  0
   39.2250   30.8720   39.0370 C   0  0  0  0  0  0  0  0  0  0  0  0
   38.8720   29.9890   39.9720 N   0  0  0  0  0  0  0  0  0  0  0  0
   40.6290   31.1930   38.6680 C   0  0  0  0  0  0  0  0  0  0  0  0
   40.6030   32.1740   37.4910 C   0  0  0  0  0  0  0  0  0  0  0  0
   37.7157   30.3537   42.7754 H   0  0  0  0  0  0  0  0  0  0  0  0
   37.5179   28.9906   44.8023 H   0  0  0  0  0  0  0  0  0  0  0  0
   37.1319   26.5409   44.5869 H   0  0  0  0  0  0  0  0  0  0  0  0
   36.8239   24.6272   43.2131 H   0  0  0  0  0  0  0  0  0  0  0  0
   36.6471   23.5416   40.9673 H   0  0  0  0  0  0  0  0  0  0  0  0
   36.8681   25.0533   38.9533 H   0  0  0  0  0  0  0  0  0  0  0  0
   37.2343   27.4356   39.2368 H   0  0  0  0  0  0  0  0  0  0  0  0
   35.5793   30.2279   39.7927 H   0  0  0  0  0  0  0  0  0  0  0  0
   36.1871   31.8970   38.0294 H   0  0  0  0  0  0  0  0  0  0  0  0
   41.1432   31.6530   39.5247 H   0  0  0  0  0  0  0  0  0  0  0  0
   41.1667   30.2757   38.3860 H   0  0  0  0  0  0  0  0  0  0  0  0
   40.5757   33.2050   37.8735 H   0  0  0  0  0  0  0  0  0  0  0  0
   41.5052   32.0344   36.8773 H   0  0  0  0  0  0  0  0  0  0  0  0
   39.7095   31.9868   36.8773 H   0  0  0  0  0  0  0  0  0  0  0  0
  1 10  1  0
  1  2  2  0
  2  3  1  0
  4  3  2  0
  5  4  1  0
  6  5  2  0
  7  6  1  0
  8  9  1  0
  8  7  2  0
  9 10  2  0
 10  5  1  0
 11  1  1  0
 12 11  2  0
 13 12  1  0
 14 13  2  0
 14 15  1  0
 15 16  2  0
 16 11  1  0
 17 15  1  0
 18 17  1  0
  2 19  1  0
  3 20  1  0
  4 21  1  0
  6 22  1  0
  7 23  1  0
  8 24  1  0
  9 25  1  0
 12 26  1  0
 13 27  1  0
 17 28  1  0
 17 29  1  0
 18 30  1  0
 18 31  1  0
 18 32  1  0
M  ISO  8  19  14  20  14  21  14  22  14  23  14  24  14  25  14  26  14
M  ISO  6  27  14  28   8  29   8  30   8  31   8  32   8
M  END
>  <minimizedAffinity>  (1) 
-5.24248934

>  <minimizedRMSD>  (1) 
0.440709084

$$$$
