
     RDKit          3D

 42 46  0  0  0  0  0  0  0  0999 V2000
   37.5710   29.8570   40.4330 C   0  0  0  0  0  0  0  0  0  0  0  0
   36.6270   30.3950   39.5650 C   0  0  0  0  0  0  0  0  0  0  0  0
   36.9050   31.3940   38.6350 C   0  0  0  0  0  0  0  0  0  0  0  0
   38.1940   31.8270   38.6230 N   0  0  0  0  0  0  0  0  0  0  0  0
   39.1310   31.3420   39.4340 C   0  0  0  0  0  0  0  0  0  0  0  0
   38.7620   30.3980   40.2790 N   0  0  0  0  0  0  0  0  0  0  0  0
   37.4600   28.8610   41.4330 C   0  0  0  0  0  0  0  0  0  0  0  0
   37.5750   29.3190   42.7540 C   0  0  0  0  0  0  0  0  0  0  0  0
   37.4880   28.5010   43.8730 C   0  0  0  0  0  0  0  0  0  0  0  0
   37.2780   27.1530   43.6870 C   0  0  0  0  0  0  0  0  0  0  0  0
   37.1560   26.6360   42.4070 C   0  0  0  0  0  0  0  0  0  0  0  0
   36.9480   25.2880   42.2090 C   0  0  0  0  0  0  0  0  0  0  0  0
   36.8260   24.7450   40.9520 C   0  0  0  0  0  0  0  0  0  0  0  0
   36.9280   25.6410   39.9160 C   0  0  0  0  0  0  0  0  0  0  0  0
   37.1340   26.9730   40.1280 C   0  0  0  0  0  0  0  0  0  0  0  0
   37.2550   27.5210   41.3650 C   0  0  0  0  0  0  0  0  0  0  0  0
   40.4890   31.8880   39.3430 C   0  0  0  0  0  0  0  0  0  0  0  0
   41.2380   31.5190   38.4020 O   0  0  0  0  0  0  0  0  0  0  0  0
   41.2700   32.8280   40.1110 C   0  0  0  0  0  0  0  0  0  0  0  0
   42.3970   32.3580   40.7050 N   0  0  0  0  0  0  0  0  0  0  0  0
   43.1960   33.1710   41.4520 C   0  0  0  0  0  0  0  0  0  0  0  0
   42.9080   34.4630   41.6350 N   0  0  0  0  0  0  0  0  0  0  0  0
   41.8130   35.0200   41.0890 C   0  0  0  0  0  0  0  0  0  0  0  0
   41.4750   36.3410   41.2900 C   0  0  0  0  0  0  0  0  0  0  0  0
   40.3270   36.8850   40.7540 C   0  0  0  0  0  0  0  0  0  0  0  0
   39.5330   36.0110   40.0000 C   0  0  0  0  0  0  0  0  0  0  0  0
   39.9050   34.7170   39.8270 C   0  0  0  0  0  0  0  0  0  0  0  0
   41.0390   34.1610   40.3460 C   0  0  0  0  0  0  0  0  0  0  0  0
   35.5985   30.0082   39.6160 H   0  0  0  0  0  0  0  0  0  0  0  0
   36.1384   31.8025   37.9601 H   0  0  0  0  0  0  0  0  0  0  0  0
   37.7448   30.3940   42.9136 H   0  0  0  0  0  0  0  0  0  0  0  0
   37.5847   28.9206   44.8852 H   0  0  0  0  0  0  0  0  0  0  0  0
   37.2068   26.4841   44.5574 H   0  0  0  0  0  0  0  0  0  0  0  0
   36.8774   24.6257   43.0844 H   0  0  0  0  0  0  0  0  0  0  0  0
   36.6587   23.6703   40.7877 H   0  0  0  0  0  0  0  0  0  0  0  0
   36.8409   25.2732   38.8830 H   0  0  0  0  0  0  0  0  0  0  0  0
   37.2057   27.6363   39.2534 H   0  0  0  0  0  0  0  0  0  0  0  0
   44.1013   32.7529   41.9163 H   0  0  0  0  0  0  0  0  0  0  0  0
   42.1383   36.9778   41.8937 H   0  0  0  0  0  0  0  0  0  0  0  0
   40.0519   37.9388   40.9086 H   0  0  0  0  0  0  0  0  0  0  0  0
   38.6007   36.3763   39.5446 H   0  0  0  0  0  0  0  0  0  0  0  0
   39.2470   34.0713   39.2269 H   0  0  0  0  0  0  0  0  0  0  0  0
  1  7  1  0
  2  1  2  0
  3  2  1  0
  4  3  2  0
  4  5  1  0
  5  6  2  0
  6  1  1  0
  7  8  2  0
  8  9  1  0
 10  9  2  0
 11 10  1  0
 12 11  2  0
 13 12  1  0
 14 15  1  0
 14 13  2  0
 15 16  2  0
 16  7  1  0
 16 11  1  0
 17  5  1  0
 17 19  1  0
 18 17  2  0
 19 28  1  0
 19 20  2  0
 20 21  1  0
 21 22  2  0
 23 24  2  0
 23 22  1  0
 25 24  1  0
 26 25  2  0
 27 26  1  0
 27 28  2  0
 28 23  1  0
  2 29  1  0
  3 30  1  0
  8 31  1  0
  9 32  1  0
 10 33  1  0
 12 34  1  0
 13 35  1  0
 14 36  1  0
 15 37  1  0
 21 38  1  0
 24 39  1  0
 25 40  1  0
 26 41  1  0
 27 42  1  0
M  ISO  8  29  14  30  14  31  14  32  14  33  14  34  14  35  14  36  14
M  ISO  6  37  14  38  14  39  14  40  14  41  14  42  14
M  END
>  <minimizedAffinity>  (1) 
-7.56457949

>  <minimizedRMSD>  (1) 
2.56035185

$$$$
