
     RDKit          3D

 35 37  0  0  0  0  0  0  0  0999 V2000
   37.3170   29.1960   40.1270 C   0  0  0  0  0  0  0  0  0  0  0  0
   36.2250   29.0840   39.2510 C   0  0  0  0  0  0  0  0  0  0  0  0
   36.0440   29.9180   38.1460 C   0  0  0  0  0  0  0  0  0  0  0  0
   37.0090   30.8660   37.9640 N   0  0  0  0  0  0  0  0  0  0  0  0
   38.0480   30.9930   38.7750 C   0  0  0  0  0  0  0  0  0  0  0  0
   38.1930   30.1790   39.8230 N   0  0  0  0  0  0  0  0  0  0  0  0
   37.6440   28.4570   41.2920 C   0  0  0  0  0  0  0  0  0  0  0  0
   37.3530   29.1030   42.5140 C   0  0  0  0  0  0  0  0  0  0  0  0
   37.5960   28.5410   43.7590 C   0  0  0  0  0  0  0  0  0  0  0  0
   38.1590   27.2680   43.8120 C   0  0  0  0  0  0  0  0  0  0  0  0
   38.4640   26.5910   42.6420 C   0  0  0  0  0  0  0  0  0  0  0  0
   39.0170   25.3450   42.6880 C   0  0  0  0  0  0  0  0  0  0  0  0
   39.3400   24.6360   41.5600 C   0  0  0  0  0  0  0  0  0  0  0  0
   39.0600   25.2780   40.3740 C   0  0  0  0  0  0  0  0  0  0  0  0
   38.5070   26.5240   40.3410 C   0  0  0  0  0  0  0  0  0  0  0  0
   38.1900   27.2210   41.4610 C   0  0  0  0  0  0  0  0  0  0  0  0
   39.0280   32.0490   38.4910 C   0  0  0  0  0  0  0  0  0  0  0  0
   39.6780   32.0490   37.4090 O   0  0  0  0  0  0  0  0  0  0  0  0
   39.3050   33.1110   39.3880 N   0  0  0  0  0  0  0  0  0  0  0  0
   38.3110   33.6200   40.2820 C   0  0  0  0  0  0  0  0  0  0  0  0
   37.1450   33.0730   40.2410 N   0  0  0  0  0  0  0  0  0  0  0  0
   38.7400   34.6880   41.1220 N   0  0  0  0  0  0  0  0  0  0  0  0
   36.4210   33.4430   40.8910 H   0  0  0  0  0  0  0  0  0  0  0  0
   35.4764   28.3017   39.4448 H   0  0  0  0  0  0  0  0  0  0  0  0
   35.1830   29.8180   37.4687 H   0  0  0  0  0  0  0  0  0  0  0  0
   36.9086   30.1085   42.4764 H   0  0  0  0  0  0  0  0  0  0  0  0
   37.3501   29.0873   44.6816 H   0  0  0  0  0  0  0  0  0  0  0  0
   38.3622   26.7986   44.7858 H   0  0  0  0  0  0  0  0  0  0  0  0
   39.2118   24.8904   43.6705 H   0  0  0  0  0  0  0  0  0  0  0  0
   39.7881   23.6322   41.5990 H   0  0  0  0  0  0  0  0  0  0  0  0
   39.2893   24.7706   39.4254 H   0  0  0  0  0  0  0  0  0  0  0  0
   38.3090   26.9849   39.3620 H   0  0  0  0  0  0  0  0  0  0  0  0
   40.2471   33.5273   39.3963 H   0  0  0  0  0  0  0  0  0  0  0  0
   38.0836   35.1101   41.7942 H   0  0  0  0  0  0  0  0  0  0  0  0
   39.7065   35.0380   41.0570 H   0  0  0  0  0  0  0  0  0  0  0  0
  1  7  1  0
  2  1  2  0
  3  2  1  0
  4  3  2  0
  4  5  1  0
  5  6  2  0
  6  1  1  0
  7 16  1  0
  7  8  2  0
  8  9  1  0
  9 10  2  0
 11 12  2  0
 11 10  1  0
 13 12  1  0
 14 13  2  0
 15 14  1  0
 15 16  2  0
 16 11  1  0
 17  5  1  0
 17 19  1  0
 18 17  2  0
 19 20  1  0
 20 22  1  0
 21 20  2  0
 21 23  1  0
  2 24  1  0
  3 25  1  0
  8 26  1  0
  9 27  1  0
 10 28  1  0
 12 29  1  0
 13 30  1  0
 14 31  1  0
 15 32  1  0
 19 33  1  0
 22 34  1  0
 22 35  1  0
M  ISO  8  24  14  25  14  26  14  27  14  28  14  29  14  30  14  31  14
M  ISO  1  32  14
M  END
>  <minimizedAffinity>  (1) 
-6.72675371

>  <minimizedRMSD>  (1) 
2.35903287

$$$$
