
     RDKit          3D

 42 46  0  0  0  0  0  0  0  0999 V2000
   37.2860   29.4030   39.8260 C   0  0  0  0  0  0  0  0  0  0  0  0
   36.2670   29.5580   38.8820 C   0  0  0  0  0  0  0  0  0  0  0  0
   36.3940   30.3560   37.7500 C   0  0  0  0  0  0  0  0  0  0  0  0
   37.6010   30.9970   37.6080 N   0  0  0  0  0  0  0  0  0  0  0  0
   38.5790   30.8640   38.4890 C   0  0  0  0  0  0  0  0  0  0  0  0
   38.4220   30.0880   39.5670 N   0  0  0  0  0  0  0  0  0  0  0  0
   37.3260   28.6550   41.0300 C   0  0  0  0  0  0  0  0  0  0  0  0
   37.5590   29.4120   42.2000 C   0  0  0  0  0  0  0  0  0  0  0  0
   37.6320   28.8600   43.4710 C   0  0  0  0  0  0  0  0  0  0  0  0
   37.4710   27.4960   43.6170 C   0  0  0  0  0  0  0  0  0  0  0  0
   37.2410   26.7080   42.5080 C   0  0  0  0  0  0  0  0  0  0  0  0
   37.0770   25.3500   42.6290 C   0  0  0  0  0  0  0  0  0  0  0  0
   36.8460   24.5270   41.5570 C   0  0  0  0  0  0  0  0  0  0  0  0
   36.7910   25.1660   40.3410 C   0  0  0  0  0  0  0  0  0  0  0  0
   36.9530   26.5140   40.2170 C   0  0  0  0  0  0  0  0  0  0  0  0
   37.1800   27.3200   41.2780 C   0  0  0  0  0  0  0  0  0  0  0  0
   39.8290   31.5900   38.2410 C   0  0  0  0  0  0  0  0  0  0  0  0
   40.0790   32.0770   37.1120 O   0  0  0  0  0  0  0  0  0  0  0  0
   40.8330   31.7800   39.2850 C   0  0  0  0  0  0  0  0  0  0  0  0
   41.6230   30.8410   39.9230 C   0  0  0  0  0  0  0  0  0  0  0  0
   42.4270   31.4270   40.8310 N   0  0  0  0  0  0  0  0  0  0  0  0
   42.1390   32.7590   40.7640 C   0  0  0  0  0  0  0  0  0  0  0  0
   42.7150   33.7780   41.5150 C   0  0  0  0  0  0  0  0  0  0  0  0
   42.3000   35.1010   41.3200 C   0  0  0  0  0  0  0  0  0  0  0  0
   41.3100   35.3660   40.3680 C   0  0  0  0  0  0  0  0  0  0  0  0
   40.7680   34.3250   39.6470 C   0  0  0  0  0  0  0  0  0  0  0  0
   41.1610   33.0060   39.8210 C   0  0  0  0  0  0  0  0  0  0  0  0
   35.3192   29.0232   39.0420 H   0  0  0  0  0  0  0  0  0  0  0  0
   35.5816   30.4667   37.0167 H   0  0  0  0  0  0  0  0  0  0  0  0
   37.6898   30.4994   42.0977 H   0  0  0  0  0  0  0  0  0  0  0  0
   37.8151   29.4983   44.3480 H   0  0  0  0  0  0  0  0  0  0  0  0
   37.5261   27.0386   44.6159 H   0  0  0  0  0  0  0  0  0  0  0  0
   37.1336   24.9019   43.6320 H   0  0  0  0  0  0  0  0  0  0  0  0
   36.7149   23.4399   41.6618 H   0  0  0  0  0  0  0  0  0  0  0  0
   36.6098   24.5682   39.4356 H   0  0  0  0  0  0  0  0  0  0  0  0
   36.8968   26.9631   39.2144 H   0  0  0  0  0  0  0  0  0  0  0  0
   41.5981   29.7608   39.7166 H   0  0  0  0  0  0  0  0  0  0  0  0
   43.1137   30.9671   41.4457 H   0  0  0  0  0  0  0  0  0  0  0  0
   43.4922   33.5459   42.2580 H   0  0  0  0  0  0  0  0  0  0  0  0
   42.7452   35.9186   41.9059 H   0  0  0  0  0  0  0  0  0  0  0  0
   40.9672   36.3971   40.1966 H   0  0  0  0  0  0  0  0  0  0  0  0
   39.9906   34.5490   38.9017 H   0  0  0  0  0  0  0  0  0  0  0  0
  1  7  1  0
  2  1  2  0
  3  2  1  0
  4  3  2  0
  4  5  1  0
  5  6  2  0
  6  1  1  0
  7 16  1  0
  7  8  2  0
  8  9  1  0
  9 10  2  0
 11 12  2  0
 11 10  1  0
 13 12  1  0
 14 13  2  0
 15 14  1  0
 15 16  2  0
 16 11  1  0
 17  5  1  0
 17 19  1  0
 18 17  2  0
 19 27  1  0
 19 20  2  0
 20 21  1  0
 22 21  1  0
 22 23  2  0
 24 23  1  0
 25 24  2  0
 26 27  2  0
 26 25  1  0
 27 22  1  0
  2 28  1  0
  3 29  1  0
  8 30  1  0
  9 31  1  0
 10 32  1  0
 12 33  1  0
 13 34  1  0
 14 35  1  0
 15 36  1  0
 20 37  1  0
 21 38  1  0
 23 39  1  0
 24 40  1  0
 25 41  1  0
 26 42  1  0
M  ISO  8  28  14  29  14  30  14  31  14  32  14  33  14  34  14  35  14
M  ISO  7  36  14  37  14  38   9  39  14  40  14  41  14  42  14
M  END
>  <minimizedAffinity>  (1) 
-6.67243052

>  <minimizedRMSD>  (1) 
1.79455686

$$$$
