
     RDKit          3D

 35 38  0  0  0  0  0  0  0  0999 V2000
   37.2250   28.5170   40.9260 C   0  0  0  0  0  0  0  0  0  0  0  0
   37.4120   29.2870   42.0970 C   0  0  0  0  0  0  0  0  0  0  0  0
   37.4500   28.7500   43.3750 C   0  0  0  0  0  0  0  0  0  0  0  0
   37.2960   27.3760   43.5210 C   0  0  0  0  0  0  0  0  0  0  0  0
   37.1120   26.5820   42.4070 C   0  0  0  0  0  0  0  0  0  0  0  0
   36.9580   25.2240   42.5400 C   0  0  0  0  0  0  0  0  0  0  0  0
   36.7730   24.3900   41.4680 C   0  0  0  0  0  0  0  0  0  0  0  0
   36.7500   25.0190   40.2380 C   0  0  0  0  0  0  0  0  0  0  0  0
   36.9020   26.3690   40.1170 C   0  0  0  0  0  0  0  0  0  0  0  0
   37.0850   27.1860   41.1760 C   0  0  0  0  0  0  0  0  0  0  0  0
   37.2140   29.2560   39.7170 C   0  0  0  0  0  0  0  0  0  0  0  0
   36.2780   29.3020   38.6790 C   0  0  0  0  0  0  0  0  0  0  0  0
   36.4030   30.1040   37.5550 C   0  0  0  0  0  0  0  0  0  0  0  0
   37.5370   30.8740   37.5160 N   0  0  0  0  0  0  0  0  0  0  0  0
   38.4540   30.8550   38.4900 C   0  0  0  0  0  0  0  0  0  0  0  0
   38.2820   30.0640   39.5500 N   0  0  0  0  0  0  0  0  0  0  0  0
   39.6230   31.7170   38.3430 C   0  0  0  0  0  0  0  0  0  0  0  0
   39.9820   32.1340   37.2100 O   0  0  0  0  0  0  0  0  0  0  0  0
   40.4380   32.1440   39.4750 C   0  0  0  0  0  0  0  0  0  0  0  0
   40.8660   33.4400   39.6630 C   0  0  0  0  0  0  0  0  0  0  0  0
   41.6000   33.5040   40.8040 N   0  0  0  0  0  0  0  0  0  0  0  0
   41.6410   32.2700   41.3380 C   0  0  0  0  0  0  0  0  0  0  0  0
   40.9440   31.4800   40.5290 N   0  0  0  0  0  0  0  0  0  0  0  0
   37.5344   30.3747   41.9880 H   0  0  0  0  0  0  0  0  0  0  0  0
   37.5985   29.3961   44.2528 H   0  0  0  0  0  0  0  0  0  0  0  0
   37.3208   26.9223   44.5228 H   0  0  0  0  0  0  0  0  0  0  0  0
   36.9842   24.7871   43.5492 H   0  0  0  0  0  0  0  0  0  0  0  0
   36.6520   23.3023   41.5786 H   0  0  0  0  0  0  0  0  0  0  0  0
   36.6050   24.4140   39.3308 H   0  0  0  0  0  0  0  0  0  0  0  0
   36.8742   26.8123   39.1107 H   0  0  0  0  0  0  0  0  0  0  0  0
   35.3870   28.6619   38.7593 H   0  0  0  0  0  0  0  0  0  0  0  0
   35.6489   30.1213   36.7544 H   0  0  0  0  0  0  0  0  0  0  0  0
   40.6482   34.2871   38.9960 H   0  0  0  0  0  0  0  0  0  0  0  0
   42.1527   31.9727   42.2652 H   0  0  0  0  0  0  0  0  0  0  0  0
   40.8066   30.4721   40.6909 H   0  0  0  0  0  0  0  0  0  0  0  0
  1 10  1  0
  1  2  2  0
  2  3  1  0
  3  4  2  0
  5  6  2  0
  5  4  1  0
  7  6  1  0
  8  7  2  0
  9  8  1  0
  9 10  2  0
 10  5  1  0
 11  1  1  0
 12 11  2  0
 13 12  1  0
 14 13  2  0
 14 15  1  0
 15 16  2  0
 16 11  1  0
 17 15  1  0
 17 19  1  0
 18 17  2  0
 19 20  2  0
 19 23  1  0
 20 21  1  0
 21 22  2  0
 23 22  1  0
  2 24  1  0
  3 25  1  0
  4 26  1  0
  6 27  1  0
  7 28  1  0
  8 29  1  0
  9 30  1  0
 12 31  1  0
 13 32  1  0
 20 33  1  0
 22 34  1  0
 23 35  1  0
M  ISO  8  24  14  25  14  26  14  27  14  28  14  29  14  30  14  31  14
M  ISO  4  32  14  33  14  34  14  35   9
M  END
>  <minimizedAffinity>  (1) 
-5.9241991

>  <minimizedRMSD>  (1) 
1.48093545

$$$$
