
     RDKit          3D

 33 36  0  0  0  0  0  0  0  0999 V2000
   37.2400   28.5380   40.9310 C   0  0  0  0  0  0  0  0  0  0  0  0
   37.4240   29.2950   42.1080 C   0  0  0  0  0  0  0  0  0  0  0  0
   37.4630   28.7520   43.3820 C   0  0  0  0  0  0  0  0  0  0  0  0
   37.3120   27.3890   43.5230 C   0  0  0  0  0  0  0  0  0  0  0  0
   37.1260   26.5900   42.4050 C   0  0  0  0  0  0  0  0  0  0  0  0
   36.9740   25.2270   42.5320 C   0  0  0  0  0  0  0  0  0  0  0  0
   36.7890   24.4050   41.4500 C   0  0  0  0  0  0  0  0  0  0  0  0
   36.7680   25.0410   40.2340 C   0  0  0  0  0  0  0  0  0  0  0  0
   36.9180   26.3930   40.1170 C   0  0  0  0  0  0  0  0  0  0  0  0
   37.1000   27.2040   41.1830 C   0  0  0  0  0  0  0  0  0  0  0  0
   37.2310   29.2820   39.7260 C   0  0  0  0  0  0  0  0  0  0  0  0
   36.2580   29.3730   38.7190 C   0  0  0  0  0  0  0  0  0  0  0  0
   36.4090   30.1860   37.5910 C   0  0  0  0  0  0  0  0  0  0  0  0
   37.5750   30.8950   37.5270 N   0  0  0  0  0  0  0  0  0  0  0  0
   38.5090   30.8230   38.4670 C   0  0  0  0  0  0  0  0  0  0  0  0
   38.3330   30.0360   39.5330 N   0  0  0  0  0  0  0  0  0  0  0  0
   39.7220   31.6270   38.3010 C   0  0  0  0  0  0  0  0  0  0  0  0
   40.0200   32.1290   37.1870 O   0  0  0  0  0  0  0  0  0  0  0  0
   40.5970   31.8440   39.4470 C   0  0  0  0  0  0  0  0  0  0  0  0
   40.4360   32.7580   40.4190 N   0  0  0  0  0  0  0  0  0  0  0  0
   41.4270   32.6550   41.2830 O   0  0  0  0  0  0  0  0  0  0  0  0
   42.2300   31.6950   40.8960 C   0  0  0  0  0  0  0  0  0  0  0  0
   41.7240   31.1750   39.7460 N   0  0  0  0  0  0  0  0  0  0  0  0
   37.5439   30.3838   42.0075 H   0  0  0  0  0  0  0  0  0  0  0  0
   37.6113   29.3948   44.2623 H   0  0  0  0  0  0  0  0  0  0  0  0
   37.3391   26.9344   44.5243 H   0  0  0  0  0  0  0  0  0  0  0  0
   37.0020   24.7818   43.5375 H   0  0  0  0  0  0  0  0  0  0  0  0
   36.6665   23.3164   41.5494 H   0  0  0  0  0  0  0  0  0  0  0  0
   36.6255   24.4413   39.3229 H   0  0  0  0  0  0  0  0  0  0  0  0
   36.8895   26.8412   39.1129 H   0  0  0  0  0  0  0  0  0  0  0  0
   35.3374   28.7797   38.8211 H   0  0  0  0  0  0  0  0  0  0  0  0
   35.6398   30.2503   36.8073 H   0  0  0  0  0  0  0  0  0  0  0  0
   43.1471   31.3688   41.4083 H   0  0  0  0  0  0  0  0  0  0  0  0
  1 10  1  0
  1  2  2  0
  2  3  1  0
  3  4  2  0
  5  6  2  0
  5  4  1  0
  7  6  1  0
  8  7  2  0
  9  8  1  0
  9 10  2  0
 10  5  1  0
 11  1  1  0
 12 11  2  0
 13 12  1  0
 14 13  2  0
 14 15  1  0
 15 16  2  0
 16 11  1  0
 17 15  1  0
 17 19  1  0
 18 17  2  0
 19 23  1  0
 19 20  2  0
 20 21  1  0
 22 21  1  0
 23 22  2  0
  2 24  1  0
  3 25  1  0
  4 26  1  0
  6 27  1  0
  7 28  1  0
  8 29  1  0
  9 30  1  0
 12 31  1  0
 13 32  1  0
 22 33  1  0
M  ISO  8  24  14  25  14  26  14  27  14  28  14  29  14  30  14  31  14
M  ISO  2  32  14  33  14
M  END
>  <minimizedAffinity>  (1) 
-5.79146004

>  <minimizedRMSD>  (1) 
1.12927794

$$$$
