
     RDKit          3D

 44 47  0  0  0  0  0  0  0  0999 V2000
   37.5660   29.7100   40.0640 C   0  0  0  0  0  0  0  0  0  0  0  0
   36.5770   30.1370   39.1580 C   0  0  0  0  0  0  0  0  0  0  0  0
   36.8530   31.0260   38.1110 C   0  0  0  0  0  0  0  0  0  0  0  0
   38.1390   31.4590   38.0150 N   0  0  0  0  0  0  0  0  0  0  0  0
   39.0860   31.0730   38.8530 C   0  0  0  0  0  0  0  0  0  0  0  0
   38.7890   30.2310   39.8320 N   0  0  0  0  0  0  0  0  0  0  0  0
   37.4780   28.8430   41.1730 C   0  0  0  0  0  0  0  0  0  0  0  0
   37.6190   29.4600   42.4340 C   0  0  0  0  0  0  0  0  0  0  0  0
   37.5670   28.7830   43.6400 C   0  0  0  0  0  0  0  0  0  0  0  0
   37.3600   27.3970   43.6110 C   0  0  0  0  0  0  0  0  0  0  0  0
   37.2160   26.7520   42.3990 C   0  0  0  0  0  0  0  0  0  0  0  0
   37.0150   25.3940   42.3670 C   0  0  0  0  0  0  0  0  0  0  0  0
   36.8680   24.7010   41.1990 C   0  0  0  0  0  0  0  0  0  0  0  0
   36.9370   25.4700   40.0530 C   0  0  0  0  0  0  0  0  0  0  0  0
   37.1360   26.8190   40.0930 C   0  0  0  0  0  0  0  0  0  0  0  0
   37.2800   27.4950   41.2630 C   0  0  0  0  0  0  0  0  0  0  0  0
   40.4380   31.6030   38.6540 C   0  0  0  0  0  0  0  0  0  0  0  0
   41.1720   31.1540   37.7340 O   0  0  0  0  0  0  0  0  0  0  0  0
   41.0590   32.6550   39.4480 C   0  0  0  0  0  0  0  0  0  0  0  0
   40.7930   33.9830   39.1000 C   0  0  0  0  0  0  0  0  0  0  0  0
   41.3430   35.0410   39.8230 C   0  0  0  0  0  0  0  0  0  0  0  0
   42.1800   34.8090   40.9190 C   0  0  0  0  0  0  0  0  0  0  0  0
   42.4330   33.4940   41.2500 C   0  0  0  0  0  0  0  0  0  0  0  0
   41.8890   32.4640   40.5350 C   0  0  0  0  0  0  0  0  0  0  0  0
   42.1950   31.0760   40.9070 C   0  0  0  0  0  0  0  0  0  0  0  0
   43.5670   30.6060   40.4860 C   0  0  0  0  0  0  0  0  0  0  0  0
   35.5507   29.7592   39.2763 H   0  0  0  0  0  0  0  0  0  0  0  0
   36.0745   31.3550   37.4070 H   0  0  0  0  0  0  0  0  0  0  0  0
   37.7804   30.5478   42.4603 H   0  0  0  0  0  0  0  0  0  0  0  0
   37.6848   29.3175   44.5942 H   0  0  0  0  0  0  0  0  0  0  0  0
   37.3125   26.8258   44.5499 H   0  0  0  0  0  0  0  0  0  0  0  0
   36.9707   24.8432   43.3181 H   0  0  0  0  0  0  0  0  0  0  0  0
   36.7069   23.6132   41.1727 H   0  0  0  0  0  0  0  0  0  0  0  0
   36.8278   24.9777   39.0754 H   0  0  0  0  0  0  0  0  0  0  0  0
   37.1814   27.3781   39.1468 H   0  0  0  0  0  0  0  0  0  0  0  0
   40.1390   34.1966   38.2417 H   0  0  0  0  0  0  0  0  0  0  0  0
   41.1147   36.0753   39.5263 H   0  0  0  0  0  0  0  0  0  0  0  0
   42.6178   35.6394   41.4925 H   0  0  0  0  0  0  0  0  0  0  0  0
   43.0857   33.2698   42.1066 H   0  0  0  0  0  0  0  0  0  0  0  0
   42.1221   30.9889   42.0011 H   0  0  0  0  0  0  0  0  0  0  0  0
   41.4692   30.4414   40.3773 H   0  0  0  0  0  0  0  0  0  0  0  0
   44.1736   30.3982   41.3798 H   0  0  0  0  0  0  0  0  0  0  0  0
   43.4723   29.6891   39.8858 H   0  0  0  0  0  0  0  0  0  0  0  0
   44.0544   31.3884   39.8858 H   0  0  0  0  0  0  0  0  0  0  0  0
  1  7  1  0
  2  1  2  0
  3  2  1  0
  4  3  2  0
  4  5  1  0
  5  6  2  0
  6  1  1  0
  7 16  1  0
  7  8  2  0
  8  9  1  0
 10  9  2  0
 11 10  1  0
 12 11  2  0
 13 12  1  0
 14 15  1  0
 14 13  2  0
 15 16  2  0
 16 11  1  0
 17  5  1  0
 17 19  1  0
 18 17  2  0
 19 24  1  0
 20 19  2  0
 20 21  1  0
 21 22  2  0
 22 23  1  0
 24 25  1  0
 24 23  2  0
 26 25  1  0
  2 27  1  0
  3 28  1  0
  8 29  1  0
  9 30  1  0
 10 31  1  0
 12 32  1  0
 13 33  1  0
 14 34  1  0
 15 35  1  0
 20 36  1  0
 21 37  1  0
 22 38  1  0
 23 39  1  0
 25 40  1  0
 25 41  1  0
 26 42  1  0
 26 43  1  0
 26 44  1  0
M  ISO  8  27  14  28  14  29  14  30  14  31  14  32  14  33  14  34  14
M  ISO  8  35  14  36  14  37  14  38  14  39  14  40   8  41   8  42   8
M  ISO  2  43   8  44   8
M  END
>  <minimizedAffinity>  (1) 
-6.01801109

>  <minimizedRMSD>  (1) 
1.46351337

$$$$
