
     RDKit          3D

 35 38  0  0  0  0  0  0  0  0999 V2000
   41.5480   28.1160   43.2580 C   0  0  0  0  0  0  0  0  0  0  0  0
   41.1710   26.9860   44.0080 C   0  0  0  0  0  0  0  0  0  0  0  0
   39.8070   26.6450   44.0540 C   0  0  0  0  0  0  0  0  0  0  0  0
   38.9180   27.4350   43.3650 N   0  0  0  0  0  0  0  0  0  0  0  0
   39.3180   28.5070   42.6620 C   0  0  0  0  0  0  0  0  0  0  0  0
   40.6280   28.8480   42.6070 N   0  0  0  0  0  0  0  0  0  0  0  0
   38.2670   29.2150   42.0100 N   0  0  0  0  0  0  0  0  0  0  0  0
   37.0770   28.6120   41.8670 C   0  0  0  0  0  0  0  0  0  0  0  0
   36.2540   29.4750   41.2250 N   0  0  0  0  0  0  0  0  0  0  0  0
   36.8960   30.6170   40.9560 C   0  0  0  0  0  0  0  0  0  0  0  0
   36.6760   31.8410   40.3630 C   0  0  0  0  0  0  0  0  0  0  0  0
   37.6370   32.7980   40.2800 N   0  0  0  0  0  0  0  0  0  0  0  0
   38.8620   32.5490   40.7950 C   0  0  0  0  0  0  0  0  0  0  0  0
   39.1220   31.3680   41.3830 N   0  0  0  0  0  0  0  0  0  0  0  0
   38.1700   30.4410   41.4580 C   0  0  0  0  0  0  0  0  0  0  0  0
   39.8610   33.5580   40.7030 N   0  0  0  0  0  0  0  0  0  0  0  0
   39.5300   34.9450   40.6920 C   0  0  0  0  0  0  0  0  0  0  0  0
   40.4470   35.6650   39.7300 C   0  0  0  0  0  0  0  0  0  0  0  0
   41.8380   35.4820   40.0360 N   0  0  0  0  0  0  0  0  0  0  0  0
   42.1110   34.4030   40.9500 C   0  0  0  0  0  0  0  0  0  0  0  0
   41.2620   33.1990   40.6140 C   0  0  0  0  0  0  0  0  0  0  0  0
   42.6084   28.4033   43.2041 H   0  0  0  0  0  0  0  0  0  0  0  0
   41.9220   26.3864   44.5432 H   0  0  0  0  0  0  0  0  0  0  0  0
   39.4616   25.7707   44.6253 H   0  0  0  0  0  0  0  0  0  0  0  0
   36.8168   27.5995   42.2094 H   0  0  0  0  0  0  0  0  0  0  0  0
   35.6828   32.0519   39.9399 H   0  0  0  0  0  0  0  0  0  0  0  0
   38.4858   35.0719   40.3703 H   0  0  0  0  0  0  0  0  0  0  0  0
   39.6512   35.3628   41.7023 H   0  0  0  0  0  0  0  0  0  0  0  0
   40.2187   36.7404   39.7668 H   0  0  0  0  0  0  0  0  0  0  0  0
   40.2720   35.2416   38.7300 H   0  0  0  0  0  0  0  0  0  0  0  0
   42.3389   35.2929   39.1561 H   0  0  0  0  0  0  0  0  0  0  0  0
   43.1737   34.1281   40.8788 H   0  0  0  0  0  0  0  0  0  0  0  0
   41.8729   34.7329   41.9720 H   0  0  0  0  0  0  0  0  0  0  0  0
   41.4787   32.3874   41.3242 H   0  0  0  0  0  0  0  0  0  0  0  0
   41.4907   32.8618   39.5922 H   0  0  0  0  0  0  0  0  0  0  0  0
  1  2  2  0
  2  3  1  0
  4  3  2  0
  5  4  1  0
  6  5  2  0
  6  1  1  0
  7  5  1  0
  8  7  1  0
  9  8  2  0
 10  9  1  0
 10 15  2  0
 11 10  1  0
 12 11  2  0
 12 13  1  0
 13 14  2  0
 14 15  1  0
 15  7  1  0
 16 13  1  0
 17 16  1  0
 18 19  1  0
 18 17  1  0
 19 20  1  0
 21 16  1  0
 21 20  1  0
  1 22  1  0
  2 23  1  0
  3 24  1  0
  8 25  1  0
 11 26  1  0
 17 27  1  0
 17 28  1  0
 18 29  1  0
 18 30  1  0
 19 31  1  0
 20 32  1  0
 20 33  1  0
 21 34  1  0
 21 35  1  0
M  ISO  8  22  14  23  14  24  14  25  14  26  14  27  13  28  13  29  13
M  ISO  6  30  13  31   5  32  13  33  13  34  13  35  13
M  END
>  <minimizedAffinity>  (1) 
-6.43539238

>  <minimizedRMSD>  (1) 
1.89318609

$$$$
