
     RDKit          3D

 28 31  0  0  0  0  0  0  0  0999 V2000
   40.5940   28.1460   43.0180 C   0  0  0  0  0  0  0  0  0  0  0  0
   39.7840   27.2150   43.6890 C   0  0  0  0  0  0  0  0  0  0  0  0
   38.3870   27.3670   43.6150 C   0  0  0  0  0  0  0  0  0  0  0  0
   37.9020   28.4250   42.8840 N   0  0  0  0  0  0  0  0  0  0  0  0
   38.7040   29.2980   42.2530 C   0  0  0  0  0  0  0  0  0  0  0  0
   40.0500   29.1570   42.3210 N   0  0  0  0  0  0  0  0  0  0  0  0
   38.0170   30.3260   41.5480 N   0  0  0  0  0  0  0  0  0  0  0  0
   36.7100   30.1700   41.2830 C   0  0  0  0  0  0  0  0  0  0  0  0
   36.3030   31.2790   40.6130 N   0  0  0  0  0  0  0  0  0  0  0  0
   37.3260   32.1280   40.4510 C   0  0  0  0  0  0  0  0  0  0  0  0
   37.5840   33.3550   39.8950 C   0  0  0  0  0  0  0  0  0  0  0  0
   38.8070   33.9310   39.9240 N   0  0  0  0  0  0  0  0  0  0  0  0
   39.8250   33.2750   40.5260 C   0  0  0  0  0  0  0  0  0  0  0  0
   39.6260   32.0690   41.0860 N   0  0  0  0  0  0  0  0  0  0  0  0
   38.4060   31.5190   41.0440 C   0  0  0  0  0  0  0  0  0  0  0  0
   41.1640   33.8630   40.5800 C   0  0  0  0  0  0  0  0  0  0  0  0
   42.3270   33.1570   40.3390 C   0  0  0  0  0  0  0  0  0  0  0  0
   43.4360   33.9970   40.4660 C   0  0  0  0  0  0  0  0  0  0  0  0
   42.8900   35.2050   40.7860 N   0  0  0  0  0  0  0  0  0  0  0  0
   41.5950   35.0960   40.8440 N   0  0  0  0  0  0  0  0  0  0  0  0
   41.6885   28.0457   43.0640 H   0  0  0  0  0  0  0  0  0  0  0  0
   40.2310   26.3870   44.2587 H   0  0  0  0  0  0  0  0  0  0  0  0
   37.7088   26.6656   44.1230 H   0  0  0  0  0  0  0  0  0  0  0  0
   36.0862   29.3064   41.5570 H   0  0  0  0  0  0  0  0  0  0  0  0
   36.7602   33.8939   39.4042 H   0  0  0  0  0  0  0  0  0  0  0  0
   42.3730   32.0880   40.0840 H   0  0  0  0  0  0  0  0  0  0  0  0
   44.4988   33.7438   40.3381 H   0  0  0  0  0  0  0  0  0  0  0  0
   43.4214   36.0708   40.9557 H   0  0  0  0  0  0  0  0  0  0  0  0
  1  2  2  0
  3  2  1  0
  4  3  2  0
  5  6  2  0
  5  4  1  0
  6  1  1  0
  7  5  1  0
  8  7  1  0
  9  8  2  0
 10  9  1  0
 10 15  2  0
 11 12  2  0
 11 10  1  0
 12 13  1  0
 13 16  1  0
 13 14  2  0
 15 14  1  0
 15  7  1  0
 16 20  2  0
 17 18  2  0
 17 16  1  0
 18 19  1  0
 19 20  1  0
  1 21  1  0
  2 22  1  0
  3 23  1  0
  8 24  1  0
 11 25  1  0
 17 26  1  0
 18 27  1  0
 19 28  1  0
M  ISO  8  21  14  22  14  23  14  24  14  25  14  26  14  27  14  28   9
M  END
>  <minimizedAffinity>  (1) 
-5.83886337

>  <minimizedRMSD>  (1) 
0.577992022

$$$$
