
     RDKit          3D

 31 34  0  0  0  0  0  0  0  0999 V2000
   39.8960   27.8220   43.1790 C   0  0  0  0  0  0  0  0  0  0  0  0
   38.8670   27.0950   43.8090 C   0  0  0  0  0  0  0  0  0  0  0  0
   37.5550   27.5430   43.6490 C   0  0  0  0  0  0  0  0  0  0  0  0
   37.3390   28.6680   42.8860 N   0  0  0  0  0  0  0  0  0  0  0  0
   38.3420   29.3370   42.3000 C   0  0  0  0  0  0  0  0  0  0  0  0
   39.6200   28.9160   42.4450 N   0  0  0  0  0  0  0  0  0  0  0  0
   37.9410   30.4790   41.5470 N   0  0  0  0  0  0  0  0  0  0  0  0
   36.6500   30.5990   41.1910 C   0  0  0  0  0  0  0  0  0  0  0  0
   36.5250   31.7560   40.4900 N   0  0  0  0  0  0  0  0  0  0  0  0
   37.7100   32.3710   40.3950 C   0  0  0  0  0  0  0  0  0  0  0  0
   38.2570   33.5110   39.8530 C   0  0  0  0  0  0  0  0  0  0  0  0
   39.5820   33.8130   39.9710 N   0  0  0  0  0  0  0  0  0  0  0  0
   40.3800   32.9580   40.6460 C   0  0  0  0  0  0  0  0  0  0  0  0
   39.8960   31.8370   41.1890 N   0  0  0  0  0  0  0  0  0  0  0  0
   38.5920   31.5490   41.0690 C   0  0  0  0  0  0  0  0  0  0  0  0
   41.7970   33.2700   40.7770 C   0  0  0  0  0  0  0  0  0  0  0  0
   42.7550   32.3190   40.4950 C   0  0  0  0  0  0  0  0  0  0  0  0
   44.0970   32.6090   40.6180 C   0  0  0  0  0  0  0  0  0  0  0  0
   44.4750   33.8690   41.0290 C   0  0  0  0  0  0  0  0  0  0  0  0
   43.5570   34.8670   41.3280 C   0  0  0  0  0  0  0  0  0  0  0  0
   42.2170   34.5220   41.1860 C   0  0  0  0  0  0  0  0  0  0  0  0
   40.9393   27.4911   43.2884 H   0  0  0  0  0  0  0  0  0  0  0  0
   39.0909   26.2008   44.4092 H   0  0  0  0  0  0  0  0  0  0  0  0
   36.7155   27.0110   44.1203 H   0  0  0  0  0  0  0  0  0  0  0  0
   35.8423   29.8897   41.4247 H   0  0  0  0  0  0  0  0  0  0  0  0
   37.6022   34.2041   39.3046 H   0  0  0  0  0  0  0  0  0  0  0  0
   42.4442   31.3159   40.1676 H   0  0  0  0  0  0  0  0  0  0  0  0
   44.8556   31.8454   40.3913 H   0  0  0  0  0  0  0  0  0  0  0  0
   45.5477   34.0932   41.1241 H   0  0  0  0  0  0  0  0  0  0  0  0
   43.8702   35.8688   41.6569 H   0  0  0  0  0  0  0  0  0  0  0  0
   41.4544   35.2824   41.4100 H   0  0  0  0  0  0  0  0  0  0  0  0
  1  2  2  0
  3  2  1  0
  4  3  2  0
  5  6  2  0
  5  4  1  0
  6  1  1  0
  7  5  1  0
  8  7  1  0
  9  8  2  0
 10  9  1  0
 10 15  2  0
 11 12  2  0
 11 10  1  0
 12 13  1  0
 13 16  1  0
 13 14  2  0
 15 14  1  0
 15  7  1  0
 16 21  2  0
 17 18  2  0
 17 16  1  0
 18 19  1  0
 19 20  2  0
 21 20  1  0
  1 22  1  0
  2 23  1  0
  3 24  1  0
  8 25  1  0
 11 26  1  0
 17 27  1  0
 18 28  1  0
 19 29  1  0
 20 30  1  0
 21 31  1  0
M  ISO  8  22  14  23  14  24  14  25  14  26  14  27  14  28  14  29  14
M  ISO  2  30  14  31  14
M  END
>  <minimizedAffinity>  (1) 
-5.5620656

>  <minimizedRMSD>  (1) 
0.303998083

$$$$
