
     RDKit          3D

 26 29  0  0  0  0  0  0  0  0999 V2000
   40.2170   27.8890   43.1360 C   0  0  0  0  0  0  0  0  0  0  0  0
   39.3380   27.0290   43.8160 C   0  0  0  0  0  0  0  0  0  0  0  0
   37.9860   27.3160   43.7090 C   0  0  0  0  0  0  0  0  0  0  0  0
   37.5640   28.3890   42.9710 N   0  0  0  0  0  0  0  0  0  0  0  0
   38.4570   29.1920   42.3320 C   0  0  0  0  0  0  0  0  0  0  0  0
   39.7910   28.9530   42.4060 N   0  0  0  0  0  0  0  0  0  0  0  0
   37.8810   30.2660   41.6050 N   0  0  0  0  0  0  0  0  0  0  0  0
   36.5640   30.2160   41.3020 C   0  0  0  0  0  0  0  0  0  0  0  0
   36.2730   31.3470   40.6130 N   0  0  0  0  0  0  0  0  0  0  0  0
   37.3610   32.1060   40.4740 C   0  0  0  0  0  0  0  0  0  0  0  0
   37.7320   33.3080   39.9130 C   0  0  0  0  0  0  0  0  0  0  0  0
   39.0000   33.7790   39.9750 N   0  0  0  0  0  0  0  0  0  0  0  0
   39.9390   33.0420   40.6110 C   0  0  0  0  0  0  0  0  0  0  0  0
   39.6280   31.8660   41.1720 N   0  0  0  0  0  0  0  0  0  0  0  0
   38.3740   31.4160   41.1030 C   0  0  0  0  0  0  0  0  0  0  0  0
   41.3190   33.5050   40.7050 C   0  0  0  0  0  0  0  0  0  0  0  0
   41.9890   34.5870   40.2300 N   0  0  0  0  0  0  0  0  0  0  0  0
   43.2300   34.5240   40.6070 O   0  0  0  0  0  0  0  0  0  0  0  0
   43.4110   33.4200   41.3270 C   0  0  0  0  0  0  0  0  0  0  0  0
   42.2170   32.7680   41.3980 N   0  0  0  0  0  0  0  0  0  0  0  0
   41.2975   27.6922   43.1973 H   0  0  0  0  0  0  0  0  0  0  0  0
   39.7035   26.1731   44.4024 H   0  0  0  0  0  0  0  0  0  0  0  0
   37.2489   26.6787   44.2194 H   0  0  0  0  0  0  0  0  0  0  0  0
   35.8621   29.4108   41.5646 H   0  0  0  0  0  0  0  0  0  0  0  0
   36.9693   33.9080   39.3950 H   0  0  0  0  0  0  0  0  0  0  0  0
   44.3565   33.0921   41.7837 H   0  0  0  0  0  0  0  0  0  0  0  0
  1  2  2  0
  3  2  1  0
  4  3  2  0
  5  6  2  0
  5  4  1  0
  6  1  1  0
  7  5  1  0
  8  7  1  0
  9  8  2  0
 10  9  1  0
 10 15  2  0
 11 12  2  0
 11 10  1  0
 12 13  1  0
 13 16  1  0
 13 14  2  0
 15 14  1  0
 15  7  1  0
 16 20  1  0
 17 18  1  0
 17 16  2  0
 18 19  1  0
 19 20  2  0
  1 21  1  0
  2 22  1  0
  3 23  1  0
  8 24  1  0
 11 25  1  0
 19 26  1  0
M  ISO  6  21  14  22  14  23  14  24  14  25  14  26  14
M  END
>  <minimizedAffinity>  (1) 
-5.55042648

>  <minimizedRMSD>  (1) 
0.263124973

$$$$
