
     RDKit          3D

 28 31  0  0  0  0  0  0  0  0999 V2000
   39.9020   27.8310   43.1770 C   0  0  0  0  0  0  0  0  0  0  0  0
   38.8690   27.0810   43.7900 C   0  0  0  0  0  0  0  0  0  0  0  0
   37.5470   27.5240   43.6110 C   0  0  0  0  0  0  0  0  0  0  0  0
   37.3370   28.6510   42.8560 N   0  0  0  0  0  0  0  0  0  0  0  0
   38.3520   29.3380   42.2880 C   0  0  0  0  0  0  0  0  0  0  0  0
   39.6390   28.9360   42.4420 N   0  0  0  0  0  0  0  0  0  0  0  0
   37.9590   30.4760   41.5410 N   0  0  0  0  0  0  0  0  0  0  0  0
   36.6630   30.5860   41.1680 C   0  0  0  0  0  0  0  0  0  0  0  0
   36.5340   31.7500   40.4710 N   0  0  0  0  0  0  0  0  0  0  0  0
   37.7340   32.3760   40.4000 C   0  0  0  0  0  0  0  0  0  0  0  0
   38.2570   33.5270   39.8640 C   0  0  0  0  0  0  0  0  0  0  0  0
   39.5620   33.8360   39.9990 N   0  0  0  0  0  0  0  0  0  0  0  0
   40.3700   32.9890   40.6770 C   0  0  0  0  0  0  0  0  0  0  0  0
   39.8980   31.8580   41.2130 N   0  0  0  0  0  0  0  0  0  0  0  0
   38.6030   31.5590   41.0750 C   0  0  0  0  0  0  0  0  0  0  0  0
   41.7910   33.3870   40.7860 C   0  0  0  0  0  0  0  0  0  0  0  0
   42.4100   34.5080   41.1270 C   0  0  0  0  0  0  0  0  0  0  0  0
   43.7600   34.5840   41.1370 C   0  0  0  0  0  0  0  0  0  0  0  0
   44.4510   33.4400   40.7750 C   0  0  0  0  0  0  0  0  0  0  0  0
   43.0300   32.2310   40.4140 S   0  0  0  0  0  0  0  0  0  0  0  0
   40.9457   27.5066   43.3017 H   0  0  0  0  0  0  0  0  0  0  0  0
   39.0932   26.1835   44.3852 H   0  0  0  0  0  0  0  0  0  0  0  0
   36.7035   26.9822   44.0637 H   0  0  0  0  0  0  0  0  0  0  0  0
   35.8599   29.8670   41.3874 H   0  0  0  0  0  0  0  0  0  0  0  0
   37.5964   34.2120   39.3123 H   0  0  0  0  0  0  0  0  0  0  0  0
   41.8161   35.3908   41.4064 H   0  0  0  0  0  0  0  0  0  0  0  0
   44.2837   35.5094   41.4189 H   0  0  0  0  0  0  0  0  0  0  0  0
   45.5367   33.2746   40.7128 H   0  0  0  0  0  0  0  0  0  0  0  0
  1  2  2  0
  3  2  1  0
  4  3  2  0
  5  6  2  0
  5  4  1  0
  6  1  1  0
  7  5  1  0
  8  7  1  0
  9  8  2  0
 10  9  1  0
 10 15  2  0
 11 12  2  0
 11 10  1  0
 12 13  1  0
 13 16  1  0
 13 14  2  0
 15 14  1  0
 15  7  1  0
 16 17  2  0
 17 18  1  0
 19 18  2  0
 20 19  1  0
 20 16  1  0
  1 21  1  0
  2 22  1  0
  3 23  1  0
  8 24  1  0
 11 25  1  0
 17 26  1  0
 18 27  1  0
 19 28  1  0
M  ISO  8  21  14  22  14  23  14  24  14  25  14  26  14  27  14  28  14
M  END
>  <minimizedAffinity>  (1) 
-5.47236443

>  <minimizedRMSD>  (1) 
0.241502941

$$$$
