
     RDKit          3D

 22 24  0  0  0  0  0  0  0  0999 V2000
   40.0680   27.8690   43.1710 C   0  0  0  0  0  0  0  0  0  0  0  0
   39.0930   27.0560   43.8160 C   0  0  0  0  0  0  0  0  0  0  0  0
   37.7600   27.4150   43.6710 C   0  0  0  0  0  0  0  0  0  0  0  0
   37.4620   28.5210   42.9210 N   0  0  0  0  0  0  0  0  0  0  0  0
   38.4100   29.2730   42.3190 C   0  0  0  0  0  0  0  0  0  0  0  0
   39.7220   28.9550   42.4380 N   0  0  0  0  0  0  0  0  0  0  0  0
   37.9280   30.3860   41.5790 N   0  0  0  0  0  0  0  0  0  0  0  0
   36.6130   30.4180   41.2520 C   0  0  0  0  0  0  0  0  0  0  0  0
   36.3980   31.5590   40.5570 N   0  0  0  0  0  0  0  0  0  0  0  0
   37.5370   32.2490   40.4350 C   0  0  0  0  0  0  0  0  0  0  0  0
   37.9890   33.4250   39.8780 C   0  0  0  0  0  0  0  0  0  0  0  0
   39.2800   33.8090   39.9630 N   0  0  0  0  0  0  0  0  0  0  0  0
   40.1630   33.0170   40.6180 C   0  0  0  0  0  0  0  0  0  0  0  0
   39.7800   31.8650   41.1780 N   0  0  0  0  0  0  0  0  0  0  0  0
   38.4910   31.4940   41.0850 C   0  0  0  0  0  0  0  0  0  0  0  0
   41.8460   33.6190   40.6730 S   0  0  0  0  0  0  0  0  0  0  0  0
   41.1320   27.6082   43.2705 H   0  0  0  0  0  0  0  0  0  0  0  0
   39.3854   26.1758   44.4074 H   0  0  0  0  0  0  0  0  0  0  0  0
   36.9626   26.8254   44.1470 H   0  0  0  0  0  0  0  0  0  0  0  0
   35.8599   29.6572   41.5048 H   0  0  0  0  0  0  0  0  0  0  0  0
   37.2750   34.0717   39.3470 H   0  0  0  0  0  0  0  0  0  0  0  0
   42.2384   33.7593   41.9781 H   0  0  0  0  0  0  0  0  0  0  0  0
  1  2  2  0
  3  2  1  0
  4  3  2  0
  5  6  2  0
  5  4  1  0
  6  1  1  0
  7  5  1  0
  8  7  1  0
  9  8  2  0
 10  9  1  0
 10 15  2  0
 11 12  2  0
 11 10  1  0
 12 13  1  0
 13 16  1  0
 13 14  2  0
 15 14  1  0
 15  7  1  0
  1 17  1  0
  2 18  1  0
  3 19  1  0
  8 20  1  0
 11 21  1  0
 16 22  1  0
M  ISO  6  17  14  18  14  19  14  20  14  21  14  22  11
M  END
>  <minimizedAffinity>  (1) 
-4.93646812

>  <minimizedRMSD>  (1) 
0.0102295065

$$$$
