
     RDKit          3D

 41 46  0  0  0  0  0  0  0  0999 V2000
   42.4260   28.6450   42.9480 C   0  0  0  0  0  0  0  0  0  0  0  0
   42.3790   27.5370   43.7980 C   0  0  0  0  0  0  0  0  0  0  0  0
   41.1310   26.9780   44.1080 C   0  0  0  0  0  0  0  0  0  0  0  0
   40.0150   27.5500   43.5580 N   0  0  0  0  0  0  0  0  0  0  0  0
   40.1030   28.6230   42.7400 C   0  0  0  0  0  0  0  0  0  0  0  0
   41.2950   29.1790   42.4260 N   0  0  0  0  0  0  0  0  0  0  0  0
   38.8660   29.1140   42.2380 N   0  0  0  0  0  0  0  0  0  0  0  0
   37.7730   28.3080   42.3170 C   0  0  0  0  0  0  0  0  0  0  0  0
   36.7350   28.9770   41.7850 N   0  0  0  0  0  0  0  0  0  0  0  0
   37.1240   30.1850   41.3680 C   0  0  0  0  0  0  0  0  0  0  0  0
   36.5880   31.2950   40.7710 C   0  0  0  0  0  0  0  0  0  0  0  0
   37.3240   32.3960   40.4820 N   0  0  0  0  0  0  0  0  0  0  0  0
   38.6310   32.3950   40.7970 C   0  0  0  0  0  0  0  0  0  0  0  0
   39.2060   31.3250   41.3860 N   0  0  0  0  0  0  0  0  0  0  0  0
   38.4710   30.2560   41.6600 C   0  0  0  0  0  0  0  0  0  0  0  0
   39.4830   33.5140   40.5360 N   0  0  0  0  0  0  0  0  0  0  0  0
   39.3400   34.7310   40.0060 C   0  0  0  0  0  0  0  0  0  0  0  0
   40.5060   35.3650   40.0190 N   0  0  0  0  0  0  0  0  0  0  0  0
   41.4210   34.5500   40.5650 C   0  0  0  0  0  0  0  0  0  0  0  0
   40.7610   33.4070   40.8770 N   0  0  0  0  0  0  0  0  0  0  0  0
   42.8650   34.5520   40.9010 C   0  0  0  0  0  0  0  0  0  0  0  0
   43.8040   33.7670   40.2970 N   0  0  0  0  0  0  0  0  0  0  0  0
   45.0850   33.8270   40.6570 C   0  0  0  0  0  0  0  0  0  0  0  0
   45.5660   34.6360   41.6170 N   0  0  0  0  0  0  0  0  0  0  0  0
   44.6960   35.4350   42.2530 C   0  0  0  0  0  0  0  0  0  0  0  0
   45.1770   36.2670   43.2380 C   0  0  0  0  0  0  0  0  0  0  0  0
   44.3280   37.1050   43.9210 C   0  0  0  0  0  0  0  0  0  0  0  0
   42.9860   37.0820   43.5850 C   0  0  0  0  0  0  0  0  0  0  0  0
   42.5640   36.2330   42.5960 C   0  0  0  0  0  0  0  0  0  0  0  0
   43.3690   35.3760   41.8830 C   0  0  0  0  0  0  0  0  0  0  0  0
   43.3993   29.0923   42.6978 H   0  0  0  0  0  0  0  0  0  0  0  0
   43.3033   27.1115   44.2159 H   0  0  0  0  0  0  0  0  0  0  0  0
   41.0508   26.1057   44.7734 H   0  0  0  0  0  0  0  0  0  0  0  0
   37.7436   27.2928   42.7396 H   0  0  0  0  0  0  0  0  0  0  0  0
   35.5180   31.2930   40.5160 H   0  0  0  0  0  0  0  0  0  0  0  0
   38.3982   35.1456   39.6173 H   0  0  0  0  0  0  0  0  0  0  0  0
   45.7966   33.1711   40.1341 H   0  0  0  0  0  0  0  0  0  0  0  0
   46.2499   36.2614   43.4808 H   0  0  0  0  0  0  0  0  0  0  0  0
   44.7038   37.7730   44.7100 H   0  0  0  0  0  0  0  0  0  0  0  0
   42.2690   37.7352   44.1039 H   0  0  0  0  0  0  0  0  0  0  0  0
   41.4914   36.2373   42.3519 H   0  0  0  0  0  0  0  0  0  0  0  0
  1  2  2  0
  2  3  1  0
  4  3  2  0
  5  4  1  0
  6  5  2  0
  6  1  1  0
  7  8  1  0
  7  5  1  0
  9  8  2  0
 10 15  2  0
 10  9  1  0
 11 10  1  0
 12 11  2  0
 12 13  1  0
 13 14  2  0
 14 15  1  0
 15  7  1  0
 16 13  1  0
 16 20  1  0
 17 18  2  0
 17 16  1  0
 18 19  1  0
 19 20  2  0
 19 21  1  0
 21 30  2  0
 22 23  2  0
 22 21  1  0
 23 24  1  0
 24 25  2  0
 25 26  1  0
 26 27  2  0
 28 27  1  0
 29 28  2  0
 30 25  1  0
 30 29  1  0
  1 31  1  0
  2 32  1  0
  3 33  1  0
  8 34  1  0
 11 35  1  0
 17 36  1  0
 23 37  1  0
 26 38  1  0
 27 39  1  0
 28 40  1  0
 29 41  1  0
M  ISO  8  31  14  32  14  33  14  34  14  35  14  36  14  37  14  38  14
M  ISO  3  39  14  40  14  41  14
M  END
>  <minimizedAffinity>  (1) 
-8.60813618

>  <minimizedRMSD>  (1) 
2.88688421

$$$$
