
     RDKit          3D

 38 43  0  0  0  0  0  0  0  0999 V2000
   40.4640   28.0280   43.1410 C   0  0  0  0  0  0  0  0  0  0  0  0
   39.6500   27.0980   43.8160 C   0  0  0  0  0  0  0  0  0  0  0  0
   38.2560   27.2280   43.7170 C   0  0  0  0  0  0  0  0  0  0  0  0
   37.7480   28.2630   42.9620 N   0  0  0  0  0  0  0  0  0  0  0  0
   38.5690   29.1280   42.3340 C   0  0  0  0  0  0  0  0  0  0  0  0
   39.9290   29.0350   42.4050 N   0  0  0  0  0  0  0  0  0  0  0  0
   37.9190   30.1580   41.5820 N   0  0  0  0  0  0  0  0  0  0  0  0
   36.6230   29.9790   41.2470 C   0  0  0  0  0  0  0  0  0  0  0  0
   36.2410   31.0680   40.5530 N   0  0  0  0  0  0  0  0  0  0  0  0
   37.2440   31.9320   40.4340 C   0  0  0  0  0  0  0  0  0  0  0  0
   37.5040   33.1620   39.8810 C   0  0  0  0  0  0  0  0  0  0  0  0
   38.7100   33.7620   39.9670 N   0  0  0  0  0  0  0  0  0  0  0  0
   39.7050   33.1330   40.6240 C   0  0  0  0  0  0  0  0  0  0  0  0
   39.4940   31.9260   41.1830 N   0  0  0  0  0  0  0  0  0  0  0  0
   38.3050   31.3420   41.0940 C   0  0  0  0  0  0  0  0  0  0  0  0
   41.0090   33.6890   40.7670 N   0  0  0  0  0  0  0  0  0  0  0  0
   41.5980   34.8590   40.4510 C   0  0  0  0  0  0  0  0  0  0  0  0
   42.8880   34.8300   40.8320 N   0  0  0  0  0  0  0  0  0  0  0  0
   43.0940   33.6400   41.3810 C   0  0  0  0  0  0  0  0  0  0  0  0
   41.9390   32.9330   41.3440 N   0  0  0  0  0  0  0  0  0  0  0  0
   44.3090   33.1350   41.9360 N   0  0  0  0  0  0  0  0  0  0  0  0
   45.0280   32.1570   41.3190 C   0  0  0  0  0  0  0  0  0  0  0  0
   46.1130   31.8510   42.0160 N   0  0  0  0  0  0  0  0  0  0  0  0
   46.1340   32.6270   43.1160 C   0  0  0  0  0  0  0  0  0  0  0  0
   46.9560   32.7950   44.2010 C   0  0  0  0  0  0  0  0  0  0  0  0
   46.6520   33.7050   45.1510 N   0  0  0  0  0  0  0  0  0  0  0  0
   45.5390   34.4650   45.0580 C   0  0  0  0  0  0  0  0  0  0  0  0
   44.7020   34.3230   43.9960 N   0  0  0  0  0  0  0  0  0  0  0  0
   45.0040   33.4190   43.0500 C   0  0  0  0  0  0  0  0  0  0  0  0
   41.5579   27.9362   43.2119 H   0  0  0  0  0  0  0  0  0  0  0  0
   40.0974   26.2864   44.4086 H   0  0  0  0  0  0  0  0  0  0  0  0
   37.5860   26.5217   44.2290 H   0  0  0  0  0  0  0  0  0  0  0  0
   35.9977   29.1084   41.4942 H   0  0  0  0  0  0  0  0  0  0  0  0
   36.6950   33.6802   39.3452 H   0  0  0  0  0  0  0  0  0  0  0  0
   41.1008   35.7071   39.9576 H   0  0  0  0  0  0  0  0  0  0  0  0
   44.7455   31.6832   40.3673 H   0  0  0  0  0  0  0  0  0  0  0  0
   47.8668   32.1858   44.2976 H   0  0  0  0  0  0  0  0  0  0  0  0
   45.3094   35.2003   45.8432 H   0  0  0  0  0  0  0  0  0  0  0  0
  1  2  2  0
  3  2  1  0
  4  3  2  0
  5  6  2  0
  5  4  1  0
  6  1  1  0
  7  5  1  0
  8  7  1  0
  9  8  2  0
 10  9  1  0
 10 15  2  0
 11 12  2  0
 11 10  1  0
 12 13  1  0
 13 16  1  0
 13 14  2  0
 15 14  1  0
 15  7  1  0
 16 20  1  0
 17 16  1  0
 17 18  2  0
 18 19  1  0
 19 21  1  0
 20 19  2  0
 21 29  1  0
 22 21  1  0
 22 23  2  0
 23 24  1  0
 24 25  2  0
 25 26  1  0
 27 26  2  0
 28 27  1  0
 29 24  1  0
 29 28  2  0
  1 30  1  0
  2 31  1  0
  3 32  1  0
  8 33  1  0
 11 34  1  0
 17 35  1  0
 22 36  1  0
 25 37  1  0
 27 38  1  0
M  ISO  8  30  14  31  14  32  14  33  14  34  14  35  14  36  14  37  14
M  ISO  1  38  14
M  END
>  <minimizedAffinity>  (1) 
-7.46411419

>  <minimizedRMSD>  (1) 
0.401480287

$$$$
