
     RDKit          3D

 41 45  0  0  0  0  0  0  0  0999 V2000
   40.5780   28.1400   43.0660 C   0  0  0  0  0  0  0  0  0  0  0  0
   39.8090   27.1750   43.7630 C   0  0  0  0  0  0  0  0  0  0  0  0
   38.4070   27.2540   43.6780 C   0  0  0  0  0  0  0  0  0  0  0  0
   37.8740   28.2640   42.9220 N   0  0  0  0  0  0  0  0  0  0  0  0
   38.6440   29.1640   42.2730 C   0  0  0  0  0  0  0  0  0  0  0  0
   39.9960   29.1180   42.3320 N   0  0  0  0  0  0  0  0  0  0  0  0
   37.9290   30.1510   41.5300 N   0  0  0  0  0  0  0  0  0  0  0  0
   36.6360   29.9120   41.2080 C   0  0  0  0  0  0  0  0  0  0  0  0
   36.1890   30.9780   40.5170 N   0  0  0  0  0  0  0  0  0  0  0  0
   37.1530   31.8970   40.3850 C   0  0  0  0  0  0  0  0  0  0  0  0
   37.3440   33.1390   39.8240 C   0  0  0  0  0  0  0  0  0  0  0  0
   38.5280   33.7950   39.9000 N   0  0  0  0  0  0  0  0  0  0  0  0
   39.5640   33.2090   40.5490 C   0  0  0  0  0  0  0  0  0  0  0  0
   39.4150   31.9940   41.1120 N   0  0  0  0  0  0  0  0  0  0  0  0
   38.2470   31.3560   41.0320 C   0  0  0  0  0  0  0  0  0  0  0  0
   40.8360   33.8300   40.6730 N   0  0  0  0  0  0  0  0  0  0  0  0
   41.3890   34.9950   40.3090 C   0  0  0  0  0  0  0  0  0  0  0  0
   42.6740   35.0330   40.7090 N   0  0  0  0  0  0  0  0  0  0  0  0
   42.9180   33.8800   41.3240 C   0  0  0  0  0  0  0  0  0  0  0  0
   41.7910   33.1420   41.3030 N   0  0  0  0  0  0  0  0  0  0  0  0
   44.1770   33.5360   41.8930 N   0  0  0  0  0  0  0  0  0  0  0  0
   44.2360   32.6680   43.0290 C   0  0  0  0  0  0  0  0  0  0  0  0
   45.4350   32.8400   43.9050 C   0  0  0  0  0  0  0  0  0  0  0  0
   46.6320   33.2450   43.2350 N   0  0  0  0  0  0  0  0  0  0  0  0
   46.5730   33.1520   41.7900 C   0  0  0  0  0  0  0  0  0  0  0  0
   45.4350   34.0430   41.3520 C   0  0  0  0  0  0  0  0  0  0  0  0
   41.6756   28.0934   43.1226 H   0  0  0  0  0  0  0  0  0  0  0  0
   40.2953   26.3854   44.3546 H   0  0  0  0  0  0  0  0  0  0  0  0
   37.7625   26.5311   44.1996 H   0  0  0  0  0  0  0  0  0  0  0  0
   36.0569   29.0124   41.4638 H   0  0  0  0  0  0  0  0  0  0  0  0
   36.5061   33.6166   39.2950 H   0  0  0  0  0  0  0  0  0  0  0  0
   40.8712   35.7990   39.7654 H   0  0  0  0  0  0  0  0  0  0  0  0
   43.3398   32.8483   43.6409 H   0  0  0  0  0  0  0  0  0  0  0  0
   44.2981   31.6460   42.6270 H   0  0  0  0  0  0  0  0  0  0  0  0
   45.1957   33.6014   44.6619 H   0  0  0  0  0  0  0  0  0  0  0  0
   45.6460   31.8467   44.3279 H   0  0  0  0  0  0  0  0  0  0  0  0
   46.8257   34.2248   43.4866 H   0  0  0  0  0  0  0  0  0  0  0  0
   47.5189   33.4976   41.3475 H   0  0  0  0  0  0  0  0  0  0  0  0
   46.4153   32.1136   41.4631 H   0  0  0  0  0  0  0  0  0  0  0  0
   45.6070   35.0645   41.7222 H   0  0  0  0  0  0  0  0  0  0  0  0
   45.3817   34.0524   40.2533 H   0  0  0  0  0  0  0  0  0  0  0  0
  1  2  2  0
  3  2  1  0
  4  3  2  0
  5  6  2  0
  5  4  1  0
  6  1  1  0
  7  5  1  0
  8  7  1  0
  9  8  2  0
 10  9  1  0
 10 15  2  0
 11 12  2  0
 11 10  1  0
 12 13  1  0
 13 16  1  0
 13 14  2  0
 15 14  1  0
 15  7  1  0
 16 20  1  0
 17 16  1  0
 17 18  2  0
 18 19  1  0
 19 21  1  0
 20 19  2  0
 21 22  1  0
 22 23  1  0
 24 23  1  0
 25 24  1  0
 26 25  1  0
 26 21  1  0
  1 27  1  0
  2 28  1  0
  3 29  1  0
  8 30  1  0
 11 31  1  0
 17 32  1  0
 22 33  1  0
 22 34  1  0
 23 35  1  0
 23 36  1  0
 24 37  1  0
 25 38  1  0
 25 39  1  0
 26 40  1  0
 26 41  1  0
M  ISO  8  27  14  28  14  29  14  30  14  31  14  32  14  33  13  34  13
M  ISO  7  35  13  36  13  37   5  38  13  39  13  40  13  41  13
M  END
>  <minimizedAffinity>  (1) 
-6.82698727

>  <minimizedRMSD>  (1) 
0.597071707

$$$$
