
     RDKit          3D

 34 38  0  0  0  0  0  0  0  0999 V2000
   40.4590   27.9910   43.1090 C   0  0  0  0  0  0  0  0  0  0  0  0
   39.6400   27.0620   43.8020 C   0  0  0  0  0  0  0  0  0  0  0  0
   38.2400   27.2070   43.7240 C   0  0  0  0  0  0  0  0  0  0  0  0
   37.7630   28.2460   42.9780 N   0  0  0  0  0  0  0  0  0  0  0  0
   38.5730   29.1130   42.3300 C   0  0  0  0  0  0  0  0  0  0  0  0
   39.9320   29.0050   42.3820 N   0  0  0  0  0  0  0  0  0  0  0  0
   37.9080   30.1410   41.5950 N   0  0  0  0  0  0  0  0  0  0  0  0
   36.6070   29.9800   41.2940 C   0  0  0  0  0  0  0  0  0  0  0  0
   36.2100   31.0680   40.6070 N   0  0  0  0  0  0  0  0  0  0  0  0
   37.2300   31.9280   40.4580 C   0  0  0  0  0  0  0  0  0  0  0  0
   37.4870   33.1550   39.8920 C   0  0  0  0  0  0  0  0  0  0  0  0
   38.7120   33.7410   39.9480 N   0  0  0  0  0  0  0  0  0  0  0  0
   39.7210   33.0890   40.5870 C   0  0  0  0  0  0  0  0  0  0  0  0
   39.5010   31.8920   41.1490 N   0  0  0  0  0  0  0  0  0  0  0  0
   38.2920   31.3210   41.0900 C   0  0  0  0  0  0  0  0  0  0  0  0
   41.0260   33.6340   40.6880 N   0  0  0  0  0  0  0  0  0  0  0  0
   41.6640   34.7330   40.2690 C   0  0  0  0  0  0  0  0  0  0  0  0
   42.9380   34.7260   40.6690 N   0  0  0  0  0  0  0  0  0  0  0  0
   43.1080   33.5900   41.3600 C   0  0  0  0  0  0  0  0  0  0  0  0
   41.9310   32.9230   41.3690 N   0  0  0  0  0  0  0  0  0  0  0  0
   44.3010   33.1420   41.9830 N   0  0  0  0  0  0  0  0  0  0  0  0
   45.4910   33.1070   41.4270 N   0  0  0  0  0  0  0  0  0  0  0  0
   46.4040   32.6260   42.2940 C   0  0  0  0  0  0  0  0  0  0  0  0
   45.7020   32.3540   43.4500 C   0  0  0  0  0  0  0  0  0  0  0  0
   44.3650   32.6810   43.2550 C   0  0  0  0  0  0  0  0  0  0  0  0
   41.5525   27.8846   43.1638 H   0  0  0  0  0  0  0  0  0  0  0  0
   40.0883   26.2459   44.3877 H   0  0  0  0  0  0  0  0  0  0  0  0
   37.5614   26.5131   44.2417 H   0  0  0  0  0  0  0  0  0  0  0  0
   35.9807   29.1160   41.5607 H   0  0  0  0  0  0  0  0  0  0  0  0
   36.6711   33.6813   39.3750 H   0  0  0  0  0  0  0  0  0  0  0  0
   41.2011   35.5347   39.6748 H   0  0  0  0  0  0  0  0  0  0  0  0
   47.4800   32.4811   42.1174 H   0  0  0  0  0  0  0  0  0  0  0  0
   46.1309   31.9445   44.3765 H   0  0  0  0  0  0  0  0  0  0  0  0
   43.5396   32.5861   43.9760 H   0  0  0  0  0  0  0  0  0  0  0  0
  1  2  2  0
  3  2  1  0
  4  3  2  0
  5  6  2  0
  5  4  1  0
  6  1  1  0
  7  5  1  0
  8  7  1  0
  9  8  2  0
 10  9  1  0
 10 15  2  0
 11 12  2  0
 11 10  1  0
 12 13  1  0
 13 16  1  0
 13 14  2  0
 15 14  1  0
 15  7  1  0
 16 20  1  0
 17 18  2  0
 17 16  1  0
 18 19  1  0
 19 20  2  0
 19 21  1  0
 21 25  1  0
 22 21  1  0
 22 23  2  0
 23 24  1  0
 25 24  2  0
  1 26  1  0
  2 27  1  0
  3 28  1  0
  8 29  1  0
 11 30  1  0
 17 31  1  0
 23 32  1  0
 24 33  1  0
 25 34  1  0
M  ISO  8  26  14  27  14  28  14  29  14  30  14  31  14  32  14  33  14
M  ISO  1  34  14
M  END
>  <minimizedAffinity>  (1) 
-6.55997133

>  <minimizedRMSD>  (1) 
0.295001775

$$$$
