
     RDKit          3D

 35 39  0  0  0  0  0  0  0  0999 V2000
   40.4860   28.0830   43.0900 C   0  0  0  0  0  0  0  0  0  0  0  0
   39.7010   27.1140   43.7640 C   0  0  0  0  0  0  0  0  0  0  0  0
   38.3080   27.1930   43.6600 C   0  0  0  0  0  0  0  0  0  0  0  0
   37.7980   28.2110   42.9080 N   0  0  0  0  0  0  0  0  0  0  0  0
   38.5700   29.1190   42.2770 C   0  0  0  0  0  0  0  0  0  0  0  0
   39.9180   29.0710   42.3570 N   0  0  0  0  0  0  0  0  0  0  0  0
   37.8670   30.1180   41.5340 N   0  0  0  0  0  0  0  0  0  0  0  0
   36.5800   29.8980   41.2150 C   0  0  0  0  0  0  0  0  0  0  0  0
   36.1420   30.9710   40.5200 N   0  0  0  0  0  0  0  0  0  0  0  0
   37.1310   31.8740   40.3900 C   0  0  0  0  0  0  0  0  0  0  0  0
   37.3430   33.1130   39.8310 C   0  0  0  0  0  0  0  0  0  0  0  0
   38.5380   33.7490   39.9060 N   0  0  0  0  0  0  0  0  0  0  0  0
   39.5560   33.1550   40.5500 C   0  0  0  0  0  0  0  0  0  0  0  0
   39.3880   31.9380   41.1140 N   0  0  0  0  0  0  0  0  0  0  0  0
   38.2130   31.3210   41.0360 C   0  0  0  0  0  0  0  0  0  0  0  0
   40.8450   33.7460   40.6800 N   0  0  0  0  0  0  0  0  0  0  0  0
   41.4330   34.8710   40.2590 C   0  0  0  0  0  0  0  0  0  0  0  0
   42.7030   34.9170   40.6890 N   0  0  0  0  0  0  0  0  0  0  0  0
   42.9050   33.8020   41.3870 C   0  0  0  0  0  0  0  0  0  0  0  0
   41.7660   33.0780   41.3840 N   0  0  0  0  0  0  0  0  0  0  0  0
   44.1470   33.3980   42.0590 C   0  0  0  0  0  0  0  0  0  0  0  0
   45.3670   33.8910   41.6590 C   0  0  0  0  0  0  0  0  0  0  0  0
   46.4490   33.4200   42.3860 C   0  0  0  0  0  0  0  0  0  0  0  0
   46.3400   32.5480   43.4080 N   0  0  0  0  0  0  0  0  0  0  0  0
   45.1400   32.0950   43.7640 C   0  0  0  0  0  0  0  0  0  0  0  0
   44.0610   32.5160   43.0970 N   0  0  0  0  0  0  0  0  0  0  0  0
   41.5823   28.0316   43.1638 H   0  0  0  0  0  0  0  0  0  0  0  0
   40.1764   26.3177   44.3556 H   0  0  0  0  0  0  0  0  0  0  0  0
   37.6527   26.4663   44.1624 H   0  0  0  0  0  0  0  0  0  0  0  0
   35.9901   29.0061   41.4729 H   0  0  0  0  0  0  0  0  0  0  0  0
   36.5127   33.6057   39.3039 H   0  0  0  0  0  0  0  0  0  0  0  0
   40.9461   35.6460   39.6488 H   0  0  0  0  0  0  0  0  0  0  0  0
   45.4755   34.6030   40.8276 H   0  0  0  0  0  0  0  0  0  0  0  0
   47.4529   33.7779   42.1137 H   0  0  0  0  0  0  0  0  0  0  0  0
   45.0377   31.3833   44.5965 H   0  0  0  0  0  0  0  0  0  0  0  0
  1  2  2  0
  3  2  1  0
  4  3  2  0
  5  6  2  0
  5  4  1  0
  6  1  1  0
  7  5  1  0
  8  7  1  0
  9  8  2  0
 10  9  1  0
 10 15  2  0
 11 12  2  0
 11 10  1  0
 12 13  1  0
 13 16  1  0
 13 14  2  0
 15 14  1  0
 15  7  1  0
 16 20  1  0
 17 16  1  0
 17 18  2  0
 18 19  1  0
 19 21  1  0
 20 19  2  0
 21 26  1  0
 22 21  2  0
 22 23  1  0
 23 24  2  0
 24 25  1  0
 26 25  2  0
  1 27  1  0
  2 28  1  0
  3 29  1  0
  8 30  1  0
 11 31  1  0
 17 32  1  0
 22 33  1  0
 23 34  1  0
 25 35  1  0
M  ISO  8  27  14  28  14  29  14  30  14  31  14  32  14  33  14  34  14
M  ISO  1  35  14
M  END
>  <minimizedAffinity>  (1) 
-6.38824892

>  <minimizedRMSD>  (1) 
0.538791716

$$$$
