
     RDKit          3D

 34 38  0  0  0  0  0  0  0  0999 V2000
   40.4580   28.0380   43.0720 C   0  0  0  0  0  0  0  0  0  0  0  0
   39.6960   27.0610   43.7610 C   0  0  0  0  0  0  0  0  0  0  0  0
   38.2900   27.1110   43.6600 C   0  0  0  0  0  0  0  0  0  0  0  0
   37.7600   28.1110   42.8960 N   0  0  0  0  0  0  0  0  0  0  0  0
   38.5190   29.0200   42.2550 C   0  0  0  0  0  0  0  0  0  0  0  0
   39.8690   29.0060   42.3260 N   0  0  0  0  0  0  0  0  0  0  0  0
   37.7990   29.9990   41.4980 N   0  0  0  0  0  0  0  0  0  0  0  0
   36.5130   29.7420   41.1720 C   0  0  0  0  0  0  0  0  0  0  0  0
   36.0490   30.7920   40.4680 N   0  0  0  0  0  0  0  0  0  0  0  0
   37.0070   31.7230   40.3320 C   0  0  0  0  0  0  0  0  0  0  0  0
   37.1920   32.9560   39.7660 C   0  0  0  0  0  0  0  0  0  0  0  0
   38.3630   33.6250   39.8400 N   0  0  0  0  0  0  0  0  0  0  0  0
   39.3970   33.0640   40.4960 C   0  0  0  0  0  0  0  0  0  0  0  0
   39.2610   31.8580   41.0650 N   0  0  0  0  0  0  0  0  0  0  0  0
   38.1050   31.2070   40.9870 C   0  0  0  0  0  0  0  0  0  0  0  0
   40.6780   33.6940   40.6270 N   0  0  0  0  0  0  0  0  0  0  0  0
   41.2300   34.8470   40.2240 C   0  0  0  0  0  0  0  0  0  0  0  0
   42.4960   34.9280   40.6390 N   0  0  0  0  0  0  0  0  0  0  0  0
   42.7450   33.8010   41.3180 C   0  0  0  0  0  0  0  0  0  0  0  0
   41.6210   33.0420   41.3090 N   0  0  0  0  0  0  0  0  0  0  0  0
   43.9770   33.4100   41.9660 C   0  0  0  0  0  0  0  0  0  0  0  0
   44.3540   32.5760   42.9420 C   0  0  0  0  0  0  0  0  0  0  0  0
   45.6460   32.4310   43.3350 C   0  0  0  0  0  0  0  0  0  0  0  0
   46.5790   33.3070   42.5500 C   0  0  0  0  0  0  0  0  0  0  0  0
   45.4030   34.1860   41.3800 S   0  0  0  0  0  0  0  0  0  0  0  0
   41.5553   28.0105   43.1442 H   0  0  0  0  0  0  0  0  0  0  0  0
   40.1898   26.2820   44.3605 H   0  0  0  0  0  0  0  0  0  0  0  0
   37.6499   26.3782   44.1731 H   0  0  0  0  0  0  0  0  0  0  0  0
   35.9463   28.8366   41.4348 H   0  0  0  0  0  0  0  0  0  0  0  0
   36.3522   33.4209   39.2288 H   0  0  0  0  0  0  0  0  0  0  0  0
   40.7125   35.6180   39.6343 H   0  0  0  0  0  0  0  0  0  0  0  0
   43.5815   31.9799   43.4498 H   0  0  0  0  0  0  0  0  0  0  0  0
   45.9712   31.7505   44.1358 H   0  0  0  0  0  0  0  0  0  0  0  0
   47.6708   33.4079   42.6378 H   0  0  0  0  0  0  0  0  0  0  0  0
  1  2  2  0
  3  2  1  0
  4  3  2  0
  5  6  2  0
  5  4  1  0
  6  1  1  0
  7  5  1  0
  8  7  1  0
  9  8  2  0
 10  9  1  0
 10 15  2  0
 11 12  2  0
 11 10  1  0
 12 13  1  0
 13 16  1  0
 13 14  2  0
 15 14  1  0
 15  7  1  0
 16 20  1  0
 17 16  1  0
 17 18  2  0
 18 19  1  0
 19 21  1  0
 20 19  2  0
 21 22  2  0
 22 23  1  0
 24 23  2  0
 25 21  1  0
 25 24  1  0
  1 26  1  0
  2 27  1  0
  3 28  1  0
  8 29  1  0
 11 30  1  0
 17 31  1  0
 22 32  1  0
 23 33  1  0
 24 34  1  0
M  ISO  8  26  14  27  14  28  14  29  14  30  14  31  14  32  14  33  14
M  ISO  1  34  14
M  END
>  <minimizedAffinity>  (1) 
-6.2519393

>  <minimizedRMSD>  (1) 
0.633514404

$$$$
