
     RDKit          3D

 30 33  0  0  0  0  0  0  0  0999 V2000
   40.3970   27.9610   43.1240 C   0  0  0  0  0  0  0  0  0  0  0  0
   39.5720   27.0500   43.7940 C   0  0  0  0  0  0  0  0  0  0  0  0
   38.1720   27.2010   43.7010 C   0  0  0  0  0  0  0  0  0  0  0  0
   37.7110   28.2480   42.9480 N   0  0  0  0  0  0  0  0  0  0  0  0
   38.5400   29.1030   42.3180 C   0  0  0  0  0  0  0  0  0  0  0  0
   39.8840   28.9810   42.3910 N   0  0  0  0  0  0  0  0  0  0  0  0
   37.8920   30.1390   41.5740 N   0  0  0  0  0  0  0  0  0  0  0  0
   36.5990   29.9930   41.2390 C   0  0  0  0  0  0  0  0  0  0  0  0
   36.2350   31.0950   40.5520 N   0  0  0  0  0  0  0  0  0  0  0  0
   37.2560   31.9400   40.4370 C   0  0  0  0  0  0  0  0  0  0  0  0
   37.5220   33.1620   39.8870 C   0  0  0  0  0  0  0  0  0  0  0  0
   38.7480   33.7480   39.9720 N   0  0  0  0  0  0  0  0  0  0  0  0
   39.7360   33.0930   40.6250 C   0  0  0  0  0  0  0  0  0  0  0  0
   39.5050   31.8910   41.1760 N   0  0  0  0  0  0  0  0  0  0  0  0
   38.2970   31.3210   41.0890 C   0  0  0  0  0  0  0  0  0  0  0  0
   41.0450   33.6300   40.7630 N   0  0  0  0  0  0  0  0  0  0  0  0
   41.6730   34.7560   40.3800 C   0  0  0  0  0  0  0  0  0  0  0  0
   42.9460   34.7260   40.7980 N   0  0  0  0  0  0  0  0  0  0  0  0
   43.1120   33.5740   41.4460 C   0  0  0  0  0  0  0  0  0  0  0  0
   41.9470   32.8870   41.4330 N   0  0  0  0  0  0  0  0  0  0  0  0
   44.3670   33.1110   42.0830 C   0  0  0  0  0  0  0  0  0  0  0  0
   44.4580   31.7300   41.9850 F   0  0  0  0  0  0  0  0  0  0  0  0
   45.4370   33.7010   41.4360 F   0  0  0  0  0  0  0  0  0  0  0  0
   44.3730   33.5290   43.4190 F   0  0  0  0  0  0  0  0  0  0  0  0
   41.4889   27.8470   43.1935 H   0  0  0  0  0  0  0  0  0  0  0  0
   40.0078   26.2298   44.3834 H   0  0  0  0  0  0  0  0  0  0  0  0
   37.4833   26.5102   44.2094 H   0  0  0  0  0  0  0  0  0  0  0  0
   35.9562   29.1336   41.4804 H   0  0  0  0  0  0  0  0  0  0  0  0
   36.7168   33.6914   39.3565 H   0  0  0  0  0  0  0  0  0  0  0  0
   41.2120   35.5765   39.8105 H   0  0  0  0  0  0  0  0  0  0  0  0
  1  2  2  0
  3  2  1  0
  4  3  2  0
  5  6  2  0
  5  4  1  0
  6  1  1  0
  7  5  1  0
  8  7  1  0
  9  8  2  0
 10  9  1  0
 10 15  2  0
 11 12  2  0
 11 10  1  0
 12 13  1  0
 13 16  1  0
 13 14  2  0
 15 14  1  0
 15  7  1  0
 16 20  1  0
 17 16  1  0
 17 18  2  0
 18 19  1  0
 19 21  1  0
 20 19  2  0
 21 24  1  0
 22 21  1  0
 23 21  1  0
  1 25  1  0
  2 26  1  0
  3 27  1  0
  8 28  1  0
 11 29  1  0
 17 30  1  0
M  ISO  6  25  14  26  14  27  14  28  14  29  14  30  14
M  END
>  <minimizedAffinity>  (1) 
-6.05990076

>  <minimizedRMSD>  (1) 
0.27282846

$$$$
