
     RDKit          3D

 36 39  0  0  0  0  0  0  0  0999 V2000
   40.2940   27.9550   43.1690 C   0  0  0  0  0  0  0  0  0  0  0  0
   39.4500   26.9970   43.7780 C   0  0  0  0  0  0  0  0  0  0  0  0
   38.0690   27.1360   43.6010 C   0  0  0  0  0  0  0  0  0  0  0  0
   37.6370   28.1910   42.8500 N   0  0  0  0  0  0  0  0  0  0  0  0
   38.4510   29.0840   42.2840 C   0  0  0  0  0  0  0  0  0  0  0  0
   39.8020   28.9840   42.4330 N   0  0  0  0  0  0  0  0  0  0  0  0
   37.8290   30.1220   41.5330 N   0  0  0  0  0  0  0  0  0  0  0  0
   36.5420   29.9660   41.1690 C   0  0  0  0  0  0  0  0  0  0  0  0
   36.1830   31.0670   40.4770 N   0  0  0  0  0  0  0  0  0  0  0  0
   37.2090   31.9240   40.3910 C   0  0  0  0  0  0  0  0  0  0  0  0
   37.4910   33.1490   39.8550 C   0  0  0  0  0  0  0  0  0  0  0  0
   38.7100   33.7370   39.9730 N   0  0  0  0  0  0  0  0  0  0  0  0
   39.6830   33.0840   40.6470 C   0  0  0  0  0  0  0  0  0  0  0  0
   39.4380   31.8740   41.1860 N   0  0  0  0  0  0  0  0  0  0  0  0
   38.2370   31.3050   41.0640 C   0  0  0  0  0  0  0  0  0  0  0  0
   40.9890   33.6130   40.8240 N   0  0  0  0  0  0  0  0  0  0  0  0
   41.6250   34.7600   40.5030 C   0  0  0  0  0  0  0  0  0  0  0  0
   42.8870   34.7210   40.9280 N   0  0  0  0  0  0  0  0  0  0  0  0
   43.0560   33.5360   41.5250 C   0  0  0  0  0  0  0  0  0  0  0  0
   41.8830   32.8580   41.4590 N   0  0  0  0  0  0  0  0  0  0  0  0
   44.2880   32.9860   42.1750 C   0  0  0  0  0  0  0  0  0  0  0  0
   45.1500   34.0980   42.7290 C   0  0  0  0  0  0  0  0  0  0  0  0
   43.9220   31.9740   43.2560 C   0  0  0  0  0  0  0  0  0  0  0  0
   41.3828   27.8633   43.2958 H   0  0  0  0  0  0  0  0  0  0  0  0
   39.8659   26.1695   44.3715 H   0  0  0  0  0  0  0  0  0  0  0  0
   37.3601   26.4240   44.0488 H   0  0  0  0  0  0  0  0  0  0  0  0
   35.9015   29.1005   41.3943 H   0  0  0  0  0  0  0  0  0  0  0  0
   36.6994   33.6801   39.3061 H   0  0  0  0  0  0  0  0  0  0  0  0
   41.1671   35.6049   39.9677 H   0  0  0  0  0  0  0  0  0  0  0  0
   44.8769   32.4609   41.4085 H   0  0  0  0  0  0  0  0  0  0  0  0
   45.1262   34.0673   43.8283 H   0  0  0  0  0  0  0  0  0  0  0  0
   46.1853   33.9675   42.3808 H   0  0  0  0  0  0  0  0  0  0  0  0
   44.7656   35.0681   42.3808 H   0  0  0  0  0  0  0  0  0  0  0  0
   44.0840   32.4219   44.2475 H   0  0  0  0  0  0  0  0  0  0  0  0
   42.8644   31.6906   43.1500 H   0  0  0  0  0  0  0  0  0  0  0  0
   44.5536   31.0797   43.1500 H   0  0  0  0  0  0  0  0  0  0  0  0
  1  2  2  0
  3  2  1  0
  4  3  2  0
  5  6  2  0
  5  4  1  0
  6  1  1  0
  7  5  1  0
  8  7  1  0
  9  8  2  0
 10  9  1  0
 10 15  2  0
 11 12  2  0
 11 10  1  0
 12 13  1  0
 13 16  1  0
 13 14  2  0
 15 14  1  0
 15  7  1  0
 16 20  1  0
 17 16  1  0
 17 18  2  0
 18 19  1  0
 19 21  1  0
 20 19  2  0
 21 22  1  0
 21 23  1  0
  1 24  1  0
  2 25  1  0
  3 26  1  0
  8 27  1  0
 11 28  1  0
 17 29  1  0
 21 30  1  0
 22 31  1  0
 22 32  1  0
 22 33  1  0
 23 34  1  0
 23 35  1  0
 23 36  1  0
M  ISO  8  24  14  25  14  26  14  27  14  28  14  29  14  30   8  31   8
M  ISO  5  32   8  33   8  34   8  35   8  36   8
M  END
>  <minimizedAffinity>  (1) 
-5.99752998

>  <minimizedRMSD>  (1) 
0.280846

$$$$
