
     RDKit          3D

 47 52  0  0  1  0  0  0  0  0999 V2000
   40.4100   27.9260   43.1250 C   0  0  0  0  0  0  0  0  0  0  0  0
   39.5820   27.0360   43.7920 C   0  0  0  0  0  0  0  0  0  0  0  0
   38.1940   27.2200   43.7190 C   0  0  0  0  0  0  0  0  0  0  0  0
   37.7440   28.2820   42.9840 N   0  0  0  0  0  0  0  0  0  0  0  0
   38.5750   29.1270   42.3500 C   0  0  0  0  0  0  0  0  0  0  0  0
   39.9200   28.9680   42.4070 N   0  0  0  0  0  0  0  0  0  0  0  0
   37.9520   30.1940   41.6300 N   0  0  0  0  0  0  0  0  0  0  0  0
   36.6450   30.0960   41.3380 C   0  0  0  0  0  0  0  0  0  0  0  0
   36.3010   31.2140   40.6720 N   0  0  0  0  0  0  0  0  0  0  0  0
   37.3550   32.0210   40.5310 C   0  0  0  0  0  0  0  0  0  0  0  0
   37.6600   33.2490   39.9760 C   0  0  0  0  0  0  0  0  0  0  0  0
   38.8980   33.7640   40.0310 N   0  0  0  0  0  0  0  0  0  0  0  0
   39.8790   33.0770   40.6410 C   0  0  0  0  0  0  0  0  0  0  0  0
   39.6190   31.8780   41.1950 N   0  0  0  0  0  0  0  0  0  0  0  0
   38.3850   31.3680   41.1380 C   0  0  0  0  0  0  0  0  0  0  0  0
   41.2250   33.5380   40.7250 N   0  0  0  0  0  0  0  0  0  0  0  0
   41.9090   34.6060   40.2490 C   0  0  0  0  0  0  0  0  0  0  0  0
   43.1920   34.5250   40.6200 N   0  0  0  0  0  0  0  0  0  0  0  0
   43.3040   33.4120   41.3240 C   0  0  0  0  0  0  0  0  0  0  0  0
   42.0950   32.7880   41.4010 N   0  0  0  0  0  0  0  0  0  0  0  0
   44.5520   32.8560   41.9330 C   0  0  1  0  0  0  0  0  0  0  0  0
   45.6760   33.8070   42.2640 C   0  0  0  0  0  0  0  0  0  0  0  0
   44.8380   33.1600   43.3820 C   0  0  2  0  0  0  0  0  0  0  0  0
   45.4170   32.1310   44.2830 C   0  0  0  0  0  0  0  0  0  0  0  0
   46.1730   32.8410   45.3850 C   0  0  0  0  0  0  0  0  0  0  0  0
   45.2830   32.9440   46.5820 C   0  0  0  0  0  0  0  0  0  0  0  0
   44.2340   31.9020   46.3700 C   0  0  0  0  0  0  0  0  0  0  0  0
   44.4680   31.2600   45.0240 C   0  0  0  0  0  0  0  0  0  0  0  0
   41.4993   27.7828   43.1796 H   0  0  0  0  0  0  0  0  0  0  0  0
   40.0065   26.2006   44.3681 H   0  0  0  0  0  0  0  0  0  0  0  0
   37.4972   26.5398   44.2306 H   0  0  0  0  0  0  0  0  0  0  0  0
   35.9797   29.2585   41.5950 H   0  0  0  0  0  0  0  0  0  0  0  0
   36.8653   33.8209   39.4747 H   0  0  0  0  0  0  0  0  0  0  0  0
   41.4747   35.4182   39.6476 H   0  0  0  0  0  0  0  0  0  0  0  0
   44.4752   31.9328   41.3399 H   0  0  0  0  0  0  0  0  0  0  0  0
   46.7213   33.5010   42.1102 H   0  0  0  0  0  0  0  0  0  0  0  0
   45.9386   34.8367   41.9796 H   0  0  0  0  0  0  0  0  0  0  0  0
   44.2510   33.5339   44.2339 H   0  0  0  0  0  0  0  0  0  0  0  0
   45.9999   31.4963   43.5994 H   0  0  0  0  0  0  0  0  0  0  0  0
   47.0766   32.2692   45.6428 H   0  0  0  0  0  0  0  0  0  0  0  0
   46.4714   33.8454   45.0502 H   0  0  0  0  0  0  0  0  0  0  0  0
   45.8486   32.7422   47.5036 H   0  0  0  0  0  0  0  0  0  0  0  0
   44.8519   33.9499   46.6928 H   0  0  0  0  0  0  0  0  0  0  0  0
   44.3005   31.1410   47.1615 H   0  0  0  0  0  0  0  0  0  0  0  0
   43.2340   32.3591   46.4029 H   0  0  0  0  0  0  0  0  0  0  0  0
   43.5190   31.1818   44.4733 H   0  0  0  0  0  0  0  0  0  0  0  0
   44.8770   30.2455   45.1401 H   0  0  0  0  0  0  0  0  0  0  0  0
  1  2  2  0
  3  2  1  0
  4  3  2  0
  5  6  2  0
  5  4  1  0
  6  1  1  0
  7  5  1  0
  8  7  1  0
  9  8  2  0
 10  9  1  0
 10 15  2  0
 11 12  2  0
 11 10  1  0
 12 13  1  0
 13 16  1  0
 13 14  2  0
 15 14  1  0
 15  7  1  0
 16 20  1  0
 17 18  2  0
 17 16  1  0
 18 19  1  0
 19 20  2  0
 19 21  1  0
 21 22  1  0
 21 23  1  0
 22 23  1  0
 23 24  1  0
 24 28  1  0
 24 25  1  0
 25 26  1  0
 27 26  1  0
 28 27  1  0
  1 29  1  0
  2 30  1  0
  3 31  1  0
  8 32  1  0
 11 33  1  0
 17 34  1  0
 21 35  1  1
 22 36  1  0
 22 37  1  0
 23 38  1  1
 24 39  1  0
 25 40  1  0
 25 41  1  0
 26 42  1  0
 26 43  1  0
 27 44  1  0
 27 45  1  0
 28 46  1  0
 28 47  1  0
M  ISO  8  29  14  30  14  31  14  32  14  33  14  34  14  35  13  36  13
M  ISO  8  37  13  38  13  39  13  40  13  41  13  42  13  43  13  44  13
M  ISO  3  45  13  46  13  47  13
M  END
>  <minimizedAffinity>  (1) 
-6.86397743

>  <minimizedRMSD>  (1) 
0.886552274

$$$$
