
     RDKit          3D

 42 47  0  0  1  0  0  0  0  0999 V2000
   40.4170   28.0180   43.0640 C   0  0  0  0  0  0  0  0  0  0  0  0
   39.6810   27.0290   43.7120 C   0  0  0  0  0  0  0  0  0  0  0  0
   38.2960   27.0710   43.5890 C   0  0  0  0  0  0  0  0  0  0  0  0
   37.7690   28.0770   42.8450 N   0  0  0  0  0  0  0  0  0  0  0  0
   38.4960   29.0170   42.2330 C   0  0  0  0  0  0  0  0  0  0  0  0
   39.8410   29.0070   42.3310 N   0  0  0  0  0  0  0  0  0  0  0  0
   37.7870   30.0020   41.4920 N   0  0  0  0  0  0  0  0  0  0  0  0
   36.4960   29.7660   41.1670 C   0  0  0  0  0  0  0  0  0  0  0  0
   36.0600   30.8300   40.4800 N   0  0  0  0  0  0  0  0  0  0  0  0
   37.0120   31.7450   40.3480 C   0  0  0  0  0  0  0  0  0  0  0  0
   37.2000   32.9910   39.7830 C   0  0  0  0  0  0  0  0  0  0  0  0
   38.3820   33.6360   39.8630 N   0  0  0  0  0  0  0  0  0  0  0  0
   39.4110   33.0700   40.5020 C   0  0  0  0  0  0  0  0  0  0  0  0
   39.2720   31.8460   41.0730 N   0  0  0  0  0  0  0  0  0  0  0  0
   38.1010   31.2070   40.9940 C   0  0  0  0  0  0  0  0  0  0  0  0
   40.6940   33.6750   40.6280 N   0  0  0  0  0  0  0  0  0  0  0  0
   41.2600   34.8180   40.1910 C   0  0  0  0  0  0  0  0  0  0  0  0
   42.5240   34.8810   40.5980 N   0  0  0  0  0  0  0  0  0  0  0  0
   42.7550   33.7800   41.2910 C   0  0  0  0  0  0  0  0  0  0  0  0
   41.6270   33.0200   41.3190 N   0  0  0  0  0  0  0  0  0  0  0  0
   44.0240   33.3670   41.9440 C   0  0  1  0  0  0  0  0  0  0  0  0
   44.3550   31.9220   42.0770 C   0  0  0  0  0  0  0  0  0  0  0  0
   45.1320   32.8040   41.0830 C   0  0  1  0  0  0  0  0  0  0  0  0
   44.8810   32.4730   39.6810 C   0  0  0  0  0  0  0  0  0  0  0  0
   45.1100   33.2640   38.5990 C   0  0  0  0  0  0  0  0  0  0  0  0
   44.8650   32.9130   37.2840 C   0  0  0  0  0  0  0  0  0  0  0  0
   44.3540   31.6870   37.0380 N   0  0  0  0  0  0  0  0  0  0  0  0
   44.1170   30.8780   38.1090 C   0  0  0  0  0  0  0  0  0  0  0  0
   44.3660   31.2440   39.3870 N   0  0  0  0  0  0  0  0  0  0  0  0
   41.5135   27.9978   43.1493 H   0  0  0  0  0  0  0  0  0  0  0  0
   40.1771   26.2428   44.3000 H   0  0  0  0  0  0  0  0  0  0  0  0
   37.6546   26.3205   44.0742 H   0  0  0  0  0  0  0  0  0  0  0  0
   35.9128   28.8682   41.4195 H   0  0  0  0  0  0  0  0  0  0  0  0
   36.3634   33.4704   39.2535 H   0  0  0  0  0  0  0  0  0  0  0  0
   40.7516   35.5844   39.5875 H   0  0  0  0  0  0  0  0  0  0  0  0
   43.9452   34.1975   42.6610 H   0  0  0  0  0  0  0  0  0  0  0  0
   44.8493   31.5522   42.9875 H   0  0  0  0  0  0  0  0  0  0  0  0
   43.7862   30.9832   42.0050 H   0  0  0  0  0  0  0  0  0  0  0  0
   46.1691   33.1182   40.8943 H   0  0  0  0  0  0  0  0  0  0  0  0
   45.5244   34.2658   38.7850 H   0  0  0  0  0  0  0  0  0  0  0  0
   45.0800   33.6119   36.4622 H   0  0  0  0  0  0  0  0  0  0  0  0
   43.7020   29.8761   37.9245 H   0  0  0  0  0  0  0  0  0  0  0  0
  1  2  2  0
  3  2  1  0
  4  3  2  0
  5  6  2  0
  5  4  1  0
  6  1  1  0
  7  5  1  0
  8  7  1  0
  9  8  2  0
 10  9  1  0
 10 15  2  0
 11 12  2  0
 11 10  1  0
 12 13  1  0
 13 16  1  0
 13 14  2  0
 15 14  1  0
 15  7  1  0
 16 20  1  0
 17 18  2  0
 17 16  1  0
 18 19  1  0
 19 20  2  0
 19 21  1  0
 21 22  1  0
 23 21  1  0
 23 22  1  0
 24 23  1  0
 25 24  2  0
 26 25  1  0
 27 26  2  0
 27 28  1  0
 28 29  2  0
 29 24  1  0
  1 30  1  0
  2 31  1  0
  3 32  1  0
  8 33  1  0
 11 34  1  0
 17 35  1  0
 21 36  1  1
 22 37  1  0
 22 38  1  0
 23 39  1  1
 25 40  1  0
 26 41  1  0
 28 42  1  0
M  ISO  8  30  14  31  14  32  14  33  14  34  14  35  14  36  13  37  13
M  ISO  5  38  13  39  13  40  14  41  14  42  14
M  END
>  <minimizedAffinity>  (1) 
-6.39814854

>  <minimizedRMSD>  (1) 
3.47677732

$$$$
