
     RDKit          3D

 37 41  0  0  1  0  0  0  0  0999 V2000
   40.0290   27.9160   43.1570 C   0  0  0  0  0  0  0  0  0  0  0  0
   39.1010   27.0700   43.7690 C   0  0  0  0  0  0  0  0  0  0  0  0
   37.7490   27.3710   43.6070 C   0  0  0  0  0  0  0  0  0  0  0  0
   37.4420   28.4680   42.8640 N   0  0  0  0  0  0  0  0  0  0  0  0
   38.3450   29.2590   42.2910 C   0  0  0  0  0  0  0  0  0  0  0  0
   39.6610   28.9990   42.4260 N   0  0  0  0  0  0  0  0  0  0  0  0
   37.8550   30.3700   41.5450 N   0  0  0  0  0  0  0  0  0  0  0  0
   36.5520   30.3800   41.1910 C   0  0  0  0  0  0  0  0  0  0  0  0
   36.3400   31.5120   40.5080 N   0  0  0  0  0  0  0  0  0  0  0  0
   37.4490   32.2300   40.4060 C   0  0  0  0  0  0  0  0  0  0  0  0
   37.8840   33.4120   39.8670 C   0  0  0  0  0  0  0  0  0  0  0  0
   39.1510   33.8410   39.9680 N   0  0  0  0  0  0  0  0  0  0  0  0
   40.0410   33.0780   40.6280 C   0  0  0  0  0  0  0  0  0  0  0  0
   39.6600   31.9050   41.1770 N   0  0  0  0  0  0  0  0  0  0  0  0
   38.3900   31.4980   41.0630 C   0  0  0  0  0  0  0  0  0  0  0  0
   41.4040   33.4410   40.7920 N   0  0  0  0  0  0  0  0  0  0  0  0
   42.2020   34.4450   40.3430 C   0  0  0  0  0  0  0  0  0  0  0  0
   43.4490   34.2730   40.8280 N   0  0  0  0  0  0  0  0  0  0  0  0
   43.4170   33.1790   41.5630 C   0  0  0  0  0  0  0  0  0  0  0  0
   42.1760   32.6420   41.5640 N   0  0  0  0  0  0  0  0  0  0  0  0
   44.5730   32.5840   42.2680 C   0  0  1  0  0  0  0  0  0  0  0  0
   44.8550   32.9700   43.6990 C   0  0  0  0  0  0  0  0  0  0  0  0
   44.3440   31.5360   43.3100 C   0  0  1  0  0  0  0  0  0  0  0  0
   42.9480   31.1950   43.7550 C   0  0  0  0  0  0  0  0  0  0  0  0
   41.1006   27.6958   43.2720 H   0  0  0  0  0  0  0  0  0  0  0  0
   39.4248   26.1985   44.3570 H   0  0  0  0  0  0  0  0  0  0  0  0
   36.9644   26.7478   44.0608 H   0  0  0  0  0  0  0  0  0  0  0  0
   35.8059   29.6049   41.4203 H   0  0  0  0  0  0  0  0  0  0  0  0
   37.1601   34.0389   39.3258 H   0  0  0  0  0  0  0  0  0  0  0  0
   41.8817   35.2682   39.6874 H   0  0  0  0  0  0  0  0  0  0  0  0
   45.1657   32.6178   41.3419 H   0  0  0  0  0  0  0  0  0  0  0  0
   45.8902   33.1168   44.0409 H   0  0  0  0  0  0  0  0  0  0  0  0
   44.5246   33.7673   44.3810 H   0  0  0  0  0  0  0  0  0  0  0  0
   44.6814   30.4954   43.4251 H   0  0  0  0  0  0  0  0  0  0  0  0
   42.9058   31.1847   44.8541 H   0  0  0  0  0  0  0  0  0  0  0  0
   42.2456   31.9480   43.3681 H   0  0  0  0  0  0  0  0  0  0  0  0
   42.6719   30.2030   43.3681 H   0  0  0  0  0  0  0  0  0  0  0  0
  1  2  2  0
  3  2  1  0
  4  3  2  0
  5  6  2  0
  5  4  1  0
  6  1  1  0
  7  5  1  0
  8  7  1  0
  9  8  2  0
 10  9  1  0
 10 15  2  0
 11 12  2  0
 11 10  1  0
 12 13  1  0
 13 16  1  0
 13 14  2  0
 15 14  1  0
 15  7  1  0
 16 20  1  0
 17 16  1  0
 17 18  2  0
 18 19  1  0
 19 20  2  0
 19 21  1  0
 21 23  1  0
 21 22  1  0
 23 22  1  0
 23 24  1  0
  1 25  1  0
  2 26  1  0
  3 27  1  0
  8 28  1  0
 11 29  1  0
 17 30  1  0
 21 31  1  6
 22 32  1  0
 22 33  1  0
 23 34  1  6
 24 35  1  0
 24 36  1  0
 24 37  1  0
M  ISO  8  25  14  26  14  27  14  28  14  29  14  30  14  31  13  32  13
M  ISO  5  33  13  34  13  35   8  36   8  37   8
M  END
>  <minimizedAffinity>  (1) 
-6.27905512

>  <minimizedRMSD>  (1) 
0.27733618

$$$$
