
     RDKit          3D

 53 57  0  0  1  0  0  0  0  0999 V2000
   38.0530   30.4520   39.6350 C   0  0  1  0  0  0  0  0  0  0  0  0
   37.5540   30.6210   38.1740 C   0  0  0  0  0  0  0  0  0  0  0  0
   36.1010   30.1700   38.3230 C   0  0  0  0  0  0  0  0  0  0  0  0
   36.0390   29.3120   39.5600 C   0  0  0  0  0  0  0  0  0  0  0  0
   37.4880   29.1220   39.9630 C   0  0  2  0  0  0  0  0  0  0  0  0
   40.8300   35.1330   39.8340 C   0  0  0  0  0  0  0  0  0  0  0  0
   39.5610   35.6770   40.0890 C   0  0  0  0  0  0  0  0  0  0  0  0
   38.5150   34.7890   40.2650 C   0  0  0  0  0  0  0  0  0  0  0  0
   38.7810   33.4590   40.1810 N   0  0  0  0  0  0  0  0  0  0  0  0
   39.9720   32.9500   39.9410 C   0  0  0  0  0  0  0  0  0  0  0  0
   41.0230   33.7990   39.7640 N   0  0  0  0  0  0  0  0  0  0  0  0
   40.2920   31.5700   39.8360 N   0  0  0  0  0  0  0  0  0  0  0  0
   41.5820   31.2550   39.8700 N   0  0  0  0  0  0  0  0  0  0  0  0
   41.6860   29.8870   39.7380 C   0  0  0  0  0  0  0  0  0  0  0  0
   40.3710   29.4160   39.6240 C   0  0  0  0  0  0  0  0  0  0  0  0
   39.5050   30.5160   39.6910 C   0  0  0  0  0  0  0  0  0  0  0  0
   37.5080   28.7810   41.3620 N   0  0  0  0  0  0  0  0  0  0  0  0
   37.6690   29.5670   42.3990 N   0  0  0  0  0  0  0  0  0  0  0  0
   37.6290   28.8870   43.5600 C   0  0  0  0  0  0  0  0  0  0  0  0
   37.4240   27.5510   43.1920 C   0  0  0  0  0  0  0  0  0  0  0  0
   37.3540   27.5160   41.8260 C   0  0  0  0  0  0  0  0  0  0  0  0
   37.1400   26.2320   41.1330 C   0  0  0  0  0  0  0  0  0  0  0  0
   36.9240   25.1180   42.1400 C   0  0  0  0  0  0  0  0  0  0  0  0
   38.1080   24.2150   42.3020 C   0  0  0  0  0  0  0  0  0  0  0  0
   38.3610   23.4010   41.0260 C   0  0  0  0  0  0  0  0  0  0  0  0
   38.2720   24.3840   39.8950 C   0  0  0  0  0  0  0  0  0  0  0  0
   38.3790   25.8110   40.3410 C   0  0  0  0  0  0  0  0  0  0  0  0
   37.7437   31.2311   40.3473 H   0  0  0  0  0  0  0  0  0  0  0  0
   38.1101   29.9762   37.4776 H   0  0  0  0  0  0  0  0  0  0  0  0
   37.6803   31.6323   37.7602 H   0  0  0  0  0  0  0  0  0  0  0  0
   35.4423   31.0439   38.4343 H   0  0  0  0  0  0  0  0  0  0  0  0
   35.7672   29.6110   37.4364 H   0  0  0  0  0  0  0  0  0  0  0  0
   35.4769   29.8198   40.3576 H   0  0  0  0  0  0  0  0  0  0  0  0
   35.5259   28.3557   39.3805 H   0  0  0  0  0  0  0  0  0  0  0  0
   38.0589   28.3215   39.4699 H   0  0  0  0  0  0  0  0  0  0  0  0
   41.6856   35.8088   39.6881 H   0  0  0  0  0  0  0  0  0  0  0  0
   39.4050   36.7644   40.1465 H   0  0  0  0  0  0  0  0  0  0  0  0
   37.4957   35.1496   40.4674 H   0  0  0  0  0  0  0  0  0  0  0  0
   42.6093   29.2892   39.7249 H   0  0  0  0  0  0  0  0  0  0  0  0
   40.0705   28.3648   39.5029 H   0  0  0  0  0  0  0  0  0  0  0  0
   37.7344   29.2924   44.5771 H   0  0  0  0  0  0  0  0  0  0  0  0
   37.3359   26.6917   43.8731 H   0  0  0  0  0  0  0  0  0  0  0  0
   36.2713   26.3804   40.4747 H   0  0  0  0  0  0  0  0  0  0  0  0
   36.6969   25.5714   43.1161 H   0  0  0  0  0  0  0  0  0  0  0  0
   36.0969   24.4990   41.7622 H   0  0  0  0  0  0  0  0  0  0  0  0
   38.9971   24.8243   42.5216 H   0  0  0  0  0  0  0  0  0  0  0  0
   37.9043   23.5167   43.1271 H   0  0  0  0  0  0  0  0  0  0  0  0
   39.3593   22.9401   41.0563 H   0  0  0  0  0  0  0  0  0  0  0  0
   37.6327   22.5844   40.9134 H   0  0  0  0  0  0  0  0  0  0  0  0
   37.3048   24.2478   39.3891 H   0  0  0  0  0  0  0  0  0  0  0  0
   39.1214   24.1873   39.2243 H   0  0  0  0  0  0  0  0  0  0  0  0
   39.2685   25.9230   40.9783 H   0  0  0  0  0  0  0  0  0  0  0  0
   38.4600   26.4515   39.4504 H   0  0  0  0  0  0  0  0  0  0  0  0
  1 16  1  0
  1  5  1  0
  2  3  1  0
  2  1  1  0
  3  4  1  0
  4  5  1  0
  5 17  1  0
  6  7  2  0
  7  8  1  0
  9  8  2  0
 10  9  1  0
 11  6  1  0
 11 10  2  0
 12 13  1  0
 12 10  1  0
 14 13  2  0
 15 16  2  0
 15 14  1  0
 16 12  1  0
 17 21  1  0
 17 18  1  0
 18 19  2  0
 20 19  1  0
 21 20  2  0
 22 21  1  0
 22 23  1  0
 23 24  1  0
 25 24  1  0
 26 27  1  0
 26 25  1  0
 27 22  1  0
  1 28  1  1
  2 29  1  0
  2 30  1  0
  3 31  1  0
  3 32  1  0
  4 33  1  0
  4 34  1  0
  5 35  1  6
  6 36  1  0
  7 37  1  0
  8 38  1  0
 14 39  1  0
 15 40  1  0
 19 41  1  0
 20 42  1  0
 22 43  1  0
 23 44  1  0
 23 45  1  0
 24 46  1  0
 24 47  1  0
 25 48  1  0
 25 49  1  0
 26 50  1  0
 26 51  1  0
 27 52  1  0
 27 53  1  0
M  ISO  8  28  13  29  13  30  13  31  13  32  13  33  13  34  13  35  13
M  ISO  8  36  14  37  14  38  14  39  14  40  14  41  14  42  14  43  13
M  ISO  8  44  13  45  13  46  13  47  13  48  13  49  13  50  13  51  13
M  ISO  2  52  13  53  13
M  END
>  <minimizedAffinity>  (1) 
-6.79280758

>  <minimizedRMSD>  (1) 
1.53579926

$$$$
