
     RDKit          3D

 24 25  0  0  0  0  0  0  0  0999 V2000
   40.0410   27.3240   43.5720 C   0  0  0  0  0  0  0  0  0  0  0  0
   39.7360   25.9530   43.4210 C   0  0  0  0  0  0  0  0  0  0  0  0
   38.6360   25.6130   42.6250 C   0  0  0  0  0  0  0  0  0  0  0  0
   37.9350   26.6290   42.0490 N   0  0  0  0  0  0  0  0  0  0  0  0
   38.2430   27.9330   42.2060 C   0  0  0  0  0  0  0  0  0  0  0  0
   39.3040   28.2640   42.9740 N   0  0  0  0  0  0  0  0  0  0  0  0
   37.4360   28.9070   41.5550 N   0  0  0  0  0  0  0  0  0  0  0  0
   36.1500   28.4690   41.0430 C   0  0  0  0  0  0  0  0  0  0  0  0
   35.3290   29.5860   40.4910 C   0  0  0  0  0  0  0  0  0  0  0  0
   35.6060   30.7880   41.2170 N   0  0  0  0  0  0  0  0  0  0  0  0
   36.9690   31.2100   40.8570 C   0  0  0  0  0  0  0  0  0  0  0  0
   37.9780   30.2700   41.4600 C   0  0  0  0  0  0  0  0  0  0  0  0
   40.8992   27.6223   44.1920 H   0  0  0  0  0  0  0  0  0  0  0  0
   40.3428   25.1783   43.9126 H   0  0  0  0  0  0  0  0  0  0  0  0
   38.3479   24.5628   42.4701 H   0  0  0  0  0  0  0  0  0  0  0  0
   36.3234   27.7336   40.2435 H   0  0  0  0  0  0  0  0  0  0  0  0
   35.5912   28.0365   41.8860 H   0  0  0  0  0  0  0  0  0  0  0  0
   35.5775   29.7335   39.4297 H   0  0  0  0  0  0  0  0  0  0  0  0
   34.2617   29.3380   40.5875 H   0  0  0  0  0  0  0  0  0  0  0  0
   34.9298   31.5205   40.9578 H   0  0  0  0  0  0  0  0  0  0  0  0
   37.0746   31.2034   39.7621 H   0  0  0  0  0  0  0  0  0  0  0  0
   37.1458   32.2243   41.2441 H   0  0  0  0  0  0  0  0  0  0  0  0
   38.8788   30.2559   40.8289 H   0  0  0  0  0  0  0  0  0  0  0  0
   38.2232   30.6214   42.4731 H   0  0  0  0  0  0  0  0  0  0  0  0
  2  1  2  0
  3  2  1  0
  4  5  1  0
  4  3  2  0
  5  6  2  0
  6  1  1  0
  7  5  1  0
  8  7  1  0
  9  8  1  0
  9 10  1  0
 11 10  1  0
 11 12  1  0
 12  7  1  0
  1 13  1  0
  2 14  1  0
  3 15  1  0
  8 16  1  0
  8 17  1  0
  9 18  1  0
  9 19  1  0
 10 20  1  0
 11 21  1  0
 11 22  1  0
 12 23  1  0
 12 24  1  0
M  ISO  8  13  14  14  14  15  14  16  13  17  13  18  13  19  13  20   5
M  ISO  4  21  13  22  13  23  13  24  13
M  END
>  <minimizedAffinity>  (1) 
-4.39325094

>  <minimizedRMSD>  (1) 
2.3584969

$$$$
