
     RDKit          3D

 38 41  0  0  1  0  0  0  0  0999 V2000
   36.6740   27.7690   41.7210 C   0  0  0  0  0  0  0  0  0  0  0  0
   37.2440   27.6650   42.9980 C   0  0  0  0  0  0  0  0  0  0  0  0
   37.9810   28.7500   43.4560 C   0  0  0  0  0  0  0  0  0  0  0  0
   38.1000   29.8360   42.6390 N   0  0  0  0  0  0  0  0  0  0  0  0
   37.5350   29.9070   41.4050 C   0  0  0  0  0  0  0  0  0  0  0  0
   36.8250   28.8570   40.9710 N   0  0  0  0  0  0  0  0  0  0  0  0
   37.7330   31.1020   40.6510 N   0  0  0  0  0  0  0  0  0  0  0  0
   38.7440   32.0310   41.1210 C   0  0  0  0  0  0  0  0  0  0  0  0
   38.9480   33.1720   40.1790 C   0  0  0  0  0  0  0  0  0  0  0  0
   38.7080   32.7420   38.8450 N   0  0  0  0  0  0  0  0  0  0  0  0
   37.2550   32.5190   38.7200 C   0  0  0  0  0  0  0  0  0  0  0  0
   36.8830   31.2630   39.4760 C   0  0  1  0  0  0  0  0  0  0  0  0
   36.9130   30.0610   38.6110 C   0  0  0  0  0  0  0  0  0  0  0  0
   38.1340   29.5870   38.1330 C   0  0  0  0  0  0  0  0  0  0  0  0
   37.8630   28.5070   37.3890 N   0  0  0  0  0  0  0  0  0  0  0  0
   36.5220   28.2790   37.3770 C   0  0  0  0  0  0  0  0  0  0  0  0
   35.7320   27.3100   36.7730 C   0  0  0  0  0  0  0  0  0  0  0  0
   34.3700   27.3780   36.9750 C   0  0  0  0  0  0  0  0  0  0  0  0
   33.7600   28.3620   37.7490 C   0  0  0  0  0  0  0  0  0  0  0  0
   34.5590   29.3360   38.3580 C   0  0  0  0  0  0  0  0  0  0  0  0
   35.9130   29.2370   38.1330 C   0  0  0  0  0  0  0  0  0  0  0  0
   36.0853   26.9268   41.3284 H   0  0  0  0  0  0  0  0  0  0  0  0
   37.1130   26.7616   43.6118 H   0  0  0  0  0  0  0  0  0  0  0  0
   38.4548   28.7339   44.4486 H   0  0  0  0  0  0  0  0  0  0  0  0
   38.4312   32.4300   42.0972 H   0  0  0  0  0  0  0  0  0  0  0  0
   39.6949   31.4832   41.1966 H   0  0  0  0  0  0  0  0  0  0  0  0
   38.2507   33.9842   40.4322 H   0  0  0  0  0  0  0  0  0  0  0  0
   39.9834   33.5335   40.2641 H   0  0  0  0  0  0  0  0  0  0  0  0
   39.0135   33.4662   38.1793 H   0  0  0  0  0  0  0  0  0  0  0  0
   36.7124   33.3778   39.1419 H   0  0  0  0  0  0  0  0  0  0  0  0
   36.9859   32.4079   37.6592 H   0  0  0  0  0  0  0  0  0  0  0  0
   35.8433   31.3750   39.8172 H   0  0  0  0  0  0  0  0  0  0  0  0
   39.1274   30.0169   38.3290 H   0  0  0  0  0  0  0  0  0  0  0  0
   38.5651   27.9345   36.8990 H   0  0  0  0  0  0  0  0  0  0  0  0
   36.1771   26.5162   36.1552 H   0  0  0  0  0  0  0  0  0  0  0  0
   33.7330   26.6167   36.5010 H   0  0  0  0  0  0  0  0  0  0  0  0
   32.6678   28.3734   37.8795 H   0  0  0  0  0  0  0  0  0  0  0  0
   34.1296   30.1347   38.9806 H   0  0  0  0  0  0  0  0  0  0  0  0
  1  2  2  0
  2  3  1  0
  4  3  2  0
  5  4  1  0
  6  5  2  0
  6  1  1  0
  7  8  1  0
  7  5  1  0
  9  8  1  0
 10  9  1  0
 11 10  1  0
 11 12  1  0
 12  7  1  0
 13 12  1  0
 14 13  2  0
 15 14  1  0
 16 15  1  0
 16 21  2  0
 17 18  2  0
 17 16  1  0
 18 19  1  0
 19 20  2  0
 21 20  1  0
 21 13  1  0
  1 22  1  0
  2 23  1  0
  3 24  1  0
  8 25  1  0
  8 26  1  0
  9 27  1  0
  9 28  1  0
 10 29  1  0
 11 30  1  0
 11 31  1  0
 12 32  1  1
 14 33  1  0
 15 34  1  0
 17 35  1  0
 18 36  1  0
 19 37  1  0
 20 38  1  0
M  ISO  8  22  14  23  14  24  14  25  13  26  13  27  13  28  13  29   5
M  ISO  8  30  13  31  13  32  13  33  14  34   9  35  14  36  14  37  14
M  ISO  1  38  14
M  END
>  <minimizedAffinity>  (1) 
-5.5272069

>  <minimizedRMSD>  (1) 
6.18280602

$$$$
