
     RDKit          3D

 40 42  0  0  1  0  0  0  0  0999 V2000
   39.9640   27.3530   43.6500 C   0  0  0  0  0  0  0  0  0  0  0  0
   39.7420   25.9860   43.4090 C   0  0  0  0  0  0  0  0  0  0  0  0
   38.6930   25.6290   42.5350 C   0  0  0  0  0  0  0  0  0  0  0  0
   37.9520   26.6390   41.9730 N   0  0  0  0  0  0  0  0  0  0  0  0
   38.1950   27.9320   42.2270 C   0  0  0  0  0  0  0  0  0  0  0  0
   39.1960   28.2520   43.0600 N   0  0  0  0  0  0  0  0  0  0  0  0
   37.4010   28.9230   41.6140 N   0  0  0  0  0  0  0  0  0  0  0  0
   36.0840   28.5010   41.1410 C   0  0  0  0  0  0  0  0  0  0  0  0
   35.3130   29.6180   40.5180 C   0  0  0  0  0  0  0  0  0  0  0  0
   35.6020   30.8150   41.2250 N   0  0  0  0  0  0  0  0  0  0  0  0
   36.9620   31.2330   40.9030 C   0  0  0  0  0  0  0  0  0  0  0  0
   37.9680   30.2840   41.5080 C   0  0  2  0  0  0  0  0  0  0  0  0
   39.2570   30.2660   40.6780 C   0  0  0  0  0  0  0  0  0  0  0  0
   39.0040   30.3360   39.2290 C   0  0  0  0  0  0  0  0  0  0  0  0
   39.5950   31.4590   38.4680 C   0  0  0  0  0  0  0  0  0  0  0  0
   40.7940   32.1150   39.0940 C   0  0  0  0  0  0  0  0  0  0  0  0
   40.3310   32.5390   40.4770 C   0  0  0  0  0  0  0  0  0  0  0  0
   40.1880   31.2690   41.2660 C   0  0  0  0  0  0  0  0  0  0  0  0
   40.7716   27.6722   44.3252 H   0  0  0  0  0  0  0  0  0  0  0  0
   40.3672   25.2176   43.8873 H   0  0  0  0  0  0  0  0  0  0  0  0
   38.4758   24.5742   42.3110 H   0  0  0  0  0  0  0  0  0  0  0  0
   36.2164   27.7046   40.3939 H   0  0  0  0  0  0  0  0  0  0  0  0
   35.5139   28.1482   42.0131 H   0  0  0  0  0  0  0  0  0  0  0  0
   35.6075   29.7294   39.4640 H   0  0  0  0  0  0  0  0  0  0  0  0
   34.2351   29.4037   40.5650 H   0  0  0  0  0  0  0  0  0  0  0  0
   34.9380   31.5512   40.9456 H   0  0  0  0  0  0  0  0  0  0  0  0
   37.0874   31.2440   39.8102 H   0  0  0  0  0  0  0  0  0  0  0  0
   37.1306   32.2384   41.3161 H   0  0  0  0  0  0  0  0  0  0  0  0
   38.2115   30.6375   42.5208 H   0  0  0  0  0  0  0  0  0  0  0  0
   39.7704   29.2952   40.7414 H   0  0  0  0  0  0  0  0  0  0  0  0
   39.3870   29.4049   38.7860 H   0  0  0  0  0  0  0  0  0  0  0  0
   37.9185   30.4955   39.1500 H   0  0  0  0  0  0  0  0  0  0  0  0
   38.8177   32.2270   38.3417 H   0  0  0  0  0  0  0  0  0  0  0  0
   39.9522   31.0239   37.5230 H   0  0  0  0  0  0  0  0  0  0  0  0
   41.6300   31.4038   39.1670 H   0  0  0  0  0  0  0  0  0  0  0  0
   41.1569   32.9667   38.5000 H   0  0  0  0  0  0  0  0  0  0  0  0
   41.0760   33.1992   40.9450 H   0  0  0  0  0  0  0  0  0  0  0  0
   39.3849   33.0985   40.4341 H   0  0  0  0  0  0  0  0  0  0  0  0
   39.8199   31.5298   42.2692 H   0  0  0  0  0  0  0  0  0  0  0  0
   41.1822   30.7984   41.2753 H   0  0  0  0  0  0  0  0  0  0  0  0
  2  1  2  0
  3  2  1  0
  4  5  1  0
  4  3  2  0
  5  6  2  0
  6  1  1  0
  7  5  1  0
  8  7  1  0
  9  8  1  0
  9 10  1  0
 11 10  1  0
 11 12  1  0
 12  7  1  0
 13 18  1  0
 13 12  1  0
 14 13  1  0
 15 16  1  0
 15 14  1  0
 16 17  1  0
 17 18  1  0
  1 19  1  0
  2 20  1  0
  3 21  1  0
  8 22  1  0
  8 23  1  0
  9 24  1  0
  9 25  1  0
 10 26  1  0
 11 27  1  0
 11 28  1  0
 12 29  1  1
 13 30  1  0
 14 31  1  0
 14 32  1  0
 15 33  1  0
 15 34  1  0
 16 35  1  0
 16 36  1  0
 17 37  1  0
 17 38  1  0
 18 39  1  0
 18 40  1  0
M  ISO  8  19  14  20  14  21  14  22  13  23  13  24  13  25  13  26   5
M  ISO  8  27  13  28  13  29  13  30  13  31  13  32  13  33  13  34  13
M  ISO  6  35  13  36  13  37  13  38  13  39  13  40  13
M  END
>  <minimizedAffinity>  (1) 
-5.31310368

>  <minimizedRMSD>  (1) 
1.37898946

$$$$
