
     RDKit          3D

 37 39  0  0  1  0  0  0  0  0999 V2000
   39.8480   27.1400   43.6530 C   0  0  0  0  0  0  0  0  0  0  0  0
   39.6020   25.7850   43.3840 C   0  0  0  0  0  0  0  0  0  0  0  0
   38.5630   25.4660   42.4830 C   0  0  0  0  0  0  0  0  0  0  0  0
   37.8570   26.4990   41.9260 N   0  0  0  0  0  0  0  0  0  0  0  0
   38.1180   27.7860   42.2060 C   0  0  0  0  0  0  0  0  0  0  0  0
   39.1090   28.0690   43.0630 N   0  0  0  0  0  0  0  0  0  0  0  0
   37.3510   28.8020   41.5940 N   0  0  0  0  0  0  0  0  0  0  0  0
   36.1050   28.3860   40.9500 C   0  0  0  0  0  0  0  0  0  0  0  0
   35.3200   29.5170   40.3900 C   0  0  0  0  0  0  0  0  0  0  0  0
   35.5420   30.6900   41.1740 N   0  0  0  0  0  0  0  0  0  0  0  0
   36.9220   31.1300   40.9640 C   0  0  0  0  0  0  0  0  0  0  0  0
   37.8450   30.1720   41.6440 C   0  0  2  0  0  0  0  0  0  0  0  0
   39.2750   30.3060   41.2030 C   0  0  0  0  0  0  0  0  0  0  0  0
   39.4340   30.9190   39.8270 C   0  0  0  0  0  0  0  0  0  0  0  0
   40.9430   31.1960   39.8540 C   0  0  0  0  0  0  0  0  0  0  0  0
   41.2330   31.5820   41.3000 C   0  0  0  0  0  0  0  0  0  0  0  0
   39.9140   31.4120   42.0520 C   0  0  0  0  0  0  0  0  0  0  0  0
   40.6490   27.4295   44.3491 H   0  0  0  0  0  0  0  0  0  0  0  0
   40.2008   24.9950   43.8609 H   0  0  0  0  0  0  0  0  0  0  0  0
   38.3278   24.4202   42.2360 H   0  0  0  0  0  0  0  0  0  0  0  0
   36.3507   27.6937   40.1312 H   0  0  0  0  0  0  0  0  0  0  0  0
   35.4832   27.9130   41.7243 H   0  0  0  0  0  0  0  0  0  0  0  0
   35.6367   29.7044   39.3534 H   0  0  0  0  0  0  0  0  0  0  0  0
   34.2499   29.2629   40.4084 H   0  0  0  0  0  0  0  0  0  0  0  0
   34.8914   31.4328   40.8810 H   0  0  0  0  0  0  0  0  0  0  0  0
   37.1422   31.1529   39.8865 H   0  0  0  0  0  0  0  0  0  0  0  0
   37.0588   32.1386   41.3811 H   0  0  0  0  0  0  0  0  0  0  0  0
   37.8518   30.4566   42.7065 H   0  0  0  0  0  0  0  0  0  0  0  0
   39.6960   29.2915   41.2630 H   0  0  0  0  0  0  0  0  0  0  0  0
   38.8478   31.8434   39.7181 H   0  0  0  0  0  0  0  0  0  0  0  0
   39.0845   30.2958   38.9906 H   0  0  0  0  0  0  0  0  0  0  0  0
   41.5088   30.2963   39.5705 H   0  0  0  0  0  0  0  0  0  0  0  0
   41.2372   31.9825   39.1435 H   0  0  0  0  0  0  0  0  0  0  0  0
   42.0034   30.9218   41.7250 H   0  0  0  0  0  0  0  0  0  0  0  0
   41.6103   32.6126   41.3748 H   0  0  0  0  0  0  0  0  0  0  0  0
   39.3147   32.3343   42.0418 H   0  0  0  0  0  0  0  0  0  0  0  0
   40.0136   31.1800   43.1226 H   0  0  0  0  0  0  0  0  0  0  0  0
  2  1  2  0
  3  2  1  0
  4  5  1  0
  4  3  2  0
  5  6  2  0
  6  1  1  0
  7 12  1  0
  7  5  1  0
  8  7  1  0
  9  8  1  0
  9 10  1  0
 11 10  1  0
 11 12  1  0
 13 12  1  0
 13 17  1  0
 14 15  1  0
 14 13  1  0
 15 16  1  0
 16 17  1  0
  1 18  1  0
  2 19  1  0
  3 20  1  0
  8 21  1  0
  8 22  1  0
  9 23  1  0
  9 24  1  0
 10 25  1  0
 11 26  1  0
 11 27  1  0
 12 28  1  1
 13 29  1  0
 14 30  1  0
 14 31  1  0
 15 32  1  0
 15 33  1  0
 16 34  1  0
 16 35  1  0
 17 36  1  0
 17 37  1  0
M  ISO  8  18  14  19  14  20  14  21  13  22  13  23  13  24  13  25   5
M  ISO  8  26  13  27  13  28  13  29  13  30  13  31  13  32  13  33  13
M  ISO  4  34  13  35  13  36  13  37  13
M  END
>  <minimizedAffinity>  (1) 
-5.12057972

>  <minimizedRMSD>  (1) 
0.94459635

$$$$
