
     RDKit          3D

 31 32  0  0  1  0  0  0  0  0999 V2000
   39.8440   27.2130   43.7190 C   0  0  0  0  0  0  0  0  0  0  0  0
   39.6400   25.8490   43.3880 C   0  0  0  0  0  0  0  0  0  0  0  0
   38.6680   25.5370   42.4280 C   0  0  0  0  0  0  0  0  0  0  0  0
   37.9800   26.5750   41.8750 N   0  0  0  0  0  0  0  0  0  0  0  0
   38.1910   27.8760   42.2080 C   0  0  0  0  0  0  0  0  0  0  0  0
   39.1330   28.1810   43.1390 N   0  0  0  0  0  0  0  0  0  0  0  0
   37.3980   28.8600   41.5500 N   0  0  0  0  0  0  0  0  0  0  0  0
   36.1870   28.4220   40.8950 C   0  0  0  0  0  0  0  0  0  0  0  0
   35.3710   29.5520   40.3590 C   0  0  0  0  0  0  0  0  0  0  0  0
   35.5470   30.6990   41.1800 N   0  0  0  0  0  0  0  0  0  0  0  0
   36.9300   31.1850   40.9630 C   0  0  0  0  0  0  0  0  0  0  0  0
   37.9090   30.2460   41.6120 C   0  0  2  0  0  0  0  0  0  0  0  0
   39.1810   30.1980   40.8910 N   0  0  0  0  0  0  0  0  0  0  0  0
   40.1800   31.1420   41.1970 C   0  0  0  0  0  0  0  0  0  0  0  0
   40.2680   31.6780   42.3490 N   0  0  0  0  0  0  0  0  0  0  0  0
   41.1200   31.5150   40.2010 N   0  0  0  0  0  0  0  0  0  0  0  0
   39.5980   31.4310   43.1040 H   0  0  0  0  0  0  0  0  0  0  0  0
   40.6038   27.4778   44.4691 H   0  0  0  0  0  0  0  0  0  0  0  0
   40.2295   25.0566   43.8723 H   0  0  0  0  0  0  0  0  0  0  0  0
   38.4685   24.4963   42.1328 H   0  0  0  0  0  0  0  0  0  0  0  0
   36.4601   27.7601   40.0600 H   0  0  0  0  0  0  0  0  0  0  0  0
   35.5754   27.9032   41.6478 H   0  0  0  0  0  0  0  0  0  0  0  0
   35.6946   29.7829   39.3333 H   0  0  0  0  0  0  0  0  0  0  0  0
   34.3090   29.2656   40.3545 H   0  0  0  0  0  0  0  0  0  0  0  0
   34.8707   31.4294   40.9155 H   0  0  0  0  0  0  0  0  0  0  0  0
   37.1338   31.2356   39.8832 H   0  0  0  0  0  0  0  0  0  0  0  0
   37.0370   32.1851   41.4083 H   0  0  0  0  0  0  0  0  0  0  0  0
   38.0442   30.6138   42.6398 H   0  0  0  0  0  0  0  0  0  0  0  0
   39.3439   29.4824   40.1683 H   0  0  0  0  0  0  0  0  0  0  0  0
   41.8535   32.2049   40.4177 H   0  0  0  0  0  0  0  0  0  0  0  0
   41.0686   31.0958   39.2616 H   0  0  0  0  0  0  0  0  0  0  0  0
  2  1  2  0
  3  2  1  0
  4  5  1  0
  4  3  2  0
  5  6  2  0
  6  1  1  0
  7 12  1  0
  7  5  1  0
  8  7  1  0
  9  8  1  0
  9 10  1  0
 11 10  1  0
 11 12  1  0
 13 14  1  0
 13 12  1  0
 14 15  2  0
 15 17  1  0
 16 14  1  0
  1 18  1  0
  2 19  1  0
  3 20  1  0
  8 21  1  0
  8 22  1  0
  9 23  1  0
  9 24  1  0
 10 25  1  0
 11 26  1  0
 11 27  1  0
 12 28  1  1
 13 29  1  0
 16 30  1  0
 16 31  1  0
M  ISO  8  18  14  19  14  20  14  21  13  22  13  23  13  24  13  25   5
M  ISO  3  26  13  27  13  28  13
M  END
>  <minimizedAffinity>  (1) 
-5.0728898

>  <minimizedRMSD>  (1) 
0.619839013

$$$$
