
     RDKit          3D

 36 37  0  0  1  0  0  0  0  0999 V2000
   39.9770   27.3640   43.5930 C   0  0  0  0  0  0  0  0  0  0  0  0
   39.6950   25.9820   43.4280 C   0  0  0  0  0  0  0  0  0  0  0  0
   38.6370   25.6180   42.5800 C   0  0  0  0  0  0  0  0  0  0  0  0
   37.9450   26.6230   41.9690 N   0  0  0  0  0  0  0  0  0  0  0  0
   38.2270   27.9220   42.1400 C   0  0  0  0  0  0  0  0  0  0  0  0
   39.2400   28.2700   42.9500 N   0  0  0  0  0  0  0  0  0  0  0  0
   37.4570   28.9050   41.4640 N   0  0  0  0  0  0  0  0  0  0  0  0
   36.1380   28.4780   40.9980 C   0  0  0  0  0  0  0  0  0  0  0  0
   35.2920   29.6020   40.5140 C   0  0  0  0  0  0  0  0  0  0  0  0
   35.6100   30.7850   41.2490 N   0  0  0  0  0  0  0  0  0  0  0  0
   36.9510   31.2260   40.8700 C   0  0  0  0  0  0  0  0  0  0  0  0
   38.0140   30.2370   41.2840 C   0  0  2  0  0  0  0  0  0  0  0  0
   39.0380   30.3080   40.1970 C   0  0  0  0  0  0  0  0  0  0  0  0
   39.0600   29.1020   39.3080 C   0  0  0  0  0  0  0  0  0  0  0  0
   40.4340   30.6180   40.6350 C   0  0  0  0  0  0  0  0  0  0  0  0
   38.6120   31.4810   39.3060 C   0  0  0  0  0  0  0  0  0  0  0  0
   40.7998   27.6855   44.2484 H   0  0  0  0  0  0  0  0  0  0  0  0
   40.2892   25.2177   43.9503 H   0  0  0  0  0  0  0  0  0  0  0  0
   38.3757   24.5624   42.4143 H   0  0  0  0  0  0  0  0  0  0  0  0
   36.2738   27.7631   40.1731 H   0  0  0  0  0  0  0  0  0  0  0  0
   35.6196   28.0268   41.8569 H   0  0  0  0  0  0  0  0  0  0  0  0
   35.4839   29.7717   39.4442 H   0  0  0  0  0  0  0  0  0  0  0  0
   34.2306   29.3526   40.6598 H   0  0  0  0  0  0  0  0  0  0  0  0
   34.9270   31.5239   41.0288 H   0  0  0  0  0  0  0  0  0  0  0  0
   36.9879   31.3494   39.7776 H   0  0  0  0  0  0  0  0  0  0  0  0
   37.1532   32.1757   41.3868 H   0  0  0  0  0  0  0  0  0  0  0  0
   38.4613   30.4740   42.2606 H   0  0  0  0  0  0  0  0  0  0  0  0
   39.0766   28.1917   39.9253 H   0  0  0  0  0  0  0  0  0  0  0  0
   38.1618   29.0981   38.6730 H   0  0  0  0  0  0  0  0  0  0  0  0
   39.9578   29.1309   38.6730 H   0  0  0  0  0  0  0  0  0  0  0  0
   40.4797   30.6282   41.7340 H   0  0  0  0  0  0  0  0  0  0  0  0
   41.1192   29.8501   40.2466 H   0  0  0  0  0  0  0  0  0  0  0  0
   40.7298   31.6037   40.2466 H   0  0  0  0  0  0  0  0  0  0  0  0
   38.3044   32.3279   39.9370 H   0  0  0  0  0  0  0  0  0  0  0  0
   39.4572   31.7849   38.6709 H   0  0  0  0  0  0  0  0  0  0  0  0
   37.7688   31.1717   38.6709 H   0  0  0  0  0  0  0  0  0  0  0  0
  2  1  2  0
  3  2  1  0
  4  5  1  0
  4  3  2  0
  5  6  2  0
  6  1  1  0
  7  5  1  0
  8  7  1  0
  9  8  1  0
  9 10  1  0
 11 10  1  0
 11 12  1  0
 12  7  1  0
 13 15  1  0
 13 12  1  0
 14 13  1  0
 16 13  1  0
  1 17  1  0
  2 18  1  0
  3 19  1  0
  8 20  1  0
  8 21  1  0
  9 22  1  0
  9 23  1  0
 10 24  1  0
 11 25  1  0
 11 26  1  0
 12 27  1  1
 14 28  1  0
 14 29  1  0
 14 30  1  0
 15 31  1  0
 15 32  1  0
 15 33  1  0
 16 34  1  0
 16 35  1  0
 16 36  1  0
M  ISO  8  17  14  18  14  19  14  20  13  21  13  22  13  23  13  24   5
M  ISO  8  25  13  26  13  27  13  28   8  29   8  30   8  31   8  32   8
M  ISO  4  33   8  34   8  35   8  36   8
M  END
>  <minimizedAffinity>  (1) 
-4.81059408

>  <minimizedRMSD>  (1) 
0.179860532

$$$$
