
     RDKit          3D

 30 32  0  0  1  0  0  0  0  0999 V2000
   38.1450   29.2990   43.3120 C   0  0  0  0  0  0  0  0  0  0  0  0
   37.4130   28.2520   43.9310 C   0  0  0  0  0  0  0  0  0  0  0  0
   36.5780   27.4700   43.1180 C   0  0  0  0  0  0  0  0  0  0  0  0
   36.5360   27.7790   41.7970 N   0  0  0  0  0  0  0  0  0  0  0  0
   37.2430   28.7860   41.2240 C   0  0  0  0  0  0  0  0  0  0  0  0
   38.0400   29.5310   42.0030 N   0  0  0  0  0  0  0  0  0  0  0  0
   37.0990   28.9950   39.8230 N   0  0  0  0  0  0  0  0  0  0  0  0
   35.9440   28.3760   39.1780 C   0  0  0  0  0  0  0  0  0  0  0  0
   35.8210   28.7620   37.7420 C   0  0  0  0  0  0  0  0  0  0  0  0
   36.3160   30.0810   37.5530 N   0  0  0  0  0  0  0  0  0  0  0  0
   37.7650   30.0520   37.7250 C   0  0  0  0  0  0  0  0  0  0  0  0
   38.1210   29.8070   39.1690 C   0  0  1  0  0  0  0  0  0  0  0  0
   38.4800   30.9810   39.8970 N   0  0  0  0  0  0  0  0  0  0  0  0
   37.8140   32.0570   40.4090 C   0  0  0  0  0  0  0  0  0  0  0  0
   38.6760   32.8880   41.0190 N   0  0  0  0  0  0  0  0  0  0  0  0
   39.8900   32.3220   40.8850 C   0  0  0  0  0  0  0  0  0  0  0  0
   39.7680   31.1710   40.2080 N   0  0  0  0  0  0  0  0  0  0  0  0
   38.8094   29.9289   43.9218 H   0  0  0  0  0  0  0  0  0  0  0  0
   37.4973   28.0602   45.0109 H   0  0  0  0  0  0  0  0  0  0  0  0
   35.9836   26.6428   43.5332 H   0  0  0  0  0  0  0  0  0  0  0  0
   36.0469   27.2827   39.2425 H   0  0  0  0  0  0  0  0  0  0  0  0
   35.0407   28.7267   39.6986 H   0  0  0  0  0  0  0  0  0  0  0  0
   36.4029   28.0618   37.1247 H   0  0  0  0  0  0  0  0  0  0  0  0
   34.7622   28.7260   37.4460 H   0  0  0  0  0  0  0  0  0  0  0  0
   35.8949   30.7145   38.2474 H   0  0  0  0  0  0  0  0  0  0  0  0
   38.1868   29.2460   37.1065 H   0  0  0  0  0  0  0  0  0  0  0  0
   38.1791   31.0233   37.4166 H   0  0  0  0  0  0  0  0  0  0  0  0
   39.0532   29.2230   39.1690 H   0  0  0  0  0  0  0  0  0  0  0  0
   36.7288   32.2202   40.3332 H   0  0  0  0  0  0  0  0  0  0  0  0
   40.8328   32.7379   41.2699 H   0  0  0  0  0  0  0  0  0  0  0  0
  1  2  2  0
  3  2  1  0
  4  3  2  0
  5  4  1  0
  5  6  2  0
  6  1  1  0
  7  5  1  0
  8  7  1  0
  9  8  1  0
 10 11  1  0
 10  9  1  0
 11 12  1  0
 12  7  1  0
 12 13  1  0
 13 17  1  0
 13 14  1  0
 14 15  2  0
 16 15  1  0
 17 16  2  0
  1 18  1  0
  2 19  1  0
  3 20  1  0
  8 21  1  0
  8 22  1  0
  9 23  1  0
  9 24  1  0
 10 25  1  0
 11 26  1  0
 11 27  1  0
 12 28  1  6
 14 29  1  0
 16 30  1  0
M  ISO  8  18  14  19  14  20  14  21  13  22  13  23  13  24  13  25   5
M  ISO  5  26  13  27  13  28  13  29  14  30  14
M  END
>  <minimizedAffinity>  (1) 
-4.50373268

>  <minimizedRMSD>  (1) 
2.82291245

$$$$
