
     RDKit          3D

 50 54  0  0  1  0  0  0  0  0999 V2000
   38.0300   30.2910   39.5160 C   0  0  1  0  0  0  0  0  0  0  0  0
   37.4370   30.2860   38.0830 C   0  0  0  0  0  0  0  0  0  0  0  0
   36.0150   29.8220   38.3890 C   0  0  0  0  0  0  0  0  0  0  0  0
   36.0720   29.0910   39.7090 C   0  0  0  0  0  0  0  0  0  0  0  0
   37.5520   28.9770   40.0150 C   0  0  2  0  0  0  0  0  0  0  0  0
   40.7250   35.0280   39.6930 C   0  0  0  0  0  0  0  0  0  0  0  0
   39.4480   35.5200   40.0800 C   0  0  0  0  0  0  0  0  0  0  0  0
   38.4490   34.5980   40.2970 C   0  0  0  0  0  0  0  0  0  0  0  0
   38.7420   33.2810   40.1290 N   0  0  0  0  0  0  0  0  0  0  0  0
   39.9220   32.8170   39.7710 C   0  0  0  0  0  0  0  0  0  0  0  0
   40.9250   33.7090   39.5510 N   0  0  0  0  0  0  0  0  0  0  0  0
   40.2710   31.4570   39.5770 N   0  0  0  0  0  0  0  0  0  0  0  0
   41.5620   31.1700   39.4880 N   0  0  0  0  0  0  0  0  0  0  0  0
   41.6890   29.8170   39.2880 C   0  0  0  0  0  0  0  0  0  0  0  0
   40.3830   29.3130   39.2620 C   0  0  0  0  0  0  0  0  0  0  0  0
   39.5000   30.3850   39.4500 C   0  0  0  0  0  0  0  0  0  0  0  0
   37.6790   28.7900   41.4350 N   0  0  0  0  0  0  0  0  0  0  0  0
   37.6300   29.6750   42.3980 N   0  0  0  0  0  0  0  0  0  0  0  0
   37.7970   29.1130   43.6110 C   0  0  0  0  0  0  0  0  0  0  0  0
   37.9630   27.7570   43.3670 C   0  0  0  0  0  0  0  0  0  0  0  0
   37.8870   27.5750   42.0030 C   0  0  0  0  0  0  0  0  0  0  0  0
   38.0000   23.5520   40.5370 C   0  0  0  0  0  0  0  0  0  0  0  0
   36.9230   24.0320   41.2470 C   0  0  0  0  0  0  0  0  0  0  0  0
   36.9730   25.3370   41.6820 C   0  0  0  0  0  0  0  0  0  0  0  0
   38.0320   26.2280   41.4620 C   0  0  0  0  0  0  0  0  0  0  0  0
   39.0910   25.7060   40.7470 C   0  0  0  0  0  0  0  0  0  0  0  0
   39.0610   24.4010   40.3030 C   0  0  0  0  0  0  0  0  0  0  0  0
   37.9500   21.8960   39.9810 S   0  0  0  0  0  0  0  0  0  0  0  0
   36.6660   21.5530   39.3240 O   0  0  0  0  0  0  0  0  0  0  0  0
   39.1310   21.6680   39.0540 O   0  0  0  0  0  0  0  0  0  0  0  0
   37.7319   31.1311   40.1605 H   0  0  0  0  0  0  0  0  0  0  0  0
   37.9645   29.5799   37.4249 H   0  0  0  0  0  0  0  0  0  0  0  0
   37.5076   31.2445   37.5480 H   0  0  0  0  0  0  0  0  0  0  0  0
   35.3414   30.6884   38.4642 H   0  0  0  0  0  0  0  0  0  0  0  0
   35.6315   29.1690   37.5912 H   0  0  0  0  0  0  0  0  0  0  0  0
   35.5556   29.6637   40.4934 H   0  0  0  0  0  0  0  0  0  0  0  0
   35.5766   28.1098   39.6659 H   0  0  0  0  0  0  0  0  0  0  0  0
   38.1178   28.1474   39.5658 H   0  0  0  0  0  0  0  0  0  0  0  0
   41.5510   35.7309   39.5096 H   0  0  0  0  0  0  0  0  0  0  0  0
   39.2652   36.5979   40.2015 H   0  0  0  0  0  0  0  0  0  0  0  0
   37.4407   34.9182   40.5983 H   0  0  0  0  0  0  0  0  0  0  0  0
   42.6230   29.2476   39.1723 H   0  0  0  0  0  0  0  0  0  0  0  0
   40.0995   28.2598   39.1190 H   0  0  0  0  0  0  0  0  0  0  0  0
   37.8009   29.6208   44.5868 H   0  0  0  0  0  0  0  0  0  0  0  0
   38.1251   26.9733   44.1217 H   0  0  0  0  0  0  0  0  0  0  0  0
   36.0521   23.3945   41.4595 H   0  0  0  0  0  0  0  0  0  0  0  0
   36.1090   25.7120   42.2501 H   0  0  0  0  0  0  0  0  0  0  0  0
   39.9660   26.3362   40.5297 H   0  0  0  0  0  0  0  0  0  0  0  0
   39.9231   24.0197   39.7361 H   0  0  0  0  0  0  0  0  0  0  0  0
   38.0380   21.0621   41.0644 H   0  0  0  0  0  0  0  0  0  0  0  0
  1  5  1  0
  2  3  1  0
  2  1  1  0
  3  4  1  0
  4  5  1  0
  5 17  1  0
  6  7  2  0
  7  8  1  0
  9  8  2  0
 10  9  1  0
 11  6  1  0
 11 10  2  0
 12 10  1  0
 13 12  1  0
 14 13  2  0
 15 14  1  0
 15 16  2  0
 16  1  1  0
 16 12  1  0
 17 21  1  0
 17 18  1  0
 18 19  2  0
 20 19  1  0
 21 20  2  0
 22 23  2  0
 23 24  1  0
 25 24  2  0
 25 21  1  0
 26 25  1  0
 27 22  1  0
 27 26  2  0
 28 22  1  0
 29 28  2  0
 30 28  2  0
  1 31  1  1
  2 32  1  0
  2 33  1  0
  3 34  1  0
  3 35  1  0
  4 36  1  0
  4 37  1  0
  5 38  1  6
  6 39  1  0
  7 40  1  0
  8 41  1  0
 14 42  1  0
 15 43  1  0
 19 44  1  0
 20 45  1  0
 23 46  1  0
 24 47  1  0
 26 48  1  0
 27 49  1  0
 28 50  1  0
M  ISO  8  31  13  32  13  33  13  34  13  35  13  36  13  37  13  38  13
M  ISO  8  39  14  40  14  41  14  42  14  43  14  44  14  45  14  46  14
M  ISO  4  47  14  48  14  49  14  50  11
M  END
>  <minimizedAffinity>  (1) 
-6.65234995

>  <minimizedRMSD>  (1) 
1.59540904

$$$$
