
     RDKit          3D

 46 49  0  0  1  0  0  0  0  0999 V2000
   38.5940   29.9380   42.4050 C   0  0  0  0  0  0  0  0  0  0  0  0
   38.1610   28.9980   43.3530 C   0  0  0  0  0  0  0  0  0  0  0  0
   37.2650   28.0280   42.9280 C   0  0  0  0  0  0  0  0  0  0  0  0
   36.8730   28.0570   41.6330 N   0  0  0  0  0  0  0  0  0  0  0  0
   37.3010   28.9760   40.7280 C   0  0  0  0  0  0  0  0  0  0  0  0
   38.1660   29.9070   41.1460 N   0  0  0  0  0  0  0  0  0  0  0  0
   36.8110   28.8940   39.4000 N   0  0  0  0  0  0  0  0  0  0  0  0
   35.6370   28.0590   39.1740 C   0  0  0  0  0  0  0  0  0  0  0  0
   35.2420   28.0540   37.7310 C   0  0  0  0  0  0  0  0  0  0  0  0
   35.3770   29.3980   37.2490 N   0  0  0  0  0  0  0  0  0  0  0  0
   36.8020   29.6620   37.0700 C   0  0  0  0  0  0  0  0  0  0  0  0
   37.5220   29.6470   38.3860 C   0  0  1  0  0  0  0  0  0  0  0  0
   37.8950   30.9940   38.8510 C   0  0  0  0  0  0  0  0  0  0  0  0
   36.9940   31.9310   39.3740 C   0  0  0  0  0  0  0  0  0  0  0  0
   37.4000   33.1790   39.7940 C   0  0  0  0  0  0  0  0  0  0  0  0
   38.6970   33.5180   39.7050 N   0  0  0  0  0  0  0  0  0  0  0  0
   39.5850   32.6370   39.2050 C   0  0  0  0  0  0  0  0  0  0  0  0
   39.1790   31.4480   38.8090 N   0  0  0  0  0  0  0  0  0  0  0  0
   40.9570   33.0150   39.1180 N   0  0  0  0  0  0  0  0  0  0  0  0
   41.6120   33.3680   37.8820 C   0  0  0  0  0  0  0  0  0  0  0  0
   42.4750   34.5900   37.9970 C   0  0  0  0  0  0  0  0  0  0  0  0
   43.1280   34.7490   39.2590 N   0  0  0  0  0  0  0  0  0  0  0  0
   42.2830   34.4970   40.3980 C   0  0  0  0  0  0  0  0  0  0  0  0
   41.7920   33.0670   40.3050 C   0  0  0  0  0  0  0  0  0  0  0  0
   39.3049   30.7197   42.7108 H   0  0  0  0  0  0  0  0  0  0  0  0
   38.5183   29.0292   44.3929 H   0  0  0  0  0  0  0  0  0  0  0  0
   36.8861   27.2614   43.6199 H   0  0  0  0  0  0  0  0  0  0  0  0
   35.8644   27.0292   39.4867 H   0  0  0  0  0  0  0  0  0  0  0  0
   34.8017   28.4689   39.7608 H   0  0  0  0  0  0  0  0  0  0  0  0
   35.9013   27.3818   37.1623 H   0  0  0  0  0  0  0  0  0  0  0  0
   34.2081   27.6984   37.6107 H   0  0  0  0  0  0  0  0  0  0  0  0
   34.8853   29.4996   36.3496 H   0  0  0  0  0  0  0  0  0  0  0  0
   37.2316   28.8886   36.4163 H   0  0  0  0  0  0  0  0  0  0  0  0
   36.9194   30.6580   36.6181 H   0  0  0  0  0  0  0  0  0  0  0  0
   38.4667   29.1137   38.2042 H   0  0  0  0  0  0  0  0  0  0  0  0
   35.9302   31.6622   39.4517 H   0  0  0  0  0  0  0  0  0  0  0  0
   36.6675   33.8926   40.1992 H   0  0  0  0  0  0  0  0  0  0  0  0
   40.8417   33.5548   37.1193 H   0  0  0  0  0  0  0  0  0  0  0  0
   42.2691   32.5289   37.6097 H   0  0  0  0  0  0  0  0  0  0  0  0
   43.2482   34.5370   37.2164 H   0  0  0  0  0  0  0  0  0  0  0  0
   41.8031   35.4539   37.8862 H   0  0  0  0  0  0  0  0  0  0  0  0
   43.9230   34.0951   39.2958 H   0  0  0  0  0  0  0  0  0  0  0  0
   42.8560   34.6360   41.3267 H   0  0  0  0  0  0  0  0  0  0  0  0
   41.4326   35.1947   40.4066 H   0  0  0  0  0  0  0  0  0  0  0  0
   41.2061   32.8038   41.1980 H   0  0  0  0  0  0  0  0  0  0  0  0
   42.6274   32.3538   40.2455 H   0  0  0  0  0  0  0  0  0  0  0  0
  1  2  2  0
  3  2  1  0
  4  3  2  0
  5  6  2  0
  5  4  1  0
  6  1  1  0
  7  5  1  0
  8  7  1  0
  9  8  1  0
 10  9  1  0
 11 10  1  0
 11 12  1  0
 12 13  1  0
 12  7  1  0
 13 14  2  0
 14 15  1  0
 16 15  2  0
 17 16  1  0
 18 13  1  0
 18 17  2  0
 19 17  1  0
 19 24  1  0
 20 21  1  0
 20 19  1  0
 21 22  1  0
 22 23  1  0
 24 23  1  0
  1 25  1  0
  2 26  1  0
  3 27  1  0
  8 28  1  0
  8 29  1  0
  9 30  1  0
  9 31  1  0
 10 32  1  0
 11 33  1  0
 11 34  1  0
 12 35  1  6
 14 36  1  0
 15 37  1  0
 20 38  1  0
 20 39  1  0
 21 40  1  0
 21 41  1  0
 22 42  1  0
 23 43  1  0
 23 44  1  0
 24 45  1  0
 24 46  1  0
M  ISO  8  25  14  26  14  27  14  28  13  29  13  30  13  31  13  32   5
M  ISO  8  33  13  34  13  35  13  36  14  37  14  38  13  39  13  40  13
M  ISO  6  41  13  42   5  43  13  44  13  45  13  46  13
M  END
>  <minimizedAffinity>  (1) 
-6.2776289

>  <minimizedRMSD>  (1) 
1.40673816

$$$$
