
     RDKit          3D

 45 48  0  0  1  0  0  0  0  0999 V2000
   37.9120   29.3390   42.9550 C   0  0  0  0  0  0  0  0  0  0  0  0
   37.3990   28.2990   43.7360 C   0  0  0  0  0  0  0  0  0  0  0  0
   36.8530   27.2070   43.0660 C   0  0  0  0  0  0  0  0  0  0  0  0
   36.8570   27.2290   41.7190 N   0  0  0  0  0  0  0  0  0  0  0  0
   37.3580   28.2450   40.9730 C   0  0  0  0  0  0  0  0  0  0  0  0
   37.8850   29.2960   41.6250 N   0  0  0  0  0  0  0  0  0  0  0  0
   37.3070   28.1560   39.5590 N   0  0  0  0  0  0  0  0  0  0  0  0
   36.3940   27.1630   39.0030 C   0  0  0  0  0  0  0  0  0  0  0  0
   36.4780   27.1330   37.4970 C   0  0  0  0  0  0  0  0  0  0  0  0
   36.4790   28.5180   37.0930 N   0  0  0  0  0  0  0  0  0  0  0  0
   37.8400   29.0090   37.3300 C   0  0  0  0  0  0  0  0  0  0  0  0
   38.1570   29.0490   38.7960 C   0  0  1  0  0  0  0  0  0  0  0  0
   38.1270   30.4270   39.3460 C   0  0  0  0  0  0  0  0  0  0  0  0
   36.9680   31.2170   39.4790 C   0  0  0  0  0  0  0  0  0  0  0  0
   37.0180   32.4910   39.9990 C   0  0  0  0  0  0  0  0  0  0  0  0
   38.1960   33.0060   40.3940 N   0  0  0  0  0  0  0  0  0  0  0  0
   39.3090   32.2710   40.2760 C   0  0  0  0  0  0  0  0  0  0  0  0
   39.2490   31.0510   39.7760 N   0  0  0  0  0  0  0  0  0  0  0  0
   42.9650   33.9700   41.5410 C   0  0  0  0  0  0  0  0  0  0  0  0
   42.0660   34.7960   40.8570 C   0  0  0  0  0  0  0  0  0  0  0  0
   40.8950   34.1770   40.4740 C   0  0  0  0  0  0  0  0  0  0  0  0
   40.5720   32.8570   40.7130 C   0  0  0  0  0  0  0  0  0  0  0  0
   41.4960   32.0910   41.3930 C   0  0  0  0  0  0  0  0  0  0  0  0
   42.6990   32.6380   41.8130 C   0  0  0  0  0  0  0  0  0  0  0  0
   44.4700   34.7600   42.0360 S   0  0  0  0  0  0  0  0  0  0  0  0
   44.1860   36.1200   42.5600 O   0  0  0  0  0  0  0  0  0  0  0  0
   45.3560   34.8350   40.8290 O   0  0  0  0  0  0  0  0  0  0  0  0
   38.3498   30.2166   43.4532 H   0  0  0  0  0  0  0  0  0  0  0  0
   37.4256   28.3415   44.8349 H   0  0  0  0  0  0  0  0  0  0  0  0
   36.4321   26.3542   43.6187 H   0  0  0  0  0  0  0  0  0  0  0  0
   36.6583   26.1708   39.3976 H   0  0  0  0  0  0  0  0  0  0  0  0
   35.3670   27.4319   39.2909 H   0  0  0  0  0  0  0  0  0  0  0  0
   37.4034   26.6352   37.1717 H   0  0  0  0  0  0  0  0  0  0  0  0
   35.6437   26.5735   37.0487 H   0  0  0  0  0  0  0  0  0  0  0  0
   35.8024   29.0547   37.6543 H   0  0  0  0  0  0  0  0  0  0  0  0
   38.5547   28.3411   36.8269 H   0  0  0  0  0  0  0  0  0  0  0  0
   37.9151   30.0310   36.9303 H   0  0  0  0  0  0  0  0  0  0  0  0
   39.1909   28.6874   38.8974 H   0  0  0  0  0  0  0  0  0  0  0  0
   35.9991   30.8058   39.1595 H   0  0  0  0  0  0  0  0  0  0  0  0
   36.0973   33.0858   40.0911 H   0  0  0  0  0  0  0  0  0  0  0  0
   42.2766   35.8541   40.6422 H   0  0  0  0  0  0  0  0  0  0  0  0
   40.1565   34.7865   39.9326 H   0  0  0  0  0  0  0  0  0  0  0  0
   41.2760   31.0342   41.6045 H   0  0  0  0  0  0  0  0  0  0  0  0
   43.4322   32.0225   42.3549 H   0  0  0  0  0  0  0  0  0  0  0  0
   45.0844   34.0510   43.0344 H   0  0  0  0  0  0  0  0  0  0  0  0
  1  2  2  0
  3  2  1  0
  4  3  2  0
  5  6  2  0
  5  4  1  0
  6  1  1  0
  7  5  1  0
  8  7  1  0
  9  8  1  0
 10 11  1  0
 10  9  1  0
 11 12  1  0
 12 13  1  0
 12  7  1  0
 13 14  2  0
 13 18  1  0
 14 15  1  0
 15 16  2  0
 17 16  1  0
 17 22  1  0
 18 17  2  0
 19 24  2  0
 19 25  1  0
 20 19  1  0
 21 22  1  0
 21 20  2  0
 22 23  2  0
 23 24  1  0
 25 26  2  0
 27 25  2  0
  1 28  1  0
  2 29  1  0
  3 30  1  0
  8 31  1  0
  8 32  1  0
  9 33  1  0
  9 34  1  0
 10 35  1  0
 11 36  1  0
 11 37  1  0
 12 38  1  6
 14 39  1  0
 15 40  1  0
 20 41  1  0
 21 42  1  0
 23 43  1  0
 24 44  1  0
 25 45  1  0
M  ISO  8  28  14  29  14  30  14  31  13  32  13  33  13  34  13  35   5
M  ISO  8  36  13  37  13  38  13  39  14  40  14  41  14  42  14  43  14
M  ISO  2  44  14  45  11
M  END
>  <minimizedAffinity>  (1) 
-6.11156225

>  <minimizedRMSD>  (1) 
1.27001822

$$$$
