
     RDKit          3D

 47 50  0  0  1  0  0  0  0  0999 V2000
   38.0750   29.4000   43.0090 C   0  0  0  0  0  0  0  0  0  0  0  0
   37.4690   28.4040   43.7870 C   0  0  0  0  0  0  0  0  0  0  0  0
   36.7400   27.4250   43.1230 C   0  0  0  0  0  0  0  0  0  0  0  0
   36.6690   27.5040   41.7730 N   0  0  0  0  0  0  0  0  0  0  0  0
   37.2670   28.4840   41.0410 C   0  0  0  0  0  0  0  0  0  0  0  0
   37.9660   29.4230   41.6840 N   0  0  0  0  0  0  0  0  0  0  0  0
   37.1170   28.4580   39.6320 N   0  0  0  0  0  0  0  0  0  0  0  0
   36.0430   27.6120   39.0950 C   0  0  0  0  0  0  0  0  0  0  0  0
   36.0150   27.6540   37.5940 C   0  0  0  0  0  0  0  0  0  0  0  0
   36.2250   29.0170   37.2200 N   0  0  0  0  0  0  0  0  0  0  0  0
   37.6330   29.3300   37.3990 C   0  0  0  0  0  0  0  0  0  0  0  0
   38.0300   29.2640   38.8430 C   0  0  1  0  0  0  0  0  0  0  0  0
   38.2250   30.6050   39.4410 C   0  0  0  0  0  0  0  0  0  0  0  0
   37.1990   31.5450   39.6530 C   0  0  0  0  0  0  0  0  0  0  0  0
   37.4480   32.7790   40.2150 C   0  0  0  0  0  0  0  0  0  0  0  0
   38.7020   33.1040   40.5740 N   0  0  0  0  0  0  0  0  0  0  0  0
   39.7020   32.2200   40.3800 C   0  0  0  0  0  0  0  0  0  0  0  0
   39.4470   31.0410   39.8400 N   0  0  0  0  0  0  0  0  0  0  0  0
   41.0320   32.5820   40.7680 N   0  0  0  0  0  0  0  0  0  0  0  0
   41.4740   33.9610   40.7450 C   0  0  0  0  0  0  0  0  0  0  0  0
   42.9650   33.9990   40.9380 C   0  0  0  0  0  0  0  0  0  0  0  0
   43.4520   33.2540   42.1400 C   0  0  0  0  0  0  0  0  0  0  0  0
   42.5930   32.0600   42.4900 C   0  0  0  0  0  0  0  0  0  0  0  0
   41.9740   31.5660   41.1950 C   0  0  0  0  0  0  0  0  0  0  0  0
   38.6585   30.1866   43.5098 H   0  0  0  0  0  0  0  0  0  0  0  0
   37.5669   28.3976   44.8826 H   0  0  0  0  0  0  0  0  0  0  0  0
   36.2389   26.6154   43.6738 H   0  0  0  0  0  0  0  0  0  0  0  0
   36.2068   26.5744   39.4216 H   0  0  0  0  0  0  0  0  0  0  0  0
   35.0813   27.9908   39.4712 H   0  0  0  0  0  0  0  0  0  0  0  0
   36.8136   27.0198   37.1816 H   0  0  0  0  0  0  0  0  0  0  0  0
   35.0573   27.2787   37.2043 H   0  0  0  0  0  0  0  0  0  0  0  0
   35.6532   29.6331   37.8153 H   0  0  0  0  0  0  0  0  0  0  0  0
   38.2353   28.6072   36.8291 H   0  0  0  0  0  0  0  0  0  0  0  0
   37.8078   30.3546   37.0390 H   0  0  0  0  0  0  0  0  0  0  0  0
   39.0071   28.7591   38.8633 H   0  0  0  0  0  0  0  0  0  0  0  0
   36.1698   31.2878   39.3621 H   0  0  0  0  0  0  0  0  0  0  0  0
   36.6256   33.4932   40.3687 H   0  0  0  0  0  0  0  0  0  0  0  0
   41.2154   34.4153   39.7772 H   0  0  0  0  0  0  0  0  0  0  0  0
   40.9799   34.5238   41.5507 H   0  0  0  0  0  0  0  0  0  0  0  0
   43.4385   33.5612   40.0468 H   0  0  0  0  0  0  0  0  0  0  0  0
   43.2346   35.0542   41.0924 H   0  0  0  0  0  0  0  0  0  0  0  0
   44.4753   32.9023   41.9423 H   0  0  0  0  0  0  0  0  0  0  0  0
   43.4105   33.9474   42.9929 H   0  0  0  0  0  0  0  0  0  0  0  0
   43.2107   31.2687   42.9398 H   0  0  0  0  0  0  0  0  0  0  0  0
   41.8154   32.3348   43.2179 H   0  0  0  0  0  0  0  0  0  0  0  0
   41.4521   30.6125   41.3640 H   0  0  0  0  0  0  0  0  0  0  0  0
   42.7445   31.3945   40.4289 H   0  0  0  0  0  0  0  0  0  0  0  0
  1  2  2  0
  3  2  1  0
  4  3  2  0
  5  6  2  0
  5  4  1  0
  6  1  1  0
  7  5  1  0
  8  7  1  0
  9  8  1  0
 10 11  1  0
 10  9  1  0
 11 12  1  0
 12 13  1  0
 12  7  1  0
 13 14  2  0
 13 18  1  0
 14 15  1  0
 15 16  2  0
 17 16  1  0
 17 19  1  0
 18 17  2  0
 19 24  1  0
 20 19  1  0
 20 21  1  0
 21 22  1  0
 22 23  1  0
 24 23  1  0
  1 25  1  0
  2 26  1  0
  3 27  1  0
  8 28  1  0
  8 29  1  0
  9 30  1  0
  9 31  1  0
 10 32  1  0
 11 33  1  0
 11 34  1  0
 12 35  1  6
 14 36  1  0
 15 37  1  0
 20 38  1  0
 20 39  1  0
 21 40  1  0
 21 41  1  0
 22 42  1  0
 22 43  1  0
 23 44  1  0
 23 45  1  0
 24 46  1  0
 24 47  1  0
M  ISO  8  25  14  26  14  27  14  28  13  29  13  30  13  31  13  32   5
M  ISO  8  33  13  34  13  35  13  36  14  37  14  38  13  39  13  40  13
M  ISO  7  41  13  42  13  43  13  44  13  45  13  46  13  47  13
M  END
>  <minimizedAffinity>  (1) 
-5.91340303

>  <minimizedRMSD>  (1) 
0.448526502

$$$$
