
     RDKit          3D

 39 42  0  0  1  0  0  0  0  0999 V2000
   38.0320   29.3770   43.0050 C   0  0  0  0  0  0  0  0  0  0  0  0
   37.4350   28.3520   43.7540 C   0  0  0  0  0  0  0  0  0  0  0  0
   36.7400   27.3750   43.0540 C   0  0  0  0  0  0  0  0  0  0  0  0
   36.6890   27.4790   41.7040 N   0  0  0  0  0  0  0  0  0  0  0  0
   37.2750   28.4820   41.0050 C   0  0  0  0  0  0  0  0  0  0  0  0
   37.9440   29.4220   41.6800 N   0  0  0  0  0  0  0  0  0  0  0  0
   37.1500   28.4830   39.5860 N   0  0  0  0  0  0  0  0  0  0  0  0
   36.1010   27.6330   39.0160 C   0  0  0  0  0  0  0  0  0  0  0  0
   36.1010   27.7070   37.5230 C   0  0  0  0  0  0  0  0  0  0  0  0
   36.2900   29.0840   37.1730 N   0  0  0  0  0  0  0  0  0  0  0  0
   37.7010   29.4000   37.3830 C   0  0  0  0  0  0  0  0  0  0  0  0
   38.0610   29.3180   38.8250 C   0  0  1  0  0  0  0  0  0  0  0  0
   38.2360   30.6490   39.4590 C   0  0  0  0  0  0  0  0  0  0  0  0
   37.2030   31.5760   39.6520 C   0  0  0  0  0  0  0  0  0  0  0  0
   37.4240   32.8000   40.2440 C   0  0  0  0  0  0  0  0  0  0  0  0
   38.6750   33.1180   40.6550 N   0  0  0  0  0  0  0  0  0  0  0  0
   39.6660   32.2490   40.4800 C   0  0  0  0  0  0  0  0  0  0  0  0
   39.4430   31.0830   39.9120 N   0  0  0  0  0  0  0  0  0  0  0  0
   40.9610   32.6500   40.9360 N   0  0  0  0  0  0  0  0  0  0  0  0
   41.2760   33.8780   40.5320 N   0  0  0  0  0  0  0  0  0  0  0  0
   42.4990   34.2100   40.9840 C   0  0  0  0  0  0  0  0  0  0  0  0
   42.9800   33.1230   41.7170 C   0  0  0  0  0  0  0  0  0  0  0  0
   41.9800   32.1570   41.6650 C   0  0  0  0  0  0  0  0  0  0  0  0
   38.5894   30.1667   43.5301 H   0  0  0  0  0  0  0  0  0  0  0  0
   37.5143   28.3235   44.8508 H   0  0  0  0  0  0  0  0  0  0  0  0
   36.2467   26.5434   43.5784 H   0  0  0  0  0  0  0  0  0  0  0  0
   36.2754   26.5916   39.3242 H   0  0  0  0  0  0  0  0  0  0  0  0
   35.1264   27.9867   39.3835 H   0  0  0  0  0  0  0  0  0  0  0  0
   36.9202   27.0972   37.1143 H   0  0  0  0  0  0  0  0  0  0  0  0
   35.1566   27.3225   37.1103 H   0  0  0  0  0  0  0  0  0  0  0  0
   35.7026   29.6828   37.7708 H   0  0  0  0  0  0  0  0  0  0  0  0
   38.3170   28.6850   36.8180 H   0  0  0  0  0  0  0  0  0  0  0  0
   37.8837   30.4276   37.0358 H   0  0  0  0  0  0  0  0  0  0  0  0
   39.0444   28.8257   38.8477 H   0  0  0  0  0  0  0  0  0  0  0  0
   36.1860   31.3187   39.3211 H   0  0  0  0  0  0  0  0  0  0  0  0
   36.5952   33.5101   40.3812 H   0  0  0  0  0  0  0  0  0  0  0  0
   43.0229   35.1612   40.8087 H   0  0  0  0  0  0  0  0  0  0  0  0
   43.9500   33.0463   42.2300 H   0  0  0  0  0  0  0  0  0  0  0  0
   42.0157   31.1640   42.1370 H   0  0  0  0  0  0  0  0  0  0  0  0
  1  2  2  0
  3  2  1  0
  4  3  2  0
  5  6  2  0
  5  4  1  0
  6  1  1  0
  7  5  1  0
  8  7  1  0
  9  8  1  0
 10 11  1  0
 10  9  1  0
 11 12  1  0
 12 13  1  0
 12  7  1  0
 13 14  2  0
 13 18  1  0
 14 15  1  0
 15 16  2  0
 17 16  1  0
 17 19  1  0
 18 17  2  0
 19 23  1  0
 20 19  1  0
 20 21  2  0
 21 22  1  0
 23 22  2  0
  1 24  1  0
  2 25  1  0
  3 26  1  0
  8 27  1  0
  8 28  1  0
  9 29  1  0
  9 30  1  0
 10 31  1  0
 11 32  1  0
 11 33  1  0
 12 34  1  6
 14 35  1  0
 15 36  1  0
 21 37  1  0
 22 38  1  0
 23 39  1  0
M  ISO  8  24  14  25  14  26  14  27  13  28  13  29  13  30  13  31   5
M  ISO  8  32  13  33  13  34  13  35  14  36  14  37  14  38  14  39  14
M  END
>  <minimizedAffinity>  (1) 
-5.77857113

>  <minimizedRMSD>  (1) 
0.44880724

$$$$
