
     RDKit          3D

 47 51  0  0  1  0  0  0  0  0999 V2000
   37.6850   30.0110   39.2500 C   0  0  1  0  0  0  0  0  0  0  0  0
   36.8520   29.8590   37.9480 C   0  0  0  0  0  0  0  0  0  0  0  0
   35.5060   29.4270   38.5280 C   0  0  0  0  0  0  0  0  0  0  0  0
   35.7870   28.8550   39.8990 C   0  0  0  0  0  0  0  0  0  0  0  0
   37.2990   28.7740   39.9700 C   0  0  2  0  0  0  0  0  0  0  0  0
   40.5260   34.6490   39.5880 C   0  0  0  0  0  0  0  0  0  0  0  0
   39.3730   35.0990   40.2640 C   0  0  0  0  0  0  0  0  0  0  0  0
   38.3930   34.1640   40.5370 C   0  0  0  0  0  0  0  0  0  0  0  0
   38.5980   32.8800   40.1410 N   0  0  0  0  0  0  0  0  0  0  0  0
   39.6720   32.4600   39.5100 C   0  0  0  0  0  0  0  0  0  0  0  0
   40.6550   33.3580   39.2270 N   0  0  0  0  0  0  0  0  0  0  0  0
   39.9300   31.1330   39.0690 N   0  0  0  0  0  0  0  0  0  0  0  0
   41.1730   30.8450   38.7100 N   0  0  0  0  0  0  0  0  0  0  0  0
   41.2090   29.5350   38.3080 C   0  0  0  0  0  0  0  0  0  0  0  0
   39.9010   29.0540   38.4490 C   0  0  0  0  0  0  0  0  0  0  0  0
   39.1070   30.1010   38.9390 C   0  0  0  0  0  0  0  0  0  0  0  0
   37.6630   28.7430   41.3600 N   0  0  0  0  0  0  0  0  0  0  0  0
   37.7250   29.7310   42.2190 N   0  0  0  0  0  0  0  0  0  0  0  0
   38.1080   29.3060   43.4440 C   0  0  0  0  0  0  0  0  0  0  0  0
   38.2960   27.9290   43.3130 C   0  0  0  0  0  0  0  0  0  0  0  0
   38.0150   27.6020   42.0150 C   0  0  0  0  0  0  0  0  0  0  0  0
   38.1170   26.2550   41.5670 N   0  0  0  0  0  0  0  0  0  0  0  0
   37.0030   25.5190   41.8550 C   0  0  0  0  0  0  0  0  0  0  0  0
   36.8750   24.1890   41.5160 C   0  0  0  0  0  0  0  0  0  0  0  0
   37.9420   23.6120   40.8590 C   0  0  0  0  0  0  0  0  0  0  0  0
   37.8800   22.3980   40.5260 O   0  0  0  0  0  0  0  0  0  0  0  0
   39.0300   24.3530   40.5850 N   0  0  0  0  0  0  0  0  0  0  0  0
   39.1300   25.6460   40.9250 C   0  0  0  0  0  0  0  0  0  0  0  0
   40.1110   26.4020   40.7030 O   0  0  0  0  0  0  0  0  0  0  0  0
   37.4988   30.9200   39.8408 H   0  0  0  0  0  0  0  0  0  0  0  0
   37.2735   29.0903   37.2836 H   0  0  0  0  0  0  0  0  0  0  0  0
   36.8126   30.7618   37.3208 H   0  0  0  0  0  0  0  0  0  0  0  0
   34.8327   30.2931   38.6093 H   0  0  0  0  0  0  0  0  0  0  0  0
   35.0171   28.6832   37.8816 H   0  0  0  0  0  0  0  0  0  0  0  0
   35.3952   29.5173   40.6850 H   0  0  0  0  0  0  0  0  0  0  0  0
   35.3067   27.8774   40.0523 H   0  0  0  0  0  0  0  0  0  0  0  0
   37.7903   27.8943   39.5287 H   0  0  0  0  0  0  0  0  0  0  0  0
   41.3302   35.3616   39.3526 H   0  0  0  0  0  0  0  0  0  0  0  0
   39.2585   36.1517   40.5619 H   0  0  0  0  0  0  0  0  0  0  0  0
   37.4700   34.4516   41.0617 H   0  0  0  0  0  0  0  0  0  0  0  0
   42.0855   28.9760   37.9484 H   0  0  0  0  0  0  0  0  0  0  0  0
   39.5574   28.0352   38.2165 H   0  0  0  0  0  0  0  0  0  0  0  0
   38.2427   29.9150   44.3501 H   0  0  0  0  0  0  0  0  0  0  0  0
   38.6116   27.2356   44.1065 H   0  0  0  0  0  0  0  0  0  0  0  0
   36.1707   26.0095   42.3810 H   0  0  0  0  0  0  0  0  0  0  0  0
   35.9673   23.6163   41.7573 H   0  0  0  0  0  0  0  0  0  0  0  0
   39.8190   23.9091   40.0937 H   0  0  0  0  0  0  0  0  0  0  0  0
  1  5  1  0
  2  3  1  0
  2  1  1  0
  3  4  1  0
  4  5  1  0
  5 17  1  0
  6  7  2  0
  7  8  1  0
  9  8  2  0
 10  9  1  0
 11 10  2  0
 11  6  1  0
 12 10  1  0
 13 12  1  0
 14 15  1  0
 14 13  2  0
 15 16  2  0
 16 12  1  0
 16  1  1  0
 17 21  1  0
 17 18  1  0
 18 19  2  0
 20 19  1  0
 21 20  2  0
 22 23  1  0
 22 21  1  0
 24 23  2  0
 25 24  1  0
 26 25  2  0
 27 25  1  0
 27 28  1  0
 28 22  1  0
 29 28  2  0
  1 30  1  1
  2 31  1  0
  2 32  1  0
  3 33  1  0
  3 34  1  0
  4 35  1  0
  4 36  1  0
  5 37  1  6
  6 38  1  0
  7 39  1  0
  8 40  1  0
 14 41  1  0
 15 42  1  0
 19 43  1  0
 20 44  1  0
 23 45  1  0
 24 46  1  0
 27 47  1  0
M  ISO  8  30  13  31  13  32  13  33  13  34  13  35  13  36  13  37  13
M  ISO  8  38  14  39  14  40  14  41  14  42  14  43  14  44  14  45  14
M  ISO  2  46  14  47   9
M  END
>  <minimizedAffinity>  (1) 
-6.56648827

>  <minimizedRMSD>  (1) 
1.35516584

$$$$
