
     RDKit          3D

 42 45  0  0  1  0  0  0  0  0999 V2000
   38.0000   29.3150   43.0260 C   0  0  0  0  0  0  0  0  0  0  0  0
   37.3810   28.3050   43.7840 C   0  0  0  0  0  0  0  0  0  0  0  0
   36.6540   27.3490   43.0940 C   0  0  0  0  0  0  0  0  0  0  0  0
   36.5930   27.4570   41.7470 N   0  0  0  0  0  0  0  0  0  0  0  0
   37.1970   28.4370   41.0340 C   0  0  0  0  0  0  0  0  0  0  0  0
   37.8970   29.3570   41.7080 N   0  0  0  0  0  0  0  0  0  0  0  0
   37.0540   28.4350   39.6220 N   0  0  0  0  0  0  0  0  0  0  0  0
   36.0000   27.6010   39.0640 C   0  0  0  0  0  0  0  0  0  0  0  0
   35.9870   27.6750   37.5640 C   0  0  0  0  0  0  0  0  0  0  0  0
   36.1910   29.0510   37.2120 N   0  0  0  0  0  0  0  0  0  0  0  0
   37.6050   29.3500   37.4130 C   0  0  0  0  0  0  0  0  0  0  0  0
   37.9680   29.2620   38.8590 C   0  0  1  0  0  0  0  0  0  0  0  0
   38.1740   30.5850   39.4840 C   0  0  0  0  0  0  0  0  0  0  0  0
   37.2010   31.5930   39.5390 C   0  0  0  0  0  0  0  0  0  0  0  0
   37.4390   32.8160   40.1340 C   0  0  0  0  0  0  0  0  0  0  0  0
   38.6460   33.0520   40.6800 N   0  0  0  0  0  0  0  0  0  0  0  0
   39.5950   32.1070   40.6430 C   0  0  0  0  0  0  0  0  0  0  0  0
   39.3450   30.9500   40.0710 N   0  0  0  0  0  0  0  0  0  0  0  0
   40.9260   32.3430   41.2360 C   0  0  0  0  0  0  0  0  0  0  0  0
   41.3720   31.4640   42.2260 C   0  0  0  0  0  0  0  0  0  0  0  0
   42.6260   31.6560   42.8090 C   0  0  0  0  0  0  0  0  0  0  0  0
   43.4010   32.7110   42.3970 C   0  0  0  0  0  0  0  0  0  0  0  0
   42.9460   33.5810   41.4090 C   0  0  0  0  0  0  0  0  0  0  0  0
   41.7070   33.3980   40.8270 C   0  0  0  0  0  0  0  0  0  0  0  0
   38.5850   30.0902   43.5426 H   0  0  0  0  0  0  0  0  0  0  0  0
   37.4705   28.2754   44.8800 H   0  0  0  0  0  0  0  0  0  0  0  0
   36.1440   26.5304   43.6230 H   0  0  0  0  0  0  0  0  0  0  0  0
   36.1674   26.5579   39.3705 H   0  0  0  0  0  0  0  0  0  0  0  0
   35.0321   27.9645   39.4395 H   0  0  0  0  0  0  0  0  0  0  0  0
   36.7943   27.0545   37.1478 H   0  0  0  0  0  0  0  0  0  0  0  0
   35.0340   27.3027   37.1600 H   0  0  0  0  0  0  0  0  0  0  0  0
   35.6145   29.6570   37.8131 H   0  0  0  0  0  0  0  0  0  0  0  0
   38.2101   28.6279   36.8452 H   0  0  0  0  0  0  0  0  0  0  0  0
   37.8008   30.3744   37.0632 H   0  0  0  0  0  0  0  0  0  0  0  0
   38.9426   28.7525   38.8841 H   0  0  0  0  0  0  0  0  0  0  0  0
   36.2138   31.4029   39.0926 H   0  0  0  0  0  0  0  0  0  0  0  0
   36.6537   33.5858   40.1613 H   0  0  0  0  0  0  0  0  0  0  0  0
   40.7376   30.6239   42.5450 H   0  0  0  0  0  0  0  0  0  0  0  0
   42.9883   30.9701   43.5889 H   0  0  0  0  0  0  0  0  0  0  0  0
   44.3901   32.8709   42.8510 H   0  0  0  0  0  0  0  0  0  0  0  0
   43.5794   34.4216   41.0893 H   0  0  0  0  0  0  0  0  0  0  0  0
   41.3500   34.0867   40.0471 H   0  0  0  0  0  0  0  0  0  0  0  0
  1  2  2  0
  3  2  1  0
  4  3  2  0
  5  6  2  0
  5  4  1  0
  6  1  1  0
  7  5  1  0
  8  7  1  0
  9  8  1  0
 10 11  1  0
 10  9  1  0
 11 12  1  0
 12 13  1  0
 12  7  1  0
 13 14  2  0
 13 18  1  0
 14 15  1  0
 15 16  2  0
 17 16  1  0
 17 19  1  0
 18 17  2  0
 19 20  2  0
 20 21  1  0
 22 21  2  0
 23 22  1  0
 24 19  1  0
 24 23  2  0
  1 25  1  0
  2 26  1  0
  3 27  1  0
  8 28  1  0
  8 29  1  0
  9 30  1  0
  9 31  1  0
 10 32  1  0
 11 33  1  0
 11 34  1  0
 12 35  1  6
 14 36  1  0
 15 37  1  0
 20 38  1  0
 21 39  1  0
 22 40  1  0
 23 41  1  0
 24 42  1  0
M  ISO  8  25  14  26  14  27  14  28  13  29  13  30  13  31  13  32   5
M  ISO  8  33  13  34  13  35  13  36  14  37  14  38  14  39  14  40  14
M  ISO  2  41  14  42  14
M  END
>  <minimizedAffinity>  (1) 
-5.71996498

>  <minimizedRMSD>  (1) 
0.543966293

$$$$
