
     RDKit          3D

 39 42  0  0  1  0  0  0  0  0999 V2000
   38.0310   29.3840   43.0190 C   0  0  0  0  0  0  0  0  0  0  0  0
   37.4270   28.3650   43.7720 C   0  0  0  0  0  0  0  0  0  0  0  0
   36.7330   27.3830   43.0760 C   0  0  0  0  0  0  0  0  0  0  0  0
   36.6870   27.4800   41.7280 N   0  0  0  0  0  0  0  0  0  0  0  0
   37.2740   28.4710   41.0150 C   0  0  0  0  0  0  0  0  0  0  0  0
   37.9470   29.4200   41.6960 N   0  0  0  0  0  0  0  0  0  0  0  0
   37.1560   28.4670   39.5960 N   0  0  0  0  0  0  0  0  0  0  0  0
   36.1130   27.6190   39.0390 C   0  0  0  0  0  0  0  0  0  0  0  0
   36.1620   27.6440   37.5250 C   0  0  0  0  0  0  0  0  0  0  0  0
   36.2850   29.0530   37.1950 N   0  0  0  0  0  0  0  0  0  0  0  0
   37.7050   29.3660   37.3970 C   0  0  0  0  0  0  0  0  0  0  0  0
   38.0810   29.2990   38.8490 C   0  0  1  0  0  0  0  0  0  0  0  0
   38.2260   30.6360   39.4670 C   0  0  0  0  0  0  0  0  0  0  0  0
   37.1780   31.5620   39.6400 C   0  0  0  0  0  0  0  0  0  0  0  0
   37.3820   32.7940   40.2240 C   0  0  0  0  0  0  0  0  0  0  0  0
   38.6230   33.1290   40.6460 N   0  0  0  0  0  0  0  0  0  0  0  0
   39.6370   32.2610   40.4920 C   0  0  0  0  0  0  0  0  0  0  0  0
   39.4170   31.0830   39.9280 N   0  0  0  0  0  0  0  0  0  0  0  0
   40.9700   32.5530   40.9170 N   0  0  0  0  0  0  0  0  0  0  0  0
   41.9060   31.9550   41.7060 C   0  0  0  0  0  0  0  0  0  0  0  0
   43.0160   32.7820   41.7020 C   0  0  0  0  0  0  0  0  0  0  0  0
   42.7730   33.8570   40.9350 N   0  0  0  0  0  0  0  0  0  0  0  0
   41.5310   33.7120   40.4620 C   0  0  0  0  0  0  0  0  0  0  0  0
   38.5897   30.1749   43.5409 H   0  0  0  0  0  0  0  0  0  0  0  0
   37.5002   28.3447   44.8694 H   0  0  0  0  0  0  0  0  0  0  0  0
   36.2377   26.5546   43.6037 H   0  0  0  0  0  0  0  0  0  0  0  0
   36.2602   26.5866   39.3891 H   0  0  0  0  0  0  0  0  0  0  0  0
   35.1337   27.9952   39.3698 H   0  0  0  0  0  0  0  0  0  0  0  0
   37.0298   27.0792   37.1535 H   0  0  0  0  0  0  0  0  0  0  0  0
   35.2757   27.1802   37.0674 H   0  0  0  0  0  0  0  0  0  0  0  0
   35.6960   29.6238   37.8180 H   0  0  0  0  0  0  0  0  0  0  0  0
   38.3141   28.6419   36.8361 H   0  0  0  0  0  0  0  0  0  0  0  0
   37.8873   30.3903   37.0397 H   0  0  0  0  0  0  0  0  0  0  0  0
   39.0741   28.8280   38.8927 H   0  0  0  0  0  0  0  0  0  0  0  0
   36.1672   31.2939   39.2989 H   0  0  0  0  0  0  0  0  0  0  0  0
   36.5448   33.4971   40.3456 H   0  0  0  0  0  0  0  0  0  0  0  0
   41.8002   31.0003   42.2421 H   0  0  0  0  0  0  0  0  0  0  0  0
   43.9534   32.5883   42.2440 H   0  0  0  0  0  0  0  0  0  0  0  0
   41.0288   34.4293   39.7963 H   0  0  0  0  0  0  0  0  0  0  0  0
  1  2  2  0
  3  2  1  0
  4  3  2  0
  5  6  2  0
  5  4  1  0
  6  1  1  0
  7  5  1  0
  8  7  1  0
  9  8  1  0
 10 11  1  0
 10  9  1  0
 11 12  1  0
 12 13  1  0
 12  7  1  0
 13 14  2  0
 13 18  1  0
 14 15  1  0
 15 16  2  0
 17 16  1  0
 17 19  1  0
 18 17  2  0
 19 20  1  0
 21 20  2  0
 22 21  1  0
 23 19  1  0
 23 22  2  0
  1 24  1  0
  2 25  1  0
  3 26  1  0
  8 27  1  0
  8 28  1  0
  9 29  1  0
  9 30  1  0
 10 31  1  0
 11 32  1  0
 11 33  1  0
 12 34  1  6
 14 35  1  0
 15 36  1  0
 20 37  1  0
 21 38  1  0
 23 39  1  0
M  ISO  8  24  14  25  14  26  14  27  13  28  13  29  13  30  13  31   5
M  ISO  8  32  13  33  13  34  13  35  14  36  14  37  14  38  14  39  14
M  END
>  <minimizedAffinity>  (1) 
-5.68639994

>  <minimizedRMSD>  (1) 
0.47910437

$$$$
