
     RDKit          3D

 39 42  0  0  1  0  0  0  0  0999 V2000
   38.0000   29.3190   43.0650 C   0  0  0  0  0  0  0  0  0  0  0  0
   37.3690   28.3080   43.8030 C   0  0  0  0  0  0  0  0  0  0  0  0
   36.6550   27.3490   43.0910 C   0  0  0  0  0  0  0  0  0  0  0  0
   36.6280   27.4670   41.7470 N   0  0  0  0  0  0  0  0  0  0  0  0
   37.2430   28.4480   41.0530 C   0  0  0  0  0  0  0  0  0  0  0  0
   37.9300   29.3720   41.7390 N   0  0  0  0  0  0  0  0  0  0  0  0
   37.1350   28.4550   39.6370 N   0  0  0  0  0  0  0  0  0  0  0  0
   36.0920   27.6260   39.0490 C   0  0  0  0  0  0  0  0  0  0  0  0
   36.1080   27.7100   37.5530 C   0  0  0  0  0  0  0  0  0  0  0  0
   36.3200   29.0880   37.2120 N   0  0  0  0  0  0  0  0  0  0  0  0
   37.7310   29.3810   37.4440 C   0  0  0  0  0  0  0  0  0  0  0  0
   38.0690   29.2850   38.9010 C   0  0  1  0  0  0  0  0  0  0  0  0
   38.2590   30.6020   39.5340 C   0  0  0  0  0  0  0  0  0  0  0  0
   37.2710   31.6040   39.6010 C   0  0  0  0  0  0  0  0  0  0  0  0
   37.5030   32.8210   40.2050 C   0  0  0  0  0  0  0  0  0  0  0  0
   38.7180   33.0650   40.7530 N   0  0  0  0  0  0  0  0  0  0  0  0
   39.6710   32.1310   40.7020 C   0  0  0  0  0  0  0  0  0  0  0  0
   39.4310   30.9730   40.1200 N   0  0  0  0  0  0  0  0  0  0  0  0
   41.0050   32.3160   41.2680 C   0  0  0  0  0  0  0  0  0  0  0  0
   41.4600   31.4140   42.2300 C   0  0  0  0  0  0  0  0  0  0  0  0
   42.7390   31.8090   42.5990 C   0  0  0  0  0  0  0  0  0  0  0  0
   42.9900   32.9470   41.8270 C   0  0  0  0  0  0  0  0  0  0  0  0
   41.9640   33.2140   41.0660 O   0  0  0  0  0  0  0  0  0  0  0  0
   38.5707   30.0924   43.6000 H   0  0  0  0  0  0  0  0  0  0  0  0
   37.4355   28.2741   44.9005 H   0  0  0  0  0  0  0  0  0  0  0  0
   36.1333   26.5273   43.6034 H   0  0  0  0  0  0  0  0  0  0  0  0
   36.2526   26.5805   39.3509 H   0  0  0  0  0  0  0  0  0  0  0  0
   35.1172   27.9891   39.4066 H   0  0  0  0  0  0  0  0  0  0  0  0
   36.9226   27.0912   37.1486 H   0  0  0  0  0  0  0  0  0  0  0  0
   35.1620   27.3419   37.1292 H   0  0  0  0  0  0  0  0  0  0  0  0
   35.7326   29.6920   37.8045 H   0  0  0  0  0  0  0  0  0  0  0  0
   38.3446   28.6596   36.8845 H   0  0  0  0  0  0  0  0  0  0  0  0
   37.9354   30.4072   37.1046 H   0  0  0  0  0  0  0  0  0  0  0  0
   39.0439   28.7776   38.9471 H   0  0  0  0  0  0  0  0  0  0  0  0
   36.2835   31.4090   39.1574 H   0  0  0  0  0  0  0  0  0  0  0  0
   36.7119   33.5844   40.2417 H   0  0  0  0  0  0  0  0  0  0  0  0
   40.9070   30.5486   42.6240 H   0  0  0  0  0  0  0  0  0  0  0  0
   43.4051   31.3332   43.3338 H   0  0  0  0  0  0  0  0  0  0  0  0
   43.9199   33.5339   41.8567 H   0  0  0  0  0  0  0  0  0  0  0  0
  1  2  2  0
  3  2  1  0
  4  3  2  0
  5  6  2  0
  5  4  1  0
  6  1  1  0
  7  5  1  0
  8  7  1  0
  9  8  1  0
 10 11  1  0
 10  9  1  0
 11 12  1  0
 12 13  1  0
 12  7  1  0
 13 14  2  0
 13 18  1  0
 14 15  1  0
 15 16  2  0
 17 16  1  0
 17 19  1  0
 18 17  2  0
 19 20  2  0
 20 21  1  0
 22 21  2  0
 23 19  1  0
 23 22  1  0
  1 24  1  0
  2 25  1  0
  3 26  1  0
  8 27  1  0
  8 28  1  0
  9 29  1  0
  9 30  1  0
 10 31  1  0
 11 32  1  0
 11 33  1  0
 12 34  1  6
 14 35  1  0
 15 36  1  0
 20 37  1  0
 21 38  1  0
 22 39  1  0
M  ISO  8  24  14  25  14  26  14  27  13  28  13  29  13  30  13  31   5
M  ISO  8  32  13  33  13  34  13  35  14  36  14  37  14  38  14  39  14
M  END
>  <minimizedAffinity>  (1) 
-5.46983719

>  <minimizedRMSD>  (1) 
0.488878816

$$$$
