
     RDKit          3D

 38 41  0  0  1  0  0  0  0  0999 V2000
   37.9430   29.3590   43.0290 C   0  0  0  0  0  0  0  0  0  0  0  0
   37.3700   28.3170   43.7560 C   0  0  0  0  0  0  0  0  0  0  0  0
   36.7670   27.2970   43.0470 C   0  0  0  0  0  0  0  0  0  0  0  0
   36.7760   27.3810   41.6900 N   0  0  0  0  0  0  0  0  0  0  0  0
   37.3390   28.4040   40.9990 C   0  0  0  0  0  0  0  0  0  0  0  0
   37.9230   29.3910   41.6990 N   0  0  0  0  0  0  0  0  0  0  0  0
   37.2840   28.3780   39.5880 N   0  0  0  0  0  0  0  0  0  0  0  0
   36.3140   27.4650   38.9770 C   0  0  0  0  0  0  0  0  0  0  0  0
   36.3980   27.5080   37.4740 C   0  0  0  0  0  0  0  0  0  0  0  0
   36.4770   28.9110   37.1380 N   0  0  0  0  0  0  0  0  0  0  0  0
   37.8790   29.2910   37.3960 C   0  0  0  0  0  0  0  0  0  0  0  0
   38.1850   29.2510   38.8620 C   0  0  1  0  0  0  0  0  0  0  0  0
   38.2300   30.6040   39.4740 C   0  0  0  0  0  0  0  0  0  0  0  0
   37.1360   31.4750   39.5910 C   0  0  0  0  0  0  0  0  0  0  0  0
   37.2670   32.7160   40.1750 C   0  0  0  0  0  0  0  0  0  0  0  0
   38.4620   33.1110   40.6460 N   0  0  0  0  0  0  0  0  0  0  0  0
   39.5210   32.2990   40.5470 C   0  0  0  0  0  0  0  0  0  0  0  0
   39.3670   31.1230   39.9870 N   0  0  0  0  0  0  0  0  0  0  0  0
   40.8780   32.5910   41.0130 C   0  0  0  0  0  0  0  0  0  0  0  0
   41.2360   33.8930   40.5100 C   0  0  0  0  0  0  0  0  0  0  0  0
   42.9990   34.1620   41.1710 S   0  0  0  0  0  0  0  0  0  0  0  0
   42.8860   32.4500   41.9930 C   0  0  0  0  0  0  0  0  0  0  0  0
   41.8630   32.0770   41.7210 N   0  0  0  0  0  0  0  0  0  0  0  0
   38.4281   30.1827   43.5732 H   0  0  0  0  0  0  0  0  0  0  0  0
   37.3972   28.3075   44.8556 H   0  0  0  0  0  0  0  0  0  0  0  0
   36.2960   26.4466   43.5618 H   0  0  0  0  0  0  0  0  0  0  0  0
   36.5211   26.4402   39.3188 H   0  0  0  0  0  0  0  0  0  0  0  0
   35.3034   27.7775   39.2786 H   0  0  0  0  0  0  0  0  0  0  0  0
   37.2945   26.9763   37.1226 H   0  0  0  0  0  0  0  0  0  0  0  0
   35.5333   27.0203   37.0002 H   0  0  0  0  0  0  0  0  0  0  0  0
   35.8386   29.4610   37.7304 H   0  0  0  0  0  0  0  0  0  0  0  0
   38.5442   28.5901   36.8704 H   0  0  0  0  0  0  0  0  0  0  0  0
   38.0364   30.3174   37.0330 H   0  0  0  0  0  0  0  0  0  0  0  0
   39.1958   28.8252   38.9455 H   0  0  0  0  0  0  0  0  0  0  0  0
   36.1537   31.1605   39.2086 H   0  0  0  0  0  0  0  0  0  0  0  0
   36.3953   33.3820   40.2555 H   0  0  0  0  0  0  0  0  0  0  0  0
   40.6319   34.5715   39.8898 H   0  0  0  0  0  0  0  0  0  0  0  0
   43.6505   31.9408   42.5981 H   0  0  0  0  0  0  0  0  0  0  0  0
  1  2  2  0
  3  2  1  0
  4  3  2  0
  5  4  1  0
  5  6  2  0
  6  1  1  0
  7  5  1  0
  8  7  1  0
  9  8  1  0
 10 11  1  0
 10  9  1  0
 11 12  1  0
 12 13  1  0
 12  7  1  0
 13 14  2  0
 13 18  1  0
 14 15  1  0
 15 16  2  0
 17 16  1  0
 17 19  1  0
 18 17  2  0
 19 23  1  0
 20 19  2  0
 20 21  1  0
 21 22  1  0
 23 22  2  0
  1 24  1  0
  2 25  1  0
  3 26  1  0
  8 27  1  0
  8 28  1  0
  9 29  1  0
  9 30  1  0
 10 31  1  0
 11 32  1  0
 11 33  1  0
 12 34  1  6
 14 35  1  0
 15 36  1  0
 20 37  1  0
 22 38  1  0
M  ISO  8  24  14  25  14  26  14  27  13  28  13  29  13  30  13  31   5
M  ISO  7  32  13  33  13  34  13  35  14  36  14  37  14  38  14
M  END
>  <minimizedAffinity>  (1) 
-5.41756487

>  <minimizedRMSD>  (1) 
0.713533163

$$$$
