
     RDKit          3D

 37 40  0  0  1  0  0  0  0  0999 V2000
   37.9600   29.3470   43.0460 C   0  0  0  0  0  0  0  0  0  0  0  0
   37.3590   28.3220   43.7930 C   0  0  0  0  0  0  0  0  0  0  0  0
   36.6780   27.3400   43.0930 C   0  0  0  0  0  0  0  0  0  0  0  0
   36.6410   27.4370   41.7420 N   0  0  0  0  0  0  0  0  0  0  0  0
   37.2300   28.4380   41.0370 C   0  0  0  0  0  0  0  0  0  0  0  0
   37.8870   29.3840   41.7210 N   0  0  0  0  0  0  0  0  0  0  0  0
   37.1220   28.4320   39.6240 N   0  0  0  0  0  0  0  0  0  0  0  0
   36.0940   27.5710   39.0470 C   0  0  0  0  0  0  0  0  0  0  0  0
   36.1230   27.6310   37.5420 C   0  0  0  0  0  0  0  0  0  0  0  0
   36.2570   29.0250   37.2180 N   0  0  0  0  0  0  0  0  0  0  0  0
   37.6740   29.3570   37.4250 C   0  0  0  0  0  0  0  0  0  0  0  0
   38.0370   29.2750   38.8790 C   0  0  1  0  0  0  0  0  0  0  0  0
   38.1690   30.6120   39.4990 C   0  0  0  0  0  0  0  0  0  0  0  0
   37.1490   31.5750   39.5750 C   0  0  0  0  0  0  0  0  0  0  0  0
   37.3500   32.8020   40.1710 C   0  0  0  0  0  0  0  0  0  0  0  0
   38.5700   33.0940   40.7040 N   0  0  0  0  0  0  0  0  0  0  0  0
   39.5480   32.1950   40.6410 C   0  0  0  0  0  0  0  0  0  0  0  0
   39.3340   31.0270   40.0660 N   0  0  0  0  0  0  0  0  0  0  0  0
   40.9060   32.3670   41.1670 C   0  0  0  0  0  0  0  0  0  0  0  0
   41.5730   33.4650   40.7600 N   0  0  0  0  0  0  0  0  0  0  0  0
   42.7400   33.4650   41.3100 O   0  0  0  0  0  0  0  0  0  0  0  0
   42.8930   32.4120   42.0750 C   0  0  0  0  0  0  0  0  0  0  0  0
   41.7290   31.7120   41.9870 N   0  0  0  0  0  0  0  0  0  0  0  0
   38.5071   30.1423   43.5734 H   0  0  0  0  0  0  0  0  0  0  0  0
   37.4262   28.2995   44.8907 H   0  0  0  0  0  0  0  0  0  0  0  0
   36.1834   26.5086   43.6166 H   0  0  0  0  0  0  0  0  0  0  0  0
   36.2705   26.5342   39.3693 H   0  0  0  0  0  0  0  0  0  0  0  0
   35.1097   27.9195   39.3931 H   0  0  0  0  0  0  0  0  0  0  0  0
   36.9785   27.0610   37.1505 H   0  0  0  0  0  0  0  0  0  0  0  0
   35.2171   27.1930   37.0976 H   0  0  0  0  0  0  0  0  0  0  0  0
   35.6623   29.5946   37.8367 H   0  0  0  0  0  0  0  0  0  0  0  0
   38.2962   28.6489   36.8581 H   0  0  0  0  0  0  0  0  0  0  0  0
   37.8481   30.3859   37.0770 H   0  0  0  0  0  0  0  0  0  0  0  0
   39.0275   28.7986   38.9245 H   0  0  0  0  0  0  0  0  0  0  0  0
   36.1624   31.3437   39.1471 H   0  0  0  0  0  0  0  0  0  0  0  0
   36.5337   33.5380   40.2159 H   0  0  0  0  0  0  0  0  0  0  0  0
   43.7813   32.1477   42.6676 H   0  0  0  0  0  0  0  0  0  0  0  0
  1  2  2  0
  3  2  1  0
  4  3  2  0
  5  6  2  0
  5  4  1  0
  6  1  1  0
  7  5  1  0
  8  7  1  0
  9  8  1  0
 10 11  1  0
 10  9  1  0
 11 12  1  0
 12 13  1  0
 12  7  1  0
 13 14  2  0
 13 18  1  0
 14 15  1  0
 15 16  2  0
 17 16  1  0
 17 19  1  0
 18 17  2  0
 19 23  1  0
 20 19  2  0
 20 21  1  0
 21 22  1  0
 23 22  2  0
  1 24  1  0
  2 25  1  0
  3 26  1  0
  8 27  1  0
  8 28  1  0
  9 29  1  0
  9 30  1  0
 10 31  1  0
 11 32  1  0
 11 33  1  0
 12 34  1  6
 14 35  1  0
 15 36  1  0
 22 37  1  0
M  ISO  8  24  14  25  14  26  14  27  13  28  13  29  13  30  13  31   5
M  ISO  6  32  13  33  13  34  13  35  14  36  14  37  14
M  END
>  <minimizedAffinity>  (1) 
-5.39904785

>  <minimizedRMSD>  (1) 
0.536140263

$$$$
