
     RDKit          3D

 33 35  0  0  1  0  0  0  0  0999 V2000
   38.1450   29.3920   42.9870 C   0  0  0  0  0  0  0  0  0  0  0  0
   37.5040   28.4070   43.7420 C   0  0  0  0  0  0  0  0  0  0  0  0
   36.6560   27.5400   43.0580 C   0  0  0  0  0  0  0  0  0  0  0  0
   36.5100   27.7060   41.7270 N   0  0  0  0  0  0  0  0  0  0  0  0
   37.1430   28.6690   41.0170 C   0  0  0  0  0  0  0  0  0  0  0  0
   37.9650   29.5130   41.6680 N   0  0  0  0  0  0  0  0  0  0  0  0
   36.9180   28.7540   39.6200 N   0  0  0  0  0  0  0  0  0  0  0  0
   35.7490   28.0330   39.1070 C   0  0  0  0  0  0  0  0  0  0  0  0
   35.6410   28.1750   37.6150 C   0  0  0  0  0  0  0  0  0  0  0  0
   35.9280   29.5420   37.3110 N   0  0  0  0  0  0  0  0  0  0  0  0
   37.3660   29.7230   37.4170 C   0  0  0  0  0  0  0  0  0  0  0  0
   37.8470   29.5330   38.8240 C   0  0  1  0  0  0  0  0  0  0  0  0
   38.1840   30.8140   39.4880 C   0  0  0  0  0  0  0  0  0  0  0  0
   37.2680   31.8420   39.7720 C   0  0  0  0  0  0  0  0  0  0  0  0
   37.6530   33.0100   40.3940 C   0  0  0  0  0  0  0  0  0  0  0  0
   38.9390   33.1810   40.7420 N   0  0  0  0  0  0  0  0  0  0  0  0
   39.8300   32.2170   40.4810 C   0  0  0  0  0  0  0  0  0  0  0  0
   39.4490   31.1040   39.8870 N   0  0  0  0  0  0  0  0  0  0  0  0
   41.1580   32.3480   40.8200 O   0  0  0  0  0  0  0  0  0  0  0  0
   38.8223   30.0934   43.4962 H   0  0  0  0  0  0  0  0  0  0  0  0
   37.6619   28.3203   44.8271 H   0  0  0  0  0  0  0  0  0  0  0  0
   36.1189   26.7403   43.5891 H   0  0  0  0  0  0  0  0  0  0  0  0
   35.8439   26.9669   39.3610 H   0  0  0  0  0  0  0  0  0  0  0  0
   34.8449   28.4595   39.5661 H   0  0  0  0  0  0  0  0  0  0  0  0
   36.3674   27.5154   37.1178 H   0  0  0  0  0  0  0  0  0  0  0  0
   34.6380   27.8932   37.2621 H   0  0  0  0  0  0  0  0  0  0  0  0
   35.4460   30.1593   37.9800 H   0  0  0  0  0  0  0  0  0  0  0  0
   37.8663   28.9899   36.7673 H   0  0  0  0  0  0  0  0  0  0  0  0
   37.6056   30.7514   37.1089 H   0  0  0  0  0  0  0  0  0  0  0  0
   38.7803   28.9555   38.7498 H   0  0  0  0  0  0  0  0  0  0  0  0
   36.2131   31.7102   39.4895 H   0  0  0  0  0  0  0  0  0  0  0  0
   36.9128   33.7962   40.6039 H   0  0  0  0  0  0  0  0  0  0  0  0
   41.7955   31.6188   40.6149 H   0  0  0  0  0  0  0  0  0  0  0  0
  1  2  2  0
  3  2  1  0
  4  3  2  0
  5  6  2  0
  5  4  1  0
  6  1  1  0
  7  5  1  0
  8  7  1  0
  9  8  1  0
 10 11  1  0
 10  9  1  0
 11 12  1  0
 12 13  1  0
 12  7  1  0
 13 14  2  0
 13 18  1  0
 14 15  1  0
 15 16  2  0
 17 16  1  0
 17 19  1  0
 18 17  2  0
  1 20  1  0
  2 21  1  0
  3 22  1  0
  8 23  1  0
  8 24  1  0
  9 25  1  0
  9 26  1  0
 10 27  1  0
 11 28  1  0
 11 29  1  0
 12 30  1  6
 14 31  1  0
 15 32  1  0
 19 33  1  0
M  ISO  8  20  14  21  14  22  14  23  13  24  13  25  13  26  13  27   5
M  ISO  6  28  13  29  13  30  13  31  14  32  14  33   3
M  END
>  <minimizedAffinity>  (1) 
-4.89701843

>  <minimizedRMSD>  (1) 
0.113361865

$$$$
