
     RDKit          3D

 46 49  0  0  1  0  0  0  0  0999 V2000
   38.7890   29.9660   42.3730 C   0  0  0  0  0  0  0  0  0  0  0  0
   38.4120   29.0140   43.3470 C   0  0  0  0  0  0  0  0  0  0  0  0
   37.5050   28.0540   42.9770 C   0  0  0  0  0  0  0  0  0  0  0  0
   37.0300   28.0740   41.7140 N   0  0  0  0  0  0  0  0  0  0  0  0
   37.3950   28.9920   40.7810 C   0  0  0  0  0  0  0  0  0  0  0  0
   38.2870   29.9370   41.1440 N   0  0  0  0  0  0  0  0  0  0  0  0
   36.8280   28.9180   39.4750 N   0  0  0  0  0  0  0  0  0  0  0  0
   35.6380   28.0890   39.3300 C   0  0  0  0  0  0  0  0  0  0  0  0
   35.1480   28.0890   37.9010 C   0  0  0  0  0  0  0  0  0  0  0  0
   35.2370   29.4490   37.4440 N   0  0  0  0  0  0  0  0  0  0  0  0
   36.6510   29.6960   37.1640 C   0  0  0  0  0  0  0  0  0  0  0  0
   37.4780   29.6650   38.4290 C   0  0  1  0  0  0  0  0  0  0  0  0
   37.8760   31.0140   38.8670 C   0  0  0  0  0  0  0  0  0  0  0  0
   37.0440   31.9210   39.5340 C   0  0  0  0  0  0  0  0  0  0  0  0
   37.4640   33.1700   39.9230 C   0  0  0  0  0  0  0  0  0  0  0  0
   38.7250   33.5500   39.6570 N   0  0  0  0  0  0  0  0  0  0  0  0
   39.5470   32.7050   39.0210 C   0  0  0  0  0  0  0  0  0  0  0  0
   39.1190   31.5080   38.6560 N   0  0  0  0  0  0  0  0  0  0  0  0
   40.9670   33.0530   38.6870 C   0  0  0  0  0  0  0  0  0  0  0  0
   41.5990   33.6540   39.8420 N   0  0  0  0  0  0  0  0  0  0  0  0
   41.4030   34.9840   40.0190 C   0  0  0  0  0  0  0  0  0  0  0  0
   41.9320   35.7110   41.0640 C   0  0  0  0  0  0  0  0  0  0  0  0
   42.6940   35.0180   41.9600 C   0  0  0  0  0  0  0  0  0  0  0  0
   43.2930   35.6380   43.0750 N   0  0  0  0  0  0  0  0  0  0  0  0
   42.8990   33.6880   41.7980 N   0  0  0  0  0  0  0  0  0  0  0  0
   42.3610   33.0180   40.7580 C   0  0  0  0  0  0  0  0  0  0  0  0
   42.5150   31.7830   40.5540 O   0  0  0  0  0  0  0  0  0  0  0  0
   39.5147   30.7487   42.6389 H   0  0  0  0  0  0  0  0  0  0  0  0
   38.8304   29.0419   44.3640 H   0  0  0  0  0  0  0  0  0  0  0  0
   37.1730   27.2868   43.6920 H   0  0  0  0  0  0  0  0  0  0  0  0
   35.8797   27.0579   39.6272 H   0  0  0  0  0  0  0  0  0  0  0  0
   34.8449   28.4997   39.9721 H   0  0  0  0  0  0  0  0  0  0  0  0
   35.7809   27.4368   37.2813 H   0  0  0  0  0  0  0  0  0  0  0  0
   34.1175   27.7106   37.8317 H   0  0  0  0  0  0  0  0  0  0  0  0
   34.6767   29.5754   36.5890 H   0  0  0  0  0  0  0  0  0  0  0  0
   37.0202   28.9211   36.4761 H   0  0  0  0  0  0  0  0  0  0  0  0
   36.7451   30.6952   36.7136 H   0  0  0  0  0  0  0  0  0  0  0  0
   38.4094   29.1308   38.1902 H   0  0  0  0  0  0  0  0  0  0  0  0
   36.0094   31.6208   39.7562 H   0  0  0  0  0  0  0  0  0  0  0  0
   36.7761   33.8507   40.4459 H   0  0  0  0  0  0  0  0  0  0  0  0
   41.5117   32.1402   38.4040 H   0  0  0  0  0  0  0  0  0  0  0  0
   40.9835   33.7638   37.8477 H   0  0  0  0  0  0  0  0  0  0  0  0
   40.7830   35.5162   39.2826 H   0  0  0  0  0  0  0  0  0  0  0  0
   41.7500   36.7906   41.1701 H   0  0  0  0  0  0  0  0  0  0  0  0
   43.8615   35.0821   43.7297 H   0  0  0  0  0  0  0  0  0  0  0  0
   43.1623   36.6470   43.2351 H   0  0  0  0  0  0  0  0  0  0  0  0
  1  2  2  0
  3  2  1  0
  4  3  2  0
  5  6  2  0
  5  4  1  0
  6  1  1  0
  7  5  1  0
  8  7  1  0
  9  8  1  0
 10  9  1  0
 11 10  1  0
 11 12  1  0
 12 13  1  0
 12  7  1  0
 13 14  2  0
 14 15  1  0
 16 15  2  0
 17 16  1  0
 18 13  1  0
 18 17  2  0
 19 17  1  0
 19 20  1  0
 20 21  1  0
 20 26  1  0
 21 22  2  0
 22 23  1  0
 23 24  1  0
 25 23  2  0
 26 25  1  0
 27 26  2  0
  1 28  1  0
  2 29  1  0
  3 30  1  0
  8 31  1  0
  8 32  1  0
  9 33  1  0
  9 34  1  0
 10 35  1  0
 11 36  1  0
 11 37  1  0
 12 38  1  6
 14 39  1  0
 15 40  1  0
 19 41  1  0
 19 42  1  0
 21 43  1  0
 22 44  1  0
 24 45  1  0
 24 46  1  0
M  ISO  8  28  14  29  14  30  14  31  13  32  13  33  13  34  13  35   5
M  ISO  8  36  13  37  13  38  13  39  14  40  14  41   8  42   8  43  14
M  ISO  1  44  14
M  END
>  <minimizedAffinity>  (1) 
-6.099123

>  <minimizedRMSD>  (1) 
2.50412798

$$$$
