
     RDKit          3D

 45 48  0  0  1  0  0  0  0  0999 V2000
   38.2090   29.6230   42.6460 C   0  0  0  0  0  0  0  0  0  0  0  0
   37.6230   28.6550   43.4860 C   0  0  0  0  0  0  0  0  0  0  0  0
   36.7530   27.7540   42.9010 C   0  0  0  0  0  0  0  0  0  0  0  0
   36.5260   27.8600   41.5720 N   0  0  0  0  0  0  0  0  0  0  0  0
   37.1000   28.7980   40.7780 C   0  0  0  0  0  0  0  0  0  0  0  0
   37.9490   29.6820   41.3430 N   0  0  0  0  0  0  0  0  0  0  0  0
   36.7810   28.8100   39.3870 N   0  0  0  0  0  0  0  0  0  0  0  0
   35.5980   28.0560   38.9780 C   0  0  0  0  0  0  0  0  0  0  0  0
   35.4060   28.1250   37.4820 C   0  0  0  0  0  0  0  0  0  0  0  0
   35.6210   29.5120   37.1320 N   0  0  0  0  0  0  0  0  0  0  0  0
   37.0850   29.6920   37.1230 C   0  0  0  0  0  0  0  0  0  0  0  0
   37.6500   29.5610   38.5180 C   0  0  1  0  0  0  0  0  0  0  0  0
   38.0370   30.8610   39.0890 C   0  0  0  0  0  0  0  0  0  0  0  0
   37.1200   31.8450   39.5190 C   0  0  0  0  0  0  0  0  0  0  0  0
   37.5310   33.0470   40.0470 C   0  0  0  0  0  0  0  0  0  0  0  0
   38.8480   33.2980   40.1590 N   0  0  0  0  0  0  0  0  0  0  0  0
   39.7320   32.3940   39.7650 C   0  0  0  0  0  0  0  0  0  0  0  0
   39.3200   31.2410   39.2590 N   0  0  0  0  0  0  0  0  0  0  0  0
   41.2170   32.5860   39.8530 C   0  0  0  0  0  0  0  0  0  0  0  0
   41.7460   32.1190   41.1180 N   0  0  0  0  0  0  0  0  0  0  0  0
   41.4750   30.9000   41.6170 C   0  0  0  0  0  0  0  0  0  0  0  0
   42.0570   30.6020   42.8400 C   0  0  0  0  0  0  0  0  0  0  0  0
   42.8810   31.4900   43.5390 C   0  0  0  0  0  0  0  0  0  0  0  0
   43.3820   31.1600   44.6480 O   0  0  0  0  0  0  0  0  0  0  0  0
   43.0980   32.6910   42.9610 N   0  0  0  0  0  0  0  0  0  0  0  0
   42.5350   32.9990   41.7620 C   0  0  0  0  0  0  0  0  0  0  0  0
   42.8120   34.1600   41.3180 O   0  0  0  0  0  0  0  0  0  0  0  0
   38.9049   30.3544   43.0827 H   0  0  0  0  0  0  0  0  0  0  0  0
   37.8484   28.6179   44.5620 H   0  0  0  0  0  0  0  0  0  0  0  0
   36.2597   26.9736   43.4990 H   0  0  0  0  0  0  0  0  0  0  0  0
   35.7197   27.0046   39.2774 H   0  0  0  0  0  0  0  0  0  0  0  0
   34.7153   28.4947   39.4663 H   0  0  0  0  0  0  0  0  0  0  0  0
   36.1361   27.4810   36.9699 H   0  0  0  0  0  0  0  0  0  0  0  0
   34.4071   27.7766   37.1807 H   0  0  0  0  0  0  0  0  0  0  0  0
   35.2275   29.7140   36.2018 H   0  0  0  0  0  0  0  0  0  0  0  0
   37.5386   28.9261   36.4768 H   0  0  0  0  0  0  0  0  0  0  0  0
   37.3143   30.6984   36.7427 H   0  0  0  0  0  0  0  0  0  0  0  0
   38.5785   28.9779   38.4296 H   0  0  0  0  0  0  0  0  0  0  0  0
   36.0423   31.6439   39.4289 H   0  0  0  0  0  0  0  0  0  0  0  0
   36.7921   33.7936   40.3735 H   0  0  0  0  0  0  0  0  0  0  0  0
   41.6974   32.0254   39.0375 H   0  0  0  0  0  0  0  0  0  0  0  0
   41.4279   33.6625   39.7708 H   0  0  0  0  0  0  0  0  0  0  0  0
   40.8308   30.1828   41.0873 H   0  0  0  0  0  0  0  0  0  0  0  0
   41.8601   29.6149   43.2838 H   0  0  0  0  0  0  0  0  0  0  0  0
   43.6973   33.3823   43.4341 H   0  0  0  0  0  0  0  0  0  0  0  0
  1  2  2  0
  3  2  1  0
  4  3  2  0
  5  6  2  0
  5  4  1  0
  6  1  1  0
  7  5  1  0
  8  7  1  0
  9  8  1  0
 10  9  1  0
 11 10  1  0
 11 12  1  0
 12 13  1  0
 12  7  1  0
 13 18  1  0
 13 14  2  0
 14 15  1  0
 15 16  2  0
 17 19  1  0
 17 16  1  0
 18 17  2  0
 19 20  1  0
 20 21  1  0
 20 26  1  0
 21 22  2  0
 22 23  1  0
 23 24  2  0
 25 23  1  0
 26 25  1  0
 27 26  2  0
  1 28  1  0
  2 29  1  0
  3 30  1  0
  8 31  1  0
  8 32  1  0
  9 33  1  0
  9 34  1  0
 10 35  1  0
 11 36  1  0
 11 37  1  0
 12 38  1  6
 14 39  1  0
 15 40  1  0
 19 41  1  0
 19 42  1  0
 21 43  1  0
 22 44  1  0
 25 45  1  0
M  ISO  8  28  14  29  14  30  14  31  13  32  13  33  13  34  13  35   5
M  ISO  8  36  13  37  13  38  13  39  14  40  14  41   8  42   8  43  14
M  ISO  2  44  14  45   9
M  END
>  <minimizedAffinity>  (1) 
-6.02938414

>  <minimizedRMSD>  (1) 
0.935995936

$$$$
