
     RDKit          3D

 45 49  0  0  1  0  0  0  0  0999 V2000
   37.9060   30.1380   39.5800 C   0  0  1  0  0  0  0  0  0  0  0  0
   37.2980   30.1890   38.1520 C   0  0  0  0  0  0  0  0  0  0  0  0
   35.8730   29.7260   38.4350 C   0  0  0  0  0  0  0  0  0  0  0  0
   35.9040   28.9790   39.7460 C   0  0  0  0  0  0  0  0  0  0  0  0
   37.3910   28.8250   40.0490 C   0  0  2  0  0  0  0  0  0  0  0  0
   40.6590   34.8390   39.7050 C   0  0  0  0  0  0  0  0  0  0  0  0
   39.3960   35.3570   40.0840 C   0  0  0  0  0  0  0  0  0  0  0  0
   38.3760   34.4530   40.3120 C   0  0  0  0  0  0  0  0  0  0  0  0
   38.6490   33.1310   40.1610 N   0  0  0  0  0  0  0  0  0  0  0  0
   39.8230   32.6450   39.8090 C   0  0  0  0  0  0  0  0  0  0  0  0
   40.8470   33.5130   39.5770 N   0  0  0  0  0  0  0  0  0  0  0  0
   40.1440   31.2710   39.6360 N   0  0  0  0  0  0  0  0  0  0  0  0
   41.4330   30.9600   39.5570 N   0  0  0  0  0  0  0  0  0  0  0  0
   41.5370   29.6070   39.3790 C   0  0  0  0  0  0  0  0  0  0  0  0
   40.2270   29.1420   39.3560 C   0  0  0  0  0  0  0  0  0  0  0  0
   39.3550   30.2130   39.5210 C   0  0  0  0  0  0  0  0  0  0  0  0
   37.5220   28.5870   41.4580 N   0  0  0  0  0  0  0  0  0  0  0  0
   37.3950   29.4530   42.4560 N   0  0  0  0  0  0  0  0  0  0  0  0
   37.5850   28.8720   43.6520 C   0  0  0  0  0  0  0  0  0  0  0  0
   37.8490   27.5490   43.3740 C   0  0  0  0  0  0  0  0  0  0  0  0
   37.8070   27.3820   41.9900 C   0  0  0  0  0  0  0  0  0  0  0  0
   38.0360   26.0670   41.4060 C   0  0  0  0  0  0  0  0  0  0  0  0
   37.1700   25.0200   41.6270 C   0  0  0  0  0  0  0  0  0  0  0  0
   37.2950   23.7460   41.1250 C   0  0  0  0  0  0  0  0  0  0  0  0
   38.3550   23.4740   40.3430 N   0  0  0  0  0  0  0  0  0  0  0  0
   39.2240   24.4710   40.1050 C   0  0  0  0  0  0  0  0  0  0  0  0
   39.0510   25.6890   40.6200 N   0  0  0  0  0  0  0  0  0  0  0  0
   37.6361   30.9679   40.2497 H   0  0  0  0  0  0  0  0  0  0  0  0
   37.8178   29.5045   37.4654 H   0  0  0  0  0  0  0  0  0  0  0  0
   37.3701   31.1701   37.6597 H   0  0  0  0  0  0  0  0  0  0  0  0
   35.2017   30.5941   38.5106 H   0  0  0  0  0  0  0  0  0  0  0  0
   35.5014   29.0816   37.6247 H   0  0  0  0  0  0  0  0  0  0  0  0
   35.4017   29.5559   40.5365 H   0  0  0  0  0  0  0  0  0  0  0  0
   35.3805   28.0129   39.6949 H   0  0  0  0  0  0  0  0  0  0  0  0
   37.9355   27.9952   39.5748 H   0  0  0  0  0  0  0  0  0  0  0  0
   41.4947   35.5282   39.5134 H   0  0  0  0  0  0  0  0  0  0  0  0
   39.2332   36.4394   40.1928 H   0  0  0  0  0  0  0  0  0  0  0  0
   37.3726   34.7939   40.6071 H   0  0  0  0  0  0  0  0  0  0  0  0
   42.4584   29.0151   39.2763 H   0  0  0  0  0  0  0  0  0  0  0  0
   39.9271   28.0915   39.2274 H   0  0  0  0  0  0  0  0  0  0  0  0
   37.5395   29.3503   44.6415 H   0  0  0  0  0  0  0  0  0  0  0  0
   38.0566   26.7620   44.1140 H   0  0  0  0  0  0  0  0  0  0  0  0
   36.2966   25.2213   42.2646 H   0  0  0  0  0  0  0  0  0  0  0  0
   36.5492   22.9712   41.3564 H   0  0  0  0  0  0  0  0  0  0  0  0
   40.1005   24.2776   39.4691 H   0  0  0  0  0  0  0  0  0  0  0  0
  1  5  1  0
  2  3  1  0
  2  1  1  0
  3  4  1  0
  4  5  1  0
  5 17  1  0
  6  7  2  0
  7  8  1  0
  9  8  2  0
 10  9  1  0
 11  6  1  0
 11 10  2  0
 12 10  1  0
 13 12  1  0
 14 13  2  0
 15 14  1  0
 15 16  2  0
 16  1  1  0
 16 12  1  0
 17 21  1  0
 17 18  1  0
 18 19  2  0
 20 19  1  0
 21 20  2  0
 22 23  2  0
 22 21  1  0
 24 23  1  0
 25 24  2  0
 26 25  1  0
 26 27  2  0
 27 22  1  0
  1 28  1  1
  2 29  1  0
  2 30  1  0
  3 31  1  0
  3 32  1  0
  4 33  1  0
  4 34  1  0
  5 35  1  6
  6 36  1  0
  7 37  1  0
  8 38  1  0
 14 39  1  0
 15 40  1  0
 19 41  1  0
 20 42  1  0
 23 43  1  0
 24 44  1  0
 26 45  1  0
M  ISO  8  28  13  29  13  30  13  31  13  32  13  33  13  34  13  35  13
M  ISO  8  36  14  37  14  38  14  39  14  40  14  41  14  42  14  43  14
M  ISO  2  44  14  45  14
M  END
>  <minimizedAffinity>  (1) 
-6.28797674

>  <minimizedRMSD>  (1) 
1.14934254

$$$$
