
     RDKit          3D

 41 44  0  0  1  0  0  0  0  0999 V2000
   38.1850   29.5570   42.7730 C   0  0  0  0  0  0  0  0  0  0  0  0
   37.5840   28.5800   43.5880 C   0  0  0  0  0  0  0  0  0  0  0  0
   36.7310   27.6870   42.9860 C   0  0  0  0  0  0  0  0  0  0  0  0
   36.5200   27.7980   41.6530 N   0  0  0  0  0  0  0  0  0  0  0  0
   37.1060   28.7480   40.8700 C   0  0  0  0  0  0  0  0  0  0  0  0
   37.9370   29.6150   41.4650 N   0  0  0  0  0  0  0  0  0  0  0  0
   36.8130   28.7730   39.4790 N   0  0  0  0  0  0  0  0  0  0  0  0
   35.6290   28.0110   39.0560 C   0  0  0  0  0  0  0  0  0  0  0  0
   35.4380   28.1200   37.5650 C   0  0  0  0  0  0  0  0  0  0  0  0
   35.6890   29.4880   37.2190 N   0  0  0  0  0  0  0  0  0  0  0  0
   37.1370   29.6670   37.2360 C   0  0  0  0  0  0  0  0  0  0  0  0
   37.6900   29.5320   38.6250 C   0  0  1  0  0  0  0  0  0  0  0  0
   38.0590   30.8320   39.2220 C   0  0  0  0  0  0  0  0  0  0  0  0
   37.1360   31.8450   39.5670 C   0  0  0  0  0  0  0  0  0  0  0  0
   37.5240   33.0390   40.1210 C   0  0  0  0  0  0  0  0  0  0  0  0
   38.8330   33.2510   40.3450 N   0  0  0  0  0  0  0  0  0  0  0  0
   39.7310   32.3150   40.0310 C   0  0  0  0  0  0  0  0  0  0  0  0
   39.3290   31.1810   39.5010 N   0  0  0  0  0  0  0  0  0  0  0  0
   41.1950   32.4880   40.2530 C   0  0  0  0  0  0  0  0  0  0  0  0
   41.8290   33.1200   39.1380 N   0  0  0  0  0  0  0  0  0  0  0  0
   41.4560   33.2550   37.8520 C   0  0  0  0  0  0  0  0  0  0  0  0
   42.4080   33.9420   37.1830 N   0  0  0  0  0  0  0  0  0  0  0  0
   43.3850   34.2360   38.0700 C   0  0  0  0  0  0  0  0  0  0  0  0
   43.0030   33.7250   39.2420 N   0  0  0  0  0  0  0  0  0  0  0  0
   38.8729   30.2871   43.2244 H   0  0  0  0  0  0  0  0  0  0  0  0
   37.7896   28.5330   44.6676 H   0  0  0  0  0  0  0  0  0  0  0  0
   36.2318   26.9014   43.5722 H   0  0  0  0  0  0  0  0  0  0  0  0
   35.7627   26.9535   39.3278 H   0  0  0  0  0  0  0  0  0  0  0  0
   34.7418   28.4221   39.5600 H   0  0  0  0  0  0  0  0  0  0  0  0
   36.1462   27.4602   37.0424 H   0  0  0  0  0  0  0  0  0  0  0  0
   34.4221   27.8167   37.2720 H   0  0  0  0  0  0  0  0  0  0  0  0
   35.2459   30.1147   37.9059 H   0  0  0  0  0  0  0  0  0  0  0  0
   37.5993   28.9050   36.5913 H   0  0  0  0  0  0  0  0  0  0  0  0
   37.3647   30.6790   36.8699 H   0  0  0  0  0  0  0  0  0  0  0  0
   38.6263   28.9620   38.5327 H   0  0  0  0  0  0  0  0  0  0  0  0
   36.0655   31.6697   39.3845 H   0  0  0  0  0  0  0  0  0  0  0  0
   36.7794   33.8072   40.3767 H   0  0  0  0  0  0  0  0  0  0  0  0
   41.3487   33.1078   41.1486 H   0  0  0  0  0  0  0  0  0  0  0  0
   41.6420   31.4912   40.3813 H   0  0  0  0  0  0  0  0  0  0  0  0
   40.5239   32.8675   37.4148 H   0  0  0  0  0  0  0  0  0  0  0  0
   44.3138   34.7887   37.8654 H   0  0  0  0  0  0  0  0  0  0  0  0
  1  2  2  0
  3  2  1  0
  4  3  2  0
  5  6  2  0
  5  4  1  0
  6  1  1  0
  7  5  1  0
  8  7  1  0
  9  8  1  0
 10 11  1  0
 10  9  1  0
 11 12  1  0
 12 13  1  0
 12  7  1  0
 13 18  1  0
 13 14  2  0
 14 15  1  0
 15 16  2  0
 17 19  1  0
 17 16  1  0
 18 17  2  0
 20 24  1  0
 20 19  1  0
 21 20  1  0
 22 21  2  0
 22 23  1  0
 23 24  2  0
  1 25  1  0
  2 26  1  0
  3 27  1  0
  8 28  1  0
  8 29  1  0
  9 30  1  0
  9 31  1  0
 10 32  1  0
 11 33  1  0
 11 34  1  0
 12 35  1  6
 14 36  1  0
 15 37  1  0
 19 38  1  0
 19 39  1  0
 21 40  1  0
 23 41  1  0
M  ISO  8  25  14  26  14  27  14  28  13  29  13  30  13  31  13  32   5
M  ISO  8  33  13  34  13  35  13  36  14  37  14  38   8  39   8  40  14
M  ISO  1  41  14
M  END
>  <minimizedAffinity>  (1) 
-5.49701166

>  <minimizedRMSD>  (1) 
0.476825714

$$$$
