
     RDKit          3D

 49 52  0  0  1  0  0  0  0  0999 V2000
   37.9820   30.3070   39.7950 C   0  0  1  0  0  0  0  0  0  0  0  0
   37.5070   30.5140   38.3300 C   0  0  0  0  0  0  0  0  0  0  0  0
   36.0460   30.0770   38.4500 C   0  0  0  0  0  0  0  0  0  0  0  0
   35.9760   29.1860   39.6630 C   0  0  0  0  0  0  0  0  0  0  0  0
   37.4170   28.9420   40.0600 C   0  0  2  0  0  0  0  0  0  0  0  0
   40.8270   34.9450   39.8860 C   0  0  0  0  0  0  0  0  0  0  0  0
   39.5450   35.5070   40.1140 C   0  0  0  0  0  0  0  0  0  0  0  0
   38.4910   34.6350   40.3030 C   0  0  0  0  0  0  0  0  0  0  0  0
   38.7490   33.3030   40.2560 N   0  0  0  0  0  0  0  0  0  0  0  0
   39.9390   32.7760   40.0440 C   0  0  0  0  0  0  0  0  0  0  0  0
   40.9870   33.6130   39.8570 N   0  0  0  0  0  0  0  0  0  0  0  0
   40.2400   31.3880   39.9800 N   0  0  0  0  0  0  0  0  0  0  0  0
   41.5310   31.0530   40.0340 N   0  0  0  0  0  0  0  0  0  0  0  0
   41.6160   29.6870   39.9420 C   0  0  0  0  0  0  0  0  0  0  0  0
   40.3030   29.2450   39.8310 C   0  0  0  0  0  0  0  0  0  0  0  0
   39.4460   30.3390   39.8580 C   0  0  0  0  0  0  0  0  0  0  0  0
   37.4170   28.5520   41.4360 N   0  0  0  0  0  0  0  0  0  0  0  0
   37.3620   29.3180   42.5180 N   0  0  0  0  0  0  0  0  0  0  0  0
   37.4070   28.5870   43.6480 C   0  0  0  0  0  0  0  0  0  0  0  0
   37.4960   27.2830   43.2210 C   0  0  0  0  0  0  0  0  0  0  0  0
   37.5000   27.2560   41.8240 C   0  0  0  0  0  0  0  0  0  0  0  0
   37.5370   25.9180   41.2740 C   0  0  0  0  0  0  0  0  0  0  0  0
   36.7800   25.6110   40.0380 C   0  0  0  0  0  0  0  0  0  0  0  0
   37.0280   24.8570   42.2790 C   0  0  0  0  0  0  0  0  0  0  0  0
   39.0230   25.5430   41.1310 C   0  0  0  0  0  0  0  0  0  0  0  0
   37.6630   31.0669   40.5235 H   0  0  0  0  0  0  0  0  0  0  0  0
   38.0654   29.8777   37.6277 H   0  0  0  0  0  0  0  0  0  0  0  0
   37.6517   31.5321   37.9393 H   0  0  0  0  0  0  0  0  0  0  0  0
   35.3947   30.9536   38.5818 H   0  0  0  0  0  0  0  0  0  0  0  0
   35.7075   29.5517   37.5448 H   0  0  0  0  0  0  0  0  0  0  0  0
   35.4307   29.6853   40.4775 H   0  0  0  0  0  0  0  0  0  0  0  0
   35.4427   28.2471   39.4533 H   0  0  0  0  0  0  0  0  0  0  0  0
   37.9848   28.1542   39.5432 H   0  0  0  0  0  0  0  0  0  0  0  0
   41.6942   35.6040   39.7322 H   0  0  0  0  0  0  0  0  0  0  0  0
   39.3958   36.5965   40.1393 H   0  0  0  0  0  0  0  0  0  0  0  0
   37.4727   35.0086   40.4862 H   0  0  0  0  0  0  0  0  0  0  0  0
   42.5284   29.0727   39.9536 H   0  0  0  0  0  0  0  0  0  0  0  0
   39.9910   28.1944   39.7366 H   0  0  0  0  0  0  0  0  0  0  0  0
   37.3788   28.9528   44.6850 H   0  0  0  0  0  0  0  0  0  0  0  0
   37.5547   26.4008   43.8755 H   0  0  0  0  0  0  0  0  0  0  0  0
   35.7909   25.2099   40.3039 H   0  0  0  0  0  0  0  0  0  0  0  0
   36.6560   26.5299   39.4462 H   0  0  0  0  0  0  0  0  0  0  0  0
   37.3311   24.8653   39.4462 H   0  0  0  0  0  0  0  0  0  0  0  0
   37.1987   25.2129   43.3058 H   0  0  0  0  0  0  0  0  0  0  0  0
   35.9520   24.6905   42.1228 H   0  0  0  0  0  0  0  0  0  0  0  0
   37.5715   23.9135   42.1228 H   0  0  0  0  0  0  0  0  0  0  0  0
   39.4704   25.4301   42.1295 H   0  0  0  0  0  0  0  0  0  0  0  0
   39.1105   24.5946   40.5806 H   0  0  0  0  0  0  0  0  0  0  0  0
   39.5500   26.3363   40.5806 H   0  0  0  0  0  0  0  0  0  0  0  0
  1 16  1  0
  1  5  1  0
  2  3  1  0
  2  1  1  0
  3  4  1  0
  4  5  1  0
  5 17  1  0
  6  7  2  0
  7  8  1  0
  9  8  2  0
 10  9  1  0
 11  6  1  0
 11 10  2  0
 12 13  1  0
 12 10  1  0
 14 13  2  0
 15 16  2  0
 15 14  1  0
 16 12  1  0
 17 21  1  0
 17 18  1  0
 18 19  2  0
 20 19  1  0
 21 20  2  0
 22 21  1  0
 22 24  1  0
 23 22  1  0
 25 22  1  0
  1 26  1  1
  2 27  1  0
  2 28  1  0
  3 29  1  0
  3 30  1  0
  4 31  1  0
  4 32  1  0
  5 33  1  6
  6 34  1  0
  7 35  1  0
  8 36  1  0
 14 37  1  0
 15 38  1  0
 19 39  1  0
 20 40  1  0
 23 41  1  0
 23 42  1  0
 23 43  1  0
 24 44  1  0
 24 45  1  0
 24 46  1  0
 25 47  1  0
 25 48  1  0
 25 49  1  0
M  ISO  8  26  13  27  13  28  13  29  13  30  13  31  13  32  13  33  13
M  ISO  8  34  14  35  14  36  14  37  14  38  14  39  14  40  14  41   8
M  ISO  8  42   8  43   8  44   8  45   8  46   8  47   8  48   8  49   8
M  END
>  <minimizedAffinity>  (1) 
-6.20085049

>  <minimizedRMSD>  (1) 
0.955686033

$$$$
