
     RDKit          3D

 29 30  0  0  1  0  0  0  0  0999 V2000
   36.1180   30.0990   40.5590 C   0  0  2  0  0  0  0  0  0  0  0  0
   38.3700   29.0650   43.2790 C   0  0  0  0  0  0  0  0  0  0  0  0
   37.8740   27.7730   43.6060 C   0  0  0  0  0  0  0  0  0  0  0  0
   36.7640   27.2760   42.8730 C   0  0  0  0  0  0  0  0  0  0  0  0
   36.2450   28.0790   41.8980 N   0  0  0  0  0  0  0  0  0  0  0  0
   36.7570   29.3090   41.6250 C   0  0  0  0  0  0  0  0  0  0  0  0
   37.8040   29.8040   42.3010 N   0  0  0  0  0  0  0  0  0  0  0  0
   34.9690   29.2960   40.0040 C   0  0  0  0  0  0  0  0  0  0  0  0
   37.0270   30.5090   39.4430 C   0  0  0  0  0  0  0  0  0  0  0  0
   37.7500   31.7070   39.5830 N   0  0  0  0  0  0  0  0  0  0  0  0
   37.3110   32.9470   39.8780 C   0  0  0  0  0  0  0  0  0  0  0  0
   38.1550   34.0280   39.9900 C   0  0  0  0  0  0  0  0  0  0  0  0
   39.5150   33.8940   39.8040 C   0  0  0  0  0  0  0  0  0  0  0  0
   40.3110   34.8390   39.8940 O   0  0  0  0  0  0  0  0  0  0  0  0
   39.9520   32.6390   39.5060 N   0  0  0  0  0  0  0  0  0  0  0  0
   39.0990   31.5920   39.4020 C   0  0  0  0  0  0  0  0  0  0  0  0
   39.6530   30.4950   39.1230 O   0  0  0  0  0  0  0  0  0  0  0  0
   35.7873   31.0409   41.0210 H   0  0  0  0  0  0  0  0  0  0  0  0
   39.2301   29.4695   43.8327 H   0  0  0  0  0  0  0  0  0  0  0  0
   38.3374   27.1751   44.4047 H   0  0  0  0  0  0  0  0  0  0  0  0
   36.3389   26.2833   43.0823 H   0  0  0  0  0  0  0  0  0  0  0  0
   34.3766   28.8820   40.8333 H   0  0  0  0  0  0  0  0  0  0  0  0
   34.3315   29.9462   39.3869 H   0  0  0  0  0  0  0  0  0  0  0  0
   35.3605   28.4739   39.3869 H   0  0  0  0  0  0  0  0  0  0  0  0
   36.4099   30.6040   38.5374 H   0  0  0  0  0  0  0  0  0  0  0  0
   37.7986   29.7255   39.4171 H   0  0  0  0  0  0  0  0  0  0  0  0
   36.2333   33.1010   40.0357 H   0  0  0  0  0  0  0  0  0  0  0  0
   37.7376   35.0165   40.2322 H   0  0  0  0  0  0  0  0  0  0  0  0
   40.9587   32.4817   39.3556 H   0  0  0  0  0  0  0  0  0  0  0  0
  1  6  1  0
  2  3  2  0
  4  3  1  0
  5  4  2  0
  6  5  1  0
  6  7  2  0
  7  2  1  0
  8  1  1  0
  9 10  1  0
  9  1  1  0
 10 11  1  0
 11 12  2  0
 13 14  2  0
 13 12  1  0
 15 13  1  0
 16 15  1  0
 16 10  1  0
 17 16  2  0
  1 18  1  1
  2 19  1  0
  3 20  1  0
  4 21  1  0
  8 22  1  0
  8 23  1  0
  8 24  1  0
  9 25  1  0
  9 26  1  0
 11 27  1  0
 12 28  1  0
 15 29  1  0
M  ISO  8  18   8  19  14  20  14  21  14  22   8  23   8  24   8  25   8
M  ISO  4  26   8  27  14  28  14  29   9
M  END
>  <minimizedAffinity>  (1) 
-4.85443926

>  <minimizedRMSD>  (1) 
0.628511608

$$$$
