
     RDKit          3D

 29 30  0  0  1  0  0  0  0  0999 V2000
   36.1280   30.1100   40.4700 C   0  0  2  0  0  0  0  0  0  0  0  0
   38.3090   29.1460   43.2660 C   0  0  0  0  0  0  0  0  0  0  0  0
   37.8050   27.8570   43.6000 C   0  0  0  0  0  0  0  0  0  0  0  0
   36.7190   27.3410   42.8430 C   0  0  0  0  0  0  0  0  0  0  0  0
   36.2290   28.1220   41.8420 N   0  0  0  0  0  0  0  0  0  0  0  0
   36.7530   29.3550   41.5660 C   0  0  0  0  0  0  0  0  0  0  0  0
   37.7700   29.8420   42.2710 N   0  0  0  0  0  0  0  0  0  0  0  0
   34.9450   29.3430   39.9450 C   0  0  0  0  0  0  0  0  0  0  0  0
   37.0660   30.4810   39.3570 C   0  0  0  0  0  0  0  0  0  0  0  0
   37.8200   31.7220   39.5520 C   0  0  0  0  0  0  0  0  0  0  0  0
   37.3690   32.9780   39.8910 C   0  0  0  0  0  0  0  0  0  0  0  0
   38.1770   34.0630   40.0310 C   0  0  0  0  0  0  0  0  0  0  0  0
   39.5190   33.9210   39.8270 C   0  0  0  0  0  0  0  0  0  0  0  0
   40.0280   32.6780   39.4830 C   0  0  0  0  0  0  0  0  0  0  0  0
   39.1960   31.5790   39.3440 C   0  0  0  0  0  0  0  0  0  0  0  0
   35.8024   31.0704   40.8962 H   0  0  0  0  0  0  0  0  0  0  0  0
   39.1501   29.5683   43.8354 H   0  0  0  0  0  0  0  0  0  0  0  0
   38.2453   27.2753   44.4233 H   0  0  0  0  0  0  0  0  0  0  0  0
   36.2916   26.3504   43.0573 H   0  0  0  0  0  0  0  0  0  0  0  0
   34.3530   28.9592   40.7889 H   0  0  0  0  0  0  0  0  0  0  0  0
   34.3199   30.0081   39.3311 H   0  0  0  0  0  0  0  0  0  0  0  0
   35.2971   28.5009   39.3311 H   0  0  0  0  0  0  0  0  0  0  0  0
   36.4737   30.5860   38.4360 H   0  0  0  0  0  0  0  0  0  0  0  0
   37.8155   29.6770   39.3144 H   0  0  0  0  0  0  0  0  0  0  0  0
   36.2901   33.1119   40.0587 H   0  0  0  0  0  0  0  0  0  0  0  0
   37.7549   35.0412   40.3048 H   0  0  0  0  0  0  0  0  0  0  0  0
   40.1910   34.7852   39.9346 H   0  0  0  0  0  0  0  0  0  0  0  0
   41.1094   32.5627   39.3179 H   0  0  0  0  0  0  0  0  0  0  0  0
   39.6151   30.5992   39.0715 H   0  0  0  0  0  0  0  0  0  0  0  0
  1  6  1  0
  2  3  2  0
  4  3  1  0
  5  4  2  0
  6  5  1  0
  6  7  2  0
  7  2  1  0
  8  1  1  0
  9 10  1  0
  9  1  1  0
 10 11  2  0
 11 12  1  0
 13 12  2  0
 14 13  1  0
 15 14  2  0
 15 10  1  0
  1 16  1  1
  2 17  1  0
  3 18  1  0
  4 19  1  0
  8 20  1  0
  8 21  1  0
  8 22  1  0
  9 23  1  0
  9 24  1  0
 11 25  1  0
 12 26  1  0
 13 27  1  0
 14 28  1  0
 15 29  1  0
M  ISO  8  16   8  17  14  18  14  19  14  20   8  21   8  22   8  23   8
M  ISO  6  24   8  25  14  26  14  27  14  28  14  29  14
M  END
>  <minimizedAffinity>  (1) 
-4.66383362

>  <minimizedRMSD>  (1) 
0.568826199

$$$$
