
     RDKit          3D

 28 29  0  0  1  0  0  0  0  0999 V2000
   36.0970   29.9350   40.5860 C   0  0  2  0  0  0  0  0  0  0  0  0
   37.9430   28.6420   43.4880 C   0  0  0  0  0  0  0  0  0  0  0  0
   37.8380   27.2360   43.3070 C   0  0  0  0  0  0  0  0  0  0  0  0
   37.1250   26.7520   42.1790 C   0  0  0  0  0  0  0  0  0  0  0  0
   36.5940   27.6920   41.3520 N   0  0  0  0  0  0  0  0  0  0  0  0
   36.7220   29.0190   41.5690 C   0  0  0  0  0  0  0  0  0  0  0  0
   37.3810   29.5030   42.6110 N   0  0  0  0  0  0  0  0  0  0  0  0
   34.9300   29.2390   39.9380 C   0  0  0  0  0  0  0  0  0  0  0  0
   37.0280   30.5010   39.5700 C   0  0  0  0  0  0  0  0  0  0  0  0
   37.7250   31.7200   39.9340 C   0  0  0  0  0  0  0  0  0  0  0  0
   37.0470   32.8080   39.3620 C   0  0  0  0  0  0  0  0  0  0  0  0
   37.4710   34.1260   39.5300 C   0  0  0  0  0  0  0  0  0  0  0  0
   38.5970   34.3830   40.2840 C   0  0  0  0  0  0  0  0  0  0  0  0
   39.2350   33.3000   40.8280 C   0  0  0  0  0  0  0  0  0  0  0  0
   38.8100   32.0470   40.6530 N   0  0  0  0  0  0  0  0  0  0  0  0
   35.7558   30.8154   41.1504 H   0  0  0  0  0  0  0  0  0  0  0  0
   38.4910   29.0359   44.3567 H   0  0  0  0  0  0  0  0  0  0  0  0
   38.2981   26.5399   44.0237 H   0  0  0  0  0  0  0  0  0  0  0  0
   37.0084   25.6756   41.9845 H   0  0  0  0  0  0  0  0  0  0  0  0
   34.2624   28.8408   40.7163 H   0  0  0  0  0  0  0  0  0  0  0  0
   34.3774   29.9552   39.3121 H   0  0  0  0  0  0  0  0  0  0  0  0
   35.2975   28.4124   39.3121 H   0  0  0  0  0  0  0  0  0  0  0  0
   36.4437   30.7095   38.6616 H   0  0  0  0  0  0  0  0  0  0  0  0
   37.8156   29.7434   39.4451 H   0  0  0  0  0  0  0  0  0  0  0  0
   36.1478   32.6138   38.7588 H   0  0  0  0  0  0  0  0  0  0  0  0
   36.9129   34.9524   39.0657 H   0  0  0  0  0  0  0  0  0  0  0  0
   38.9647   35.4078   40.4408 H   0  0  0  0  0  0  0  0  0  0  0  0
   40.1363   33.4702   41.4352 H   0  0  0  0  0  0  0  0  0  0  0  0
  1  6  1  0
  3  2  2  0
  4  3  1  0
  5  6  1  0
  5  4  2  0
  6  7  2  0
  7  2  1  0
  8  1  1  0
  9 10  1  0
  9  1  1  0
 10 15  2  0
 11 12  2  0
 11 10  1  0
 12 13  1  0
 13 14  2  0
 15 14  1  0
  1 16  1  1
  2 17  1  0
  3 18  1  0
  4 19  1  0
  8 20  1  0
  8 21  1  0
  8 22  1  0
  9 23  1  0
  9 24  1  0
 11 25  1  0
 12 26  1  0
 13 27  1  0
 14 28  1  0
M  ISO  8  16   8  17  14  18  14  19  14  20   8  21   8  22   8  23   8
M  ISO  5  24   8  25  14  26  14  27  14  28  14
M  END
>  <minimizedAffinity>  (1) 
-4.61984062

>  <minimizedRMSD>  (1) 
0.685377836

$$$$
