
     RDKit          3D

 26 27  0  0  1  0  0  0  0  0999 V2000
   35.9310   30.1500   40.8100 C   0  0  2  0  0  0  0  0  0  0  0  0
   38.5120   29.0010   43.1690 C   0  0  0  0  0  0  0  0  0  0  0  0
   38.1160   27.6550   43.4140 C   0  0  0  0  0  0  0  0  0  0  0  0
   36.9560   27.1640   42.7590 C   0  0  0  0  0  0  0  0  0  0  0  0
   36.2980   28.0210   41.9360 N   0  0  0  0  0  0  0  0  0  0  0  0
   36.7200   29.3040   41.7360 C   0  0  0  0  0  0  0  0  0  0  0  0
   37.8120   29.7880   42.3430 N   0  0  0  0  0  0  0  0  0  0  0  0
   35.0030   29.2730   40.0270 C   0  0  0  0  0  0  0  0  0  0  0  0
   36.7570   31.0310   39.9240 C   0  0  0  0  0  0  0  0  0  0  0  0
   37.4560   30.3100   38.8400 C   0  0  0  0  0  0  0  0  0  0  0  0
   38.3500   29.2990   38.6400 C   0  0  0  0  0  0  0  0  0  0  0  0
   38.5710   29.1420   37.2960 C   0  0  0  0  0  0  0  0  0  0  0  0
   37.8030   30.0650   36.7130 N   0  0  0  0  0  0  0  0  0  0  0  0
   37.1180   30.7870   37.6060 N   0  0  0  0  0  0  0  0  0  0  0  0
   35.3519   30.8587   41.4203 H   0  0  0  0  0  0  0  0  0  0  0  0
   39.4079   29.4004   43.6668 H   0  0  0  0  0  0  0  0  0  0  0  0
   38.6944   27.0120   44.0937 H   0  0  0  0  0  0  0  0  0  0  0  0
   36.6049   26.1328   42.9117 H   0  0  0  0  0  0  0  0  0  0  0  0
   34.3818   28.6859   40.7194 H   0  0  0  0  0  0  0  0  0  0  0  0
   34.3559   29.8973   39.3933 H   0  0  0  0  0  0  0  0  0  0  0  0
   35.5897   28.5917   39.3933 H   0  0  0  0  0  0  0  0  0  0  0  0
   36.0944   31.7817   39.4685 H   0  0  0  0  0  0  0  0  0  0  0  0
   37.5345   31.4806   40.5591 H   0  0  0  0  0  0  0  0  0  0  0  0
   38.8210   28.7018   39.4347 H   0  0  0  0  0  0  0  0  0  0  0  0
   39.2353   28.4151   36.8058 H   0  0  0  0  0  0  0  0  0  0  0  0
   37.7448   30.2048   35.6942 H   0  0  0  0  0  0  0  0  0  0  0  0
  1  6  1  0
  2  3  2  0
  4  3  1  0
  5  4  2  0
  6  5  1  0
  6  7  2  0
  7  2  1  0
  8  1  1  0
  9  1  1  0
 10  9  1  0
 11 10  1  0
 12 11  2  0
 13 12  1  0
 13 14  1  0
 14 10  2  0
  1 15  1  1
  2 16  1  0
  3 17  1  0
  4 18  1  0
  8 19  1  0
  8 20  1  0
  8 21  1  0
  9 22  1  0
  9 23  1  0
 11 24  1  0
 12 25  1  0
 13 26  1  0
M  ISO  8  15   8  16  14  17  14  18  14  19   8  20   8  21   8  22   8
M  ISO  4  23   8  24  14  25  14  26   9
M  END
>  <minimizedAffinity>  (1) 
-4.02838373

>  <minimizedRMSD>  (1) 
1.18257761

$$$$
