
     RDKit          3D

 26 27  0  0  1  0  0  0  0  0999 V2000
   36.1180   30.1310   40.8820 C   0  0  2  0  0  0  0  0  0  0  0  0
   38.6810   28.8100   43.1660 C   0  0  0  0  0  0  0  0  0  0  0  0
   38.1610   27.5190   43.4750 C   0  0  0  0  0  0  0  0  0  0  0  0
   36.9280   27.1230   42.8940 C   0  0  0  0  0  0  0  0  0  0  0  0
   36.3250   28.0250   42.0660 N   0  0  0  0  0  0  0  0  0  0  0  0
   36.8590   29.2350   41.8040 C   0  0  0  0  0  0  0  0  0  0  0  0
   38.0240   29.6240   42.3480 N   0  0  0  0  0  0  0  0  0  0  0  0
   35.0910   29.3190   40.1580 C   0  0  0  0  0  0  0  0  0  0  0  0
   37.0020   30.8760   39.9110 C   0  0  0  0  0  0  0  0  0  0  0  0
   37.1890   32.3110   40.2810 C   0  0  0  0  0  0  0  0  0  0  0  0
   38.5530   32.9140   39.8280 C   0  0  0  0  0  0  0  0  0  0  0  0
   37.2430   33.3370   39.2070 C   0  0  0  0  0  0  0  0  0  0  0  0
   35.6401   30.9144   41.4886 H   0  0  0  0  0  0  0  0  0  0  0  0
   39.6342   29.1344   43.6088 H   0  0  0  0  0  0  0  0  0  0  0  0
   38.7050   26.8427   44.1508 H   0  0  0  0  0  0  0  0  0  0  0  0
   36.4812   26.1393   43.1005 H   0  0  0  0  0  0  0  0  0  0  0  0
   34.4456   28.8087   40.8881 H   0  0  0  0  0  0  0  0  0  0  0  0
   34.4791   29.9802   39.5268 H   0  0  0  0  0  0  0  0  0  0  0  0
   35.5932   28.5711   39.5268 H   0  0  0  0  0  0  0  0  0  0  0  0
   36.5450   30.8276   38.9116 H   0  0  0  0  0  0  0  0  0  0  0  0
   37.9922   30.3975   39.9310 H   0  0  0  0  0  0  0  0  0  0  0  0
   36.6088   32.2250   41.2116 H   0  0  0  0  0  0  0  0  0  0  0  0
   39.1030   33.6015   40.4874 H   0  0  0  0  0  0  0  0  0  0  0  0
   39.5095   32.5151   39.4594 H   0  0  0  0  0  0  0  0  0  0  0  0
   36.8517   34.3465   39.4011 H   0  0  0  0  0  0  0  0  0  0  0  0
   36.8681   33.3785   38.1737 H   0  0  0  0  0  0  0  0  0  0  0  0
  1  6  1  0
  2  3  2  0
  4  3  1  0
  5  4  2  0
  6  5  1  0
  6  7  2  0
  7  2  1  0
  8  1  1  0
  9 10  1  0
  9  1  1  0
 11 10  1  0
 12 11  1  0
 12 10  1  0
  1 13  1  1
  2 14  1  0
  3 15  1  0
  4 16  1  0
  8 17  1  0
  8 18  1  0
  8 19  1  0
  9 20  1  0
  9 21  1  0
 10 22  1  0
 11 23  1  0
 11 24  1  0
 12 25  1  0
 12 26  1  0
M  ISO  8  13   8  14  14  15  14  16  14  17   8  18   8  19   8  20   8
M  ISO  6  21   8  22  13  23  13  24  13  25  13  26  13
M  END
>  <minimizedAffinity>  (1) 
-3.9660728

>  <minimizedRMSD>  (1) 
2.01862669

$$$$
