
     RDKit          3D

 29 30  0  0  1  0  0  0  0  0999 V2000
   37.7420   28.1470   43.6410 C   0  0  2  0  0  0  0  0  0  0  0  0
   39.4430   24.9870   42.8360 C   0  0  0  0  0  0  0  0  0  0  0  0
   38.4050   24.2620   42.1510 C   0  0  0  0  0  0  0  0  0  0  0  0
   37.1550   24.8900   41.9910 C   0  0  0  0  0  0  0  0  0  0  0  0
   37.0110   26.1540   42.5010 N   0  0  0  0  0  0  0  0  0  0  0  0
   38.0450   26.7890   43.1470 C   0  0  0  0  0  0  0  0  0  0  0  0
   39.2350   26.2360   43.3190 N   0  0  0  0  0  0  0  0  0  0  0  0
   36.7080   28.0860   44.7070 C   0  0  0  0  0  0  0  0  0  0  0  0
   37.3920   29.1340   42.5360 C   0  0  0  0  0  0  0  0  0  0  0  0
   38.4730   30.0350   42.2460 N   0  0  0  0  0  0  0  0  0  0  0  0
   39.6690   30.1740   42.7470 N   0  0  0  0  0  0  0  0  0  0  0  0
   40.3960   31.1410   42.1980 C   0  0  0  0  0  0  0  0  0  0  0  0
   39.6330   31.7300   41.2260 C   0  0  0  0  0  0  0  0  0  0  0  0
   38.4480   31.0120   41.2910 C   0  0  0  0  0  0  0  0  0  0  0  0
   37.3720   31.3870   40.3620 C   0  0  0  0  0  0  0  0  0  0  0  0
   36.9690   32.5450   40.0910 O   0  0  0  0  0  0  0  0  0  0  0  0
   36.5990   30.5210   39.6090 O   0  0  0  0  0  0  0  0  0  0  0  0
   38.6667   28.5481   44.0816 H   0  0  0  0  0  0  0  0  0  0  0  0
   40.4280   24.5162   42.9705 H   0  0  0  0  0  0  0  0  0  0  0  0
   38.5831   23.2478   41.7642 H   0  0  0  0  0  0  0  0  0  0  0  0
   36.3247   24.3849   41.4758 H   0  0  0  0  0  0  0  0  0  0  0  0
   37.1954   28.1148   45.6927 H   0  0  0  0  0  0  0  0  0  0  0  0
   36.0288   28.9456   44.6086 H   0  0  0  0  0  0  0  0  0  0  0  0
   36.1346   27.1525   44.6086 H   0  0  0  0  0  0  0  0  0  0  0  0
   37.1467   28.5708   41.6235 H   0  0  0  0  0  0  0  0  0  0  0  0
   36.5370   29.7345   42.8801 H   0  0  0  0  0  0  0  0  0  0  0  0
   41.4241   31.4180   42.4743 H   0  0  0  0  0  0  0  0  0  0  0  0
   39.8945   32.5649   40.5593 H   0  0  0  0  0  0  0  0  0  0  0  0
   35.8959   30.8781   39.0104 H   0  0  0  0  0  0  0  0  0  0  0  0
  1  8  1  0
  2  7  2  0
  3  2  1  0
  4  3  2  0
  4  5  1  0
  5  6  2  0
  6  7  1  0
  6  1  1  0
  9  1  1  0
 10  9  1  0
 10 11  1  0
 12 11  2  0
 13 14  2  0
 13 12  1  0
 14 10  1  0
 15 14  1  0
 16 15  2  0
 17 15  1  0
  1 18  1  1
  2 19  1  0
  3 20  1  0
  4 21  1  0
  8 22  1  0
  8 23  1  0
  8 24  1  0
  9 25  1  0
  9 26  1  0
 12 27  1  0
 13 28  1  0
 17 29  1  0
M  ISO  8  18   8  19  14  20  14  21  14  22   8  23   8  24   8  25   8
M  ISO  4  26   8  27  14  28  14  29   3
M  END
>  <minimizedAffinity>  (1) 
-4.55799532

>  <minimizedRMSD>  (1) 
3.32314754

$$$$
