
     RDKit          3D

 35 36  0  0  1  0  0  0  0  0999 V2000
   39.3210   30.9790   41.6140 C   0  0  2  0  0  0  0  0  0  0  0  0
   38.5320   34.2980   40.2280 C   0  0  0  0  0  0  0  0  0  0  0  0
   39.8440   34.8280   39.9990 C   0  0  0  0  0  0  0  0  0  0  0  0
   40.9600   34.0380   40.3250 C   0  0  0  0  0  0  0  0  0  0  0  0
   40.7240   32.7940   40.8510 N   0  0  0  0  0  0  0  0  0  0  0  0
   39.4400   32.3400   41.0480 C   0  0  0  0  0  0  0  0  0  0  0  0
   38.3560   33.0560   40.7520 N   0  0  0  0  0  0  0  0  0  0  0  0
   40.5060   30.1710   41.2210 C   0  0  0  0  0  0  0  0  0  0  0  0
   37.9980   30.3010   41.2710 C   0  0  0  0  0  0  0  0  0  0  0  0
   37.7120   29.1980   42.1670 N   0  0  0  0  0  0  0  0  0  0  0  0
   37.5290   29.1250   43.4520 N   0  0  0  0  0  0  0  0  0  0  0  0
   37.2830   27.9010   43.9090 C   0  0  0  0  0  0  0  0  0  0  0  0
   37.2990   27.0490   42.8240 C   0  0  0  0  0  0  0  0  0  0  0  0
   37.5710   27.9070   41.7670 C   0  0  0  0  0  0  0  0  0  0  0  0
   37.6810   27.3820   40.3560 C   0  0  0  0  0  0  0  0  0  0  0  0
   39.1020   26.8500   40.1310 C   0  0  0  0  0  0  0  0  0  0  0  0
   36.6550   26.3350   40.0670 C   0  0  0  0  0  0  0  0  0  0  0  0
   39.3082   31.0638   42.7107 H   0  0  0  0  0  0  0  0  0  0  0  0
   37.6517   34.9072   39.9752 H   0  0  0  0  0  0  0  0  0  0  0  0
   39.9751   35.8348   39.5758 H   0  0  0  0  0  0  0  0  0  0  0  0
   41.9847   34.4042   40.1641 H   0  0  0  0  0  0  0  0  0  0  0  0
   41.0246   29.8174   42.1243 H   0  0  0  0  0  0  0  0  0  0  0  0
   40.1790   29.3069   40.6240 H   0  0  0  0  0  0  0  0  0  0  0  0
   41.1909   30.7910   40.6240 H   0  0  0  0  0  0  0  0  0  0  0  0
   37.1879   31.0413   41.3472 H   0  0  0  0  0  0  0  0  0  0  0  0
   38.0726   29.9016   40.2488 H   0  0  0  0  0  0  0  0  0  0  0  0
   37.1007   27.6200   44.9568 H   0  0  0  0  0  0  0  0  0  0  0  0
   37.1367   25.9613   42.8019 H   0  0  0  0  0  0  0  0  0  0  0  0
   37.4844   28.2067   39.6552 H   0  0  0  0  0  0  0  0  0  0  0  0
   39.5841   26.6695   41.1031 H   0  0  0  0  0  0  0  0  0  0  0  0
   39.0555   25.9084   39.5643 H   0  0  0  0  0  0  0  0  0  0  0  0
   39.6853   27.5906   39.5643 H   0  0  0  0  0  0  0  0  0  0  0  0
   36.2628   25.9348   41.0136 H   0  0  0  0  0  0  0  0  0  0  0  0
   35.8319   26.7783   39.4873 H   0  0  0  0  0  0  0  0  0  0  0  0
   37.1149   25.5211   39.4873 H   0  0  0  0  0  0  0  0  0  0  0  0
  2  7  2  0
  3  2  1  0
  3  4  2  0
  4  5  1  0
  5  6  2  0
  6  1  1  0
  7  6  1  0
  8  1  1  0
  9  1  1  0
  9 10  1  0
 10 11  1  0
 11 12  2  0
 13 12  1  0
 14 10  1  0
 14 13  2  0
 15 14  1  0
 16 15  1  0
 17 15  1  0
  1 18  1  1
  2 19  1  0
  3 20  1  0
  4 21  1  0
  8 22  1  0
  8 23  1  0
  8 24  1  0
  9 25  1  0
  9 26  1  0
 12 27  1  0
 13 28  1  0
 15 29  1  0
 16 30  1  0
 16 31  1  0
 16 32  1  0
 17 33  1  0
 17 34  1  0
 17 35  1  0
M  ISO  8  18   8  19  14  20  14  21  14  22   8  23   8  24   8  25   8
M  ISO  8  26   8  27  14  28  14  29   8  30   8  31   8  32   8  33   8
M  ISO  2  34   8  35   8
M  END
>  <minimizedAffinity>  (1) 
-4.21519327

>  <minimizedRMSD>  (1) 
6.00418234

$$$$
