
     RDKit          3D

 44 48  0  0  1  0  0  0  0  0999 V2000
   37.7020   29.9990   39.5630 C   0  0  1  0  0  0  0  0  0  0  0  0
   37.0100   29.9760   38.1780 C   0  0  0  0  0  0  0  0  0  0  0  0
   35.5990   29.5670   38.5890 C   0  0  0  0  0  0  0  0  0  0  0  0
   35.7190   28.8700   39.9270 C   0  0  0  0  0  0  0  0  0  0  0  0
   37.2300   28.6870   40.1230 C   0  0  2  0  0  0  0  0  0  0  0  0
   40.6150   34.5850   39.6490 C   0  0  0  0  0  0  0  0  0  0  0  0
   39.4120   35.1260   40.1320 C   0  0  0  0  0  0  0  0  0  0  0  0
   38.3680   34.2430   40.4100 C   0  0  0  0  0  0  0  0  0  0  0  0
   38.5950   32.9220   40.1930 N   0  0  0  0  0  0  0  0  0  0  0  0
   39.7230   32.4170   39.7400 C   0  0  0  0  0  0  0  0  0  0  0  0
   40.7470   33.2620   39.4650 N   0  0  0  0  0  0  0  0  0  0  0  0
   39.9910   31.0430   39.4920 N   0  0  0  0  0  0  0  0  0  0  0  0
   41.2600   30.7050   39.3090 N   0  0  0  0  0  0  0  0  0  0  0  0
   41.3100   29.3520   39.0690 C   0  0  0  0  0  0  0  0  0  0  0  0
   39.9880   28.9120   39.1210 C   0  0  0  0  0  0  0  0  0  0  0  0
   39.1610   30.0120   39.3940 C   0  0  0  0  0  0  0  0  0  0  0  0
   37.4480   28.5110   41.5270 N   0  0  0  0  0  0  0  0  0  0  0  0
   37.3860   29.4230   42.4940 N   0  0  0  0  0  0  0  0  0  0  0  0
   37.6470   28.8970   43.6970 C   0  0  0  0  0  0  0  0  0  0  0  0
   37.8880   27.5620   43.4570 C   0  0  0  0  0  0  0  0  0  0  0  0
   37.7590   27.3280   42.0890 C   0  0  0  0  0  0  0  0  0  0  0  0
   37.9810   25.9660   41.6570 C   0  0  0  0  0  0  0  0  0  0  0  0
   38.9580   25.3950   40.8870 C   0  0  0  0  0  0  0  0  0  0  0  0
   38.7420   24.0570   40.7170 N   0  0  0  0  0  0  0  0  0  0  0  0
   37.5950   23.7520   41.3910 C   0  0  0  0  0  0  0  0  0  0  0  0
   37.1950   24.9100   41.9210 N   0  0  0  0  0  0  0  0  0  0  0  0
   37.4718   30.8701   40.1940 H   0  0  0  0  0  0  0  0  0  0  0  0
   37.4690   29.2366   37.5053 H   0  0  0  0  0  0  0  0  0  0  0  0
   37.0719   30.9191   37.6152 H   0  0  0  0  0  0  0  0  0  0  0  0
   34.9585   30.4565   38.6813 H   0  0  0  0  0  0  0  0  0  0  0  0
   35.1451   28.9042   37.8376 H   0  0  0  0  0  0  0  0  0  0  0  0
   35.2940   29.4907   40.7296 H   0  0  0  0  0  0  0  0  0  0  0  0
   35.1722   27.9159   39.9552 H   0  0  0  0  0  0  0  0  0  0  0  0
   37.7388   27.8333   39.6515 H   0  0  0  0  0  0  0  0  0  0  0  0
   41.4582   35.2530   39.4190 H   0  0  0  0  0  0  0  0  0  0  0  0
   39.2969   36.2091   40.2859 H   0  0  0  0  0  0  0  0  0  0  0  0
   37.4002   34.6025   40.7896 H   0  0  0  0  0  0  0  0  0  0  0  0
   42.2060   28.7437   38.8762 H   0  0  0  0  0  0  0  0  0  0  0  0
   39.6500   27.8758   38.9728 H   0  0  0  0  0  0  0  0  0  0  0  0
   37.6651   29.4173   44.6660 H   0  0  0  0  0  0  0  0  0  0  0  0
   38.1398   26.8077   44.2170 H   0  0  0  0  0  0  0  0  0  0  0  0
   39.8096   25.9443   40.4591 H   0  0  0  0  0  0  0  0  0  0  0  0
   37.1081   22.7695   41.4781 H   0  0  0  0  0  0  0  0  0  0  0  0
   36.3421   24.9880   42.4931 H   0  0  0  0  0  0  0  0  0  0  0  0
  1  5  1  0
  2  3  1  0
  2  1  1  0
  3  4  1  0
  4  5  1  0
  5 17  1  0
  6  7  2  0
  7  8  1  0
  9  8  2  0
 10  9  1  0
 11  6  1  0
 11 10  2  0
 12 10  1  0
 13 12  1  0
 14 15  1  0
 14 13  2  0
 15 16  2  0
 16 12  1  0
 16  1  1  0
 17 21  1  0
 17 18  1  0
 18 19  2  0
 20 19  1  0
 21 20  2  0
 22 26  1  0
 22 21  1  0
 23 22  2  0
 24 23  1  0
 24 25  2  0
 25 26  1  0
  1 27  1  1
  2 28  1  0
  2 29  1  0
  3 30  1  0
  3 31  1  0
  4 32  1  0
  4 33  1  0
  5 34  1  6
  6 35  1  0
  7 36  1  0
  8 37  1  0
 14 38  1  0
 15 39  1  0
 19 40  1  0
 20 41  1  0
 23 42  1  0
 25 43  1  0
 26 44  1  0
M  ISO  8  27  13  28  13  29  13  30  13  31  13  32  13  33  13  34  13
M  ISO  8  35  14  36  14  37  14  38  14  39  14  40  14  41  14  42  14
M  ISO  2  43  14  44   9
M  END
>  <minimizedAffinity>  (1) 
-6.02099371

>  <minimizedRMSD>  (1) 
1.26063347

$$$$
