
     RDKit          3D

 30 31  0  0  1  0  0  0  0  0999 V2000
   36.0860   29.8740   40.5190 C   0  0  2  0  0  0  0  0  0  0  0  0
   37.9990   28.6820   43.4170 C   0  0  0  0  0  0  0  0  0  0  0  0
   38.0180   27.2560   43.1740 C   0  0  0  0  0  0  0  0  0  0  0  0
   37.3770   26.7550   42.0300 C   0  0  0  0  0  0  0  0  0  0  0  0
   36.7710   27.6780   41.2180 N   0  0  0  0  0  0  0  0  0  0  0  0
   36.7860   29.0270   41.5020 C   0  0  0  0  0  0  0  0  0  0  0  0
   37.3760   29.5390   42.5640 N   0  0  0  0  0  0  0  0  0  0  0  0
   34.7700   29.3110   40.1780 C   0  0  0  0  0  0  0  0  0  0  0  0
   36.9360   30.1550   39.2720 C   0  0  0  0  0  0  0  0  0  0  0  0
   38.3260   30.3910   39.6010 N   0  0  0  0  0  0  0  0  0  0  0  0
   39.3600   29.5820   39.6070 N   0  0  0  0  0  0  0  0  0  0  0  0
   40.5000   30.1630   39.9710 C   0  0  0  0  0  0  0  0  0  0  0  0
   40.2310   31.4740   40.2360 C   0  0  0  0  0  0  0  0  0  0  0  0
   38.8610   31.5660   39.9910 C   0  0  0  0  0  0  0  0  0  0  0  0
   38.1530   32.8190   40.1570 C   0  0  0  0  0  0  0  0  0  0  0  0
   38.4660   33.7390   40.9640 O   0  0  0  0  0  0  0  0  0  0  0  0
   36.9900   33.2110   39.4320 N   0  0  0  0  0  0  0  0  0  0  0  0
   35.9167   30.8510   40.9953 H   0  0  0  0  0  0  0  0  0  0  0  0
   38.4994   29.0820   44.3112 H   0  0  0  0  0  0  0  0  0  0  0  0
   38.5260   26.5760   43.8736 H   0  0  0  0  0  0  0  0  0  0  0  0
   37.3619   25.6799   41.7978 H   0  0  0  0  0  0  0  0  0  0  0  0
   34.2211   29.0762   41.1019 H   0  0  0  0  0  0  0  0  0  0  0  0
   34.1993   30.0437   39.5886 H   0  0  0  0  0  0  0  0  0  0  0  0
   34.9058   28.3922   39.5886 H   0  0  0  0  0  0  0  0  0  0  0  0
   36.5361   31.0447   38.7635 H   0  0  0  0  0  0  0  0  0  0  0  0
   36.8879   29.2682   38.6229 H   0  0  0  0  0  0  0  0  0  0  0  0
   41.4827   29.6743   40.0450 H   0  0  0  0  0  0  0  0  0  0  0  0
   40.9237   32.2637   40.5624 H   0  0  0  0  0  0  0  0  0  0  0  0
   36.5514   34.1244   39.6169 H   0  0  0  0  0  0  0  0  0  0  0  0
   36.5883   32.5809   38.7232 H   0  0  0  0  0  0  0  0  0  0  0  0
  1  6  1  0
  3  2  2  0
  4  3  1  0
  5  6  1  0
  5  4  2  0
  6  7  2  0
  7  2  1  0
  8  1  1  0
  9 10  1  0
  9  1  1  0
 10 11  1  0
 10 14  1  0
 11 12  2  0
 12 13  1  0
 14 15  1  0
 14 13  2  0
 15 16  2  0
 17 15  1  0
  1 18  1  1
  2 19  1  0
  3 20  1  0
  4 21  1  0
  8 22  1  0
  8 23  1  0
  8 24  1  0
  9 25  1  0
  9 26  1  0
 12 27  1  0
 13 28  1  0
 17 29  1  0
 17 30  1  0
M  ISO  8  18   8  19  14  20  14  21  14  22   8  23   8  24   8  25   8
M  ISO  3  26   8  27  14  28  14
M  END
>  <minimizedAffinity>  (1) 
-4.27689171

>  <minimizedRMSD>  (1) 
0.84282577

$$$$
