
     RDKit          3D

 41 44  0  0  1  0  0  0  0  0999 V2000
   38.4200   29.8870   39.1020 N   0  0  0  0  0  0  0  0  0  0  0  0
   39.5540   29.2280   39.0850 N   0  0  0  0  0  0  0  0  0  0  0  0
   40.6240   30.0030   39.2060 C   0  0  0  0  0  0  0  0  0  0  0  0
   40.2000   31.2960   39.3120 C   0  0  0  0  0  0  0  0  0  0  0  0
   38.8040   31.1620   39.2420 C   0  0  0  0  0  0  0  0  0  0  0  0
   40.9490   32.4990   39.4600 N   0  0  0  0  0  0  0  0  0  0  0  0
   41.0550   33.6180   38.7130 C   0  0  0  0  0  0  0  0  0  0  0  0
   41.9230   34.4670   39.3240 N   0  0  0  0  0  0  0  0  0  0  0  0
   42.3650   33.8890   40.4550 C   0  0  0  0  0  0  0  0  0  0  0  0
   43.2500   34.2990   41.4500 C   0  0  0  0  0  0  0  0  0  0  0  0
   43.5160   33.4970   42.4990 N   0  0  0  0  0  0  0  0  0  0  0  0
   42.9200   32.3040   42.5710 C   0  0  0  0  0  0  0  0  0  0  0  0
   42.0570   31.8730   41.6290 N   0  0  0  0  0  0  0  0  0  0  0  0
   41.7570   32.6470   40.5510 C   0  0  0  0  0  0  0  0  0  0  0  0
   37.9490   32.3180   39.3180 C   0  0  0  0  0  0  0  0  0  0  0  0
   37.6010   32.9060   40.3860 O   0  0  0  0  0  0  0  0  0  0  0  0
   37.3580   32.9770   38.2030 N   0  0  0  0  0  0  0  0  0  0  0  0
   37.0580   29.4000   38.9950 C   0  0  0  0  0  0  0  0  0  0  0  0
   36.2530   29.6360   40.2960 C   0  0  2  0  0  0  0  0  0  0  0  0
   38.0540   28.9630   43.4220 C   0  0  0  0  0  0  0  0  0  0  0  0
   37.9420   27.5360   43.5120 C   0  0  0  0  0  0  0  0  0  0  0  0
   37.2550   26.8510   42.5050 C   0  0  0  0  0  0  0  0  0  0  0  0
   36.7280   27.6040   41.4830 N   0  0  0  0  0  0  0  0  0  0  0  0
   36.8780   28.9780   41.4640 C   0  0  0  0  0  0  0  0  0  0  0  0
   37.5140   29.6660   42.3880 N   0  0  0  0  0  0  0  0  0  0  0  0
   34.8500   29.2620   40.1530 C   0  0  0  0  0  0  0  0  0  0  0  0
   41.6700   29.6629   39.2187 H   0  0  0  0  0  0  0  0  0  0  0  0
   40.5270   33.8108   37.7674 H   0  0  0  0  0  0  0  0  0  0  0  0
   43.7346   35.2839   41.3784 H   0  0  0  0  0  0  0  0  0  0  0  0
   43.1407   31.6507   43.4281 H   0  0  0  0  0  0  0  0  0  0  0  0
   36.7573   33.8005   38.3506 H   0  0  0  0  0  0  0  0  0  0  0  0
   37.5312   32.6302   37.2487 H   0  0  0  0  0  0  0  0  0  0  0  0
   36.5574   29.9245   38.1677 H   0  0  0  0  0  0  0  0  0  0  0  0
   37.0985   28.3159   38.8128 H   0  0  0  0  0  0  0  0  0  0  0  0
   36.2772   30.7194   40.4848 H   0  0  0  0  0  0  0  0  0  0  0  0
   38.5926   29.5064   44.2124 H   0  0  0  0  0  0  0  0  0  0  0  0
   38.3880   26.9909   44.3570 H   0  0  0  0  0  0  0  0  0  0  0  0
   37.1413   25.7572   42.5297 H   0  0  0  0  0  0  0  0  0  0  0  0
   34.3992   29.1418   41.1492 H   0  0  0  0  0  0  0  0  0  0  0  0
   34.3152   30.0489   39.6010 H   0  0  0  0  0  0  0  0  0  0  0  0
   34.7779   28.3133   39.6010 H   0  0  0  0  0  0  0  0  0  0  0  0
  1  5  1  0
  2  1  1  0
  2  3  2  0
  3  4  1  0
  4  6  1  0
  5  4  2  0
  5 15  1  0
  6 14  1  0
  7  8  2  0
  7  6  1  0
  8  9  1  0
  9 14  2  0
  9 10  1  0
 10 11  2  0
 11 12  1  0
 13 12  2  0
 14 13  1  0
 15 16  2  0
 17 15  1  0
 18  1  1  0
 18 19  1  0
 19 24  1  0
 20 21  2  0
 22 21  1  0
 23 22  2  0
 24 23  1  0
 24 25  2  0
 25 20  1  0
 26 19  1  0
  3 27  1  0
  7 28  1  0
 10 29  1  0
 12 30  1  0
 17 31  1  0
 17 32  1  0
 18 33  1  0
 18 34  1  0
 19 35  1  1
 20 36  1  0
 21 37  1  0
 22 38  1  0
 26 39  1  0
 26 40  1  0
 26 41  1  0
M  ISO  8  27  14  28  14  29  14  30  14  33   8  34   8  35   8  36  14
M  ISO  5  37  14  38  14  39   8  40   8  41   8
M  END
>  <minimizedAffinity>  (1) 
-5.58680153

>  <minimizedRMSD>  (1) 
1.10808504

$$$$
