
     RDKit          3D

 44 46  0  0  1  0  0  0  0  0999 V2000
   37.7840   29.0600   39.0750 C   0  0  0  0  0  0  0  0  0  0  0  0
   38.8970   29.9750   39.2390 N   0  0  0  0  0  0  0  0  0  0  0  0
   40.0410   29.8010   39.8560 N   0  0  0  0  0  0  0  0  0  0  0  0
   40.8430   30.8650   39.8070 C   0  0  0  0  0  0  0  0  0  0  0  0
   40.1950   31.8380   39.1030 C   0  0  0  0  0  0  0  0  0  0  0  0
   38.9870   31.2260   38.7750 C   0  0  0  0  0  0  0  0  0  0  0  0
   40.6820   33.1330   38.8090 N   0  0  0  0  0  0  0  0  0  0  0  0
   40.3680   34.3160   39.5900 C   0  0  0  0  0  0  0  0  0  0  0  0
   41.3750   35.4010   39.4310 C   0  0  0  0  0  0  0  0  0  0  0  0
   42.6580   34.9020   39.0440 N   0  0  0  0  0  0  0  0  0  0  0  0
   42.5430   34.3400   37.7190 C   0  0  0  0  0  0  0  0  0  0  0  0
   41.5450   33.2310   37.6480 C   0  0  0  0  0  0  0  0  0  0  0  0
   37.9800   31.9310   38.0110 C   0  0  0  0  0  0  0  0  0  0  0  0
   36.9960   32.5560   38.5000 O   0  0  0  0  0  0  0  0  0  0  0  0
   37.9420   32.0290   36.5910 N   0  0  0  0  0  0  0  0  0  0  0  0
   36.6510   29.3340   40.0930 C   0  0  2  0  0  0  0  0  0  0  0  0
   37.6890   28.9620   43.5920 C   0  0  0  0  0  0  0  0  0  0  0  0
   37.4610   27.5600   43.8030 C   0  0  0  0  0  0  0  0  0  0  0  0
   36.9640   26.7900   42.7520 C   0  0  0  0  0  0  0  0  0  0  0  0
   36.7180   27.4300   41.5610 N   0  0  0  0  0  0  0  0  0  0  0  0
   36.9610   28.7870   41.4280 C   0  0  0  0  0  0  0  0  0  0  0  0
   37.4320   29.5550   42.3960 N   0  0  0  0  0  0  0  0  0  0  0  0
   35.3530   28.8710   39.6140 C   0  0  0  0  0  0  0  0  0  0  0  0
   37.3810   29.1703   38.0574 H   0  0  0  0  0  0  0  0  0  0  0  0
   38.1559   28.0394   39.2483 H   0  0  0  0  0  0  0  0  0  0  0  0
   41.8453   30.9442   40.2532 H   0  0  0  0  0  0  0  0  0  0  0  0
   39.3875   34.6978   39.2694 H   0  0  0  0  0  0  0  0  0  0  0  0
   40.3666   34.0205   40.6496 H   0  0  0  0  0  0  0  0  0  0  0  0
   41.0211   36.1011   38.6599 H   0  0  0  0  0  0  0  0  0  0  0  0
   41.4887   35.8983   40.4056 H   0  0  0  0  0  0  0  0  0  0  0  0
   43.3437   35.6705   39.0384 H   0  0  0  0  0  0  0  0  0  0  0  0
   42.2349   35.1357   37.0248 H   0  0  0  0  0  0  0  0  0  0  0  0
   43.5240   33.9220   37.4490 H   0  0  0  0  0  0  0  0  0  0  0  0
   40.9138   33.3911   36.7615 H   0  0  0  0  0  0  0  0  0  0  0  0
   42.1176   32.2930   37.5996 H   0  0  0  0  0  0  0  0  0  0  0  0
   38.6724   31.5756   36.0238 H   0  0  0  0  0  0  0  0  0  0  0  0
   37.1841   32.5533   36.1311 H   0  0  0  0  0  0  0  0  0  0  0  0
   36.5846   30.4272   40.1959 H   0  0  0  0  0  0  0  0  0  0  0  0
   38.0816   29.5716   44.4192 H   0  0  0  0  0  0  0  0  0  0  0  0
   37.6752   27.1003   44.7791 H   0  0  0  0  0  0  0  0  0  0  0  0
   36.7762   25.7128   42.8715 H   0  0  0  0  0  0  0  0  0  0  0  0
   34.7061   28.6402   40.4732 H   0  0  0  0  0  0  0  0  0  0  0  0
   34.8854   29.6578   39.0038 H   0  0  0  0  0  0  0  0  0  0  0  0
   35.4889   27.9659   39.0038 H   0  0  0  0  0  0  0  0  0  0  0  0
  1  2  1  0
  1 16  1  0
  2  3  1  0
  4  3  2  0
  5  4  1  0
  6  5  2  0
  6  2  1  0
  7  5  1  0
  7  8  1  0
  9  8  1  0
 10  9  1  0
 11 10  1  0
 12 11  1  0
 12  7  1  0
 13 14  2  0
 13  6  1  0
 15 13  1  0
 16 21  1  0
 17 18  2  0
 19 18  1  0
 20 19  2  0
 21 20  1  0
 21 22  2  0
 22 17  1  0
 23 16  1  0
  1 24  1  0
  1 25  1  0
  4 26  1  0
  8 27  1  0
  8 28  1  0
  9 29  1  0
  9 30  1  0
 10 31  1  0
 11 32  1  0
 11 33  1  0
 12 34  1  0
 12 35  1  0
 15 36  1  0
 15 37  1  0
 16 38  1  1
 17 39  1  0
 18 40  1  0
 19 41  1  0
 23 42  1  0
 23 43  1  0
 23 44  1  0
M  ISO  8  24   8  25   8  26  14  27  13  28  13  29  13  30  13  31   5
M  ISO  8  32  13  33  13  34  13  35  13  38   8  39  14  40  14  41  14
M  ISO  3  42   8  43   8  44   8
M  END
>  <minimizedAffinity>  (1) 
-5.53188086

>  <minimizedRMSD>  (1) 
1.8796891

$$$$
