
     RDKit          3D

 40 42  0  0  1  0  0  0  0  0999 V2000
   38.3580   29.8780   39.1700 N   0  0  0  0  0  0  0  0  0  0  0  0
   39.4850   29.2150   39.2140 N   0  0  0  0  0  0  0  0  0  0  0  0
   40.5530   29.9940   39.3950 C   0  0  0  0  0  0  0  0  0  0  0  0
   40.1040   31.2850   39.4810 C   0  0  0  0  0  0  0  0  0  0  0  0
   38.7340   31.1510   39.3350 C   0  0  0  0  0  0  0  0  0  0  0  0
   40.9750   32.4360   39.6790 C   0  0  0  0  0  0  0  0  0  0  0  0
   41.6730   32.4430   40.8860 C   0  0  0  0  0  0  0  0  0  0  0  0
   42.5490   33.4370   41.2710 C   0  0  0  0  0  0  0  0  0  0  0  0
   42.7130   34.4710   40.3750 C   0  0  0  0  0  0  0  0  0  0  0  0
   42.0460   34.5170   39.1620 C   0  0  0  0  0  0  0  0  0  0  0  0
   41.1900   33.5030   38.8310 C   0  0  0  0  0  0  0  0  0  0  0  0
   37.8590   32.3060   39.3690 C   0  0  0  0  0  0  0  0  0  0  0  0
   37.4230   32.8560   40.4220 O   0  0  0  0  0  0  0  0  0  0  0  0
   37.3600   32.9960   38.2290 N   0  0  0  0  0  0  0  0  0  0  0  0
   37.0100   29.3810   38.9860 C   0  0  0  0  0  0  0  0  0  0  0  0
   36.1420   29.5620   40.2550 C   0  0  2  0  0  0  0  0  0  0  0  0
   37.8220   28.8940   43.4440 C   0  0  0  0  0  0  0  0  0  0  0  0
   37.7640   27.4590   43.5000 C   0  0  0  0  0  0  0  0  0  0  0  0
   37.1510   26.7610   42.4430 C   0  0  0  0  0  0  0  0  0  0  0  0
   36.6440   27.5190   41.4160 N   0  0  0  0  0  0  0  0  0  0  0  0
   36.7340   28.8990   41.4270 C   0  0  0  0  0  0  0  0  0  0  0  0
   37.3020   29.5930   42.4010 N   0  0  0  0  0  0  0  0  0  0  0  0
   34.7610   29.1380   40.0410 C   0  0  0  0  0  0  0  0  0  0  0  0
   41.5993   29.6613   39.4626 H   0  0  0  0  0  0  0  0  0  0  0  0
   41.5150   31.6012   41.5762 H   0  0  0  0  0  0  0  0  0  0  0  0
   43.0827   33.4060   42.2324 H   0  0  0  0  0  0  0  0  0  0  0  0
   43.3996   35.2908   40.6329 H   0  0  0  0  0  0  0  0  0  0  0  0
   42.2030   35.3597   38.4726 H   0  0  0  0  0  0  0  0  0  0  0  0
   40.6611   33.5389   37.8672 H   0  0  0  0  0  0  0  0  0  0  0  0
   36.7411   33.8104   38.3500 H   0  0  0  0  0  0  0  0  0  0  0  0
   37.6177   32.6811   37.2828 H   0  0  0  0  0  0  0  0  0  0  0  0
   36.5410   29.9282   38.1549 H   0  0  0  0  0  0  0  0  0  0  0  0
   37.0734   28.3041   38.7709 H   0  0  0  0  0  0  0  0  0  0  0  0
   36.1200   30.6409   40.4681 H   0  0  0  0  0  0  0  0  0  0  0  0
   38.3009   29.4420   44.2688 H   0  0  0  0  0  0  0  0  0  0  0  0
   38.1918   26.9152   44.3552 H   0  0  0  0  0  0  0  0  0  0  0  0
   37.0814   25.6632   42.4395 H   0  0  0  0  0  0  0  0  0  0  0  0
   34.2690   28.9869   41.0132 H   0  0  0  0  0  0  0  0  0  0  0  0
   34.2233   29.9124   39.4743 H   0  0  0  0  0  0  0  0  0  0  0  0
   34.7505   28.1953   39.4743 H   0  0  0  0  0  0  0  0  0  0  0  0
  1  2  1  0
  1  5  1  0
  2  3  2  0
  3  4  1  0
  4  6  1  0
  5 12  1  0
  5  4  2  0
  6  7  2  0
  7  8  1  0
  9  8  2  0
 10  9  1  0
 11 10  2  0
 11  6  1  0
 12 13  2  0
 14 12  1  0
 15  1  1  0
 15 16  1  0
 16 21  1  0
 17 18  2  0
 19 18  1  0
 20 21  1  0
 20 19  2  0
 21 22  2  0
 22 17  1  0
 23 16  1  0
  3 24  1  0
  7 25  1  0
  8 26  1  0
  9 27  1  0
 10 28  1  0
 11 29  1  0
 14 30  1  0
 14 31  1  0
 15 32  1  0
 15 33  1  0
 16 34  1  1
 17 35  1  0
 18 36  1  0
 19 37  1  0
 23 38  1  0
 23 39  1  0
 23 40  1  0
M  ISO  8  24  14  25  14  26  14  27  14  28  14  29  14  32   8  33   8
M  ISO  7  34   8  35  14  36  14  37  14  38   8  39   8  40   8
M  END
>  <minimizedAffinity>  (1) 
-5.10797501

>  <minimizedRMSD>  (1) 
0.967356205

$$$$
