
     RDKit          3D

 43 45  0  0  1  0  0  0  0  0999 V2000
   37.0350   29.2540   39.0550 C   0  0  0  0  0  0  0  0  0  0  0  0
   38.3940   29.7400   39.2010 N   0  0  0  0  0  0  0  0  0  0  0  0
   39.5040   29.0610   39.3220 N   0  0  0  0  0  0  0  0  0  0  0  0
   40.5880   29.8420   39.4340 C   0  0  0  0  0  0  0  0  0  0  0  0
   40.1660   31.1400   39.3830 C   0  0  0  0  0  0  0  0  0  0  0  0
   38.7940   31.0160   39.2370 C   0  0  0  0  0  0  0  0  0  0  0  0
   41.0200   32.2730   39.4680 N   0  0  0  0  0  0  0  0  0  0  0  0
   41.9650   32.8250   38.5160 C   0  0  0  0  0  0  0  0  0  0  0  0
   41.7290   34.3050   38.3120 C   0  0  0  0  0  0  0  0  0  0  0  0
   41.5800   35.0230   39.4710 O   0  0  0  0  0  0  0  0  0  0  0  0
   40.6380   34.4970   40.3380 C   0  0  0  0  0  0  0  0  0  0  0  0
   41.0080   33.0720   40.6860 C   0  0  0  0  0  0  0  0  0  0  0  0
   37.9400   32.1850   39.1420 C   0  0  0  0  0  0  0  0  0  0  0  0
   37.4860   32.8370   40.1250 O   0  0  0  0  0  0  0  0  0  0  0  0
   37.4840   32.7750   37.9320 N   0  0  0  0  0  0  0  0  0  0  0  0
   36.1830   29.5210   40.3190 C   0  0  2  0  0  0  0  0  0  0  0  0
   37.9220   28.9700   43.5020 C   0  0  0  0  0  0  0  0  0  0  0  0
   37.7660   27.5310   43.6540 C   0  0  0  0  0  0  0  0  0  0  0  0
   37.0800   26.8140   42.6730 C   0  0  0  0  0  0  0  0  0  0  0  0
   36.5910   27.5350   41.6110 N   0  0  0  0  0  0  0  0  0  0  0  0
   36.7720   28.9040   41.5250 C   0  0  0  0  0  0  0  0  0  0  0  0
   37.4130   29.6260   42.4260 N   0  0  0  0  0  0  0  0  0  0  0  0
   34.7910   29.1200   40.1380 C   0  0  0  0  0  0  0  0  0  0  0  0
   36.5671   29.7608   38.1981 H   0  0  0  0  0  0  0  0  0  0  0  0
   37.0790   28.1659   38.8994 H   0  0  0  0  0  0  0  0  0  0  0  0
   41.6274   29.4999   39.5464 H   0  0  0  0  0  0  0  0  0  0  0  0
   42.9867   32.6727   38.8941 H   0  0  0  0  0  0  0  0  0  0  0  0
   41.8298   32.3130   37.5519 H   0  0  0  0  0  0  0  0  0  0  0  0
   42.5873   34.7168   37.7608 H   0  0  0  0  0  0  0  0  0  0  0  0
   40.7803   34.3974   37.7630 H   0  0  0  0  0  0  0  0  0  0  0  0
   40.6075   35.1019   41.2562 H   0  0  0  0  0  0  0  0  0  0  0  0
   39.6497   34.5102   39.8552 H   0  0  0  0  0  0  0  0  0  0  0  0
   40.2691   32.6606   41.3894 H   0  0  0  0  0  0  0  0  0  0  0  0
   42.0034   33.0506   41.1537 H   0  0  0  0  0  0  0  0  0  0  0  0
   36.8780   33.6074   37.9613 H   0  0  0  0  0  0  0  0  0  0  0  0
   37.7595   32.3702   37.0258 H   0  0  0  0  0  0  0  0  0  0  0  0
   36.1883   30.6098   40.4755 H   0  0  0  0  0  0  0  0  0  0  0  0
   38.4627   29.5380   44.2734 H   0  0  0  0  0  0  0  0  0  0  0  0
   38.1836   27.0151   44.5312 H   0  0  0  0  0  0  0  0  0  0  0  0
   36.9379   25.7257   42.7464 H   0  0  0  0  0  0  0  0  0  0  0  0
   34.3178   28.9837   41.1216 H   0  0  0  0  0  0  0  0  0  0  0  0
   34.2545   29.9001   39.5780 H   0  0  0  0  0  0  0  0  0  0  0  0
   34.7518   28.1740   39.5780 H   0  0  0  0  0  0  0  0  0  0  0  0
  1  2  1  0
  1 16  1  0
  2  6  1  0
  2  3  1  0
  3  4  2  0
  5  4  1  0
  5  7  1  0
  6  5  2  0
  7 12  1  0
  8  7  1  0
  9  8  1  0
  9 10  1  0
 10 11  1  0
 11 12  1  0
 13  6  1  0
 13 14  2  0
 15 13  1  0
 16 21  1  0
 17 18  2  0
 19 18  1  0
 20 19  2  0
 21 20  1  0
 21 22  2  0
 22 17  1  0
 23 16  1  0
  1 24  1  0
  1 25  1  0
  4 26  1  0
  8 27  1  0
  8 28  1  0
  9 29  1  0
  9 30  1  0
 11 31  1  0
 11 32  1  0
 12 33  1  0
 12 34  1  0
 15 35  1  0
 15 36  1  0
 16 37  1  1
 17 38  1  0
 18 39  1  0
 19 40  1  0
 23 41  1  0
 23 42  1  0
 23 43  1  0
M  ISO  8  24   8  25   8  26  14  27  13  28  13  29  13  30  13  31  13
M  ISO  8  32  13  33  13  34  13  37   8  38  14  39  14  40  14  41   8
M  ISO  2  42   8  43   8
M  END
>  <minimizedAffinity>  (1) 
-5.08490086

>  <minimizedRMSD>  (1) 
1.04576194

$$$$
