
     RDKit          3D

 33 34  0  0  1  0  0  0  0  0999 V2000
   37.1020   29.3490   39.0190 C   0  0  0  0  0  0  0  0  0  0  0  0
   38.4450   29.8740   39.1760 N   0  0  0  0  0  0  0  0  0  0  0  0
   39.5960   29.2480   39.2480 N   0  0  0  0  0  0  0  0  0  0  0  0
   40.6460   30.0550   39.3920 C   0  0  0  0  0  0  0  0  0  0  0  0
   40.1790   31.3360   39.4200 C   0  0  0  0  0  0  0  0  0  0  0  0
   38.8050   31.1650   39.2810 C   0  0  0  0  0  0  0  0  0  0  0  0
   37.9090   32.3000   39.2600 C   0  0  0  0  0  0  0  0  0  0  0  0
   37.4720   32.9050   40.2800 O   0  0  0  0  0  0  0  0  0  0  0  0
   37.3780   32.9140   38.0880 N   0  0  0  0  0  0  0  0  0  0  0  0
   40.9560   32.5690   39.5610 C   0  0  0  0  0  0  0  0  0  0  0  0
   42.3140   32.2790   39.5490 F   0  0  0  0  0  0  0  0  0  0  0  0
   40.6000   33.1530   40.7650 F   0  0  0  0  0  0  0  0  0  0  0  0
   40.6610   33.4190   38.5370 F   0  0  0  0  0  0  0  0  0  0  0  0
   36.2380   29.5840   40.2830 C   0  0  2  0  0  0  0  0  0  0  0  0
   37.9590   28.9550   43.4620 C   0  0  0  0  0  0  0  0  0  0  0  0
   37.8030   27.5270   43.5900 C   0  0  0  0  0  0  0  0  0  0  0  0
   37.1210   26.8350   42.5910 C   0  0  0  0  0  0  0  0  0  0  0  0
   36.6360   27.5710   41.5400 N   0  0  0  0  0  0  0  0  0  0  0  0
   36.8230   28.9460   41.4840 C   0  0  0  0  0  0  0  0  0  0  0  0
   37.4590   29.6430   42.3980 N   0  0  0  0  0  0  0  0  0  0  0  0
   34.8490   29.1800   40.0850 C   0  0  0  0  0  0  0  0  0  0  0  0
   36.6232   29.8475   38.1633 H   0  0  0  0  0  0  0  0  0  0  0  0
   37.1774   28.2639   38.8548 H   0  0  0  0  0  0  0  0  0  0  0  0
   41.6982   29.7447   39.4735 H   0  0  0  0  0  0  0  0  0  0  0  0
   36.7443   33.7217   38.1718 H   0  0  0  0  0  0  0  0  0  0  0  0
   37.6280   32.5499   37.1575 H   0  0  0  0  0  0  0  0  0  0  0  0
   36.2360   30.6696   40.4603 H   0  0  0  0  0  0  0  0  0  0  0  0
   38.4980   29.5052   44.2473 H   0  0  0  0  0  0  0  0  0  0  0  0
   38.2146   26.9941   44.4598 H   0  0  0  0  0  0  0  0  0  0  0  0
   36.9778   25.7456   42.6430 H   0  0  0  0  0  0  0  0  0  0  0  0
   34.3651   29.0393   41.0628 H   0  0  0  0  0  0  0  0  0  0  0  0
   34.3169   29.9606   39.5215 H   0  0  0  0  0  0  0  0  0  0  0  0
   34.8185   28.2358   39.5215 H   0  0  0  0  0  0  0  0  0  0  0  0
  1  2  1  0
  1 14  1  0
  2  3  1  0
  2  6  1  0
  3  4  2  0
  4  5  1  0
  5 10  1  0
  6  5  2  0
  7  6  1  0
  7  8  2  0
  9  7  1  0
 10 12  1  0
 11 10  1  0
 13 10  1  0
 14 19  1  0
 15 16  2  0
 17 16  1  0
 18 17  2  0
 19 18  1  0
 19 20  2  0
 20 15  1  0
 21 14  1  0
  1 22  1  0
  1 23  1  0
  4 24  1  0
  9 25  1  0
  9 26  1  0
 14 27  1  1
 15 28  1  0
 16 29  1  0
 17 30  1  0
 21 31  1  0
 21 32  1  0
 21 33  1  0
M  ISO  8  22   8  23   8  24  14  27   8  28  14  29  14  30  14  31   8
M  ISO  2  32   8  33   8
M  END
>  <minimizedAffinity>  (1) 
-4.67244387

>  <minimizedRMSD>  (1) 
0.880842149

$$$$
