
     RDKit          3D

 37 39  0  0  1  0  0  0  0  0999 V2000
   37.0900   29.3410   39.0150 C   0  0  0  0  0  0  0  0  0  0  0  0
   38.4310   29.8670   39.1590 N   0  0  0  0  0  0  0  0  0  0  0  0
   39.5840   29.2420   39.2240 N   0  0  0  0  0  0  0  0  0  0  0  0
   40.6340   30.0510   39.3590 C   0  0  0  0  0  0  0  0  0  0  0  0
   40.1670   31.3320   39.3910 C   0  0  0  0  0  0  0  0  0  0  0  0
   38.7860   31.1570   39.2630 C   0  0  0  0  0  0  0  0  0  0  0  0
   37.8960   32.2930   39.2490 C   0  0  0  0  0  0  0  0  0  0  0  0
   37.4580   32.8960   40.2690 O   0  0  0  0  0  0  0  0  0  0  0  0
   37.3690   32.9140   38.0800 N   0  0  0  0  0  0  0  0  0  0  0  0
   40.9380   32.5690   39.5260 C   0  0  0  0  0  0  0  0  0  0  0  0
   41.3070   33.2660   38.2600 C   0  0  0  0  0  0  0  0  0  0  0  0
   42.3610   32.5300   39.0530 C   0  0  0  0  0  0  0  0  0  0  0  0
   36.2310   29.5850   40.2800 C   0  0  2  0  0  0  0  0  0  0  0  0
   37.9630   28.9590   43.4590 C   0  0  0  0  0  0  0  0  0  0  0  0
   37.8170   27.5280   43.5910 C   0  0  0  0  0  0  0  0  0  0  0  0
   37.1310   26.8360   42.5890 C   0  0  0  0  0  0  0  0  0  0  0  0
   36.6410   27.5720   41.5390 N   0  0  0  0  0  0  0  0  0  0  0  0
   36.8170   28.9360   41.4780 C   0  0  0  0  0  0  0  0  0  0  0  0
   37.4540   29.6350   42.3970 N   0  0  0  0  0  0  0  0  0  0  0  0
   34.8390   29.1820   40.0930 C   0  0  0  0  0  0  0  0  0  0  0  0
   36.6064   29.8318   38.1575 H   0  0  0  0  0  0  0  0  0  0  0  0
   37.1664   28.2545   38.8612 H   0  0  0  0  0  0  0  0  0  0  0  0
   41.6871   29.7417   39.4315 H   0  0  0  0  0  0  0  0  0  0  0  0
   36.7381   33.7236   38.1668 H   0  0  0  0  0  0  0  0  0  0  0  0
   37.6189   32.5534   37.1481 H   0  0  0  0  0  0  0  0  0  0  0  0
   40.4404   32.8691   40.4600 H   0  0  0  0  0  0  0  0  0  0  0  0
   41.3165   34.3652   38.2198 H   0  0  0  0  0  0  0  0  0  0  0  0
   40.9501   33.2312   37.2201 H   0  0  0  0  0  0  0  0  0  0  0  0
   42.7883   31.5931   38.6662 H   0  0  0  0  0  0  0  0  0  0  0  0
   43.3365   32.7925   39.4883 H   0  0  0  0  0  0  0  0  0  0  0  0
   36.2345   30.6716   40.4512 H   0  0  0  0  0  0  0  0  0  0  0  0
   38.5011   29.5163   44.2400 H   0  0  0  0  0  0  0  0  0  0  0  0
   38.2352   26.9962   44.4584 H   0  0  0  0  0  0  0  0  0  0  0  0
   36.9896   25.7463   42.6397 H   0  0  0  0  0  0  0  0  0  0  0  0
   34.3622   29.0440   41.0746 H   0  0  0  0  0  0  0  0  0  0  0  0
   34.3037   29.9620   39.5318 H   0  0  0  0  0  0  0  0  0  0  0  0
   34.8032   28.2366   39.5318 H   0  0  0  0  0  0  0  0  0  0  0  0
  1  2  1  0
  1 13  1  0
  2  3  1  0
  2  6  1  0
  3  4  2  0
  4  5  1  0
  5 10  1  0
  6  5  2  0
  7  6  1  0
  7  8  2  0
  9  7  1  0
 11 12  1  0
 11 10  1  0
 12 10  1  0
 13 18  1  0
 14 15  2  0
 16 15  1  0
 17 16  2  0
 18 17  1  0
 18 19  2  0
 19 14  1  0
 20 13  1  0
  1 21  1  0
  1 22  1  0
  4 23  1  0
  9 24  1  0
  9 25  1  0
 10 26  1  0
 11 27  1  0
 11 28  1  0
 12 29  1  0
 12 30  1  0
 13 31  1  1
 14 32  1  0
 15 33  1  0
 16 34  1  0
 20 35  1  0
 20 36  1  0
 20 37  1  0
M  ISO  8  21   8  22   8  23  14  26  13  27  13  28  13  29  13  30  13
M  ISO  7  31   8  32  14  33  14  34  14  35   8  36   8  37   8
M  END
>  <minimizedAffinity>  (1) 
-4.47617102

>  <minimizedRMSD>  (1) 
0.976752877

$$$$
