
     RDKit          3D

 31 32  0  0  1  0  0  0  0  0999 V2000
   36.9480   30.1330   39.2620 C   0  0  0  0  0  0  0  0  0  0  0  0
   38.3310   30.4000   39.6010 N   0  0  0  0  0  0  0  0  0  0  0  0
   39.3670   29.5940   39.6110 N   0  0  0  0  0  0  0  0  0  0  0  0
   40.5070   30.1830   39.9790 C   0  0  0  0  0  0  0  0  0  0  0  0
   40.2290   31.4910   40.2400 C   0  0  0  0  0  0  0  0  0  0  0  0
   38.8500   31.5780   39.9900 C   0  0  0  0  0  0  0  0  0  0  0  0
   38.1380   32.8190   40.1500 C   0  0  0  0  0  0  0  0  0  0  0  0
   38.4480   33.7340   40.9670 O   0  0  0  0  0  0  0  0  0  0  0  0
   36.9810   33.2040   39.4180 N   0  0  0  0  0  0  0  0  0  0  0  0
   41.0700   32.5150   40.6550 O   0  0  0  0  0  0  0  0  0  0  0  0
   36.0820   29.8670   40.5180 C   0  0  2  0  0  0  0  0  0  0  0  0
   37.9920   28.6730   43.4150 C   0  0  0  0  0  0  0  0  0  0  0  0
   38.0130   27.2510   43.1730 C   0  0  0  0  0  0  0  0  0  0  0  0
   37.3760   26.7560   42.0360 C   0  0  0  0  0  0  0  0  0  0  0  0
   36.7670   27.6740   41.2150 N   0  0  0  0  0  0  0  0  0  0  0  0
   36.7860   29.0230   41.5080 C   0  0  0  0  0  0  0  0  0  0  0  0
   37.3710   29.5360   42.5660 N   0  0  0  0  0  0  0  0  0  0  0  0
   34.7760   29.3140   40.1740 C   0  0  0  0  0  0  0  0  0  0  0  0
   36.5395   31.0030   38.7271 H   0  0  0  0  0  0  0  0  0  0  0  0
   36.9210   29.2302   38.6342 H   0  0  0  0  0  0  0  0  0  0  0  0
   41.4921   29.6999   40.0573 H   0  0  0  0  0  0  0  0  0  0  0  0
   36.5358   34.1148   39.6001 H   0  0  0  0  0  0  0  0  0  0  0  0
   36.5882   32.5720   38.7058 H   0  0  0  0  0  0  0  0  0  0  0  0
   40.7073   33.4242   40.8027 H   0  0  0  0  0  0  0  0  0  0  0  0
   35.9059   30.8438   40.9921 H   0  0  0  0  0  0  0  0  0  0  0  0
   38.4918   29.0705   44.3106 H   0  0  0  0  0  0  0  0  0  0  0  0
   38.5216   26.5706   43.8719 H   0  0  0  0  0  0  0  0  0  0  0  0
   37.3616   25.6802   41.8068 H   0  0  0  0  0  0  0  0  0  0  0  0
   34.2228   29.0797   41.0954 H   0  0  0  0  0  0  0  0  0  0  0  0
   34.2102   30.0498   39.5836 H   0  0  0  0  0  0  0  0  0  0  0  0
   34.9106   28.3957   39.5836 H   0  0  0  0  0  0  0  0  0  0  0  0
  1  2  1  0
  1 11  1  0
  2  3  1  0
  2  6  1  0
  3  4  2  0
  4  5  1  0
  5 10  1  0
  6  7  1  0
  6  5  2  0
  7  8  2  0
  9  7  1  0
 11 16  1  0
 13 12  2  0
 14 13  1  0
 15 16  1  0
 15 14  2  0
 16 17  2  0
 17 12  1  0
 18 11  1  0
  1 19  1  0
  1 20  1  0
  4 21  1  0
  9 22  1  0
  9 23  1  0
 10 24  1  0
 11 25  1  1
 12 26  1  0
 13 27  1  0
 14 28  1  0
 18 29  1  0
 18 30  1  0
 18 31  1  0
M  ISO  8  19   8  20   8  21  14  24   3  25   8  26  14  27  14  28  14
M  ISO  3  29   8  30   8  31   8
M  END
>  <minimizedAffinity>  (1) 
-4.44994497

>  <minimizedRMSD>  (1) 
0.0151843447

$$$$
