
     RDKit          3D

 45 48  0  0  1  0  0  0  0  0999 V2000
   37.6450   30.0530   38.8380 C   0  0  1  0  0  0  0  0  0  0  0  0
   35.9350   27.3750   37.0140 C   0  0  0  0  0  0  0  0  0  0  0  0
   36.8700   27.1100   35.9530 C   0  0  0  0  0  0  0  0  0  0  0  0
   38.0480   27.8570   35.9030 C   0  0  0  0  0  0  0  0  0  0  0  0
   38.2110   28.7920   36.8830 N   0  0  0  0  0  0  0  0  0  0  0  0
   37.2890   29.0040   37.8690 C   0  0  0  0  0  0  0  0  0  0  0  0
   36.1580   28.3160   37.9550 N   0  0  0  0  0  0  0  0  0  0  0  0
   38.8480   29.6370   39.7270 C   0  0  0  0  0  0  0  0  0  0  0  0
   38.7060   28.2790   40.2400 N   0  0  0  0  0  0  0  0  0  0  0  0
   39.4060   27.2050   39.9570 N   0  0  0  0  0  0  0  0  0  0  0  0
   39.0070   26.1140   40.6150 C   0  0  0  0  0  0  0  0  0  0  0  0
   37.9640   26.4890   41.3950 C   0  0  0  0  0  0  0  0  0  0  0  0
   37.8140   27.8490   41.1270 C   0  0  0  0  0  0  0  0  0  0  0  0
   36.7940   28.6110   41.7710 C   0  0  0  0  0  0  0  0  0  0  0  0
   35.6150   28.7720   41.3760 O   0  0  0  0  0  0  0  0  0  0  0  0
   36.9750   29.3310   43.0100 N   0  0  0  0  0  0  0  0  0  0  0  0
   37.1850   25.6600   42.3040 C   0  0  0  0  0  0  0  0  0  0  0  0
   36.7460   24.5370   41.8710 O   0  0  0  0  0  0  0  0  0  0  0  0
   37.8690   31.3360   38.2040 C   0  0  0  0  0  0  0  0  0  0  0  0
   38.6520   32.2880   38.9270 N   0  0  0  0  0  0  0  0  0  0  0  0
   38.4460   32.9440   40.1080 C   0  0  0  0  0  0  0  0  0  0  0  0
   39.4810   33.7320   40.4470 N   0  0  0  0  0  0  0  0  0  0  0  0
   40.4160   33.6090   39.4780 C   0  0  0  0  0  0  0  0  0  0  0  0
   41.6360   34.2270   39.4060 C   0  0  0  0  0  0  0  0  0  0  0  0
   42.3890   33.9360   38.3320 N   0  0  0  0  0  0  0  0  0  0  0  0
   41.9060   33.0710   37.4120 C   0  0  0  0  0  0  0  0  0  0  0  0
   40.7030   32.4840   37.5160 N   0  0  0  0  0  0  0  0  0  0  0  0
   39.8940   32.7170   38.5470 C   0  0  0  0  0  0  0  0  0  0  0  0
   42.0790   35.1250   40.4120 N   0  0  0  0  0  0  0  0  0  0  0  0
   36.7750   30.1731   39.5004 H   0  0  0  0  0  0  0  0  0  0  0  0
   35.0049   26.7894   37.0597 H   0  0  0  0  0  0  0  0  0  0  0  0
   36.6613   26.3368   35.1989 H   0  0  0  0  0  0  0  0  0  0  0  0
   38.8023   27.7006   35.1178 H   0  0  0  0  0  0  0  0  0  0  0  0
   39.7689   29.6957   39.1282 H   0  0  0  0  0  0  0  0  0  0  0  0
   38.8874   30.3220   40.5868 H   0  0  0  0  0  0  0  0  0  0  0  0
   39.4408   25.1060   40.5388 H   0  0  0  0  0  0  0  0  0  0  0  0
   36.1911   29.8610   43.4169 H   0  0  0  0  0  0  0  0  0  0  0  0
   37.8879   29.3145   43.4866 H   0  0  0  0  0  0  0  0  0  0  0  0
   36.9793   25.9887   43.3334 H   0  0  0  0  0  0  0  0  0  0  0  0
   38.3755   31.1489   37.2456 H   0  0  0  0  0  0  0  0  0  0  0  0
   36.8713   31.7914   38.1194 H   0  0  0  0  0  0  0  0  0  0  0  0
   37.5341   32.8389   40.7142 H   0  0  0  0  0  0  0  0  0  0  0  0
   42.5287   32.8369   36.5360 H   0  0  0  0  0  0  0  0  0  0  0  0
   43.0019   35.5749   40.3306 H   0  0  0  0  0  0  0  0  0  0  0  0
   41.4775   35.3267   41.2234 H   0  0  0  0  0  0  0  0  0  0  0  0
  1  8  1  0
  2  7  2  0
  3  2  1  0
  4  3  2  0
  4  5  1  0
  5  6  2  0
  6  7  1  0
  6  1  1  0
  8  9  1  0
  9 13  1  0
 10  9  1  0
 10 11  2  0
 11 12  1  0
 12 17  1  0
 13 12  2  0
 13 14  1  0
 14 16  1  0
 15 14  2  0
 18 17  2  0
 19  1  1  0
 19 20  1  0
 20 21  1  0
 21 22  2  0
 23 22  1  0
 24 23  2  0
 24 29  1  0
 25 24  1  0
 26 27  1  0
 26 25  2  0
 27 28  2  0
 28 20  1  0
 28 23  1  0
  1 30  1  1
  2 31  1  0
  3 32  1  0
  4 33  1  0
  8 34  1  0
  8 35  1  0
 11 36  1  0
 16 37  1  0
 16 38  1  0
 17 39  1  0
 19 40  1  0
 19 41  1  0
 21 42  1  0
 26 43  1  0
 29 44  1  0
 29 45  1  0
M  ISO  8  30   8  31  14  32  14  33  14  34   8  35   8  36  14  39   6
M  ISO  4  40   8  41   8  42  14  43  14
M  END
>  <minimizedAffinity>  (1) 
-5.34893751

>  <minimizedRMSD>  (1) 
7.63444471

$$$$
