
     RDKit          3D

 43 46  0  0  1  0  0  0  0  0999 V2000
   38.7270   30.0610   38.6610 C   0  0  1  0  0  0  0  0  0  0  0  0
   40.9340   27.3920   37.4590 C   0  0  0  0  0  0  0  0  0  0  0  0
   40.0500   26.6880   36.5500 C   0  0  0  0  0  0  0  0  0  0  0  0
   38.7380   27.1550   36.3890 C   0  0  0  0  0  0  0  0  0  0  0  0
   38.3990   28.2590   37.1180 N   0  0  0  0  0  0  0  0  0  0  0  0
   39.2720   28.8870   37.9620 C   0  0  0  0  0  0  0  0  0  0  0  0
   40.5210   28.4810   38.1470 N   0  0  0  0  0  0  0  0  0  0  0  0
   38.6710   31.3100   37.7320 C   0  0  0  0  0  0  0  0  0  0  0  0
   39.7080   32.2760   38.0610 N   0  0  0  0  0  0  0  0  0  0  0  0
   40.8740   32.4900   37.4900 N   0  0  0  0  0  0  0  0  0  0  0  0
   41.5860   33.4660   38.0510 C   0  0  0  0  0  0  0  0  0  0  0  0
   40.8460   33.9470   39.0810 C   0  0  0  0  0  0  0  0  0  0  0  0
   39.6850   33.1760   39.0470 C   0  0  0  0  0  0  0  0  0  0  0  0
   38.6430   33.3890   39.9980 C   0  0  0  0  0  0  0  0  0  0  0  0
   38.6620   33.0810   41.2150 O   0  0  0  0  0  0  0  0  0  0  0  0
   37.3750   34.0140   39.6930 N   0  0  0  0  0  0  0  0  0  0  0  0
   41.1890   35.0220   40.0030 C   0  0  0  0  0  0  0  0  0  0  0  0
   41.9590   34.7500   40.9880 O   0  0  0  0  0  0  0  0  0  0  0  0
   37.4300   29.7980   39.2550 C   0  0  0  0  0  0  0  0  0  0  0  0
   37.3640   29.3460   40.6190 N   0  0  0  0  0  0  0  0  0  0  0  0
   37.3560   29.9500   41.8200 C   0  0  0  0  0  0  0  0  0  0  0  0
   37.2510   29.0680   42.8300 N   0  0  0  0  0  0  0  0  0  0  0  0
   37.1880   27.8210   42.2810 C   0  0  0  0  0  0  0  0  0  0  0  0
   37.0740   26.5790   42.8680 C   0  0  0  0  0  0  0  0  0  0  0  0
   37.0300   25.4920   42.0980 N   0  0  0  0  0  0  0  0  0  0  0  0
   37.0980   25.6590   40.7650 C   0  0  0  0  0  0  0  0  0  0  0  0
   37.2070   26.8780   40.2180 N   0  0  0  0  0  0  0  0  0  0  0  0
   37.2580   28.0270   40.9200 C   0  0  0  0  0  0  0  0  0  0  0  0
   39.4226   30.2817   39.4841 H   0  0  0  0  0  0  0  0  0  0  0  0
   41.9648   27.0319   37.5921 H   0  0  0  0  0  0  0  0  0  0  0  0
   40.4022   25.8045   35.9974 H   0  0  0  0  0  0  0  0  0  0  0  0
   38.0231   26.6609   35.7146 H   0  0  0  0  0  0  0  0  0  0  0  0
   37.6882   31.7916   37.8420 H   0  0  0  0  0  0  0  0  0  0  0  0
   38.8334   30.9737   36.6973 H   0  0  0  0  0  0  0  0  0  0  0  0
   42.5817   33.8146   37.7393 H   0  0  0  0  0  0  0  0  0  0  0  0
   36.6689   34.1344   40.4332 H   0  0  0  0  0  0  0  0  0  0  0  0
   37.1780   34.3388   38.7356 H   0  0  0  0  0  0  0  0  0  0  0  0
   40.7968   36.0392   39.8563 H   0  0  0  0  0  0  0  0  0  0  0  0
   36.8541   30.7334   39.1977 H   0  0  0  0  0  0  0  0  0  0  0  0
   37.0442   28.9455   38.6768 H   0  0  0  0  0  0  0  0  0  0  0  0
   37.4270   31.0387   41.9603 H   0  0  0  0  0  0  0  0  0  0  0  0
   37.0198   26.4858   43.9627 H   0  0  0  0  0  0  0  0  0  0  0  0
   37.0634   24.7762   40.1096 H   0  0  0  0  0  0  0  0  0  0  0  0
  1 19  1  0
  2  7  2  0
  3  2  1  0
  4  3  2  0
  4  5  1  0
  5  6  2  0
  6  7  1  0
  6  1  1  0
  8  9  1  0
  8  1  1  0
  9 13  1  0
 10 11  2  0
 10  9  1  0
 11 12  1  0
 12 17  1  0
 13 12  2  0
 13 14  1  0
 14 15  2  0
 16 14  1  0
 17 18  2  0
 19 20  1  0
 20 28  1  0
 20 21  1  0
 21 22  2  0
 23 22  1  0
 23 24  2  0
 25 24  1  0
 26 25  2  0
 27 26  1  0
 27 28  2  0
 28 23  1  0
  1 29  1  1
  2 30  1  0
  3 31  1  0
  4 32  1  0
  8 33  1  0
  8 34  1  0
 11 35  1  0
 16 36  1  0
 16 37  1  0
 17 38  1  0
 19 39  1  0
 19 40  1  0
 21 41  1  0
 24 42  1  0
 26 43  1  0
M  ISO  8  29   8  30  14  31  14  32  14  33   8  34   8  35  14  38   6
M  ISO  5  39   8  40   8  41  14  42  14  43  14
M  END
>  <minimizedAffinity>  (1) 
-5.08866501

>  <minimizedRMSD>  (1) 
3.98929191

$$$$
