
     RDKit          3D

 42 44  0  0  1  0  0  0  0  0999 V2000
   36.5680   29.4340   40.1740 C   0  0  1  0  0  0  0  0  0  0  0  0
   37.7560   28.9470   43.6050 C   0  0  0  0  0  0  0  0  0  0  0  0
   37.5100   27.5400   43.7940 C   0  0  0  0  0  0  0  0  0  0  0  0
   36.9500   26.8220   42.7470 C   0  0  0  0  0  0  0  0  0  0  0  0
   36.6740   27.5170   41.6030 N   0  0  0  0  0  0  0  0  0  0  0  0
   36.9310   28.8550   41.4830 C   0  0  0  0  0  0  0  0  0  0  0  0
   37.4630   29.5840   42.4500 N   0  0  0  0  0  0  0  0  0  0  0  0
   37.6350   29.1220   39.0870 C   0  0  0  0  0  0  0  0  0  0  0  0
   38.8080   29.9710   39.2170 N   0  0  0  0  0  0  0  0  0  0  0  0
   39.9570   29.7370   39.8130 N   0  0  0  0  0  0  0  0  0  0  0  0
   40.8250   30.7470   39.7410 C   0  0  0  0  0  0  0  0  0  0  0  0
   40.2140   31.7370   39.0410 C   0  0  0  0  0  0  0  0  0  0  0  0
   38.9620   31.2070   38.7370 C   0  0  0  0  0  0  0  0  0  0  0  0
   38.0160   31.9740   37.9950 C   0  0  0  0  0  0  0  0  0  0  0  0
   37.0970   32.6930   38.4640 O   0  0  0  0  0  0  0  0  0  0  0  0
   37.9700   32.0420   36.5520 N   0  0  0  0  0  0  0  0  0  0  0  0
   40.7570   33.0440   38.6970 C   0  0  0  0  0  0  0  0  0  0  0  0
   40.4380   34.0460   39.4320 O   0  0  0  0  0  0  0  0  0  0  0  0
   35.2390   29.0450   39.7400 C   0  0  0  0  0  0  0  0  0  0  0  0
   35.0810   28.3030   38.4750 C   0  0  0  0  0  0  0  0  0  0  0  0
   35.3580   27.0030   38.1120 C   0  0  0  0  0  0  0  0  0  0  0  0
   35.1270   26.5780   36.8220 C   0  0  0  0  0  0  0  0  0  0  0  0
   34.6150   27.4150   35.8390 C   0  0  0  0  0  0  0  0  0  0  0  0
   34.3320   28.7200   36.1810 C   0  0  0  0  0  0  0  0  0  0  0  0
   34.5640   29.1530   37.4860 C   0  0  0  0  0  0  0  0  0  0  0  0
   36.5474   30.5247   40.3156 H   0  0  0  0  0  0  0  0  0  0  0  0
   38.1983   29.5234   44.4309 H   0  0  0  0  0  0  0  0  0  0  0  0
   37.7600   27.0471   44.7451 H   0  0  0  0  0  0  0  0  0  0  0  0
   36.7385   25.7460   42.8335 H   0  0  0  0  0  0  0  0  0  0  0  0
   37.1886   29.2823   38.0945 H   0  0  0  0  0  0  0  0  0  0  0  0
   37.9553   28.0774   39.2146 H   0  0  0  0  0  0  0  0  0  0  0  0
   41.8392   30.7729   40.1662 H   0  0  0  0  0  0  0  0  0  0  0  0
   38.6518   31.5132   35.9895 H   0  0  0  0  0  0  0  0  0  0  0  0
   37.2554   32.6192   36.0861 H   0  0  0  0  0  0  0  0  0  0  0  0
   41.4227   33.1686   37.8303 H   0  0  0  0  0  0  0  0  0  0  0  0
   34.8126   28.4168   40.5359 H   0  0  0  0  0  0  0  0  0  0  0  0
   34.7379   30.0043   39.5436 H   0  0  0  0  0  0  0  0  0  0  0  0
   35.7652   26.3017   38.8552 H   0  0  0  0  0  0  0  0  0  0  0  0
   35.3571   25.5347   36.5603 H   0  0  0  0  0  0  0  0  0  0  0  0
   34.4404   27.0472   34.8171 H   0  0  0  0  0  0  0  0  0  0  0  0
   33.9264   29.4143   35.4304 H   0  0  0  0  0  0  0  0  0  0  0  0
   34.3339   30.1961   37.7488 H   0  0  0  0  0  0  0  0  0  0  0  0
  1  6  1  0
  2  3  2  0
  4  3  1  0
  5  4  2  0
  6  5  1  0
  6  7  2  0
  7  2  1  0
  8  9  1  0
  8  1  1  0
  9 10  1  0
 11 10  2  0
 12 11  1  0
 13 12  2  0
 13  9  1  0
 14 15  2  0
 14 13  1  0
 16 14  1  0
 17 12  1  0
 17 18  2  0
 19  1  1  0
 20 19  1  0
 21 20  2  0
 22 21  1  0
 23 24  1  0
 23 22  2  0
 24 25  2  0
 25 20  1  0
  1 26  1  1
  2 27  1  0
  3 28  1  0
  4 29  1  0
  8 30  1  0
  8 31  1  0
 11 32  1  0
 16 33  1  0
 16 34  1  0
 17 35  1  0
 19 36  1  0
 19 37  1  0
 21 38  1  0
 22 39  1  0
 23 40  1  0
 24 41  1  0
 25 42  1  0
M  ISO  8  26   8  27  14  28  14  29  14  30   8  31   8  32  14  35   6
M  ISO  7  36   8  37   8  38  14  39  14  40  14  41  14  42  14
M  END
>  <minimizedAffinity>  (1) 
-5.01822042

>  <minimizedRMSD>  (1) 
1.54720855

$$$$
