
     RDKit          3D

 39 41  0  0  1  0  0  0  0  0999 V2000
   36.5810   29.4390   40.0690 C   0  0  1  0  0  0  0  0  0  0  0  0
   38.0590   29.1530   43.4340 C   0  0  0  0  0  0  0  0  0  0  0  0
   37.5880   27.8540   43.8410 C   0  0  0  0  0  0  0  0  0  0  0  0
   36.7880   27.1260   42.9650 C   0  0  0  0  0  0  0  0  0  0  0  0
   36.4960   27.7010   41.7510 N   0  0  0  0  0  0  0  0  0  0  0  0
   36.9820   28.9580   41.4220 C   0  0  0  0  0  0  0  0  0  0  0  0
   37.7460   29.6770   42.2340 N   0  0  0  0  0  0  0  0  0  0  0  0
   37.5770   28.9800   38.9940 C   0  0  0  0  0  0  0  0  0  0  0  0
   38.8000   29.7740   38.9970 N   0  0  0  0  0  0  0  0  0  0  0  0
   39.9860   29.4680   39.4740 N   0  0  0  0  0  0  0  0  0  0  0  0
   40.8940   30.4310   39.3120 C   0  0  0  0  0  0  0  0  0  0  0  0
   40.2730   31.4530   38.6840 C   0  0  0  0  0  0  0  0  0  0  0  0
   38.9660   30.9970   38.5070 C   0  0  0  0  0  0  0  0  0  0  0  0
   37.9870   31.8130   37.8660 C   0  0  0  0  0  0  0  0  0  0  0  0
   37.1060   32.5050   38.4330 O   0  0  0  0  0  0  0  0  0  0  0  0
   37.8600   31.9710   36.4360 N   0  0  0  0  0  0  0  0  0  0  0  0
   40.8420   32.7320   38.2860 C   0  0  0  0  0  0  0  0  0  0  0  0
   40.6700   33.7370   39.0570 O   0  0  0  0  0  0  0  0  0  0  0  0
   35.2110   29.0730   39.7830 C   0  0  0  0  0  0  0  0  0  0  0  0
   34.7710   29.0490   38.3950 C   0  0  0  0  0  0  0  0  0  0  0  0
   35.2130   29.2160   37.1140 C   0  0  0  0  0  0  0  0  0  0  0  0
   34.2290   29.0710   36.2110 N   0  0  0  0  0  0  0  0  0  0  0  0
   33.1230   28.8030   36.9340 C   0  0  0  0  0  0  0  0  0  0  0  0
   33.4370   28.7880   38.2350 N   0  0  0  0  0  0  0  0  0  0  0  0
   36.6181   30.5383   40.0567 H   0  0  0  0  0  0  0  0  0  0  0  0
   38.6916   29.7326   44.1224 H   0  0  0  0  0  0  0  0  0  0  0  0
   37.8557   27.4447   44.8263 H   0  0  0  0  0  0  0  0  0  0  0  0
   36.4048   26.1305   43.2334 H   0  0  0  0  0  0  0  0  0  0  0  0
   37.0991   29.0704   38.0074 H   0  0  0  0  0  0  0  0  0  0  0  0
   37.8521   27.9378   39.2134 H   0  0  0  0  0  0  0  0  0  0  0  0
   41.9469   30.3992   39.6290 H   0  0  0  0  0  0  0  0  0  0  0  0
   38.5035   31.4739   35.8038 H   0  0  0  0  0  0  0  0  0  0  0  0
   37.1259   32.5807   36.0484 H   0  0  0  0  0  0  0  0  0  0  0  0
   41.4053   32.8313   37.3464 H   0  0  0  0  0  0  0  0  0  0  0  0
   35.0532   28.0636   40.1906 H   0  0  0  0  0  0  0  0  0  0  0  0
   34.6174   29.8793   40.2385 H   0  0  0  0  0  0  0  0  0  0  0  0
   36.2566   29.4435   36.8511 H   0  0  0  0  0  0  0  0  0  0  0  0
   32.1198   28.6246   36.5196 H   0  0  0  0  0  0  0  0  0  0  0  0
   32.7735   28.6070   39.0017 H   0  0  0  0  0  0  0  0  0  0  0  0
  1  6  1  0
  2  3  2  0
  4  3  1  0
  5  4  2  0
  6  5  1  0
  6  7  2  0
  7  2  1  0
  8  9  1  0
  8  1  1  0
  9 10  1  0
 11 10  2  0
 12 11  1  0
 13 12  2  0
 13  9  1  0
 14 15  2  0
 14 13  1  0
 16 14  1  0
 17 12  1  0
 17 18  2  0
 19  1  1  0
 20 19  1  0
 21 20  2  0
 22 23  2  0
 22 21  1  0
 23 24  1  0
 24 20  1  0
  1 25  1  1
  2 26  1  0
  3 27  1  0
  4 28  1  0
  8 29  1  0
  8 30  1  0
 11 31  1  0
 16 32  1  0
 16 33  1  0
 17 34  1  0
 19 35  1  0
 19 36  1  0
 21 37  1  0
 23 38  1  0
 24 39  1  0
M  ISO  8  25   8  26  14  27  14  28  14  29   8  30   8  31  14  34   6
M  ISO  5  35   8  36   8  37  14  38  14  39   9
M  END
>  <minimizedAffinity>  (1) 
-4.9438777

>  <minimizedRMSD>  (1) 
1.229985

$$$$
