
     RDKit          3D

 39 41  0  0  1  0  0  0  0  0999 V2000
   38.7290   29.7190   39.9050 C   0  0  1  0  0  0  0  0  0  0  0  0
   41.9630   28.3060   40.8840 C   0  0  0  0  0  0  0  0  0  0  0  0
   42.1890   27.3520   39.8210 C   0  0  0  0  0  0  0  0  0  0  0  0
   41.2260   27.2330   38.8190 C   0  0  0  0  0  0  0  0  0  0  0  0
   40.1330   28.0440   38.9300 N   0  0  0  0  0  0  0  0  0  0  0  0
   39.9700   28.9300   39.9570 C   0  0  0  0  0  0  0  0  0  0  0  0
   40.8530   29.0770   40.9290 N   0  0  0  0  0  0  0  0  0  0  0  0
   38.5960   30.5020   38.5620 C   0  0  0  0  0  0  0  0  0  0  0  0
   39.5260   31.6180   38.4950 N   0  0  0  0  0  0  0  0  0  0  0  0
   40.5630   31.8090   37.7070 N   0  0  0  0  0  0  0  0  0  0  0  0
   41.2020   32.9600   37.9180 C   0  0  0  0  0  0  0  0  0  0  0  0
   40.5480   33.5960   38.9240 C   0  0  0  0  0  0  0  0  0  0  0  0
   39.5120   32.7230   39.2510 C   0  0  0  0  0  0  0  0  0  0  0  0
   38.5890   33.0480   40.2900 C   0  0  0  0  0  0  0  0  0  0  0  0
   38.7620   32.8920   41.5230 O   0  0  0  0  0  0  0  0  0  0  0  0
   37.2850   33.6240   40.0690 N   0  0  0  0  0  0  0  0  0  0  0  0
   40.8610   34.8890   39.5190 C   0  0  0  0  0  0  0  0  0  0  0  0
   41.5820   34.9080   40.5750 O   0  0  0  0  0  0  0  0  0  0  0  0
   37.5470   28.9160   40.1510 C   0  0  0  0  0  0  0  0  0  0  0  0
   37.2470   28.5790   41.5530 C   0  0  0  0  0  0  0  0  0  0  0  0
   36.8230   27.4670   42.2450 C   0  0  0  0  0  0  0  0  0  0  0  0
   36.7340   27.6950   43.6000 C   0  0  0  0  0  0  0  0  0  0  0  0
   37.1170   28.9770   43.7240 N   0  0  0  0  0  0  0  0  0  0  0  0
   37.4130   29.4950   42.5480 N   0  0  0  0  0  0  0  0  0  0  0  0
   38.8001   30.4519   40.7222 H   0  0  0  0  0  0  0  0  0  0  0  0
   42.7161   28.4075   41.6793 H   0  0  0  0  0  0  0  0  0  0  0  0
   43.0992   26.7345   39.8030 H   0  0  0  0  0  0  0  0  0  0  0  0
   41.3407   26.5248   37.9852 H   0  0  0  0  0  0  0  0  0  0  0  0
   38.8022   29.8157   37.7274 H   0  0  0  0  0  0  0  0  0  0  0  0
   37.5738   30.9035   38.4993 H   0  0  0  0  0  0  0  0  0  0  0  0
   42.0894   33.3248   37.3800 H   0  0  0  0  0  0  0  0  0  0  0  0
   36.6716   33.8324   40.8698 H   0  0  0  0  0  0  0  0  0  0  0  0
   36.9674   33.8269   39.1104 H   0  0  0  0  0  0  0  0  0  0  0  0
   40.4876   35.8223   39.0723 H   0  0  0  0  0  0  0  0  0  0  0  0
   36.6829   29.4659   39.7498 H   0  0  0  0  0  0  0  0  0  0  0  0
   37.7505   27.9515   39.6628 H   0  0  0  0  0  0  0  0  0  0  0  0
   36.5824   26.5049   41.7691 H   0  0  0  0  0  0  0  0  0  0  0  0
   36.4240   26.9959   44.3907 H   0  0  0  0  0  0  0  0  0  0  0  0
   37.1720   29.4866   44.6174 H   0  0  0  0  0  0  0  0  0  0  0  0
  1  6  1  0
  1 19  1  0
  2  7  2  0
  3  2  1  0
  4  5  1  0
  4  3  2  0
  5  6  2  0
  6  7  1  0
  8  1  1  0
  9  8  1  0
  9 13  1  0
 10 11  2  0
 10  9  1  0
 11 12  1  0
 12 13  2  0
 12 17  1  0
 13 14  1  0
 14 15  2  0
 16 14  1  0
 17 18  2  0
 19 20  1  0
 20 21  1  0
 20 24  2  0
 21 22  2  0
 22 23  1  0
 24 23  1  0
  1 25  1  1
  2 26  1  0
  3 27  1  0
  4 28  1  0
  8 29  1  0
  8 30  1  0
 11 31  1  0
 16 32  1  0
 16 33  1  0
 17 34  1  0
 19 35  1  0
 19 36  1  0
 21 37  1  0
 22 38  1  0
 23 39  1  0
M  ISO  8  25   8  26  14  27  14  28  14  29   8  30   8  31  14  34   6
M  ISO  5  35   8  36   8  37  14  38  14  39   9
M  END
>  <minimizedAffinity>  (1) 
-4.78561211

>  <minimizedRMSD>  (1) 
3.66176343

$$$$
