
     RDKit          3D

 39 41  0  0  1  0  0  0  0  0999 V2000
   37.7350   29.1320   39.1580 C   0  0  0  0  0  0  0  0  0  0  0  0
   38.9020   30.0040   39.2480 N   0  0  0  0  0  0  0  0  0  0  0  0
   40.0620   29.7830   39.8290 N   0  0  0  0  0  0  0  0  0  0  0  0
   40.9200   30.7990   39.7270 C   0  0  0  0  0  0  0  0  0  0  0  0
   40.2890   31.7700   39.0270 C   0  0  0  0  0  0  0  0  0  0  0  0
   39.0330   31.2280   38.7500 C   0  0  0  0  0  0  0  0  0  0  0  0
   38.0620   31.9700   38.0130 C   0  0  0  0  0  0  0  0  0  0  0  0
   37.1340   32.6690   38.4960 O   0  0  0  0  0  0  0  0  0  0  0  0
   37.9840   32.0390   36.5740 N   0  0  0  0  0  0  0  0  0  0  0  0
   40.8050   33.0790   38.6510 C   0  0  0  0  0  0  0  0  0  0  0  0
   40.5140   34.0760   39.3950 O   0  0  0  0  0  0  0  0  0  0  0  0
   36.6490   29.5060   40.1750 C   0  0  2  0  0  0  0  0  0  0  0  0
   37.8650   29.0930   43.6300 C   0  0  0  0  0  0  0  0  0  0  0  0
   37.3940   27.7550   43.9340 C   0  0  0  0  0  0  0  0  0  0  0  0
   36.6790   27.0500   42.9500 C   0  0  0  0  0  0  0  0  0  0  0  0
   36.4750   27.6880   41.7520 N   0  0  0  0  0  0  0  0  0  0  0  0
   36.9550   28.9670   41.5330 C   0  0  0  0  0  0  0  0  0  0  0  0
   37.6330   29.6650   42.4340 N   0  0  0  0  0  0  0  0  0  0  0  0
   35.3120   29.1430   39.7610 C   0  0  0  0  0  0  0  0  0  0  0  0
   35.0720   28.5520   38.4220 C   0  0  0  0  0  0  0  0  0  0  0  0
   34.9240   29.2850   37.1700 C   0  0  0  0  0  0  0  0  0  0  0  0
   33.6600   28.6510   37.8240 C   0  0  0  0  0  0  0  0  0  0  0  0
   37.3129   29.2093   38.1452 H   0  0  0  0  0  0  0  0  0  0  0  0
   38.0638   28.1058   39.3789 H   0  0  0  0  0  0  0  0  0  0  0  0
   41.9416   30.8397   40.1329 H   0  0  0  0  0  0  0  0  0  0  0  0
   38.6658   31.5270   35.9961 H   0  0  0  0  0  0  0  0  0  0  0  0
   37.2465   32.6003   36.1245 H   0  0  0  0  0  0  0  0  0  0  0  0
   41.4271   33.2056   37.7527 H   0  0  0  0  0  0  0  0  0  0  0  0
   36.6641   30.6047   40.2257 H   0  0  0  0  0  0  0  0  0  0  0  0
   38.4243   29.6526   44.3942 H   0  0  0  0  0  0  0  0  0  0  0  0
   37.5925   27.3006   44.9159 H   0  0  0  0  0  0  0  0  0  0  0  0
   36.3003   26.0334   43.1319 H   0  0  0  0  0  0  0  0  0  0  0  0
   34.9409   28.4152   40.4976 H   0  0  0  0  0  0  0  0  0  0  0  0
   34.8009   30.1149   39.6971 H   0  0  0  0  0  0  0  0  0  0  0  0
   35.7782   27.7578   38.7057 H   0  0  0  0  0  0  0  0  0  0  0  0
   35.3277   28.8625   36.2380 H   0  0  0  0  0  0  0  0  0  0  0  0
   35.1922   30.2971   36.8328 H   0  0  0  0  0  0  0  0  0  0  0  0
   32.8952   29.2856   38.2955 H   0  0  0  0  0  0  0  0  0  0  0  0
   32.8697   27.9489   37.5200 H   0  0  0  0  0  0  0  0  0  0  0  0
  1  2  1  0
  1 12  1  0
  2  3  1  0
  4  3  2  0
  5  4  1  0
  6  5  2  0
  6  2  1  0
  7  8  2  0
  7  6  1  0
  9  7  1  0
 10  5  1  0
 10 11  2  0
 12 17  1  0
 13 14  2  0
 15 14  1  0
 16 15  2  0
 17 16  1  0
 17 18  2  0
 18 13  1  0
 19 12  1  0
 20 19  1  0
 21 22  1  0
 21 20  1  0
 22 20  1  0
  1 23  1  0
  1 24  1  0
  4 25  1  0
  9 26  1  0
  9 27  1  0
 10 28  1  0
 12 29  1  1
 13 30  1  0
 14 31  1  0
 15 32  1  0
 19 33  1  0
 19 34  1  0
 20 35  1  0
 21 36  1  0
 21 37  1  0
 22 38  1  0
 22 39  1  0
M  ISO  8  23   8  24   8  25  14  28   6  29   8  30  14  31  14  32  14
M  ISO  7  33   8  34   8  35  13  36  13  37  13  38  13  39  13
M  END
>  <minimizedAffinity>  (1) 
-4.75580311

>  <minimizedRMSD>  (1) 
1.38762355

$$$$
