
     RDKit          3D

 38 40  0  0  1  0  0  0  0  0999 V2000
   36.7820   29.4250   40.1540 C   0  0  1  0  0  0  0  0  0  0  0  0
   37.8330   29.1120   43.6460 C   0  0  0  0  0  0  0  0  0  0  0  0
   37.2910   27.8200   43.9930 C   0  0  0  0  0  0  0  0  0  0  0  0
   36.5890   27.1110   43.0150 C   0  0  0  0  0  0  0  0  0  0  0  0
   36.4750   27.7150   41.7960 N   0  0  0  0  0  0  0  0  0  0  0  0
   37.0100   28.9430   41.5250 C   0  0  0  0  0  0  0  0  0  0  0  0
   37.6820   29.6500   42.4170 N   0  0  0  0  0  0  0  0  0  0  0  0
   37.9720   29.0640   39.2090 C   0  0  0  0  0  0  0  0  0  0  0  0
   39.0660   30.0100   39.3330 N   0  0  0  0  0  0  0  0  0  0  0  0
   40.2230   29.8820   39.9490 N   0  0  0  0  0  0  0  0  0  0  0  0
   41.0060   30.9600   39.8650 C   0  0  0  0  0  0  0  0  0  0  0  0
   40.3270   31.8830   39.1400 C   0  0  0  0  0  0  0  0  0  0  0  0
   39.1250   31.2480   38.8310 C   0  0  0  0  0  0  0  0  0  0  0  0
   38.1270   31.9170   38.0610 C   0  0  0  0  0  0  0  0  0  0  0  0
   37.1330   32.5410   38.5080 O   0  0  0  0  0  0  0  0  0  0  0  0
   38.1130   31.9740   36.6210 N   0  0  0  0  0  0  0  0  0  0  0  0
   40.7570   33.2260   38.7720 C   0  0  0  0  0  0  0  0  0  0  0  0
   40.3800   34.2050   39.5090 O   0  0  0  0  0  0  0  0  0  0  0  0
   35.5210   28.9700   39.6000 C   0  0  0  0  0  0  0  0  0  0  0  0
   35.4610   28.5620   38.1830 C   0  0  0  0  0  0  0  0  0  0  0  0
   35.3260   27.1100   37.7600 C   0  0  0  0  0  0  0  0  0  0  0  0
   35.2450   27.2500   35.9790 S   0  0  0  0  0  0  0  0  0  0  0  0
   35.3920   29.1530   36.0190 C   0  0  0  0  0  0  0  0  0  0  0  0
   35.4740   29.4300   37.1930 N   0  0  0  0  0  0  0  0  0  0  0  0
   36.7222   30.5212   40.2231 H   0  0  0  0  0  0  0  0  0  0  0  0
   38.3880   29.6776   44.4089 H   0  0  0  0  0  0  0  0  0  0  0  0
   37.4272   27.4040   45.0022 H   0  0  0  0  0  0  0  0  0  0  0  0
   36.1526   26.1215   43.2159 H   0  0  0  0  0  0  0  0  0  0  0  0
   37.6143   29.0679   38.1688 H   0  0  0  0  0  0  0  0  0  0  0  0
   38.3460   28.0699   39.4952 H   0  0  0  0  0  0  0  0  0  0  0  0
   42.0094   31.0770   40.3004 H   0  0  0  0  0  0  0  0  0  0  0  0
   38.8584   31.5129   36.0801 H   0  0  0  0  0  0  0  0  0  0  0  0
   37.3576   32.4758   36.1328 H   0  0  0  0  0  0  0  0  0  0  0  0
   41.3874   33.3950   37.8866 H   0  0  0  0  0  0  0  0  0  0  0  0
   35.2019   28.1033   40.1975 H   0  0  0  0  0  0  0  0  0  0  0  0
   34.8802   29.8631   39.6417 H   0  0  0  0  0  0  0  0  0  0  0  0
   35.2879   26.2066   38.3864 H   0  0  0  0  0  0  0  0  0  0  0  0
   35.4003   29.8443   35.1634 H   0  0  0  0  0  0  0  0  0  0  0  0
  1  6  1  0
  2  3  2  0
  4  3  1  0
  5  4  2  0
  6  5  1  0
  6  7  2  0
  7  2  1  0
  8  9  1  0
  8  1  1  0
  9 10  1  0
 11 10  2  0
 12 11  1  0
 13 12  2  0
 13  9  1  0
 14 15  2  0
 14 13  1  0
 16 14  1  0
 17 12  1  0
 17 18  2  0
 19  1  1  0
 20 19  1  0
 21 20  2  0
 22 23  1  0
 22 21  1  0
 23 24  2  0
 24 20  1  0
  1 25  1  1
  2 26  1  0
  3 27  1  0
  4 28  1  0
  8 29  1  0
  8 30  1  0
 11 31  1  0
 16 32  1  0
 16 33  1  0
 17 34  1  0
 19 35  1  0
 19 36  1  0
 21 37  1  0
 23 38  1  0
M  ISO  8  25   8  26  14  27  14  28  14  29   8  30   8  31  14  34   6
M  ISO  4  35   8  36   8  37  14  38  14
M  END
>  <minimizedAffinity>  (1) 
-4.65537739

>  <minimizedRMSD>  (1) 
1.80589163

$$$$
