
     RDKit          3D

 34 35  0  0  1  0  0  0  0  0999 V2000
   37.2330   29.4100   39.0300 C   0  0  0  0  0  0  0  0  0  0  0  0
   38.5590   29.9900   39.2160 N   0  0  0  0  0  0  0  0  0  0  0  0
   39.7240   29.3920   39.2970 N   0  0  0  0  0  0  0  0  0  0  0  0
   40.7480   30.2290   39.4690 C   0  0  0  0  0  0  0  0  0  0  0  0
   40.2280   31.4780   39.5050 C   0  0  0  0  0  0  0  0  0  0  0  0
   38.8550   31.2780   39.3430 C   0  0  0  0  0  0  0  0  0  0  0  0
   37.9560   32.3860   39.3280 C   0  0  0  0  0  0  0  0  0  0  0  0
   37.5440   33.0180   40.3340 O   0  0  0  0  0  0  0  0  0  0  0  0
   37.3710   32.9640   38.1460 N   0  0  0  0  0  0  0  0  0  0  0  0
   40.9430   32.7360   39.6760 C   0  0  0  0  0  0  0  0  0  0  0  0
   41.0250   33.2260   40.8540 O   0  0  0  0  0  0  0  0  0  0  0  0
   36.3210   29.6370   40.2430 C   0  0  2  0  0  0  0  0  0  0  0  0
   37.9580   28.9480   43.4710 C   0  0  0  0  0  0  0  0  0  0  0  0
   37.7500   27.5360   43.6020 C   0  0  0  0  0  0  0  0  0  0  0  0
   37.0590   26.8640   42.5860 C   0  0  0  0  0  0  0  0  0  0  0  0
   36.6270   27.6230   41.5290 N   0  0  0  0  0  0  0  0  0  0  0  0
   36.8580   28.9710   41.4670 C   0  0  0  0  0  0  0  0  0  0  0  0
   37.5080   29.6410   42.4080 N   0  0  0  0  0  0  0  0  0  0  0  0
   34.9470   29.2510   40.0000 C   0  0  0  0  0  0  0  0  0  0  0  0
   34.7930   28.4480   38.8180 N   0  0  0  0  0  0  0  0  0  0  0  0
   36.7668   29.8700   38.1463 H   0  0  0  0  0  0  0  0  0  0  0  0
   37.3563   28.3246   38.9010 H   0  0  0  0  0  0  0  0  0  0  0  0
   41.8096   29.9569   39.5633 H   0  0  0  0  0  0  0  0  0  0  0  0
   36.7297   33.7658   38.2281 H   0  0  0  0  0  0  0  0  0  0  0  0
   37.5939   32.5757   37.2184 H   0  0  0  0  0  0  0  0  0  0  0  0
   41.3990   33.2492   38.8165 H   0  0  0  0  0  0  0  0  0  0  0  0
   36.3149   30.7230   40.4180 H   0  0  0  0  0  0  0  0  0  0  0  0
   38.5023   29.4822   44.2637 H   0  0  0  0  0  0  0  0  0  0  0  0
   38.1250   26.9919   44.4814 H   0  0  0  0  0  0  0  0  0  0  0  0
   36.8721   25.7810   42.6336 H   0  0  0  0  0  0  0  0  0  0  0  0
   34.5858   28.6754   40.8650 H   0  0  0  0  0  0  0  0  0  0  0  0
   34.3662   30.1732   39.8509 H   0  0  0  0  0  0  0  0  0  0  0  0
   34.6058   27.4718   39.0881 H   0  0  0  0  0  0  0  0  0  0  0  0
   34.0055   28.8067   38.2594 H   0  0  0  0  0  0  0  0  0  0  0  0
  1  2  1  0
  1 12  1  0
  2  3  1  0
  2  6  1  0
  3  4  2  0
  4  5  1  0
  5 10  1  0
  6  5  2  0
  7  6  1  0
  7  8  2  0
  9  7  1  0
 10 11  2  0
 12 17  1  0
 13 14  2  0
 15 14  1  0
 16 15  2  0
 17 16  1  0
 17 18  2  0
 18 13  1  0
 19 12  1  0
 20 19  1  0
  1 21  1  0
  1 22  1  0
  4 23  1  0
  9 24  1  0
  9 25  1  0
 10 26  1  0
 12 27  1  1
 13 28  1  0
 14 29  1  0
 15 30  1  0
 19 31  1  0
 19 32  1  0
 20 33  1  0
 20 34  1  0
M  ISO  8  21   8  22   8  23  14  26   6  27   8  28  14  29  14  30  14
M  ISO  4  31   8  32   8  33   5  34   5
M  END
>  <minimizedAffinity>  (1) 
-4.19314194

>  <minimizedRMSD>  (1) 
0.318967193

$$$$
