
     RDKit          3D

 46 49  0  0  1  0  0  0  0  0999 V2000
   37.9870   30.5710   41.2030 C   0  0  1  0  0  0  0  0  0  0  0  0
   40.5730   33.0840   40.5100 C   0  0  0  0  0  0  0  0  0  0  0  0
   39.7720   34.2150   40.1150 C   0  0  0  0  0  0  0  0  0  0  0  0
   38.3860   34.0720   40.1030 C   0  0  0  0  0  0  0  0  0  0  0  0
   37.8990   32.8480   40.4720 N   0  0  0  0  0  0  0  0  0  0  0  0
   38.7010   31.8170   40.8360 C   0  0  0  0  0  0  0  0  0  0  0  0
   40.0150   31.9150   40.8600 N   0  0  0  0  0  0  0  0  0  0  0  0
   38.4340   30.0360   42.5870 C   0  0  0  0  0  0  0  0  0  0  0  0
   39.2090   28.8220   42.4820 N   0  0  0  0  0  0  0  0  0  0  0  0
   40.5130   28.6460   42.5130 N   0  0  0  0  0  0  0  0  0  0  0  0
   40.8940   27.3740   42.3860 C   0  0  0  0  0  0  0  0  0  0  0  0
   39.7630   26.6350   42.2590 C   0  0  0  0  0  0  0  0  0  0  0  0
   38.7450   27.5870   42.3260 C   0  0  0  0  0  0  0  0  0  0  0  0
   37.3700   27.1780   42.2260 C   0  0  0  0  0  0  0  0  0  0  0  0
   36.7670   26.7840   41.1920 O   0  0  0  0  0  0  0  0  0  0  0  0
   36.4500   27.1630   43.3480 N   0  0  0  0  0  0  0  0  0  0  0  0
   39.6480   25.1920   42.0930 C   0  0  0  0  0  0  0  0  0  0  0  0
   39.6720   24.7140   40.9130 O   0  0  0  0  0  0  0  0  0  0  0  0
   36.5340   30.7270   41.1380 C   0  0  0  0  0  0  0  0  0  0  0  0
   35.8640   29.9970   40.0330 C   0  0  0  0  0  0  0  0  0  0  0  0
   34.7060   29.2510   39.9240 C   0  0  0  0  0  0  0  0  0  0  0  0
   34.5340   28.7790   38.6510 C   0  0  0  0  0  0  0  0  0  0  0  0
   35.6030   29.2460   37.9840 N   0  0  0  0  0  0  0  0  0  0  0  0
   36.3750   29.9520   38.7810 N   0  0  0  0  0  0  0  0  0  0  0  0
   35.8330   28.9860   36.5830 C   0  0  0  0  0  0  0  0  0  0  0  0
   36.5800   29.8150   35.7580 C   0  0  0  0  0  0  0  0  0  0  0  0
   36.5170   29.1610   34.5280 C   0  0  0  0  0  0  0  0  0  0  0  0
   35.7890   28.0240   34.6090 N   0  0  0  0  0  0  0  0  0  0  0  0
   35.3790   27.9360   35.8750 N   0  0  0  0  0  0  0  0  0  0  0  0
   38.2661   29.8180   40.4512 H   0  0  0  0  0  0  0  0  0  0  0  0
   41.6686   33.1814   40.5249 H   0  0  0  0  0  0  0  0  0  0  0  0
   40.2430   35.1674   39.8301 H   0  0  0  0  0  0  0  0  0  0  0  0
   37.7200   34.8980   39.8128 H   0  0  0  0  0  0  0  0  0  0  0  0
   39.0458   30.8043   43.0823 H   0  0  0  0  0  0  0  0  0  0  0  0
   37.5281   29.8073   43.1676 H   0  0  0  0  0  0  0  0  0  0  0  0
   41.9272   26.9964   42.3845 H   0  0  0  0  0  0  0  0  0  0  0  0
   35.4756   26.8587   43.2109 H   0  0  0  0  0  0  0  0  0  0  0  0
   36.7714   27.4566   44.2815 H   0  0  0  0  0  0  0  0  0  0  0  0
   39.5430   24.5313   42.9662 H   0  0  0  0  0  0  0  0  0  0  0  0
   36.1113   30.3673   42.0877 H   0  0  0  0  0  0  0  0  0  0  0  0
   36.3521   31.7954   40.9495 H   0  0  0  0  0  0  0  0  0  0  0  0
   34.0107   29.0607   40.7549 H   0  0  0  0  0  0  0  0  0  0  0  0
   33.7111   28.1604   38.2635 H   0  0  0  0  0  0  0  0  0  0  0  0
   37.0938   30.7541   36.0112 H   0  0  0  0  0  0  0  0  0  0  0  0
   36.9986   29.5240   33.6080 H   0  0  0  0  0  0  0  0  0  0  0  0
   35.5912   27.3601   33.8468 H   0  0  0  0  0  0  0  0  0  0  0  0
  1  8  1  0
  2  7  2  0
  3  2  1  0
  4  3  2  0
  4  5  1  0
  5  6  2  0
  6  7  1  0
  6  1  1  0
  9 10  1  0
  9  8  1  0
 11 10  2  0
 12 13  2  0
 12 11  1  0
 13  9  1  0
 14 13  1  0
 14 16  1  0
 15 14  2  0
 17 12  1  0
 18 17  2  0
 19  1  1  0
 20 19  1  0
 21 20  1  0
 22 21  2  0
 23 22  1  0
 23 24  1  0
 24 20  2  0
 25 23  1  0
 26 25  1  0
 27 28  1  0
 27 26  2  0
 28 29  1  0
 29 25  2  0
  1 30  1  6
  2 31  1  0
  3 32  1  0
  4 33  1  0
  8 34  1  0
  8 35  1  0
 11 36  1  0
 16 37  1  0
 16 38  1  0
 17 39  1  0
 19 40  1  0
 19 41  1  0
 21 42  1  0
 22 43  1  0
 26 44  1  0
 27 45  1  0
 28 46  1  0
M  ISO  8  30   8  31  14  32  14  33  14  34   8  35   8  36  14  39   6
M  ISO  7  40   8  41   8  42  14  43  14  44  14  45  14  46   9
M  END
>  <minimizedAffinity>  (1) 
-5.5127635

>  <minimizedRMSD>  (1) 
7.05517817

$$$$
