
     RDKit          3D

 48 51  0  0  1  0  0  0  0  0999 V2000
   38.1010   29.0900   41.7950 C   0  0  1  0  0  0  0  0  0  0  0  0
   39.5010   26.5030   43.9910 C   0  0  0  0  0  0  0  0  0  0  0  0
   40.3660   25.7970   43.0770 C   0  0  0  0  0  0  0  0  0  0  0  0
   40.4330   26.2320   41.7610 C   0  0  0  0  0  0  0  0  0  0  0  0
   39.6610   27.3110   41.4340 N   0  0  0  0  0  0  0  0  0  0  0  0
   38.8620   27.9400   42.3360 C   0  0  0  0  0  0  0  0  0  0  0  0
   38.7700   27.5590   43.5930 N   0  0  0  0  0  0  0  0  0  0  0  0
   38.6790   29.5800   40.4430 C   0  0  0  0  0  0  0  0  0  0  0  0
   39.3910   30.8330   40.5730 N   0  0  0  0  0  0  0  0  0  0  0  0
   40.4400   31.1280   41.3070 N   0  0  0  0  0  0  0  0  0  0  0  0
   40.8460   32.3940   41.1890 C   0  0  0  0  0  0  0  0  0  0  0  0
   40.0000   32.9960   40.3070 C   0  0  0  0  0  0  0  0  0  0  0  0
   39.1170   31.9770   39.9590 C   0  0  0  0  0  0  0  0  0  0  0  0
   38.0600   32.2350   39.0270 C   0  0  0  0  0  0  0  0  0  0  0  0
   36.8680   32.5560   39.2980 O   0  0  0  0  0  0  0  0  0  0  0  0
   38.2130   32.1630   37.5880 N   0  0  0  0  0  0  0  0  0  0  0  0
   40.0280   34.3760   39.8490 C   0  0  0  0  0  0  0  0  0  0  0  0
   39.2690   35.2190   40.4260 O   0  0  0  0  0  0  0  0  0  0  0  0
   36.6690   28.8030   41.6840 C   0  0  0  0  0  0  0  0  0  0  0  0
   36.2320   28.2460   40.3800 C   0  0  0  0  0  0  0  0  0  0  0  0
   36.4520   27.0630   39.7000 C   0  0  0  0  0  0  0  0  0  0  0  0
   35.7960   27.0470   38.4910 C   0  0  0  0  0  0  0  0  0  0  0  0
   35.1750   28.2380   38.4480 N   0  0  0  0  0  0  0  0  0  0  0  0
   35.4220   28.9350   39.5360 N   0  0  0  0  0  0  0  0  0  0  0  0
   34.3570   28.6810   37.3660 C   0  0  0  0  0  0  0  0  0  0  0  0
   33.0340   29.0330   37.5460 C   0  0  0  0  0  0  0  0  0  0  0  0
   32.3090   29.4520   36.4460 C   0  0  0  0  0  0  0  0  0  0  0  0
   32.8950   29.5160   35.1990 C   0  0  0  0  0  0  0  0  0  0  0  0
   34.2050   29.1640   35.0370 C   0  0  0  0  0  0  0  0  0  0  0  0
   34.8540   28.7700   36.1210 N   0  0  0  0  0  0  0  0  0  0  0  0
   38.2145   29.9080   42.5217 H   0  0  0  0  0  0  0  0  0  0  0  0
   39.4382   26.1696   45.0374 H   0  0  0  0  0  0  0  0  0  0  0  0
   40.9584   24.9342   43.4155 H   0  0  0  0  0  0  0  0  0  0  0  0
   41.0746   25.7339   41.0192 H   0  0  0  0  0  0  0  0  0  0  0  0
   37.8505   29.7158   39.7323 H   0  0  0  0  0  0  0  0  0  0  0  0
   39.3927   28.8223   40.0873 H   0  0  0  0  0  0  0  0  0  0  0  0
   41.6985   32.8608   41.7041 H   0  0  0  0  0  0  0  0  0  0  0  0
   39.1246   31.9131   37.1789 H   0  0  0  0  0  0  0  0  0  0  0  0
   37.4101   32.3617   36.9741 H   0  0  0  0  0  0  0  0  0  0  0  0
   40.6884   34.6834   39.0248 H   0  0  0  0  0  0  0  0  0  0  0  0
   36.4062   28.0778   42.4683 H   0  0  0  0  0  0  0  0  0  0  0  0
   36.1564   29.7707   41.7879 H   0  0  0  0  0  0  0  0  0  0  0  0
   37.0736   26.2379   40.0781 H   0  0  0  0  0  0  0  0  0  0  0  0
   35.7828   26.2469   37.7363 H   0  0  0  0  0  0  0  0  0  0  0  0
   32.5680   28.9813   38.5411 H   0  0  0  0  0  0  0  0  0  0  0  0
   31.2535   29.7374   36.5665 H   0  0  0  0  0  0  0  0  0  0  0  0
   32.3059   29.8514   34.3327 H   0  0  0  0  0  0  0  0  0  0  0  0
   34.6963   29.2060   34.0537 H   0  0  0  0  0  0  0  0  0  0  0  0
  1  6  1  0
  3  2  2  0
  4  3  1  0
  5  4  2  0
  5  6  1  0
  6  7  2  0
  7  2  1  0
  8  9  1  0
  8  1  1  0
  9 10  1  0
 11 10  2  0
 12 11  1  0
 13 12  2  0
 13  9  1  0
 14 15  2  0
 14 13  1  0
 16 14  1  0
 17 12  1  0
 17 18  2  0
 19  1  1  0
 20 19  1  0
 21 20  1  0
 22 21  2  0
 23 22  1  0
 23 24  1  0
 24 20  2  0
 25 26  2  0
 25 23  1  0
 27 26  1  0
 28 27  2  0
 29 28  1  0
 29 30  2  0
 30 25  1  0
  1 31  1  1
  2 32  1  0
  3 33  1  0
  4 34  1  0
  8 35  1  0
  8 36  1  0
 11 37  1  0
 16 38  1  0
 16 39  1  0
 17 40  1  0
 19 41  1  0
 19 42  1  0
 21 43  1  0
 22 44  1  0
 26 45  1  0
 27 46  1  0
 28 47  1  0
 29 48  1  0
M  ISO  8  31   8  32  14  33  14  34  14  35   8  36   8  37  14  40   6
M  ISO  8  41   8  42   8  43  14  44  14  45  14  46  14  47  14  48  14
M  END
>  <minimizedAffinity>  (1) 
-5.38002968

>  <minimizedRMSD>  (1) 
5.54432917

$$$$
