
     RDKit          3D

 46 49  0  0  1  0  0  0  0  0999 V2000
   38.7900   30.4640   38.4780 C   0  0  1  0  0  0  0  0  0  0  0  0
   41.4740   28.0880   37.6920 C   0  0  0  0  0  0  0  0  0  0  0  0
   40.7990   27.1700   36.8160 C   0  0  0  0  0  0  0  0  0  0  0  0
   39.4590   27.4000   36.5310 C   0  0  0  0  0  0  0  0  0  0  0  0
   38.8810   28.4990   37.1170 N   0  0  0  0  0  0  0  0  0  0  0  0
   39.5720   29.3310   37.9380 C   0  0  0  0  0  0  0  0  0  0  0  0
   40.8470   29.1490   38.2340 N   0  0  0  0  0  0  0  0  0  0  0  0
   38.9730   31.7450   37.6270 C   0  0  0  0  0  0  0  0  0  0  0  0
   40.0210   32.6040   38.1390 N   0  0  0  0  0  0  0  0  0  0  0  0
   41.1910   32.9140   37.6260 N   0  0  0  0  0  0  0  0  0  0  0  0
   41.9100   33.7430   38.3780 C   0  0  0  0  0  0  0  0  0  0  0  0
   41.1770   34.0130   39.4770 C   0  0  0  0  0  0  0  0  0  0  0  0
   40.0050   33.2790   39.2840 C   0  0  0  0  0  0  0  0  0  0  0  0
   38.9620   33.3140   40.2640 C   0  0  0  0  0  0  0  0  0  0  0  0
   38.9210   32.6840   41.3570 O   0  0  0  0  0  0  0  0  0  0  0  0
   37.7580   34.1110   40.1340 N   0  0  0  0  0  0  0  0  0  0  0  0
   41.5310   34.8740   40.6050 C   0  0  0  0  0  0  0  0  0  0  0  0
   42.5180   34.5370   41.3280 O   0  0  0  0  0  0  0  0  0  0  0  0
   37.3740   30.1340   38.6380 C   0  0  0  0  0  0  0  0  0  0  0  0
   37.0130   29.4550   39.9060 C   0  0  0  0  0  0  0  0  0  0  0  0
   35.9860   28.6410   40.3190 C   0  0  0  0  0  0  0  0  0  0  0  0
   36.1360   28.2710   41.6470 C   0  0  0  0  0  0  0  0  0  0  0  0
   37.2730   28.8810   42.0140 N   0  0  0  0  0  0  0  0  0  0  0  0
   37.7930   29.5680   41.0270 N   0  0  0  0  0  0  0  0  0  0  0  0
   37.8570   28.7870   43.3610 C   0  0  0  0  0  0  0  0  0  0  0  0
   36.9730   28.0540   44.4020 C   0  0  0  0  0  0  0  0  0  0  0  0
   38.2980   27.4940   43.8920 C   0  0  0  0  0  0  0  0  0  0  0  0
   39.1903   30.6693   39.4818 H   0  0  0  0  0  0  0  0  0  0  0  0
   42.5352   27.9186   37.9268 H   0  0  0  0  0  0  0  0  0  0  0  0
   41.3290   26.3088   36.3831 H   0  0  0  0  0  0  0  0  0  0  0  0
   38.8883   26.7336   35.8676 H   0  0  0  0  0  0  0  0  0  0  0  0
   38.0266   32.3056   37.6247 H   0  0  0  0  0  0  0  0  0  0  0  0
   39.2605   31.4345   36.6117 H   0  0  0  0  0  0  0  0  0  0  0  0
   42.9120   34.1339   38.1471 H   0  0  0  0  0  0  0  0  0  0  0  0
   37.0447   34.0914   40.8768 H   0  0  0  0  0  0  0  0  0  0  0  0
   37.6159   34.6969   39.2988 H   0  0  0  0  0  0  0  0  0  0  0  0
   40.9579   35.7878   40.8206 H   0  0  0  0  0  0  0  0  0  0  0  0
   36.7998   31.0704   38.5803 H   0  0  0  0  0  0  0  0  0  0  0  0
   37.1397   29.4181   37.8364 H   0  0  0  0  0  0  0  0  0  0  0  0
   35.1508   28.3232   39.6776 H   0  0  0  0  0  0  0  0  0  0  0  0
   35.4796   27.6304   42.2543 H   0  0  0  0  0  0  0  0  0  0  0  0
   38.3598   29.7613   43.2717 H   0  0  0  0  0  0  0  0  0  0  0  0
   36.8871   28.4365   45.4298 H   0  0  0  0  0  0  0  0  0  0  0  0
   35.9308   27.7064   44.4567 H   0  0  0  0  0  0  0  0  0  0  0  0
   38.2983   26.6096   43.2379 H   0  0  0  0  0  0  0  0  0  0  0  0
   39.2182   27.1436   44.3823 H   0  0  0  0  0  0  0  0  0  0  0  0
  1 19  1  0
  2  7  2  0
  3  2  1  0
  4  3  2  0
  4  5  1  0
  5  6  2  0
  6  7  1  0
  6  1  1  0
  8  9  1  0
  8  1  1  0
  9 13  1  0
 10  9  1  0
 10 11  2  0
 11 12  1  0
 12 17  1  0
 13 12  2  0
 13 14  1  0
 14 15  2  0
 16 14  1  0
 17 18  2  0
 19 20  1  0
 20 21  1  0
 20 24  2  0
 21 22  2  0
 22 23  1  0
 23 25  1  0
 24 23  1  0
 25 27  1  0
 25 26  1  0
 27 26  1  0
  1 28  1  1
  2 29  1  0
  3 30  1  0
  4 31  1  0
  8 32  1  0
  8 33  1  0
 11 34  1  0
 16 35  1  0
 16 36  1  0
 17 37  1  0
 19 38  1  0
 19 39  1  0
 21 40  1  0
 22 41  1  0
 25 42  1  0
 26 43  1  0
 26 44  1  0
 27 45  1  0
 27 46  1  0
M  ISO  8  28   8  29  14  30  14  31  14  32   8  33   8  34  14  37   6
M  ISO  8  38   8  39   8  40  14  41  14  42  13  43  13  44  13  45  13
M  ISO  1  46  13
M  END
>  <minimizedAffinity>  (1) 
-5.14416361

>  <minimizedRMSD>  (1) 
1.94199538

$$$$
