
     RDKit          3D

 44 47  0  0  1  0  0  0  0  0999 V2000
   37.2540   30.1300   39.3340 C   0  0  1  0  0  0  0  0  0  0  0  0
   39.4290   32.7730   40.6540 C   0  0  0  0  0  0  0  0  0  0  0  0
   38.6750   33.9550   40.3270 C   0  0  0  0  0  0  0  0  0  0  0  0
   37.4570   33.8000   39.6700 C   0  0  0  0  0  0  0  0  0  0  0  0
   37.0780   32.5180   39.3880 N   0  0  0  0  0  0  0  0  0  0  0  0
   37.8300   31.4350   39.7200 C   0  0  0  0  0  0  0  0  0  0  0  0
   38.9900   31.5380   40.3440 N   0  0  0  0  0  0  0  0  0  0  0  0
   36.3390   29.5580   40.4470 C   0  0  0  0  0  0  0  0  0  0  0  0
   37.0970   28.9890   41.5430 N   0  0  0  0  0  0  0  0  0  0  0  0
   37.3650   29.4830   42.7330 N   0  0  0  0  0  0  0  0  0  0  0  0
   38.0950   28.6830   43.5020 C   0  0  0  0  0  0  0  0  0  0  0  0
   38.3410   27.5590   42.7800 C   0  0  0  0  0  0  0  0  0  0  0  0
   37.6960   27.8030   41.5680 C   0  0  0  0  0  0  0  0  0  0  0  0
   37.7330   26.8240   40.5270 C   0  0  0  0  0  0  0  0  0  0  0  0
   38.6350   26.6620   39.6600 O   0  0  0  0  0  0  0  0  0  0  0  0
   36.6910   25.8350   40.3150 N   0  0  0  0  0  0  0  0  0  0  0  0
   39.1010   26.3880   43.1890 C   0  0  0  0  0  0  0  0  0  0  0  0
   39.9140   26.5070   44.1620 O   0  0  0  0  0  0  0  0  0  0  0  0
   36.5490   30.1910   38.0530 C   0  0  0  0  0  0  0  0  0  0  0  0
   35.6330   29.0590   37.7730 C   0  0  0  0  0  0  0  0  0  0  0  0
   34.2800   28.9140   37.5600 C   0  0  0  0  0  0  0  0  0  0  0  0
   33.9390   27.6060   37.3360 C   0  0  0  0  0  0  0  0  0  0  0  0
   35.1080   26.9520   37.4170 N   0  0  0  0  0  0  0  0  0  0  0  0
   36.0960   27.7750   37.6680 N   0  0  0  0  0  0  0  0  0  0  0  0
   35.3130   25.5510   37.2580 C   0  0  0  0  0  0  0  0  0  0  0  0
   34.7360   24.4590   37.8010 N   0  0  0  0  0  0  0  0  0  0  0  0
   35.2860   23.3810   37.3240 O   0  0  0  0  0  0  0  0  0  0  0  0
   36.2280   23.7200   36.4650 C   0  0  0  0  0  0  0  0  0  0  0  0
   36.2540   25.0810   36.4140 N   0  0  0  0  0  0  0  0  0  0  0  0
   38.1009   29.4400   39.2051 H   0  0  0  0  0  0  0  0  0  0  0  0
   40.3929   32.8818   41.1728 H   0  0  0  0  0  0  0  0  0  0  0  0
   39.0513   34.9548   40.5894 H   0  0  0  0  0  0  0  0  0  0  0  0
   36.8337   34.6630   39.3930 H   0  0  0  0  0  0  0  0  0  0  0  0
   35.7072   30.3694   40.8374 H   0  0  0  0  0  0  0  0  0  0  0  0
   35.7323   28.7544   40.0042 H   0  0  0  0  0  0  0  0  0  0  0  0
   38.4352   28.8909   44.5272 H   0  0  0  0  0  0  0  0  0  0  0  0
   36.7753   25.1548   39.5462 H   0  0  0  0  0  0  0  0  0  0  0  0
   35.8676   25.8137   40.9335 H   0  0  0  0  0  0  0  0  0  0  0  0
   38.9768   25.4253   42.6716 H   0  0  0  0  0  0  0  0  0  0  0  0
   35.9570   31.1180   38.0360 H   0  0  0  0  0  0  0  0  0  0  0  0
   37.3280   30.1475   37.2776 H   0  0  0  0  0  0  0  0  0  0  0  0
   33.5611   29.7465   37.5687 H   0  0  0  0  0  0  0  0  0  0  0  0
   32.9407   27.1895   37.1365 H   0  0  0  0  0  0  0  0  0  0  0  0
   36.8717   23.0326   35.8965 H   0  0  0  0  0  0  0  0  0  0  0  0
  1  6  1  0
  1  8  1  0
  3  2  2  0
  4  3  1  0
  5  4  2  0
  5  6  1  0
  6  7  2  0
  7  2  1  0
  8  9  1  0
  9 13  1  0
  9 10  1  0
 10 11  2  0
 12 17  1  0
 12 11  1  0
 13 12  2  0
 14 13  1  0
 15 14  2  0
 16 14  1  0
 17 18  2  0
 19  1  1  0
 20 19  1  0
 21 20  1  0
 22 23  1  0
 22 21  2  0
 23 24  1  0
 24 20  2  0
 25 23  1  0
 25 26  2  0
 27 26  1  0
 28 27  1  0
 29 28  2  0
 29 25  1  0
  1 30  1  6
  2 31  1  0
  3 32  1  0
  4 33  1  0
  8 34  1  0
  8 35  1  0
 11 36  1  0
 16 37  1  0
 16 38  1  0
 17 39  1  0
 19 40  1  0
 19 41  1  0
 21 42  1  0
 22 43  1  0
 28 44  1  0
M  ISO  8  30   8  31  14  32  14  33  14  34   8  35   8  36  14  39   6
M  ISO  5  40   8  41   8  42  14  43  14  44  14
M  END
>  <minimizedAffinity>  (1) 
-5.01052713

>  <minimizedRMSD>  (1) 
7.20034552

$$$$
