
     RDKit          3D

 38 41  0  0  1  0  0  0  0  0999 V2000
   38.3060   30.6480   39.5290 C   0  0  1  0  0  0  0  0  0  0  0  0
   37.7230   30.7950   38.0990 C   0  0  0  0  0  0  0  0  0  0  0  0
   36.3120   30.2590   38.3210 C   0  0  0  0  0  0  0  0  0  0  0  0
   36.3690   29.3920   39.5560 C   0  0  0  0  0  0  0  0  0  0  0  0
   37.8420   29.2840   39.8760 C   0  0  2  0  0  0  0  0  0  0  0  0
   40.8390   35.4670   39.7190 C   0  0  0  0  0  0  0  0  0  0  0  0
   39.5540   35.9270   40.0740 C   0  0  0  0  0  0  0  0  0  0  0  0
   38.5770   34.9780   40.2830 C   0  0  0  0  0  0  0  0  0  0  0  0
   38.9070   33.6650   40.1380 N   0  0  0  0  0  0  0  0  0  0  0  0
   40.1090   33.2350   39.8060 C   0  0  0  0  0  0  0  0  0  0  0  0
   41.0940   34.1510   39.5930 N   0  0  0  0  0  0  0  0  0  0  0  0
   40.5030   31.8830   39.6350 N   0  0  0  0  0  0  0  0  0  0  0  0
   41.8050   31.6350   39.5830 N   0  0  0  0  0  0  0  0  0  0  0  0
   41.9720   30.2810   39.4000 C   0  0  0  0  0  0  0  0  0  0  0  0
   40.6810   29.7390   39.3470 C   0  0  0  0  0  0  0  0  0  0  0  0
   39.7640   30.7880   39.5010 C   0  0  0  0  0  0  0  0  0  0  0  0
   37.9600   28.9440   41.2710 N   0  0  0  0  0  0  0  0  0  0  0  0
   37.5940   29.6210   42.3260 N   0  0  0  0  0  0  0  0  0  0  0  0
   37.8740   28.9610   43.4680 C   0  0  0  0  0  0  0  0  0  0  0  0
   38.4670   27.7710   43.0750 C   0  0  0  0  0  0  0  0  0  0  0  0
   38.5120   27.7770   41.7070 C   0  0  0  0  0  0  0  0  0  0  0  0
   39.0590   26.7020   41.0060 O   0  0  0  0  0  0  0  0  0  0  0  0
   37.9885   31.4047   40.2616 H   0  0  0  0  0  0  0  0  0  0  0  0
   38.2784   30.1878   37.3690 H   0  0  0  0  0  0  0  0  0  0  0  0
   37.7680   31.8139   37.6868 H   0  0  0  0  0  0  0  0  0  0  0  0
   35.6095   31.0915   38.4738 H   0  0  0  0  0  0  0  0  0  0  0  0
   35.9640   29.6853   37.4494 H   0  0  0  0  0  0  0  0  0  0  0  0
   35.8242   29.8634   40.3873 H   0  0  0  0  0  0  0  0  0  0  0  0
   35.9025   28.4084   39.3980 H   0  0  0  0  0  0  0  0  0  0  0  0
   38.4290   28.5187   39.3471 H   0  0  0  0  0  0  0  0  0  0  0  0
   41.6451   36.1943   39.5424 H   0  0  0  0  0  0  0  0  0  0  0  0
   39.3401   37.0008   40.1799 H   0  0  0  0  0  0  0  0  0  0  0  0
   37.5546   35.2742   40.5604 H   0  0  0  0  0  0  0  0  0  0  0  0
   42.9237   29.7362   39.3132 H   0  0  0  0  0  0  0  0  0  0  0  0
   40.4309   28.6768   39.2088 H   0  0  0  0  0  0  0  0  0  0  0  0
   37.6738   29.2965   44.4963 H   0  0  0  0  0  0  0  0  0  0  0  0
   38.8324   26.9726   43.7376 H   0  0  0  0  0  0  0  0  0  0  0  0
   39.4206   25.9227   41.4980 H   0  0  0  0  0  0  0  0  0  0  0  0
  1  5  1  0
  2  3  1  0
  2  1  1  0
  3  4  1  0
  4  5  1  0
  5 17  1  0
  6  7  2  0
  7  8  1  0
  9  8  2  0
 10  9  1  0
 11  6  1  0
 11 10  2  0
 12 10  1  0
 13 12  1  0
 14 13  2  0
 15 14  1  0
 15 16  2  0
 16  1  1  0
 16 12  1  0
 17 21  1  0
 17 18  1  0
 18 19  2  0
 20 19  1  0
 21 20  2  0
 22 21  1  0
  1 23  1  1
  2 24  1  0
  2 25  1  0
  3 26  1  0
  3 27  1  0
  4 28  1  0
  4 29  1  0
  5 30  1  6
  6 31  1  0
  7 32  1  0
  8 33  1  0
 14 34  1  0
 15 35  1  0
 19 36  1  0
 20 37  1  0
 22 38  1  0
M  ISO  8  23  13  24  13  25  13  26  13  27  13  28  13  29  13  30  13
M  ISO  8  31  14  32  14  33  14  34  14  35  14  36  14  37  14  38   3
M  END
>  <minimizedAffinity>  (1) 
-5.58196354

>  <minimizedRMSD>  (1) 
0.0214673486

$$$$
