
     RDKit          3D

 26 26  0  0  0  0  0  0  0  0999 V2000
   39.8570   30.5700   41.3610 C   0  0  0  0  0  0  0  0  0  0  0  0
   39.0680   29.8990   42.2980 C   0  0  0  0  0  0  0  0  0  0  0  0
   37.6890   29.9160   42.1540 C   0  0  0  0  0  0  0  0  0  0  0  0
   37.1760   30.6040   41.0820 N   0  0  0  0  0  0  0  0  0  0  0  0
   37.9340   31.2470   40.1840 C   0  0  0  0  0  0  0  0  0  0  0  0
   39.2710   31.2250   40.3320 N   0  0  0  0  0  0  0  0  0  0  0  0
   36.8010   29.2660   43.0660 N   0  0  0  0  0  0  0  0  0  0  0  0
   37.2230   28.2950   43.9970 C   0  0  0  0  0  0  0  0  0  0  0  0
   38.2240   27.5570   43.6220 N   0  0  0  0  0  0  0  0  0  0  0  0
   36.4970   28.2470   45.2350 N   0  0  0  0  0  0  0  0  0  0  0  0
   38.5740   26.8870   44.3550 H   0  0  0  0  0  0  0  0  0  0  0  0
   37.2160   31.9470   39.0780 C   0  0  0  0  0  0  0  0  0  0  0  0
   37.2300   33.4560   39.2970 C   0  0  0  0  0  0  0  0  0  0  0  0
   37.8340   31.6900   37.7310 C   0  0  0  0  0  0  0  0  0  0  0  0
   40.9526   30.5660   41.4593 H   0  0  0  0  0  0  0  0  0  0  0  0
   39.5342   29.3643   43.1387 H   0  0  0  0  0  0  0  0  0  0  0  0
   35.8030   29.5196   43.0419 H   0  0  0  0  0  0  0  0  0  0  0  0
   36.7557   27.5599   45.9574 H   0  0  0  0  0  0  0  0  0  0  0  0
   35.7175   28.8996   45.4006 H   0  0  0  0  0  0  0  0  0  0  0  0
   36.1907   31.5489   39.0906 H   0  0  0  0  0  0  0  0  0  0  0  0
   37.2320   33.6699   40.3760 H   0  0  0  0  0  0  0  0  0  0  0  0
   38.1322   33.8850   38.8365 H   0  0  0  0  0  0  0  0  0  0  0  0
   36.3360   33.9017   38.8365 H   0  0  0  0  0  0  0  0  0  0  0  0
   38.8422   31.2707   37.8641 H   0  0  0  0  0  0  0  0  0  0  0  0
   37.2110   30.9764   37.1719 H   0  0  0  0  0  0  0  0  0  0  0  0
   37.9007   32.6350   37.1719 H   0  0  0  0  0  0  0  0  0  0  0  0
  1  2  2  0
  3  2  1  0
  3  7  1  0
  4  3  2  0
  5  6  2  0
  5  4  1  0
  6  1  1  0
  7  8  1  0
  8 10  1  0
  9  8  2  0
  9 11  1  0
 12 13  1  0
 12  5  1  0
 14 12  1  0
  1 15  1  0
  2 16  1  0
  7 17  1  0
 10 18  1  0
 10 19  1  0
 12 20  1  0
 13 21  1  0
 13 22  1  0
 13 23  1  0
 14 24  1  0
 14 25  1  0
 14 26  1  0
M  ISO  8  15  14  16  14  20   8  21   8  22   8  23   8  24   8  25   8
M  ISO  1  26   8
M  END
>  <minimizedAffinity>  (1) 
-4.97741699

>  <minimizedRMSD>  (1) 
1.46047235

$$$$
