
     RDKit          3D

 20 20  0  0  0  0  0  0  0  0999 V2000
   39.8340   31.0720   41.7140 C   0  0  0  0  0  0  0  0  0  0  0  0
   39.0280   30.2370   42.5280 C   0  0  0  0  0  0  0  0  0  0  0  0
   37.6920   30.0810   42.1870 C   0  0  0  0  0  0  0  0  0  0  0  0
   37.2370   30.7440   41.0840 N   0  0  0  0  0  0  0  0  0  0  0  0
   38.0040   31.5320   40.3180 C   0  0  0  0  0  0  0  0  0  0  0  0
   39.2910   31.6880   40.6390 N   0  0  0  0  0  0  0  0  0  0  0  0
   36.8060   29.2660   42.9520 N   0  0  0  0  0  0  0  0  0  0  0  0
   37.2410   28.2870   43.8670 C   0  0  0  0  0  0  0  0  0  0  0  0
   38.3590   27.7040   43.5810 N   0  0  0  0  0  0  0  0  0  0  0  0
   36.4060   28.0500   45.0000 N   0  0  0  0  0  0  0  0  0  0  0  0
   38.6950   27.0020   44.2830 H   0  0  0  0  0  0  0  0  0  0  0  0
   37.4610   32.2130   39.1540 C   0  0  0  0  0  0  0  0  0  0  0  0
   37.1390   31.5890   38.1340 O   0  0  0  0  0  0  0  0  0  0  0  0
   37.2800   33.5850   39.1340 O   0  0  0  0  0  0  0  0  0  0  0  0
   40.8971   31.2185   41.9556 H   0  0  0  0  0  0  0  0  0  0  0  0
   39.4502   29.7265   43.4062 H   0  0  0  0  0  0  0  0  0  0  0  0
   35.7923   29.4006   42.8287 H   0  0  0  0  0  0  0  0  0  0  0  0
   36.6764   27.3450   45.7005 H   0  0  0  0  0  0  0  0  0  0  0  0
   35.5331   28.5840   45.1171 H   0  0  0  0  0  0  0  0  0  0  0  0
   36.9082   34.0235   38.3281 H   0  0  0  0  0  0  0  0  0  0  0  0
  1  2  2  0
  3  2  1  0
  3  7  1  0
  4  3  2  0
  5  6  2  0
  5  4  1  0
  6  1  1  0
  7  8  1  0
  8 10  1  0
  9  8  2  0
  9 11  1  0
 12  5  1  0
 13 12  2  0
 14 12  1  0
  1 15  1  0
  2 16  1  0
  7 17  1  0
 10 18  1  0
 10 19  1  0
 14 20  1  0
M  ISO  3  15  14  16  14  20   3
M  END
>  <minimizedAffinity>  (1) 
-4.76540995

>  <minimizedRMSD>  (1) 
1.42494035

$$$$
