
     RDKit          3D

 30 31  0  0  0  0  0  0  0  0999 V2000
   39.3240   31.4400   41.8450 C   0  0  0  0  0  0  0  0  0  0  0  0
   39.5430   30.1920   42.4790 C   0  0  0  0  0  0  0  0  0  0  0  0
   38.9020   29.0670   41.9750 C   0  0  0  0  0  0  0  0  0  0  0  0
   38.1010   29.2420   40.8960 N   0  0  0  0  0  0  0  0  0  0  0  0
   37.8860   30.4190   40.2880 C   0  0  0  0  0  0  0  0  0  0  0  0
   38.5010   31.5000   40.7710 N   0  0  0  0  0  0  0  0  0  0  0  0
   39.0820   27.7840   42.5690 N   0  0  0  0  0  0  0  0  0  0  0  0
   40.1740   27.4420   43.4100 C   0  0  0  0  0  0  0  0  0  0  0  0
   41.2840   28.0720   43.1680 N   0  0  0  0  0  0  0  0  0  0  0  0
   39.9080   26.4620   44.3990 N   0  0  0  0  0  0  0  0  0  0  0  0
   42.0590   27.8670   43.8500 H   0  0  0  0  0  0  0  0  0  0  0  0
   36.9990   30.5640   39.1090 C   0  0  0  0  0  0  0  0  0  0  0  0
   36.1710   29.2990   38.9020 C   0  0  0  0  0  0  0  0  0  0  0  0
   35.6660   29.5490   37.4820 C   0  0  0  0  0  0  0  0  0  0  0  0
   36.8400   30.1490   36.7400 C   0  0  0  0  0  0  0  0  0  0  0  0
   37.7610   30.6580   37.8140 C   0  0  0  0  0  0  0  0  0  0  0  0
   39.8164   32.3491   42.2205 H   0  0  0  0  0  0  0  0  0  0  0  0
   40.2071   30.1153   43.3526 H   0  0  0  0  0  0  0  0  0  0  0  0
   38.3758   27.0594   42.3762 H   0  0  0  0  0  0  0  0  0  0  0  0
   40.6542   26.1656   45.0441 H   0  0  0  0  0  0  0  0  0  0  0  0
   38.9685   26.0463   44.4725 H   0  0  0  0  0  0  0  0  0  0  0  0
   36.4105   31.4693   39.3191 H   0  0  0  0  0  0  0  0  0  0  0  0
   36.7890   28.3910   38.9626 H   0  0  0  0  0  0  0  0  0  0  0  0
   35.3849   29.1292   39.6525 H   0  0  0  0  0  0  0  0  0  0  0  0
   35.3552   28.6044   37.0118 H   0  0  0  0  0  0  0  0  0  0  0  0
   34.7900   30.2142   37.4697 H   0  0  0  0  0  0  0  0  0  0  0  0
   37.3431   29.3845   36.1298 H   0  0  0  0  0  0  0  0  0  0  0  0
   36.5283   30.9476   36.0507 H   0  0  0  0  0  0  0  0  0  0  0  0
   38.6689   30.0387   37.8613 H   0  0  0  0  0  0  0  0  0  0  0  0
   38.0758   31.6923   37.6114 H   0  0  0  0  0  0  0  0  0  0  0  0
  1  2  2  0
  3  2  1  0
  3  7  1  0
  4  3  2  0
  5  6  2  0
  5  4  1  0
  6  1  1  0
  7  8  1  0
  8 10  1  0
  9  8  2  0
  9 11  1  0
 12  5  1  0
 13 12  1  0
 14 13  1  0
 15 14  1  0
 15 16  1  0
 16 12  1  0
  1 17  1  0
  2 18  1  0
  7 19  1  0
 10 20  1  0
 10 21  1  0
 12 22  1  0
 13 23  1  0
 13 24  1  0
 14 25  1  0
 14 26  1  0
 15 27  1  0
 15 28  1  0
 16 29  1  0
 16 30  1  0
M  ISO  8  17  14  18  14  22  13  23  13  24  13  25  13  26  13  27  13
M  ISO  3  28  13  29  13  30  13
M  END
>  <minimizedAffinity>  (1) 
-4.15309668

>  <minimizedRMSD>  (1) 
3.11672282

$$$$
