
     RDKit          3D

 18 18  0  0  0  0  0  0  0  0999 V2000
   42.7780   32.5720   41.3280 C   0  0  0  0  0  0  0  0  0  0  0  0
   42.0410   32.4160   40.1310 C   0  0  0  0  0  0  0  0  0  0  0  0
   41.5750   33.5780   39.5280 C   0  0  0  0  0  0  0  0  0  0  0  0
   41.8530   34.7870   40.1180 N   0  0  0  0  0  0  0  0  0  0  0  0
   42.5560   34.8990   41.2560 C   0  0  0  0  0  0  0  0  0  0  0  0
   43.0130   33.7990   41.8530 N   0  0  0  0  0  0  0  0  0  0  0  0
   40.8070   33.5390   38.3080 N   0  0  0  0  0  0  0  0  0  0  0  0
   40.7990   32.4330   37.4360 C   0  0  0  0  0  0  0  0  0  0  0  0
   41.8730   31.7340   37.4030 N   0  0  0  0  0  0  0  0  0  0  0  0
   39.5930   32.2340   36.7030 N   0  0  0  0  0  0  0  0  0  0  0  0
   41.8430   30.8730   36.7990 H   0  0  0  0  0  0  0  0  0  0  0  0
   42.8130   36.1360   41.8170 O   0  0  0  0  0  0  0  0  0  0  0  0
   43.1676   31.6810   41.8422 H   0  0  0  0  0  0  0  0  0  0  0  0
   41.8462   31.4235   39.6986 H   0  0  0  0  0  0  0  0  0  0  0  0
   40.2362   34.3604   38.0623 H   0  0  0  0  0  0  0  0  0  0  0  0
   39.5140   31.4449   36.0458 H   0  0  0  0  0  0  0  0  0  0  0  0
   38.8004   32.8793   36.8305 H   0  0  0  0  0  0  0  0  0  0  0  0
   43.3332   36.2002   42.6569 H   0  0  0  0  0  0  0  0  0  0  0  0
  1  6  2  0
  2  1  1  0
  3  4  1  0
  3  2  2  0
  4  5  2  0
  5 12  1  0
  5  6  1  0
  7  3  1  0
  8  7  1  0
  9  8  2  0
 10  8  1  0
 11  9  1  0
  1 13  1  0
  2 14  1  0
  7 15  1  0
 10 16  1  0
 10 17  1  0
 12 18  1  0
M  ISO  3  13  14  14  14  18   3
M  END
>  <minimizedAffinity>  (1) 
-3.97293758

>  <minimizedRMSD>  (1) 
6.5100503

$$$$
