
     RDKit          3D

 34 36  0  0  0  0  0  0  0  0999 V2000
   38.3750   31.9870   40.7450 C   0  0  0  0  0  0  0  0  0  0  0  0
   38.1990   32.0560   39.3370 C   0  0  0  0  0  0  0  0  0  0  0  0
   39.2950   32.3310   38.5380 C   0  0  0  0  0  0  0  0  0  0  0  0
   40.4660   32.5150   39.1780 N   0  0  0  0  0  0  0  0  0  0  0  0
   40.6560   32.4570   40.4920 C   0  0  0  0  0  0  0  0  0  0  0  0
   39.5940   32.1900   41.2760 N   0  0  0  0  0  0  0  0  0  0  0  0
   39.1570   32.4070   37.1240 N   0  0  0  0  0  0  0  0  0  0  0  0
   38.1020   31.8340   36.3910 C   0  0  0  0  0  0  0  0  0  0  0  0
   37.5660   30.7780   36.8950 N   0  0  0  0  0  0  0  0  0  0  0  0
   37.7440   32.4670   35.1950 N   0  0  0  0  0  0  0  0  0  0  0  0
   36.7540   30.3560   36.3770 H   0  0  0  0  0  0  0  0  0  0  0  0
   41.9950   32.6760   41.1190 C   0  0  0  0  0  0  0  0  0  0  0  0
   42.6110   33.8530   40.4170 C   0  0  0  0  0  0  0  0  0  0  0  0
   42.5130   34.9900   41.2930 N   0  0  0  0  0  0  0  0  0  0  0  0
   41.5630   35.9490   41.2490 C   0  0  0  0  0  0  0  0  0  0  0  0
   41.7470   36.8870   42.2120 N   0  0  0  0  0  0  0  0  0  0  0  0
   42.8430   36.5420   42.9100 C   0  0  0  0  0  0  0  0  0  0  0  0
   43.5690   37.0340   43.9830 C   0  0  0  0  0  0  0  0  0  0  0  0
   44.6580   36.3840   44.4140 N   0  0  0  0  0  0  0  0  0  0  0  0
   45.0630   35.2510   43.8170 C   0  0  0  0  0  0  0  0  0  0  0  0
   44.4020   34.7100   42.7610 N   0  0  0  0  0  0  0  0  0  0  0  0
   43.3080   35.3650   42.3300 C   0  0  0  0  0  0  0  0  0  0  0  0
   37.5176   31.7684   41.3985 H   0  0  0  0  0  0  0  0  0  0  0  0
   37.2076   31.8935   38.8891 H   0  0  0  0  0  0  0  0  0  0  0  0
   39.8814   32.9181   36.5996 H   0  0  0  0  0  0  0  0  0  0  0  0
   38.2470   33.3122   34.8890 H   0  0  0  0  0  0  0  0  0  0  0  0
   36.9776   32.0876   34.6209 H   0  0  0  0  0  0  0  0  0  0  0  0
   41.8811   32.8911   42.1917 H   0  0  0  0  0  0  0  0  0  0  0  0
   42.6284   31.7817   41.0239 H   0  0  0  0  0  0  0  0  0  0  0  0
   43.6674   33.6437   40.1927 H   0  0  0  0  0  0  0  0  0  0  0  0
   42.0875   34.0520   39.4702 H   0  0  0  0  0  0  0  0  0  0  0  0
   40.7393   35.9674   40.5202 H   0  0  0  0  0  0  0  0  0  0  0  0
   43.2501   37.9609   44.4821 H   0  0  0  0  0  0  0  0  0  0  0  0
   45.9619   34.7433   44.1968 H   0  0  0  0  0  0  0  0  0  0  0  0
  1  6  2  0
  2  1  1  0
  3  4  1  0
  3  2  2  0
  4  5  2  0
  5 12  1  0
  5  6  1  0
  7  3  1  0
  8  9  2  0
  8  7  1  0
 10  8  1  0
 11  9  1  0
 13 12  1  0
 13 14  1  0
 14 22  1  0
 15 14  1  0
 15 16  2  0
 16 17  1  0
 17 18  2  0
 18 19  1  0
 20 19  2  0
 21 20  1  0
 22 21  2  0
 22 17  1  0
  1 23  1  0
  2 24  1  0
  7 25  1  0
 10 26  1  0
 10 27  1  0
 12 28  1  0
 12 29  1  0
 13 30  1  0
 13 31  1  0
 15 32  1  0
 18 33  1  0
 20 34  1  0
M  ISO  8  23  14  24  14  28   8  29   8  30   8  31   8  32  14  33  14
M  ISO  1  34  14
M  END
>  <minimizedAffinity>  (1) 
-6.14469099

>  <minimizedRMSD>  (1) 
8.05015278

$$$$
