
     RDKit          3D

 33 34  0  0  0  0  0  0  0  0999 V2000
   40.7450   29.4110   41.8900 C   0  0  0  0  0  0  0  0  0  0  0  0
   39.6450   29.0710   42.7220 C   0  0  0  0  0  0  0  0  0  0  0  0
   38.4210   29.6580   42.4770 C   0  0  0  0  0  0  0  0  0  0  0  0
   38.3720   30.5240   41.4470 N   0  0  0  0  0  0  0  0  0  0  0  0
   39.3790   30.8660   40.6500 C   0  0  0  0  0  0  0  0  0  0  0  0
   40.5880   30.2880   40.8900 N   0  0  0  0  0  0  0  0  0  0  0  0
   37.2910   29.3560   43.2770 N   0  0  0  0  0  0  0  0  0  0  0  0
   37.1540   28.1940   44.0540 C   0  0  0  0  0  0  0  0  0  0  0  0
   37.7750   27.1500   43.6510 N   0  0  0  0  0  0  0  0  0  0  0  0
   36.3370   28.3010   45.2090 N   0  0  0  0  0  0  0  0  0  0  0  0
   37.7380   26.2990   44.2650 H   0  0  0  0  0  0  0  0  0  0  0  0
   39.2360   31.8420   39.5270 C   0  0  0  0  0  0  0  0  0  0  0  0
   40.5890   32.5260   39.3960 C   0  0  0  0  0  0  0  0  0  0  0  0
   40.3790   33.9680   39.5850 C   0  0  0  0  0  0  0  0  0  0  0  0
   41.3170   34.9520   39.3730 C   0  0  0  0  0  0  0  0  0  0  0  0
   40.9980   36.2760   39.5880 C   0  0  0  0  0  0  0  0  0  0  0  0
   39.7410   36.5980   40.0120 C   0  0  0  0  0  0  0  0  0  0  0  0
   38.7670   35.6530   40.2390 C   0  0  0  0  0  0  0  0  0  0  0  0
   39.1160   34.3360   40.0150 C   0  0  0  0  0  0  0  0  0  0  0  0
   41.7290   28.9525   42.0676 H   0  0  0  0  0  0  0  0  0  0  0  0
   39.7670   28.3530   43.5463 H   0  0  0  0  0  0  0  0  0  0  0  0
   36.5169   30.0353   43.2895 H   0  0  0  0  0  0  0  0  0  0  0  0
   36.1979   27.4828   45.8191 H   0  0  0  0  0  0  0  0  0  0  0  0
   35.8829   29.1968   45.4374 H   0  0  0  0  0  0  0  0  0  0  0  0
   38.9801   31.3178   38.5944 H   0  0  0  0  0  0  0  0  0  0  0  0
   38.4330   32.5680   39.7219 H   0  0  0  0  0  0  0  0  0  0  0  0
   41.2782   32.1437   40.1634 H   0  0  0  0  0  0  0  0  0  0  0  0
   41.0283   32.3263   38.4075 H   0  0  0  0  0  0  0  0  0  0  0  0
   42.3265   34.6810   39.0303 H   0  0  0  0  0  0  0  0  0  0  0  0
   41.7474   37.0634   39.4199 H   0  0  0  0  0  0  0  0  0  0  0  0
   39.4965   37.6574   40.1792 H   0  0  0  0  0  0  0  0  0  0  0  0
   37.7600   35.9329   40.5820 H   0  0  0  0  0  0  0  0  0  0  0  0
   38.3637   33.5516   40.1843 H   0  0  0  0  0  0  0  0  0  0  0  0
  1  2  2  0
  3  2  1  0
  3  7  1  0
  4  3  2  0
  5  6  2  0
  5  4  1  0
  6  1  1  0
  7  8  1  0
  8 10  1  0
  9  8  2  0
  9 11  1  0
 12  5  1  0
 13 12  1  0
 13 14  1  0
 14 19  1  0
 15 14  2  0
 15 16  1  0
 16 17  2  0
 17 18  1  0
 19 18  2  0
  1 20  1  0
  2 21  1  0
  7 22  1  0
 10 23  1  0
 10 24  1  0
 12 25  1  0
 12 26  1  0
 13 27  1  0
 13 28  1  0
 15 29  1  0
 16 30  1  0
 17 31  1  0
 18 32  1  0
 19 33  1  0
M  ISO  8  20  14  21  14  25   8  26   8  27   8  28   8  29  14  30  14
M  ISO  3  31  14  32  14  33  14
M  END
>  <minimizedAffinity>  (1) 
-5.74909496

>  <minimizedRMSD>  (1) 
3.1007266

$$$$
