
     RDKit          3D

 30 30  0  0  0  0  0  0  0  0999 V2000
   39.2840   35.5970   40.1950 C   0  0  0  0  0  0  0  0  0  0  0  0
   40.5850   35.3310   39.6880 C   0  0  0  0  0  0  0  0  0  0  0  0
   40.9810   34.0120   39.5280 C   0  0  0  0  0  0  0  0  0  0  0  0
   40.0800   33.0540   39.8750 N   0  0  0  0  0  0  0  0  0  0  0  0
   38.8590   33.2900   40.3510 C   0  0  0  0  0  0  0  0  0  0  0  0
   38.4690   34.5890   40.5080 N   0  0  0  0  0  0  0  0  0  0  0  0
   42.2650   33.6810   39.0280 N   0  0  0  0  0  0  0  0  0  0  0  0
   43.0800   34.5610   38.3090 C   0  0  0  0  0  0  0  0  0  0  0  0
   42.5100   35.4560   37.6170 N   0  0  0  0  0  0  0  0  0  0  0  0
   44.4780   34.3940   38.4000 N   0  0  0  0  0  0  0  0  0  0  0  0
   43.0850   36.1660   37.0990 H   0  0  0  0  0  0  0  0  0  0  0  0
   37.9090   32.2090   40.7220 C   0  0  0  0  0  0  0  0  0  0  0  0
   36.9550   32.0720   39.5490 C   0  0  0  0  0  0  0  0  0  0  0  0
   37.5620   32.5690   38.3330 N   0  0  0  0  0  0  0  0  0  0  0  0
   38.1180   31.7150   37.3100 C   0  0  0  0  0  0  0  0  0  0  0  0
   37.5270   30.5680   37.1870 N   0  0  0  0  0  0  0  0  0  0  0  0
   39.2410   32.2810   36.5940 N   0  0  0  0  0  0  0  0  0  0  0  0
   37.8640   29.8870   36.4720 H   0  0  0  0  0  0  0  0  0  0  0  0
   38.9489   36.6361   40.3294 H   0  0  0  0  0  0  0  0  0  0  0  0
   41.2646   36.1558   39.4276 H   0  0  0  0  0  0  0  0  0  0  0  0
   42.6209   32.7309   39.2056 H   0  0  0  0  0  0  0  0  0  0  0  0
   45.1068   35.0251   37.8831 H   0  0  0  0  0  0  0  0  0  0  0  0
   44.8698   33.6410   38.9834 H   0  0  0  0  0  0  0  0  0  0  0  0
   38.4492   31.2653   40.8879 H   0  0  0  0  0  0  0  0  0  0  0  0
   37.3727   32.4449   41.6530 H   0  0  0  0  0  0  0  0  0  0  0  0
   36.6970   31.0110   39.4159 H   0  0  0  0  0  0  0  0  0  0  0  0
   36.0508   32.6622   39.7588 H   0  0  0  0  0  0  0  0  0  0  0  0
   37.5995   33.5882   38.1893 H   0  0  0  0  0  0  0  0  0  0  0  0
   39.7002   31.7411   35.8466 H   0  0  0  0  0  0  0  0  0  0  0  0
   39.5811   33.2237   36.8318 H   0  0  0  0  0  0  0  0  0  0  0  0
  1  6  2  0
  2  1  1  0
  3  2  2  0
  3  4  1  0
  4  5  2  0
  5  6  1  0
  5 12  1  0
  7  3  1  0
  8 10  1  0
  8  7  1  0
  9  8  2  0
 11  9  1  0
 13 12  1  0
 14 13  1  0
 15 14  1  0
 16 15  2  0
 17 15  1  0
 18 16  1  0
  1 19  1  0
  2 20  1  0
  7 21  1  0
 10 22  1  0
 10 23  1  0
 12 24  1  0
 12 25  1  0
 13 26  1  0
 13 27  1  0
 14 28  1  0
 17 29  1  0
 17 30  1  0
M  ISO  6  19  14  20  14  24   8  25   8  26   8  27   8
M  END
>  <minimizedAffinity>  (1) 
-5.52110529

>  <minimizedRMSD>  (1) 
6.29259109

$$$$
