
     RDKit          3D

 32 34  0  0  0  0  0  0  0  0999 V2000
   38.4440   32.5900   40.4460 N   0  0  0  0  0  0  0  0  0  0  0  0
   37.1690   32.2080   40.3240 C   0  0  0  0  0  0  0  0  0  0  0  0
   37.0650   30.9530   40.8410 N   0  0  0  0  0  0  0  0  0  0  0  0
   38.2990   30.5800   41.2780 C   0  0  0  0  0  0  0  0  0  0  0  0
   39.1300   31.6130   41.0200 N   0  0  0  0  0  0  0  0  0  0  0  0
   39.2570   33.7270   40.1380 C   0  0  0  0  0  0  0  0  0  0  0  0
   40.5750   33.6370   39.6610 C   0  0  0  0  0  0  0  0  0  0  0  0
   41.2480   34.8410   39.4050 C   0  0  0  0  0  0  0  0  0  0  0  0
   40.5950   36.0010   39.6290 N   0  0  0  0  0  0  0  0  0  0  0  0
   39.3260   36.0560   40.0890 C   0  0  0  0  0  0  0  0  0  0  0  0
   38.6470   34.9250   40.3470 N   0  0  0  0  0  0  0  0  0  0  0  0
   38.5890   29.2660   41.9100 C   0  0  0  0  0  0  0  0  0  0  0  0
   37.8790   28.2070   41.1130 C   0  0  0  0  0  0  0  0  0  0  0  0
   36.4940   27.9280   41.6770 C   0  0  0  0  0  0  0  0  0  0  0  0
   36.5530   27.4880   43.1180 C   0  0  0  0  0  0  0  0  0  0  0  0
   37.9090   27.8140   43.7200 C   0  0  0  0  0  0  0  0  0  0  0  0
   38.1780   29.2710   43.3690 C   0  0  0  0  0  0  0  0  0  0  0  0
   36.3522   32.8001   39.8855 H   0  0  0  0  0  0  0  0  0  0  0  0
   41.0592   32.6633   39.4951 H   0  0  0  0  0  0  0  0  0  0  0  0
   42.2824   34.8398   39.0309 H   0  0  0  0  0  0  0  0  0  0  0  0
   38.8457   37.0318   40.2533 H   0  0  0  0  0  0  0  0  0  0  0  0
   39.6687   29.0556   41.9015 H   0  0  0  0  0  0  0  0  0  0  0  0
   38.4708   27.2802   41.1408 H   0  0  0  0  0  0  0  0  0  0  0  0
   37.7676   28.5660   40.0792 H   0  0  0  0  0  0  0  0  0  0  0  0
   35.8909   28.8454   41.6095 H   0  0  0  0  0  0  0  0  0  0  0  0
   36.0439   27.1141   41.0897 H   0  0  0  0  0  0  0  0  0  0  0  0
   35.7695   28.0091   43.6877 H   0  0  0  0  0  0  0  0  0  0  0  0
   36.3962   26.4002   43.1640 H   0  0  0  0  0  0  0  0  0  0  0  0
   37.8857   27.6808   44.8117 H   0  0  0  0  0  0  0  0  0  0  0  0
   38.6955   27.1513   43.3300 H   0  0  0  0  0  0  0  0  0  0  0  0
   38.9875   29.6743   43.9952 H   0  0  0  0  0  0  0  0  0  0  0  0
   37.2943   29.9027   43.5422 H   0  0  0  0  0  0  0  0  0  0  0  0
  1  5  1  0
  2  1  1  0
  2  3  2  0
  3  4  1  0
  4 12  1  0
  5  4  2  0
  6 11  1  0
  6  1  1  0
  7  6  2  0
  8  9  2  0
  8  7  1  0
  9 10  1  0
 10 11  2  0
 12 17  1  0
 13 14  1  0
 13 12  1  0
 14 15  1  0
 15 16  1  0
 17 16  1  0
  2 18  1  0
  7 19  1  0
  8 20  1  0
 10 21  1  0
 12 22  1  0
 13 23  1  0
 13 24  1  0
 14 25  1  0
 14 26  1  0
 15 27  1  0
 15 28  1  0
 16 29  1  0
 16 30  1  0
 17 31  1  0
 17 32  1  0
M  ISO  8  18  14  19  14  20  14  21  14  22  13  23  13  24  13  25  13
M  ISO  7  26  13  27  13  28  13  29  13  30  13  31  13  32  13
M  END
>  <minimizedAffinity>  (1) 
-5.60614634

>  <minimizedRMSD>  (1) 
6.58357525

$$$$
