
     RDKit          3D

 31 33  0  0  0  0  0  0  0  0999 V2000
   37.5280   31.0980   40.8030 N   0  0  0  0  0  0  0  0  0  0  0  0
   36.8100   31.5950   39.7750 C   0  0  0  0  0  0  0  0  0  0  0  0
   37.3660   32.7660   39.4050 N   0  0  0  0  0  0  0  0  0  0  0  0
   38.4450   32.9870   40.2270 C   0  0  0  0  0  0  0  0  0  0  0  0
   38.4970   31.9350   41.0610 N   0  0  0  0  0  0  0  0  0  0  0  0
   39.3150   34.1140   40.1770 N   0  0  0  0  0  0  0  0  0  0  0  0
   40.7650   34.0330   40.2500 C   0  0  0  0  0  0  0  0  0  0  0  0
   41.2790   34.9370   39.1430 C   0  0  0  0  0  0  0  0  0  0  0  0
   41.0540   36.3640   39.6110 C   0  0  0  0  0  0  0  0  0  0  0  0
   39.7570   36.5200   40.3330 C   0  0  0  0  0  0  0  0  0  0  0  0
   38.7430   35.4420   40.0460 C   0  0  0  0  0  0  0  0  0  0  0  0
   37.5150   29.9480   41.6520 C   0  0  0  0  0  0  0  0  0  0  0  0
   38.4490   29.7270   42.6750 C   0  0  0  0  0  0  0  0  0  0  0  0
   38.3060   28.5480   43.4260 C   0  0  0  0  0  0  0  0  0  0  0  0
   37.2820   27.7060   43.1140 N   0  0  0  0  0  0  0  0  0  0  0  0
   36.4080   27.9580   42.1230 C   0  0  0  0  0  0  0  0  0  0  0  0
   36.5220   29.0730   41.3940 N   0  0  0  0  0  0  0  0  0  0  0  0
   35.9255   31.1267   39.3184 H   0  0  0  0  0  0  0  0  0  0  0  0
   41.1207   34.3848   41.2297 H   0  0  0  0  0  0  0  0  0  0  0  0
   41.1221   32.9994   40.1312 H   0  0  0  0  0  0  0  0  0  0  0  0
   40.7238   34.7506   38.2119 H   0  0  0  0  0  0  0  0  0  0  0  0
   42.3433   34.7490   38.9384 H   0  0  0  0  0  0  0  0  0  0  0  0
   41.8732   36.6487   40.2877 H   0  0  0  0  0  0  0  0  0  0  0  0
   41.0271   37.0118   38.7224 H   0  0  0  0  0  0  0  0  0  0  0  0
   39.9637   36.5172   41.4134 H   0  0  0  0  0  0  0  0  0  0  0  0
   39.3160   37.4636   39.9794 H   0  0  0  0  0  0  0  0  0  0  0  0
   38.3695   35.5690   39.0192 H   0  0  0  0  0  0  0  0  0  0  0  0
   37.9276   35.5364   40.7782 H   0  0  0  0  0  0  0  0  0  0  0  0
   39.2572   30.4445   42.8801 H   0  0  0  0  0  0  0  0  0  0  0  0
   39.0024   28.3115   44.2439 H   0  0  0  0  0  0  0  0  0  0  0  0
   35.5975   27.2449   41.9118 H   0  0  0  0  0  0  0  0  0  0  0  0
  1  5  1  0
  1 12  1  0
  2  1  1  0
  3  2  2  0
  3  4  1  0
  4  5  2  0
  6  4  1  0
  6  7  1  0
  8  9  1  0
  8  7  1  0
  9 10  1  0
 11  6  1  0
 11 10  1  0
 12 13  2  0
 13 14  1  0
 15 14  2  0
 16 15  1  0
 17 12  1  0
 17 16  2  0
  2 18  1  0
  7 19  1  0
  7 20  1  0
  8 21  1  0
  8 22  1  0
  9 23  1  0
  9 24  1  0
 10 25  1  0
 10 26  1  0
 11 27  1  0
 11 28  1  0
 13 29  1  0
 14 30  1  0
 16 31  1  0
M  ISO  8  18  14  19  13  20  13  21  13  22  13  23  13  24  13  25  13
M  ISO  6  26  13  27  13  28  13  29  14  30  14  31  14
M  END
>  <minimizedAffinity>  (1) 
-5.50328207

>  <minimizedRMSD>  (1) 
2.60475922

$$$$
