
     RDKit          3D

 29 31  0  0  0  0  0  0  0  0999 V2000
   37.4930   31.1460   40.6160 N   0  0  0  0  0  0  0  0  0  0  0  0
   36.8220   31.6730   39.5750 C   0  0  0  0  0  0  0  0  0  0  0  0
   37.4320   32.8160   39.2070 N   0  0  0  0  0  0  0  0  0  0  0  0
   38.5070   32.9910   40.0440 C   0  0  0  0  0  0  0  0  0  0  0  0
   38.5040   31.9410   40.8940 N   0  0  0  0  0  0  0  0  0  0  0  0
   39.4520   34.0820   40.0230 N   0  0  0  0  0  0  0  0  0  0  0  0
   40.7930   33.9780   39.5230 C   0  0  0  0  0  0  0  0  0  0  0  0
   41.7690   34.8580   40.2630 C   0  0  0  0  0  0  0  0  0  0  0  0
   41.2330   36.0800   40.6340 O   0  0  0  0  0  0  0  0  0  0  0  0
   40.0290   36.3750   40.0110 C   0  0  0  0  0  0  0  0  0  0  0  0
   39.0080   35.3620   40.5450 C   0  0  0  0  0  0  0  0  0  0  0  0
   37.4140   30.0060   41.4670 C   0  0  0  0  0  0  0  0  0  0  0  0
   36.4400   28.9990   41.3300 C   0  0  0  0  0  0  0  0  0  0  0  0
   36.4810   27.9350   42.2390 C   0  0  0  0  0  0  0  0  0  0  0  0
   37.4510   27.9400   43.1900 N   0  0  0  0  0  0  0  0  0  0  0  0
   38.3620   28.9190   43.2870 C   0  0  0  0  0  0  0  0  0  0  0  0
   38.3550   29.9520   42.4380 N   0  0  0  0  0  0  0  0  0  0  0  0
   35.9260   31.2425   39.1040 H   0  0  0  0  0  0  0  0  0  0  0  0
   41.1222   32.9327   39.6179 H   0  0  0  0  0  0  0  0  0  0  0  0
   40.7796   34.3113   38.4748 H   0  0  0  0  0  0  0  0  0  0  0  0
   42.0959   34.3301   41.1710 H   0  0  0  0  0  0  0  0  0  0  0  0
   42.6055   35.0635   39.5789 H   0  0  0  0  0  0  0  0  0  0  0  0
   40.1301   36.2749   38.9202 H   0  0  0  0  0  0  0  0  0  0  0  0
   39.7137   37.4080   40.2194 H   0  0  0  0  0  0  0  0  0  0  0  0
   37.9979   35.6004   40.1806 H   0  0  0  0  0  0  0  0  0  0  0  0
   38.9520   35.3669   41.6436 H   0  0  0  0  0  0  0  0  0  0  0  0
   35.6765   29.0462   40.5396 H   0  0  0  0  0  0  0  0  0  0  0  0
   35.7475   27.1170   42.1846 H   0  0  0  0  0  0  0  0  0  0  0  0
   39.1264   28.8717   44.0766 H   0  0  0  0  0  0  0  0  0  0  0  0
  1  5  1  0
  1 12  1  0
  2  1  1  0
  3  2  2  0
  3  4  1  0
  4  5  2  0
  6  4  1  0
  6 11  1  0
  7  6  1  0
  7  8  1  0
  8  9  1  0
 10 11  1  0
 10  9  1  0
 12 17  1  0
 13 12  2  0
 13 14  1  0
 14 15  2  0
 15 16  1  0
 17 16  2  0
  2 18  1  0
  7 19  1  0
  7 20  1  0
  8 21  1  0
  8 22  1  0
 10 23  1  0
 10 24  1  0
 11 25  1  0
 11 26  1  0
 13 27  1  0
 14 28  1  0
 16 29  1  0
M  ISO  8  18  14  19  13  20  13  21  13  22  13  23  13  24  13  25  13
M  ISO  4  26  13  27  14  28  14  29  14
M  END
>  <minimizedAffinity>  (1) 
-5.35477877

>  <minimizedRMSD>  (1) 
2.50492716

$$$$
