
     RDKit          3D

 24 26  0  0  0  0  0  0  0  0999 V2000
   38.0050   30.8970   41.3510 N   0  0  0  0  0  0  0  0  0  0  0  0
   36.9900   31.4280   40.6520 C   0  0  0  0  0  0  0  0  0  0  0  0
   37.4090   32.6110   40.1510 N   0  0  0  0  0  0  0  0  0  0  0  0
   38.6980   32.7880   40.5600 C   0  0  0  0  0  0  0  0  0  0  0  0
   39.0380   31.7090   41.3010 N   0  0  0  0  0  0  0  0  0  0  0  0
   38.2620   29.7160   42.1160 C   0  0  0  0  0  0  0  0  0  0  0  0
   37.2610   28.9650   42.7620 C   0  0  0  0  0  0  0  0  0  0  0  0
   37.6700   27.8280   43.4760 C   0  0  0  0  0  0  0  0  0  0  0  0
   38.9870   27.5250   43.5000 N   0  0  0  0  0  0  0  0  0  0  0  0
   39.9210   28.2610   42.8740 C   0  0  0  0  0  0  0  0  0  0  0  0
   39.5600   29.3480   42.1870 N   0  0  0  0  0  0  0  0  0  0  0  0
   39.4490   33.9740   40.1890 C   0  0  0  0  0  0  0  0  0  0  0  0
   38.8940   35.2090   40.4560 C   0  0  0  0  0  0  0  0  0  0  0  0
   39.6320   36.3360   40.0900 C   0  0  0  0  0  0  0  0  0  0  0  0
   40.8430   36.2710   39.4990 N   0  0  0  0  0  0  0  0  0  0  0  0
   41.3560   35.0390   39.2520 C   0  0  0  0  0  0  0  0  0  0  0  0
   40.6650   33.9230   39.5940 N   0  0  0  0  0  0  0  0  0  0  0  0
   35.9950   30.9804   40.5119 H   0  0  0  0  0  0  0  0  0  0  0  0
   36.2019   29.2576   42.7091 H   0  0  0  0  0  0  0  0  0  0  0  0
   36.9371   27.1993   44.0028 H   0  0  0  0  0  0  0  0  0  0  0  0
   40.9802   27.9689   42.9273 H   0  0  0  0  0  0  0  0  0  0  0  0
   37.9095   35.3016   40.9379 H   0  0  0  0  0  0  0  0  0  0  0  0
   39.2039   37.3285   40.2941 H   0  0  0  0  0  0  0  0  0  0  0  0
   42.3405   34.9447   38.7704 H   0  0  0  0  0  0  0  0  0  0  0  0
  1  6  1  0
  2  1  1  0
  3  4  1  0
  3  2  2  0
  4  5  2  0
  5  1  1  0
  6 11  1  0
  6  7  2  0
  7  8  1  0
  8  9  2  0
 10  9  1  0
 11 10  2  0
 12 13  2  0
 12  4  1  0
 14 13  1  0
 15 14  2  0
 16 15  1  0
 16 17  2  0
 17 12  1  0
  2 18  1  0
  7 19  1  0
  8 20  1  0
 10 21  1  0
 13 22  1  0
 14 23  1  0
 16 24  1  0
M  ISO  7  18  14  19  14  20  14  21  14  22  14  23  14  24  14
M  END
>  <minimizedAffinity>  (1) 
-5.25055838

>  <minimizedRMSD>  (1) 
2.99251723

$$$$
