
     RDKit          3D

 23 25  0  0  0  0  0  0  0  0999 V2000
   37.4470   31.1150   40.5310 N   0  0  0  0  0  0  0  0  0  0  0  0
   36.7840   31.5900   39.4710 C   0  0  0  0  0  0  0  0  0  0  0  0
   37.3650   32.7490   39.0960 N   0  0  0  0  0  0  0  0  0  0  0  0
   38.3990   32.9870   39.9370 C   0  0  0  0  0  0  0  0  0  0  0  0
   38.4300   31.9580   40.8190 N   0  0  0  0  0  0  0  0  0  0  0  0
   39.2940   34.1170   39.9000 N   0  0  0  0  0  0  0  0  0  0  0  0
   38.9440   35.3540   40.2920 C   0  0  0  0  0  0  0  0  0  0  0  0
   40.1040   36.1070   40.0850 C   0  0  0  0  0  0  0  0  0  0  0  0
   41.0730   35.2990   39.5870 N   0  0  0  0  0  0  0  0  0  0  0  0
   40.5660   34.0400   39.4690 C   0  0  0  0  0  0  0  0  0  0  0  0
   37.4060   29.9940   41.4190 C   0  0  0  0  0  0  0  0  0  0  0  0
   36.4510   28.9640   41.3440 C   0  0  0  0  0  0  0  0  0  0  0  0
   36.5210   27.9300   42.2700 C   0  0  0  0  0  0  0  0  0  0  0  0
   37.5220   27.9900   43.1940 N   0  0  0  0  0  0  0  0  0  0  0  0
   38.4190   28.9800   43.2450 C   0  0  0  0  0  0  0  0  0  0  0  0
   38.3690   29.9900   42.3590 N   0  0  0  0  0  0  0  0  0  0  0  0
   35.9156   31.1178   38.9884 H   0  0  0  0  0  0  0  0  0  0  0  0
   37.9738   35.6939   40.6834 H   0  0  0  0  0  0  0  0  0  0  0  0
   40.2131   37.1817   40.2926 H   0  0  0  0  0  0  0  0  0  0  0  0
   41.0885   33.1458   39.0982 H   0  0  0  0  0  0  0  0  0  0  0  0
   35.6680   28.9766   40.5715 H   0  0  0  0  0  0  0  0  0  0  0  0
   35.8001   27.0992   42.2580 H   0  0  0  0  0  0  0  0  0  0  0  0
   39.2028   28.9681   44.0167 H   0  0  0  0  0  0  0  0  0  0  0  0
  1  5  1  0
  1 11  1  0
  2  1  1  0
  3  2  2  0
  3  4  1  0
  4  5  2  0
  6  4  1  0
  6  7  1  0
  8  7  2  0
  9  8  1  0
 10  9  2  0
 10  6  1  0
 11 16  1  0
 12 11  2  0
 12 13  1  0
 13 14  2  0
 14 15  1  0
 16 15  2  0
  2 17  1  0
  7 18  1  0
  8 19  1  0
 10 20  1  0
 12 21  1  0
 13 22  1  0
 15 23  1  0
M  ISO  7  17  14  18  14  19  14  20  14  21  14  22  14  23  14
M  END
>  <minimizedAffinity>  (1) 
-5.11589766

>  <minimizedRMSD>  (1) 
2.54513669

$$$$
