
     RDKit          3D

 29 31  0  0  0  0  0  0  0  0999 V2000
   37.5770   31.5840   40.6970 N   0  0  0  0  0  0  0  0  0  0  0  0
   37.0280   32.2280   39.6620 C   0  0  0  0  0  0  0  0  0  0  0  0
   37.6120   33.4390   39.5560 N   0  0  0  0  0  0  0  0  0  0  0  0
   38.5440   33.5300   40.5580 C   0  0  0  0  0  0  0  0  0  0  0  0
   38.4930   32.3680   41.2410 N   0  0  0  0  0  0  0  0  0  0  0  0
   37.4640   30.3260   41.3680 C   0  0  0  0  0  0  0  0  0  0  0  0
   36.4430   29.3920   41.1210 C   0  0  0  0  0  0  0  0  0  0  0  0
   36.4810   28.2020   41.8720 C   0  0  0  0  0  0  0  0  0  0  0  0
   37.4730   28.0200   42.7740 N   0  0  0  0  0  0  0  0  0  0  0  0
   38.4310   28.9370   42.9820 C   0  0  0  0  0  0  0  0  0  0  0  0
   38.4320   30.0880   42.2840 N   0  0  0  0  0  0  0  0  0  0  0  0
   39.4300   34.7180   40.8130 C   0  0  0  0  0  0  0  0  0  0  0  0
   39.0470   35.9230   40.0310 C   0  0  0  0  0  0  0  0  0  0  0  0
   40.4160   36.5700   39.7960 C   0  0  0  0  0  0  0  0  0  0  0  0
   41.2170   35.3540   39.3180 C   0  0  0  0  0  0  0  0  0  0  0  0
   40.8560   34.3470   40.3890 C   0  0  0  0  0  0  0  0  0  0  0  0
   36.2348   31.8367   39.0080 H   0  0  0  0  0  0  0  0  0  0  0  0
   35.6540   29.5814   40.3783 H   0  0  0  0  0  0  0  0  0  0  0  0
   35.7125   27.4284   41.7271 H   0  0  0  0  0  0  0  0  0  0  0  0
   39.2186   28.7471   43.7260 H   0  0  0  0  0  0  0  0  0  0  0  0
   39.3385   34.9615   41.8818 H   0  0  0  0  0  0  0  0  0  0  0  0
   38.5612   35.6508   39.0824 H   0  0  0  0  0  0  0  0  0  0  0  0
   38.3185   36.5759   40.5340 H   0  0  0  0  0  0  0  0  0  0  0  0
   40.3685   37.3540   39.0259 H   0  0  0  0  0  0  0  0  0  0  0  0
   40.8385   37.0833   40.6724 H   0  0  0  0  0  0  0  0  0  0  0  0
   40.8927   35.0205   38.3212 H   0  0  0  0  0  0  0  0  0  0  0  0
   42.2962   35.5328   39.2023 H   0  0  0  0  0  0  0  0  0  0  0  0
   40.8861   33.3244   39.9849 H   0  0  0  0  0  0  0  0  0  0  0  0
   41.5593   34.3708   41.2344 H   0  0  0  0  0  0  0  0  0  0  0  0
  1  5  1  0
  1  6  1  0
  2  1  1  0
  3  2  2  0
  3  4  1  0
  4 12  1  0
  4  5  2  0
  6 11  1  0
  7  6  2  0
  7  8  1  0
  8  9  2  0
  9 10  1  0
 11 10  2  0
 13 12  1  0
 14 13  1  0
 15 14  1  0
 15 16  1  0
 16 12  1  0
  2 17  1  0
  7 18  1  0
  8 19  1  0
 10 20  1  0
 12 21  1  0
 13 22  1  0
 13 23  1  0
 14 24  1  0
 14 25  1  0
 15 26  1  0
 15 27  1  0
 16 28  1  0
 16 29  1  0
M  ISO  8  17  14  18  14  19  14  20  14  21  13  22  13  23  13  24  13
M  ISO  5  25  13  26  13  27  13  28  13  29  13
M  END
>  <minimizedAffinity>  (1) 
-5.06022453

>  <minimizedRMSD>  (1) 
2.19707847

$$$$
