
     RDKit          3D

 24 25  0  0  0  0  0  0  0  0999 V2000
   40.0080   32.1750   41.0990 C   0  0  0  0  0  0  0  0  0  0  0  0
   39.5890   30.9640   41.6880 C   0  0  0  0  0  0  0  0  0  0  0  0
   38.2340   30.6230   41.6080 C   0  0  0  0  0  0  0  0  0  0  0  0
   37.3750   31.4840   40.9590 N   0  0  0  0  0  0  0  0  0  0  0  0
   37.8160   32.6300   40.4110 C   0  0  0  0  0  0  0  0  0  0  0  0
   39.1210   32.9820   40.4740 N   0  0  0  0  0  0  0  0  0  0  0  0
   36.8630   33.4710   39.7540 N   0  0  0  0  0  0  0  0  0  0  0  0
   37.6870   29.4310   42.1630 N   0  0  0  0  0  0  0  0  0  0  0  0
   36.5470   28.6590   41.7080 C   0  0  0  0  0  0  0  0  0  0  0  0
   36.6960   27.3640   42.4800 C   0  0  0  0  0  0  0  0  0  0  0  0
   37.1130   27.9250   43.8410 C   0  0  0  0  0  0  0  0  0  0  0  0
   38.2740   28.8040   43.3570 C   0  0  0  0  0  0  0  0  0  0  0  0
   41.0676   32.4662   41.1485 H   0  0  0  0  0  0  0  0  0  0  0  0
   40.3080   30.3050   42.1967 H   0  0  0  0  0  0  0  0  0  0  0  0
   35.8723   33.1922   39.7126 H   0  0  0  0  0  0  0  0  0  0  0  0
   37.1676   34.3552   39.3224 H   0  0  0  0  0  0  0  0  0  0  0  0
   35.6014   29.1630   41.9565 H   0  0  0  0  0  0  0  0  0  0  0  0
   36.5212   28.5179   40.6174 H   0  0  0  0  0  0  0  0  0  0  0  0
   35.7475   26.8099   42.5381 H   0  0  0  0  0  0  0  0  0  0  0  0
   37.3940   26.6359   42.0410 H   0  0  0  0  0  0  0  0  0  0  0  0
   36.3125   28.5134   44.3131 H   0  0  0  0  0  0  0  0  0  0  0  0
   37.3567   27.1840   44.6166 H   0  0  0  0  0  0  0  0  0  0  0  0
   39.1565   28.1993   43.1009 H   0  0  0  0  0  0  0  0  0  0  0  0
   38.6379   29.5209   44.1078 H   0  0  0  0  0  0  0  0  0  0  0  0
  1  2  2  0
  3  2  1  0
  3  8  1  0
  4  3  2  0
  5  6  2  0
  5  4  1  0
  6  1  1  0
  7  5  1  0
  8 12  1  0
  9  8  1  0
  9 10  1  0
 10 11  1  0
 12 11  1  0
  1 13  1  0
  2 14  1  0
  7 15  1  0
  7 16  1  0
  9 17  1  0
  9 18  1  0
 10 19  1  0
 10 20  1  0
 11 21  1  0
 11 22  1  0
 12 23  1  0
 12 24  1  0
M  ISO  8  13  14  14  14  17  13  18  13  19  13  20  13  21  13  22  13
M  ISO  2  23  13  24  13
M  END
>  <minimizedAffinity>  (1) 
-4.62340498

>  <minimizedRMSD>  (1) 
3.81301427

$$$$
