
     RDKit          3D

 25 26  0  0  0  0  0  0  0  0999 V2000
   37.6470   31.5580   40.8410 C   0  0  0  0  0  0  0  0  0  0  0  0
   36.4200   30.8760   40.7330 C   0  0  0  0  0  0  0  0  0  0  0  0
   36.3630   29.5630   41.2010 C   0  0  0  0  0  0  0  0  0  0  0  0
   37.4990   29.0180   41.7360 N   0  0  0  0  0  0  0  0  0  0  0  0
   38.6470   29.7030   41.8200 C   0  0  0  0  0  0  0  0  0  0  0  0
   38.7480   30.9740   41.3810 N   0  0  0  0  0  0  0  0  0  0  0  0
   37.8560   32.9020   40.4060 N   0  0  0  0  0  0  0  0  0  0  0  0
   37.2830   33.7780   39.5530 C   0  0  0  0  0  0  0  0  0  0  0  0
   38.0030   34.9310   39.6140 N   0  0  0  0  0  0  0  0  0  0  0  0
   39.0070   34.7440   40.5040 C   0  0  0  0  0  0  0  0  0  0  0  0
   38.8870   33.4820   40.9730 N   0  0  0  0  0  0  0  0  0  0  0  0
   40.0440   35.7670   40.8760 C   0  0  0  0  0  0  0  0  0  0  0  0
   39.8050   37.0300   40.0470 C   0  0  0  0  0  0  0  0  0  0  0  0
   41.4440   35.2880   40.6590 C   0  0  0  0  0  0  0  0  0  0  0  0
   35.5361   31.3621   40.2944 H   0  0  0  0  0  0  0  0  0  0  0  0
   35.4310   28.9818   41.1417 H   0  0  0  0  0  0  0  0  0  0  0  0
   39.5305   29.2160   42.2586 H   0  0  0  0  0  0  0  0  0  0  0  0
   36.3986   33.5938   38.9254 H   0  0  0  0  0  0  0  0  0  0  0  0
   39.9402   35.9686   41.9524 H   0  0  0  0  0  0  0  0  0  0  0  0
   39.6432   37.8851   40.7198 H   0  0  0  0  0  0  0  0  0  0  0  0
   40.6824   37.2236   39.4125 H   0  0  0  0  0  0  0  0  0  0  0  0
   38.9175   36.8896   39.4125 H   0  0  0  0  0  0  0  0  0  0  0  0
   41.9296   35.1218   41.6319 H   0  0  0  0  0  0  0  0  0  0  0  0
   41.4253   34.3451   40.0927 H   0  0  0  0  0  0  0  0  0  0  0  0
   42.0068   36.0447   40.0927 H   0  0  0  0  0  0  0  0  0  0  0  0
  1  6  1  0
  2  1  2  0
  2  3  1  0
  3  4  2  0
  4  5  1  0
  6  5  2  0
  7  1  1  0
  7 11  1  0
  8  9  2  0
  8  7  1  0
  9 10  1  0
 10 12  1  0
 10 11  2  0
 13 12  1  0
 14 12  1  0
  2 15  1  0
  3 16  1  0
  5 17  1  0
  8 18  1  0
 12 19  1  0
 13 20  1  0
 13 21  1  0
 13 22  1  0
 14 23  1  0
 14 24  1  0
 14 25  1  0
M  ISO  8  15  14  16  14  17  14  18  14  19   8  20   8  21   8  22   8
M  ISO  3  23   8  24   8  25   8
M  END
>  <minimizedAffinity>  (1) 
-4.25610161

>  <minimizedRMSD>  (1) 
1.37638772

$$$$
