
     RDKit          3D

 18 19  0  0  0  0  0  0  0  0999 V2000
   38.1510   32.1600   40.8450 C   0  0  0  0  0  0  0  0  0  0  0  0
   36.8380   31.9070   40.4210 C   0  0  0  0  0  0  0  0  0  0  0  0
   36.2740   30.6660   40.7720 C   0  0  0  0  0  0  0  0  0  0  0  0
   37.0410   29.7990   41.4980 N   0  0  0  0  0  0  0  0  0  0  0  0
   38.2880   30.0820   41.8820 C   0  0  0  0  0  0  0  0  0  0  0  0
   38.8460   31.2590   41.5580 N   0  0  0  0  0  0  0  0  0  0  0  0
   38.8610   33.3670   40.5690 N   0  0  0  0  0  0  0  0  0  0  0  0
   38.5770   34.6320   40.1810 C   0  0  0  0  0  0  0  0  0  0  0  0
   39.7660   35.2980   40.1060 N   0  0  0  0  0  0  0  0  0  0  0  0
   40.7490   34.4350   40.4480 C   0  0  0  0  0  0  0  0  0  0  0  0
   40.1540   33.2600   40.7250 N   0  0  0  0  0  0  0  0  0  0  0  0
   42.1610   34.8090   40.4780 C   0  0  0  0  0  0  0  0  0  0  0  0
   42.5910   35.3220   41.5430 O   0  0  0  0  0  0  0  0  0  0  0  0
   36.2721   32.6484   39.8378 H   0  0  0  0  0  0  0  0  0  0  0  0
   35.2491   30.4027   40.4716 H   0  0  0  0  0  0  0  0  0  0  0  0
   38.8608   29.3471   42.4667 H   0  0  0  0  0  0  0  0  0  0  0  0
   37.5798   35.0442   39.9672 H   0  0  0  0  0  0  0  0  0  0  0  0
   42.8174   34.6494   39.6099 H   0  0  0  0  0  0  0  0  0  0  0  0
  1  6  2  0
  2  3  2  0
  2  1  1  0
  3  4  1  0
  4  5  2  0
  6  5  1  0
  7 11  1  0
  7  1  1  0
  8  7  1  0
  9  8  2  0
  9 10  1  0
 10 12  1  0
 10 11  2  0
 12 13  2  0
  2 14  1  0
  3 15  1  0
  5 16  1  0
  8 17  1  0
 12 18  1  0
M  ISO  5  14  14  15  14  16  14  17  14  18   6
M  END
>  <minimizedAffinity>  (1) 
-3.79588795

>  <minimizedRMSD>  (1) 
1.91614103

$$$$
