
     RDKit          3D

 20 21  0  0  0  0  0  0  0  0999 V2000
   38.6950   29.8340   42.5440 C   0  0  0  0  0  0  0  0  0  0  0  0
   39.4590   30.9260   42.0700 C   0  0  0  0  0  0  0  0  0  0  0  0
   38.8480   31.8560   41.2460 C   0  0  0  0  0  0  0  0  0  0  0  0
   37.5320   31.6910   40.9190 N   0  0  0  0  0  0  0  0  0  0  0  0
   36.8260   30.6360   41.3890 C   0  0  0  0  0  0  0  0  0  0  0  0
   37.3990   29.7040   42.2000 N   0  0  0  0  0  0  0  0  0  0  0  0
   35.4500   30.5220   41.0090 N   0  0  0  0  0  0  0  0  0  0  0  0
   39.5970   32.9950   40.7360 C   0  0  0  0  0  0  0  0  0  0  0  0
   38.9390   34.1820   40.4930 C   0  0  0  0  0  0  0  0  0  0  0  0
   39.7210   35.2160   40.0090 C   0  0  0  0  0  0  0  0  0  0  0  0
   41.0380   35.0470   39.7970 N   0  0  0  0  0  0  0  0  0  0  0  0
   41.6600   33.8590   40.0470 C   0  0  0  0  0  0  0  0  0  0  0  0
   40.9030   32.8620   40.5150 N   0  0  0  0  0  0  0  0  0  0  0  0
   39.1631   29.0845   43.1991 H   0  0  0  0  0  0  0  0  0  0  0  0
   40.5172   31.0342   42.3503 H   0  0  0  0  0  0  0  0  0  0  0  0
   34.8854   29.7308   41.3498 H   0  0  0  0  0  0  0  0  0  0  0  0
   35.0249   31.2312   40.3948 H   0  0  0  0  0  0  0  0  0  0  0  0
   37.8602   34.2997   40.6726 H   0  0  0  0  0  0  0  0  0  0  0  0
   39.2583   36.1907   39.7945 H   0  0  0  0  0  0  0  0  0  0  0  0
   42.7378   33.7273   39.8710 H   0  0  0  0  0  0  0  0  0  0  0  0
  2  1  2  0
  3  2  1  0
  4  3  2  0
  4  5  1  0
  5  6  2  0
  6  1  1  0
  7  5  1  0
  8  3  1  0
  9  8  2  0
 10  9  1  0
 11 10  2  0
 11 12  1  0
 12 13  2  0
 13  8  1  0
  1 14  1  0
  2 15  1  0
  7 16  1  0
  7 17  1  0
  9 18  1  0
 10 19  1  0
 12 20  1  0
M  ISO  5  14  14  15  14  18  14  19  14  20  14
M  END
>  <minimizedAffinity>  (1) 
-4.46882343

>  <minimizedRMSD>  (1) 
7.71779346

$$$$
