
     RDKit          3D

 35 39  0  0  0  0  0  0  0  0999 V2000
   41.1770   32.4680   39.6830 C   0  0  0  0  0  0  0  0  0  0  0  0
   42.3330   32.0680   39.0770 C   0  0  0  0  0  0  0  0  0  0  0  0
   43.4880   32.7750   39.2950 C   0  0  0  0  0  0  0  0  0  0  0  0
   43.4970   33.8470   40.0910 N   0  0  0  0  0  0  0  0  0  0  0  0
   42.3690   34.2660   40.7040 C   0  0  0  0  0  0  0  0  0  0  0  0
   41.2140   33.5680   40.4920 N   0  0  0  0  0  0  0  0  0  0  0  0
   42.3140   35.4110   41.5720 N   0  0  0  0  0  0  0  0  0  0  0  0
   41.4690   36.4490   41.7190 C   0  0  0  0  0  0  0  0  0  0  0  0
   41.9330   37.2320   42.7170 N   0  0  0  0  0  0  0  0  0  0  0  0
   43.0720   36.6720   43.1870 C   0  0  0  0  0  0  0  0  0  0  0  0
   43.8480   37.1780   44.2160 C   0  0  0  0  0  0  0  0  0  0  0  0
   44.9520   36.4350   44.5110 N   0  0  0  0  0  0  0  0  0  0  0  0
   45.2280   35.2990   43.8270 C   0  0  0  0  0  0  0  0  0  0  0  0
   44.4250   34.8750   42.8430 N   0  0  0  0  0  0  0  0  0  0  0  0
   43.3150   35.5300   42.4730 C   0  0  0  0  0  0  0  0  0  0  0  0
   38.2020   30.4230   39.8370 N   0  0  0  0  0  0  0  0  0  0  0  0
   37.7740   31.4160   39.0430 C   0  0  0  0  0  0  0  0  0  0  0  0
   38.7820   32.2930   38.8730 N   0  0  0  0  0  0  0  0  0  0  0  0
   39.8420   31.8370   39.5710 C   0  0  0  0  0  0  0  0  0  0  0  0
   39.4670   30.6670   40.1670 N   0  0  0  0  0  0  0  0  0  0  0  0
   37.7010   29.2160   40.4100 C   0  0  0  0  0  0  0  0  0  0  0  0
   36.9930   29.1760   41.6350 C   0  0  0  0  0  0  0  0  0  0  0  0
   36.5630   27.9240   42.0730 C   0  0  0  0  0  0  0  0  0  0  0  0
   36.8460   26.8230   41.3000 N   0  0  0  0  0  0  0  0  0  0  0  0
   37.5230   26.9170   40.1420 C   0  0  0  0  0  0  0  0  0  0  0  0
   37.9600   28.1030   39.6770 N   0  0  0  0  0  0  0  0  0  0  0  0
   42.3382   31.1862   38.4194 H   0  0  0  0  0  0  0  0  0  0  0  0
   44.4202   32.4542   38.8071 H   0  0  0  0  0  0  0  0  0  0  0  0
   40.5584   36.6283   41.1285 H   0  0  0  0  0  0  0  0  0  0  0  0
   43.5942   38.1045   44.7520 H   0  0  0  0  0  0  0  0  0  0  0  0
   46.1249   34.7162   44.0836 H   0  0  0  0  0  0  0  0  0  0  0  0
   36.7687   31.4999   38.6045 H   0  0  0  0  0  0  0  0  0  0  0  0
   36.7916   30.0893   42.2140 H   0  0  0  0  0  0  0  0  0  0  0  0
   36.0088   27.8195   43.0174 H   0  0  0  0  0  0  0  0  0  0  0  0
   37.7244   26.0047   39.5614 H   0  0  0  0  0  0  0  0  0  0  0  0
  1  6  2  0
  2  3  2  0
  2  1  1  0
  3  4  1  0
  4  5  2  0
  5  7  1  0
  6  5  1  0
  7  8  1  0
  7 15  1  0
  8  9  2  0
  9 10  1  0
 10 11  2  0
 11 12  1  0
 13 12  2  0
 14 13  1  0
 15 14  2  0
 15 10  1  0
 16 20  1  0
 16 21  1  0
 17 16  1  0
 18 17  2  0
 18 19  1  0
 19  1  1  0
 19 20  2  0
 21 22  2  0
 22 23  1  0
 24 23  2  0
 25 24  1  0
 26 25  2  0
 26 21  1  0
  2 27  1  0
  3 28  1  0
  8 29  1  0
 11 30  1  0
 13 31  1  0
 17 32  1  0
 22 33  1  0
 23 34  1  0
 25 35  1  0
M  ISO  8  27  14  28  14  29  14  30  14  31  14  32  14  33  14  34  14
M  ISO  1  35  14
M  END
>  <minimizedAffinity>  (1) 
-6.44107914

>  <minimizedRMSD>  (1) 
3.21820164

$$$$
