
     RDKit          3D

 34 37  0  0  0  0  0  0  0  0999 V2000
   39.9540   34.2150   40.1880 C   0  0  0  0  0  0  0  0  0  0  0  0
   39.0030   35.1870   40.2960 C   0  0  0  0  0  0  0  0  0  0  0  0
   37.7250   34.9470   39.8450 C   0  0  0  0  0  0  0  0  0  0  0  0
   37.4060   33.7590   39.2970 N   0  0  0  0  0  0  0  0  0  0  0  0
   38.3330   32.7980   39.1860 C   0  0  0  0  0  0  0  0  0  0  0  0
   39.5930   33.0250   39.6260 N   0  0  0  0  0  0  0  0  0  0  0  0
   38.0050   31.5370   38.6070 N   0  0  0  0  0  0  0  0  0  0  0  0
   36.8720   30.9160   38.9770 C   0  0  0  0  0  0  0  0  0  0  0  0
   36.4900   29.7010   38.4650 C   0  0  0  0  0  0  0  0  0  0  0  0
   37.3440   29.1510   37.5420 C   0  0  0  0  0  0  0  0  0  0  0  0
   37.1670   28.0460   36.9610 O   0  0  0  0  0  0  0  0  0  0  0  0
   38.4800   29.7710   37.1690 N   0  0  0  0  0  0  0  0  0  0  0  0
   38.8270   30.9800   37.7010 C   0  0  0  0  0  0  0  0  0  0  0  0
   39.8890   31.5630   37.3540 O   0  0  0  0  0  0  0  0  0  0  0  0
   43.1810   34.9850   41.6060 N   0  0  0  0  0  0  0  0  0  0  0  0
   43.4920   33.9230   40.8460 C   0  0  0  0  0  0  0  0  0  0  0  0
   42.3700   33.5000   40.2300 N   0  0  0  0  0  0  0  0  0  0  0  0
   41.3570   34.3180   40.6220 C   0  0  0  0  0  0  0  0  0  0  0  0
   41.8860   35.2280   41.4710 N   0  0  0  0  0  0  0  0  0  0  0  0
   43.8350   35.8950   42.4870 C   0  0  0  0  0  0  0  0  0  0  0  0
   43.1720   36.6780   43.4350 C   0  0  0  0  0  0  0  0  0  0  0  0
   43.9210   37.5270   44.2370 C   0  0  0  0  0  0  0  0  0  0  0  0
   45.2750   37.5420   44.0430 N   0  0  0  0  0  0  0  0  0  0  0  0
   45.8760   36.7870   43.1350 C   0  0  0  0  0  0  0  0  0  0  0  0
   45.1960   35.9430   42.3280 N   0  0  0  0  0  0  0  0  0  0  0  0
   39.2568   36.1598   40.7423 H   0  0  0  0  0  0  0  0  0  0  0  0
   36.9587   35.7312   39.9328 H   0  0  0  0  0  0  0  0  0  0  0  0
   36.2237   31.4016   39.7212 H   0  0  0  0  0  0  0  0  0  0  0  0
   35.5603   29.2009   38.7742 H   0  0  0  0  0  0  0  0  0  0  0  0
   39.0957   29.3271   36.4727 H   0  0  0  0  0  0  0  0  0  0  0  0
   44.4913   33.4747   40.7435 H   0  0  0  0  0  0  0  0  0  0  0  0
   42.0788   36.6226   43.5434 H   0  0  0  0  0  0  0  0  0  0  0  0
   43.4451   38.1626   44.9983 H   0  0  0  0  0  0  0  0  0  0  0  0
   46.9696   36.8496   43.0343 H   0  0  0  0  0  0  0  0  0  0  0  0
  1  2  2  0
  1 18  1  0
  3  2  1  0
  4  3  2  0
  5  4  1  0
  5  6  2  0
  6  1  1  0
  7  8  1  0
  7  5  1  0
  9  8  2  0
 10  9  1  0
 11 10  2  0
 12 10  1  0
 12 13  1  0
 13  7  1  0
 14 13  2  0
 15 20  1  0
 16 15  1  0
 17 18  1  0
 17 16  2  0
 18 19  2  0
 19 15  1  0
 20 21  2  0
 21 22  1  0
 23 22  2  0
 24 23  1  0
 25 20  1  0
 25 24  2  0
  2 26  1  0
  3 27  1  0
  8 28  1  0
  9 29  1  0
 12 30  1  0
 16 31  1  0
 21 32  1  0
 22 33  1  0
 24 34  1  0
M  ISO  8  26  14  27  14  28  14  29  14  30   9  31  14  32  14  33  14
M  ISO  1  34  14
M  END
>  <minimizedAffinity>  (1) 
-6.40260458

>  <minimizedRMSD>  (1) 
9.07956314

$$$$
