
     RDKit          3D

 31 33  0  0  0  0  0  0  0  0999 V2000
   42.6780   34.1000   40.8060 C   0  0  0  0  0  0  0  0  0  0  0  0
   43.9600   33.9220   40.3090 C   0  0  0  0  0  0  0  0  0  0  0  0
   44.9880   34.6260   40.9290 C   0  0  0  0  0  0  0  0  0  0  0  0
   44.7610   35.4450   41.9650 N   0  0  0  0  0  0  0  0  0  0  0  0
   43.5130   35.6010   42.4290 C   0  0  0  0  0  0  0  0  0  0  0  0
   42.4700   34.9460   41.8720 N   0  0  0  0  0  0  0  0  0  0  0  0
   43.2390   36.4670   43.5340 N   0  0  0  0  0  0  0  0  0  0  0  0
   44.2810   36.9520   44.3830 C   0  0  0  0  0  0  0  0  0  0  0  0
   45.4550   37.1000   43.8220 N   0  0  0  0  0  0  0  0  0  0  0  0
   43.9580   37.2300   45.7610 N   0  0  0  0  0  0  0  0  0  0  0  0
   46.2790   37.4550   44.3880 H   0  0  0  0  0  0  0  0  0  0  0  0
   39.6440   32.2440   40.1730 N   0  0  0  0  0  0  0  0  0  0  0  0
   39.8670   32.7770   38.9610 C   0  0  0  0  0  0  0  0  0  0  0  0
   40.9950   33.5180   39.0250 N   0  0  0  0  0  0  0  0  0  0  0  0
   41.4650   33.4380   40.2900 C   0  0  0  0  0  0  0  0  0  0  0  0
   40.6140   32.6400   40.9910 N   0  0  0  0  0  0  0  0  0  0  0  0
   38.6930   31.3990   40.8120 C   0  0  0  0  0  0  0  0  0  0  0  0
   39.0280   30.4130   41.7550 C   0  0  0  0  0  0  0  0  0  0  0  0
   37.9990   29.6630   42.2920 C   0  0  0  0  0  0  0  0  0  0  0  0
   36.7100   29.9170   41.8800 N   0  0  0  0  0  0  0  0  0  0  0  0
   36.4390   30.8610   40.9840 C   0  0  0  0  0  0  0  0  0  0  0  0
   37.4140   31.6090   40.4400 N   0  0  0  0  0  0  0  0  0  0  0  0
   44.1566   33.2517   39.4593 H   0  0  0  0  0  0  0  0  0  0  0  0
   46.0166   34.5067   40.5579 H   0  0  0  0  0  0  0  0  0  0  0  0
   42.2662   36.7480   43.7224 H   0  0  0  0  0  0  0  0  0  0  0  0
   44.6858   37.5807   46.3999 H   0  0  0  0  0  0  0  0  0  0  0  0
   42.9996   37.0778   46.1061 H   0  0  0  0  0  0  0  0  0  0  0  0
   39.2391   32.6348   38.0691 H   0  0  0  0  0  0  0  0  0  0  0  0
   40.0726   30.2439   42.0553 H   0  0  0  0  0  0  0  0  0  0  0  0
   38.2058   28.8781   43.0344 H   0  0  0  0  0  0  0  0  0  0  0  0
   35.3955   31.0333   40.6818 H   0  0  0  0  0  0  0  0  0  0  0  0
  1  6  1  0
  2  1  2  0
  2  3  1  0
  3  4  2  0
  4  5  1  0
  5  7  1  0
  6  5  2  0
  7  8  1  0
  8 10  1  0
  9  8  2  0
  9 11  1  0
 12 17  1  0
 12 16  1  0
 13 14  2  0
 13 12  1  0
 14 15  1  0
 15  1  1  0
 15 16  2  0
 17 18  2  0
 18 19  1  0
 20 19  2  0
 21 20  1  0
 22 17  1  0
 22 21  2  0
  2 23  1  0
  3 24  1  0
  7 25  1  0
 10 26  1  0
 10 27  1  0
 13 28  1  0
 18 29  1  0
 19 30  1  0
 21 31  1  0
M  ISO  6  23  14  24  14  28  14  29  14  30  14  31  14
M  END
>  <minimizedAffinity>  (1) 
-6.15144539

>  <minimizedRMSD>  (1) 
2.34437585

$$$$
