
     RDKit          3D

 29 32  0  0  0  0  0  0  0  0999 V2000
   38.4420   33.3340   39.9310 N   0  0  0  0  0  0  0  0  0  0  0  0
   38.3290   34.6720   40.0370 C   0  0  0  0  0  0  0  0  0  0  0  0
   39.5460   35.1800   40.2790 N   0  0  0  0  0  0  0  0  0  0  0  0
   40.4320   34.1400   40.3260 C   0  0  0  0  0  0  0  0  0  0  0  0
   39.7200   33.0040   40.1070 N   0  0  0  0  0  0  0  0  0  0  0  0
   37.6110   32.2030   39.6940 C   0  0  0  0  0  0  0  0  0  0  0  0
   37.4360   31.6110   38.4350 C   0  0  0  0  0  0  0  0  0  0  0  0
   36.5970   30.5110   38.3350 C   0  0  0  0  0  0  0  0  0  0  0  0
   35.9900   30.0690   39.4740 N   0  0  0  0  0  0  0  0  0  0  0  0
   36.1760   30.6520   40.6580 C   0  0  0  0  0  0  0  0  0  0  0  0
   36.9830   31.7270   40.8090 N   0  0  0  0  0  0  0  0  0  0  0  0
   41.8760   34.2530   40.5690 C   0  0  0  0  0  0  0  0  0  0  0  0
   42.8570   33.5840   39.8740 C   0  0  0  0  0  0  0  0  0  0  0  0
   44.1750   33.8110   40.2390 C   0  0  0  0  0  0  0  0  0  0  0  0
   44.5080   34.6540   41.2390 N   0  0  0  0  0  0  0  0  0  0  0  0
   43.5400   35.2970   41.9050 C   0  0  0  0  0  0  0  0  0  0  0  0
   42.2370   35.1040   41.5810 N   0  0  0  0  0  0  0  0  0  0  0  0
   43.8520   36.2180   42.9940 C   0  0  0  0  0  0  0  0  0  0  0  0
   43.0290   36.8270   43.8650 N   0  0  0  0  0  0  0  0  0  0  0  0
   43.7210   37.5840   44.6950 O   0  0  0  0  0  0  0  0  0  0  0  0
   44.9950   37.4850   44.3860 C   0  0  0  0  0  0  0  0  0  0  0  0
   45.0910   36.6460   43.3390 N   0  0  0  0  0  0  0  0  0  0  0  0
   37.3975   35.2492   39.9414 H   0  0  0  0  0  0  0  0  0  0  0  0
   37.9514   32.0091   37.5485 H   0  0  0  0  0  0  0  0  0  0  0  0
   36.4268   30.0118   37.3697 H   0  0  0  0  0  0  0  0  0  0  0  0
   35.6574   30.2466   41.5393 H   0  0  0  0  0  0  0  0  0  0  0  0
   42.6042   32.8926   39.0566 H   0  0  0  0  0  0  0  0  0  0  0  0
   44.9754   33.2870   39.6960 H   0  0  0  0  0  0  0  0  0  0  0  0
   45.8290   37.9945   44.8908 H   0  0  0  0  0  0  0  0  0  0  0  0
  1  2  1  0
  1  5  1  0
  2  3  2  0
  3  4  1  0
  4 12  1  0
  5  4  2  0
  6  1  1  0
  6 11  1  0
  7  6  2  0
  8  7  1  0
  8  9  2  0
  9 10  1  0
 10 11  2  0
 12 17  2  0
 13 14  2  0
 13 12  1  0
 14 15  1  0
 15 16  2  0
 16 18  1  0
 17 16  1  0
 18 22  1  0
 18 19  2  0
 19 20  1  0
 21 20  1  0
 22 21  2  0
  2 23  1  0
  7 24  1  0
  8 25  1  0
 10 26  1  0
 13 27  1  0
 14 28  1  0
 21 29  1  0
M  ISO  7  23  14  24  14  25  14  26  14  27  14  28  14  29  14
M  END
>  <minimizedAffinity>  (1) 
-5.99081373

>  <minimizedRMSD>  (1) 
2.10531545

$$$$
