
     RDKit          3D

 30 33  0  0  0  0  0  0  0  0999 V2000
   41.8710   34.5500   40.1330 N   0  0  0  0  0  0  0  0  0  0  0  0
   42.0820   34.4780   38.8100 C   0  0  0  0  0  0  0  0  0  0  0  0
   41.2160   33.5960   38.2890 N   0  0  0  0  0  0  0  0  0  0  0  0
   40.4590   33.1180   39.3120 C   0  0  0  0  0  0  0  0  0  0  0  0
   40.8790   33.7190   40.4440 N   0  0  0  0  0  0  0  0  0  0  0  0
   39.3690   32.1150   39.1930 C   0  0  0  0  0  0  0  0  0  0  0  0
   38.5480   31.9440   38.1160 C   0  0  0  0  0  0  0  0  0  0  0  0
   37.5850   30.9550   38.1850 C   0  0  0  0  0  0  0  0  0  0  0  0
   37.4440   30.1730   39.2730 N   0  0  0  0  0  0  0  0  0  0  0  0
   38.2540   30.3440   40.3310 C   0  0  0  0  0  0  0  0  0  0  0  0
   39.2040   31.3080   40.2840 N   0  0  0  0  0  0  0  0  0  0  0  0
   38.2040   29.5840   41.5340 N   0  0  0  0  0  0  0  0  0  0  0  0
   39.1920   28.7960   42.0380 C   0  0  0  0  0  0  0  0  0  0  0  0
   38.7970   28.2190   43.2050 N   0  0  0  0  0  0  0  0  0  0  0  0
   37.5470   28.6680   43.4090 C   0  0  0  0  0  0  0  0  0  0  0  0
   37.1990   29.4960   42.3850 N   0  0  0  0  0  0  0  0  0  0  0  0
   42.3890   35.2400   41.2710 C   0  0  0  0  0  0  0  0  0  0  0  0
   43.5630   34.8670   41.9470 C   0  0  0  0  0  0  0  0  0  0  0  0
   43.9510   35.6310   43.0420 C   0  0  0  0  0  0  0  0  0  0  0  0
   43.1710   36.6940   43.3930 N   0  0  0  0  0  0  0  0  0  0  0  0
   42.0670   37.0160   42.7280 C   0  0  0  0  0  0  0  0  0  0  0  0
   41.6400   36.3110   41.6550 N   0  0  0  0  0  0  0  0  0  0  0  0
   42.8375   35.0462   38.2476 H   0  0  0  0  0  0  0  0  0  0  0  0
   38.6497   32.5743   37.2202 H   0  0  0  0  0  0  0  0  0  0  0  0
   36.9142   30.8019   37.3267 H   0  0  0  0  0  0  0  0  0  0  0  0
   40.1746   28.6461   41.5669 H   0  0  0  0  0  0  0  0  0  0  0  0
   36.9074   28.4085   44.2655 H   0  0  0  0  0  0  0  0  0  0  0  0
   44.1554   33.9994   41.6208 H   0  0  0  0  0  0  0  0  0  0  0  0
   44.8609   35.3854   43.6092 H   0  0  0  0  0  0  0  0  0  0  0  0
   41.4803   37.8849   43.0608 H   0  0  0  0  0  0  0  0  0  0  0  0
  1  5  1  0
  1 17  1  0
  2  1  1  0
  3  2  2  0
  3  4  1  0
  4  5  2  0
  6  4  1  0
  6 11  2  0
  7  8  2  0
  7  6  1  0
  8  9  1  0
  9 10  2  0
 10 12  1  0
 11 10  1  0
 12 13  1  0
 12 16  1  0
 13 14  2  0
 14 15  1  0
 16 15  2  0
 17 22  1  0
 17 18  2  0
 18 19  1  0
 19 20  2  0
 21 20  1  0
 22 21  2  0
  2 23  1  0
  7 24  1  0
  8 25  1  0
 13 26  1  0
 15 27  1  0
 18 28  1  0
 19 29  1  0
 21 30  1  0
M  ISO  8  23  14  24  14  25  14  26  14  27  14  28  14  29  14  30  14
M  END
>  <minimizedAffinity>  (1) 
-5.90212297

>  <minimizedRMSD>  (1) 
7.90765095

$$$$
