
     RDKit          3D

 33 35  0  0  0  0  0  0  0  0999 V2000
   37.6440   31.4400   40.7520 N   0  0  0  0  0  0  0  0  0  0  0  0
   36.9380   31.9580   39.7350 C   0  0  0  0  0  0  0  0  0  0  0  0
   37.4320   33.1770   39.4490 N   0  0  0  0  0  0  0  0  0  0  0  0
   38.4540   33.4080   40.3040 C   0  0  0  0  0  0  0  0  0  0  0  0
   38.5760   32.3110   41.1140 N   0  0  0  0  0  0  0  0  0  0  0  0
   37.6740   30.2450   41.5340 C   0  0  0  0  0  0  0  0  0  0  0  0
   38.6890   29.9450   42.4580 C   0  0  0  0  0  0  0  0  0  0  0  0
   38.5930   28.7450   43.1520 C   0  0  0  0  0  0  0  0  0  0  0  0
   37.5180   27.9280   42.8950 N   0  0  0  0  0  0  0  0  0  0  0  0
   36.5750   28.2560   42.0050 C   0  0  0  0  0  0  0  0  0  0  0  0
   36.6320   29.4070   41.3140 N   0  0  0  0  0  0  0  0  0  0  0  0
   39.2900   34.6250   40.3550 C   0  0  0  0  0  0  0  0  0  0  0  0
   38.8990   35.8920   39.9810 C   0  0  0  0  0  0  0  0  0  0  0  0
   39.8100   36.9210   40.0940 C   0  0  0  0  0  0  0  0  0  0  0  0
   41.0520   36.7100   40.5570 N   0  0  0  0  0  0  0  0  0  0  0  0
   41.4250   35.4740   40.9190 C   0  0  0  0  0  0  0  0  0  0  0  0
   40.5660   34.4300   40.8260 N   0  0  0  0  0  0  0  0  0  0  0  0
   42.7990   35.2880   41.4220 C   0  0  0  0  0  0  0  0  0  0  0  0
   43.0800   36.1200   42.6520 C   0  0  0  0  0  0  0  0  0  0  0  0
   42.9980   33.8450   41.7680 C   0  0  0  0  0  0  0  0  0  0  0  0
   36.0972   31.4687   39.2216 H   0  0  0  0  0  0  0  0  0  0  0  0
   39.5291   30.6350   42.6259 H   0  0  0  0  0  0  0  0  0  0  0  0
   39.3577   28.4563   43.8882 H   0  0  0  0  0  0  0  0  0  0  0  0
   35.7338   27.5680   41.8349 H   0  0  0  0  0  0  0  0  0  0  0  0
   37.8837   36.0785   39.6011 H   0  0  0  0  0  0  0  0  0  0  0  0
   39.5121   37.9377   39.7980 H   0  0  0  0  0  0  0  0  0  0  0  0
   43.4893   35.6115   40.6290 H   0  0  0  0  0  0  0  0  0  0  0  0
   42.8781   35.5222   43.5530 H   0  0  0  0  0  0  0  0  0  0  0  0
   44.1341   36.4343   42.6491 H   0  0  0  0  0  0  0  0  0  0  0  0
   42.4323   37.0091   42.6491 H   0  0  0  0  0  0  0  0  0  0  0  0
   43.0140   33.7290   42.8618 H   0  0  0  0  0  0  0  0  0  0  0  0
   42.1734   33.2502   41.3482 H   0  0  0  0  0  0  0  0  0  0  0  0
   43.9528   33.4956   41.3482 H   0  0  0  0  0  0  0  0  0  0  0  0
  1  5  1  0
  1  6  1  0
  2  1  1  0
  3  2  2  0
  3  4  1  0
  4 12  1  0
  4  5  2  0
  6  7  2  0
  7  8  1  0
  9  8  2  0
 10  9  1  0
 11  6  1  0
 11 10  2  0
 12 17  2  0
 13 14  2  0
 13 12  1  0
 14 15  1  0
 15 16  2  0
 16 18  1  0
 17 16  1  0
 18 20  1  0
 18 19  1  0
  2 21  1  0
  7 22  1  0
  8 23  1  0
 10 24  1  0
 13 25  1  0
 14 26  1  0
 18 27  1  0
 19 28  1  0
 19 29  1  0
 19 30  1  0
 20 31  1  0
 20 32  1  0
 20 33  1  0
M  ISO  8  21  14  22  14  23  14  24  14  25  14  26  14  27   8  28   8
M  ISO  5  29   8  30   8  31   8  32   8  33   8
M  END
>  <minimizedAffinity>  (1) 
-5.83710861

>  <minimizedRMSD>  (1) 
3.19432425

$$$$
