
     RDKit          3D

 19 19  0  0  0  0  0  0  0  0999 V2000
   39.7160   29.6720   42.2740 C   0  0  0  0  0  0  0  0  0  0  0  0
   40.4670   28.4780   42.2750 C   0  0  0  0  0  0  0  0  0  0  0  0
   39.9530   27.3830   42.9500 C   0  0  0  0  0  0  0  0  0  0  0  0
   38.7460   27.5140   43.5770 N   0  0  0  0  0  0  0  0  0  0  0  0
   38.0570   28.6630   43.5570 C   0  0  0  0  0  0  0  0  0  0  0  0
   38.5390   29.7540   42.9030 N   0  0  0  0  0  0  0  0  0  0  0  0
   36.7970   28.7220   44.2390 N   0  0  0  0  0  0  0  0  0  0  0  0
   40.6130   26.1100   43.0300 N   0  0  0  0  0  0  0  0  0  0  0  0
   41.7530   25.9040   43.8890 C   0  0  0  0  0  0  0  0  0  0  0  0
   41.7160   26.6760   44.9240 N   0  0  0  0  0  0  0  0  0  0  0  0
   42.6760   24.9140   43.4400 N   0  0  0  0  0  0  0  0  0  0  0  0
   42.4800   26.6110   45.6010 H   0  0  0  0  0  0  0  0  0  0  0  0
   40.1067   30.5537   41.7449 H   0  0  0  0  0  0  0  0  0  0  0  0
   41.4340   28.4181   41.7542 H   0  0  0  0  0  0  0  0  0  0  0  0
   36.2505   29.5951   44.2366 H   0  0  0  0  0  0  0  0  0  0  0  0
   36.4385   27.8913   44.7313 H   0  0  0  0  0  0  0  0  0  0  0  0
   40.2640   25.3258   42.4606 H   0  0  0  0  0  0  0  0  0  0  0  0
   43.5179   24.7051   43.9955 H   0  0  0  0  0  0  0  0  0  0  0  0
   42.5008   24.4078   42.5602 H   0  0  0  0  0  0  0  0  0  0  0  0
  1  2  2  0
  1  6  1  0
  2  3  1  0
  3  8  1  0
  3  4  2  0
  5  4  1  0
  5  7  1  0
  6  5  2  0
  8  9  1  0
  9 10  2  0
 10 12  1  0
 11  9  1  0
  1 13  1  0
  2 14  1  0
  7 15  1  0
  7 16  1  0
  8 17  1  0
 11 18  1  0
 11 19  1  0
M  ISO  2  13  14  14  14
M  END
>  <minimizedAffinity>  (1) 
-4.4587121

>  <minimizedRMSD>  (1) 
4.41645861

$$$$
