
     RDKit          3D

 15 15  0  0  0  0  0  0  0  0999 V2000
   39.4240   30.3790   42.0970 C   0  0  0  0  0  0  0  0  0  0  0  0
   38.9830   29.3440   42.9590 C   0  0  0  0  0  0  0  0  0  0  0  0
   37.6370   29.0190   42.9790 C   0  0  0  0  0  0  0  0  0  0  0  0
   36.7830   29.7180   42.1590 N   0  0  0  0  0  0  0  0  0  0  0  0
   37.2230   30.6900   41.3560 C   0  0  0  0  0  0  0  0  0  0  0  0
   38.5240   31.0290   41.3130 N   0  0  0  0  0  0  0  0  0  0  0  0
   36.2720   31.3720   40.5310 N   0  0  0  0  0  0  0  0  0  0  0  0
   37.2130   27.9480   43.8780 C   0  0  0  0  0  0  0  0  0  0  0  0
   36.7730   28.5530   45.0560 F   0  0  0  0  0  0  0  0  0  0  0  0
   36.2160   27.1560   43.3910 F   0  0  0  0  0  0  0  0  0  0  0  0
   38.3480   27.2030   44.2260 F   0  0  0  0  0  0  0  0  0  0  0  0
   40.4884   30.6546   42.0627 H   0  0  0  0  0  0  0  0  0  0  0  0
   39.6976   28.8081   43.6011 H   0  0  0  0  0  0  0  0  0  0  0  0
   36.5830   32.1259   39.9019 H   0  0  0  0  0  0  0  0  0  0  0  0
   35.2769   31.1087   40.5666 H   0  0  0  0  0  0  0  0  0  0  0  0
  1  2  2  0
  2  3  1  0
  3  8  1  0
  4  3  2  0
  5  4  1  0
  6  5  2  0
  6  1  1  0
  7  5  1  0
  8 11  1  0
  8  9  1  0
 10  8  1  0
  1 12  1  0
  2 13  1  0
  7 14  1  0
  7 15  1  0
M  ISO  2  12  14  13  14
M  END
>  <minimizedAffinity>  (1) 
-4.43556547

>  <minimizedRMSD>  (1) 
2.07769012

$$$$
