
     RDKit          3D

 19 20  0  0  0  0  0  0  0  0999 V2000
   39.9010   31.7780   41.3910 C   0  0  0  0  0  0  0  0  0  0  0  0
   39.4390   30.5870   42.0310 C   0  0  0  0  0  0  0  0  0  0  0  0
   38.0970   30.2720   41.9190 C   0  0  0  0  0  0  0  0  0  0  0  0
   37.2780   31.1030   41.2110 N   0  0  0  0  0  0  0  0  0  0  0  0
   37.7510   32.2210   40.6200 C   0  0  0  0  0  0  0  0  0  0  0  0
   39.0540   32.5640   40.7040 N   0  0  0  0  0  0  0  0  0  0  0  0
   36.8160   33.0300   39.8970 N   0  0  0  0  0  0  0  0  0  0  0  0
   37.5260   29.0800   42.5340 C   0  0  0  0  0  0  0  0  0  0  0  0
   37.2480   27.9020   41.8740 C   0  0  0  0  0  0  0  0  0  0  0  0
   36.7330   27.0830   42.8380 N   0  0  0  0  0  0  0  0  0  0  0  0
   36.7190   27.7730   44.0040 C   0  0  0  0  0  0  0  0  0  0  0  0
   37.2060   29.0170   43.8410 N   0  0  0  0  0  0  0  0  0  0  0  0
   40.9632   32.0553   41.4613 H   0  0  0  0  0  0  0  0  0  0  0  0
   40.1285   29.9414   42.5947 H   0  0  0  0  0  0  0  0  0  0  0  0
   35.8259   32.7509   39.8448 H   0  0  0  0  0  0  0  0  0  0  0  0
   37.1337   33.8909   39.4293 H   0  0  0  0  0  0  0  0  0  0  0  0
   37.4056   27.6731   40.8097 H   0  0  0  0  0  0  0  0  0  0  0  0
   36.3564   27.3686   44.9605 H   0  0  0  0  0  0  0  0  0  0  0  0
   37.3103   29.7534   44.5535 H   0  0  0  0  0  0  0  0  0  0  0  0
  1  2  2  0
  3  2  1  0
  3  8  1  0
  4  3  2  0
  5  6  2  0
  5  4  1  0
  6  1  1  0
  7  5  1  0
  8 12  1  0
  9  8  2  0
  9 10  1  0
 10 11  2  0
 12 11  1  0
  1 13  1  0
  2 14  1  0
  7 15  1  0
  7 16  1  0
  9 17  1  0
 11 18  1  0
 12 19  1  0
M  ISO  5  13  14  14  14  17  14  18  14  19   9
M  END
>  <minimizedAffinity>  (1) 
-4.41880798

>  <minimizedRMSD>  (1) 
3.35537553

$$$$
