
     RDKit          3D

 42 46  0  0  0  0  0  0  0  0999 V2000
   36.8220   31.3950   39.9000 C   0  0  0  0  0  0  0  0  0  0  0  0
   36.4670   30.7220   41.0520 C   0  0  0  0  0  0  0  0  0  0  0  0
   35.8490   29.4800   40.9110 C   0  0  0  0  0  0  0  0  0  0  0  0
   35.6350   29.0120   39.6640 N   0  0  0  0  0  0  0  0  0  0  0  0
   35.9770   29.6610   38.5660 C   0  0  0  0  0  0  0  0  0  0  0  0
   36.5680   30.8510   38.7030 N   0  0  0  0  0  0  0  0  0  0  0  0
   35.8040   29.2710   37.1700 C   0  0  0  0  0  0  0  0  0  0  0  0
   36.8990   29.1200   36.3200 C   0  0  0  0  0  0  0  0  0  0  0  0
   36.8280   28.7620   35.0100 C   0  0  0  0  0  0  0  0  0  0  0  0
   35.6000   28.5180   34.4410 C   0  0  0  0  0  0  0  0  0  0  0  0
   34.4860   28.6490   35.2200 C   0  0  0  0  0  0  0  0  0  0  0  0
   33.2620   28.4050   34.6420 C   0  0  0  0  0  0  0  0  0  0  0  0
   32.0810   28.5160   35.3690 C   0  0  0  0  0  0  0  0  0  0  0  0
   32.2290   28.8850   36.6950 C   0  0  0  0  0  0  0  0  0  0  0  0
   33.4680   29.1220   37.2440 C   0  0  0  0  0  0  0  0  0  0  0  0
   34.6210   29.0110   36.5260 C   0  0  0  0  0  0  0  0  0  0  0  0
   37.4620   32.6730   39.8730 N   0  0  0  0  0  0  0  0  0  0  0  0
   37.1790   33.9330   39.4940 C   0  0  0  0  0  0  0  0  0  0  0  0
   38.2560   34.6990   39.7440 N   0  0  0  0  0  0  0  0  0  0  0  0
   39.2110   33.9050   40.2810 C   0  0  0  0  0  0  0  0  0  0  0  0
   38.7050   32.6370   40.3580 N   0  0  0  0  0  0  0  0  0  0  0  0
   40.5640   34.3220   40.7140 C   0  0  0  0  0  0  0  0  0  0  0  0
   41.7040   33.5580   40.6410 C   0  0  0  0  0  0  0  0  0  0  0  0
   42.8730   34.1290   41.0980 C   0  0  0  0  0  0  0  0  0  0  0  0
   42.9230   35.3580   41.5920 N   0  0  0  0  0  0  0  0  0  0  0  0
   41.7930   36.1100   41.6610 C   0  0  0  0  0  0  0  0  0  0  0  0
   40.6190   35.5970   41.2260 N   0  0  0  0  0  0  0  0  0  0  0  0
   41.7500   37.4340   42.1730 N   0  0  0  0  0  0  0  0  0  0  0  0
   36.6646   31.1503   42.0457 H   0  0  0  0  0  0  0  0  0  0  0  0
   35.5442   28.8975   41.7929 H   0  0  0  0  0  0  0  0  0  0  0  0
   37.8979   29.3048   36.7419 H   0  0  0  0  0  0  0  0  0  0  0  0
   37.7454   28.6683   34.4103 H   0  0  0  0  0  0  0  0  0  0  0  0
   35.5171   28.2245   33.3841 H   0  0  0  0  0  0  0  0  0  0  0  0
   33.2158   28.1158   33.5817 H   0  0  0  0  0  0  0  0  0  0  0  0
   31.0954   28.3234   34.9201 H   0  0  0  0  0  0  0  0  0  0  0  0
   31.3338   28.9913   37.3253 H   0  0  0  0  0  0  0  0  0  0  0  0
   33.5304   29.4122   38.3032 H   0  0  0  0  0  0  0  0  0  0  0  0
   36.2306   34.2770   39.0555 H   0  0  0  0  0  0  0  0  0  0  0  0
   41.6848   32.5356   40.2357 H   0  0  0  0  0  0  0  0  0  0  0  0
   43.8014   33.5409   41.0507 H   0  0  0  0  0  0  0  0  0  0  0  0
   40.8580   37.9484   42.1963 H   0  0  0  0  0  0  0  0  0  0  0  0
   42.6108   37.8798   42.5210 H   0  0  0  0  0  0  0  0  0  0  0  0
  1  2  2  0
  3  2  1  0
  4  3  2  0
  5  6  2  0
  5  4  1  0
  6  1  1  0
  7  5  1  0
  8  7  2  0
  9  8  1  0
 10  9  2  0
 10 11  1  0
 11 16  2  0
 12 11  1  0
 12 13  2  0
 13 14  1  0
 14 15  2  0
 16  7  1  0
 16 15  1  0
 17  1  1  0
 17 21  1  0
 18 19  2  0
 18 17  1  0
 19 20  1  0
 20 21  2  0
 20 22  1  0
 22 27  1  0
 23 22  2  0
 23 24  1  0
 24 25  2  0
 25 26  1  0
 26 28  1  0
 27 26  2  0
  2 29  1  0
  3 30  1  0
  8 31  1  0
  9 32  1  0
 10 33  1  0
 12 34  1  0
 13 35  1  0
 14 36  1  0
 15 37  1  0
 18 38  1  0
 23 39  1  0
 24 40  1  0
 28 41  1  0
 28 42  1  0
M  ISO  8  29  14  30  14  31  14  32  14  33  14  34  14  35  14  36  14
M  ISO  4  37  14  38  14  39  14  40  14
M  END
>  <minimizedAffinity>  (1) 
-6.53159857

>  <minimizedRMSD>  (1) 
1.6260289

$$$$
