
     RDKit          3D

 39 43  0  0  0  0  0  0  0  0999 V2000
   36.9950   31.6250   39.8550 C   0  0  0  0  0  0  0  0  0  0  0  0
   36.3520   31.0530   40.9440 C   0  0  0  0  0  0  0  0  0  0  0  0
   35.7670   29.8010   40.7890 C   0  0  0  0  0  0  0  0  0  0  0  0
   35.8530   29.2000   39.5800 N   0  0  0  0  0  0  0  0  0  0  0  0
   36.4810   29.7770   38.5420 C   0  0  0  0  0  0  0  0  0  0  0  0
   37.0530   30.9850   38.6700 N   0  0  0  0  0  0  0  0  0  0  0  0
   36.5750   29.1410   37.2570 N   0  0  0  0  0  0  0  0  0  0  0  0
   37.7250   28.7510   36.6340 C   0  0  0  0  0  0  0  0  0  0  0  0
   37.3620   28.2060   35.4640 N   0  0  0  0  0  0  0  0  0  0  0  0
   36.0390   28.2460   35.3440 C   0  0  0  0  0  0  0  0  0  0  0  0
   35.1190   27.8500   34.3900 C   0  0  0  0  0  0  0  0  0  0  0  0
   33.7740   28.0060   34.5030 N   0  0  0  0  0  0  0  0  0  0  0  0
   33.3100   28.5920   35.6300 C   0  0  0  0  0  0  0  0  0  0  0  0
   34.1750   28.9930   36.5850 N   0  0  0  0  0  0  0  0  0  0  0  0
   35.5030   28.8370   36.4690 C   0  0  0  0  0  0  0  0  0  0  0  0
   37.6340   32.9040   39.8880 N   0  0  0  0  0  0  0  0  0  0  0  0
   37.3510   34.1700   39.5720 C   0  0  0  0  0  0  0  0  0  0  0  0
   38.4240   34.9320   39.8570 N   0  0  0  0  0  0  0  0  0  0  0  0
   39.3900   34.0990   40.3640 C   0  0  0  0  0  0  0  0  0  0  0  0
   38.8710   32.8510   40.3710 N   0  0  0  0  0  0  0  0  0  0  0  0
   40.7230   34.5250   40.8040 C   0  0  0  0  0  0  0  0  0  0  0  0
   41.8860   33.7730   40.6370 C   0  0  0  0  0  0  0  0  0  0  0  0
   43.0650   34.3170   41.1090 C   0  0  0  0  0  0  0  0  0  0  0  0
   43.1110   35.5130   41.7040 N   0  0  0  0  0  0  0  0  0  0  0  0
   41.9730   36.2260   41.8560 C   0  0  0  0  0  0  0  0  0  0  0  0
   40.7880   35.7420   41.4120 N   0  0  0  0  0  0  0  0  0  0  0  0
   41.9230   37.5050   42.4750 N   0  0  0  0  0  0  0  0  0  0  0  0
   35.6040   27.2330   33.2040 N   0  0  0  0  0  0  0  0  0  0  0  0
   36.3061   31.5788   41.9091 H   0  0  0  0  0  0  0  0  0  0  0  0
   35.2482   29.3124   41.6269 H   0  0  0  0  0  0  0  0  0  0  0  0
   38.7501   28.8622   37.0172 H   0  0  0  0  0  0  0  0  0  0  0  0
   32.2290   28.7416   35.7681 H   0  0  0  0  0  0  0  0  0  0  0  0
   36.4011   34.5300   39.1499 H   0  0  0  0  0  0  0  0  0  0  0  0
   41.8652   32.7872   40.1494 H   0  0  0  0  0  0  0  0  0  0  0  0
   43.9979   33.7462   40.9911 H   0  0  0  0  0  0  0  0  0  0  0  0
   41.0241   38.0004   42.5618 H   0  0  0  0  0  0  0  0  0  0  0  0
   42.7857   37.9362   42.8366 H   0  0  0  0  0  0  0  0  0  0  0  0
   36.6160   27.0931   33.0731 H   0  0  0  0  0  0  0  0  0  0  0  0
   34.9432   26.9260   32.4760 H   0  0  0  0  0  0  0  0  0  0  0  0
  1 16  1  0
  1  2  2  0
  3  2  1  0
  4  3  2  0
  5  6  2  0
  5  4  1  0
  6  1  1  0
  7  5  1  0
  8  7  1  0
  9  8  2  0
 10  9  1  0
 10 15  2  0
 11 12  2  0
 11 10  1  0
 12 13  1  0
 13 14  2  0
 15 14  1  0
 15  7  1  0
 16 20  1  0
 17 18  2  0
 17 16  1  0
 18 19  1  0
 19 20  2  0
 19 21  1  0
 21 26  1  0
 22 21  2  0
 22 23  1  0
 23 24  2  0
 24 25  1  0
 25 27  1  0
 26 25  2  0
 28 11  1  0
  2 29  1  0
  3 30  1  0
  8 31  1  0
 13 32  1  0
 17 33  1  0
 22 34  1  0
 23 35  1  0
 27 36  1  0
 27 37  1  0
 28 38  1  0
 28 39  1  0
M  ISO  7  29  14  30  14  31  14  32  14  33  14  34  14  35  14
M  END
>  <minimizedAffinity>  (1) 
-6.39004993

>  <minimizedRMSD>  (1) 
0.845340431

$$$$
