
     RDKit          3D

 39 42  0  0  0  0  0  0  0  0999 V2000
   37.2520   32.4430   39.6690 N   0  0  0  0  0  0  0  0  0  0  0  0
   36.9500   33.7050   39.3630 C   0  0  0  0  0  0  0  0  0  0  0  0
   38.0180   34.4870   39.6430 N   0  0  0  0  0  0  0  0  0  0  0  0
   38.9960   33.6610   40.1360 C   0  0  0  0  0  0  0  0  0  0  0  0
   38.4920   32.4010   40.1410 N   0  0  0  0  0  0  0  0  0  0  0  0
   36.6320   31.1610   39.6330 C   0  0  0  0  0  0  0  0  0  0  0  0
   36.1020   30.5280   40.7660 C   0  0  0  0  0  0  0  0  0  0  0  0
   35.5200   29.2750   40.6060 C   0  0  0  0  0  0  0  0  0  0  0  0
   35.5000   28.7380   39.3520 N   0  0  0  0  0  0  0  0  0  0  0  0
   36.0120   29.3690   38.3030 C   0  0  0  0  0  0  0  0  0  0  0  0
   36.5910   30.5850   38.3940 N   0  0  0  0  0  0  0  0  0  0  0  0
   35.9630   28.7560   37.0190 N   0  0  0  0  0  0  0  0  0  0  0  0
   34.7580   28.1150   36.5270 C   0  0  0  0  0  0  0  0  0  0  0  0
   34.3670   28.8580   35.2470 C   0  0  0  0  0  0  0  0  0  0  0  0
   35.3170   29.7990   34.8810 O   0  0  0  0  0  0  0  0  0  0  0  0
   36.6040   29.3230   34.8100 C   0  0  0  0  0  0  0  0  0  0  0  0
   37.1070   28.7360   36.1270 C   0  0  0  0  0  0  0  0  0  0  0  0
   40.3320   34.1000   40.5690 C   0  0  0  0  0  0  0  0  0  0  0  0
   41.4340   33.2640   40.6850 C   0  0  0  0  0  0  0  0  0  0  0  0
   42.6210   33.8430   41.1080 C   0  0  0  0  0  0  0  0  0  0  0  0
   42.7170   35.1460   41.3950 N   0  0  0  0  0  0  0  0  0  0  0  0
   41.6400   35.9310   41.2760 C   0  0  0  0  0  0  0  0  0  0  0  0
   40.4510   35.4280   40.8680 N   0  0  0  0  0  0  0  0  0  0  0  0
   41.6470   37.3290   41.5590 N   0  0  0  0  0  0  0  0  0  0  0  0
   35.9912   34.0529   38.9511 H   0  0  0  0  0  0  0  0  0  0  0  0
   36.1452   31.0090   41.7543 H   0  0  0  0  0  0  0  0  0  0  0  0
   35.0900   28.7348   41.4623 H   0  0  0  0  0  0  0  0  0  0  0  0
   34.9532   27.0550   36.3074 H   0  0  0  0  0  0  0  0  0  0  0  0
   33.9513   28.1541   37.2738 H   0  0  0  0  0  0  0  0  0  0  0  0
   34.2583   28.1276   34.4317 H   0  0  0  0  0  0  0  0  0  0  0  0
   33.4212   29.3867   35.4369 H   0  0  0  0  0  0  0  0  0  0  0  0
   36.6434   28.5378   34.0407 H   0  0  0  0  0  0  0  0  0  0  0  0
   37.2531   30.1769   34.5661 H   0  0  0  0  0  0  0  0  0  0  0  0
   37.4614   27.7053   35.9786 H   0  0  0  0  0  0  0  0  0  0  0  0
   37.9532   29.3091   36.5338 H   0  0  0  0  0  0  0  0  0  0  0  0
   41.3687   32.1909   40.4520 H   0  0  0  0  0  0  0  0  0  0  0  0
   43.5141   33.2091   41.2110 H   0  0  0  0  0  0  0  0  0  0  0  0
   40.7846   37.8812   41.4483 H   0  0  0  0  0  0  0  0  0  0  0  0
   42.5145   37.7863   41.8740 H   0  0  0  0  0  0  0  0  0  0  0  0
  1  5  1  0
  2  3  2  0
  2  1  1  0
  3  4  1  0
  4  5  2  0
  4 18  1  0
  6  1  1  0
  6  7  2  0
  8  7  1  0
  9  8  2  0
 10 11  2  0
 10  9  1  0
 11  6  1  0
 12 10  1  0
 13 12  1  0
 14 13  1  0
 15 14  1  0
 16 15  1  0
 16 17  1  0
 17 12  1  0
 18 19  2  0
 18 23  1  0
 19 20  1  0
 20 21  2  0
 22 21  1  0
 22 24  1  0
 23 22  2  0
  2 25  1  0
  7 26  1  0
  8 27  1  0
 13 28  1  0
 13 29  1  0
 14 30  1  0
 14 31  1  0
 16 32  1  0
 16 33  1  0
 17 34  1  0
 17 35  1  0
 19 36  1  0
 20 37  1  0
 24 38  1  0
 24 39  1  0
M  ISO  8  25  14  26  14  27  14  28  13  29  13  30  13  31  13  32  13
M  ISO  5  33  13  34  13  35  13  36  14  37  14
M  END
>  <minimizedAffinity>  (1) 
-5.89776945

>  <minimizedRMSD>  (1) 
1.25438809

$$$$
