
     RDKit          3D

 36 39  0  0  0  0  0  0  0  0999 V2000
   37.5930   32.9490   39.8630 N   0  0  0  0  0  0  0  0  0  0  0  0
   37.3340   34.2210   39.5470 C   0  0  0  0  0  0  0  0  0  0  0  0
   38.4170   34.9640   39.8430 N   0  0  0  0  0  0  0  0  0  0  0  0
   39.3560   34.1290   40.3490 C   0  0  0  0  0  0  0  0  0  0  0  0
   38.8290   32.8830   40.3550 N   0  0  0  0  0  0  0  0  0  0  0  0
   40.7090   34.5210   40.8110 C   0  0  0  0  0  0  0  0  0  0  0  0
   41.8460   33.7410   40.6840 C   0  0  0  0  0  0  0  0  0  0  0  0
   43.0180   34.2710   41.1720 C   0  0  0  0  0  0  0  0  0  0  0  0
   43.0790   35.4870   41.7480 N   0  0  0  0  0  0  0  0  0  0  0  0
   41.9690   36.2260   41.8620 C   0  0  0  0  0  0  0  0  0  0  0  0
   40.7790   35.7630   41.4010 N   0  0  0  0  0  0  0  0  0  0  0  0
   41.9500   37.5020   42.4500 N   0  0  0  0  0  0  0  0  0  0  0  0
   36.9390   31.6770   39.8240 C   0  0  0  0  0  0  0  0  0  0  0  0
   36.5210   30.9990   40.9670 C   0  0  0  0  0  0  0  0  0  0  0  0
   35.8890   29.7580   40.8070 C   0  0  0  0  0  0  0  0  0  0  0  0
   35.7260   29.2970   39.5430 N   0  0  0  0  0  0  0  0  0  0  0  0
   36.1400   29.9740   38.4720 C   0  0  0  0  0  0  0  0  0  0  0  0
   36.7550   31.1790   38.5810 N   0  0  0  0  0  0  0  0  0  0  0  0
   35.9130   29.3850   37.1490 C   0  0  0  0  0  0  0  0  0  0  0  0
   34.6700   28.9110   36.7780 C   0  0  0  0  0  0  0  0  0  0  0  0
   34.5680   28.3750   35.5090 C   0  0  0  0  0  0  0  0  0  0  0  0
   35.6410   28.3010   34.6230 C   0  0  0  0  0  0  0  0  0  0  0  0
   36.8650   28.7770   35.0110 C   0  0  0  0  0  0  0  0  0  0  0  0
   36.9780   29.3150   36.2790 C   0  0  0  0  0  0  0  0  0  0  0  0
   36.3941   34.5978   39.1173 H   0  0  0  0  0  0  0  0  0  0  0  0
   41.8137   32.7462   40.2158 H   0  0  0  0  0  0  0  0  0  0  0  0
   43.9411   33.6787   41.0885 H   0  0  0  0  0  0  0  0  0  0  0  0
   41.0663   38.0275   42.5116 H   0  0  0  0  0  0  0  0  0  0  0  0
   42.8198   37.9118   42.8194 H   0  0  0  0  0  0  0  0  0  0  0  0
   36.6825   31.4259   41.9678 H   0  0  0  0  0  0  0  0  0  0  0  0
   35.5385   29.1800   41.6748 H   0  0  0  0  0  0  0  0  0  0  0  0
   33.8063   28.9579   37.4576 H   0  0  0  0  0  0  0  0  0  0  0  0
   33.5919   27.9876   35.1818 H   0  0  0  0  0  0  0  0  0  0  0  0
   35.5062   27.8647   33.6223 H   0  0  0  0  0  0  0  0  0  0  0  0
   37.7313   28.7325   34.3345 H   0  0  0  0  0  0  0  0  0  0  0  0
   37.9548   29.7016   36.6053 H   0  0  0  0  0  0  0  0  0  0  0  0
  1  5  1  0
  2  3  2  0
  2  1  1  0
  3  4  1  0
  4  5  2  0
  4  6  1  0
  6 11  1  0
  7  6  2  0
  7  8  1  0
  8  9  2  0
  9 10  1  0
 10 12  1  0
 11 10  2  0
 13  1  1  0
 13 14  2  0
 15 14  1  0
 16 15  2  0
 17 18  2  0
 17 16  1  0
 18 13  1  0
 19 17  1  0
 20 19  2  0
 21 20  1  0
 22 23  1  0
 22 21  2  0
 23 24  2  0
 24 19  1  0
  2 25  1  0
  7 26  1  0
  8 27  1  0
 12 28  1  0
 12 29  1  0
 14 30  1  0
 15 31  1  0
 20 32  1  0
 21 33  1  0
 22 34  1  0
 23 35  1  0
 24 36  1  0
M  ISO  8  25  14  26  14  27  14  30  14  31  14  32  14  33  14  34  14
M  ISO  2  35  14  36  14
M  END
>  <minimizedAffinity>  (1) 
-5.85271263

>  <minimizedRMSD>  (1) 
0.933679461

$$$$
