
     RDKit          3D

 38 41  0  0  0  0  0  0  0  0999 V2000
   37.5030   32.8350   39.7980 N   0  0  0  0  0  0  0  0  0  0  0  0
   37.2370   34.1100   39.5100 C   0  0  0  0  0  0  0  0  0  0  0  0
   38.3150   34.8580   39.8150 N   0  0  0  0  0  0  0  0  0  0  0  0
   39.2650   34.0270   40.3000 C   0  0  0  0  0  0  0  0  0  0  0  0
   38.7310   32.7800   40.2770 N   0  0  0  0  0  0  0  0  0  0  0  0
   36.8590   31.5690   39.7350 C   0  0  0  0  0  0  0  0  0  0  0  0
   36.3770   30.9000   40.8760 C   0  0  0  0  0  0  0  0  0  0  0  0
   35.7630   29.6640   40.6980 C   0  0  0  0  0  0  0  0  0  0  0  0
   35.6690   29.1810   39.4370 N   0  0  0  0  0  0  0  0  0  0  0  0
   36.1340   29.8380   38.3780 C   0  0  0  0  0  0  0  0  0  0  0  0
   36.7420   31.0490   38.4880 N   0  0  0  0  0  0  0  0  0  0  0  0
   35.9900   29.2530   37.0890 N   0  0  0  0  0  0  0  0  0  0  0  0
   37.0830   28.9130   36.2010 C   0  0  0  0  0  0  0  0  0  0  0  0
   36.5230   29.2110   34.8270 C   0  0  0  0  0  0  0  0  0  0  0  0
   35.0440   28.9120   34.9360 C   0  0  0  0  0  0  0  0  0  0  0  0
   34.7600   28.8860   36.4130 C   0  0  0  0  0  0  0  0  0  0  0  0
   40.6090   34.4190   40.7570 C   0  0  0  0  0  0  0  0  0  0  0  0
   41.7350   33.6340   40.6800 C   0  0  0  0  0  0  0  0  0  0  0  0
   42.9170   34.1610   41.1580 C   0  0  0  0  0  0  0  0  0  0  0  0
   42.9830   35.3980   41.6850 N   0  0  0  0  0  0  0  0  0  0  0  0
   41.8770   36.1550   41.7560 C   0  0  0  0  0  0  0  0  0  0  0  0
   40.6910   35.6760   41.2960 N   0  0  0  0  0  0  0  0  0  0  0  0
   41.8530   37.4650   42.2920 N   0  0  0  0  0  0  0  0  0  0  0  0
   36.2925   34.4885   39.0921 H   0  0  0  0  0  0  0  0  0  0  0  0
   36.4826   31.3411   41.8782 H   0  0  0  0  0  0  0  0  0  0  0  0
   35.3670   29.0980   41.5540 H   0  0  0  0  0  0  0  0  0  0  0  0
   37.9670   29.5337   36.4090 H   0  0  0  0  0  0  0  0  0  0  0  0
   37.4186   27.8713   36.3117 H   0  0  0  0  0  0  0  0  0  0  0  0
   36.9932   28.5668   34.0694 H   0  0  0  0  0  0  0  0  0  0  0  0
   36.7138   30.2494   34.5184 H   0  0  0  0  0  0  0  0  0  0  0  0
   34.4533   29.6978   34.4425 H   0  0  0  0  0  0  0  0  0  0  0  0
   34.7770   27.9635   34.4471 H   0  0  0  0  0  0  0  0  0  0  0  0
   33.9654   29.6063   36.6574 H   0  0  0  0  0  0  0  0  0  0  0  0
   34.4211   27.8885   36.7296 H   0  0  0  0  0  0  0  0  0  0  0  0
   41.6949   32.6213   40.2523 H   0  0  0  0  0  0  0  0  0  0  0  0
   43.8321   33.5527   41.1070 H   0  0  0  0  0  0  0  0  0  0  0  0
   40.9701   37.9948   42.3179 H   0  0  0  0  0  0  0  0  0  0  0  0
   42.7185   37.8884   42.6561 H   0  0  0  0  0  0  0  0  0  0  0  0
  1  5  1  0
  2  1  1  0
  2  3  2  0
  3  4  1  0
  4 17  1  0
  5  4  2  0
  6  1  1  0
  6  7  2  0
  8  7  1  0
  9  8  2  0
 10 11  2  0
 10  9  1  0
 11  6  1  0
 12 10  1  0
 13 12  1  0
 14 15  1  0
 14 13  1  0
 15 16  1  0
 16 12  1  0
 17 22  1  0
 18 17  2  0
 18 19  1  0
 19 20  2  0
 20 21  1  0
 21 23  1  0
 22 21  2  0
  2 24  1  0
  7 25  1  0
  8 26  1  0
 13 27  1  0
 13 28  1  0
 14 29  1  0
 14 30  1  0
 15 31  1  0
 15 32  1  0
 16 33  1  0
 16 34  1  0
 18 35  1  0
 19 36  1  0
 23 37  1  0
 23 38  1  0
M  ISO  8  24  14  25  14  26  14  27  13  28  13  29  13  30  13  31  13
M  ISO  5  32  13  33  13  34  13  35  14  36  14
M  END
>  <minimizedAffinity>  (1) 
-5.82615995

>  <minimizedRMSD>  (1) 
0.77674222

$$$$
