
     RDKit          3D

 33 36  0  0  0  0  0  0  0  0999 V2000
   37.5560   32.9530   39.7810 N   0  0  0  0  0  0  0  0  0  0  0  0
   37.2870   34.2320   39.5200 C   0  0  0  0  0  0  0  0  0  0  0  0
   38.3740   34.9680   39.8470 N   0  0  0  0  0  0  0  0  0  0  0  0
   39.3240   34.1070   40.3170 C   0  0  0  0  0  0  0  0  0  0  0  0
   38.7930   32.8640   40.2660 N   0  0  0  0  0  0  0  0  0  0  0  0
   40.6690   34.4990   40.7850 C   0  0  0  0  0  0  0  0  0  0  0  0
   41.7950   33.7050   40.6710 C   0  0  0  0  0  0  0  0  0  0  0  0
   42.9730   34.2310   41.1640 C   0  0  0  0  0  0  0  0  0  0  0  0
   43.0450   35.4450   41.7260 N   0  0  0  0  0  0  0  0  0  0  0  0
   41.9400   36.1930   41.8250 C   0  0  0  0  0  0  0  0  0  0  0  0
   40.7380   35.7440   41.3620 N   0  0  0  0  0  0  0  0  0  0  0  0
   41.9120   37.4860   42.4020 N   0  0  0  0  0  0  0  0  0  0  0  0
   36.9110   31.6780   39.6890 C   0  0  0  0  0  0  0  0  0  0  0  0
   36.3740   31.0050   40.7770 C   0  0  0  0  0  0  0  0  0  0  0  0
   35.7680   29.7630   40.5620 C   0  0  0  0  0  0  0  0  0  0  0  0
   35.7440   29.2930   39.2870 N   0  0  0  0  0  0  0  0  0  0  0  0
   36.2730   29.9690   38.2540 C   0  0  0  0  0  0  0  0  0  0  0  0
   36.8620   31.1650   38.4280 N   0  0  0  0  0  0  0  0  0  0  0  0
   36.2290   29.4310   36.8920 C   0  0  0  0  0  0  0  0  0  0  0  0
   35.0420   29.0940   36.2760 C   0  0  0  0  0  0  0  0  0  0  0  0
   35.4250   28.6360   35.0330 C   0  0  0  0  0  0  0  0  0  0  0  0
   36.7990   28.7060   34.9300 C   0  0  0  0  0  0  0  0  0  0  0  0
   37.2430   29.1950   36.0830 O   0  0  0  0  0  0  0  0  0  0  0  0
   36.3439   34.6219   39.1095 H   0  0  0  0  0  0  0  0  0  0  0  0
   41.7548   32.7063   40.2116 H   0  0  0  0  0  0  0  0  0  0  0  0
   43.8903   33.6281   41.0922 H   0  0  0  0  0  0  0  0  0  0  0  0
   41.0267   38.0105   42.4476 H   0  0  0  0  0  0  0  0  0  0  0  0
   42.7769   37.9019   42.7760 H   0  0  0  0  0  0  0  0  0  0  0  0
   36.4238   31.4388   41.7866 H   0  0  0  0  0  0  0  0  0  0  0  0
   35.3285   29.1896   41.3915 H   0  0  0  0  0  0  0  0  0  0  0  0
   34.0231   29.1726   36.6830 H   0  0  0  0  0  0  0  0  0  0  0  0
   34.7440   28.2730   34.2491 H   0  0  0  0  0  0  0  0  0  0  0  0
   37.4085   28.4138   34.0621 H   0  0  0  0  0  0  0  0  0  0  0  0
  1  5  1  0
  2  1  1  0
  2  3  2  0
  3  4  1  0
  4  6  1  0
  5  4  2  0
  6 11  1  0
  7  6  2  0
  7  8  1  0
  8  9  2  0
  9 10  1  0
 10 12  1  0
 11 10  2  0
 13  1  1  0
 13 14  2  0
 15 14  1  0
 16 15  2  0
 17 18  2  0
 17 16  1  0
 18 13  1  0
 19 17  1  0
 20 19  2  0
 21 20  1  0
 22 21  2  0
 22 23  1  0
 23 19  1  0
  2 24  1  0
  7 25  1  0
  8 26  1  0
 12 27  1  0
 12 28  1  0
 14 29  1  0
 15 30  1  0
 20 31  1  0
 21 32  1  0
 22 33  1  0
M  ISO  8  24  14  25  14  26  14  29  14  30  14  31  14  32  14  33  14
M  END
>  <minimizedAffinity>  (1) 
-5.5304594

>  <minimizedRMSD>  (1) 
0.623568714

$$$$
