
     RDKit          3D

 32 35  0  0  0  0  0  0  0  0999 V2000
   37.3200   32.5680   39.6980 N   0  0  0  0  0  0  0  0  0  0  0  0
   37.0250   33.8430   39.4420 C   0  0  0  0  0  0  0  0  0  0  0  0
   38.0940   34.6140   39.7420 N   0  0  0  0  0  0  0  0  0  0  0  0
   39.0720   33.7690   40.1980 C   0  0  0  0  0  0  0  0  0  0  0  0
   38.5670   32.5130   40.1590 N   0  0  0  0  0  0  0  0  0  0  0  0
   40.4120   34.1880   40.6380 C   0  0  0  0  0  0  0  0  0  0  0  0
   41.5080   33.3430   40.7300 C   0  0  0  0  0  0  0  0  0  0  0  0
   42.6980   33.8960   41.1620 C   0  0  0  0  0  0  0  0  0  0  0  0
   42.8080   35.1940   41.4820 N   0  0  0  0  0  0  0  0  0  0  0  0
   41.7360   35.9900   41.3850 C   0  0  0  0  0  0  0  0  0  0  0  0
   40.5370   35.5070   40.9670 N   0  0  0  0  0  0  0  0  0  0  0  0
   41.7560   37.3790   41.7030 N   0  0  0  0  0  0  0  0  0  0  0  0
   36.6950   31.2950   39.6180 C   0  0  0  0  0  0  0  0  0  0  0  0
   36.1820   30.6120   40.7190 C   0  0  0  0  0  0  0  0  0  0  0  0
   35.5910   29.3730   40.5300 C   0  0  0  0  0  0  0  0  0  0  0  0
   35.5450   28.8870   39.2680 N   0  0  0  0  0  0  0  0  0  0  0  0
   36.0460   29.5640   38.2200 C   0  0  0  0  0  0  0  0  0  0  0  0
   36.6310   30.7770   38.3660 N   0  0  0  0  0  0  0  0  0  0  0  0
   35.9660   28.9810   36.8590 C   0  0  0  0  0  0  0  0  0  0  0  0
   35.3740   27.7560   36.6060 C   0  0  0  0  0  0  0  0  0  0  0  0
   35.5960   27.6080   34.7700 S   0  0  0  0  0  0  0  0  0  0  0  0
   36.4760   29.2950   34.7240 C   0  0  0  0  0  0  0  0  0  0  0  0
   36.4720   29.6350   35.8300 N   0  0  0  0  0  0  0  0  0  0  0  0
   36.0649   34.2090   39.0493 H   0  0  0  0  0  0  0  0  0  0  0  0
   41.4328   32.2769   40.4698 H   0  0  0  0  0  0  0  0  0  0  0  0
   43.5847   33.2505   41.2464 H   0  0  0  0  0  0  0  0  0  0  0  0
   40.8982   37.9413   41.6086 H   0  0  0  0  0  0  0  0  0  0  0  0
   42.6282   37.8206   42.0273 H   0  0  0  0  0  0  0  0  0  0  0  0
   36.2454   31.0510   41.7256 H   0  0  0  0  0  0  0  0  0  0  0  0
   35.1744   28.8052   41.3751 H   0  0  0  0  0  0  0  0  0  0  0  0
   34.8978   27.0554   37.3078 H   0  0  0  0  0  0  0  0  0  0  0  0
   36.8905   29.8222   33.8520 H   0  0  0  0  0  0  0  0  0  0  0  0
  1  5  1  0
  2  1  1  0
  2  3  2  0
  3  4  1  0
  4  6  1  0
  5  4  2  0
  6  7  2  0
  6 11  1  0
  7  8  1  0
  8  9  2  0
 10  9  1  0
 10 12  1  0
 11 10  2  0
 13  1  1  0
 13 14  2  0
 15 14  1  0
 16 15  2  0
 17 18  2  0
 17 16  1  0
 18 13  1  0
 19 17  1  0
 20 19  2  0
 21 20  1  0
 22 21  1  0
 22 23  2  0
 23 19  1  0
  2 24  1  0
  7 25  1  0
  8 26  1  0
 12 27  1  0
 12 28  1  0
 14 29  1  0
 15 30  1  0
 20 31  1  0
 22 32  1  0
M  ISO  7  24  14  25  14  26  14  29  14  30  14  31  14  32  14
M  END
>  <minimizedAffinity>  (1) 
-5.46192265

>  <minimizedRMSD>  (1) 
1.10394263

$$$$
