
     RDKit          3D

 28 30  0  0  0  0  0  0  0  0999 V2000
   37.9370   33.3880   39.8150 N   0  0  0  0  0  0  0  0  0  0  0  0
   37.6990   34.6870   39.6350 C   0  0  0  0  0  0  0  0  0  0  0  0
   38.7980   35.3800   40.0130 N   0  0  0  0  0  0  0  0  0  0  0  0
   39.7220   34.4840   40.4300 C   0  0  0  0  0  0  0  0  0  0  0  0
   39.1620   33.2450   40.2970 N   0  0  0  0  0  0  0  0  0  0  0  0
   41.0700   34.8120   40.9270 C   0  0  0  0  0  0  0  0  0  0  0  0
   42.2090   34.0490   40.6700 C   0  0  0  0  0  0  0  0  0  0  0  0
   43.3920   34.5110   41.2200 C   0  0  0  0  0  0  0  0  0  0  0  0
   43.4580   35.6300   41.9630 N   0  0  0  0  0  0  0  0  0  0  0  0
   42.3480   36.3470   42.1960 C   0  0  0  0  0  0  0  0  0  0  0  0
   41.1490   35.9420   41.6790 N   0  0  0  0  0  0  0  0  0  0  0  0
   42.3330   37.5230   42.9610 N   0  0  0  0  0  0  0  0  0  0  0  0
   37.2640   32.1460   39.6400 C   0  0  0  0  0  0  0  0  0  0  0  0
   36.6100   31.4630   40.6830 C   0  0  0  0  0  0  0  0  0  0  0  0
   35.9890   30.2520   40.3770 C   0  0  0  0  0  0  0  0  0  0  0  0
   36.0500   29.8060   39.0990 N   0  0  0  0  0  0  0  0  0  0  0  0
   36.6840   30.4850   38.1280 C   0  0  0  0  0  0  0  0  0  0  0  0
   37.2990   31.6610   38.3780 N   0  0  0  0  0  0  0  0  0  0  0  0
   36.7200   29.9730   36.8000 N   0  0  0  0  0  0  0  0  0  0  0  0
   36.7669   35.1221   39.2451 H   0  0  0  0  0  0  0  0  0  0  0  0
   42.1692   33.1317   40.0643 H   0  0  0  0  0  0  0  0  0  0  0  0
   44.3153   33.9400   41.0423 H   0  0  0  0  0  0  0  0  0  0  0  0
   41.4493   38.0318   43.1060 H   0  0  0  0  0  0  0  0  0  0  0  0
   43.2057   37.8775   43.3776 H   0  0  0  0  0  0  0  0  0  0  0  0
   36.5894   31.8705   41.7045 H   0  0  0  0  0  0  0  0  0  0  0  0
   35.4640   29.6747   41.1523 H   0  0  0  0  0  0  0  0  0  0  0  0
   36.2594   29.0783   36.5803 H   0  0  0  0  0  0  0  0  0  0  0  0
   37.2066   30.4973   36.0589 H   0  0  0  0  0  0  0  0  0  0  0  0
  1  5  1  0
  2  1  1  0
  2  3  2  0
  3  4  1  0
  4  6  1  0
  5  4  2  0
  6 11  1  0
  7  6  2  0
  7  8  1  0
  8  9  2  0
  9 10  1  0
 10 12  1  0
 11 10  2  0
 13  1  1  0
 13 14  2  0
 15 14  1  0
 16 15  2  0
 17 18  2  0
 17 16  1  0
 18 13  1  0
 19 17  1  0
  2 20  1  0
  7 21  1  0
  8 22  1  0
 12 23  1  0
 12 24  1  0
 14 25  1  0
 15 26  1  0
 19 27  1  0
 19 28  1  0
M  ISO  5  20  14  21  14  22  14  25  14  26  14
M  END
>  <minimizedAffinity>  (1) 
-4.9653492

>  <minimizedRMSD>  (1) 
0.046109274

$$$$
