
     RDKit          3D

 19 20  0  0  0  0  0  0  0  0999 V2000
   40.1240   32.1760   41.0440 C   0  0  0  0  0  0  0  0  0  0  0  0
   39.7760   30.9430   41.6350 C   0  0  0  0  0  0  0  0  0  0  0  0
   38.4390   30.5680   41.6090 C   0  0  0  0  0  0  0  0  0  0  0  0
   37.5310   31.3990   41.0220 N   0  0  0  0  0  0  0  0  0  0  0  0
   37.8950   32.5590   40.4730 C   0  0  0  0  0  0  0  0  0  0  0  0
   39.1820   32.9470   40.4830 N   0  0  0  0  0  0  0  0  0  0  0  0
   36.8780   33.3800   39.8720 N   0  0  0  0  0  0  0  0  0  0  0  0
   37.9350   29.3490   42.1660 C   0  0  0  0  0  0  0  0  0  0  0  0
   37.9080   28.9500   43.4900 C   0  0  0  0  0  0  0  0  0  0  0  0
   37.3950   27.7610   43.8540 C   0  0  0  0  0  0  0  0  0  0  0  0
   36.8920   26.9750   42.7460 C   0  0  0  0  0  0  0  0  0  0  0  0
   37.2010   28.0080   41.2900 S   0  0  0  0  0  0  0  0  0  0  0  0
   41.1733   32.5061   41.0436 H   0  0  0  0  0  0  0  0  0  0  0  0
   40.5378   30.3005   42.1006 H   0  0  0  0  0  0  0  0  0  0  0  0
   35.8966   33.0675   39.8731 H   0  0  0  0  0  0  0  0  0  0  0  0
   37.1313   34.2803   39.4406 H   0  0  0  0  0  0  0  0  0  0  0  0
   38.3149   29.6195   44.2621 H   0  0  0  0  0  0  0  0  0  0  0  0
   37.3606   27.4168   44.8982 H   0  0  0  0  0  0  0  0  0  0  0  0
   36.4282   25.9782   42.7807 H   0  0  0  0  0  0  0  0  0  0  0  0
  1  2  2  0
  3  2  1  0
  3  8  1  0
  4  3  2  0
  5  6  2  0
  5  4  1  0
  6  1  1  0
  7  5  1  0
  8  9  2  0
  9 10  1  0
 11 10  2  0
 12  8  1  0
 12 11  1  0
  1 13  1  0
  2 14  1  0
  7 15  1  0
  7 16  1  0
  9 17  1  0
 10 18  1  0
 11 19  1  0
M  ISO  5  13  14  14  14  17  14  18  14  19  14
M  END
>  <minimizedAffinity>  (1) 
-4.26486731

>  <minimizedRMSD>  (1) 
3.81489253

$$$$
