
     RDKit          3D

 24 26  0  0  0  0  0  0  0  0999 V2000
   40.4370   32.3820   41.1730 C   0  0  0  0  0  0  0  0  0  0  0  0
   40.1880   31.2260   41.9220 C   0  0  0  0  0  0  0  0  0  0  0  0
   38.9890   30.5550   41.7010 C   0  0  0  0  0  0  0  0  0  0  0  0
   38.1090   31.0290   40.7850 N   0  0  0  0  0  0  0  0  0  0  0  0
   38.3820   32.1480   40.0810 C   0  0  0  0  0  0  0  0  0  0  0  0
   39.5370   32.8220   40.2710 N   0  0  0  0  0  0  0  0  0  0  0  0
   38.6920   29.3600   42.4500 N   0  0  0  0  0  0  0  0  0  0  0  0
   37.4590   28.9660   42.8090 C   0  0  0  0  0  0  0  0  0  0  0  0
   37.6240   27.8150   43.4850 N   0  0  0  0  0  0  0  0  0  0  0  0
   38.9260   27.5130   43.5390 C   0  0  0  0  0  0  0  0  0  0  0  0
   39.6700   26.4650   44.0970 C   0  0  0  0  0  0  0  0  0  0  0  0
   41.0140   26.4810   43.9540 N   0  0  0  0  0  0  0  0  0  0  0  0
   41.6690   27.4650   43.2970 C   0  0  0  0  0  0  0  0  0  0  0  0
   40.9870   28.5060   42.7370 N   0  0  0  0  0  0  0  0  0  0  0  0
   39.6430   28.5060   42.8710 C   0  0  0  0  0  0  0  0  0  0  0  0
   37.2870   32.4880   39.1360 C   0  0  0  0  0  0  0  0  0  0  0  0
   37.6810   32.3190   37.8280 F   0  0  0  0  0  0  0  0  0  0  0  0
   36.8910   33.8060   39.3400 F   0  0  0  0  0  0  0  0  0  0  0  0
   36.1700   31.7040   39.4150 F   0  0  0  0  0  0  0  0  0  0  0  0
   41.3754   32.9363   41.3218 H   0  0  0  0  0  0  0  0  0  0  0  0
   40.9160   30.8600   42.6609 H   0  0  0  0  0  0  0  0  0  0  0  0
   36.5099   29.4790   42.5943 H   0  0  0  0  0  0  0  0  0  0  0  0
   39.1717   25.6478   44.6391 H   0  0  0  0  0  0  0  0  0  0  0  0
   42.7651   27.4258   43.2129 H   0  0  0  0  0  0  0  0  0  0  0  0
  1  2  2  0
  3  2  1  0
  3  7  1  0
  4  3  2  0
  5  6  2  0
  5  4  1  0
  6  1  1  0
  7  8  1  0
  7 15  1  0
  8  9  2  0
  9 10  1  0
 10 11  2  0
 12 11  1  0
 13 12  2  0
 14 15  2  0
 14 13  1  0
 15 10  1  0
 16 18  1  0
 16 19  1  0
 16  5  1  0
 17 16  1  0
  1 20  1  0
  2 21  1  0
  8 22  1  0
 11 23  1  0
 13 24  1  0
M  ISO  5  20  14  21  14  22  14  23  14  24  14
M  END
>  <minimizedAffinity>  (1) 
-5.24256754

>  <minimizedRMSD>  (1) 
4.1872673

$$$$
