
     RDKit          3D

 19 20  0  0  0  0  0  0  0  0999 V2000
   40.0040   32.0670   41.0680 C   0  0  0  0  0  0  0  0  0  0  0  0
   39.5170   30.8780   41.6560 C   0  0  0  0  0  0  0  0  0  0  0  0
   38.1580   30.6180   41.5970 C   0  0  0  0  0  0  0  0  0  0  0  0
   37.3420   31.5180   40.9740 N   0  0  0  0  0  0  0  0  0  0  0  0
   37.8400   32.6480   40.4190 C   0  0  0  0  0  0  0  0  0  0  0  0
   39.1630   32.9310   40.4600 N   0  0  0  0  0  0  0  0  0  0  0  0
   36.9290   33.5510   39.7800 N   0  0  0  0  0  0  0  0  0  0  0  0
   37.6110   29.4370   42.1710 N   0  0  0  0  0  0  0  0  0  0  0  0
   37.8900   28.9860   43.4090 C   0  0  0  0  0  0  0  0  0  0  0  0
   37.1440   27.8310   43.5310 C   0  0  0  0  0  0  0  0  0  0  0  0
   36.4590   27.6320   42.3890 N   0  0  0  0  0  0  0  0  0  0  0  0
   36.7430   28.6220   41.5430 C   0  0  0  0  0  0  0  0  0  0  0  0
   41.0802   32.2913   41.1060 H   0  0  0  0  0  0  0  0  0  0  0  0
   40.2027   30.1739   42.1501 H   0  0  0  0  0  0  0  0  0  0  0  0
   35.9229   33.3325   39.7506 H   0  0  0  0  0  0  0  0  0  0  0  0
   37.2804   34.4185   39.3501 H   0  0  0  0  0  0  0  0  0  0  0  0
   38.5612   29.4366   44.1549 H   0  0  0  0  0  0  0  0  0  0  0  0
   37.1140   27.1794   44.4167 H   0  0  0  0  0  0  0  0  0  0  0  0
   36.3442   28.7489   40.5257 H   0  0  0  0  0  0  0  0  0  0  0  0
  1  2  2  0
  3  2  1  0
  3  8  1  0
  4  3  2  0
  5  6  2  0
  5  4  1  0
  6  1  1  0
  7  5  1  0
  8  9  1  0
  9 10  2  0
 11 10  1  0
 12  8  1  0
 12 11  2  0
  1 13  1  0
  2 14  1  0
  7 15  1  0
  7 16  1  0
  9 17  1  0
 10 18  1  0
 12 19  1  0
M  ISO  5  13  14  14  14  17  14  18  14  19  14
M  END
>  <minimizedAffinity>  (1) 
-4.23874617

>  <minimizedRMSD>  (1) 
3.78788352

$$$$
