
     RDKit          3D

 25 26  0  0  0  0  0  0  0  0999 V2000
   39.9940   31.7690   41.3840 C   0  0  0  0  0  0  0  0  0  0  0  0
   39.3810   30.7520   42.1310 C   0  0  0  0  0  0  0  0  0  0  0  0
   38.1790   30.2500   41.6670 C   0  0  0  0  0  0  0  0  0  0  0  0
   37.6400   30.7420   40.5330 N   0  0  0  0  0  0  0  0  0  0  0  0
   38.2590   31.7250   39.8360 C   0  0  0  0  0  0  0  0  0  0  0  0
   39.4260   32.2350   40.2560 N   0  0  0  0  0  0  0  0  0  0  0  0
   37.5540   29.2180   42.4230 N   0  0  0  0  0  0  0  0  0  0  0  0
   36.7150   28.1960   41.8250 C   0  0  0  0  0  0  0  0  0  0  0  0
   36.6880   27.0460   42.7980 C   0  0  0  0  0  0  0  0  0  0  0  0
   37.2860   27.5380   44.0720 C   0  0  0  0  0  0  0  0  0  0  0  0
   37.6120   28.9760   43.8540 C   0  0  0  0  0  0  0  0  0  0  0  0
   37.4740   32.0980   38.6270 C   0  0  0  0  0  0  0  0  0  0  0  0
   36.4510   31.1770   38.3970 F   0  0  0  0  0  0  0  0  0  0  0  0
   38.2860   32.1270   37.5220 F   0  0  0  0  0  0  0  0  0  0  0  0
   36.9400   33.3650   38.7570 F   0  0  0  0  0  0  0  0  0  0  0  0
   40.9511   32.1911   41.7244 H   0  0  0  0  0  0  0  0  0  0  0  0
   39.8404   30.3674   43.0535 H   0  0  0  0  0  0  0  0  0  0  0  0
   35.6980   28.5837   41.6657 H   0  0  0  0  0  0  0  0  0  0  0  0
   37.1056   27.8814   40.8460 H   0  0  0  0  0  0  0  0  0  0  0  0
   35.6514   26.7199   42.9686 H   0  0  0  0  0  0  0  0  0  0  0  0
   37.2522   26.1870   42.4058 H   0  0  0  0  0  0  0  0  0  0  0  0
   36.5659   27.4316   44.8967 H   0  0  0  0  0  0  0  0  0  0  0  0
   38.1832   26.9613   44.3411 H   0  0  0  0  0  0  0  0  0  0  0  0
   38.6213   29.1951   44.2326 H   0  0  0  0  0  0  0  0  0  0  0  0
   36.9005   29.6228   44.3883 H   0  0  0  0  0  0  0  0  0  0  0  0
  1  2  2  0
  3  2  1  0
  3  7  1  0
  4  3  2  0
  5  6  2  0
  5  4  1  0
  6  1  1  0
  7 11  1  0
  8  7  1  0
  8  9  1  0
  9 10  1  0
 11 10  1  0
 12 15  1  0
 12  5  1  0
 13 12  1  0
 14 12  1  0
  1 16  1  0
  2 17  1  0
  8 18  1  0
  8 19  1  0
  9 20  1  0
  9 21  1  0
 10 22  1  0
 10 23  1  0
 11 24  1  0
 11 25  1  0
M  ISO  8  16  14  17  14  18  13  19  13  20  13  21  13  22  13  23  13
M  ISO  2  24  13  25  13
M  END
>  <minimizedAffinity>  (1) 
-4.55276537

>  <minimizedRMSD>  (1) 
3.66322541

$$$$
