
     RDKit          3D

 20 21  0  0  0  0  0  0  0  0999 V2000
   40.1840   30.1340   42.0570 C   0  0  0  0  0  0  0  0  0  0  0  0
   39.7300   29.0780   42.8480 C   0  0  0  0  0  0  0  0  0  0  0  0
   38.3540   28.8220   42.8600 C   0  0  0  0  0  0  0  0  0  0  0  0
   37.5460   29.6070   42.1100 N   0  0  0  0  0  0  0  0  0  0  0  0
   38.0040   30.6130   41.3600 C   0  0  0  0  0  0  0  0  0  0  0  0
   39.3320   30.8810   41.3300 N   0  0  0  0  0  0  0  0  0  0  0  0
   36.9290   31.3250   40.6310 C   0  0  0  0  0  0  0  0  0  0  0  0
   36.7990   30.8590   39.3440 F   0  0  0  0  0  0  0  0  0  0  0  0
   37.2110   32.6830   40.5960 F   0  0  0  0  0  0  0  0  0  0  0  0
   35.7290   31.2060   41.3280 F   0  0  0  0  0  0  0  0  0  0  0  0
   37.8100   27.7010   43.6910 C   0  0  0  0  0  0  0  0  0  0  0  0
   36.8100   28.1160   44.7410 C   0  0  0  0  0  0  0  0  0  0  0  0
   36.3710   27.3210   43.5680 C   0  0  0  0  0  0  0  0  0  0  0  0
   41.2600   30.3608   42.0268 H   0  0  0  0  0  0  0  0  0  0  0  0
   40.4282   28.4687   43.4407 H   0  0  0  0  0  0  0  0  0  0  0  0
   38.7488   27.1294   43.6472 H   0  0  0  0  0  0  0  0  0  0  0  0
   36.8369   27.6550   45.7394 H   0  0  0  0  0  0  0  0  0  0  0  0
   36.5056   29.0723   45.1913 H   0  0  0  0  0  0  0  0  0  0  0  0
   35.7456   27.7882   42.7930 H   0  0  0  0  0  0  0  0  0  0  0  0
   35.8311   26.3717   43.4364 H   0  0  0  0  0  0  0  0  0  0  0  0
  1  2  2  0
  2  3  1  0
  3 11  1  0
  4  3  2  0
  5  4  1  0
  6  5  2  0
  6  1  1  0
  7 10  1  0
  7  5  1  0
  8  7  1  0
  9  7  1  0
 11 12  1  0
 13 11  1  0
 13 12  1  0
  1 14  1  0
  2 15  1  0
 11 16  1  0
 12 17  1  0
 12 18  1  0
 13 19  1  0
 13 20  1  0
M  ISO  7  14  14  15  14  16  13  17  13  18  13  19  13  20  13
M  END
>  <minimizedAffinity>  (1) 
-4.49016714

>  <minimizedRMSD>  (1) 
2.38488793

$$$$
