
     RDKit          3D

 16 16  0  0  0  0  0  0  0  0999 V2000
   39.6620   30.6340   42.2300 C   0  0  0  0  0  0  0  0  0  0  0  0
   39.1050   29.6430   43.0620 C   0  0  0  0  0  0  0  0  0  0  0  0
   37.8000   29.2290   42.8120 C   0  0  0  0  0  0  0  0  0  0  0  0
   37.1240   29.7910   41.7850 N   0  0  0  0  0  0  0  0  0  0  0  0
   37.6830   30.7410   41.0000 C   0  0  0  0  0  0  0  0  0  0  0  0
   38.9420   31.1590   41.2220 N   0  0  0  0  0  0  0  0  0  0  0  0
   36.7350   31.1920   39.9440 C   0  0  0  0  0  0  0  0  0  0  0  0
   37.1380   30.7170   38.6990 F   0  0  0  0  0  0  0  0  0  0  0  0
   36.7010   32.5630   39.9080 F   0  0  0  0  0  0  0  0  0  0  0  0
   35.4600   30.7560   40.2170 F   0  0  0  0  0  0  0  0  0  0  0  0
   37.2190   28.1990   43.6760 C   0  0  0  0  0  0  0  0  0  0  0  0
   37.3000   27.0170   43.2480 O   0  0  0  0  0  0  0  0  0  0  0  0
   36.6370   28.6410   44.8800 O   0  0  0  0  0  0  0  0  0  0  0  0
   40.6912   30.9804   42.4054 H   0  0  0  0  0  0  0  0  0  0  0  0
   39.6865   29.2076   43.8880 H   0  0  0  0  0  0  0  0  0  0  0  0
   36.2294   27.9874   45.5020 H   0  0  0  0  0  0  0  0  0  0  0  0
  1  2  2  0
  3  2  1  0
  3 11  1  0
  4  3  2  0
  5  6  2  0
  5  4  1  0
  6  1  1  0
  7 10  1  0
  7  5  1  0
  8  7  1  0
  9  7  1  0
 11 13  1  0
 12 11  2  0
  1 14  1  0
  2 15  1  0
 13 16  1  0
M  ISO  3  14  14  15  14  16   3
M  END
>  <minimizedAffinity>  (1) 
-4.25937176

>  <minimizedRMSD>  (1) 
2.34209466

$$$$
