
     RDKit          3D

 25 26  0  0  0  0  0  0  0  0999 V2000
   40.3890   33.0260   40.2860 C   0  0  0  0  0  0  0  0  0  0  0  0
   39.6140   32.2390   41.1640 C   0  0  0  0  0  0  0  0  0  0  0  0
   38.6500   31.3920   40.6450 C   0  0  0  0  0  0  0  0  0  0  0  0
   38.4890   31.3540   39.2880 N   0  0  0  0  0  0  0  0  0  0  0  0
   39.2420   32.1160   38.4700 C   0  0  0  0  0  0  0  0  0  0  0  0
   40.1840   32.9460   38.9510 N   0  0  0  0  0  0  0  0  0  0  0  0
   39.0080   32.0150   37.0610 N   0  0  0  0  0  0  0  0  0  0  0  0
   37.8110   30.5560   41.3880 N   0  0  0  0  0  0  0  0  0  0  0  0
   36.3840   30.3970   41.1780 C   0  0  0  0  0  0  0  0  0  0  0  0
   36.0780   28.9350   41.1080 C   0  0  0  0  0  0  0  0  0  0  0  0
   36.6740   28.1780   42.0830 O   0  0  0  0  0  0  0  0  0  0  0  0
   37.4130   28.8630   43.0140 C   0  0  0  0  0  0  0  0  0  0  0  0
   38.4370   29.7950   42.4520 C   0  0  0  0  0  0  0  0  0  0  0  0
   41.1581   33.7031   40.6860 H   0  0  0  0  0  0  0  0  0  0  0  0
   39.7744   32.2980   42.2506 H   0  0  0  0  0  0  0  0  0  0  0  0
   38.2837   31.3758   36.7038 H   0  0  0  0  0  0  0  0  0  0  0  0
   39.5640   32.5816   36.4047 H   0  0  0  0  0  0  0  0  0  0  0  0
   35.8324   30.8526   42.0136 H   0  0  0  0  0  0  0  0  0  0  0  0
   36.0818   30.8919   40.2433 H   0  0  0  0  0  0  0  0  0  0  0  0
   34.9887   28.8084   41.1938 H   0  0  0  0  0  0  0  0  0  0  0  0
   36.4807   28.5788   40.1483 H   0  0  0  0  0  0  0  0  0  0  0  0
   36.7198   29.4518   43.6326 H   0  0  0  0  0  0  0  0  0  0  0  0
   37.9702   28.1029   43.5812 H   0  0  0  0  0  0  0  0  0  0  0  0
   39.2853   29.2206   42.0515 H   0  0  0  0  0  0  0  0  0  0  0  0
   38.8124   30.4694   43.2357 H   0  0  0  0  0  0  0  0  0  0  0  0
  1  2  2  0
  3  2  1  0
  3  8  1  0
  4  3  2  0
  5  6  2  0
  5  4  1  0
  6  1  1  0
  7  5  1  0
  8 13  1  0
  9  8  1  0
 10  9  1  0
 10 11  1  0
 11 12  1  0
 13 12  1  0
  1 14  1  0
  2 15  1  0
  7 16  1  0
  7 17  1  0
  9 18  1  0
  9 19  1  0
 10 20  1  0
 10 21  1  0
 12 22  1  0
 12 23  1  0
 13 24  1  0
 13 25  1  0
M  ISO  8  14  14  15  14  18  13  19  13  20  13  21  13  22  13  23  13
M  ISO  2  24  13  25  13
M  END
>  <minimizedAffinity>  (1) 
-4.19487143

>  <minimizedRMSD>  (1) 
5.01599836

$$$$
