
     RDKit          3D

 14 14  0  0  0  0  0  0  0  0999 V2000
   38.3720   28.8020   43.3280 C   0  0  0  0  0  0  0  0  0  0  0  0
   38.1350   27.4250   43.3420 C   0  0  0  0  0  0  0  0  0  0  0  0
   37.1970   26.9170   42.4600 C   0  0  0  0  0  0  0  0  0  0  0  0
   36.5430   27.7620   41.6160 N   0  0  0  0  0  0  0  0  0  0  0  0
   36.7950   29.0890   41.6260 C   0  0  0  0  0  0  0  0  0  0  0  0
   37.7090   29.6100   42.4810 N   0  0  0  0  0  0  0  0  0  0  0  0
   35.9780   29.8220   40.6340 C   0  0  0  0  0  0  0  0  0  0  0  0
   36.5610   29.7650   39.3780 F   0  0  0  0  0  0  0  0  0  0  0  0
   35.8290   31.1340   40.9980 F   0  0  0  0  0  0  0  0  0  0  0  0
   34.6980   29.2730   40.5710 F   0  0  0  0  0  0  0  0  0  0  0  0
   36.9210   25.5400   42.4340 O   0  0  0  0  0  0  0  0  0  0  0  0
   39.1116   29.2317   44.0197 H   0  0  0  0  0  0  0  0  0  0  0  0
   38.6779   26.7641   44.0337 H   0  0  0  0  0  0  0  0  0  0  0  0
   36.2492   25.1817   41.8013 H   0  0  0  0  0  0  0  0  0  0  0  0
  1  2  2  0
  3  2  1  0
  4  5  1  0
  4  3  2  0
  5  6  2  0
  6  1  1  0
  7  9  1  0
  7  5  1  0
  8  7  1  0
 10  7  1  0
 11  3  1  0
  1 12  1  0
  2 13  1  0
 11 14  1  0
M  ISO  3  12  14  13  14  14   3
M  END
>  <minimizedAffinity>  (1) 
-3.68574929

>  <minimizedRMSD>  (1) 
0.51260525

$$$$
