
     RDKit          3D

 19 20  0  0  0  0  0  0  0  0999 V2000
   38.5630   29.6390   42.5720 C   0  0  0  0  0  0  0  0  0  0  0  0
   39.3920   30.6990   42.1520 C   0  0  0  0  0  0  0  0  0  0  0  0
   38.8590   31.6790   41.3280 C   0  0  0  0  0  0  0  0  0  0  0  0
   37.5360   31.5720   40.9540 N   0  0  0  0  0  0  0  0  0  0  0  0
   36.7790   30.5460   41.3760 C   0  0  0  0  0  0  0  0  0  0  0  0
   37.2780   29.5750   42.1830 N   0  0  0  0  0  0  0  0  0  0  0  0
   35.4140   30.5090   40.9420 N   0  0  0  0  0  0  0  0  0  0  0  0
   39.5810   32.8300   40.8130 C   0  0  0  0  0  0  0  0  0  0  0  0
   38.8960   33.9080   40.2830 C   0  0  0  0  0  0  0  0  0  0  0  0
   39.8550   34.8170   39.8890 C   0  0  0  0  0  0  0  0  0  0  0  0
   41.0770   34.2220   40.2100 C   0  0  0  0  0  0  0  0  0  0  0  0
   40.8670   33.0490   40.7530 O   0  0  0  0  0  0  0  0  0  0  0  0
   38.9726   28.8550   43.2258 H   0  0  0  0  0  0  0  0  0  0  0  0
   40.4432   30.7480   42.4722 H   0  0  0  0  0  0  0  0  0  0  0  0
   34.7987   29.7396   41.2425 H   0  0  0  0  0  0  0  0  0  0  0  0
   35.0480   31.2518   40.3295 H   0  0  0  0  0  0  0  0  0  0  0  0
   37.8052   34.0182   40.1937 H   0  0  0  0  0  0  0  0  0  0  0  0
   39.6925   35.7997   39.4222 H   0  0  0  0  0  0  0  0  0  0  0  0
   42.0658   34.6705   40.0335 H   0  0  0  0  0  0  0  0  0  0  0  0
  2  1  2  0
  3  2  1  0
  4  3  2  0
  4  5  1  0
  5  6  2  0
  6  1  1  0
  7  5  1  0
  8  3  1  0
  9  8  2  0
 10 11  2  0
 10  9  1  0
 11 12  1  0
 12  8  1  0
  1 13  1  0
  2 14  1  0
  7 15  1  0
  7 16  1  0
  9 17  1  0
 10 18  1  0
 11 19  1  0
M  ISO  5  13  14  14  14  17  14  18  14  19  14
M  END
>  <minimizedAffinity>  (1) 
-4.14107084

>  <minimizedRMSD>  (1) 
6.98056507

$$$$
