
     RDKit          3D

 26 26  0  0  0  0  0  0  0  0999 V2000
   42.0440   31.8340   40.5530 C   0  0  0  0  0  0  0  0  0  0  0  0
   38.3590   32.5850   40.4190 C   0  0  0  0  0  0  0  0  0  0  0  0
   39.5730   31.8760   40.4940 C   0  0  0  0  0  0  0  0  0  0  0  0
   40.7660   32.5850   40.4730 C   0  0  0  0  0  0  0  0  0  0  0  0
   40.7150   33.9400   40.3800 N   0  0  0  0  0  0  0  0  0  0  0  0
   39.5490   34.5880   40.3100 C   0  0  0  0  0  0  0  0  0  0  0  0
   38.3650   33.9460   40.3270 N   0  0  0  0  0  0  0  0  0  0  0  0
   39.7630   36.0650   40.2130 C   0  0  0  0  0  0  0  0  0  0  0  0
   40.1400   36.5830   41.4400 F   0  0  0  0  0  0  0  0  0  0  0  0
   38.5990   36.6920   39.8090 F   0  0  0  0  0  0  0  0  0  0  0  0
   40.6840   36.3640   39.2310 F   0  0  0  0  0  0  0  0  0  0  0  0
   43.1820   32.5580   39.8780 C   0  0  0  0  0  0  0  0  0  0  0  0
   42.8550   32.7870   38.4900 N   0  0  0  0  0  0  0  0  0  0  0  0
   43.3520   33.9770   37.8930 C   0  0  0  0  0  0  0  0  0  0  0  0
   44.3030   34.7030   38.3530 N   0  0  0  0  0  0  0  0  0  0  0  0
   42.7350   34.3890   36.6830 N   0  0  0  0  0  0  0  0  0  0  0  0
   44.8510   34.5530   39.2020 H   0  0  0  0  0  0  0  0  0  0  0  0
   42.2998   31.6846   41.6124 H   0  0  0  0  0  0  0  0  0  0  0  0
   41.9018   30.8754   40.0325 H   0  0  0  0  0  0  0  0  0  0  0  0
   37.4035   32.0402   40.4346 H   0  0  0  0  0  0  0  0  0  0  0  0
   39.5760   30.7785   40.5680 H   0  0  0  0  0  0  0  0  0  0  0  0
   43.3502   33.5230   40.3785 H   0  0  0  0  0  0  0  0  0  0  0  0
   44.0938   31.9460   39.9424 H   0  0  0  0  0  0  0  0  0  0  0  0
   42.2854   32.1159   37.9552 H   0  0  0  0  0  0  0  0  0  0  0  0
   41.9672   33.8325   36.2810 H   0  0  0  0  0  0  0  0  0  0  0  0
   43.0551   35.2445   36.2070 H   0  0  0  0  0  0  0  0  0  0  0  0
  2  3  2  0
  4  3  1  0
  4  1  1  0
  5  4  2  0
  6  7  2  0
  6  5  1  0
  7  2  1  0
  8  6  1  0
  8  9  1  0
 10  8  1  0
 11  8  1  0
 12  1  1  0
 13 12  1  0
 14 15  2  0
 14 13  1  0
 15 17  1  0
 16 14  1  0
  1 18  1  0
  1 19  1  0
  2 20  1  0
  3 21  1  0
 12 22  1  0
 12 23  1  0
 13 24  1  0
 16 25  1  0
 16 26  1  0
M  ISO  6  18   8  19   8  20  14  21  14  22   8  23   8
M  END
>  <minimizedAffinity>  (1) 
-5.14134693

>  <minimizedRMSD>  (1) 
8.65903378

$$$$
