
     RDKit          3D

 21 21  0  0  0  0  0  0  0  0999 V2000
   39.7770   31.0590   42.4050 C   0  0  0  0  0  0  0  0  0  0  0  0
   39.0260   29.9620   42.8160 C   0  0  0  0  0  0  0  0  0  0  0  0
   37.8140   29.6990   42.1700 C   0  0  0  0  0  0  0  0  0  0  0  0
   37.4190   30.5260   41.1660 N   0  0  0  0  0  0  0  0  0  0  0  0
   38.1710   31.5830   40.7890 C   0  0  0  0  0  0  0  0  0  0  0  0
   39.3530   31.8660   41.3980 N   0  0  0  0  0  0  0  0  0  0  0  0
   37.5360   32.3370   39.6760 C   0  0  0  0  0  0  0  0  0  0  0  0
   38.4150   32.4340   38.5990 F   0  0  0  0  0  0  0  0  0  0  0  0
   37.1980   33.6070   40.0890 F   0  0  0  0  0  0  0  0  0  0  0  0
   36.3690   31.7360   39.2840 F   0  0  0  0  0  0  0  0  0  0  0  0
   36.9930   28.5390   42.5860 C   0  0  0  0  0  0  0  0  0  0  0  0
   37.3610   28.0350   43.9540 C   0  0  0  0  0  0  0  0  0  0  0  0
   36.4110   28.4570   44.9650 N   0  0  0  0  0  0  0  0  0  0  0  0
   40.7322   31.2768   42.9051 H   0  0  0  0  0  0  0  0  0  0  0  0
   39.3786   29.3148   43.6326 H   0  0  0  0  0  0  0  0  0  0  0  0
   35.9350   28.8401   42.5936 H   0  0  0  0  0  0  0  0  0  0  0  0
   37.1763   27.7251   41.8691 H   0  0  0  0  0  0  0  0  0  0  0  0
   37.3895   26.9356   43.9311 H   0  0  0  0  0  0  0  0  0  0  0  0
   38.3434   28.4545   44.2164 H   0  0  0  0  0  0  0  0  0  0  0  0
   36.8048   28.2821   45.9005 H   0  0  0  0  0  0  0  0  0  0  0  0
   36.2181   29.4629   44.8563 H   0  0  0  0  0  0  0  0  0  0  0  0
  1  2  2  0
  3 11  1  0
  3  2  1  0
  4  3  2  0
  5  4  1  0
  5  6  2  0
  6  1  1  0
  7  9  1  0
  7  5  1  0
  8  7  1  0
 10  7  1  0
 11 12  1  0
 12 13  1  0
  1 14  1  0
  2 15  1  0
 11 16  1  0
 11 17  1  0
 12 18  1  0
 12 19  1  0
 13 20  1  0
 13 21  1  0
M  ISO  8  14  14  15  14  16   8  17   8  18   8  19   8  20   5  21   5
M  END
>  <minimizedAffinity>  (1) 
-4.25816584

>  <minimizedRMSD>  (1) 
1.47885919

$$$$
