
     RDKit          3D

 31 32  0  0  0  0  0  0  0  0999 V2000
   43.4040   27.7890   44.6610 C   0  0  0  0  0  0  0  0  0  0  0  0
   44.5420   30.7080   46.6830 C   0  0  0  0  0  0  0  0  0  0  0  0
   44.2840   29.8720   45.6010 C   0  0  0  0  0  0  0  0  0  0  0  0
   43.6630   28.6560   45.8150 C   0  0  0  0  0  0  0  0  0  0  0  0
   43.3220   28.3210   47.0830 N   0  0  0  0  0  0  0  0  0  0  0  0
   43.5740   29.1350   48.1280 C   0  0  0  0  0  0  0  0  0  0  0  0
   44.1830   30.3310   47.9480 N   0  0  0  0  0  0  0  0  0  0  0  0
   43.1080   28.5630   49.4170 C   0  0  0  0  0  0  0  0  0  0  0  0
   42.0440   29.3290   49.9160 F   0  0  0  0  0  0  0  0  0  0  0  0
   44.1190   28.5320   50.3350 F   0  0  0  0  0  0  0  0  0  0  0  0
   42.6730   27.2710   49.2370 F   0  0  0  0  0  0  0  0  0  0  0  0
   42.1190   27.0520   44.6920 C   0  0  0  0  0  0  0  0  0  0  0  0
   41.3280   27.2190   43.4750 N   0  0  0  0  0  0  0  0  0  0  0  0
   40.0040   27.7320   43.3530 C   0  0  0  0  0  0  0  0  0  0  0  0
   38.8540   27.0500   43.7720 C   0  0  0  0  0  0  0  0  0  0  0  0
   37.6310   27.6390   43.5960 C   0  0  0  0  0  0  0  0  0  0  0  0
   37.4330   28.8710   43.0280 C   0  0  0  0  0  0  0  0  0  0  0  0
   38.5550   29.5610   42.6070 C   0  0  0  0  0  0  0  0  0  0  0  0
   39.7910   28.9880   42.7750 C   0  0  0  0  0  0  0  0  0  0  0  0
   44.2170   27.0503   44.6030 H   0  0  0  0  0  0  0  0  0  0  0  0
   43.3481   28.4566   43.7885 H   0  0  0  0  0  0  0  0  0  0  0  0
   45.0370   31.6767   46.5203 H   0  0  0  0  0  0  0  0  0  0  0  0
   44.5719   30.1764   44.5839 H   0  0  0  0  0  0  0  0  0  0  0  0
   42.3336   25.9813   44.8249 H   0  0  0  0  0  0  0  0  0  0  0  0
   41.5278   27.4624   45.5239 H   0  0  0  0  0  0  0  0  0  0  0  0
   41.7833   26.9305   42.5973 H   0  0  0  0  0  0  0  0  0  0  0  0
   38.9329   26.0556   44.2357 H   0  0  0  0  0  0  0  0  0  0  0  0
   36.7435   27.0842   43.9345 H   0  0  0  0  0  0  0  0  0  0  0  0
   36.4238   29.2930   42.9120 H   0  0  0  0  0  0  0  0  0  0  0  0
   38.4585   30.5543   42.1444 H   0  0  0  0  0  0  0  0  0  0  0  0
   40.6708   29.5529   42.4331 H   0  0  0  0  0  0  0  0  0  0  0  0
  1 12  1  0
  1  4  1  0
  2  7  2  0
  3  4  2  0
  3  2  1  0
  4  5  1  0
  5  6  2  0
  6  8  1  0
  7  6  1  0
  8  9  1  0
  8 10  1  0
 11  8  1  0
 13 12  1  0
 14 13  1  0
 14 15  2  0
 16 15  1  0
 17 16  2  0
 18 19  2  0
 18 17  1  0
 19 14  1  0
  1 20  1  0
  1 21  1  0
  2 22  1  0
  3 23  1  0
 12 24  1  0
 12 25  1  0
 13 26  1  0
 15 27  1  0
 16 28  1  0
 17 29  1  0
 18 30  1  0
 19 31  1  0
M  ISO  8  20   8  21   8  22  14  23  14  24   8  25   8  27  14  28  14
M  ISO  3  29  14  30  14  31  14
M  END
>  <minimizedAffinity>  (1) 
-5.69645548

>  <minimizedRMSD>  (1) 
8.22295094

$$$$
