
     RDKit          3D

 43 45  0  0  0  0  0  0  0  0999 V2000
   37.0200   30.6440   40.4330 C   0  0  0  0  0  0  0  0  0  0  0  0
   37.0920   32.1160   40.2820 C   0  0  0  0  0  0  0  0  0  0  0  0
   40.7670   32.4490   40.8290 C   0  0  0  0  0  0  0  0  0  0  0  0
   39.4810   31.8950   40.7110 C   0  0  0  0  0  0  0  0  0  0  0  0
   38.4120   32.7000   40.4070 C   0  0  0  0  0  0  0  0  0  0  0  0
   38.6250   34.0220   40.2280 N   0  0  0  0  0  0  0  0  0  0  0  0
   39.8570   34.5540   40.3420 C   0  0  0  0  0  0  0  0  0  0  0  0
   40.9400   33.7890   40.6410 N   0  0  0  0  0  0  0  0  0  0  0  0
   39.8410   36.0240   40.1130 C   0  0  0  0  0  0  0  0  0  0  0  0
   40.7800   36.3900   39.1760 F   0  0  0  0  0  0  0  0  0  0  0  0
   40.1170   36.6870   41.3160 F   0  0  0  0  0  0  0  0  0  0  0  0
   38.5720   36.4500   39.7760 F   0  0  0  0  0  0  0  0  0  0  0  0
   36.3490   30.2650   41.7110 N   0  0  0  0  0  0  0  0  0  0  0  0
   37.4130   29.0210   42.4230 S   0  0  0  0  0  0  0  0  0  0  0  0
   38.1550   29.5620   43.5390 O   0  0  0  0  0  0  0  0  0  0  0  0
   36.4420   27.9410   42.9490 O   0  0  0  0  0  0  0  0  0  0  0  0
   38.3460   28.2430   41.1730 C   0  0  0  0  0  0  0  0  0  0  0  0
   38.5660   26.7990   41.6320 C   0  0  0  0  0  0  0  0  0  0  0  0
   39.5230   26.5920   42.6430 C   0  0  0  0  0  0  0  0  0  0  0  0
   39.9090   25.3880   43.1840 C   0  0  0  0  0  0  0  0  0  0  0  0
   39.2850   24.2790   42.6730 C   0  0  0  0  0  0  0  0  0  0  0  0
   38.3400   24.3890   41.6860 C   0  0  0  0  0  0  0  0  0  0  0  0
   37.6790   23.3100   41.1450 C   0  0  0  0  0  0  0  0  0  0  0  0
   36.7100   23.4140   40.1490 C   0  0  0  0  0  0  0  0  0  0  0  0
   36.3990   24.6910   39.6810 C   0  0  0  0  0  0  0  0  0  0  0  0
   37.0660   25.7570   40.2270 C   0  0  0  0  0  0  0  0  0  0  0  0
   38.0110   25.6260   41.2010 C   0  0  0  0  0  0  0  0  0  0  0  0
   38.0401   30.2324   40.4275 H   0  0  0  0  0  0  0  0  0  0  0  0
   36.4328   30.2363   39.5969 H   0  0  0  0  0  0  0  0  0  0  0  0
   36.4497   32.5660   41.0534 H   0  0  0  0  0  0  0  0  0  0  0  0
   36.7693   32.3262   39.2516 H   0  0  0  0  0  0  0  0  0  0  0  0
   41.6271   31.8074   41.0710 H   0  0  0  0  0  0  0  0  0  0  0  0
   39.3312   30.8158   40.8623 H   0  0  0  0  0  0  0  0  0  0  0  0
   36.2715   31.0793   42.3369 H   0  0  0  0  0  0  0  0  0  0  0  0
   39.3123   28.7532   41.0464 H   0  0  0  0  0  0  0  0  0  0  0  0
   37.8237   28.2784   40.2055 H   0  0  0  0  0  0  0  0  0  0  0  0
   40.0154   27.4903   43.0437 H   0  0  0  0  0  0  0  0  0  0  0  0
   40.6695   25.3190   43.9758 H   0  0  0  0  0  0  0  0  0  0  0  0
   39.5472   23.2840   43.0618 H   0  0  0  0  0  0  0  0  0  0  0  0
   37.9302   22.3071   41.5206 H   0  0  0  0  0  0  0  0  0  0  0  0
   36.2085   22.5216   39.7464 H   0  0  0  0  0  0  0  0  0  0  0  0
   35.6412   24.8381   38.8973 H   0  0  0  0  0  0  0  0  0  0  0  0
   36.8273   26.7667   39.8617 H   0  0  0  0  0  0  0  0  0  0  0  0
  1 13  1  0
  2  5  1  0
  2  1  1  0
  4  3  2  0
  5  4  1  0
  6  7  1  0
  6  5  2  0
  7  8  2  0
  8  3  1  0
  9  7  1  0
  9 11  1  0
 10  9  1  0
 12  9  1  0
 13 14  1  0
 14 16  2  0
 14 15  2  0
 17 18  1  0
 17 14  1  0
 18 19  2  0
 19 20  1  0
 21 20  2  0
 22 21  1  0
 23 22  2  0
 24 23  1  0
 25 24  2  0
 25 26  1  0
 26 27  2  0
 27 18  1  0
 27 22  1  0
  1 28  1  0
  1 29  1  0
  2 30  1  0
  2 31  1  0
  3 32  1  0
  4 33  1  0
 13 34  1  0
 17 35  1  0
 17 36  1  0
 19 37  1  0
 20 38  1  0
 21 39  1  0
 23 40  1  0
 24 41  1  0
 25 42  1  0
 26 43  1  0
M  ISO  8  28   8  29   8  30   8  31   8  32  14  33  14  34   5  35   8
M  ISO  8  36   8  37  14  38  14  39  14  40  14  41  14  42  14  43  14
M  END
>  <minimizedAffinity>  (1) 
-6.60328913

>  <minimizedRMSD>  (1) 
1.059232

$$$$
