
     RDKit          3D

 39 40  0  0  0  0  0  0  0  0999 V2000
   36.9180   30.3780   40.7320 C   0  0  0  0  0  0  0  0  0  0  0  0
   36.9940   31.8210   40.4990 C   0  0  0  0  0  0  0  0  0  0  0  0
   40.6030   32.1420   39.6330 C   0  0  0  0  0  0  0  0  0  0  0  0
   39.3330   31.5910   39.9160 C   0  0  0  0  0  0  0  0  0  0  0  0
   38.2820   32.4190   40.2230 C   0  0  0  0  0  0  0  0  0  0  0  0
   38.5010   33.7500   40.2460 N   0  0  0  0  0  0  0  0  0  0  0  0
   39.7090   34.2760   39.9780 C   0  0  0  0  0  0  0  0  0  0  0  0
   40.7710   33.4950   39.6690 N   0  0  0  0  0  0  0  0  0  0  0  0
   39.7070   35.7580   40.0800 C   0  0  0  0  0  0  0  0  0  0  0  0
   40.6930   36.3180   39.3100 F   0  0  0  0  0  0  0  0  0  0  0  0
   39.8920   36.1360   41.4160 F   0  0  0  0  0  0  0  0  0  0  0  0
   38.4520   36.2640   39.7700 F   0  0  0  0  0  0  0  0  0  0  0  0
   36.4380   30.0780   42.1370 N   0  0  0  0  0  0  0  0  0  0  0  0
   37.7060   29.0890   42.7970 S   0  0  0  0  0  0  0  0  0  0  0  0
   38.8860   29.9970   43.0460 O   0  0  0  0  0  0  0  0  0  0  0  0
   37.2620   28.5410   44.1350 O   0  0  0  0  0  0  0  0  0  0  0  0
   38.2000   27.7280   41.8210 C   0  0  0  0  0  0  0  0  0  0  0  0
   38.0690   26.5370   42.7040 N   0  0  0  0  0  0  0  0  0  0  0  0
   39.3790   26.0140   42.8970 C   0  0  0  0  0  0  0  0  0  0  0  0
   39.2710   24.5010   42.7690 C   0  0  0  0  0  0  0  0  0  0  0  0
   37.9180   24.2140   42.2050 C   0  0  0  0  0  0  0  0  0  0  0  0
   37.2430   25.5430   42.1110 C   0  0  0  0  0  0  0  0  0  0  0  0
   37.9164   29.9382   40.5917 H   0  0  0  0  0  0  0  0  0  0  0  0
   36.2017   29.9456   40.0179 H   0  0  0  0  0  0  0  0  0  0  0  0
   36.3442   32.0436   39.6398 H   0  0  0  0  0  0  0  0  0  0  0  0
   36.6999   32.2603   41.4636 H   0  0  0  0  0  0  0  0  0  0  0  0
   41.4497   31.4848   39.3856 H   0  0  0  0  0  0  0  0  0  0  0  0
   39.1868   30.5011   39.8904 H   0  0  0  0  0  0  0  0  0  0  0  0
   36.3268   30.9455   42.6811 H   0  0  0  0  0  0  0  0  0  0  0  0
   39.2424   27.8495   41.4915 H   0  0  0  0  0  0  0  0  0  0  0  0
   37.5860   27.6325   40.9133 H   0  0  0  0  0  0  0  0  0  0  0  0
   40.0620   26.4111   42.1316 H   0  0  0  0  0  0  0  0  0  0  0  0
   39.7772   26.2997   43.8818 H   0  0  0  0  0  0  0  0  0  0  0  0
   40.0517   24.1209   42.0937 H   0  0  0  0  0  0  0  0  0  0  0  0
   39.4055   24.0106   43.7444 H   0  0  0  0  0  0  0  0  0  0  0  0
   38.0047   23.7541   41.2095 H   0  0  0  0  0  0  0  0  0  0  0  0
   37.3523   23.5090   42.8319 H   0  0  0  0  0  0  0  0  0  0  0  0
   37.0704   25.7926   41.0537 H   0  0  0  0  0  0  0  0  0  0  0  0
   36.2795   25.5032   42.6403 H   0  0  0  0  0  0  0  0  0  0  0  0
  1 13  1  0
  2  1  1  0
  3  8  2  0
  3  4  1  0
  4  5  2  0
  5  6  1  0
  5  2  1  0
  7  9  1  0
  7  6  2  0
  8  7  1  0
  9 11  1  0
 10  9  1  0
 12  9  1  0
 13 14  1  0
 14 15  2  0
 14 16  2  0
 17 18  1  0
 17 14  1  0
 18 19  1  0
 20 19  1  0
 21 20  1  0
 22 21  1  0
 22 18  1  0
  1 23  1  0
  1 24  1  0
  2 25  1  0
  2 26  1  0
  3 27  1  0
  4 28  1  0
 13 29  1  0
 17 30  1  0
 17 31  1  0
 19 32  1  0
 19 33  1  0
 20 34  1  0
 20 35  1  0
 21 36  1  0
 21 37  1  0
 22 38  1  0
 22 39  1  0
M  ISO  8  23   8  24   8  25   8  26   8  27  14  28  14  29   5  30   8
M  ISO  8  31   8  32  13  33  13  34  13  35  13  36  13  37  13  38  13
M  ISO  1  39  13
M  END
>  <minimizedAffinity>  (1) 
-5.63076401

>  <minimizedRMSD>  (1) 
1.497895

$$$$
