
     RDKit          3D

 36 39  0  0  1  0  0  0  0  0999 V2000
   37.8780   26.1920   40.9790 C   0  0  1  0  0  0  0  0  0  0  0  0
   37.2180   25.4350   42.1440 C   0  0  0  0  0  0  0  0  0  0  0  0
   36.5400   24.2750   41.4550 C   0  0  0  0  0  0  0  0  0  0  0  0
   36.7720   24.4580   39.9660 C   0  0  0  0  0  0  0  0  0  0  0  0
   36.8650   25.9940   39.9030 C   0  0  2  0  0  0  0  0  0  0  0  0
   38.0990   27.5760   41.3660 C   0  0  0  0  0  0  0  0  0  0  0  0
   36.9800   28.3780   41.6490 C   0  0  0  0  0  0  0  0  0  0  0  0
   37.1280   29.7230   42.0340 C   0  0  0  0  0  0  0  0  0  0  0  0
   38.4260   30.1700   42.1080 N   0  0  0  0  0  0  0  0  0  0  0  0
   39.4860   29.3800   41.8310 C   0  0  0  0  0  0  0  0  0  0  0  0
   39.3150   28.0940   41.4630 N   0  0  0  0  0  0  0  0  0  0  0  0
   37.2960   26.4230   38.5880 N   0  0  0  0  0  0  0  0  0  0  0  0
   38.2990   26.0060   37.7970 C   0  0  0  0  0  0  0  0  0  0  0  0
   38.2500   26.7580   36.6620 N   0  0  0  0  0  0  0  0  0  0  0  0
   37.2420   27.6160   36.7540 C   0  0  0  0  0  0  0  0  0  0  0  0
   36.7410   28.5990   35.9090 C   0  0  0  0  0  0  0  0  0  0  0  0
   35.6840   29.3310   36.2750 N   0  0  0  0  0  0  0  0  0  0  0  0
   35.0820   29.1480   37.4420 C   0  0  0  0  0  0  0  0  0  0  0  0
   35.5670   28.1980   38.2590 N   0  0  0  0  0  0  0  0  0  0  0  0
   36.6210   27.4260   37.9640 C   0  0  0  0  0  0  0  0  0  0  0  0
   37.3250   28.8570   34.6460 N   0  0  0  0  0  0  0  0  0  0  0  0
   38.8753   25.8511   40.6642 H   0  0  0  0  0  0  0  0  0  0  0  0
   37.9715   25.0819   42.8633 H   0  0  0  0  0  0  0  0  0  0  0  0
   36.5243   26.0578   42.7278 H   0  0  0  0  0  0  0  0  0  0  0  0
   36.9780   23.3243   41.7932 H   0  0  0  0  0  0  0  0  0  0  0  0
   35.4654   24.2487   41.6883 H   0  0  0  0  0  0  0  0  0  0  0  0
   37.7046   23.9776   39.6351 H   0  0  0  0  0  0  0  0  0  0  0  0
   36.0047   24.0110   39.3168 H   0  0  0  0  0  0  0  0  0  0  0  0
   35.9385   26.5686   40.0497 H   0  0  0  0  0  0  0  0  0  0  0  0
   35.9713   27.9467   41.5681 H   0  0  0  0  0  0  0  0  0  0  0  0
   36.2675   30.3701   42.2595 H   0  0  0  0  0  0  0  0  0  0  0  0
   40.5033   29.7915   41.9067 H   0  0  0  0  0  0  0  0  0  0  0  0
   39.0224   25.2087   38.0230 H   0  0  0  0  0  0  0  0  0  0  0  0
   34.2121   29.7554   37.7325 H   0  0  0  0  0  0  0  0  0  0  0  0
   38.1405   28.3105   34.3344 H   0  0  0  0  0  0  0  0  0  0  0  0
   36.9345   29.5913   34.0384 H   0  0  0  0  0  0  0  0  0  0  0  0
  1  6  1  0
  1  2  1  0
  3  2  1  0
  4  3  1  0
  5  4  1  0
  5  1  1  0
  6 11  1  0
  6  7  2  0
  7  8  1  0
  8  9  2  0
 10  9  1  0
 11 10  2  0
 12  5  1  0
 13 12  1  0
 14 15  1  0
 14 13  2  0
 15 20  2  0
 16 17  2  0
 16 15  1  0
 17 18  1  0
 18 19  2  0
 20 19  1  0
 20 12  1  0
 21 16  1  0
  1 22  1  6
  2 23  1  0
  2 24  1  0
  3 25  1  0
  3 26  1  0
  4 27  1  0
  4 28  1  0
  5 29  1  1
  7 30  1  0
  8 31  1  0
 10 32  1  0
 13 33  1  0
 18 34  1  0
 21 35  1  0
 21 36  1  0
M  ISO  8  22  13  23  13  24  13  25  13  26  13  27  13  28  13  29  13
M  ISO  5  30  14  31  14  32  14  33  14  34  14
M  END
>  <minimizedAffinity>  (1) 
-4.79986048

>  <minimizedRMSD>  (1) 
1.25186384

$$$$
