
     RDKit          3D

 36 38  0  0  1  0  0  0  0  0999 V2000
   38.2790   27.9830   42.4620 C   0  0  1  0  0  0  0  0  0  0  0  0
   37.8900   28.8800   43.6520 C   0  0  0  0  0  0  0  0  0  0  0  0
   36.8080   28.0890   44.3430 C   0  0  0  0  0  0  0  0  0  0  0  0
   36.5550   26.8540   43.4890 C   0  0  0  0  0  0  0  0  0  0  0  0
   36.9450   27.4270   42.1150 C   0  0  2  0  0  0  0  0  0  0  0  0
   36.9560   26.4030   41.1100 N   0  0  0  0  0  0  0  0  0  0  0  0
   37.4100   25.1580   41.3460 C   0  0  0  0  0  0  0  0  0  0  0  0
   37.4150   24.1680   40.3580 C   0  0  0  0  0  0  0  0  0  0  0  0
   37.9070   22.7860   40.5800 C   0  0  0  0  0  0  0  0  0  0  0  0
   36.9380   24.4620   39.0840 C   0  0  0  0  0  0  0  0  0  0  0  0
   36.9180   23.6090   38.1530 O   0  0  0  0  0  0  0  0  0  0  0  0
   36.4920   25.7160   38.8840 N   0  0  0  0  0  0  0  0  0  0  0  0
   36.5010   26.6570   39.8680 C   0  0  0  0  0  0  0  0  0  0  0  0
   36.0560   27.8140   39.5780 O   0  0  0  0  0  0  0  0  0  0  0  0
   38.9080   28.7940   41.4280 C   0  0  0  0  0  0  0  0  0  0  0  0
   38.4940   30.1540   41.3190 C   0  0  0  0  0  0  0  0  0  0  0  0
   39.1000   30.9530   40.3290 C   0  0  0  0  0  0  0  0  0  0  0  0
   40.0560   30.3540   39.5350 N   0  0  0  0  0  0  0  0  0  0  0  0
   40.4090   29.0630   39.6830 C   0  0  0  0  0  0  0  0  0  0  0  0
   39.8370   28.2900   40.6250 N   0  0  0  0  0  0  0  0  0  0  0  0
   39.0222   27.1915   42.6384 H   0  0  0  0  0  0  0  0  0  0  0  0
   38.7482   29.0416   44.3208 H   0  0  0  0  0  0  0  0  0  0  0  0
   37.5604   29.8836   43.3451 H   0  0  0  0  0  0  0  0  0  0  0  0
   37.1391   27.7927   45.3493 H   0  0  0  0  0  0  0  0  0  0  0  0
   35.8915   28.6868   44.4552 H   0  0  0  0  0  0  0  0  0  0  0  0
   37.1982   26.0112   43.7820 H   0  0  0  0  0  0  0  0  0  0  0  0
   35.5410   26.4328   43.5552 H   0  0  0  0  0  0  0  0  0  0  0  0
   36.2654   28.1693   41.6710 H   0  0  0  0  0  0  0  0  0  0  0  0
   37.7894   24.9111   42.3485 H   0  0  0  0  0  0  0  0  0  0  0  0
   37.9765   22.5907   41.6603 H   0  0  0  0  0  0  0  0  0  0  0  0
   37.2085   22.0701   40.1222 H   0  0  0  0  0  0  0  0  0  0  0  0
   38.9007   22.6726   40.1222 H   0  0  0  0  0  0  0  0  0  0  0  0
   36.1313   25.9728   37.9540 H   0  0  0  0  0  0  0  0  0  0  0  0
   37.7245   30.5672   41.9877 H   0  0  0  0  0  0  0  0  0  0  0  0
   38.8227   32.0090   40.1951 H   0  0  0  0  0  0  0  0  0  0  0  0
   41.1772   28.6331   39.0235 H   0  0  0  0  0  0  0  0  0  0  0  0
  1  2  1  0
  2  3  1  0
  4  3  1  0
  5  1  1  0
  5  4  1  0
  6  7  1  0
  6  5  1  0
  8  9  1  0
  8  7  2  0
 10  8  1  0
 11 10  2  0
 12 10  1  0
 12 13  1  0
 13  6  1  0
 14 13  2  0
 15  1  1  0
 16 15  2  0
 17 16  1  0
 18 19  1  0
 18 17  2  0
 19 20  2  0
 20 15  1  0
  1 21  1  1
  2 22  1  0
  2 23  1  0
  3 24  1  0
  3 25  1  0
  4 26  1  0
  4 27  1  0
  5 28  1  6
  7 29  1  0
  9 30  1  0
  9 31  1  0
  9 32  1  0
 12 33  1  0
 16 34  1  0
 17 35  1  0
 19 36  1  0
M  ISO  8  21  13  22  13  23  13  24  13  25  13  26  13  27  13  28  13
M  ISO  8  29  14  30   8  31   8  32   8  33   9  34  14  35  14  36  14
M  END
>  <minimizedAffinity>  (1) 
-4.75271463

>  <minimizedRMSD>  (1) 
3.28749561

$$$$
