
     RDKit          3D

 32 34  0  0  1  0  0  0  0  0999 V2000
   37.5740   26.7860   41.1500 C   0  0  1  0  0  0  0  0  0  0  0  0
   37.0670   26.2440   42.4970 C   0  0  0  0  0  0  0  0  0  0  0  0
   36.8580   24.7800   42.2120 C   0  0  0  0  0  0  0  0  0  0  0  0
   37.0800   24.5720   40.7260 C   0  0  0  0  0  0  0  0  0  0  0  0
   36.7480   25.9820   40.2110 C   0  0  2  0  0  0  0  0  0  0  0  0
   37.3530   28.2220   41.1070 C   0  0  0  0  0  0  0  0  0  0  0  0
   36.0400   28.6870   40.9310 C   0  0  0  0  0  0  0  0  0  0  0  0
   35.7580   30.0620   40.8850 C   0  0  0  0  0  0  0  0  0  0  0  0
   36.8460   30.8980   41.0240 N   0  0  0  0  0  0  0  0  0  0  0  0
   38.1020   30.4150   41.1940 C   0  0  0  0  0  0  0  0  0  0  0  0
   38.3480   29.0870   41.2340 N   0  0  0  0  0  0  0  0  0  0  0  0
   37.0880   26.1590   38.7890 C   0  0  0  0  0  0  0  0  0  0  0  0
   36.1700   26.4550   37.7940 C   0  0  0  0  0  0  0  0  0  0  0  0
   36.5330   26.6140   36.4700 C   0  0  0  0  0  0  0  0  0  0  0  0
   37.8590   26.4820   36.0710 C   0  0  0  0  0  0  0  0  0  0  0  0
   38.7190   26.1930   37.0820 C   0  0  0  0  0  0  0  0  0  0  0  0
   38.3810   26.0370   38.3640 N   0  0  0  0  0  0  0  0  0  0  0  0
   38.6469   26.6880   40.9279 H   0  0  0  0  0  0  0  0  0  0  0  0
   37.8156   26.3902   43.2896 H   0  0  0  0  0  0  0  0  0  0  0  0
   36.1592   26.7511   42.8559 H   0  0  0  0  0  0  0  0  0  0  0  0
   37.5769   24.1784   42.7876 H   0  0  0  0  0  0  0  0  0  0  0  0
   35.8433   24.4687   42.5009 H   0  0  0  0  0  0  0  0  0  0  0  0
   38.1196   24.2896   40.5034 H   0  0  0  0  0  0  0  0  0  0  0  0
   36.4877   23.7614   40.2764 H   0  0  0  0  0  0  0  0  0  0  0  0
   35.6823   26.2544   40.2099 H   0  0  0  0  0  0  0  0  0  0  0  0
   35.2188   27.9625   40.8274 H   0  0  0  0  0  0  0  0  0  0  0  0
   34.7367   30.4468   40.7472 H   0  0  0  0  0  0  0  0  0  0  0  0
   38.9392   31.1203   41.3017 H   0  0  0  0  0  0  0  0  0  0  0  0
   35.1109   26.5678   38.0688 H   0  0  0  0  0  0  0  0  0  0  0  0
   35.7623   26.8483   35.7210 H   0  0  0  0  0  0  0  0  0  0  0  0
   38.1833   26.6014   35.0267 H   0  0  0  0  0  0  0  0  0  0  0  0
   39.7818   26.0780   36.8229 H   0  0  0  0  0  0  0  0  0  0  0  0
  1  2  1  0
  3  2  1  0
  4  3  1  0
  5  4  1  0
  5  1  1  0
  6  1  1  0
  6 11  1  0
  7  6  2  0
  8  7  1  0
  8  9  2  0
  9 10  1  0
 10 11  2  0
 12  5  1  0
 13 12  2  0
 14 13  1  0
 15 14  2  0
 15 16  1  0
 16 17  2  0
 17 12  1  0
  1 18  1  6
  2 19  1  0
  2 20  1  0
  3 21  1  0
  3 22  1  0
  4 23  1  0
  4 24  1  0
  5 25  1  6
  7 26  1  0
  8 27  1  0
 10 28  1  0
 13 29  1  0
 14 30  1  0
 15 31  1  0
 16 32  1  0
M  ISO  8  18  13  19  13  20  13  21  13  22  13  23  13  24  13  25  13
M  ISO  7  26  14  27  14  28  14  29  14  30  14  31  14  32  14
M  END
>  <minimizedAffinity>  (1) 
-4.03531075

>  <minimizedRMSD>  (1) 
0.326111943

$$$$
