
     RDKit          3D

 37 39  0  0  1  0  0  0  0  0999 V2000
   37.5490   26.8190   41.1790 C   0  0  1  0  0  0  0  0  0  0  0  0
   37.0650   26.2650   42.5310 C   0  0  0  0  0  0  0  0  0  0  0  0
   36.8560   24.8070   42.2750 C   0  0  0  0  0  0  0  0  0  0  0  0
   37.1160   24.5810   40.7940 C   0  0  0  0  0  0  0  0  0  0  0  0
   36.8010   25.9790   40.2270 C   0  0  2  0  0  0  0  0  0  0  0  0
   37.2830   28.2490   41.1230 C   0  0  0  0  0  0  0  0  0  0  0  0
   35.9540   28.6520   40.7990 C   0  0  0  0  0  0  0  0  0  0  0  0
   35.6510   30.0230   40.7420 C   0  0  0  0  0  0  0  0  0  0  0  0
   36.6960   30.8910   41.0110 N   0  0  0  0  0  0  0  0  0  0  0  0
   37.9280   30.4670   41.3120 C   0  0  0  0  0  0  0  0  0  0  0  0
   38.2280   29.1430   41.3690 N   0  0  0  0  0  0  0  0  0  0  0  0
   37.1240   26.0620   38.8490 N   0  0  0  0  0  0  0  0  0  0  0  0
   35.9790   26.0640   37.9970 C   0  0  0  0  0  0  0  0  0  0  0  0
   36.3930   25.9440   36.5500 C   0  0  0  0  0  0  0  0  0  0  0  0
   36.9970   24.6580   36.3140 N   0  0  0  0  0  0  0  0  0  0  0  0
   37.8610   24.2230   37.3670 C   0  0  0  0  0  0  0  0  0  0  0  0
   38.2240   25.3400   38.3530 C   0  0  0  0  0  0  0  0  0  0  0  0
   38.6277   26.7627   40.9709 H   0  0  0  0  0  0  0  0  0  0  0  0
   37.8254   26.4193   43.3108 H   0  0  0  0  0  0  0  0  0  0  0  0
   36.1533   26.7652   42.8898 H   0  0  0  0  0  0  0  0  0  0  0  0
   37.5576   24.2120   42.8781 H   0  0  0  0  0  0  0  0  0  0  0  0
   35.8359   24.4998   42.5487 H   0  0  0  0  0  0  0  0  0  0  0  0
   38.1612   24.2943   40.6059 H   0  0  0  0  0  0  0  0  0  0  0  0
   36.5269   23.7661   40.3481 H   0  0  0  0  0  0  0  0  0  0  0  0
   35.7473   26.2913   40.1799 H   0  0  0  0  0  0  0  0  0  0  0  0
   35.1769   27.9002   40.5965 H   0  0  0  0  0  0  0  0  0  0  0  0
   34.6417   30.3859   40.4977 H   0  0  0  0  0  0  0  0  0  0  0  0
   38.7159   31.2064   41.5180 H   0  0  0  0  0  0  0  0  0  0  0  0
   35.3316   25.2143   38.2594 H   0  0  0  0  0  0  0  0  0  0  0  0
   35.4372   27.0115   38.1334 H   0  0  0  0  0  0  0  0  0  0  0  0
   35.5068   26.0533   35.9076 H   0  0  0  0  0  0  0  0  0  0  0  0
   37.1230   26.7332   36.3173 H   0  0  0  0  0  0  0  0  0  0  0  0
   36.2458   23.9622   36.2023 H   0  0  0  0  0  0  0  0  0  0  0  0
   37.3576   23.4174   37.9216 H   0  0  0  0  0  0  0  0  0  0  0  0
   38.7973   23.8823   36.9009 H   0  0  0  0  0  0  0  0  0  0  0  0
   38.7503   24.8871   39.2062 H   0  0  0  0  0  0  0  0  0  0  0  0
   38.8437   26.0585   37.7965 H   0  0  0  0  0  0  0  0  0  0  0  0
  1  2  1  0
  3  2  1  0
  4  3  1  0
  5  4  1  0
  5  1  1  0
  6  1  1  0
  6 11  1  0
  7  6  2  0
  8  7  1  0
  8  9  2  0
  9 10  1  0
 10 11  2  0
 12  5  1  0
 13 12  1  0
 14 13  1  0
 15 14  1  0
 15 16  1  0
 16 17  1  0
 17 12  1  0
  1 18  1  6
  2 19  1  0
  2 20  1  0
  3 21  1  0
  3 22  1  0
  4 23  1  0
  4 24  1  0
  5 25  1  6
  7 26  1  0
  8 27  1  0
 10 28  1  0
 13 29  1  0
 13 30  1  0
 14 31  1  0
 14 32  1  0
 15 33  1  0
 16 34  1  0
 16 35  1  0
 17 36  1  0
 17 37  1  0
M  ISO  8  18  13  19  13  20  13  21  13  22  13  23  13  24  13  25  13
M  ISO  8  26  14  27  14  28  14  29  13  30  13  31  13  32  13  33   5
M  ISO  4  34  13  35  13  36  13  37  13
M  END
>  <minimizedAffinity>  (1) 
-3.87394547

>  <minimizedRMSD>  (1) 
0.276999176

$$$$
