
     RDKit          3D

 26 27  0  0  1  0  0  0  0  0999 V2000
   37.4980   26.7740   41.2040 C   0  0  1  0  0  0  0  0  0  0  0  0
   37.0080   26.1940   42.5360 C   0  0  0  0  0  0  0  0  0  0  0  0
   36.8870   24.7220   42.2570 C   0  0  0  0  0  0  0  0  0  0  0  0
   37.0950   24.5270   40.7840 C   0  0  0  0  0  0  0  0  0  0  0  0
   36.8080   25.9170   40.2140 C   0  0  2  0  0  0  0  0  0  0  0  0
   37.1890   28.1950   41.1470 C   0  0  0  0  0  0  0  0  0  0  0  0
   35.9130   28.5610   40.6930 C   0  0  0  0  0  0  0  0  0  0  0  0
   35.5540   29.9160   40.6170 C   0  0  0  0  0  0  0  0  0  0  0  0
   36.5150   30.8210   41.0070 N   0  0  0  0  0  0  0  0  0  0  0  0
   37.7380   30.4220   41.4400 C   0  0  0  0  0  0  0  0  0  0  0  0
   38.0760   29.1080   41.5100 N   0  0  0  0  0  0  0  0  0  0  0  0
   37.6110   25.9460   38.9060 C   0  0  0  0  0  0  0  0  0  0  0  0
   38.9510   26.0990   39.2170 F   0  0  0  0  0  0  0  0  0  0  0  0
   37.4610   24.7000   38.3040 F   0  0  0  0  0  0  0  0  0  0  0  0
   37.1450   26.9070   38.0360 F   0  0  0  0  0  0  0  0  0  0  0  0
   38.5838   26.7532   41.0292 H   0  0  0  0  0  0  0  0  0  0  0  0
   37.7363   26.3831   43.3384 H   0  0  0  0  0  0  0  0  0  0  0  0
   36.0636   26.6437   42.8765 H   0  0  0  0  0  0  0  0  0  0  0  0
   37.6516   24.1681   42.8214 H   0  0  0  0  0  0  0  0  0  0  0  0
   35.8987   24.3482   42.5630 H   0  0  0  0  0  0  0  0  0  0  0  0
   38.1275   24.2155   40.5675 H   0  0  0  0  0  0  0  0  0  0  0  0
   36.4573   23.7402   40.3547 H   0  0  0  0  0  0  0  0  0  0  0  0
   35.7571   26.1946   40.0448 H   0  0  0  0  0  0  0  0  0  0  0  0
   35.1925   27.7847   40.3960 H   0  0  0  0  0  0  0  0  0  0  0  0
   34.5619   30.2361   40.2660 H   0  0  0  0  0  0  0  0  0  0  0  0
   38.4740   31.1817   41.7418 H   0  0  0  0  0  0  0  0  0  0  0  0
  1  2  1  0
  3  2  1  0
  4  3  1  0
  5  4  1  0
  5  1  1  0
  6  1  1  0
  6 11  1  0
  7  6  2  0
  8  7  1  0
  8  9  2  0
  9 10  1  0
 10 11  2  0
 12 13  1  0
 12  5  1  0
 14 12  1  0
 15 12  1  0
  1 16  1  1
  2 17  1  0
  2 18  1  0
  3 19  1  0
  3 20  1  0
  4 21  1  0
  4 22  1  0
  5 23  1  6
  7 24  1  0
  8 25  1  0
 10 26  1  0
M  ISO  8  16  13  17  13  18  13  19  13  20  13  21  13  22  13  23  13
M  ISO  3  24  14  25  14  26  14
M  END
>  <minimizedAffinity>  (1) 
-3.85559392

>  <minimizedRMSD>  (1) 
0.338012308

$$$$
