
     RDKit          3D

 30 32  0  0  1  0  0  0  0  0999 V2000
   37.6000   26.7820   41.1630 C   0  0  1  0  0  0  0  0  0  0  0  0
   37.0500   26.2340   42.4910 C   0  0  0  0  0  0  0  0  0  0  0  0
   36.8480   24.7740   42.2000 C   0  0  0  0  0  0  0  0  0  0  0  0
   37.1700   24.5680   40.7170 C   0  0  0  0  0  0  0  0  0  0  0  0
   36.8070   25.9700   40.1940 C   0  0  2  0  0  0  0  0  0  0  0  0
   37.3730   28.2150   41.1130 C   0  0  0  0  0  0  0  0  0  0  0  0
   36.0420   28.6690   40.9330 C   0  0  0  0  0  0  0  0  0  0  0  0
   35.7570   30.0440   40.8850 C   0  0  0  0  0  0  0  0  0  0  0  0
   36.8440   30.8910   41.0210 N   0  0  0  0  0  0  0  0  0  0  0  0
   38.0980   30.4140   41.1900 C   0  0  0  0  0  0  0  0  0  0  0  0
   38.3510   29.1030   41.2350 N   0  0  0  0  0  0  0  0  0  0  0  0
   37.1670   26.1640   38.7880 C   0  0  0  0  0  0  0  0  0  0  0  0
   38.3700   26.1270   38.0740 C   0  0  0  0  0  0  0  0  0  0  0  0
   38.1340   26.3840   36.7640 N   0  0  0  0  0  0  0  0  0  0  0  0
   36.8010   26.5810   36.6360 C   0  0  0  0  0  0  0  0  0  0  0  0
   36.2260   26.4500   37.8410 N   0  0  0  0  0  0  0  0  0  0  0  0
   38.6805   26.6923   40.9774 H   0  0  0  0  0  0  0  0  0  0  0  0
   37.7734   26.3775   43.3072 H   0  0  0  0  0  0  0  0  0  0  0  0
   36.1306   26.7404   42.8199 H   0  0  0  0  0  0  0  0  0  0  0  0
   37.5230   24.1673   42.8216 H   0  0  0  0  0  0  0  0  0  0  0  0
   35.8163   24.4663   42.4256 H   0  0  0  0  0  0  0  0  0  0  0  0
   38.2315   24.3295   40.5548 H   0  0  0  0  0  0  0  0  0  0  0  0
   36.6460   23.7318   40.2311 H   0  0  0  0  0  0  0  0  0  0  0  0
   35.7356   26.2174   40.1636 H   0  0  0  0  0  0  0  0  0  0  0  0
   35.2258   27.9388   40.8301 H   0  0  0  0  0  0  0  0  0  0  0  0
   34.7339   30.4241   40.7479 H   0  0  0  0  0  0  0  0  0  0  0  0
   38.9317   31.1241   41.2931 H   0  0  0  0  0  0  0  0  0  0  0  0
   39.3585   25.9204   38.5101 H   0  0  0  0  0  0  0  0  0  0  0  0
   36.2752   26.8109   35.6975 H   0  0  0  0  0  0  0  0  0  0  0  0
   35.2177   26.5509   38.0255 H   0  0  0  0  0  0  0  0  0  0  0  0
  1  2  1  0
  3  2  1  0
  4  3  1  0
  5  4  1  0
  5  1  1  0
  6  1  1  0
  6 11  1  0
  7  6  2  0
  8  7  1  0
  8  9  2  0
  9 10  1  0
 10 11  2  0
 12  5  1  0
 13 12  2  0
 14 13  1  0
 15 14  2  0
 15 16  1  0
 16 12  1  0
  1 17  1  1
  2 18  1  0
  2 19  1  0
  3 20  1  0
  3 21  1  0
  4 22  1  0
  4 23  1  0
  5 24  1  6
  7 25  1  0
  8 26  1  0
 10 27  1  0
 13 28  1  0
 15 29  1  0
 16 30  1  0
M  ISO  8  17  13  18  13  19  13  20  13  21  13  22  13  23  13  24  13
M  ISO  6  25  14  26  14  27  14  28  14  29  14  30   9
M  END
>  <minimizedAffinity>  (1) 
-3.79936528

>  <minimizedRMSD>  (1) 
0.279987246

$$$$
