
     RDKit          3D

 24 25  0  0  1  0  0  0  0  0999 V2000
   37.5510   26.7770   41.1970 C   0  0  1  0  0  0  0  0  0  0  0  0
   37.0000   26.1740   42.5020 C   0  0  0  0  0  0  0  0  0  0  0  0
   36.9820   24.6990   42.2090 C   0  0  0  0  0  0  0  0  0  0  0  0
   37.2590   24.5180   40.7420 C   0  0  0  0  0  0  0  0  0  0  0  0
   36.9160   25.9020   40.1810 C   0  0  2  0  0  0  0  0  0  0  0  0
   37.2140   28.1880   41.1350 C   0  0  0  0  0  0  0  0  0  0  0  0
   35.9240   28.5190   40.6550 C   0  0  0  0  0  0  0  0  0  0  0  0
   35.5510   29.8750   40.5850 C   0  0  0  0  0  0  0  0  0  0  0  0
   36.4910   30.8010   40.9970 N   0  0  0  0  0  0  0  0  0  0  0  0
   37.7090   30.4270   41.4480 C   0  0  0  0  0  0  0  0  0  0  0  0
   38.0740   29.1230   41.5180 N   0  0  0  0  0  0  0  0  0  0  0  0
   37.6110   25.9880   38.9870 O   0  0  0  0  0  0  0  0  0  0  0  0
   38.6434   26.7874   41.0681 H   0  0  0  0  0  0  0  0  0  0  0  0
   37.6600   26.4006   43.3523 H   0  0  0  0  0  0  0  0  0  0  0  0
   36.0142   26.5732   42.7828 H   0  0  0  0  0  0  0  0  0  0  0  0
   37.7567   24.1904   42.8016 H   0  0  0  0  0  0  0  0  0  0  0  0
   36.0050   24.2671   42.4716 H   0  0  0  0  0  0  0  0  0  0  0  0
   38.3142   24.2641   40.5627 H   0  0  0  0  0  0  0  0  0  0  0  0
   36.6890   23.6982   40.2805 H   0  0  0  0  0  0  0  0  0  0  0  0
   35.8546   26.1332   40.0078 H   0  0  0  0  0  0  0  0  0  0  0  0
   35.2245   27.7299   40.3419 H   0  0  0  0  0  0  0  0  0  0  0  0
   34.5598   30.1825   40.2202 H   0  0  0  0  0  0  0  0  0  0  0  0
   38.4229   31.2008   41.7666 H   0  0  0  0  0  0  0  0  0  0  0  0
   38.5757   26.1074   39.1746 H   0  0  0  0  0  0  0  0  0  0  0  0
  1  2  1  0
  3  2  1  0
  4  3  1  0
  5  4  1  0
  5  1  1  0
  6  1  1  0
  6 11  1  0
  7  6  2  0
  8  7  1  0
  8  9  2  0
  9 10  1  0
 10 11  2  0
 12  5  1  0
  1 13  1  1
  2 14  1  0
  2 15  1  0
  3 16  1  0
  3 17  1  0
  4 18  1  0
  4 19  1  0
  5 20  1  6
  7 21  1  0
  8 22  1  0
 10 23  1  0
 12 24  1  0
M  ISO  8  13  13  14  13  15  13  16  13  17  13  18  13  19  13  20  13
M  ISO  4  21  14  22  14  23  14  24   3
M  END
>  <minimizedAffinity>  (1) 
-3.64668298

>  <minimizedRMSD>  (1) 
0.0728073418

$$$$
