
     RDKit          3D

 39 42  0  0  1  0  0  0  0  0999 V2000
   37.5760   26.7330   41.1070 C   0  0  1  0  0  0  0  0  0  0  0  0
   37.1510   26.2680   42.5170 C   0  0  0  0  0  0  0  0  0  0  0  0
   36.8530   24.8160   42.3030 C   0  0  0  0  0  0  0  0  0  0  0  0
   36.8490   24.5610   40.8330 C   0  0  0  0  0  0  0  0  0  0  0  0
   36.6780   25.9700   40.2260 C   0  0  2  0  0  0  0  0  0  0  0  0
   37.1070   25.9170   38.8620 N   0  0  0  0  0  0  0  0  0  0  0  0
   37.2380   26.8320   37.7960 C   0  0  0  0  0  0  0  0  0  0  0  0
   38.3680   27.1130   37.1570 N   0  0  0  0  0  0  0  0  0  0  0  0
   38.5270   27.9670   36.1520 C   0  0  0  0  0  0  0  0  0  0  0  0
   37.4310   28.6320   35.7190 N   0  0  0  0  0  0  0  0  0  0  0  0
   36.2260   28.4220   36.3000 C   0  0  0  0  0  0  0  0  0  0  0  0
   35.1520   29.1230   35.8210 C   0  0  0  0  0  0  0  0  0  0  0  0
   33.8940   28.9640   36.3610 C   0  0  0  0  0  0  0  0  0  0  0  0
   33.7610   28.0700   37.4040 C   0  0  0  0  0  0  0  0  0  0  0  0
   34.8770   27.3930   37.8440 C   0  0  0  0  0  0  0  0  0  0  0  0
   36.1470   27.5240   37.3320 C   0  0  0  0  0  0  0  0  0  0  0  0
   37.4250   28.1830   41.0440 C   0  0  0  0  0  0  0  0  0  0  0  0
   36.0950   28.7140   41.0050 C   0  0  0  0  0  0  0  0  0  0  0  0
   35.9360   30.1070   40.9330 C   0  0  0  0  0  0  0  0  0  0  0  0
   37.0740   30.8730   40.9050 N   0  0  0  0  0  0  0  0  0  0  0  0
   38.3200   30.3230   40.9450 C   0  0  0  0  0  0  0  0  0  0  0  0
   38.4870   28.9810   41.0130 N   0  0  0  0  0  0  0  0  0  0  0  0
   38.6219   26.5490   40.8203 H   0  0  0  0  0  0  0  0  0  0  0  0
   37.9662   26.4038   43.2429 H   0  0  0  0  0  0  0  0  0  0  0  0
   36.3022   26.8340   42.9282 H   0  0  0  0  0  0  0  0  0  0  0  0
   37.6256   24.2005   42.7871 H   0  0  0  0  0  0  0  0  0  0  0  0
   35.8774   24.5564   42.7398 H   0  0  0  0  0  0  0  0  0  0  0  0
   37.7967   24.1056   40.5099 H   0  0  0  0  0  0  0  0  0  0  0  0
   36.0606   23.8603   40.5208 H   0  0  0  0  0  0  0  0  0  0  0  0
   35.6653   26.3977   40.1876 H   0  0  0  0  0  0  0  0  0  0  0  0
   37.3940   24.9665   38.5878 H   0  0  0  0  0  0  0  0  0  0  0  0
   39.5120   28.1274   35.6894 H   0  0  0  0  0  0  0  0  0  0  0  0
   35.2960   29.8273   34.9884 H   0  0  0  0  0  0  0  0  0  0  0  0
   33.0308   29.5269   35.9762 H   0  0  0  0  0  0  0  0  0  0  0  0
   32.7816   27.9012   37.8754 H   0  0  0  0  0  0  0  0  0  0  0  0
   34.7409   26.6869   38.6764 H   0  0  0  0  0  0  0  0  0  0  0  0
   35.2206   28.0472   41.0308 H   0  0  0  0  0  0  0  0  0  0  0  0
   34.9372   30.5668   40.9003 H   0  0  0  0  0  0  0  0  0  0  0  0
   39.2029   30.9786   40.9217 H   0  0  0  0  0  0  0  0  0  0  0  0
  1  2  1  0
  3  2  1  0
  4  3  1  0
  5  4  1  0
  5  1  1  0
  6  5  1  0
  7  6  1  0
  8  7  2  0
  9  8  1  0
 10  9  2  0
 10 11  1  0
 11 16  2  0
 12 11  1  0
 12 13  2  0
 13 14  1  0
 14 15  2  0
 16  7  1  0
 16 15  1  0
 17  1  1  0
 18 17  2  0
 19 18  1  0
 20 19  2  0
 20 21  1  0
 21 22  2  0
 22 17  1  0
  1 23  1  6
  2 24  1  0
  2 25  1  0
  3 26  1  0
  3 27  1  0
  4 28  1  0
  4 29  1  0
  5 30  1  6
  6 31  1  0
  9 32  1  0
 12 33  1  0
 13 34  1  0
 14 35  1  0
 15 36  1  0
 18 37  1  0
 19 38  1  0
 21 39  1  0
M  ISO  8  23  13  24  13  25  13  26  13  27  13  28  13  29  13  30  13
M  ISO  8  32  14  33  14  34  14  35  14  36  14  37  14  38  14  39  14
M  END
>  <minimizedAffinity>  (1) 
-5.13241863

>  <minimizedRMSD>  (1) 
0.944591284

$$$$
