
     RDKit          3D

 35 37  0  0  1  0  0  0  0  0999 V2000
   37.6290   26.8780   41.0980 C   0  0  1  0  0  0  0  0  0  0  0  0
   37.1570   26.3780   42.4810 C   0  0  0  0  0  0  0  0  0  0  0  0
   36.8190   24.9480   42.2100 C   0  0  0  0  0  0  0  0  0  0  0  0
   36.8990   24.7310   40.7050 C   0  0  0  0  0  0  0  0  0  0  0  0
   36.7120   26.1780   40.1790 C   0  0  2  0  0  0  0  0  0  0  0  0
   37.5910   28.3260   41.0770 C   0  0  0  0  0  0  0  0  0  0  0  0
   36.2970   28.9330   41.1590 C   0  0  0  0  0  0  0  0  0  0  0  0
   36.1720   30.3290   41.1450 C   0  0  0  0  0  0  0  0  0  0  0  0
   37.3350   31.0360   41.0540 N   0  0  0  0  0  0  0  0  0  0  0  0
   38.5480   30.4210   40.9790 C   0  0  0  0  0  0  0  0  0  0  0  0
   38.6810   29.0610   40.9900 N   0  0  0  0  0  0  0  0  0  0  0  0
   37.1800   26.1480   38.8250 N   0  0  0  0  0  0  0  0  0  0  0  0
   36.9470   27.1100   37.8110 C   0  0  0  0  0  0  0  0  0  0  0  0
   35.8250   27.9030   37.7140 C   0  0  0  0  0  0  0  0  0  0  0  0
   35.5940   28.8300   36.7290 C   0  0  0  0  0  0  0  0  0  0  0  0
   36.5370   29.0000   35.7530 C   0  0  0  0  0  0  0  0  0  0  0  0
   37.6820   28.2310   35.8000 C   0  0  0  0  0  0  0  0  0  0  0  0
   37.8670   27.3160   36.8080 C   0  0  0  0  0  0  0  0  0  0  0  0
   38.6695   26.6584   40.8166 H   0  0  0  0  0  0  0  0  0  0  0  0
   37.9591   26.4620   43.2290 H   0  0  0  0  0  0  0  0  0  0  0  0
   36.3171   26.9565   42.8931 H   0  0  0  0  0  0  0  0  0  0  0  0
   37.5363   24.2899   42.7221 H   0  0  0  0  0  0  0  0  0  0  0  0
   35.8100   24.7136   42.5801 H   0  0  0  0  0  0  0  0  0  0  0  0
   37.8746   24.3179   40.4090 H   0  0  0  0  0  0  0  0  0  0  0  0
   36.1649   24.0111   40.3140 H   0  0  0  0  0  0  0  0  0  0  0  0
   35.7084   26.6280   40.1628 H   0  0  0  0  0  0  0  0  0  0  0  0
   35.3988   28.3024   41.2332 H   0  0  0  0  0  0  0  0  0  0  0  0
   35.1924   30.8259   41.2040 H   0  0  0  0  0  0  0  0  0  0  0  0
   39.4534   31.0416   40.9070 H   0  0  0  0  0  0  0  0  0  0  0  0
   37.7514   25.3336   38.5581 H   0  0  0  0  0  0  0  0  0  0  0  0
   35.0525   27.7837   38.4879 H   0  0  0  0  0  0  0  0  0  0  0  0
   34.6686   29.4247   36.7244 H   0  0  0  0  0  0  0  0  0  0  0  0
   36.3860   29.7340   34.9478 H   0  0  0  0  0  0  0  0  0  0  0  0
   38.4526   28.3516   35.0243 H   0  0  0  0  0  0  0  0  0  0  0  0
   38.7922   26.7211   36.8138 H   0  0  0  0  0  0  0  0  0  0  0  0
  1  2  1  0
  3  2  1  0
  4  3  1  0
  5  4  1  0
  5  1  1  0
  6  1  1  0
  6  7  2  0
  8  7  1  0
  9  8  2  0
 10 11  2  0
 10  9  1  0
 11  6  1  0
 12  5  1  0
 13 12  1  0
 14 13  2  0
 15 14  1  0
 16 17  1  0
 16 15  2  0
 17 18  2  0
 18 13  1  0
  1 19  1  6
  2 20  1  0
  2 21  1  0
  3 22  1  0
  3 23  1  0
  4 24  1  0
  4 25  1  0
  5 26  1  6
  7 27  1  0
  8 28  1  0
 10 29  1  0
 12 30  1  0
 14 31  1  0
 15 32  1  0
 16 33  1  0
 17 34  1  0
 18 35  1  0
M  ISO  8  19  13  20  13  21  13  22  13  23  13  24  13  25  13  26  13
M  ISO  8  27  14  28  14  29  14  31  14  32  14  33  14  34  14  35  14
M  END
>  <minimizedAffinity>  (1) 
-4.18606186

>  <minimizedRMSD>  (1) 
2.10600281

$$$$
