
     RDKit          3D

 32 34  0  0  1  0  0  0  0  0999 V2000
   37.6680   26.7840   41.2600 C   0  0  1  0  0  0  0  0  0  0  0  0
   36.9270   26.1530   42.4650 C   0  0  0  0  0  0  0  0  0  0  0  0
   36.9340   24.6980   42.1250 C   0  0  0  0  0  0  0  0  0  0  0  0
   37.3750   24.5580   40.7010 C   0  0  0  0  0  0  0  0  0  0  0  0
   37.1820   25.9740   40.1380 C   0  0  2  0  0  0  0  0  0  0  0  0
   37.4170   28.2020   41.2200 C   0  0  0  0  0  0  0  0  0  0  0  0
   36.0940   28.6000   40.8630 C   0  0  0  0  0  0  0  0  0  0  0  0
   35.7860   29.9700   40.8150 C   0  0  0  0  0  0  0  0  0  0  0  0
   36.8060   30.8480   41.1230 N   0  0  0  0  0  0  0  0  0  0  0  0
   38.0500   30.4080   41.4560 C   0  0  0  0  0  0  0  0  0  0  0  0
   38.3440   29.0930   41.5010 N   0  0  0  0  0  0  0  0  0  0  0  0
   37.9960   26.0730   38.9580 N   0  0  0  0  0  0  0  0  0  0  0  0
   37.6850   26.8610   37.8170 C   0  0  0  0  0  0  0  0  0  0  0  0
   38.5460   27.2380   36.8040 C   0  0  0  0  0  0  0  0  0  0  0  0
   37.7730   27.9890   35.9370 C   0  0  0  0  0  0  0  0  0  0  0  0
   36.4920   28.0100   36.4940 C   0  0  0  0  0  0  0  0  0  0  0  0
   36.4600   27.3250   37.6250 O   0  0  0  0  0  0  0  0  0  0  0  0
   38.7675   26.7564   41.2766 H   0  0  0  0  0  0  0  0  0  0  0  0
   37.4641   26.3437   43.4058 H   0  0  0  0  0  0  0  0  0  0  0  0
   35.9176   26.5614   42.6211 H   0  0  0  0  0  0  0  0  0  0  0  0
   37.6319   24.1634   42.7862 H   0  0  0  0  0  0  0  0  0  0  0  0
   35.9296   24.2695   42.2580 H   0  0  0  0  0  0  0  0  0  0  0  0
   38.4292   24.2496   40.6422 H   0  0  0  0  0  0  0  0  0  0  0  0
   36.8136   23.7913   40.1470 H   0  0  0  0  0  0  0  0  0  0  0  0
   36.1686   26.2717   39.8307 H   0  0  0  0  0  0  0  0  0  0  0  0
   35.3276   27.8464   40.6291 H   0  0  0  0  0  0  0  0  0  0  0  0
   34.7808   30.3259   40.5451 H   0  0  0  0  0  0  0  0  0  0  0  0
   38.8338   31.1422   41.6939 H   0  0  0  0  0  0  0  0  0  0  0  0
   38.8719   25.5314   38.9376 H   0  0  0  0  0  0  0  0  0  0  0  0
   39.6143   26.9938   36.7080 H   0  0  0  0  0  0  0  0  0  0  0  0
   38.0992   28.4698   35.0030 H   0  0  0  0  0  0  0  0  0  0  0  0
   35.6271   28.5263   36.0519 H   0  0  0  0  0  0  0  0  0  0  0  0
  1  2  1  0
  3  2  1  0
  4  3  1  0
  5  4  1  0
  5  1  1  0
  6  1  1  0
  6 11  1  0
  7  6  2  0
  8  7  1  0
  8  9  2  0
  9 10  1  0
 10 11  2  0
 12  5  1  0
 13 12  1  0
 14 13  2  0
 15 16  2  0
 15 14  1  0
 16 17  1  0
 17 13  1  0
  1 18  1  1
  2 19  1  0
  2 20  1  0
  3 21  1  0
  3 22  1  0
  4 23  1  0
  4 24  1  0
  5 25  1  6
  7 26  1  0
  8 27  1  0
 10 28  1  0
 12 29  1  0
 14 30  1  0
 15 31  1  0
 16 32  1  0
M  ISO  8  18  13  19  13  20  13  21  13  22  13  23  13  24  13  25  13
M  ISO  6  26  14  27  14  28  14  30  14  31  14  32  14
M  END
>  <minimizedAffinity>  (1) 
-3.91771388

>  <minimizedRMSD>  (1) 
1.63858819

$$$$
