
     RDKit          3D

 31 32  0  0  1  0  0  0  0  0999 V2000
   37.5660   26.7700   41.2300 C   0  0  1  0  0  0  0  0  0  0  0  0
   36.9820   26.1780   42.5280 C   0  0  0  0  0  0  0  0  0  0  0  0
   36.9590   24.6990   42.2220 C   0  0  0  0  0  0  0  0  0  0  0  0
   37.3050   24.5230   40.7690 C   0  0  0  0  0  0  0  0  0  0  0  0
   36.9510   25.9070   40.1870 C   0  0  2  0  0  0  0  0  0  0  0  0
   37.2200   28.1870   41.1520 C   0  0  0  0  0  0  0  0  0  0  0  0
   35.9260   28.5170   40.6860 C   0  0  0  0  0  0  0  0  0  0  0  0
   35.5360   29.8580   40.5930 C   0  0  0  0  0  0  0  0  0  0  0  0
   36.4700   30.7900   40.9750 N   0  0  0  0  0  0  0  0  0  0  0  0
   37.7070   30.4310   41.4180 C   0  0  0  0  0  0  0  0  0  0  0  0
   38.0890   29.1290   41.5100 N   0  0  0  0  0  0  0  0  0  0  0  0
   37.6200   25.9910   38.9290 N   0  0  0  0  0  0  0  0  0  0  0  0
   36.9080   25.4860   37.8170 C   0  0  0  0  0  0  0  0  0  0  0  0
   35.4930   26.0860   37.8680 C   0  0  0  0  0  0  0  0  0  0  0  0
   38.6621   26.7640   41.1372 H   0  0  0  0  0  0  0  0  0  0  0  0
   37.6272   26.3966   43.3917 H   0  0  0  0  0  0  0  0  0  0  0  0
   35.9976   26.5887   42.7968 H   0  0  0  0  0  0  0  0  0  0  0  0
   37.6970   24.1761   42.8481 H   0  0  0  0  0  0  0  0  0  0  0  0
   35.9644   24.2791   42.4330 H   0  0  0  0  0  0  0  0  0  0  0  0
   38.3729   24.2948   40.6369 H   0  0  0  0  0  0  0  0  0  0  0  0
   36.7764   23.6889   40.2844 H   0  0  0  0  0  0  0  0  0  0  0  0
   35.8951   26.1520   39.9996 H   0  0  0  0  0  0  0  0  0  0  0  0
   35.2259   27.7195   40.3966 H   0  0  0  0  0  0  0  0  0  0  0  0
   34.5378   30.1492   40.2342 H   0  0  0  0  0  0  0  0  0  0  0  0
   38.4182   31.2177   41.7101 H   0  0  0  0  0  0  0  0  0  0  0  0
   37.8270   26.9835   38.7471 H   0  0  0  0  0  0  0  0  0  0  0  0
   36.8536   24.3887   37.8718 H   0  0  0  0  0  0  0  0  0  0  0  0
   37.4116   25.7564   36.8772 H   0  0  0  0  0  0  0  0  0  0  0  0
   35.1873   26.2156   38.9167 H   0  0  0  0  0  0  0  0  0  0  0  0
   35.4904   27.0627   37.3619 H   0  0  0  0  0  0  0  0  0  0  0  0
   34.7892   25.4089   37.3619 H   0  0  0  0  0  0  0  0  0  0  0  0
  1  2  1  0
  3  2  1  0
  4  3  1  0
  5  4  1  0
  5  1  1  0
  6  1  1  0
  6 11  1  0
  7  6  2  0
  8  7  1  0
  8  9  2  0
  9 10  1  0
 10 11  2  0
 12  5  1  0
 13 14  1  0
 13 12  1  0
  1 15  1  1
  2 16  1  0
  2 17  1  0
  3 18  1  0
  3 19  1  0
  4 20  1  0
  4 21  1  0
  5 22  1  6
  7 23  1  0
  8 24  1  0
 10 25  1  0
 12 26  1  0
 13 27  1  0
 13 28  1  0
 14 29  1  0
 14 30  1  0
 14 31  1  0
M  ISO  8  15  13  16  13  17  13  18  13  19  13  20  13  21  13  22  13
M  ISO  8  23  14  24  14  25  14  26   5  27   8  28   8  29   8  30   8
M  ISO  1  31   8
M  END
>  <minimizedAffinity>  (1) 
-3.56750488

>  <minimizedRMSD>  (1) 
0.114101842

$$$$
