
     RDKit          3D

 31 32  0  0  1  0  0  0  0  0999 V2000
   37.5510   26.7880   41.2000 C   0  0  1  0  0  0  0  0  0  0  0  0
   36.9810   26.1790   42.5090 C   0  0  0  0  0  0  0  0  0  0  0  0
   36.9780   24.7050   42.2030 C   0  0  0  0  0  0  0  0  0  0  0  0
   37.3120   24.5330   40.7510 C   0  0  0  0  0  0  0  0  0  0  0  0
   36.9480   25.9220   40.1720 C   0  0  2  0  0  0  0  0  0  0  0  0
   37.2350   28.1960   41.1450 C   0  0  0  0  0  0  0  0  0  0  0  0
   35.9250   28.5370   40.6980 C   0  0  0  0  0  0  0  0  0  0  0  0
   35.5560   29.8890   40.6250 C   0  0  0  0  0  0  0  0  0  0  0  0
   36.5170   30.8110   41.0040 N   0  0  0  0  0  0  0  0  0  0  0  0
   37.7400   30.4340   41.4190 C   0  0  0  0  0  0  0  0  0  0  0  0
   38.1090   29.1200   41.4920 N   0  0  0  0  0  0  0  0  0  0  0  0
   37.6020   26.0080   38.9000 N   0  0  0  0  0  0  0  0  0  0  0  0
   36.5150   25.8660   37.5740 S   0  0  0  0  0  0  0  0  0  0  0  0
   37.3130   26.6240   36.1610 C   0  0  0  0  0  0  0  0  0  0  0  0
   35.2680   26.6700   37.8050 O   0  0  0  0  0  0  0  0  0  0  0  0
   36.1650   24.4660   37.2440 O   0  0  0  0  0  0  0  0  0  0  0  0
   38.6446   26.7937   41.0819 H   0  0  0  0  0  0  0  0  0  0  0  0
   37.6285   26.4060   43.3688 H   0  0  0  0  0  0  0  0  0  0  0  0
   35.9917   26.5736   42.7838 H   0  0  0  0  0  0  0  0  0  0  0  0
   37.7297   24.1936   42.8222 H   0  0  0  0  0  0  0  0  0  0  0  0
   35.9914   24.2709   42.4224 H   0  0  0  0  0  0  0  0  0  0  0  0
   38.3795   24.3082   40.6101 H   0  0  0  0  0  0  0  0  0  0  0  0
   36.7820   23.6982   40.2692 H   0  0  0  0  0  0  0  0  0  0  0  0
   35.8891   26.1618   39.9950 H   0  0  0  0  0  0  0  0  0  0  0  0
   35.2116   27.7495   40.4136 H   0  0  0  0  0  0  0  0  0  0  0  0
   34.5570   30.1996   40.2850 H   0  0  0  0  0  0  0  0  0  0  0  0
   38.4660   31.2079   41.7088 H   0  0  0  0  0  0  0  0  0  0  0  0
   38.0791   26.9187   38.8372 H   0  0  0  0  0  0  0  0  0  0  0  0
   38.0696   27.3427   36.5090 H   0  0  0  0  0  0  0  0  0  0  0  0
   37.7983   25.8462   35.5531 H   0  0  0  0  0  0  0  0  0  0  0  0
   36.5612   27.1486   35.5531 H   0  0  0  0  0  0  0  0  0  0  0  0
  1  2  1  0
  3  2  1  0
  4  3  1  0
  5  4  1  0
  5  1  1  0
  6  1  1  0
  6 11  1  0
  7  6  2  0
  8  7  1  0
  8  9  2  0
  9 10  1  0
 10 11  2  0
 12  5  1  0
 13 15  2  0
 13 12  1  0
 14 13  1  0
 16 13  2  0
  1 17  1  1
  2 18  1  0
  2 19  1  0
  3 20  1  0
  3 21  1  0
  4 22  1  0
  4 23  1  0
  5 24  1  6
  7 25  1  0
  8 26  1  0
 10 27  1  0
 12 28  1  0
 14 29  1  0
 14 30  1  0
 14 31  1  0
M  ISO  8  17  13  18  13  19  13  20  13  21  13  22  13  23  13  24  13
M  ISO  7  25  14  26  14  27  14  28   5  29   8  30   8  31   8
M  END
>  <minimizedAffinity>  (1) 
-3.6898551

>  <minimizedRMSD>  (1) 
0.23677586

$$$$
