
     RDKit          3D

 45 48  0  0  1  0  0  0  0  0999 V2000
   38.0420   28.8180   42.3480 C   0  0  1  0  0  0  0  0  0  0  0  0
   37.1280   28.9070   43.6140 C   0  0  0  0  0  0  0  0  0  0  0  0
   36.7210   27.4570   43.7860 C   0  0  0  0  0  0  0  0  0  0  0  0
   37.1900   26.6930   42.5830 C   0  0  0  0  0  0  0  0  0  0  0  0
   37.3620   27.8330   41.5250 C   0  0  2  0  0  0  0  0  0  0  0  0
   38.2350   30.1360   41.7990 C   0  0  0  0  0  0  0  0  0  0  0  0
   37.1010   30.6790   41.1040 C   0  0  0  0  0  0  0  0  0  0  0  0
   37.2120   31.9650   40.5460 C   0  0  0  0  0  0  0  0  0  0  0  0
   38.4260   32.6170   40.7150 N   0  0  0  0  0  0  0  0  0  0  0  0
   39.4570   32.0520   41.3810 C   0  0  0  0  0  0  0  0  0  0  0  0
   39.3670   30.8020   41.9300 N   0  0  0  0  0  0  0  0  0  0  0  0
   38.1310   27.2550   40.4870 N   0  0  0  0  0  0  0  0  0  0  0  0
   37.4050   27.3270   38.9440 S   0  0  0  0  0  0  0  0  0  0  0  0
   37.4780   28.6990   38.3630 O   0  0  0  0  0  0  0  0  0  0  0  0
   35.9750   26.8880   38.9670 O   0  0  0  0  0  0  0  0  0  0  0  0
   38.3180   26.2600   37.8550 C   0  0  0  0  0  0  0  0  0  0  0  0
   37.8750   24.8870   37.9580 N   0  0  0  0  0  0  0  0  0  0  0  0
   37.2440   24.1210   37.0390 C   0  0  0  0  0  0  0  0  0  0  0  0
   37.0030   22.8870   37.5350 N   0  0  0  0  0  0  0  0  0  0  0  0
   37.4740   22.8130   38.7960 C   0  0  0  0  0  0  0  0  0  0  0  0
   37.5670   21.9030   39.8470 C   0  0  0  0  0  0  0  0  0  0  0  0
   37.0660   20.7750   39.5830 O   0  0  0  0  0  0  0  0  0  0  0  0
   38.1460   22.2560   41.0030 N   0  0  0  0  0  0  0  0  0  0  0  0
   38.6610   23.4750   41.2180 C   0  0  0  0  0  0  0  0  0  0  0  0
   39.2710   23.8220   42.4550 N   0  0  0  0  0  0  0  0  0  0  0  0
   38.5700   24.3430   40.2090 N   0  0  0  0  0  0  0  0  0  0  0  0
   38.0050   24.0730   39.0150 C   0  0  0  0  0  0  0  0  0  0  0  0
   39.0792   28.4865   42.5040 H   0  0  0  0  0  0  0  0  0  0  0  0
   37.6848   29.2758   44.4880 H   0  0  0  0  0  0  0  0  0  0  0  0
   36.2831   29.6040   43.5127 H   0  0  0  0  0  0  0  0  0  0  0  0
   37.1861   27.0448   44.6936 H   0  0  0  0  0  0  0  0  0  0  0  0
   35.6282   27.3780   43.8842 H   0  0  0  0  0  0  0  0  0  0  0  0
   38.1442   26.1825   42.7800 H   0  0  0  0  0  0  0  0  0  0  0  0
   36.5031   25.8936   42.2680 H   0  0  0  0  0  0  0  0  0  0  0  0
   36.4863   28.2786   41.0304 H   0  0  0  0  0  0  0  0  0  0  0  0
   36.1686   30.1029   41.0106 H   0  0  0  0  0  0  0  0  0  0  0  0
   36.3775   32.4317   40.0021 H   0  0  0  0  0  0  0  0  0  0  0  0
   40.3969   32.6139   41.4849 H   0  0  0  0  0  0  0  0  0  0  0  0
   39.0333   27.7497   40.4414 H   0  0  0  0  0  0  0  0  0  0  0  0
   39.3850   26.3112   38.1173 H   0  0  0  0  0  0  0  0  0  0  0  0
   38.1500   26.5985   36.8220 H   0  0  0  0  0  0  0  0  0  0  0  0
   36.9658   24.4557   36.0288 H   0  0  0  0  0  0  0  0  0  0  0  0
   38.1976   21.5596   41.7601 H   0  0  0  0  0  0  0  0  0  0  0  0
   39.6581   24.7667   42.5912 H   0  0  0  0  0  0  0  0  0  0  0  0
   39.3256   23.1286   43.2147 H   0  0  0  0  0  0  0  0  0  0  0  0
  1  2  1  0
  2  3  1  0
  4  3  1  0
  5  1  1  0
  5  4  1  0
  6 11  1  0
  6  1  1  0
  7  6  2  0
  8  9  2  0
  8  7  1  0
  9 10  1  0
 10 11  2  0
 12  5  1  0
 13 15  2  0
 13 12  1  0
 14 13  2  0
 16 17  1  0
 16 13  1  0
 17 27  1  0
 18 19  2  0
 18 17  1  0
 19 20  1  0
 20 27  2  0
 20 21  1  0
 21 23  1  0
 22 21  2  0
 23 24  1  0
 24 25  1  0
 26 24  2  0
 27 26  1  0
  1 28  1  1
  2 29  1  0
  2 30  1  0
  3 31  1  0
  3 32  1  0
  4 33  1  0
  4 34  1  0
  5 35  1  6
  7 36  1  0
  8 37  1  0
 10 38  1  0
 12 39  1  0
 16 40  1  0
 16 41  1  0
 18 42  1  0
 23 43  1  0
 25 44  1  0
 25 45  1  0
M  ISO  8  28  13  29  13  30  13  31  13  32  13  33  13  34  13  35  13
M  ISO  8  36  14  37  14  38  14  39   5  40   8  41   8  42  14  43   9
M  END
>  <minimizedAffinity>  (1) 
-5.2264657

>  <minimizedRMSD>  (1) 
3.24537969

$$$$
