
     RDKit          3D

 45 48  0  0  1  0  0  0  0  0999 V2000
   37.6520   26.8710   41.3370 C   0  0  1  0  0  0  0  0  0  0  0  0
   36.8690   26.2470   42.5350 C   0  0  0  0  0  0  0  0  0  0  0  0
   37.0130   24.7720   42.2500 C   0  0  0  0  0  0  0  0  0  0  0  0
   37.6430   24.6120   40.8960 C   0  0  0  0  0  0  0  0  0  0  0  0
   37.3070   25.9840   40.2330 C   0  0  2  0  0  0  0  0  0  0  0  0
   37.3090   28.2690   41.2120 C   0  0  0  0  0  0  0  0  0  0  0  0
   35.9620   28.5490   40.8310 C   0  0  0  0  0  0  0  0  0  0  0  0
   35.5590   29.8850   40.6940 C   0  0  0  0  0  0  0  0  0  0  0  0
   36.5240   30.8520   40.9480 N   0  0  0  0  0  0  0  0  0  0  0  0
   37.7720   30.5290   41.3020 C   0  0  0  0  0  0  0  0  0  0  0  0
   38.1910   29.2240   41.4430 N   0  0  0  0  0  0  0  0  0  0  0  0
   38.1460   26.0670   39.0950 N   0  0  0  0  0  0  0  0  0  0  0  0
   37.3190   26.3760   37.6320 S   0  0  0  0  0  0  0  0  0  0  0  0
   35.9410   25.8170   37.6440 O   0  0  0  0  0  0  0  0  0  0  0  0
   38.0520   25.8500   36.4390 O   0  0  0  0  0  0  0  0  0  0  0  0
   37.1770   28.1440   37.4760 C   0  0  0  0  0  0  0  0  0  0  0  0
   36.3710   28.5720   36.3310 C   0  0  0  0  0  0  0  0  0  0  0  0
   36.6540   28.7850   34.9850 C   0  0  0  0  0  0  0  0  0  0  0  0
   35.5180   29.1590   34.3330 N   0  0  0  0  0  0  0  0  0  0  0  0
   34.5080   29.1970   35.2080 C   0  0  0  0  0  0  0  0  0  0  0  0
   33.1830   29.5300   34.9900 C   0  0  0  0  0  0  0  0  0  0  0  0
   32.2950   29.5060   36.0690 C   0  0  0  0  0  0  0  0  0  0  0  0
   32.7590   29.1500   37.3400 C   0  0  0  0  0  0  0  0  0  0  0  0
   34.0950   28.8370   37.4560 C   0  0  0  0  0  0  0  0  0  0  0  0
   35.0210   28.8400   36.4360 C   0  0  0  0  0  0  0  0  0  0  0  0
   38.7477   26.9166   41.4230 H   0  0  0  0  0  0  0  0  0  0  0  0
   37.3260   26.5170   43.4985 H   0  0  0  0  0  0  0  0  0  0  0  0
   35.8268   26.5891   42.6176 H   0  0  0  0  0  0  0  0  0  0  0  0
   37.6518   24.3061   43.0148 H   0  0  0  0  0  0  0  0  0  0  0  0
   36.0271   24.2846   42.2690 H   0  0  0  0  0  0  0  0  0  0  0  0
   38.7295   24.4586   40.9738 H   0  0  0  0  0  0  0  0  0  0  0  0
   37.2795   23.7402   40.3322 H   0  0  0  0  0  0  0  0  0  0  0  0
   36.2913   26.1903   39.8646 H   0  0  0  0  0  0  0  0  0  0  0  0
   35.2514   27.7295   40.6478 H   0  0  0  0  0  0  0  0  0  0  0  0
   34.5333   30.1534   40.4010 H   0  0  0  0  0  0  0  0  0  0  0  0
   38.4937   31.3380   41.4883 H   0  0  0  0  0  0  0  0  0  0  0  0
   38.8240   26.8270   39.2489 H   0  0  0  0  0  0  0  0  0  0  0  0
   36.7137   28.5372   38.3929 H   0  0  0  0  0  0  0  0  0  0  0  0
   38.1929   28.5349   37.3175 H   0  0  0  0  0  0  0  0  0  0  0  0
   37.6437   28.6691   34.5190 H   0  0  0  0  0  0  0  0  0  0  0  0
   35.4485   29.3771   33.3288 H   0  0  0  0  0  0  0  0  0  0  0  0
   32.8344   29.8089   33.9847 H   0  0  0  0  0  0  0  0  0  0  0  0
   31.2366   29.7657   35.9197 H   0  0  0  0  0  0  0  0  0  0  0  0
   32.0855   29.1214   38.2093 H   0  0  0  0  0  0  0  0  0  0  0  0
   34.4567   28.5585   38.4568 H   0  0  0  0  0  0  0  0  0  0  0  0
  1  2  1  0
  3  2  1  0
  4  3  1  0
  5  4  1  0
  5  1  1  0
  6  1  1  0
  6 11  1  0
  7  6  2  0
  8  7  1  0
  8  9  2  0
  9 10  1  0
 10 11  2  0
 12  5  1  0
 13 14  2  0
 13 12  1  0
 15 13  2  0
 16 13  1  0
 17 25  1  0
 17 16  1  0
 18 17  2  0
 19 18  1  0
 19 20  1  0
 20 25  2  0
 21 20  1  0
 21 22  2  0
 22 23  1  0
 23 24  2  0
 25 24  1  0
  1 26  1  1
  2 27  1  0
  2 28  1  0
  3 29  1  0
  3 30  1  0
  4 31  1  0
  4 32  1  0
  5 33  1  6
  7 34  1  0
  8 35  1  0
 10 36  1  0
 12 37  1  0
 16 38  1  0
 16 39  1  0
 18 40  1  0
 19 41  1  0
 21 42  1  0
 22 43  1  0
 23 44  1  0
 24 45  1  0
M  ISO  8  26  13  27  13  28  13  29  13  30  13  31  13  32  13  33  13
M  ISO  8  34  14  35  14  36  14  37   5  38   8  39   8  40  14  41   9
M  ISO  4  42  14  43  14  44  14  45  14
M  END
>  <minimizedAffinity>  (1) 
-4.99019289

>  <minimizedRMSD>  (1) 
1.68277597

$$$$
