
     RDKit          3D

 42 44  0  0  1  0  0  0  0  0999 V2000
   37.5080   26.7920   41.2540 C   0  0  1  0  0  0  0  0  0  0  0  0
   36.9180   26.2090   42.5780 C   0  0  0  0  0  0  0  0  0  0  0  0
   36.9130   24.7260   42.2980 C   0  0  0  0  0  0  0  0  0  0  0  0
   37.3150   24.5260   40.8570 C   0  0  0  0  0  0  0  0  0  0  0  0
   36.9420   25.9140   40.2380 C   0  0  2  0  0  0  0  0  0  0  0  0
   37.2140   28.1930   41.1760 C   0  0  0  0  0  0  0  0  0  0  0  0
   35.9120   28.5220   40.6670 C   0  0  0  0  0  0  0  0  0  0  0  0
   35.5390   29.8700   40.5600 C   0  0  0  0  0  0  0  0  0  0  0  0
   36.4900   30.8040   40.9660 N   0  0  0  0  0  0  0  0  0  0  0  0
   37.6950   30.4400   41.4360 C   0  0  0  0  0  0  0  0  0  0  0  0
   38.0760   29.1210   41.5480 N   0  0  0  0  0  0  0  0  0  0  0  0
   37.5800   25.9470   38.9840 N   0  0  0  0  0  0  0  0  0  0  0  0
   36.6130   25.4980   37.6620 S   0  0  0  0  0  0  0  0  0  0  0  0
   35.1910   25.9620   37.8450 O   0  0  0  0  0  0  0  0  0  0  0  0
   36.5950   24.0200   37.4330 O   0  0  0  0  0  0  0  0  0  0  0  0
   37.2250   26.3040   36.2010 C   0  0  0  0  0  0  0  0  0  0  0  0
   38.6330   26.5890   36.3850 N   0  0  0  0  0  0  0  0  0  0  0  0
   39.5870   25.6620   36.3620 C   0  0  0  0  0  0  0  0  0  0  0  0
   40.9070   25.9750   36.5450 C   0  0  0  0  0  0  0  0  0  0  0  0
   41.1710   27.3020   36.7520 C   0  0  0  0  0  0  0  0  0  0  0  0
   42.5440   27.6810   36.9490 N   0  0  0  0  0  0  0  0  0  0  0  0
   40.2370   28.2630   36.7810 N   0  0  0  0  0  0  0  0  0  0  0  0
   38.9530   27.8970   36.5950 C   0  0  0  0  0  0  0  0  0  0  0  0
   38.1430   28.8790   36.6410 O   0  0  0  0  0  0  0  0  0  0  0  0
   38.6027   26.7902   41.1460 H   0  0  0  0  0  0  0  0  0  0  0  0
   37.5575   26.4501   43.4399 H   0  0  0  0  0  0  0  0  0  0  0  0
   35.9281   26.6132   42.8363 H   0  0  0  0  0  0  0  0  0  0  0  0
   37.6296   24.2180   42.9601 H   0  0  0  0  0  0  0  0  0  0  0  0
   35.9133   24.3046   42.4795 H   0  0  0  0  0  0  0  0  0  0  0  0
   38.3916   24.3202   40.7643 H   0  0  0  0  0  0  0  0  0  0  0  0
   36.8273   23.6696   40.3684 H   0  0  0  0  0  0  0  0  0  0  0  0
   35.8900   26.1682   40.0415 H   0  0  0  0  0  0  0  0  0  0  0  0
   35.2154   27.7262   40.3646 H   0  0  0  0  0  0  0  0  0  0  0  0
   34.5528   30.1722   40.1777 H   0  0  0  0  0  0  0  0  0  0  0  0
   38.4031   31.2240   41.7425 H   0  0  0  0  0  0  0  0  0  0  0  0
   37.9129   26.9082   38.8221 H   0  0  0  0  0  0  0  0  0  0  0  0
   36.6753   27.2427   36.0380 H   0  0  0  0  0  0  0  0  0  0  0  0
   37.0851   25.6522   35.3261 H   0  0  0  0  0  0  0  0  0  0  0  0
   39.3066   24.6122   36.1907 H   0  0  0  0  0  0  0  0  0  0  0  0
   41.7003   25.2132   36.5270 H   0  0  0  0  0  0  0  0  0  0  0  0
   42.7878   28.6690   37.1081 H   0  0  0  0  0  0  0  0  0  0  0  0
   43.2837   26.9645   36.9310 H   0  0  0  0  0  0  0  0  0  0  0  0
  1  2  1  0
  3  2  1  0
  4  3  1  0
  5  4  1  0
  5  1  1  0
  6  1  1  0
  6 11  1  0
  7  6  2  0
  8  7  1  0
  8  9  2  0
  9 10  1  0
 10 11  2  0
 12  5  1  0
 13 14  2  0
 13 12  1  0
 15 13  2  0
 16 17  1  0
 16 13  1  0
 17 23  1  0
 18 17  1  0
 18 19  2  0
 19 20  1  0
 20 22  2  0
 20 21  1  0
 23 24  2  0
 23 22  1  0
  1 25  1  1
  2 26  1  0
  2 27  1  0
  3 28  1  0
  3 29  1  0
  4 30  1  0
  4 31  1  0
  5 32  1  6
  7 33  1  0
  8 34  1  0
 10 35  1  0
 12 36  1  0
 16 37  1  0
 16 38  1  0
 18 39  1  0
 19 40  1  0
 21 41  1  0
 21 42  1  0
M  ISO  8  25  13  26  13  27  13  28  13  29  13  30  13  31  13  32  13
M  ISO  8  33  14  34  14  35  14  36   5  37   8  38   8  39  14  40  14
M  END
>  <minimizedAffinity>  (1) 
-4.36164665

>  <minimizedRMSD>  (1) 
1.52804887

$$$$
