
     RDKit          3D

 41 43  0  0  1  0  0  0  0  0999 V2000
   37.5230   26.8070   41.2360 C   0  0  1  0  0  0  0  0  0  0  0  0
   36.9190   26.2010   42.5460 C   0  0  0  0  0  0  0  0  0  0  0  0
   36.9520   24.7240   42.2460 C   0  0  0  0  0  0  0  0  0  0  0  0
   37.3680   24.5450   40.8070 C   0  0  0  0  0  0  0  0  0  0  0  0
   36.9710   25.9340   40.2050 C   0  0  2  0  0  0  0  0  0  0  0  0
   37.2130   28.2090   41.1690 C   0  0  0  0  0  0  0  0  0  0  0  0
   35.9130   28.5340   40.6630 C   0  0  0  0  0  0  0  0  0  0  0  0
   35.5350   29.8820   40.5690 C   0  0  0  0  0  0  0  0  0  0  0  0
   36.4800   30.8190   40.9870 N   0  0  0  0  0  0  0  0  0  0  0  0
   37.6890   30.4510   41.4550 C   0  0  0  0  0  0  0  0  0  0  0  0
   38.0750   29.1340   41.5530 N   0  0  0  0  0  0  0  0  0  0  0  0
   37.6210   25.9920   38.9460 N   0  0  0  0  0  0  0  0  0  0  0  0
   36.5970   25.7330   37.6060 S   0  0  0  0  0  0  0  0  0  0  0  0
   35.2420   26.3150   37.8320 O   0  0  0  0  0  0  0  0  0  0  0  0
   36.4420   24.2840   37.2740 O   0  0  0  0  0  0  0  0  0  0  0  0
   37.3040   26.5820   36.2130 C   0  0  0  0  0  0  0  0  0  0  0  0
   38.7350   26.9120   36.4400 C   0  0  0  0  0  0  0  0  0  0  0  0
   39.5720   25.8050   36.3470 C   0  0  0  0  0  0  0  0  0  0  0  0
   40.9570   25.9010   36.5280 C   0  0  0  0  0  0  0  0  0  0  0  0
   41.4130   27.1700   36.8040 C   0  0  0  0  0  0  0  0  0  0  0  0
   40.6300   28.2820   36.9050 C   0  0  0  0  0  0  0  0  0  0  0  0
   39.2720   28.1510   36.7200 C   0  0  0  0  0  0  0  0  0  0  0  0
   38.6189   26.8184   41.1419 H   0  0  0  0  0  0  0  0  0  0  0  0
   37.5370   26.4456   43.4225 H   0  0  0  0  0  0  0  0  0  0  0  0
   35.9176   26.5832   42.7932 H   0  0  0  0  0  0  0  0  0  0  0  0
   37.6757   24.2256   42.9077 H   0  0  0  0  0  0  0  0  0  0  0  0
   35.9596   24.2799   42.4129 H   0  0  0  0  0  0  0  0  0  0  0  0
   38.4489   24.3609   40.7191 H   0  0  0  0  0  0  0  0  0  0  0  0
   36.9028   23.6840   40.3048 H   0  0  0  0  0  0  0  0  0  0  0  0
   35.9158   26.1744   40.0082 H   0  0  0  0  0  0  0  0  0  0  0  0
   35.2205   27.7378   40.3524 H   0  0  0  0  0  0  0  0  0  0  0  0
   34.5484   30.1831   40.1870 H   0  0  0  0  0  0  0  0  0  0  0  0
   38.3944   31.2337   41.7708 H   0  0  0  0  0  0  0  0  0  0  0  0
   38.0491   26.9237   38.8480 H   0  0  0  0  0  0  0  0  0  0  0  0
   36.7457   27.5143   36.0427 H   0  0  0  0  0  0  0  0  0  0  0  0
   37.2393   25.9188   35.3378 H   0  0  0  0  0  0  0  0  0  0  0  0
   39.1314   24.8221   36.1240 H   0  0  0  0  0  0  0  0  0  0  0  0
   41.6272   25.0317   36.4554 H   0  0  0  0  0  0  0  0  0  0  0  0
   42.4951   27.2974   36.9551 H   0  0  0  0  0  0  0  0  0  0  0  0
   41.0741   29.2630   37.1296 H   0  0  0  0  0  0  0  0  0  0  0  0
   38.6174   29.0318   36.7953 H   0  0  0  0  0  0  0  0  0  0  0  0
  1  2  1  0
  3  2  1  0
  4  3  1  0
  5  4  1  0
  5  1  1  0
  6  1  1  0
  6 11  1  0
  7  6  2  0
  8  7  1  0
  8  9  2  0
  9 10  1  0
 10 11  2  0
 12  5  1  0
 13 14  2  0
 13 12  1  0
 15 13  2  0
 16 17  1  0
 16 13  1  0
 17 22  1  0
 18 17  2  0
 18 19  1  0
 19 20  2  0
 20 21  1  0
 22 21  2  0
  1 23  1  1
  2 24  1  0
  2 25  1  0
  3 26  1  0
  3 27  1  0
  4 28  1  0
  4 29  1  0
  5 30  1  6
  7 31  1  0
  8 32  1  0
 10 33  1  0
 12 34  1  0
 16 35  1  0
 16 36  1  0
 18 37  1  0
 19 38  1  0
 20 39  1  0
 21 40  1  0
 22 41  1  0
M  ISO  8  23  13  24  13  25  13  26  13  27  13  28  13  29  13  30  13
M  ISO  8  31  14  32  14  33  14  34   5  35   8  36   8  37  14  38  14
M  ISO  3  39  14  40  14  41  14
M  END
>  <minimizedAffinity>  (1) 
-4.29859018

>  <minimizedRMSD>  (1) 
1.32971096

$$$$
