
     RDKit          3D

 40 42  0  0  1  0  0  0  0  0999 V2000
   37.5370   26.7980   41.2350 C   0  0  1  0  0  0  0  0  0  0  0  0
   36.9230   26.2340   42.5580 C   0  0  0  0  0  0  0  0  0  0  0  0
   36.9260   24.7450   42.2790 C   0  0  0  0  0  0  0  0  0  0  0  0
   37.3070   24.5420   40.8360 C   0  0  0  0  0  0  0  0  0  0  0  0
   36.9450   25.9350   40.2190 C   0  0  2  0  0  0  0  0  0  0  0  0
   37.2700   28.2110   41.1500 C   0  0  0  0  0  0  0  0  0  0  0  0
   35.9370   28.5680   40.7600 C   0  0  0  0  0  0  0  0  0  0  0  0
   35.6080   29.9290   40.6600 C   0  0  0  0  0  0  0  0  0  0  0  0
   36.6150   30.8370   40.9510 N   0  0  0  0  0  0  0  0  0  0  0  0
   37.8480   30.4450   41.3120 C   0  0  0  0  0  0  0  0  0  0  0  0
   38.1930   29.1180   41.4160 N   0  0  0  0  0  0  0  0  0  0  0  0
   37.5850   25.9580   38.9550 N   0  0  0  0  0  0  0  0  0  0  0  0
   36.5140   25.9280   37.6230 S   0  0  0  0  0  0  0  0  0  0  0  0
   35.2620   26.6740   37.9170 O   0  0  0  0  0  0  0  0  0  0  0  0
   36.1750   24.5400   37.1960 O   0  0  0  0  0  0  0  0  0  0  0  0
   37.3000   26.7720   36.2680 C   0  0  0  0  0  0  0  0  0  0  0  0
   38.7670   26.8980   36.4410 C   0  0  0  0  0  0  0  0  0  0  0  0
   39.2800   28.1600   36.6750 C   0  0  0  0  0  0  0  0  0  0  0  0
   40.6480   28.3460   36.8450 C   0  0  0  0  0  0  0  0  0  0  0  0
   41.4960   27.2520   36.7790 C   0  0  0  0  0  0  0  0  0  0  0  0
   40.9460   25.9870   36.5410 C   0  0  0  0  0  0  0  0  0  0  0  0
   39.6050   25.8470   36.3800 N   0  0  0  0  0  0  0  0  0  0  0  0
   38.6319   26.7662   41.1343 H   0  0  0  0  0  0  0  0  0  0  0  0
   37.5479   26.4813   43.4288 H   0  0  0  0  0  0  0  0  0  0  0  0
   35.9319   26.6431   42.8036 H   0  0  0  0  0  0  0  0  0  0  0  0
   37.6563   24.2445   42.9318 H   0  0  0  0  0  0  0  0  0  0  0  0
   35.9315   24.3177   42.4751 H   0  0  0  0  0  0  0  0  0  0  0  0
   38.3797   24.3223   40.7306 H   0  0  0  0  0  0  0  0  0  0  0  0
   36.8012   23.6926   40.3537 H   0  0  0  0  0  0  0  0  0  0  0  0
   35.8963   26.2063   40.0278 H   0  0  0  0  0  0  0  0  0  0  0  0
   35.1882   27.7918   40.5438 H   0  0  0  0  0  0  0  0  0  0  0  0
   34.6009   30.2591   40.3653 H   0  0  0  0  0  0  0  0  0  0  0  0
   38.6066   31.2107   41.5316 H   0  0  0  0  0  0  0  0  0  0  0  0
   38.1500   26.8171   38.8952 H   0  0  0  0  0  0  0  0  0  0  0  0
   36.8684   27.7803   36.1846 H   0  0  0  0  0  0  0  0  0  0  0  0
   37.1242   26.1756   35.3606 H   0  0  0  0  0  0  0  0  0  0  0  0
   38.6012   29.0240   36.7272 H   0  0  0  0  0  0  0  0  0  0  0  0
   41.0528   29.3519   37.0301 H   0  0  0  0  0  0  0  0  0  0  0  0
   42.5810   27.3754   36.9112 H   0  0  0  0  0  0  0  0  0  0  0  0
   41.6010   25.1051   36.4843 H   0  0  0  0  0  0  0  0  0  0  0  0
  1  2  1  0
  3  2  1  0
  4  3  1  0
  5  4  1  0
  5  1  1  0
  6  1  1  0
  6 11  1  0
  7  6  2  0
  8  7  1  0
  8  9  2  0
  9 10  1  0
 10 11  2  0
 12  5  1  0
 13 14  2  0
 13 12  1  0
 15 13  2  0
 16 17  1  0
 16 13  1  0
 17 18  2  0
 18 19  1  0
 20 19  2  0
 21 20  1  0
 22 17  1  0
 22 21  2  0
  1 23  1  1
  2 24  1  0
  2 25  1  0
  3 26  1  0
  3 27  1  0
  4 28  1  0
  4 29  1  0
  5 30  1  6
  7 31  1  0
  8 32  1  0
 10 33  1  0
 12 34  1  0
 16 35  1  0
 16 36  1  0
 18 37  1  0
 19 38  1  0
 20 39  1  0
 21 40  1  0
M  ISO  8  23  13  24  13  25  13  26  13  27  13  28  13  29  13  30  13
M  ISO  8  31  14  32  14  33  14  34   5  35   8  36   8  37  14  38  14
M  ISO  2  39  14  40  14
M  END
>  <minimizedAffinity>  (1) 
-4.22368431

>  <minimizedRMSD>  (1) 
1.1716038

$$$$
