
     RDKit          3D

 36 38  0  0  1  0  0  0  0  0999 V2000
   37.5540   26.8140   41.1680 C   0  0  1  0  0  0  0  0  0  0  0  0
   36.9570   26.1820   42.4690 C   0  0  0  0  0  0  0  0  0  0  0  0
   37.0140   24.7090   42.1360 C   0  0  0  0  0  0  0  0  0  0  0  0
   37.3820   24.5650   40.6870 C   0  0  0  0  0  0  0  0  0  0  0  0
   36.9900   25.9700   40.1210 C   0  0  2  0  0  0  0  0  0  0  0  0
   37.2520   28.2200   41.1370 C   0  0  0  0  0  0  0  0  0  0  0  0
   35.9300   28.5580   40.6910 C   0  0  0  0  0  0  0  0  0  0  0  0
   35.5600   29.9110   40.6360 C   0  0  0  0  0  0  0  0  0  0  0  0
   36.5260   30.8350   41.0250 N   0  0  0  0  0  0  0  0  0  0  0  0
   37.7520   30.4560   41.4350 C   0  0  0  0  0  0  0  0  0  0  0  0
   38.1340   29.1340   41.4960 N   0  0  0  0  0  0  0  0  0  0  0  0
   37.6270   26.0520   38.8600 N   0  0  0  0  0  0  0  0  0  0  0  0
   36.5680   26.0420   37.5250 S   0  0  0  0  0  0  0  0  0  0  0  0
   35.2570   26.6780   37.8580 O   0  0  0  0  0  0  0  0  0  0  0  0
   36.3110   24.6630   37.0030 O   0  0  0  0  0  0  0  0  0  0  0  0
   37.3080   27.0100   36.2370 C   0  0  0  0  0  0  0  0  0  0  0  0
   37.3830   28.4360   36.6040 C   0  0  0  0  0  0  0  0  0  0  0  0
   36.8360   29.5040   36.0000 N   0  0  0  0  0  0  0  0  0  0  0  0
   37.1600   30.5800   36.6640 O   0  0  0  0  0  0  0  0  0  0  0  0
   37.9040   30.2990   37.6980 C   0  0  0  0  0  0  0  0  0  0  0  0
   38.0490   28.9490   37.6670 N   0  0  0  0  0  0  0  0  0  0  0  0
   38.6492   26.8198   41.0651 H   0  0  0  0  0  0  0  0  0  0  0  0
   37.5708   26.4196   43.3504 H   0  0  0  0  0  0  0  0  0  0  0  0
   35.9518   26.5469   42.7267 H   0  0  0  0  0  0  0  0  0  0  0  0
   37.7715   24.2154   42.7626 H   0  0  0  0  0  0  0  0  0  0  0  0
   36.0373   24.2401   42.3265 H   0  0  0  0  0  0  0  0  0  0  0  0
   38.4572   24.3684   40.5637 H   0  0  0  0  0  0  0  0  0  0  0  0
   36.8850   23.7243   40.1808 H   0  0  0  0  0  0  0  0  0  0  0  0
   35.9353   26.2234   39.9381 H   0  0  0  0  0  0  0  0  0  0  0  0
   35.2197   27.7709   40.3976 H   0  0  0  0  0  0  0  0  0  0  0  0
   34.5596   30.2246   40.3031 H   0  0  0  0  0  0  0  0  0  0  0  0
   38.4744   31.2306   41.7319 H   0  0  0  0  0  0  0  0  0  0  0  0
   38.1708   26.9263   38.8316 H   0  0  0  0  0  0  0  0  0  0  0  0
   36.7050   26.9080   35.3227 H   0  0  0  0  0  0  0  0  0  0  0  0
   38.3320   26.6422   36.0756 H   0  0  0  0  0  0  0  0  0  0  0  0
   38.3223   31.0016   38.4338 H   0  0  0  0  0  0  0  0  0  0  0  0
  1  2  1  0
  3  2  1  0
  4  3  1  0
  5  4  1  0
  5  1  1  0
  6  1  1  0
  6 11  1  0
  7  6  2  0
  8  7  1  0
  8  9  2  0
  9 10  1  0
 10 11  2  0
 12  5  1  0
 13 14  2  0
 13 12  1  0
 15 13  2  0
 16 17  1  0
 16 13  1  0
 17 21  1  0
 18 17  2  0
 18 19  1  0
 19 20  1  0
 21 20  2  0
  1 22  1  1
  2 23  1  0
  2 24  1  0
  3 25  1  0
  3 26  1  0
  4 27  1  0
  4 28  1  0
  5 29  1  6
  7 30  1  0
  8 31  1  0
 10 32  1  0
 12 33  1  0
 16 34  1  0
 16 35  1  0
 20 36  1  0
M  ISO  8  22  13  23  13  24  13  25  13  26  13  27  13  28  13  29  13
M  ISO  7  30  14  31  14  32  14  33   5  34   8  35   8  36  14
M  END
>  <minimizedAffinity>  (1) 
-4.12030315

>  <minimizedRMSD>  (1) 
0.392112255

$$$$
