
     RDKit          3D

 44 46  0  0  1  0  0  0  0  0999 V2000
   37.5690   26.8170   41.1540 C   0  0  1  0  0  0  0  0  0  0  0  0
   37.0000   26.1820   42.4590 C   0  0  0  0  0  0  0  0  0  0  0  0
   37.0200   24.7150   42.1240 C   0  0  0  0  0  0  0  0  0  0  0  0
   37.4270   24.5700   40.6760 C   0  0  0  0  0  0  0  0  0  0  0  0
   37.0300   25.9700   40.1040 C   0  0  2  0  0  0  0  0  0  0  0  0
   37.2540   28.2170   41.1220 C   0  0  0  0  0  0  0  0  0  0  0  0
   35.9350   28.5390   40.6520 C   0  0  0  0  0  0  0  0  0  0  0  0
   35.5380   29.8830   40.5880 C   0  0  0  0  0  0  0  0  0  0  0  0
   36.4780   30.8240   40.9980 N   0  0  0  0  0  0  0  0  0  0  0  0
   37.6920   30.4660   41.4260 C   0  0  0  0  0  0  0  0  0  0  0  0
   38.1020   29.1530   41.4960 N   0  0  0  0  0  0  0  0  0  0  0  0
   37.6500   26.0500   38.8470 N   0  0  0  0  0  0  0  0  0  0  0  0
   36.6010   26.1120   37.5100 S   0  0  0  0  0  0  0  0  0  0  0  0
   35.2240   25.6100   37.8770 O   0  0  0  0  0  0  0  0  0  0  0  0
   37.0940   25.2890   36.3600 O   0  0  0  0  0  0  0  0  0  0  0  0
   36.4110   27.8000   37.0070 C   0  0  0  0  0  0  0  0  0  0  0  0
   37.7280   28.4890   36.7260 C   0  0  0  0  0  0  0  0  0  0  0  0
   38.8330   27.4670   36.4790 C   0  0  0  0  0  0  0  0  0  0  0  0
   40.0890   28.2350   36.8750 C   0  0  0  0  0  0  0  0  0  0  0  0
   39.6450   29.0450   38.0600 C   0  0  0  0  0  0  0  0  0  0  0  0
   38.2140   29.3740   37.8160 C   0  0  0  0  0  0  0  0  0  0  0  0
   38.6638   26.8342   41.0485 H   0  0  0  0  0  0  0  0  0  0  0  0
   37.6416   26.4036   43.3246 H   0  0  0  0  0  0  0  0  0  0  0  0
   36.0063   26.5602   42.7410 H   0  0  0  0  0  0  0  0  0  0  0  0
   37.7439   24.1951   42.7687 H   0  0  0  0  0  0  0  0  0  0  0  0
   36.0258   24.2732   42.2866 H   0  0  0  0  0  0  0  0  0  0  0  0
   38.5071   24.3865   40.5778 H   0  0  0  0  0  0  0  0  0  0  0  0
   36.9551   23.7218   40.1584 H   0  0  0  0  0  0  0  0  0  0  0  0
   35.9765   26.2222   39.9131 H   0  0  0  0  0  0  0  0  0  0  0  0
   35.2437   27.7401   40.3456 H   0  0  0  0  0  0  0  0  0  0  0  0
   34.5391   30.1769   40.2334 H   0  0  0  0  0  0  0  0  0  0  0  0
   38.3943   31.2539   41.7358 H   0  0  0  0  0  0  0  0  0  0  0  0
   38.2301   26.9010   38.8338 H   0  0  0  0  0  0  0  0  0  0  0  0
   35.8006   27.8258   36.0923 H   0  0  0  0  0  0  0  0  0  0  0  0
   35.9315   28.3373   37.8385 H   0  0  0  0  0  0  0  0  0  0  0  0
   37.5167   29.1078   35.8414 H   0  0  0  0  0  0  0  0  0  0  0  0
   38.6975   26.5753   37.1087 H   0  0  0  0  0  0  0  0  0  0  0  0
   38.8577   27.0897   35.4460 H   0  0  0  0  0  0  0  0  0  0  0  0
   40.9006   27.5459   37.1515 H   0  0  0  0  0  0  0  0  0  0  0  0
   40.4885   28.8539   36.0581 H   0  0  0  0  0  0  0  0  0  0  0  0
   39.7506   28.4593   38.9851 H   0  0  0  0  0  0  0  0  0  0  0  0
   40.2537   29.9535   38.1792 H   0  0  0  0  0  0  0  0  0  0  0  0
   38.1176   30.4275   37.5146 H   0  0  0  0  0  0  0  0  0  0  0  0
   37.6216   29.2212   38.7302 H   0  0  0  0  0  0  0  0  0  0  0  0
  1  2  1  0
  3  2  1  0
  4  3  1  0
  5  4  1  0
  5  1  1  0
  6  1  1  0
  6 11  1  0
  7  6  2  0
  8  7  1  0
  8  9  2  0
  9 10  1  0
 10 11  2  0
 12  5  1  0
 13 14  2  0
 13 12  1  0
 15 13  2  0
 16 13  1  0
 17 16  1  0
 17 21  1  0
 18 17  1  0
 18 19  1  0
 19 20  1  0
 21 20  1  0
  1 22  1  1
  2 23  1  0
  2 24  1  0
  3 25  1  0
  3 26  1  0
  4 27  1  0
  4 28  1  0
  5 29  1  6
  7 30  1  0
  8 31  1  0
 10 32  1  0
 12 33  1  0
 16 34  1  0
 16 35  1  0
 17 36  1  0
 18 37  1  0
 18 38  1  0
 19 39  1  0
 19 40  1  0
 20 41  1  0
 20 42  1  0
 21 43  1  0
 21 44  1  0
M  ISO  8  22  13  23  13  24  13  25  13  26  13  27  13  28  13  29  13
M  ISO  8  30  14  31  14  32  14  33   5  34   8  35   8  36  13  37  13
M  ISO  7  38  13  39  13  40  13  41  13  42  13  43  13  44  13
M  END
>  <minimizedAffinity>  (1) 
-4.07965851

>  <minimizedRMSD>  (1) 
1.73918712

$$$$
