
     RDKit          3D

 38 40  0  0  1  0  0  0  0  0999 V2000
   37.5680   26.8210   41.3340 C   0  0  1  0  0  0  0  0  0  0  0  0
   36.8400   26.2040   42.5650 C   0  0  0  0  0  0  0  0  0  0  0  0
   36.9370   24.7270   42.2630 C   0  0  0  0  0  0  0  0  0  0  0  0
   37.4720   24.5680   40.8680 C   0  0  0  0  0  0  0  0  0  0  0  0
   37.1630   25.9650   40.2380 C   0  0  2  0  0  0  0  0  0  0  0  0
   37.2480   28.2290   41.2360 C   0  0  0  0  0  0  0  0  0  0  0  0
   35.9550   28.5310   40.7450 C   0  0  0  0  0  0  0  0  0  0  0  0
   35.5730   29.8800   40.6290 C   0  0  0  0  0  0  0  0  0  0  0  0
   36.5150   30.8290   41.0130 N   0  0  0  0  0  0  0  0  0  0  0  0
   37.7350   30.4760   41.4760 C   0  0  0  0  0  0  0  0  0  0  0  0
   38.1150   29.1670   41.5930 N   0  0  0  0  0  0  0  0  0  0  0  0
   37.9260   26.0230   39.0630 N   0  0  0  0  0  0  0  0  0  0  0  0
   37.0400   26.0130   37.6110 S   0  0  0  0  0  0  0  0  0  0  0  0
   35.7350   26.7360   37.7570 O   0  0  0  0  0  0  0  0  0  0  0  0
   36.7560   24.6200   37.1310 O   0  0  0  0  0  0  0  0  0  0  0  0
   37.9640   26.8770   36.3680 C   0  0  0  0  0  0  0  0  0  0  0  0
   39.3880   26.8450   36.5360 C   0  0  0  0  0  0  0  0  0  0  0  0
   40.3470   25.9010   36.4090 C   0  0  0  0  0  0  0  0  0  0  0  0
   41.6630   26.1600   36.6370 C   0  0  0  0  0  0  0  0  0  0  0  0
   41.9740   27.5060   37.0240 C   0  0  0  0  0  0  0  0  0  0  0  0
   40.2910   28.3730   37.0420 S   0  0  0  0  0  0  0  0  0  0  0  0
   38.6672   26.8371   41.3727 H   0  0  0  0  0  0  0  0  0  0  0  0
   37.3540   26.4567   43.5041 H   0  0  0  0  0  0  0  0  0  0  0  0
   35.8110   26.5664   42.7056 H   0  0  0  0  0  0  0  0  0  0  0  0
   37.6171   24.2440   42.9801 H   0  0  0  0  0  0  0  0  0  0  0  0
   35.9465   24.2559   42.3464 H   0  0  0  0  0  0  0  0  0  0  0  0
   38.5528   24.3636   40.8757 H   0  0  0  0  0  0  0  0  0  0  0  0
   37.0281   23.7258   40.3169 H   0  0  0  0  0  0  0  0  0  0  0  0
   36.1437   26.2257   39.9170 H   0  0  0  0  0  0  0  0  0  0  0  0
   35.2619   27.7259   40.4595 H   0  0  0  0  0  0  0  0  0  0  0  0
   34.5803   30.1696   40.2539 H   0  0  0  0  0  0  0  0  0  0  0  0
   38.4437   31.2652   41.7675 H   0  0  0  0  0  0  0  0  0  0  0  0
   38.4825   26.8893   39.0888 H   0  0  0  0  0  0  0  0  0  0  0  0
   37.6436   27.9293   36.3751 H   0  0  0  0  0  0  0  0  0  0  0  0
   37.7560   26.3621   35.4185 H   0  0  0  0  0  0  0  0  0  0  0  0
   40.0521   24.8844   36.1098 H   0  0  0  0  0  0  0  0  0  0  0  0
   42.4386   25.3872   36.5314 H   0  0  0  0  0  0  0  0  0  0  0  0
   42.9602   27.9344   37.2561 H   0  0  0  0  0  0  0  0  0  0  0  0
  1  2  1  0
  3  2  1  0
  4  3  1  0
  5  4  1  0
  5  1  1  0
  6  1  1  0
  6 11  1  0
  7  6  2  0
  8  7  1  0
  8  9  2  0
  9 10  1  0
 10 11  2  0
 12  5  1  0
 13 14  2  0
 13 12  1  0
 15 13  2  0
 16 17  1  0
 16 13  1  0
 17 21  1  0
 18 17  2  0
 18 19  1  0
 19 20  2  0
 20 21  1  0
  1 22  1  1
  2 23  1  0
  2 24  1  0
  3 25  1  0
  3 26  1  0
  4 27  1  0
  4 28  1  0
  5 29  1  6
  7 30  1  0
  8 31  1  0
 10 32  1  0
 12 33  1  0
 16 34  1  0
 16 35  1  0
 18 36  1  0
 19 37  1  0
 20 38  1  0
M  ISO  8  22  13  23  13  24  13  25  13  26  13  27  13  28  13  29  13
M  ISO  8  30  14  31  14  32  14  33   5  34   8  35   8  36  14  37  14
M  ISO  1  38  14
M  END
>  <minimizedAffinity>  (1) 
-3.93241143

>  <minimizedRMSD>  (1) 
1.16037905

$$$$
