
     RDKit          3D

 38 40  0  0  1  0  0  0  0  0999 V2000
   37.6070   27.1100   40.9840 C   0  0  1  0  0  0  0  0  0  0  0  0
   37.2680   26.6120   42.4260 C   0  0  0  0  0  0  0  0  0  0  0  0
   36.9460   25.1630   42.1660 C   0  0  0  0  0  0  0  0  0  0  0  0
   36.8810   24.9460   40.6790 C   0  0  0  0  0  0  0  0  0  0  0  0
   36.6430   26.4030   40.1570 C   0  0  2  0  0  0  0  0  0  0  0  0
   37.5900   28.5490   40.9540 C   0  0  0  0  0  0  0  0  0  0  0  0
   36.3200   29.1530   41.2300 C   0  0  0  0  0  0  0  0  0  0  0  0
   36.2240   30.5540   41.2240 C   0  0  0  0  0  0  0  0  0  0  0  0
   37.3940   31.2600   40.9450 N   0  0  0  0  0  0  0  0  0  0  0  0
   38.5610   30.6320   40.6940 C   0  0  0  0  0  0  0  0  0  0  0  0
   38.6690   29.2660   40.6970 N   0  0  0  0  0  0  0  0  0  0  0  0
   36.9350   26.3490   38.7750 N   0  0  0  0  0  0  0  0  0  0  0  0
   35.6960   26.9580   37.7720 S   0  0  0  0  0  0  0  0  0  0  0  0
   34.9020   28.0200   38.4520 O   0  0  0  0  0  0  0  0  0  0  0  0
   34.7700   25.8830   37.2950 O   0  0  0  0  0  0  0  0  0  0  0  0
   36.4580   27.7210   36.3520 C   0  0  0  0  0  0  0  0  0  0  0  0
   35.7480   29.0370   36.1520 C   0  0  0  0  0  0  0  0  0  0  0  0
   34.7370   29.2000   35.0850 C   0  0  0  0  0  0  0  0  0  0  0  0
   36.1140   29.7570   34.8620 C   0  0  0  0  0  0  0  0  0  0  0  0
   38.6166   26.8896   40.6071 H   0  0  0  0  0  0  0  0  0  0  0  0
   38.1289   26.7187   43.1023 H   0  0  0  0  0  0  0  0  0  0  0  0
   36.4606   27.1728   42.9196 H   0  0  0  0  0  0  0  0  0  0  0  0
   37.7304   24.5253   42.5998 H   0  0  0  0  0  0  0  0  0  0  0  0
   35.9813   24.9036   42.6265 H   0  0  0  0  0  0  0  0  0  0  0  0
   37.8233   24.5303   40.2926 H   0  0  0  0  0  0  0  0  0  0  0  0
   36.1096   24.2272   40.3654 H   0  0  0  0  0  0  0  0  0  0  0  0
   35.6505   26.8715   40.2303 H   0  0  0  0  0  0  0  0  0  0  0  0
   35.4377   28.5314   41.4424 H   0  0  0  0  0  0  0  0  0  0  0  0
   35.2737   31.0687   41.4291 H   0  0  0  0  0  0  0  0  0  0  0  0
   39.4551   31.2360   40.4799 H   0  0  0  0  0  0  0  0  0  0  0  0
   37.7886   26.8994   38.6038 H   0  0  0  0  0  0  0  0  0  0  0  0
   37.5290   27.8896   36.5381 H   0  0  0  0  0  0  0  0  0  0  0  0
   36.3771   27.0815   35.4607 H   0  0  0  0  0  0  0  0  0  0  0  0
   35.7274   29.2539   37.2302 H   0  0  0  0  0  0  0  0  0  0  0  0
   34.4029   28.3233   34.5107 H   0  0  0  0  0  0  0  0  0  0  0  0
   33.7212   29.6202   35.0451 H   0  0  0  0  0  0  0  0  0  0  0  0
   36.7922   29.2838   34.1367 H   0  0  0  0  0  0  0  0  0  0  0  0
   36.5315   30.7409   34.6020 H   0  0  0  0  0  0  0  0  0  0  0  0
  1  2  1  0
  3  2  1  0
  4  3  1  0
  5  4  1  0
  5  1  1  0
  6  1  1  0
  6  7  2  0
  8  7  1  0
  9  8  2  0
 10 11  2  0
 10  9  1  0
 11  6  1  0
 12  5  1  0
 13 14  2  0
 13 12  1  0
 15 13  2  0
 16 13  1  0
 17 16  1  0
 18 17  1  0
 19 18  1  0
 19 17  1  0
  1 20  1  6
  2 21  1  0
  2 22  1  0
  3 23  1  0
  3 24  1  0
  4 25  1  0
  4 26  1  0
  5 27  1  6
  7 28  1  0
  8 29  1  0
 10 30  1  0
 12 31  1  0
 16 32  1  0
 16 33  1  0
 17 34  1  0
 18 35  1  0
 18 36  1  0
 19 37  1  0
 19 38  1  0
M  ISO  8  20  13  21  13  22  13  23  13  24  13  25  13  26  13  27  13
M  ISO  8  28  14  29  14  30  14  31   5  32   8  33   8  34  13  35  13
M  ISO  3  36  13  37  13  38  13
M  END
>  <minimizedAffinity>  (1) 
-3.9061749

>  <minimizedRMSD>  (1) 
1.72731853

$$$$
