
     RDKit          3D

 30 32  0  0  1  0  0  0  0  0999 V2000
   40.9910   29.6520   38.4330 C   0  0  0  0  0  0  0  0  0  0  0  0
   40.8330   29.0510   39.6910 C   0  0  0  0  0  0  0  0  0  0  0  0
   39.6020   29.1270   40.3360 C   0  0  0  0  0  0  0  0  0  0  0  0
   38.6260   29.7930   39.6810 N   0  0  0  0  0  0  0  0  0  0  0  0
   38.7760   30.3690   38.4760 C   0  0  0  0  0  0  0  0  0  0  0  0
   39.9570   30.2950   37.8600 N   0  0  0  0  0  0  0  0  0  0  0  0
   39.3660   28.5440   41.6110 N   0  0  0  0  0  0  0  0  0  0  0  0
   40.4280   28.4940   42.5790 C   0  0  0  0  0  0  0  0  0  0  0  0
   40.2440   27.3920   43.5920 C   0  0  0  0  0  0  0  0  0  0  0  0
   39.0050   26.7890   43.5590 O   0  0  0  0  0  0  0  0  0  0  0  0
   37.9600   27.6190   43.2820 C   0  0  0  0  0  0  0  0  0  0  0  0
   38.0490   28.0290   41.8540 C   0  0  1  0  0  0  0  0  0  0  0  0
   36.9500   28.9270   41.4290 C   0  0  0  0  0  0  0  0  0  0  0  0
   35.8940   28.5700   40.5810 C   0  0  0  0  0  0  0  0  0  0  0  0
   35.0330   29.6340   40.3790 C   0  0  0  0  0  0  0  0  0  0  0  0
   35.5790   30.6230   41.1090 N   0  0  0  0  0  0  0  0  0  0  0  0
   36.6800   30.2120   41.7090 N   0  0  0  0  0  0  0  0  0  0  0  0
   41.9600   29.5976   37.9152 H   0  0  0  0  0  0  0  0  0  0  0  0
   41.6751   28.5241   40.1636 H   0  0  0  0  0  0  0  0  0  0  0  0
   37.9342   30.8957   38.0028 H   0  0  0  0  0  0  0  0  0  0  0  0
   41.3784   28.3300   42.0499 H   0  0  0  0  0  0  0  0  0  0  0  0
   40.4242   29.4492   43.1244 H   0  0  0  0  0  0  0  0  0  0  0  0
   41.0066   26.6217   43.4046 H   0  0  0  0  0  0  0  0  0  0  0  0
   40.3398   27.8582   44.5837 H   0  0  0  0  0  0  0  0  0  0  0  0
   37.0107   27.0921   43.4584 H   0  0  0  0  0  0  0  0  0  0  0  0
   37.9999   28.5055   43.9321 H   0  0  0  0  0  0  0  0  0  0  0  0
   37.9006   27.1486   41.2115 H   0  0  0  0  0  0  0  0  0  0  0  0
   35.7658   27.5732   40.1337 H   0  0  0  0  0  0  0  0  0  0  0  0
   34.1194   29.6640   39.7671 H   0  0  0  0  0  0  0  0  0  0  0  0
   35.1900   31.5734   41.1889 H   0  0  0  0  0  0  0  0  0  0  0  0
  1  2  2  0
  2  3  1  0
  3  7  1  0
  4  3  2  0
  5  4  1  0
  6  1  1  0
  6  5  2  0
  7 12  1  0
  7  8  1  0
  8  9  1  0
 10  9  1  0
 11 10  1  0
 12 11  1  0
 13 17  2  0
 13 12  1  0
 14 13  1  0
 15 14  2  0
 15 16  1  0
 16 17  1  0
  1 18  1  0
  2 19  1  0
  5 20  1  0
  8 21  1  0
  8 22  1  0
  9 23  1  0
  9 24  1  0
 11 25  1  0
 11 26  1  0
 12 27  1  6
 14 28  1  0
 15 29  1  0
 16 30  1  0
M  ISO  8  18  14  19  14  20  14  21  13  22  13  23  13  24  13  25  13
M  ISO  5  26  13  27  13  28  14  29  14  30   9
M  END
>  <minimizedAffinity>  (1) 
-4.53481579

>  <minimizedRMSD>  (1) 
4.23707533

$$$$
