
     RDKit          3D

 34 36  0  0  1  0  0  0  0  0999 V2000
   38.6470   27.7840   43.6430 C   0  0  0  0  0  0  0  0  0  0  0  0
   38.3000   26.6920   42.8530 C   0  0  0  0  0  0  0  0  0  0  0  0
   37.3810   26.8840   41.8250 C   0  0  0  0  0  0  0  0  0  0  0  0
   36.8720   28.1400   41.6530 N   0  0  0  0  0  0  0  0  0  0  0  0
   37.2270   29.1890   42.4380 C   0  0  0  0  0  0  0  0  0  0  0  0
   38.1150   28.9900   43.4260 N   0  0  0  0  0  0  0  0  0  0  0  0
   36.9510   25.8210   40.9510 N   0  0  0  0  0  0  0  0  0  0  0  0
   36.9620   24.4670   41.4460 C   0  0  0  0  0  0  0  0  0  0  0  0
   37.0430   23.4490   40.3460 C   0  0  0  0  0  0  0  0  0  0  0  0
   37.0480   23.9720   39.0870 O   0  0  0  0  0  0  0  0  0  0  0  0
   36.1430   24.9680   38.8800 C   0  0  0  0  0  0  0  0  0  0  0  0
   36.5270   26.1880   39.6310 C   0  0  2  0  0  0  0  0  0  0  0  0
   37.4390   26.9760   38.8680 N   0  0  0  0  0  0  0  0  0  0  0  0
   38.7460   26.5800   38.8110 C   0  0  0  0  0  0  0  0  0  0  0  0
   39.7170   27.2450   38.1170 C   0  0  0  0  0  0  0  0  0  0  0  0
   39.4020   28.3990   37.4140 C   0  0  0  0  0  0  0  0  0  0  0  0
   40.3880   29.0970   36.6940 N   0  0  0  0  0  0  0  0  0  0  0  0
   38.1000   28.7810   37.4810 N   0  0  0  0  0  0  0  0  0  0  0  0
   37.1790   28.0910   38.1780 C   0  0  0  0  0  0  0  0  0  0  0  0
   35.9790   28.4920   38.2060 O   0  0  0  0  0  0  0  0  0  0  0  0
   39.3716   27.6518   44.4600 H   0  0  0  0  0  0  0  0  0  0  0  0
   38.7412   25.7012   43.0364 H   0  0  0  0  0  0  0  0  0  0  0  0
   36.7944   30.1860   42.2678 H   0  0  0  0  0  0  0  0  0  0  0  0
   37.8322   24.3410   42.1070 H   0  0  0  0  0  0  0  0  0  0  0  0
   36.0162   24.3017   41.9828 H   0  0  0  0  0  0  0  0  0  0  0  0
   37.9692   22.8712   40.4810 H   0  0  0  0  0  0  0  0  0  0  0  0
   36.1347   22.8334   40.4239 H   0  0  0  0  0  0  0  0  0  0  0  0
   36.1030   25.2024   37.8060 H   0  0  0  0  0  0  0  0  0  0  0  0
   35.1575   24.6302   39.2332 H   0  0  0  0  0  0  0  0  0  0  0  0
   35.6674   26.8569   39.7846 H   0  0  0  0  0  0  0  0  0  0  0  0
   39.0338   25.6698   39.3576 H   0  0  0  0  0  0  0  0  0  0  0  0
   40.7494   26.8652   38.1156 H   0  0  0  0  0  0  0  0  0  0  0  0
   41.3588   28.7530   36.6841 H   0  0  0  0  0  0  0  0  0  0  0  0
   40.1393   29.9522   36.1766 H   0  0  0  0  0  0  0  0  0  0  0  0
  2  1  2  0
  3  2  1  0
  4  3  2  0
  4  5  1  0
  5  6  2  0
  6  1  1  0
  7  8  1  0
  7  3  1  0
  9  8  1  0
 10  9  1  0
 11 10  1  0
 11 12  1  0
 12  7  1  0
 13 12  1  0
 14 13  1  0
 15 14  2  0
 16 18  2  0
 16 15  1  0
 17 16  1  0
 18 19  1  0
 19 20  2  0
 19 13  1  0
  1 21  1  0
  2 22  1  0
  5 23  1  0
  8 24  1  0
  8 25  1  0
  9 26  1  0
  9 27  1  0
 11 28  1  0
 11 29  1  0
 12 30  1  1
 14 31  1  0
 15 32  1  0
 17 33  1  0
 17 34  1  0
M  ISO  8  21  14  22  14  23  14  24  13  25  13  26  13  27  13  28  13
M  ISO  4  29  13  30  13  31  14  32  14
M  END
>  <minimizedAffinity>  (1) 
-4.41821671

>  <minimizedRMSD>  (1) 
1.01000261

$$$$
