
     RDKit          3D

 33 35  0  0  1  0  0  0  0  0999 V2000
   38.6370   27.8640   43.5890 C   0  0  0  0  0  0  0  0  0  0  0  0
   38.2870   26.7550   42.8220 C   0  0  0  0  0  0  0  0  0  0  0  0
   37.3740   26.9060   41.7830 C   0  0  0  0  0  0  0  0  0  0  0  0
   36.8670   28.1570   41.5750 N   0  0  0  0  0  0  0  0  0  0  0  0
   37.2080   29.2270   42.3180 C   0  0  0  0  0  0  0  0  0  0  0  0
   38.0940   29.0730   43.3240 N   0  0  0  0  0  0  0  0  0  0  0  0
   36.9520   25.8230   40.9470 N   0  0  0  0  0  0  0  0  0  0  0  0
   36.9050   24.4950   41.5030 C   0  0  0  0  0  0  0  0  0  0  0  0
   36.9350   23.4260   40.4580 C   0  0  0  0  0  0  0  0  0  0  0  0
   36.9900   23.8840   39.1750 O   0  0  0  0  0  0  0  0  0  0  0  0
   36.1200   24.9140   38.9090 C   0  0  0  0  0  0  0  0  0  0  0  0
   36.5930   26.1520   39.5830 C   0  0  2  0  0  0  0  0  0  0  0  0
   37.5970   26.9010   38.8750 N   0  0  0  0  0  0  0  0  0  0  0  0
   38.8910   26.4800   38.8840 C   0  0  0  0  0  0  0  0  0  0  0  0
   39.9430   27.0820   38.2640 C   0  0  0  0  0  0  0  0  0  0  0  0
   39.6770   28.2260   37.5590 C   0  0  0  0  0  0  0  0  0  0  0  0
   40.6220   28.8180   36.9680 O   0  0  0  0  0  0  0  0  0  0  0  0
   38.3980   28.6580   37.5400 N   0  0  0  0  0  0  0  0  0  0  0  0
   37.3960   28.0320   38.1660 C   0  0  0  0  0  0  0  0  0  0  0  0
   36.2100   28.4590   38.1310 O   0  0  0  0  0  0  0  0  0  0  0  0
   39.3576   27.7554   44.4130 H   0  0  0  0  0  0  0  0  0  0  0  0
   38.7279   25.7701   43.0356 H   0  0  0  0  0  0  0  0  0  0  0  0
   36.7700   30.2138   42.1076 H   0  0  0  0  0  0  0  0  0  0  0  0
   37.7718   24.3614   42.1669 H   0  0  0  0  0  0  0  0  0  0  0  0
   35.9541   24.3982   42.0474 H   0  0  0  0  0  0  0  0  0  0  0  0
   37.8205   22.7980   40.6358 H   0  0  0  0  0  0  0  0  0  0  0  0
   35.9875   22.8749   40.5505 H   0  0  0  0  0  0  0  0  0  0  0  0
   36.0737   25.0831   37.8231 H   0  0  0  0  0  0  0  0  0  0  0  0
   35.1192   24.6533   39.2837 H   0  0  0  0  0  0  0  0  0  0  0  0
   35.7587   26.8689   39.5878 H   0  0  0  0  0  0  0  0  0  0  0  0
   39.1088   25.5615   39.4487 H   0  0  0  0  0  0  0  0  0  0  0  0
   40.9604   26.6685   38.3263 H   0  0  0  0  0  0  0  0  0  0  0  0
   38.1823   29.5171   37.0143 H   0  0  0  0  0  0  0  0  0  0  0  0
  2  1  2  0
  3  2  1  0
  4  3  2  0
  4  5  1  0
  5  6  2  0
  6  1  1  0
  7  8  1  0
  7  3  1  0
  9  8  1  0
 10  9  1  0
 11 10  1  0
 11 12  1  0
 12  7  1  0
 13 14  1  0
 13 12  1  0
 15 14  2  0
 16 15  1  0
 17 16  2  0
 18 16  1  0
 18 19  1  0
 19 13  1  0
 20 19  2  0
  1 21  1  0
  2 22  1  0
  5 23  1  0
  8 24  1  0
  8 25  1  0
  9 26  1  0
  9 27  1  0
 11 28  1  0
 11 29  1  0
 12 30  1  1
 14 31  1  0
 15 32  1  0
 18 33  1  0
M  ISO  8  21  14  22  14  23  14  24  13  25  13  26  13  27  13  28  13
M  ISO  5  29  13  30  13  31  14  32  14  33   9
M  END
>  <minimizedAffinity>  (1) 
-4.1542263

>  <minimizedRMSD>  (1) 
0.83144033

$$$$
