
     RDKit          3D

 31 33  0  0  1  0  0  0  0  0999 V2000
   37.6990   27.9040   43.7750 C   0  0  0  0  0  0  0  0  0  0  0  0
   37.6020   26.8090   42.9210 C   0  0  0  0  0  0  0  0  0  0  0  0
   37.2940   26.9580   41.5690 C   0  0  0  0  0  0  0  0  0  0  0  0
   37.0960   28.2200   41.1380 N   0  0  0  0  0  0  0  0  0  0  0  0
   37.1890   29.2910   41.9620 C   0  0  0  0  0  0  0  0  0  0  0  0
   37.4900   29.1230   43.2710 N   0  0  0  0  0  0  0  0  0  0  0  0
   37.1940   25.8320   40.7030 N   0  0  0  0  0  0  0  0  0  0  0  0
   36.7420   24.5630   41.1960 C   0  0  0  0  0  0  0  0  0  0  0  0
   37.1770   23.4020   40.3420 C   0  0  0  0  0  0  0  0  0  0  0  0
   37.8330   23.7620   39.1820 O   0  0  0  0  0  0  0  0  0  0  0  0
   37.2810   24.8320   38.5430 C   0  0  0  0  0  0  0  0  0  0  0  0
   37.5720   26.0710   39.3270 C   0  0  1  0  0  0  0  0  0  0  0  0
   36.9340   27.2770   38.7400 C   0  0  0  0  0  0  0  0  0  0  0  0
   37.6330   28.3560   38.2280 C   0  0  0  0  0  0  0  0  0  0  0  0
   37.0190   29.4660   37.6870 C   0  0  0  0  0  0  0  0  0  0  0  0
   35.6610   29.4930   37.6570 N   0  0  0  0  0  0  0  0  0  0  0  0
   34.9870   28.4370   38.1570 C   0  0  0  0  0  0  0  0  0  0  0  0
   35.5810   27.3720   38.6780 N   0  0  0  0  0  0  0  0  0  0  0  0
   37.9419   27.7685   44.8393 H   0  0  0  0  0  0  0  0  0  0  0  0
   37.7728   25.7995   43.3232 H   0  0  0  0  0  0  0  0  0  0  0  0
   37.0190   30.3028   41.5653 H   0  0  0  0  0  0  0  0  0  0  0  0
   37.1431   24.4197   42.2102 H   0  0  0  0  0  0  0  0  0  0  0  0
   35.6422   24.5821   41.1834 H   0  0  0  0  0  0  0  0  0  0  0  0
   37.8528   22.7708   40.9377 H   0  0  0  0  0  0  0  0  0  0  0  0
   36.2603   22.8774   40.0346 H   0  0  0  0  0  0  0  0  0  0  0  0
   37.7133   24.9231   37.5356 H   0  0  0  0  0  0  0  0  0  0  0  0
   36.1931   24.6932   38.4581 H   0  0  0  0  0  0  0  0  0  0  0  0
   38.6488   26.2924   39.2889 H   0  0  0  0  0  0  0  0  0  0  0  0
   38.7323   28.3269   38.2538 H   0  0  0  0  0  0  0  0  0  0  0  0
   37.6111   30.3045   37.2916 H   0  0  0  0  0  0  0  0  0  0  0  0
   33.8876   28.4605   38.1312 H   0  0  0  0  0  0  0  0  0  0  0  0
  2  1  2  0
  3  2  1  0
  4  3  2  0
  4  5  1  0
  5  6  2  0
  6  1  1  0
  7  8  1  0
  7  3  1  0
  9  8  1  0
 10  9  1  0
 11 10  1  0
 11 12  1  0
 12  7  1  0
 13 12  1  0
 14 13  2  0
 15 14  1  0
 16 15  2  0
 16 17  1  0
 17 18  2  0
 18 13  1  0
  1 19  1  0
  2 20  1  0
  5 21  1  0
  8 22  1  0
  8 23  1  0
  9 24  1  0
  9 25  1  0
 11 26  1  0
 11 27  1  0
 12 28  1  1
 14 29  1  0
 15 30  1  0
 17 31  1  0
M  ISO  8  19  14  20  14  21  14  22  13  23  13  24  13  25  13  26  13
M  ISO  5  27  13  28  13  29  14  30  14  31  14
M  END
>  <minimizedAffinity>  (1) 
-4.08010101

>  <minimizedRMSD>  (1) 
1.74189997

$$$$
