
     RDKit          3D

 30 32  0  0  1  0  0  0  0  0999 V2000
   38.6940   28.8000   43.1620 C   0  0  0  0  0  0  0  0  0  0  0  0
   39.6380   29.0680   42.1740 C   0  0  0  0  0  0  0  0  0  0  0  0
   39.2260   29.4910   40.9140 C   0  0  0  0  0  0  0  0  0  0  0  0
   37.9020   29.6160   40.7270 N   0  0  0  0  0  0  0  0  0  0  0  0
   36.9840   29.3570   41.6830 C   0  0  0  0  0  0  0  0  0  0  0  0
   37.3940   28.9480   42.8980 N   0  0  0  0  0  0  0  0  0  0  0  0
   40.1620   29.7740   39.8660 N   0  0  0  0  0  0  0  0  0  0  0  0
   41.4890   29.2230   39.9120 C   0  0  0  0  0  0  0  0  0  0  0  0
   42.4690   29.9570   39.0670 C   0  0  0  0  0  0  0  0  0  0  0  0
   41.9410   31.0190   38.3970 O   0  0  0  0  0  0  0  0  0  0  0  0
   40.7470   30.7710   37.7820 C   0  0  0  0  0  0  0  0  0  0  0  0
   39.6690   30.6160   38.7960 C   0  0  2  0  0  0  0  0  0  0  0  0
   39.1320   31.8940   39.2810 C   0  0  0  0  0  0  0  0  0  0  0  0
   37.9730   32.5720   39.2100 C   0  0  0  0  0  0  0  0  0  0  0  0
   37.8400   33.7940   39.8160 C   0  0  0  0  0  0  0  0  0  0  0  0
   38.9000   34.3270   40.4980 C   0  0  0  0  0  0  0  0  0  0  0  0
   40.2280   33.0500   40.3120 S   0  0  0  0  0  0  0  0  0  0  0  0
   39.0192   28.4668   44.1586 H   0  0  0  0  0  0  0  0  0  0  0  0
   40.7097   28.9453   42.3896 H   0  0  0  0  0  0  0  0  0  0  0  0
   35.9116   29.4791   41.4708 H   0  0  0  0  0  0  0  0  0  0  0  0
   41.8403   29.2491   40.9541 H   0  0  0  0  0  0  0  0  0  0  0  0
   41.4264   28.1984   39.5167 H   0  0  0  0  0  0  0  0  0  0  0  0
   43.2770   30.3253   39.7161 H   0  0  0  0  0  0  0  0  0  0  0  0
   42.8252   29.2473   38.3057 H   0  0  0  0  0  0  0  0  0  0  0  0
   40.5006   31.6104   37.1151 H   0  0  0  0  0  0  0  0  0  0  0  0
   40.8292   29.8409   37.2005 H   0  0  0  0  0  0  0  0  0  0  0  0
   38.8056   30.1309   38.3173 H   0  0  0  0  0  0  0  0  0  0  0  0
   37.1231   32.1415   38.6600 H   0  0  0  0  0  0  0  0  0  0  0  0
   36.8884   34.3423   39.7547 H   0  0  0  0  0  0  0  0  0  0  0  0
   38.9511   35.2878   41.0312 H   0  0  0  0  0  0  0  0  0  0  0  0
  2  1  2  0
  3  2  1  0
  4  3  2  0
  4  5  1  0
  5  6  2  0
  6  1  1  0
  7  8  1  0
  7  3  1  0
  9  8  1  0
 10  9  1  0
 11 10  1  0
 11 12  1  0
 12 13  1  0
 12  7  1  0
 13 17  1  0
 14 13  2  0
 14 15  1  0
 15 16  2  0
 17 16  1  0
  1 18  1  0
  2 19  1  0
  5 20  1  0
  8 21  1  0
  8 22  1  0
  9 23  1  0
  9 24  1  0
 11 25  1  0
 11 26  1  0
 12 27  1  6
 14 28  1  0
 15 29  1  0
 16 30  1  0
M  ISO  8  18  14  19  14  20  14  21  13  22  13  23  13  24  13  25  13
M  ISO  5  26  13  27  13  28  14  29  14  30  14
M  END
>  <minimizedAffinity>  (1) 
-4.03914738

>  <minimizedRMSD>  (1) 
5.64270782

$$$$
