
     RDKit          3D

 26 27  0  0  1  0  0  0  0  0999 V2000
   39.1610   32.6740   41.0270 C   0  0  0  0  0  0  0  0  0  0  0  0
   39.0320   31.4380   41.6560 C   0  0  0  0  0  0  0  0  0  0  0  0
   37.9930   30.5970   41.2720 C   0  0  0  0  0  0  0  0  0  0  0  0
   37.1810   31.0550   40.3030 N   0  0  0  0  0  0  0  0  0  0  0  0
   37.3030   32.2500   39.6930 C   0  0  0  0  0  0  0  0  0  0  0  0
   38.3010   33.0520   40.0660 N   0  0  0  0  0  0  0  0  0  0  0  0
   37.7780   29.3110   41.8620 N   0  0  0  0  0  0  0  0  0  0  0  0
   38.1440   29.0880   43.2300 C   0  0  0  0  0  0  0  0  0  0  0  0
   38.4280   27.6390   43.5430 C   0  0  0  0  0  0  0  0  0  0  0  0
   38.1440   26.7670   42.5070 O   0  0  0  0  0  0  0  0  0  0  0  0
   37.0120   27.0680   41.8270 C   0  0  0  0  0  0  0  0  0  0  0  0
   37.1970   28.3010   41.0290 C   0  0  1  0  0  0  0  0  0  0  0  0
   35.9240   28.7160   40.3590 C   0  0  0  0  0  0  0  0  0  0  0  0
   34.7080   29.0700   40.5090 O   0  0  0  0  0  0  0  0  0  0  0  0
   36.1490   28.7190   38.9890 O   0  0  0  0  0  0  0  0  0  0  0  0
   39.9777   33.3498   41.3208 H   0  0  0  0  0  0  0  0  0  0  0  0
   39.7387   31.1327   42.4418 H   0  0  0  0  0  0  0  0  0  0  0  0
   36.5971   32.5565   38.9070 H   0  0  0  0  0  0  0  0  0  0  0  0
   39.0470   29.6763   43.4503 H   0  0  0  0  0  0  0  0  0  0  0  0
   37.2887   29.3939   43.8503 H   0  0  0  0  0  0  0  0  0  0  0  0
   39.4952   27.5429   43.7916 H   0  0  0  0  0  0  0  0  0  0  0  0
   37.7682   27.3617   44.3783 H   0  0  0  0  0  0  0  0  0  0  0  0
   36.7625   26.2351   41.1532 H   0  0  0  0  0  0  0  0  0  0  0  0
   36.1973   27.2306   42.5480 H   0  0  0  0  0  0  0  0  0  0  0  0
   37.8975   28.1173   40.2011 H   0  0  0  0  0  0  0  0  0  0  0  0
   37.0393   28.4724   38.6330 H   0  0  0  0  0  0  0  0  0  0  0  0
  1  2  2  0
  3  2  1  0
  3  7  1  0
  4  3  2  0
  5  6  2  0
  5  4  1  0
  6  1  1  0
  7  8  1  0
  8  9  1  0
 10  9  1  0
 11 10  1  0
 12 11  1  0
 12  7  1  0
 13 14  2  0
 13 12  1  0
 15 13  1  0
  1 16  1  0
  2 17  1  0
  5 18  1  0
  8 19  1  0
  8 20  1  0
  9 21  1  0
  9 22  1  0
 11 23  1  0
 11 24  1  0
 12 25  1  6
 15 26  1  0
M  ISO  8  16  14  17  14  18  14  19  13  20  13  21  13  22  13  23  13
M  ISO  3  24  13  25  13  26   3
M  END
>  <minimizedAffinity>  (1) 
-3.99284697

>  <minimizedRMSD>  (1) 
3.70588827

$$$$
