
     RDKit          3D

 30 31  0  0  1  0  0  0  0  0999 V2000
   38.1950   28.7050   43.0640 C   0  0  0  0  0  0  0  0  0  0  0  0
   38.0750   27.3790   42.6400 C   0  0  0  0  0  0  0  0  0  0  0  0
   37.1720   27.1460   41.5750 C   0  0  0  0  0  0  0  0  0  0  0  0
   36.4980   28.2030   41.0460 N   0  0  0  0  0  0  0  0  0  0  0  0
   36.6510   29.4630   41.4920 C   0  0  0  0  0  0  0  0  0  0  0  0
   37.5020   29.7010   42.5010 N   0  0  0  0  0  0  0  0  0  0  0  0
   36.9800   25.8100   41.0630 N   0  0  0  0  0  0  0  0  0  0  0  0
   37.0900   24.6740   41.9210 C   0  0  0  0  0  0  0  0  0  0  0  0
   37.5070   23.4260   41.1840 C   0  0  0  0  0  0  0  0  0  0  0  0
   37.4330   23.5240   39.8100 O   0  0  0  0  0  0  0  0  0  0  0  0
   36.4110   24.2990   39.3200 C   0  0  0  0  0  0  0  0  0  0  0  0
   36.6820   25.7170   39.6700 C   0  0  2  0  0  0  0  0  0  0  0  0
   37.8940   26.1910   38.9840 N   0  0  0  0  0  0  0  0  0  0  0  0
   39.1660   26.0070   39.5780 C   0  0  0  0  0  0  0  0  0  0  0  0
   39.3550   25.0430   40.4120 N   0  0  0  0  0  0  0  0  0  0  0  0
   40.2380   26.8910   39.2510 N   0  0  0  0  0  0  0  0  0  0  0  0
   38.5590   24.4120   40.6350 H   0  0  0  0  0  0  0  0  0  0  0  0
   38.8835   28.9380   43.8897 H   0  0  0  0  0  0  0  0  0  0  0  0
   38.6484   26.5642   43.1063 H   0  0  0  0  0  0  0  0  0  0  0  0
   36.0851   30.2880   41.0347 H   0  0  0  0  0  0  0  0  0  0  0  0
   37.8383   24.8907   42.6976 H   0  0  0  0  0  0  0  0  0  0  0  0
   36.0963   24.4875   42.3543 H   0  0  0  0  0  0  0  0  0  0  0  0
   38.5476   23.1967   41.4570 H   0  0  0  0  0  0  0  0  0  0  0  0
   36.8017   22.6357   41.4808 H   0  0  0  0  0  0  0  0  0  0  0  0
   35.4578   23.9822   39.7685 H   0  0  0  0  0  0  0  0  0  0  0  0
   36.3452   24.1875   38.2277 H   0  0  0  0  0  0  0  0  0  0  0  0
   35.7981   26.3067   39.3853 H   0  0  0  0  0  0  0  0  0  0  0  0
   37.8170   26.6580   38.0692 H   0  0  0  0  0  0  0  0  0  0  0  0
   41.1641   26.7589   39.6820 H   0  0  0  0  0  0  0  0  0  0  0  0
   40.0854   27.6609   38.5841 H   0  0  0  0  0  0  0  0  0  0  0  0
  2  1  2  0
  3  2  1  0
  4  5  1  0
  4  3  2  0
  5  6  2  0
  6  1  1  0
  7  3  1  0
  7  8  1  0
  9  8  1  0
 10  9  1  0
 11 12  1  0
 11 10  1  0
 12  7  1  0
 13 14  1  0
 13 12  1  0
 14 15  2  0
 15 17  1  0
 16 14  1  0
  1 18  1  0
  2 19  1  0
  5 20  1  0
  8 21  1  0
  8 22  1  0
  9 23  1  0
  9 24  1  0
 11 25  1  0
 11 26  1  0
 12 27  1  1
 13 28  1  0
 16 29  1  0
 16 30  1  0
M  ISO  8  18  14  19  14  20  14  21  13  22  13  23  13  24  13  25  13
M  ISO  2  26  13  27  13
M  END
>  <minimizedAffinity>  (1) 
-3.67998838

>  <minimizedRMSD>  (1) 
0.261562943

$$$$
