
     RDKit          3D

 25 26  0  0  1  0  0  0  0  0999 V2000
   37.9220   28.1680   43.6320 C   0  0  0  0  0  0  0  0  0  0  0  0
   37.8730   26.9320   42.9780 C   0  0  0  0  0  0  0  0  0  0  0  0
   37.3220   26.8460   41.7000 C   0  0  0  0  0  0  0  0  0  0  0  0
   36.8610   28.0000   41.1740 N   0  0  0  0  0  0  0  0  0  0  0  0
   36.9020   29.1890   41.7880 C   0  0  0  0  0  0  0  0  0  0  0  0
   37.4320   29.2620   43.0120 N   0  0  0  0  0  0  0  0  0  0  0  0
   37.2540   25.6040   41.0040 N   0  0  0  0  0  0  0  0  0  0  0  0
   37.1620   24.3640   41.7180 C   0  0  0  0  0  0  0  0  0  0  0  0
   37.5680   23.1800   40.8890 C   0  0  0  0  0  0  0  0  0  0  0  0
   37.9090   23.4650   39.5980 O   0  0  0  0  0  0  0  0  0  0  0  0
   37.0610   24.3390   38.9850 C   0  0  0  0  0  0  0  0  0  0  0  0
   37.2830   25.6930   39.5570 C   0  0  1  0  0  0  0  0  0  0  0  0
   36.2920   26.6930   39.0700 C   0  0  0  0  0  0  0  0  0  0  0  0
   35.4680   26.7620   38.1740 O   0  0  0  0  0  0  0  0  0  0  0  0
   38.3550   28.2471   44.6401 H   0  0  0  0  0  0  0  0  0  0  0  0
   38.2679   26.0311   43.4704 H   0  0  0  0  0  0  0  0  0  0  0  0
   36.5067   30.0888   41.2939 H   0  0  0  0  0  0  0  0  0  0  0  0
   37.8184   24.4170   42.5991 H   0  0  0  0  0  0  0  0  0  0  0  0
   36.1081   24.2233   41.9999 H   0  0  0  0  0  0  0  0  0  0  0  0
   38.4345   22.7062   41.3734 H   0  0  0  0  0  0  0  0  0  0  0  0
   36.6843   22.5272   40.8348 H   0  0  0  0  0  0  0  0  0  0  0  0
   36.0199   24.0292   39.1586 H   0  0  0  0  0  0  0  0  0  0  0  0
   37.2522   24.3520   37.9018 H   0  0  0  0  0  0  0  0  0  0  0  0
   38.2678   26.0481   39.2193 H   0  0  0  0  0  0  0  0  0  0  0  0
   36.3078   27.6094   39.6782 H   0  0  0  0  0  0  0  0  0  0  0  0
  2  1  2  0
  3  2  1  0
  4  3  2  0
  4  5  1  0
  5  6  2  0
  6  1  1  0
  7  3  1  0
  7  8  1  0
  9  8  1  0
 10  9  1  0
 11 12  1  0
 11 10  1  0
 12  7  1  0
 13 12  1  0
 14 13  2  0
  1 15  1  0
  2 16  1  0
  5 17  1  0
  8 18  1  0
  8 19  1  0
  9 20  1  0
  9 21  1  0
 11 22  1  0
 11 23  1  0
 12 24  1  1
 13 25  1  0
M  ISO  8  15  14  16  14  17  14  18  13  19  13  20  13  21  13  22  13
M  ISO  3  23  13  24  13  25   6
M  END
>  <minimizedAffinity>  (1) 
-3.51451063

>  <minimizedRMSD>  (1) 
0.778111696

$$$$
