
     RDKit          3D

 39 41  0  0  1  0  0  0  0  0999 V2000
   39.9820   31.8700   40.0730 C   0  0  0  0  0  0  0  0  0  0  0  0
   39.5610   30.7240   40.7930 C   0  0  0  0  0  0  0  0  0  0  0  0
   38.2400   30.6030   41.1470 C   0  0  0  0  0  0  0  0  0  0  0  0
   37.4060   31.6030   40.7790 N   0  0  0  0  0  0  0  0  0  0  0  0
   37.8120   32.6890   40.0950 C   0  0  0  0  0  0  0  0  0  0  0  0
   39.1030   32.8220   39.7400 N   0  0  0  0  0  0  0  0  0  0  0  0
   36.8380   33.6920   39.7560 N   0  0  0  0  0  0  0  0  0  0  0  0
   37.7510   29.4890   41.8660 N   0  0  0  0  0  0  0  0  0  0  0  0
   38.3130   29.1780   43.1560 C   0  0  0  0  0  0  0  0  0  0  0  0
   37.2750   28.3210   43.8800 C   0  0  0  0  0  0  0  0  0  0  0  0
   36.9700   27.1110   43.1710 N   0  0  0  0  0  0  0  0  0  0  0  0
   36.9430   27.2280   41.7570 C   0  0  0  0  0  0  0  0  0  0  0  0
   36.7050   28.6720   41.3270 C   0  0  2  0  0  0  0  0  0  0  0  0
   35.9480   28.9980   37.1130 C   0  0  0  0  0  0  0  0  0  0  0  0
   34.9900   29.3270   38.0430 C   0  0  0  0  0  0  0  0  0  0  0  0
   35.2750   29.2100   39.3740 C   0  0  0  0  0  0  0  0  0  0  0  0
   36.5000   28.7690   39.8830 C   0  0  0  0  0  0  0  0  0  0  0  0
   37.3990   28.4610   38.9010 C   0  0  0  0  0  0  0  0  0  0  0  0
   37.1670   28.5600   37.5460 C   0  0  0  0  0  0  0  0  0  0  0  0
   35.6830   29.1130   35.3920 S   0  0  0  0  0  0  0  0  0  0  0  0
   34.2200   29.2810   35.0820 O   0  0  0  0  0  0  0  0  0  0  0  0
   36.4360   30.2890   34.8350 O   0  0  0  0  0  0  0  0  0  0  0  0
   41.0385   31.9774   39.7861 H   0  0  0  0  0  0  0  0  0  0  0  0
   40.2840   29.9409   41.0649 H   0  0  0  0  0  0  0  0  0  0  0  0
   37.1243   34.5319   39.2330 H   0  0  0  0  0  0  0  0  0  0  0  0
   35.8544   33.5702   40.0363 H   0  0  0  0  0  0  0  0  0  0  0  0
   39.2529   28.6189   43.0374 H   0  0  0  0  0  0  0  0  0  0  0  0
   38.5430   30.0920   43.7231 H   0  0  0  0  0  0  0  0  0  0  0  0
   37.6658   28.0584   44.8741 H   0  0  0  0  0  0  0  0  0  0  0  0
   36.3480   28.9088   43.9521 H   0  0  0  0  0  0  0  0  0  0  0  0
   37.6816   26.4088   43.4188 H   0  0  0  0  0  0  0  0  0  0  0  0
   37.9064   26.8868   41.3504 H   0  0  0  0  0  0  0  0  0  0  0  0
   36.1185   26.6098   41.3722 H   0  0  0  0  0  0  0  0  0  0  0  0
   35.7645   29.0628   41.7427 H   0  0  0  0  0  0  0  0  0  0  0  0
   34.0010   29.6819   37.7175 H   0  0  0  0  0  0  0  0  0  0  0  0
   34.4880   29.4809   40.0932 H   0  0  0  0  0  0  0  0  0  0  0  0
   38.3901   28.1045   39.2183 H   0  0  0  0  0  0  0  0  0  0  0  0
   37.9519   28.2903   36.8241 H   0  0  0  0  0  0  0  0  0  0  0  0
   36.1307   27.9525   34.8177 H   0  0  0  0  0  0  0  0  0  0  0  0
  1  2  2  0
  2  3  1  0
  3  8  1  0
  4  3  2  0
  5  4  1  0
  6  1  1  0
  6  5  2  0
  7  5  1  0
  8  9  1  0
  9 10  1  0
 11 10  1  0
 12 11  1  0
 13 12  1  0
 13  8  1  0
 14 19  2  0
 14 15  1  0
 15 16  2  0
 16 17  1  0
 17 13  1  0
 18 17  2  0
 19 18  1  0
 20 14  1  0
 21 20  2  0
 22 20  2  0
  1 23  1  0
  2 24  1  0
  7 25  1  0
  7 26  1  0
  9 27  1  0
  9 28  1  0
 10 29  1  0
 10 30  1  0
 11 31  1  0
 12 32  1  0
 12 33  1  0
 13 34  1  1
 15 35  1  0
 16 36  1  0
 18 37  1  0
 19 38  1  0
 20 39  1  0
M  ISO  8  23  14  24  14  27  13  28  13  29  13  30  13  31   5  32  13
M  ISO  7  33  13  34  13  35  14  36  14  37  14  38  14  39  11
M  END
>  <minimizedAffinity>  (1) 
-5.82318258

>  <minimizedRMSD>  (1) 
2.15054226

$$$$
