
     RDKit          3D

 52 56  0  0  1  0  0  0  0  0999 V2000
   37.1780   28.1330   40.2900 N   0  0  0  0  0  0  0  0  0  0  0  0
   35.9750   28.4680   40.9250 C   0  0  0  0  0  0  0  0  0  0  0  0
   35.1370   29.5010   40.1880 C   0  0  0  0  0  0  0  0  0  0  0  0
   35.4640   29.5250   38.8290 O   0  0  0  0  0  0  0  0  0  0  0  0
   36.7510   30.0590   38.8000 C   0  0  0  0  0  0  0  0  0  0  0  0
   37.7640   29.1310   39.4510 C   0  0  1  0  0  0  0  0  0  0  0  0
   39.8510   25.3330   43.5570 C   0  0  0  0  0  0  0  0  0  0  0  0
   39.0050   25.0000   42.4860 C   0  0  0  0  0  0  0  0  0  0  0  0
   38.2560   26.0010   41.8650 C   0  0  0  0  0  0  0  0  0  0  0  0
   38.4120   27.2340   42.3600 N   0  0  0  0  0  0  0  0  0  0  0  0
   39.2210   27.5650   43.3880 C   0  0  0  0  0  0  0  0  0  0  0  0
   39.9330   26.6070   43.9770 N   0  0  0  0  0  0  0  0  0  0  0  0
   37.3870   25.7520   40.7840 N   0  0  0  0  0  0  0  0  0  0  0  0
   36.6560   24.5290   40.7120 C   0  0  0  0  0  0  0  0  0  0  0  0
   36.3010   24.1320   39.2940 C   0  0  0  0  0  0  0  0  0  0  0  0
   36.5460   25.1090   38.3470 O   0  0  0  0  0  0  0  0  0  0  0  0
   36.2730   26.3760   38.7880 C   0  0  0  0  0  0  0  0  0  0  0  0
   37.2830   26.7800   39.7830 C   0  0  1  0  0  0  0  0  0  0  0  0
   38.7540   30.0500   40.0140 C   0  0  0  0  0  0  0  0  0  0  0  0
   39.9480   29.6930   40.5940 C   0  0  0  0  0  0  0  0  0  0  0  0
   40.8840   30.5490   41.1300 C   0  0  0  0  0  0  0  0  0  0  0  0
   40.6370   31.9050   41.1000 C   0  0  0  0  0  0  0  0  0  0  0  0
   39.4680   32.3320   40.5380 C   0  0  0  0  0  0  0  0  0  0  0  0
   39.2720   33.6970   40.5390 C   0  0  0  0  0  0  0  0  0  0  0  0
   38.1240   34.2270   40.0020 C   0  0  0  0  0  0  0  0  0  0  0  0
   37.2050   33.3460   39.4760 C   0  0  0  0  0  0  0  0  0  0  0  0
   37.4390   32.0040   39.4930 C   0  0  0  0  0  0  0  0  0  0  0  0
   38.5760   31.4320   40.0210 C   0  0  0  0  0  0  0  0  0  0  0  0
   35.3757   27.5516   41.0302 H   0  0  0  0  0  0  0  0  0  0  0  0
   36.2470   28.9186   41.8909 H   0  0  0  0  0  0  0  0  0  0  0  0
   34.0723   29.2476   40.2987 H   0  0  0  0  0  0  0  0  0  0  0  0
   35.3403   30.4929   40.6179 H   0  0  0  0  0  0  0  0  0  0  0  0
   37.0433   30.2262   37.7528 H   0  0  0  0  0  0  0  0  0  0  0  0
   36.7414   31.0032   39.3643 H   0  0  0  0  0  0  0  0  0  0  0  0
   38.2728   28.4434   38.7594 H   0  0  0  0  0  0  0  0  0  0  0  0
   40.4461   24.5512   44.0517 H   0  0  0  0  0  0  0  0  0  0  0  0
   38.9334   23.9585   42.1394 H   0  0  0  0  0  0  0  0  0  0  0  0
   39.2908   28.6072   43.7328 H   0  0  0  0  0  0  0  0  0  0  0  0
   37.2665   23.7295   41.1571 H   0  0  0  0  0  0  0  0  0  0  0  0
   35.7123   24.6782   41.2571 H   0  0  0  0  0  0  0  0  0  0  0  0
   36.8895   23.2413   39.0290 H   0  0  0  0  0  0  0  0  0  0  0  0
   35.2163   23.9498   39.2823 H   0  0  0  0  0  0  0  0  0  0  0  0
   36.2973   27.0731   37.9375 H   0  0  0  0  0  0  0  0  0  0  0  0
   35.2752   26.3954   39.2507 H   0  0  0  0  0  0  0  0  0  0  0  0
   38.2481   26.8570   39.2608 H   0  0  0  0  0  0  0  0  0  0  0  0
   40.1784   28.6181   40.6339 H   0  0  0  0  0  0  0  0  0  0  0  0
   41.8115   30.1582   41.5738 H   0  0  0  0  0  0  0  0  0  0  0  0
   41.3601   32.6217   41.5164 H   0  0  0  0  0  0  0  0  0  0  0  0
   40.0352   34.3617   40.9700 H   0  0  0  0  0  0  0  0  0  0  0  0
   37.9456   35.3124   39.9924 H   0  0  0  0  0  0  0  0  0  0  0  0
   36.2722   33.7301   39.0375 H   0  0  0  0  0  0  0  0  0  0  0  0
   36.6768   31.3391   39.0606 H   0  0  0  0  0  0  0  0  0  0  0  0
  1  2  1  0
  3  2  1  0
  4  3  1  0
  5  4  1  0
  5  6  1  0
  6 19  1  0
  6  1  1  0
  7 12  2  0
  8  7  1  0
  9 10  1  0
  9  8  2  0
 10 11  2  0
 11 12  1  0
 13  9  1  0
 14 13  1  0
 15 14  1  0
 16 17  1  0
 16 15  1  0
 17 18  1  0
 18  1  1  0
 18 13  1  0
 19 28  1  0
 19 20  2  0
 20 21  1  0
 22 21  2  0
 23 24  2  0
 23 22  1  0
 25 24  1  0
 26 27  1  0
 26 25  2  0
 27 28  2  0
 28 23  1  0
  2 29  1  0
  2 30  1  0
  3 31  1  0
  3 32  1  0
  5 33  1  0
  5 34  1  0
  6 35  1  6
  7 36  1  0
  8 37  1  0
 11 38  1  0
 14 39  1  0
 14 40  1  0
 15 41  1  0
 15 42  1  0
 17 43  1  0
 17 44  1  0
 18 45  1  6
 20 46  1  0
 21 47  1  0
 22 48  1  0
 24 49  1  0
 25 50  1  0
 26 51  1  0
 27 52  1  0
M  ISO  8  29  13  30  13  31  13  32  13  33  13  34  13  35  13  36  14
M  ISO  8  37  14  38  14  39  13  40  13  41  13  42  13  43  13  44  13
M  ISO  8  45  13  46  14  47  14  48  14  49  14  50  14  51  14  52  14
M  END
>  <minimizedAffinity>  (1) 
-6.60358906

>  <minimizedRMSD>  (1) 
2.08678889

$$$$
