
     RDKit          3D

 50 54  0  0  1  0  0  0  0  0999 V2000
   37.7420   29.2340   38.6470 N   0  0  0  0  0  0  0  0  0  0  0  0
   36.4420   28.7710   38.2940 C   0  0  0  0  0  0  0  0  0  0  0  0
   35.9080   29.3440   36.9890 C   0  0  0  0  0  0  0  0  0  0  0  0
   36.9650   29.7640   36.1720 O   0  0  0  0  0  0  0  0  0  0  0  0
   37.4700   30.8840   36.8420 C   0  0  0  0  0  0  0  0  0  0  0  0
   38.1090   30.5000   38.1590 C   0  0  1  0  0  0  0  0  0  0  0  0
   38.7620   27.9170   43.4250 C   0  0  0  0  0  0  0  0  0  0  0  0
   39.0850   27.3270   42.1810 C   0  0  0  0  0  0  0  0  0  0  0  0
   38.4920   27.8340   41.0310 C   0  0  0  0  0  0  0  0  0  0  0  0
   37.6470   28.8590   41.1930 N   0  0  0  0  0  0  0  0  0  0  0  0
   37.3280   29.4320   42.3660 C   0  0  0  0  0  0  0  0  0  0  0  0
   37.9000   28.9440   43.4810 N   0  0  0  0  0  0  0  0  0  0  0  0
   38.7560   27.3100   39.7490 N   0  0  0  0  0  0  0  0  0  0  0  0
   38.9830   25.9050   39.5690 C   0  0  0  0  0  0  0  0  0  0  0  0
   39.7960   25.5680   38.3510 C   0  0  0  0  0  0  0  0  0  0  0  0
   40.0340   26.6430   37.5130 O   0  0  0  0  0  0  0  0  0  0  0  0
   38.9700   27.4900   37.3890 C   0  0  0  0  0  0  0  0  0  0  0  0
   38.7850   28.2430   38.6510 C   0  0  1  0  0  0  0  0  0  0  0  0
   37.9910   31.6790   39.0020 C   0  0  0  0  0  0  0  0  0  0  0  0
   36.9270   32.1190   39.7630 C   0  0  0  0  0  0  0  0  0  0  0  0
   37.1680   33.2700   40.4170 N   0  0  0  0  0  0  0  0  0  0  0  0
   38.4260   33.6100   40.0880 C   0  0  0  0  0  0  0  0  0  0  0  0
   39.1990   34.6920   40.4630 C   0  0  0  0  0  0  0  0  0  0  0  0
   40.4960   34.8110   39.9700 C   0  0  0  0  0  0  0  0  0  0  0  0
   41.0340   33.8820   39.1170 C   0  0  0  0  0  0  0  0  0  0  0  0
   40.2430   32.8260   38.7690 C   0  0  0  0  0  0  0  0  0  0  0  0
   38.9410   32.6790   39.2450 C   0  0  0  0  0  0  0  0  0  0  0  0
   36.4798   27.6757   38.1998 H   0  0  0  0  0  0  0  0  0  0  0  0
   35.7603   29.1074   39.0890 H   0  0  0  0  0  0  0  0  0  0  0  0
   35.3289   28.5704   36.4635 H   0  0  0  0  0  0  0  0  0  0  0  0
   35.2661   30.2083   37.2148 H   0  0  0  0  0  0  0  0  0  0  0  0
   38.2248   31.3705   36.2067 H   0  0  0  0  0  0  0  0  0  0  0  0
   36.6341   31.5681   37.0500 H   0  0  0  0  0  0  0  0  0  0  0  0
   39.1818   30.2701   38.0795 H   0  0  0  0  0  0  0  0  0  0  0  0
   39.2186   27.5331   44.3492 H   0  0  0  0  0  0  0  0  0  0  0  0
   39.7905   26.4849   42.1249 H   0  0  0  0  0  0  0  0  0  0  0  0
   36.6213   30.2737   42.4126 H   0  0  0  0  0  0  0  0  0  0  0  0
   39.5127   25.5240   40.4546 H   0  0  0  0  0  0  0  0  0  0  0  0
   37.9964   25.4384   39.4320 H   0  0  0  0  0  0  0  0  0  0  0  0
   40.7655   25.1681   38.6831 H   0  0  0  0  0  0  0  0  0  0  0  0
   39.2104   24.8390   37.7717 H   0  0  0  0  0  0  0  0  0  0  0  0
   39.1574   28.1953   36.5659 H   0  0  0  0  0  0  0  0  0  0  0  0
   38.0620   26.9072   37.1747 H   0  0  0  0  0  0  0  0  0  0  0  0
   39.6575   28.9000   38.7817 H   0  0  0  0  0  0  0  0  0  0  0  0
   35.9709   31.5790   39.8288 H   0  0  0  0  0  0  0  0  0  0  0  0
   36.5250   33.7818   41.0379 H   0  0  0  0  0  0  0  0  0  0  0  0
   38.7932   35.4533   41.1455 H   0  0  0  0  0  0  0  0  0  0  0  0
   41.1060   35.6746   40.2734 H   0  0  0  0  0  0  0  0  0  0  0  0
   42.0587   33.9836   38.7301 H   0  0  0  0  0  0  0  0  0  0  0  0
   40.6475   32.0628   38.0879 H   0  0  0  0  0  0  0  0  0  0  0  0
  1  2  1  0
  1 18  1  0
  3  2  1  0
  4  5  1  0
  4  3  1  0
  5  6  1  0
  6  1  1  0
  6 19  1  0
  7 12  2  0
  8  7  1  0
  9 10  1  0
  9  8  2  0
 10 11  2  0
 11 12  1  0
 13  9  1  0
 14 13  1  0
 15 14  1  0
 16 15  1  0
 17 16  1  0
 17 18  1  0
 18 13  1  0
 19 27  1  0
 19 20  2  0
 20 21  1  0
 22 21  1  0
 22 23  2  0
 24 23  1  0
 25 24  2  0
 26 25  1  0
 26 27  2  0
 27 22  1  0
  2 28  1  0
  2 29  1  0
  3 30  1  0
  3 31  1  0
  5 32  1  0
  5 33  1  0
  6 34  1  6
  7 35  1  0
  8 36  1  0
 11 37  1  0
 14 38  1  0
 14 39  1  0
 15 40  1  0
 15 41  1  0
 17 42  1  0
 17 43  1  0
 18 44  1  1
 20 45  1  0
 21 46  1  0
 23 47  1  0
 24 48  1  0
 25 49  1  0
 26 50  1  0
M  ISO  8  28  13  29  13  30  13  31  13  32  13  33  13  34  13  35  14
M  ISO  8  36  14  37  14  38  13  39  13  40  13  41  13  42  13  43  13
M  ISO  7  44  13  45  14  46   9  47  14  48  14  49  14  50  14
M  END
>  <minimizedAffinity>  (1) 
-6.36453342

>  <minimizedRMSD>  (1) 
1.73844147

$$$$
