
     RDKit          3D

 51 54  0  0  1  0  0  0  0  0999 V2000
   38.2960   27.4690   43.6290 C   0  0  0  0  0  0  0  0  0  0  0  0
   38.0380   26.6630   42.5100 C   0  0  0  0  0  0  0  0  0  0  0  0
   37.3680   27.1960   41.4230 C   0  0  0  0  0  0  0  0  0  0  0  0
   37.0040   28.4790   41.5140 N   0  0  0  0  0  0  0  0  0  0  0  0
   37.2410   29.2710   42.5800 C   0  0  0  0  0  0  0  0  0  0  0  0
   37.8880   28.7550   43.6300 N   0  0  0  0  0  0  0  0  0  0  0  0
   37.0730   26.4410   40.2630 N   0  0  0  0  0  0  0  0  0  0  0  0
   36.7560   25.0500   40.3550 C   0  0  0  0  0  0  0  0  0  0  0  0
   37.0510   24.2680   39.0970 C   0  0  0  0  0  0  0  0  0  0  0  0
   37.4010   25.0520   38.0190 O   0  0  0  0  0  0  0  0  0  0  0  0
   36.6690   26.2130   37.9330 C   0  0  0  0  0  0  0  0  0  0  0  0
   37.1070   27.1310   39.0040 C   0  0  1  0  0  0  0  0  0  0  0  0
   36.5140   28.4440   38.9910 N   0  0  0  0  0  0  0  0  0  0  0  0
   35.1140   28.4950   38.7510 C   0  0  0  0  0  0  0  0  0  0  0  0
   34.7400   29.1670   37.4290 C   0  0  0  0  0  0  0  0  0  0  0  0
   35.8110   29.1200   36.5280 O   0  0  0  0  0  0  0  0  0  0  0  0
   36.7650   30.0030   37.0900 C   0  0  0  0  0  0  0  0  0  0  0  0
   37.2770   29.4610   38.3890 C   0  0  1  0  0  0  0  0  0  0  0  0
   37.7310   30.5520   39.1780 N   0  0  0  0  0  0  0  0  0  0  0  0
   39.1570   30.7140   39.2010 C   0  0  0  0  0  0  0  0  0  0  0  0
   39.5150   32.0940   38.7180 C   0  0  0  0  0  0  0  0  0  0  0  0
   38.9860   33.1430   39.6720 C   0  0  0  0  0  0  0  0  0  0  0  0
   37.5830   32.7160   40.1220 C   0  0  0  0  0  0  0  0  0  0  0  0
   37.0020   31.7660   39.0900 C   0  0  0  0  0  0  0  0  0  0  0  0
   38.8270   27.0555   44.4991 H   0  0  0  0  0  0  0  0  0  0  0  0
   38.3665   25.6133   42.4969 H   0  0  0  0  0  0  0  0  0  0  0  0
   36.9088   30.3196   42.5852 H   0  0  0  0  0  0  0  0  0  0  0  0
   37.3424   24.6153   41.1779 H   0  0  0  0  0  0  0  0  0  0  0  0
   35.6714   24.9814   40.5253 H   0  0  0  0  0  0  0  0  0  0  0  0
   37.8808   23.5768   39.3059 H   0  0  0  0  0  0  0  0  0  0  0  0
   36.1231   23.7450   38.8223 H   0  0  0  0  0  0  0  0  0  0  0  0
   36.8346   26.6829   36.9523 H   0  0  0  0  0  0  0  0  0  0  0  0
   35.5980   25.9894   38.0466 H   0  0  0  0  0  0  0  0  0  0  0  0
   38.1530   27.4035   38.8002 H   0  0  0  0  0  0  0  0  0  0  0  0
   34.7262   27.4657   38.7391 H   0  0  0  0  0  0  0  0  0  0  0  0
   34.6722   29.1012   39.5556 H   0  0  0  0  0  0  0  0  0  0  0  0
   33.8765   28.6453   36.9906 H   0  0  0  0  0  0  0  0  0  0  0  0
   34.4906   30.2200   37.6264 H   0  0  0  0  0  0  0  0  0  0  0  0
   37.6055   30.1215   36.3903 H   0  0  0  0  0  0  0  0  0  0  0  0
   36.2858   30.9760   37.2736 H   0  0  0  0  0  0  0  0  0  0  0  0
   38.1574   28.8269   38.2082 H   0  0  0  0  0  0  0  0  0  0  0  0
   39.5245   30.5789   40.2290 H   0  0  0  0  0  0  0  0  0  0  0  0
   39.6210   29.9643   38.5432 H   0  0  0  0  0  0  0  0  0  0  0  0
   40.6095   32.1824   38.6534 H   0  0  0  0  0  0  0  0  0  0  0  0
   39.0628   32.2530   37.7279 H   0  0  0  0  0  0  0  0  0  0  0  0
   39.6499   33.2208   40.5456 H   0  0  0  0  0  0  0  0  0  0  0  0
   38.9441   34.1232   39.1745 H   0  0  0  0  0  0  0  0  0  0  0  0
   37.6463   32.2089   41.0961 H   0  0  0  0  0  0  0  0  0  0  0  0
   36.9374   33.6014   40.2179 H   0  0  0  0  0  0  0  0  0  0  0  0
   37.1055   32.1953   38.0825 H   0  0  0  0  0  0  0  0  0  0  0  0
   35.9321   31.5929   39.2781 H   0  0  0  0  0  0  0  0  0  0  0  0
  1  6  2  0
  2  1  1  0
  3  4  1  0
  3  2  2  0
  4  5  2  0
  5  6  1  0
  7  8  1  0
  7  3  1  0
  9  8  1  0
 10  9  1  0
 11 10  1  0
 11 12  1  0
 12  7  1  0
 13 14  1  0
 13 12  1  0
 15 14  1  0
 16 17  1  0
 16 15  1  0
 17 18  1  0
 18 13  1  0
 18 19  1  0
 19 20  1  0
 21 20  1  0
 21 22  1  0
 22 23  1  0
 24 19  1  0
 24 23  1  0
  1 25  1  0
  2 26  1  0
  5 27  1  0
  8 28  1  0
  8 29  1  0
  9 30  1  0
  9 31  1  0
 11 32  1  0
 11 33  1  0
 12 34  1  6
 14 35  1  0
 14 36  1  0
 15 37  1  0
 15 38  1  0
 17 39  1  0
 17 40  1  0
 18 41  1  6
 20 42  1  0
 20 43  1  0
 21 44  1  0
 21 45  1  0
 22 46  1  0
 22 47  1  0
 23 48  1  0
 23 49  1  0
 24 50  1  0
 24 51  1  0
M  ISO  8  25  14  26  14  27  14  28  13  29  13  30  13  31  13  32  13
M  ISO  8  33  13  34  13  35  13  36  13  37  13  38  13  39  13  40  13
M  ISO  8  41  13  42  13  43  13  44  13  45  13  46  13  47  13  48  13
M  ISO  3  49  13  50  13  51  13
M  END
>  <minimizedAffinity>  (1) 
-5.29477596

>  <minimizedRMSD>  (1) 
0.381906867

$$$$
