
     RDKit          3D

 50 53  0  0  1  0  0  0  0  0999 V2000
   38.2390   27.5450   43.6840 C   0  0  0  0  0  0  0  0  0  0  0  0
   37.9530   26.6750   42.6170 C   0  0  0  0  0  0  0  0  0  0  0  0
   37.3130   27.1610   41.4930 C   0  0  0  0  0  0  0  0  0  0  0  0
   36.9970   28.4830   41.5010 N   0  0  0  0  0  0  0  0  0  0  0  0
   37.2660   29.3280   42.5200 C   0  0  0  0  0  0  0  0  0  0  0  0
   37.8900   28.8350   43.6040 N   0  0  0  0  0  0  0  0  0  0  0  0
   36.9940   26.3520   40.3770 N   0  0  0  0  0  0  0  0  0  0  0  0
   36.6240   24.9790   40.5680 C   0  0  0  0  0  0  0  0  0  0  0  0
   36.9330   24.1170   39.3580 C   0  0  0  0  0  0  0  0  0  0  0  0
   37.2640   24.8260   38.2250 O   0  0  0  0  0  0  0  0  0  0  0  0
   36.5410   25.9920   38.0670 C   0  0  0  0  0  0  0  0  0  0  0  0
   37.0590   26.9650   39.0800 C   0  0  1  0  0  0  0  0  0  0  0  0
   36.5080   28.2640   38.9660 N   0  0  0  0  0  0  0  0  0  0  0  0
   35.1120   28.3750   38.6670 C   0  0  0  0  0  0  0  0  0  0  0  0
   34.8240   29.0060   37.3130 C   0  0  0  0  0  0  0  0  0  0  0  0
   35.9530   28.9180   36.4830 O   0  0  0  0  0  0  0  0  0  0  0  0
   36.8550   29.7950   37.0880 C   0  0  0  0  0  0  0  0  0  0  0  0
   37.3170   29.2900   38.4390 C   0  0  2  0  0  0  0  0  0  0  0  0
   38.6930   29.0460   38.4720 N   0  0  0  0  0  0  0  0  0  0  0  0
   39.5220   29.6960   39.3910 C   0  0  0  0  0  0  0  0  0  0  0  0
   40.9290   29.8300   38.7850 C   0  0  0  0  0  0  0  0  0  0  0  0
   40.7630   29.9930   37.3650 N   0  0  0  0  0  0  0  0  0  0  0  0
   40.3840   28.7120   36.7490 C   0  0  0  0  0  0  0  0  0  0  0  0
   39.2930   28.0710   37.6340 C   0  0  0  0  0  0  0  0  0  0  0  0
   38.7484   27.1665   44.5825 H   0  0  0  0  0  0  0  0  0  0  0  0
   38.2370   25.6140   42.6768 H   0  0  0  0  0  0  0  0  0  0  0  0
   36.9825   30.3894   42.4644 H   0  0  0  0  0  0  0  0  0  0  0  0
   37.1759   24.5826   41.4330 H   0  0  0  0  0  0  0  0  0  0  0  0
   35.5366   24.9468   40.7307 H   0  0  0  0  0  0  0  0  0  0  0  0
   37.7772   23.4587   39.6109 H   0  0  0  0  0  0  0  0  0  0  0  0
   36.0124   23.5624   39.1239 H   0  0  0  0  0  0  0  0  0  0  0  0
   36.6835   26.3909   37.0518 H   0  0  0  0  0  0  0  0  0  0  0  0
   35.4653   25.8108   38.2089 H   0  0  0  0  0  0  0  0  0  0  0  0
   38.1192   27.1812   38.8817 H   0  0  0  0  0  0  0  0  0  0  0  0
   34.6729   27.3665   38.6804 H   0  0  0  0  0  0  0  0  0  0  0  0
   34.6719   29.0351   39.4290 H   0  0  0  0  0  0  0  0  0  0  0  0
   33.9832   28.4787   36.8387 H   0  0  0  0  0  0  0  0  0  0  0  0
   34.5702   30.0662   37.4597 H   0  0  0  0  0  0  0  0  0  0  0  0
   37.7314   29.9107   36.4333 H   0  0  0  0  0  0  0  0  0  0  0  0
   36.3434   30.7567   37.2412 H   0  0  0  0  0  0  0  0  0  0  0  0
   37.1652   30.1126   39.1533 H   0  0  0  0  0  0  0  0  0  0  0  0
   39.1178   30.6952   39.6105 H   0  0  0  0  0  0  0  0  0  0  0  0
   39.5718   29.1151   40.3238 H   0  0  0  0  0  0  0  0  0  0  0  0
   41.4405   30.7070   39.2084 H   0  0  0  0  0  0  0  0  0  0  0  0
   41.5386   28.9422   39.0091 H   0  0  0  0  0  0  0  0  0  0  0  0
   40.0246   30.6885   37.1861 H   0  0  0  0  0  0  0  0  0  0  0  0
   39.9913   28.8849   35.7361 H   0  0  0  0  0  0  0  0  0  0  0  0
   41.2575   28.0478   36.6719 H   0  0  0  0  0  0  0  0  0  0  0  0
   38.5215   27.6239   36.9898 H   0  0  0  0  0  0  0  0  0  0  0  0
   39.7568   27.2983   38.2648 H   0  0  0  0  0  0  0  0  0  0  0  0
  2  1  2  0
  3  4  2  0
  3  2  1  0
  4  5  1  0
  5  6  2  0
  6  1  1  0
  7  8  1  0
  7  3  1  0
  9  8  1  0
 10  9  1  0
 11 10  1  0
 11 12  1  0
 12  7  1  0
 13 14  1  0
 13 12  1  0
 15 14  1  0
 16 17  1  0
 16 15  1  0
 17 18  1  0
 18 19  1  0
 18 13  1  0
 19 20  1  0
 21 20  1  0
 22 21  1  0
 23 22  1  0
 23 24  1  0
 24 19  1  0
  1 25  1  0
  2 26  1  0
  5 27  1  0
  8 28  1  0
  8 29  1  0
  9 30  1  0
  9 31  1  0
 11 32  1  0
 11 33  1  0
 12 34  1  6
 14 35  1  0
 14 36  1  0
 15 37  1  0
 15 38  1  0
 17 39  1  0
 17 40  1  0
 18 41  1  1
 20 42  1  0
 20 43  1  0
 21 44  1  0
 21 45  1  0
 22 46  1  0
 23 47  1  0
 23 48  1  0
 24 49  1  0
 24 50  1  0
M  ISO  8  25  14  26  14  27  14  28  13  29  13  30  13  31  13  32  13
M  ISO  8  33  13  34  13  35  13  36  13  37  13  38  13  39  13  40  13
M  ISO  8  41  13  42  13  43  13  44  13  45  13  46   5  47  13  48  13
M  ISO  2  49  13  50  13
M  END
>  <minimizedAffinity>  (1) 
-4.57939577

>  <minimizedRMSD>  (1) 
0.282110065

$$$$
