
     RDKit          3D

 49 52  0  0  1  0  0  0  0  0999 V2000
   38.6450   27.3350   43.6890 C   0  0  0  0  0  0  0  0  0  0  0  0
   39.0130   26.9490   42.3980 C   0  0  0  0  0  0  0  0  0  0  0  0
   38.3690   27.4960   41.2920 C   0  0  0  0  0  0  0  0  0  0  0  0
   37.3920   28.3970   41.5510 N   0  0  0  0  0  0  0  0  0  0  0  0
   37.0300   28.7750   42.7840 C   0  0  0  0  0  0  0  0  0  0  0  0
   37.6580   28.2410   43.8450 N   0  0  0  0  0  0  0  0  0  0  0  0
   38.7110   27.1360   39.9700 N   0  0  0  0  0  0  0  0  0  0  0  0
   39.1220   25.8030   39.6510 C   0  0  0  0  0  0  0  0  0  0  0  0
   39.9860   25.7290   38.4070 C   0  0  0  0  0  0  0  0  0  0  0  0
   40.0750   26.9070   37.6920 O   0  0  0  0  0  0  0  0  0  0  0  0
   38.9050   27.6030   37.6420 C   0  0  0  0  0  0  0  0  0  0  0  0
   38.6320   28.1860   38.9740 C   0  0  1  0  0  0  0  0  0  0  0  0
   37.4950   29.0240   39.0390 N   0  0  0  0  0  0  0  0  0  0  0  0
   36.3000   28.5570   38.4000 C   0  0  0  0  0  0  0  0  0  0  0  0
   35.8590   29.4320   37.2320 C   0  0  0  0  0  0  0  0  0  0  0  0
   36.9400   30.1650   36.7290 O   0  0  0  0  0  0  0  0  0  0  0  0
   37.2180   31.1030   37.7600 C   0  0  0  0  0  0  0  0  0  0  0  0
   37.6660   30.4090   38.9990 C   0  0  2  0  0  0  0  0  0  0  0  0
   38.9310   30.8530   39.5060 N   0  0  0  0  0  0  0  0  0  0  0  0
   38.7270   31.6980   40.7070 C   0  0  0  0  0  0  0  0  0  0  0  0
   39.9890   32.5010   40.9410 C   0  0  0  0  0  0  0  0  0  0  0  0
   41.1070   31.8470   40.4330 O   0  0  0  0  0  0  0  0  0  0  0  0
   41.0800   31.7340   39.0490 C   0  0  0  0  0  0  0  0  0  0  0  0
   39.6390   31.7380   38.5980 C   0  0  0  0  0  0  0  0  0  0  0  0
   39.1527   26.9064   44.5656 H   0  0  0  0  0  0  0  0  0  0  0  0
   39.8149   26.2098   42.2549 H   0  0  0  0  0  0  0  0  0  0  0  0
   36.2278   29.5141   42.9263 H   0  0  0  0  0  0  0  0  0  0  0  0
   39.6947   25.4006   40.4996 H   0  0  0  0  0  0  0  0  0  0  0  0
   38.2120   25.2173   39.4539 H   0  0  0  0  0  0  0  0  0  0  0  0
   41.0015   25.4369   38.7127 H   0  0  0  0  0  0  0  0  0  0  0  0
   39.5059   24.9979   37.7400 H   0  0  0  0  0  0  0  0  0  0  0  0
   38.9868   28.4082   36.8971 H   0  0  0  0  0  0  0  0  0  0  0  0
   38.0841   26.9285   37.3571 H   0  0  0  0  0  0  0  0  0  0  0  0
   39.4190   28.9184   39.2069 H   0  0  0  0  0  0  0  0  0  0  0  0
   36.4798   27.5387   38.0249 H   0  0  0  0  0  0  0  0  0  0  0  0
   35.4964   28.5865   39.1506 H   0  0  0  0  0  0  0  0  0  0  0  0
   35.4536   28.7923   36.4342 H   0  0  0  0  0  0  0  0  0  0  0  0
   35.0892   30.1336   37.5858 H   0  0  0  0  0  0  0  0  0  0  0  0
   38.0114   31.7858   37.4221 H   0  0  0  0  0  0  0  0  0  0  0  0
   36.2989   31.6648   37.9830 H   0  0  0  0  0  0  0  0  0  0  0  0
   36.9211   30.7598   39.7284 H   0  0  0  0  0  0  0  0  0  0  0  0
   37.8779   32.3780   40.5439 H   0  0  0  0  0  0  0  0  0  0  0  0
   38.5100   31.0680   41.5822 H   0  0  0  0  0  0  0  0  0  0  0  0
   39.8892   33.4776   40.4448 H   0  0  0  0  0  0  0  0  0  0  0  0
   40.1238   32.6268   42.0254 H   0  0  0  0  0  0  0  0  0  0  0  0
   41.6131   32.5831   38.5966 H   0  0  0  0  0  0  0  0  0  0  0  0
   41.5710   30.8006   38.7366 H   0  0  0  0  0  0  0  0  0  0  0  0
   39.2239   32.7551   38.6549 H   0  0  0  0  0  0  0  0  0  0  0  0
   39.5433   31.4037   37.5544 H   0  0  0  0  0  0  0  0  0  0  0  0
  1  6  2  0
  2  1  1  0
  3  4  1  0
  3  2  2  0
  4  5  2  0
  5  6  1  0
  7  3  1  0
  8  7  1  0
  9  8  1  0
 10  9  1  0
 11 10  1  0
 11 12  1  0
 12 13  1  0
 12  7  1  0
 13 14  1  0
 15 14  1  0
 16 15  1  0
 16 17  1  0
 17 18  1  0
 18 13  1  0
 18 19  1  0
 19 20  1  0
 20 21  1  0
 22 21  1  0
 23 22  1  0
 24 23  1  0
 24 19  1  0
  1 25  1  0
  2 26  1  0
  5 27  1  0
  8 28  1  0
  8 29  1  0
  9 30  1  0
  9 31  1  0
 11 32  1  0
 11 33  1  0
 12 34  1  1
 14 35  1  0
 14 36  1  0
 15 37  1  0
 15 38  1  0
 17 39  1  0
 17 40  1  0
 18 41  1  1
 20 42  1  0
 20 43  1  0
 21 44  1  0
 21 45  1  0
 23 46  1  0
 23 47  1  0
 24 48  1  0
 24 49  1  0
M  ISO  8  25  14  26  14  27  14  28  13  29  13  30  13  31  13  32  13
M  ISO  8  33  13  34  13  35  13  36  13  37  13  38  13  39  13  40  13
M  ISO  8  41  13  42  13  43  13  44  13  45  13  46  13  47  13  48  13
M  ISO  1  49  13
M  END
>  <minimizedAffinity>  (1) 
-4.54160309

>  <minimizedRMSD>  (1) 
2.10424376

$$$$
