
     RDKit          3D

 43 46  0  0  1  0  0  0  0  0999 V2000
   38.3110   27.4400   43.5910 C   0  0  0  0  0  0  0  0  0  0  0  0
   38.0200   26.6410   42.4790 C   0  0  0  0  0  0  0  0  0  0  0  0
   37.3730   27.1830   41.3810 C   0  0  0  0  0  0  0  0  0  0  0  0
   37.0610   28.4820   41.4640 N   0  0  0  0  0  0  0  0  0  0  0  0
   37.3330   29.2740   42.5250 C   0  0  0  0  0  0  0  0  0  0  0  0
   37.9530   28.7410   43.5720 N   0  0  0  0  0  0  0  0  0  0  0  0
   37.0540   26.4250   40.2350 N   0  0  0  0  0  0  0  0  0  0  0  0
   36.7000   25.0380   40.3430 C   0  0  0  0  0  0  0  0  0  0  0  0
   36.9700   24.2400   39.1000 C   0  0  0  0  0  0  0  0  0  0  0  0
   37.3290   25.0080   38.0000 O   0  0  0  0  0  0  0  0  0  0  0  0
   36.6120   26.1790   37.9090 C   0  0  0  0  0  0  0  0  0  0  0  0
   37.1000   27.1030   38.9690 C   0  0  1  0  0  0  0  0  0  0  0  0
   36.5090   28.3990   38.9370 N   0  0  0  0  0  0  0  0  0  0  0  0
   35.1170   28.5020   38.7680 C   0  0  0  0  0  0  0  0  0  0  0  0
   34.6950   29.1440   37.4470 C   0  0  0  0  0  0  0  0  0  0  0  0
   35.7310   29.0790   36.5110 O   0  0  0  0  0  0  0  0  0  0  0  0
   36.7230   29.9460   37.0140 C   0  0  0  0  0  0  0  0  0  0  0  0
   37.2620   29.4390   38.3290 C   0  0  2  0  0  0  0  0  0  0  0  0
   38.6700   29.1200   38.1930 N   0  0  0  0  0  0  0  0  0  0  0  0
   39.3550   28.5890   37.1480 C   0  0  0  0  0  0  0  0  0  0  0  0
   40.6930   28.4560   37.4630 C   0  0  0  0  0  0  0  0  0  0  0  0
   40.8240   28.9150   38.7220 N   0  0  0  0  0  0  0  0  0  0  0  0
   39.6190   29.3040   39.1390 C   0  0  0  0  0  0  0  0  0  0  0  0
   38.8233   27.0142   44.4663 H   0  0  0  0  0  0  0  0  0  0  0  0
   38.3062   25.5789   42.4773 H   0  0  0  0  0  0  0  0  0  0  0  0
   37.0473   30.3363   42.5216 H   0  0  0  0  0  0  0  0  0  0  0  0
   37.2770   24.5971   41.1692 H   0  0  0  0  0  0  0  0  0  0  0  0
   35.6144   24.9993   40.5164 H   0  0  0  0  0  0  0  0  0  0  0  0
   37.7886   23.5365   39.3121 H   0  0  0  0  0  0  0  0  0  0  0  0
   36.0300   23.7318   38.8389 H   0  0  0  0  0  0  0  0  0  0  0  0
   36.7643   26.6336   36.9190 H   0  0  0  0  0  0  0  0  0  0  0  0
   35.5383   25.9799   38.0414 H   0  0  0  0  0  0  0  0  0  0  0  0
   38.1529   27.3517   38.7699 H   0  0  0  0  0  0  0  0  0  0  0  0
   34.6877   27.4902   38.8131 H   0  0  0  0  0  0  0  0  0  0  0  0
   34.7474   29.1564   39.5712 H   0  0  0  0  0  0  0  0  0  0  0  0
   33.8174   28.6117   37.0513 H   0  0  0  0  0  0  0  0  0  0  0  0
   34.4509   30.2008   37.6304 H   0  0  0  0  0  0  0  0  0  0  0  0
   37.5467   30.0112   36.2879 H   0  0  0  0  0  0  0  0  0  0  0  0
   36.2752   30.9376   37.1756 H   0  0  0  0  0  0  0  0  0  0  0  0
   37.1499   30.2637   39.0483 H   0  0  0  0  0  0  0  0  0  0  0  0
   38.9067   28.3044   36.1847 H   0  0  0  0  0  0  0  0  0  0  0  0
   41.4890   28.0567   36.8173 H   0  0  0  0  0  0  0  0  0  0  0  0
   39.4199   29.7252   40.1355 H   0  0  0  0  0  0  0  0  0  0  0  0
  2  1  2  0
  3  4  2  0
  3  2  1  0
  4  5  1  0
  5  6  2  0
  6  1  1  0
  7  8  1  0
  7  3  1  0
  9  8  1  0
 10  9  1  0
 11 10  1  0
 11 12  1  0
 12  7  1  0
 13 14  1  0
 13 12  1  0
 15 14  1  0
 16 17  1  0
 16 15  1  0
 17 18  1  0
 18 13  1  0
 19 18  1  0
 19 23  1  0
 20 21  2  0
 20 19  1  0
 21 22  1  0
 22 23  2  0
  1 24  1  0
  2 25  1  0
  5 26  1  0
  8 27  1  0
  8 28  1  0
  9 29  1  0
  9 30  1  0
 11 31  1  0
 11 32  1  0
 12 33  1  6
 14 34  1  0
 14 35  1  0
 15 36  1  0
 15 37  1  0
 17 38  1  0
 17 39  1  0
 18 40  1  1
 20 41  1  0
 21 42  1  0
 23 43  1  0
M  ISO  8  24  14  25  14  26  14  27  13  28  13  29  13  30  13  31  13
M  ISO  8  32  13  33  13  34  13  35  13  36  13  37  13  38  13  39  13
M  ISO  4  40  13  41  14  42  14  43  14
M  END
>  <minimizedAffinity>  (1) 
-4.40873671

>  <minimizedRMSD>  (1) 
0.416635305

$$$$
