
     RDKit          3D

 39 41  0  0  1  0  0  0  0  0999 V2000
   38.2910   27.4910   43.5620 C   0  0  0  0  0  0  0  0  0  0  0  0
   38.0040   26.6630   42.4630 C   0  0  0  0  0  0  0  0  0  0  0  0
   37.3400   27.2080   41.3680 C   0  0  0  0  0  0  0  0  0  0  0  0
   37.0120   28.5020   41.4330 N   0  0  0  0  0  0  0  0  0  0  0  0
   37.2830   29.3040   42.4860 C   0  0  0  0  0  0  0  0  0  0  0  0
   37.9210   28.7850   43.5380 N   0  0  0  0  0  0  0  0  0  0  0  0
   37.0220   26.4180   40.2190 N   0  0  0  0  0  0  0  0  0  0  0  0
   36.6930   25.0220   40.3580 C   0  0  0  0  0  0  0  0  0  0  0  0
   37.0290   24.2340   39.1070 C   0  0  0  0  0  0  0  0  0  0  0  0
   37.3000   24.9950   37.9960 O   0  0  0  0  0  0  0  0  0  0  0  0
   36.5700   26.1480   37.9020 C   0  0  0  0  0  0  0  0  0  0  0  0
   37.0520   27.0870   38.9500 C   0  0  1  0  0  0  0  0  0  0  0  0
   36.4740   28.3810   38.8980 N   0  0  0  0  0  0  0  0  0  0  0  0
   35.0790   28.4540   38.6800 C   0  0  0  0  0  0  0  0  0  0  0  0
   34.6890   29.1240   37.3690 C   0  0  0  0  0  0  0  0  0  0  0  0
   35.7700   29.0850   36.4720 O   0  0  0  0  0  0  0  0  0  0  0  0
   36.6880   29.9790   37.0480 C   0  0  0  0  0  0  0  0  0  0  0  0
   37.2080   29.4520   38.3720 C   0  0  2  0  0  0  0  0  0  0  0  0
   38.6780   29.3050   38.1690 C   0  0  0  0  0  0  0  0  0  0  0  0
   39.0900   30.5960   37.7770 F   0  0  0  0  0  0  0  0  0  0  0  0
   39.0190   28.5640   37.0290 F   0  0  0  0  0  0  0  0  0  0  0  0
   39.4210   29.0170   39.2650 F   0  0  0  0  0  0  0  0  0  0  0  0
   38.8160   27.0831   44.4384 H   0  0  0  0  0  0  0  0  0  0  0  0
   38.2989   25.6033   42.4683 H   0  0  0  0  0  0  0  0  0  0  0  0
   36.9842   30.3626   42.4769 H   0  0  0  0  0  0  0  0  0  0  0  0
   37.2602   24.6056   41.2035 H   0  0  0  0  0  0  0  0  0  0  0  0
   35.6094   24.9429   40.5296 H   0  0  0  0  0  0  0  0  0  0  0  0
   37.9132   23.6155   39.3207 H   0  0  0  0  0  0  0  0  0  0  0  0
   36.1319   23.6454   38.8647 H   0  0  0  0  0  0  0  0  0  0  0  0
   36.7082   26.5967   36.9072 H   0  0  0  0  0  0  0  0  0  0  0  0
   35.5004   25.9344   38.0445 H   0  0  0  0  0  0  0  0  0  0  0  0
   38.1024   27.3454   38.7502 H   0  0  0  0  0  0  0  0  0  0  0  0
   34.6755   27.4307   38.6784 H   0  0  0  0  0  0  0  0  0  0  0  0
   34.6634   29.0731   39.4887 H   0  0  0  0  0  0  0  0  0  0  0  0
   33.8311   28.5940   36.9296 H   0  0  0  0  0  0  0  0  0  0  0  0
   34.4181   30.1721   37.5644 H   0  0  0  0  0  0  0  0  0  0  0  0
   37.5345   30.1177   36.3594 H   0  0  0  0  0  0  0  0  0  0  0  0
   36.1762   30.9355   37.2300 H   0  0  0  0  0  0  0  0  0  0  0  0
   37.0494   30.1392   39.2162 H   0  0  0  0  0  0  0  0  0  0  0  0
  2  1  2  0
  3  4  2  0
  3  2  1  0
  4  5  1  0
  5  6  2  0
  6  1  1  0
  7  8  1  0
  7  3  1  0
  9  8  1  0
 10  9  1  0
 11 10  1  0
 11 12  1  0
 12  7  1  0
 13 14  1  0
 13 12  1  0
 15 14  1  0
 16 17  1  0
 16 15  1  0
 17 18  1  0
 18 13  1  0
 19 18  1  0
 19 22  1  0
 20 19  1  0
 21 19  1  0
  1 23  1  0
  2 24  1  0
  5 25  1  0
  8 26  1  0
  8 27  1  0
  9 28  1  0
  9 29  1  0
 11 30  1  0
 11 31  1  0
 12 32  1  6
 14 33  1  0
 14 34  1  0
 15 35  1  0
 15 36  1  0
 17 37  1  0
 17 38  1  0
 18 39  1  1
M  ISO  8  23  14  24  14  25  14  26  13  27  13  28  13  29  13  30  13
M  ISO  8  31  13  32  13  33  13  34  13  35  13  36  13  37  13  38  13
M  ISO  1  39  13
M  END
>  <minimizedAffinity>  (1) 
-4.33859777

>  <minimizedRMSD>  (1) 
0.0798894837

$$$$
