
     RDKit          3D

 37 39  0  0  1  0  0  0  0  0999 V2000
   38.3220   27.4190   43.5960 C   0  0  0  0  0  0  0  0  0  0  0  0
   38.0290   26.6110   42.4780 C   0  0  0  0  0  0  0  0  0  0  0  0
   37.3690   27.1710   41.3960 C   0  0  0  0  0  0  0  0  0  0  0  0
   37.0490   28.4680   41.4890 N   0  0  0  0  0  0  0  0  0  0  0  0
   37.3190   29.2580   42.5480 C   0  0  0  0  0  0  0  0  0  0  0  0
   37.9550   28.7180   43.5910 N   0  0  0  0  0  0  0  0  0  0  0  0
   37.0490   26.4080   40.2440 N   0  0  0  0  0  0  0  0  0  0  0  0
   36.7090   25.0130   40.3550 C   0  0  0  0  0  0  0  0  0  0  0  0
   36.9510   24.2320   39.0930 C   0  0  0  0  0  0  0  0  0  0  0  0
   37.2810   25.0070   37.9920 O   0  0  0  0  0  0  0  0  0  0  0  0
   36.5800   26.1850   37.9240 C   0  0  0  0  0  0  0  0  0  0  0  0
   37.0800   27.0970   38.9790 C   0  0  1  0  0  0  0  0  0  0  0  0
   36.4680   28.3920   38.9660 N   0  0  0  0  0  0  0  0  0  0  0  0
   35.0870   28.4980   38.7330 C   0  0  0  0  0  0  0  0  0  0  0  0
   34.7410   29.1860   37.4060 C   0  0  0  0  0  0  0  0  0  0  0  0
   35.8330   29.1600   36.5290 O   0  0  0  0  0  0  0  0  0  0  0  0
   36.7940   30.0020   37.1140 C   0  0  0  0  0  0  0  0  0  0  0  0
   37.2460   29.4600   38.4380 C   0  0  2  0  0  0  0  0  0  0  0  0
   39.0080   29.1520   38.3640 S   0  0  0  0  0  0  0  0  0  0  0  0
   38.8454   26.9941   44.4652 H   0  0  0  0  0  0  0  0  0  0  0  0
   38.3205   25.5504   42.4651 H   0  0  0  0  0  0  0  0  0  0  0  0
   37.0237   30.3176   42.5527 H   0  0  0  0  0  0  0  0  0  0  0  0
   37.3148   24.5704   41.1594 H   0  0  0  0  0  0  0  0  0  0  0  0
   35.6307   24.9596   40.5655 H   0  0  0  0  0  0  0  0  0  0  0  0
   37.7759   23.5281   39.2774 H   0  0  0  0  0  0  0  0  0  0  0  0
   36.0033   23.7295   38.8493 H   0  0  0  0  0  0  0  0  0  0  0  0
   36.7263   26.6463   36.9362 H   0  0  0  0  0  0  0  0  0  0  0  0
   35.5074   25.9919   38.0731 H   0  0  0  0  0  0  0  0  0  0  0  0
   38.1298   27.3503   38.7697 H   0  0  0  0  0  0  0  0  0  0  0  0
   34.6570   27.4856   38.7227 H   0  0  0  0  0  0  0  0  0  0  0  0
   34.6699   29.1204   39.5384 H   0  0  0  0  0  0  0  0  0  0  0  0
   33.8926   28.6634   36.9401 H   0  0  0  0  0  0  0  0  0  0  0  0
   34.4808   30.2348   37.6117 H   0  0  0  0  0  0  0  0  0  0  0  0
   37.6612   30.0802   36.4419 H   0  0  0  0  0  0  0  0  0  0  0  0
   36.3423   30.9919   37.2753 H   0  0  0  0  0  0  0  0  0  0  0  0
   37.0586   30.2324   39.1985 H   0  0  0  0  0  0  0  0  0  0  0  0
   39.5100   29.0642   39.6357 H   0  0  0  0  0  0  0  0  0  0  0  0
  2  1  2  0
  3  4  2  0
  3  2  1  0
  4  5  1  0
  5  6  2  0
  6  1  1  0
  7  8  1  0
  7  3  1  0
  9  8  1  0
 10  9  1  0
 11 10  1  0
 11 12  1  0
 12  7  1  0
 13 14  1  0
 13 12  1  0
 15 14  1  0
 16 17  1  0
 16 15  1  0
 17 18  1  0
 18 13  1  0
 19 18  1  0
  1 20  1  0
  2 21  1  0
  5 22  1  0
  8 23  1  0
  8 24  1  0
  9 25  1  0
  9 26  1  0
 11 27  1  0
 11 28  1  0
 12 29  1  6
 14 30  1  0
 14 31  1  0
 15 32  1  0
 15 33  1  0
 17 34  1  0
 17 35  1  0
 18 36  1  1
 19 37  1  0
M  ISO  8  20  14  21  14  22  14  23  13  24  13  25  13  26  13  27  13
M  ISO  8  28  13  29  13  30  13  31  13  32  13  33  13  34  13  35  13
M  ISO  2  36  13  37  11
M  END
>  <minimizedAffinity>  (1) 
-4.13011074

>  <minimizedRMSD>  (1) 
0.0379088707

$$$$
