
     RDKit          3D

 37 39  0  0  1  0  0  0  0  0999 V2000
   38.2900   27.4340   43.6020 C   0  0  0  0  0  0  0  0  0  0  0  0
   38.0060   26.6240   42.4970 C   0  0  0  0  0  0  0  0  0  0  0  0
   37.3620   27.1720   41.3940 C   0  0  0  0  0  0  0  0  0  0  0  0
   37.0510   28.4780   41.4760 N   0  0  0  0  0  0  0  0  0  0  0  0
   37.3170   29.2730   42.5360 C   0  0  0  0  0  0  0  0  0  0  0  0
   37.9350   28.7350   43.5870 N   0  0  0  0  0  0  0  0  0  0  0  0
   37.0440   26.4110   40.2400 N   0  0  0  0  0  0  0  0  0  0  0  0
   36.7130   25.0130   40.3550 C   0  0  0  0  0  0  0  0  0  0  0  0
   36.9630   24.2270   39.0970 C   0  0  0  0  0  0  0  0  0  0  0  0
   37.3050   25.0040   38.0100 O   0  0  0  0  0  0  0  0  0  0  0  0
   36.6000   26.1760   37.9230 C   0  0  0  0  0  0  0  0  0  0  0  0
   37.0730   27.1060   38.9870 C   0  0  1  0  0  0  0  0  0  0  0  0
   36.4480   28.3960   38.9700 N   0  0  0  0  0  0  0  0  0  0  0  0
   35.0770   28.4740   38.6980 C   0  0  0  0  0  0  0  0  0  0  0  0
   34.7520   29.1890   37.3780 C   0  0  0  0  0  0  0  0  0  0  0  0
   35.8620   29.1710   36.5220 O   0  0  0  0  0  0  0  0  0  0  0  0
   36.7970   30.0190   37.1330 C   0  0  0  0  0  0  0  0  0  0  0  0
   37.2560   29.4390   38.4450 C   0  0  2  0  0  0  0  0  0  0  0  0
   38.5970   29.0800   38.2550 O   0  0  0  0  0  0  0  0  0  0  0  0
   38.8009   27.0112   44.4796 H   0  0  0  0  0  0  0  0  0  0  0  0
   38.2903   25.5614   42.5012 H   0  0  0  0  0  0  0  0  0  0  0  0
   37.0312   30.3352   42.5314 H   0  0  0  0  0  0  0  0  0  0  0  0
   37.3197   24.5778   41.1628 H   0  0  0  0  0  0  0  0  0  0  0  0
   35.6343   24.9540   40.5619 H   0  0  0  0  0  0  0  0  0  0  0  0
   37.7831   23.5193   39.2883 H   0  0  0  0  0  0  0  0  0  0  0  0
   36.0191   23.7222   38.8436 H   0  0  0  0  0  0  0  0  0  0  0  0
   36.7628   26.6320   36.9353 H   0  0  0  0  0  0  0  0  0  0  0  0
   35.5266   25.9750   38.0549 H   0  0  0  0  0  0  0  0  0  0  0  0
   38.1171   27.3883   38.7866 H   0  0  0  0  0  0  0  0  0  0  0  0
   34.6735   27.4519   38.6484 H   0  0  0  0  0  0  0  0  0  0  0  0
   34.6208   29.0649   39.5059 H   0  0  0  0  0  0  0  0  0  0  0  0
   33.9093   28.6790   36.8883 H   0  0  0  0  0  0  0  0  0  0  0  0
   34.4886   30.2345   37.5960 H   0  0  0  0  0  0  0  0  0  0  0  0
   37.6645   30.1407   36.4677 H   0  0  0  0  0  0  0  0  0  0  0  0
   36.3238   30.9941   37.3209 H   0  0  0  0  0  0  0  0  0  0  0  0
   37.1522   30.1936   39.2386 H   0  0  0  0  0  0  0  0  0  0  0  0
   39.0351   28.9627   39.1350 H   0  0  0  0  0  0  0  0  0  0  0  0
  2  1  2  0
  3  4  2  0
  3  2  1  0
  4  5  1  0
  5  6  2  0
  6  1  1  0
  7  8  1  0
  7  3  1  0
  9  8  1  0
 10  9  1  0
 11 10  1  0
 11 12  1  0
 12  7  1  0
 13 14  1  0
 13 12  1  0
 15 14  1  0
 16 17  1  0
 16 15  1  0
 17 18  1  0
 18 13  1  0
 19 18  1  0
  1 20  1  0
  2 21  1  0
  5 22  1  0
  8 23  1  0
  8 24  1  0
  9 25  1  0
  9 26  1  0
 11 27  1  0
 11 28  1  0
 12 29  1  6
 14 30  1  0
 14 31  1  0
 15 32  1  0
 15 33  1  0
 17 34  1  0
 17 35  1  0
 18 36  1  1
 19 37  1  0
M  ISO  8  20  14  21  14  22  14  23  13  24  13  25  13  26  13  27  13
M  ISO  8  28  13  29  13  30  13  31  13  32  13  33  13  34  13  35  13
M  ISO  2  36  13  37   3
M  END
>  <minimizedAffinity>  (1) 
-4.12241077

>  <minimizedRMSD>  (1) 
0.0501026772

$$$$
