
     RDKit          3D

 42 44  0  0  1  0  0  0  0  0999 V2000
   38.3360   27.4170   43.6060 C   0  0  0  0  0  0  0  0  0  0  0  0
   38.0480   26.6270   42.4920 C   0  0  0  0  0  0  0  0  0  0  0  0
   37.3670   27.1680   41.4060 C   0  0  0  0  0  0  0  0  0  0  0  0
   37.0180   28.4570   41.5030 N   0  0  0  0  0  0  0  0  0  0  0  0
   37.2860   29.2400   42.5710 C   0  0  0  0  0  0  0  0  0  0  0  0
   37.9420   28.7090   43.6100 N   0  0  0  0  0  0  0  0  0  0  0  0
   37.0510   26.4090   40.2590 N   0  0  0  0  0  0  0  0  0  0  0  0
   36.7160   25.0170   40.3650 C   0  0  0  0  0  0  0  0  0  0  0  0
   37.0050   24.2370   39.0990 C   0  0  0  0  0  0  0  0  0  0  0  0
   37.3290   25.0130   38.0080 O   0  0  0  0  0  0  0  0  0  0  0  0
   36.5990   26.1770   37.9310 C   0  0  0  0  0  0  0  0  0  0  0  0
   37.0870   27.0990   38.9860 C   0  0  1  0  0  0  0  0  0  0  0  0
   36.5010   28.3860   38.9620 N   0  0  0  0  0  0  0  0  0  0  0  0
   35.1020   28.4740   38.7030 C   0  0  0  0  0  0  0  0  0  0  0  0
   34.7630   29.1860   37.3990 C   0  0  0  0  0  0  0  0  0  0  0  0
   35.8520   29.1640   36.5370 O   0  0  0  0  0  0  0  0  0  0  0  0
   36.7980   30.0120   37.1370 C   0  0  0  0  0  0  0  0  0  0  0  0
   37.2350   29.4810   38.4920 C   0  0  2  0  0  0  0  0  0  0  0  0
   38.7210   29.3870   38.4620 C   0  0  0  0  0  0  0  0  0  0  0  0
   39.2780   30.6580   37.8500 C   0  0  0  0  0  0  0  0  0  0  0  0
   38.8751   26.9943   44.4667 H   0  0  0  0  0  0  0  0  0  0  0  0
   38.3606   25.5725   42.4725 H   0  0  0  0  0  0  0  0  0  0  0  0
   36.9711   30.2938   42.5864 H   0  0  0  0  0  0  0  0  0  0  0  0
   37.3001   24.5782   41.1873 H   0  0  0  0  0  0  0  0  0  0  0  0
   35.6333   24.9538   40.5486 H   0  0  0  0  0  0  0  0  0  0  0  0
   37.8470   23.5580   39.2992 H   0  0  0  0  0  0  0  0  0  0  0  0
   36.0759   23.7081   38.8401 H   0  0  0  0  0  0  0  0  0  0  0  0
   36.7353   26.6376   36.9414 H   0  0  0  0  0  0  0  0  0  0  0  0
   35.5292   25.9656   38.0753 H   0  0  0  0  0  0  0  0  0  0  0  0
   38.1366   27.3557   38.7799 H   0  0  0  0  0  0  0  0  0  0  0  0
   34.6925   27.4541   38.6582 H   0  0  0  0  0  0  0  0  0  0  0  0
   34.6616   29.0683   39.5171 H   0  0  0  0  0  0  0  0  0  0  0  0
   33.9118   28.6796   36.9204 H   0  0  0  0  0  0  0  0  0  0  0  0
   34.5050   30.2321   37.6207 H   0  0  0  0  0  0  0  0  0  0  0  0
   37.6779   30.0880   36.4812 H   0  0  0  0  0  0  0  0  0  0  0  0
   36.3354   30.9992   37.2838 H   0  0  0  0  0  0  0  0  0  0  0  0
   36.9739   30.1783   39.3017 H   0  0  0  0  0  0  0  0  0  0  0  0
   39.1050   29.2705   39.4862 H   0  0  0  0  0  0  0  0  0  0  0  0
   39.0288   28.5173   37.8630 H   0  0  0  0  0  0  0  0  0  0  0  0
   39.5806   31.3486   38.6510 H   0  0  0  0  0  0  0  0  0  0  0  0
   40.1513   30.4131   37.2276 H   0  0  0  0  0  0  0  0  0  0  0  0
   38.5061   31.1341   37.2276 H   0  0  0  0  0  0  0  0  0  0  0  0
  1  6  2  0
  2  1  1  0
  3  4  1  0
  3  2  2  0
  4  5  2  0
  5  6  1  0
  7  8  1  0
  7  3  1  0
  9  8  1  0
 10  9  1  0
 11 10  1  0
 11 12  1  0
 12  7  1  0
 13 14  1  0
 13 12  1  0
 15 14  1  0
 16 17  1  0
 16 15  1  0
 17 18  1  0
 18 13  1  0
 19 18  1  0
 20 19  1  0
  1 21  1  0
  2 22  1  0
  5 23  1  0
  8 24  1  0
  8 25  1  0
  9 26  1  0
  9 27  1  0
 11 28  1  0
 11 29  1  0
 12 30  1  6
 14 31  1  0
 14 32  1  0
 15 33  1  0
 15 34  1  0
 17 35  1  0
 17 36  1  0
 18 37  1  1
 19 38  1  0
 19 39  1  0
 20 40  1  0
 20 41  1  0
 20 42  1  0
M  ISO  8  21  14  22  14  23  14  24  13  25  13  26  13  27  13  28  13
M  ISO  8  29  13  30  13  31  13  32  13  33  13  34  13  35  13  36  13
M  ISO  6  37  13  38   8  39   8  40   8  41   8  42   8
M  END
>  <minimizedAffinity>  (1) 
-4.10470915

>  <minimizedRMSD>  (1) 
0.131072074

$$$$
