
     RDKit          3D

 38 40  0  0  1  0  0  0  0  0999 V2000
   38.3140   27.4280   43.5880 C   0  0  0  0  0  0  0  0  0  0  0  0
   38.0230   26.6120   42.4820 C   0  0  0  0  0  0  0  0  0  0  0  0
   37.3610   27.1680   41.3900 C   0  0  0  0  0  0  0  0  0  0  0  0
   37.0450   28.4680   41.4810 N   0  0  0  0  0  0  0  0  0  0  0  0
   37.3190   29.2600   42.5360 C   0  0  0  0  0  0  0  0  0  0  0  0
   37.9540   28.7210   43.5800 N   0  0  0  0  0  0  0  0  0  0  0  0
   37.0350   26.3980   40.2360 N   0  0  0  0  0  0  0  0  0  0  0  0
   36.6940   25.0100   40.3540 C   0  0  0  0  0  0  0  0  0  0  0  0
   36.9750   24.2310   39.0860 C   0  0  0  0  0  0  0  0  0  0  0  0
   37.2930   24.9960   37.9910 O   0  0  0  0  0  0  0  0  0  0  0  0
   36.5730   26.1660   37.9140 C   0  0  0  0  0  0  0  0  0  0  0  0
   37.0690   27.0920   38.9770 C   0  0  1  0  0  0  0  0  0  0  0  0
   36.4620   28.3870   38.9700 N   0  0  0  0  0  0  0  0  0  0  0  0
   35.0880   28.4770   38.7090 C   0  0  0  0  0  0  0  0  0  0  0  0
   34.7280   29.1680   37.3990 C   0  0  0  0  0  0  0  0  0  0  0  0
   35.8250   29.1570   36.5250 O   0  0  0  0  0  0  0  0  0  0  0  0
   36.7720   30.0050   37.1130 C   0  0  0  0  0  0  0  0  0  0  0  0
   37.2500   29.4430   38.4330 C   0  0  2  0  0  0  0  0  0  0  0  0
   38.6750   29.1240   38.2770 C   0  0  0  0  0  0  0  0  0  0  0  0
   39.4620   29.1710   37.3640 O   0  0  0  0  0  0  0  0  0  0  0  0
   38.8365   27.0075   44.4599 H   0  0  0  0  0  0  0  0  0  0  0  0
   38.3133   25.5510   42.4785 H   0  0  0  0  0  0  0  0  0  0  0  0
   37.0279   30.3208   42.5374 H   0  0  0  0  0  0  0  0  0  0  0  0
   37.2813   24.5715   41.1742 H   0  0  0  0  0  0  0  0  0  0  0  0
   35.6134   24.9481   40.5503 H   0  0  0  0  0  0  0  0  0  0  0  0
   37.8172   23.5514   39.2831 H   0  0  0  0  0  0  0  0  0  0  0  0
   36.0404   23.7086   38.8338 H   0  0  0  0  0  0  0  0  0  0  0  0
   36.7144   26.6255   36.9246 H   0  0  0  0  0  0  0  0  0  0  0  0
   35.5017   25.9623   38.0580 H   0  0  0  0  0  0  0  0  0  0  0  0
   38.1153   27.3560   38.7633 H   0  0  0  0  0  0  0  0  0  0  0  0
   34.6778   27.4567   38.6812 H   0  0  0  0  0  0  0  0  0  0  0  0
   34.6611   29.0959   39.5120 H   0  0  0  0  0  0  0  0  0  0  0  0
   33.8850   28.6396   36.9298 H   0  0  0  0  0  0  0  0  0  0  0  0
   34.4490   30.2110   37.6097 H   0  0  0  0  0  0  0  0  0  0  0  0
   37.6310   30.1119   36.4343 H   0  0  0  0  0  0  0  0  0  0  0  0
   36.3039   30.9836   37.2953 H   0  0  0  0  0  0  0  0  0  0  0  0
   37.1196   30.2062   39.2143 H   0  0  0  0  0  0  0  0  0  0  0  0
   39.1303   28.7571   39.2087 H   0  0  0  0  0  0  0  0  0  0  0  0
  2  1  2  0
  3  4  2  0
  3  2  1  0
  4  5  1  0
  5  6  2  0
  6  1  1  0
  7  8  1  0
  7  3  1  0
  9  8  1  0
 10  9  1  0
 11 10  1  0
 11 12  1  0
 12  7  1  0
 13 14  1  0
 13 12  1  0
 15 14  1  0
 16 17  1  0
 16 15  1  0
 17 18  1  0
 18 13  1  0
 19 18  1  0
 20 19  2  0
  1 21  1  0
  2 22  1  0
  5 23  1  0
  8 24  1  0
  8 25  1  0
  9 26  1  0
  9 27  1  0
 11 28  1  0
 11 29  1  0
 12 30  1  6
 14 31  1  0
 14 32  1  0
 15 33  1  0
 15 34  1  0
 17 35  1  0
 17 36  1  0
 18 37  1  1
 19 38  1  0
M  ISO  8  21  14  22  14  23  14  24  13  25  13  26  13  27  13  28  13
M  ISO  8  29  13  30  13  31  13  32  13  33  13  34  13  35  13  36  13
M  ISO  2  37  13  38   6
M  END
>  <minimizedAffinity>  (1) 
-4.05384016

>  <minimizedRMSD>  (1) 
0.178852931

$$$$
