
     RDKit          3D

 36 38  0  0  1  0  0  0  0  0999 V2000
   39.7660   31.3240   39.8340 C   0  0  0  0  0  0  0  0  0  0  0  0
   39.3520   30.2510   40.6670 C   0  0  0  0  0  0  0  0  0  0  0  0
   38.0810   30.3110   41.1850 C   0  0  0  0  0  0  0  0  0  0  0  0
   37.2760   31.3780   40.8850 N   0  0  0  0  0  0  0  0  0  0  0  0
   37.7110   32.3780   40.0870 C   0  0  0  0  0  0  0  0  0  0  0  0
   38.9530   32.3610   39.5570 N   0  0  0  0  0  0  0  0  0  0  0  0
   36.8280   33.4700   39.8090 N   0  0  0  0  0  0  0  0  0  0  0  0
   37.5680   29.2840   42.0290 N   0  0  0  0  0  0  0  0  0  0  0  0
   38.2390   28.9950   43.2750 C   0  0  0  0  0  0  0  0  0  0  0  0
   37.2130   28.3030   44.1740 C   0  0  0  0  0  0  0  0  0  0  0  0
   36.6370   27.1320   43.5990 N   0  0  0  0  0  0  0  0  0  0  0  0
   36.5650   27.1120   42.1800 C   0  0  0  0  0  0  0  0  0  0  0  0
   36.4010   28.5410   41.6630 C   0  0  2  0  0  0  0  0  0  0  0  0
   36.0590   28.5540   40.2350 C   0  0  0  0  0  0  0  0  0  0  0  0
   36.8730   27.9070   39.2940 C   0  0  0  0  0  0  0  0  0  0  0  0
   36.6390   27.8700   37.9470 C   0  0  0  0  0  0  0  0  0  0  0  0
   35.5340   28.5040   37.4490 C   0  0  0  0  0  0  0  0  0  0  0  0
   34.6900   29.1600   38.3140 C   0  0  0  0  0  0  0  0  0  0  0  0
   34.9670   29.1700   39.6620 C   0  0  0  0  0  0  0  0  0  0  0  0
   40.7781   31.3076   39.4034 H   0  0  0  0  0  0  0  0  0  0  0  0
   40.0214   29.4066   40.8884 H   0  0  0  0  0  0  0  0  0  0  0  0
   37.1393   34.2427   39.2032 H   0  0  0  0  0  0  0  0  0  0  0  0
   35.8814   33.4830   40.2147 H   0  0  0  0  0  0  0  0  0  0  0  0
   39.0979   28.3309   43.0983 H   0  0  0  0  0  0  0  0  0  0  0  0
   38.6199   29.9148   43.7429 H   0  0  0  0  0  0  0  0  0  0  0  0
   37.7110   28.0188   45.1127 H   0  0  0  0  0  0  0  0  0  0  0  0
   36.3922   29.0183   44.3309 H   0  0  0  0  0  0  0  0  0  0  0  0
   37.1999   26.3231   43.8984 H   0  0  0  0  0  0  0  0  0  0  0  0
   37.4889   26.6770   41.7712 H   0  0  0  0  0  0  0  0  0  0  0  0
   35.7048   26.5041   41.8629 H   0  0  0  0  0  0  0  0  0  0  0  0
   35.5443   29.0462   42.1330 H   0  0  0  0  0  0  0  0  0  0  0  0
   37.7686   27.3894   39.6681 H   0  0  0  0  0  0  0  0  0  0  0  0
   37.3286   27.3387   37.2746 H   0  0  0  0  0  0  0  0  0  0  0  0
   35.3231   28.4893   36.3695 H   0  0  0  0  0  0  0  0  0  0  0  0
   33.7969   29.6748   37.9300 H   0  0  0  0  0  0  0  0  0  0  0  0
   34.2715   29.7046   40.3257 H   0  0  0  0  0  0  0  0  0  0  0  0
  1  2  2  0
  2  3  1  0
  3  8  1  0
  4  3  2  0
  5  4  1  0
  6  1  1  0
  6  5  2  0
  7  5  1  0
  8  9  1  0
  9 10  1  0
 11 10  1  0
 12 11  1  0
 13  8  1  0
 13 12  1  0
 14 13  1  0
 15 14  2  0
 16 15  1  0
 17 16  2  0
 17 18  1  0
 18 19  2  0
 19 14  1  0
  1 20  1  0
  2 21  1  0
  7 22  1  0
  7 23  1  0
  9 24  1  0
  9 25  1  0
 10 26  1  0
 10 27  1  0
 11 28  1  0
 12 29  1  0
 12 30  1  0
 13 31  1  1
 15 32  1  0
 16 33  1  0
 17 34  1  0
 18 35  1  0
 19 36  1  0
M  ISO  8  20  14  21  14  24  13  25  13  26  13  27  13  28   5  29  13
M  ISO  7  30  13  31  13  32  14  33  14  34  14  35  14  36  14
M  END
>  <minimizedAffinity>  (1) 
-5.62486839

>  <minimizedRMSD>  (1) 
1.68371463

$$$$
