
     RDKit          3D

 36 38  0  0  1  0  0  0  0  0999 V2000
   39.7830   31.5670   39.6170 C   0  0  0  0  0  0  0  0  0  0  0  0
   39.3870   30.4920   40.4430 C   0  0  0  0  0  0  0  0  0  0  0  0
   38.1380   30.5230   41.0150 C   0  0  0  0  0  0  0  0  0  0  0  0
   37.3270   31.5960   40.7580 N   0  0  0  0  0  0  0  0  0  0  0  0
   37.7260   32.6130   39.9640 C   0  0  0  0  0  0  0  0  0  0  0  0
   38.9420   32.6100   39.3930 N   0  0  0  0  0  0  0  0  0  0  0  0
   36.8410   33.7030   39.7370 N   0  0  0  0  0  0  0  0  0  0  0  0
   37.6610   29.4830   41.8560 N   0  0  0  0  0  0  0  0  0  0  0  0
   38.3810   29.1780   43.0680 C   0  0  0  0  0  0  0  0  0  0  0  0
   37.3910   28.4480   43.9820 C   0  0  0  0  0  0  0  0  0  0  0  0
   36.8980   27.2490   43.3900 N   0  0  0  0  0  0  0  0  0  0  0  0
   36.6480   27.3090   42.0000 C   0  0  0  0  0  0  0  0  0  0  0  0
   36.4790   28.7440   41.5140 C   0  0  2  0  0  0  0  0  0  0  0  0
   36.2920   28.6270   40.0420 C   0  0  0  0  0  0  0  0  0  0  0  0
   37.1200   27.9660   39.1610 C   0  0  0  0  0  0  0  0  0  0  0  0
   36.8900   27.9010   37.8200 C   0  0  0  0  0  0  0  0  0  0  0  0
   35.7870   28.5130   37.2610 C   0  0  0  0  0  0  0  0  0  0  0  0
   34.9110   29.1940   38.0690 C   0  0  0  0  0  0  0  0  0  0  0  0
   35.1900   29.2280   39.4190 C   0  0  0  0  0  0  0  0  0  0  0  0
   40.7797   31.5596   39.1517 H   0  0  0  0  0  0  0  0  0  0  0  0
   40.0658   29.6457   40.6250 H   0  0  0  0  0  0  0  0  0  0  0  0
   37.1319   34.4855   39.1337 H   0  0  0  0  0  0  0  0  0  0  0  0
   35.9092   33.7098   40.1759 H   0  0  0  0  0  0  0  0  0  0  0  0
   39.2433   28.5319   42.8468 H   0  0  0  0  0  0  0  0  0  0  0  0
   38.7679   30.0908   43.5445 H   0  0  0  0  0  0  0  0  0  0  0  0
   37.8986   28.1954   44.9246 H   0  0  0  0  0  0  0  0  0  0  0  0
   36.5349   29.1164   44.1561 H   0  0  0  0  0  0  0  0  0  0  0  0
   37.5922   26.5061   43.5548 H   0  0  0  0  0  0  0  0  0  0  0  0
   37.4935   26.8501   41.4665 H   0  0  0  0  0  0  0  0  0  0  0  0
   35.7114   26.7684   41.7985 H   0  0  0  0  0  0  0  0  0  0  0  0
   35.6291   29.2748   41.9679 H   0  0  0  0  0  0  0  0  0  0  0  0
   38.0134   27.4646   39.5616 H   0  0  0  0  0  0  0  0  0  0  0  0
   37.5926   27.3536   37.1745 H   0  0  0  0  0  0  0  0  0  0  0  0
   35.6111   28.4556   36.1767 H   0  0  0  0  0  0  0  0  0  0  0  0
   34.0218   29.6928   37.6561 H   0  0  0  0  0  0  0  0  0  0  0  0
   34.4858   29.7748   40.0633 H   0  0  0  0  0  0  0  0  0  0  0  0
  1  2  2  0
  2  3  1  0
  3  8  1  0
  4  3  2  0
  5  4  1  0
  6  1  1  0
  6  5  2  0
  7  5  1  0
  8  9  1  0
  9 10  1  0
 11 10  1  0
 12 11  1  0
 13  8  1  0
 13 12  1  0
 14 13  1  0
 15 14  2  0
 16 15  1  0
 17 16  2  0
 17 18  1  0
 18 19  2  0
 19 14  1  0
  1 20  1  0
  2 21  1  0
  7 22  1  0
  7 23  1  0
  9 24  1  0
  9 25  1  0
 10 26  1  0
 10 27  1  0
 11 28  1  0
 12 29  1  0
 12 30  1  0
 13 31  1  1
 15 32  1  0
 16 33  1  0
 17 34  1  0
 18 35  1  0
 19 36  1  0
M  ISO  8  20  14  21  14  24  13  25  13  26  13  27  13  28   5  29  13
M  ISO  7  30  13  31  13  32  14  33  14  34  14  35  14  36  14
M  END
>  <minimizedAffinity>  (1) 
-5.57974434

>  <minimizedRMSD>  (1) 
1.86495066

$$$$
