
     RDKit          3D

 39 41  0  0  1  0  0  0  0  0999 V2000
   36.9810   29.8150   41.9380 C   0  0  2  0  0  0  0  0  0  0  0  0
   38.1000   29.3980   42.8120 C   0  0  0  0  0  0  0  0  0  0  0  0
   37.7630   28.2700   43.7450 C   0  0  0  0  0  0  0  0  0  0  0  0
   36.6800   27.3690   43.2750 C   0  0  0  0  0  0  0  0  0  0  0  0
   36.6210   27.3540   41.7720 C   0  0  0  0  0  0  0  0  0  0  0  0
   36.2450   28.6970   41.2390 C   0  0  2  0  0  0  0  0  0  0  0  0
   37.4760   30.8010   40.9620 C   0  0  0  0  0  0  0  0  0  0  0  0
   38.8440   30.7280   40.6780 C   0  0  0  0  0  0  0  0  0  0  0  0
   39.4090   31.6230   39.7650 C   0  0  0  0  0  0  0  0  0  0  0  0
   38.5570   32.5380   39.1950 N   0  0  0  0  0  0  0  0  0  0  0  0
   37.2500   32.5870   39.4830 C   0  0  0  0  0  0  0  0  0  0  0  0
   36.7050   31.7200   40.3670 N   0  0  0  0  0  0  0  0  0  0  0  0
   36.1150   28.8990   36.9480 C   0  0  0  0  0  0  0  0  0  0  0  0
   35.0140   29.2510   37.7030 C   0  0  0  0  0  0  0  0  0  0  0  0
   35.1130   29.1700   39.0990 C   0  0  0  0  0  0  0  0  0  0  0  0
   36.2690   28.7500   39.7720 C   0  0  0  0  0  0  0  0  0  0  0  0
   37.3110   28.4200   38.9300 C   0  0  0  0  0  0  0  0  0  0  0  0
   37.2620   28.4830   37.5720 C   0  0  0  0  0  0  0  0  0  0  0  0
   36.0090   28.9940   35.2090 S   0  0  0  0  0  0  0  0  0  0  0  0
   34.6030   28.6860   34.7570 O   0  0  0  0  0  0  0  0  0  0  0  0
   36.3850   30.3450   34.6770 O   0  0  0  0  0  0  0  0  0  0  0  0
   36.2259   30.2554   42.6058 H   0  0  0  0  0  0  0  0  0  0  0  0
   38.9369   29.0794   42.1732 H   0  0  0  0  0  0  0  0  0  0  0  0
   38.3510   30.2650   43.4407 H   0  0  0  0  0  0  0  0  0  0  0  0
   38.6703   27.6655   43.8913 H   0  0  0  0  0  0  0  0  0  0  0  0
   37.3949   28.7363   44.6708 H   0  0  0  0  0  0  0  0  0  0  0  0
   36.8738   26.3495   43.6397 H   0  0  0  0  0  0  0  0  0  0  0  0
   35.7188   27.7354   43.6647 H   0  0  0  0  0  0  0  0  0  0  0  0
   37.6079   27.0730   41.3758 H   0  0  0  0  0  0  0  0  0  0  0  0
   35.8587   26.6258   41.4580 H   0  0  0  0  0  0  0  0  0  0  0  0
   35.1879   28.8691   41.4899 H   0  0  0  0  0  0  0  0  0  0  0  0
   39.4714   29.9705   41.1705 H   0  0  0  0  0  0  0  0  0  0  0  0
   40.4801   31.5962   39.5158 H   0  0  0  0  0  0  0  0  0  0  0  0
   36.6131   33.3399   38.9958 H   0  0  0  0  0  0  0  0  0  0  0  0
   34.0834   29.5862   37.2217 H   0  0  0  0  0  0  0  0  0  0  0  0
   34.2354   29.4515   39.6995 H   0  0  0  0  0  0  0  0  0  0  0  0
   38.2506   28.0810   39.3907 H   0  0  0  0  0  0  0  0  0  0  0  0
   38.1420   28.2004   36.9755 H   0  0  0  0  0  0  0  0  0  0  0  0
   36.8979   28.0741   34.7186 H   0  0  0  0  0  0  0  0  0  0  0  0
  1  2  1  0
  2  3  1  0
  4  3  1  0
  5  4  1  0
  6  5  1  0
  6  1  1  0
  7  1  1  0
  8  7  2  0
  9  8  1  0
 10 11  1  0
 10  9  2  0
 11 12  2  0
 12  7  1  0
 13 18  2  0
 13 14  1  0
 14 15  2  0
 15 16  1  0
 16  6  1  0
 17 16  2  0
 18 17  1  0
 19 13  1  0
 20 19  2  0
 21 19  2  0
  1 22  1  1
  2 23  1  0
  2 24  1  0
  3 25  1  0
  3 26  1  0
  4 27  1  0
  4 28  1  0
  5 29  1  0
  5 30  1  0
  6 31  1  1
  8 32  1  0
  9 33  1  0
 11 34  1  0
 14 35  1  0
 15 36  1  0
 17 37  1  0
 18 38  1  0
 19 39  1  0
M  ISO  8  22  13  23  13  24  13  25  13  26  13  27  13  28  13  29  13
M  ISO  8  30  13  31  13  32  14  33  14  34  14  35  14  36  14  37  14
M  ISO  2  38  14  39  11
M  END
>  <minimizedAffinity>  (1) 
-5.51641512

>  <minimizedRMSD>  (1) 
0.975546241

$$$$
