
     RDKit          3D

 36 38  0  0  1  0  0  0  0  0999 V2000
   37.0220   29.8380   41.7560 C   0  0  2  0  0  0  0  0  0  0  0  0
   38.2420   29.5220   42.5240 C   0  0  0  0  0  0  0  0  0  0  0  0
   37.9930   28.6720   43.7390 C   0  0  0  0  0  0  0  0  0  0  0  0
   36.8800   27.7020   43.6220 C   0  0  0  0  0  0  0  0  0  0  0  0
   36.5110   27.4280   42.1920 C   0  0  0  0  0  0  0  0  0  0  0  0
   36.0840   28.6860   41.5000 C   0  0  2  0  0  0  0  0  0  0  0  0
   37.4010   30.4960   40.4890 C   0  0  0  0  0  0  0  0  0  0  0  0
   38.5730   30.0160   39.8960 C   0  0  0  0  0  0  0  0  0  0  0  0
   39.0170   30.5780   38.6930 C   0  0  0  0  0  0  0  0  0  0  0  0
   38.2520   31.5850   38.1650 N   0  0  0  0  0  0  0  0  0  0  0  0
   37.1280   32.0280   38.7550 C   0  0  0  0  0  0  0  0  0  0  0  0
   36.7000   31.4850   39.9160 N   0  0  0  0  0  0  0  0  0  0  0  0
   35.6960   28.4780   40.1060 C   0  0  0  0  0  0  0  0  0  0  0  0
   34.5210   29.0840   39.6410 C   0  0  0  0  0  0  0  0  0  0  0  0
   34.0380   28.9540   38.3330 C   0  0  0  0  0  0  0  0  0  0  0  0
   34.7610   28.1830   37.4500 C   0  0  0  0  0  0  0  0  0  0  0  0
   35.9160   27.5690   37.8550 C   0  0  0  0  0  0  0  0  0  0  0  0
   36.3460   27.7280   39.1480 C   0  0  0  0  0  0  0  0  0  0  0  0
   36.4379   30.5132   42.3986 H   0  0  0  0  0  0  0  0  0  0  0  0
   38.9385   28.9857   41.8628 H   0  0  0  0  0  0  0  0  0  0  0  0
   38.6514   30.4784   42.8814 H   0  0  0  0  0  0  0  0  0  0  0  0
   38.9130   28.1079   43.9522 H   0  0  0  0  0  0  0  0  0  0  0  0
   37.7036   29.3681   44.5401 H   0  0  0  0  0  0  0  0  0  0  0  0
   37.1829   26.7570   44.0965 H   0  0  0  0  0  0  0  0  0  0  0  0
   36.0005   28.1372   44.1192 H   0  0  0  0  0  0  0  0  0  0  0  0
   37.3827   27.0075   41.6693 H   0  0  0  0  0  0  0  0  0  0  0  0
   35.6729   26.7158   42.1755 H   0  0  0  0  0  0  0  0  0  0  0  0
   35.1430   29.0055   41.9717 H   0  0  0  0  0  0  0  0  0  0  0  0
   39.1417   29.2031   40.3711 H   0  0  0  0  0  0  0  0  0  0  0  0
   39.9342   30.2286   38.1964 H   0  0  0  0  0  0  0  0  0  0  0  0
   36.5514   32.8401   38.2882 H   0  0  0  0  0  0  0  0  0  0  0  0
   33.9430   29.6992   40.3463 H   0  0  0  0  0  0  0  0  0  0  0  0
   33.1089   29.4528   38.0201 H   0  0  0  0  0  0  0  0  0  0  0  0
   34.4091   28.0599   36.4151 H   0  0  0  0  0  0  0  0  0  0  0  0
   36.4940   26.9537   37.1498 H   0  0  0  0  0  0  0  0  0  0  0  0
   37.2766   27.2206   39.4421 H   0  0  0  0  0  0  0  0  0  0  0  0
  1  2  1  0
  2  3  1  0
  4  3  1  0
  5  4  1  0
  6  1  1  0
  6  5  1  0
  7  1  1  0
  8  7  2  0
  9  8  1  0
 10  9  2  0
 10 11  1  0
 11 12  2  0
 12  7  1  0
 13  6  1  0
 14 13  2  0
 15 14  1  0
 16 17  1  0
 16 15  2  0
 17 18  2  0
 18 13  1  0
  1 19  1  1
  2 20  1  0
  2 21  1  0
  3 22  1  0
  3 23  1  0
  4 24  1  0
  4 25  1  0
  5 26  1  0
  5 27  1  0
  6 28  1  1
  8 29  1  0
  9 30  1  0
 11 31  1  0
 14 32  1  0
 15 33  1  0
 16 34  1  0
 17 35  1  0
 18 36  1  0
M  ISO  8  19  13  20  13  21  13  22  13  23  13  24  13  25  13  26  13
M  ISO  8  27  13  28  13  29  14  30  14  31  14  32  14  33  14  34  14
M  ISO  2  35  14  36  14
M  END
>  <minimizedAffinity>  (1) 
-5.38930273

>  <minimizedRMSD>  (1) 
1.41703665

$$$$
