
     RDKit          3D

 37 39  0  0  1  0  0  0  0  0999 V2000
   37.5650   29.4140   42.2380 C   0  0  2  0  0  0  0  0  0  0  0  0
   37.8270   29.0430   43.6430 C   0  0  0  0  0  0  0  0  0  0  0  0
   36.9720   27.9030   44.1220 C   0  0  0  0  0  0  0  0  0  0  0  0
   36.7080   26.8450   43.1360 C   0  0  0  0  0  0  0  0  0  0  0  0
   37.5170   26.9470   41.8950 C   0  0  0  0  0  0  0  0  0  0  0  0
   37.5540   28.2810   41.2460 C   0  0  1  0  0  0  0  0  0  0  0  0
   36.5390   28.4990   40.2360 N   0  0  0  0  0  0  0  0  0  0  0  0
   35.3060   28.9440   40.5770 C   0  0  0  0  0  0  0  0  0  0  0  0
   34.3230   29.1560   39.6030 C   0  0  0  0  0  0  0  0  0  0  0  0
   34.6130   28.9080   38.2830 C   0  0  0  0  0  0  0  0  0  0  0  0
   33.7120   29.0810   37.1980 N   0  0  0  0  0  0  0  0  0  0  0  0
   35.8410   28.4660   37.9510 N   0  0  0  0  0  0  0  0  0  0  0  0
   36.7480   28.2790   38.9240 C   0  0  0  0  0  0  0  0  0  0  0  0
   37.9070   27.8600   38.5980 O   0  0  0  0  0  0  0  0  0  0  0  0
   38.5560   30.4360   41.8210 C   0  0  0  0  0  0  0  0  0  0  0  0
   39.8240   30.3020   42.4110 C   0  0  0  0  0  0  0  0  0  0  0  0
   40.8340   31.2150   42.0860 C   0  0  0  0  0  0  0  0  0  0  0  0
   40.5100   32.2030   41.1910 N   0  0  0  0  0  0  0  0  0  0  0  0
   39.2920   32.3080   40.6430 C   0  0  0  0  0  0  0  0  0  0  0  0
   38.3020   31.4230   40.9530 N   0  0  0  0  0  0  0  0  0  0  0  0
   36.5353   29.8005   42.2236 H   0  0  0  0  0  0  0  0  0  0  0  0
   38.8835   28.7515   43.7368 H   0  0  0  0  0  0  0  0  0  0  0  0
   37.5841   29.9181   44.2637 H   0  0  0  0  0  0  0  0  0  0  0  0
   37.4754   27.4426   44.9849 H   0  0  0  0  0  0  0  0  0  0  0  0
   35.9920   28.3427   44.3591 H   0  0  0  0  0  0  0  0  0  0  0  0
   36.9220   25.8744   43.6073 H   0  0  0  0  0  0  0  0  0  0  0  0
   35.6557   26.9527   42.8343 H   0  0  0  0  0  0  0  0  0  0  0  0
   38.5509   26.6660   42.1441 H   0  0  0  0  0  0  0  0  0  0  0  0
   37.0292   26.2795   41.1694 H   0  0  0  0  0  0  0  0  0  0  0  0
   38.5158   28.2758   40.7122 H   0  0  0  0  0  0  0  0  0  0  0  0
   35.0738   29.1416   41.6339 H   0  0  0  0  0  0  0  0  0  0  0  0
   33.3256   29.5185   39.8924 H   0  0  0  0  0  0  0  0  0  0  0  0
   34.0165   28.8696   36.2370 H   0  0  0  0  0  0  0  0  0  0  0  0
   32.7544   29.4178   37.3725 H   0  0  0  0  0  0  0  0  0  0  0  0
   40.0214   29.4865   43.1223 H   0  0  0  0  0  0  0  0  0  0  0  0
   41.8392   31.1437   42.5270 H   0  0  0  0  0  0  0  0  0  0  0  0
   39.0872   33.1214   39.9314 H   0  0  0  0  0  0  0  0  0  0  0  0
  1  2  1  0
  2  3  1  0
  4  3  1  0
  5  4  1  0
  6  5  1  0
  6  1  1  0
  7  8  1  0
  7  6  1  0
  9  8  2  0
 10  9  1  0
 11 10  1  0
 12 10  2  0
 12 13  1  0
 13  7  1  0
 14 13  2  0
 15  1  1  0
 15 16  2  0
 17 16  1  0
 18 17  2  0
 19 20  2  0
 19 18  1  0
 20 15  1  0
  1 21  1  1
  2 22  1  0
  2 23  1  0
  3 24  1  0
  3 25  1  0
  4 26  1  0
  4 27  1  0
  5 28  1  0
  5 29  1  0
  6 30  1  6
  8 31  1  0
  9 32  1  0
 11 33  1  0
 11 34  1  0
 16 35  1  0
 17 36  1  0
 19 37  1  0
M  ISO  8  21  13  22  13  23  13  24  13  25  13  26  13  27  13  28  13
M  ISO  7  29  13  30  13  31  14  32  14  35  14  36  14  37  14
M  END
>  <minimizedAffinity>  (1) 
-5.36150455

>  <minimizedRMSD>  (1) 
2.08569169

$$$$
