
     RDKit          3D

 23 24  0  0  0  0  0  0  0  0999 V2000
   38.2100   28.9700   43.4490 C   0  0  0  0  0  0  0  0  0  0  0  0
   37.3980   27.8190   43.6090 C   0  0  0  0  0  0  0  0  0  0  0  0
   36.4360   27.5610   42.6230 C   0  0  0  0  0  0  0  0  0  0  0  0
   36.3380   28.4230   41.5780 N   0  0  0  0  0  0  0  0  0  0  0  0
   37.1230   29.5100   41.4490 C   0  0  0  0  0  0  0  0  0  0  0  0
   38.0530   29.7770   42.3840 N   0  0  0  0  0  0  0  0  0  0  0  0
   37.0050   30.4030   40.3440 N   0  0  0  0  0  0  0  0  0  0  0  0
   37.0020   31.8350   40.5180 C   0  0  0  0  0  0  0  0  0  0  0  0
   37.5060   32.5790   39.3180 C   0  0  0  0  0  0  0  0  0  0  0  0
   37.1590   32.0130   38.1010 O   0  0  0  0  0  0  0  0  0  0  0  0
   37.7140   30.7350   38.0200 C   0  0  0  0  0  0  0  0  0  0  0  0
   36.8790   29.8850   38.9900 C   0  0  0  0  0  0  0  0  0  0  0  0
   38.9757   29.2055   44.2028 H   0  0  0  0  0  0  0  0  0  0  0  0
   37.5186   27.1525   44.4757 H   0  0  0  0  0  0  0  0  0  0  0  0
   35.7772   26.6829   42.6936 H   0  0  0  0  0  0  0  0  0  0  0  0
   35.9711   32.1597   40.7226 H   0  0  0  0  0  0  0  0  0  0  0  0
   37.6817   32.0634   41.3522 H   0  0  0  0  0  0  0  0  0  0  0  0
   37.0976   33.5999   39.3506 H   0  0  0  0  0  0  0  0  0  0  0  0
   38.6043   32.5521   39.3728 H   0  0  0  0  0  0  0  0  0  0  0  0
   37.6366   30.3427   36.9952 H   0  0  0  0  0  0  0  0  0  0  0  0
   38.7837   30.7288   38.2762 H   0  0  0  0  0  0  0  0  0  0  0  0
   35.8226   29.9170   38.6850 H   0  0  0  0  0  0  0  0  0  0  0  0
   37.2442   28.8477   38.9658 H   0  0  0  0  0  0  0  0  0  0  0  0
  1  2  2  0
  3  2  1  0
  4  3  2  0
  5  4  1  0
  5  6  2  0
  6  1  1  0
  7  8  1  0
  7  5  1  0
  9  8  1  0
 10  9  1  0
 11 10  1  0
 11 12  1  0
 12  7  1  0
  1 13  1  0
  2 14  1  0
  3 15  1  0
  8 16  1  0
  8 17  1  0
  9 18  1  0
  9 19  1  0
 11 20  1  0
 11 21  1  0
 12 22  1  0
 12 23  1  0
M  ISO  8  13  14  14  14  15  14  16  13  17  13  18  13  19  13  20  13
M  ISO  3  21  13  22  13  23  13
M  END
>  <minimizedAffinity>  (1) 
-3.82219267

>  <minimizedRMSD>  (1) 
0.711824775

$$$$
