
     RDKit          3D

 42 44  0  0  1  0  0  0  0  0999 V2000
   39.9370   32.0420   41.2550 C   0  0  0  0  0  0  0  0  0  0  0  0
   39.5130   30.7680   41.7260 C   0  0  0  0  0  0  0  0  0  0  0  0
   38.1920   30.4290   41.5420 C   0  0  0  0  0  0  0  0  0  0  0  0
   37.3480   31.3150   40.9240 N   0  0  0  0  0  0  0  0  0  0  0  0
   37.7990   32.5180   40.4920 C   0  0  0  0  0  0  0  0  0  0  0  0
   39.0830   32.8880   40.6520 N   0  0  0  0  0  0  0  0  0  0  0  0
   36.8700   33.4010   39.8520 N   0  0  0  0  0  0  0  0  0  0  0  0
   37.6780   29.1820   41.9770 N   0  0  0  0  0  0  0  0  0  0  0  0
   37.8030   28.8000   43.3440 C   0  0  0  0  0  0  0  0  0  0  0  0
   36.7380   27.7370   43.6130 C   0  0  0  0  0  0  0  0  0  0  0  0
   36.9050   26.5840   42.7770 N   0  0  0  0  0  0  0  0  0  0  0  0
   37.3880   26.8500   41.4470 C   0  0  0  0  0  0  0  0  0  0  0  0
   37.0320   28.2800   41.0790 C   0  0  2  0  0  0  0  0  0  0  0  0
   37.0240   28.5520   39.6460 C   0  0  0  0  0  0  0  0  0  0  0  0
   38.4380   28.9980   39.2890 C   0  0  0  0  0  0  0  0  0  0  0  0
   38.5570   28.7630   37.8010 C   0  0  0  0  0  0  0  0  0  0  0  0
   37.5260   29.5100   37.0330 C   0  0  0  0  0  0  0  0  0  0  0  0
   36.4600   30.1730   37.8220 C   0  0  0  0  0  0  0  0  0  0  0  0
   36.1800   29.7060   39.1900 C   0  0  0  0  0  0  0  0  0  0  0  0
   40.9871   32.3417   41.3871 H   0  0  0  0  0  0  0  0  0  0  0  0
   40.2152   30.0796   42.2190 H   0  0  0  0  0  0  0  0  0  0  0  0
   35.8878   33.1154   39.7308 H   0  0  0  0  0  0  0  0  0  0  0  0
   37.1842   34.3215   39.5131 H   0  0  0  0  0  0  0  0  0  0  0  0
   38.8049   28.3858   43.5299 H   0  0  0  0  0  0  0  0  0  0  0  0
   37.6667   29.6672   44.0068 H   0  0  0  0  0  0  0  0  0  0  0  0
   36.8059   27.4250   44.6656 H   0  0  0  0  0  0  0  0  0  0  0  0
   35.7550   28.1778   43.3906 H   0  0  0  0  0  0  0  0  0  0  0  0
   37.5750   25.9518   43.2378 H   0  0  0  0  0  0  0  0  0  0  0  0
   38.4799   26.7204   41.4165 H   0  0  0  0  0  0  0  0  0  0  0  0
   36.9262   26.1522   40.7330 H   0  0  0  0  0  0  0  0  0  0  0  0
   35.9632   28.4730   41.2531 H   0  0  0  0  0  0  0  0  0  0  0  0
   36.6357   27.6344   39.1799 H   0  0  0  0  0  0  0  0  0  0  0  0
   38.5788   30.0631   39.5249 H   0  0  0  0  0  0  0  0  0  0  0  0
   39.2015   28.4465   39.8572 H   0  0  0  0  0  0  0  0  0  0  0  0
   39.5532   29.0902   37.4687 H   0  0  0  0  0  0  0  0  0  0  0  0
   38.4069   27.6894   37.6144 H   0  0  0  0  0  0  0  0  0  0  0  0
   38.0421   30.2873   36.4504 H   0  0  0  0  0  0  0  0  0  0  0  0
   37.0088   28.7507   36.4280 H   0  0  0  0  0  0  0  0  0  0  0  0
   36.7294   31.2370   37.8950 H   0  0  0  0  0  0  0  0  0  0  0  0
   35.5393   29.9315   37.2707 H   0  0  0  0  0  0  0  0  0  0  0  0
   36.3480   30.5464   39.8796 H   0  0  0  0  0  0  0  0  0  0  0  0
   35.1401   29.3474   39.1881 H   0  0  0  0  0  0  0  0  0  0  0  0
  1  2  2  0
  3  2  1  0
  3  8  1  0
  4  3  2  0
  5  6  2  0
  5  4  1  0
  6  1  1  0
  7  5  1  0
  8  9  1  0
  9 10  1  0
 11 10  1  0
 12 11  1  0
 13 12  1  0
 13  8  1  0
 14 13  1  0
 15 14  1  0
 16 15  1  0
 17 16  1  0
 17 18  1  0
 18 19  1  0
 19 14  1  0
  1 20  1  0
  2 21  1  0
  7 22  1  0
  7 23  1  0
  9 24  1  0
  9 25  1  0
 10 26  1  0
 10 27  1  0
 11 28  1  0
 12 29  1  0
 12 30  1  0
 13 31  1  1
 14 32  1  0
 15 33  1  0
 15 34  1  0
 16 35  1  0
 16 36  1  0
 17 37  1  0
 17 38  1  0
 18 39  1  0
 18 40  1  0
 19 41  1  0
 19 42  1  0
M  ISO  8  20  14  21  14  24  13  25  13  26  13  27  13  28   5  29  13
M  ISO  8  30  13  31  13  32  13  33  13  34  13  35  13  36  13  37  13
M  ISO  5  38  13  39  13  40  13  41  13  42  13
M  END
>  <minimizedAffinity>  (1) 
-5.56918335

>  <minimizedRMSD>  (1) 
0.519060493

$$$$
