
     RDKit          3D

 40 42  0  0  1  0  0  0  0  0999 V2000
   37.5420   30.5570   39.5750 C   0  0  2  0  0  0  0  0  0  0  0  0
   36.7400   30.8200   38.3650 C   0  0  0  0  0  0  0  0  0  0  0  0
   35.9380   29.5980   38.0090 C   0  0  0  0  0  0  0  0  0  0  0  0
   35.1530   29.0640   39.1180 C   0  0  0  0  0  0  0  0  0  0  0  0
   35.4210   29.6130   40.4610 C   0  0  0  0  0  0  0  0  0  0  0  0
   36.7920   30.0500   40.7750 C   0  0  1  0  0  0  0  0  0  0  0  0
   38.2910   31.7860   39.9270 C   0  0  0  0  0  0  0  0  0  0  0  0
   37.5520   32.9760   39.8070 C   0  0  0  0  0  0  0  0  0  0  0  0
   38.1630   34.1940   40.1230 C   0  0  0  0  0  0  0  0  0  0  0  0
   39.4700   34.1460   40.5380 N   0  0  0  0  0  0  0  0  0  0  0  0
   40.1560   32.9880   40.6450 C   0  0  0  0  0  0  0  0  0  0  0  0
   39.5600   31.8200   40.3380 N   0  0  0  0  0  0  0  0  0  0  0  0
   37.5900   29.1140   41.5110 N   0  0  0  0  0  0  0  0  0  0  0  0
   36.8600   28.4550   42.5670 C   0  0  0  0  0  0  0  0  0  0  0  0
   37.9180   28.0380   43.5960 C   0  0  0  0  0  0  0  0  0  0  0  0
   38.8860   27.1540   42.9520 N   0  0  0  0  0  0  0  0  0  0  0  0
   38.6060   26.9720   41.5630 C   0  0  0  0  0  0  0  0  0  0  0  0
   38.4870   28.3000   40.8020 C   0  0  0  0  0  0  0  0  0  0  0  0
   38.2090   29.7243   39.3071 H   0  0  0  0  0  0  0  0  0  0  0  0
   36.0579   31.6618   38.5550 H   0  0  0  0  0  0  0  0  0  0  0  0
   37.4125   31.0685   37.5307 H   0  0  0  0  0  0  0  0  0  0  0  0
   35.2498   29.8608   37.1921 H   0  0  0  0  0  0  0  0  0  0  0  0
   36.6563   28.8167   37.7199 H   0  0  0  0  0  0  0  0  0  0  0  0
   34.0925   29.2478   38.8912 H   0  0  0  0  0  0  0  0  0  0  0  0
   35.4397   28.0040   39.1831 H   0  0  0  0  0  0  0  0  0  0  0  0
   34.7628   30.4842   40.5942 H   0  0  0  0  0  0  0  0  0  0  0  0
   35.2429   28.7669   41.1410 H   0  0  0  0  0  0  0  0  0  0  0  0
   36.6202   30.8930   41.4605 H   0  0  0  0  0  0  0  0  0  0  0  0
   36.5057   32.9496   39.4686 H   0  0  0  0  0  0  0  0  0  0  0  0
   37.6202   35.1473   40.0424 H   0  0  0  0  0  0  0  0  0  0  0  0
   41.2027   32.9986   40.9832 H   0  0  0  0  0  0  0  0  0  0  0  0
   36.1331   29.1448   43.0206 H   0  0  0  0  0  0  0  0  0  0  0  0
   36.2909   27.5912   42.1930 H   0  0  0  0  0  0  0  0  0  0  0  0
   38.4325   28.9318   43.9787 H   0  0  0  0  0  0  0  0  0  0  0  0
   37.4351   27.5129   44.4333 H   0  0  0  0  0  0  0  0  0  0  0  0
   39.8262   27.5629   43.0505 H   0  0  0  0  0  0  0  0  0  0  0  0
   39.4188   26.3816   41.1149 H   0  0  0  0  0  0  0  0  0  0  0  0
   37.6371   26.4571   41.4848 H   0  0  0  0  0  0  0  0  0  0  0  0
   38.1063   28.1179   39.7862 H   0  0  0  0  0  0  0  0  0  0  0  0
   39.4694   28.7877   40.7183 H   0  0  0  0  0  0  0  0  0  0  0  0
  1  7  1  0
  1  6  1  0
  2  1  1  0
  3  2  1  0
  3  4  1  0
  4  5  1  0
  5  6  1  0
  6 13  1  0
  7 12  1  0
  8  7  2  0
  8  9  1  0
  9 10  2  0
 10 11  1  0
 12 11  2  0
 13 14  1  0
 14 15  1  0
 16 15  1  0
 17 16  1  0
 18 13  1  0
 18 17  1  0
  1 19  1  6
  2 20  1  0
  2 21  1  0
  3 22  1  0
  3 23  1  0
  4 24  1  0
  4 25  1  0
  5 26  1  0
  5 27  1  0
  6 28  1  1
  8 29  1  0
  9 30  1  0
 11 31  1  0
 14 32  1  0
 14 33  1  0
 15 34  1  0
 15 35  1  0
 16 36  1  0
 17 37  1  0
 17 38  1  0
 18 39  1  0
 18 40  1  0
M  ISO  8  19  13  20  13  21  13  22  13  23  13  24  13  25  13  26  13
M  ISO  8  27  13  28  13  29  14  30  14  31  14  32  13  33  13  34  13
M  ISO  6  35  13  36   5  37  13  38  13  39  13  40  13
M  END
>  <minimizedAffinity>  (1) 
-4.9650178

>  <minimizedRMSD>  (1) 
4.14258432

$$$$
