
     RDKit          3D

 29 30  0  0  1  0  0  0  0  0999 V2000
   37.1340   29.4660   41.9530 C   0  0  2  0  0  0  0  0  0  0  0  0
   37.7110   29.1790   43.2830 C   0  0  0  0  0  0  0  0  0  0  0  0
   37.2180   27.8840   43.8670 C   0  0  0  0  0  0  0  0  0  0  0  0
   36.9490   26.8070   42.8930 C   0  0  0  0  0  0  0  0  0  0  0  0
   37.6110   27.0520   41.5700 C   0  0  0  0  0  0  0  0  0  0  0  0
   37.2340   28.3510   40.9390 C   0  0  1  0  0  0  0  0  0  0  0  0
   37.7540   30.6930   41.4060 C   0  0  0  0  0  0  0  0  0  0  0  0
   39.1290   30.8120   41.6660 C   0  0  0  0  0  0  0  0  0  0  0  0
   39.8230   31.9360   41.2060 C   0  0  0  0  0  0  0  0  0  0  0  0
   39.0900   32.8640   40.5130 N   0  0  0  0  0  0  0  0  0  0  0  0
   37.7740   32.7280   40.2750 C   0  0  0  0  0  0  0  0  0  0  0  0
   37.0940   31.6360   40.7220 N   0  0  0  0  0  0  0  0  0  0  0  0
   35.9860   28.2620   40.0990 C   0  0  0  0  0  0  0  0  0  0  0  0
   34.8790   28.7790   40.6970 F   0  0  0  0  0  0  0  0  0  0  0  0
   36.2380   29.0490   38.9680 F   0  0  0  0  0  0  0  0  0  0  0  0
   35.8430   26.9680   39.6440 F   0  0  0  0  0  0  0  0  0  0  0  0
   36.0553   29.5930   42.1268 H   0  0  0  0  0  0  0  0  0  0  0  0
   38.8056   29.1267   43.1870 H   0  0  0  0  0  0  0  0  0  0  0  0
   37.3979   29.9872   43.9603 H   0  0  0  0  0  0  0  0  0  0  0  0
   37.9787   27.5197   44.5731 H   0  0  0  0  0  0  0  0  0  0  0  0
   36.2502   28.1143   44.3363 H   0  0  0  0  0  0  0  0  0  0  0  0
   37.3228   25.8577   43.3043 H   0  0  0  0  0  0  0  0  0  0  0  0
   35.8628   26.7735   42.7226 H   0  0  0  0  0  0  0  0  0  0  0  0
   38.7006   27.0429   41.7205 H   0  0  0  0  0  0  0  0  0  0  0  0
   37.2731   26.2558   40.8904 H   0  0  0  0  0  0  0  0  0  0  0  0
   38.0566   28.5961   40.2511 H   0  0  0  0  0  0  0  0  0  0  0  0
   39.6565   30.0268   42.2274 H   0  0  0  0  0  0  0  0  0  0  0  0
   40.8993   32.0681   41.3905 H   0  0  0  0  0  0  0  0  0  0  0  0
   37.2400   33.5080   39.7125 H   0  0  0  0  0  0  0  0  0  0  0  0
  1  2  1  0
  2  3  1  0
  4  3  1  0
  5  4  1  0
  6  5  1  0
  6  1  1  0
  7  8  2  0
  7  1  1  0
  9  8  1  0
 10  9  2  0
 11 10  1  0
 11 12  2  0
 12  7  1  0
 13 14  1  0
 13  6  1  0
 15 13  1  0
 16 13  1  0
  1 17  1  1
  2 18  1  0
  2 19  1  0
  3 20  1  0
  3 21  1  0
  4 22  1  0
  4 23  1  0
  5 24  1  0
  5 25  1  0
  6 26  1  6
  8 27  1  0
  9 28  1  0
 11 29  1  0
M  ISO  8  17  13  18  13  19  13  20  13  21  13  22  13  23  13  24  13
M  ISO  5  25  13  26  13  27  14  28  14  29  14
M  END
>  <minimizedAffinity>  (1) 
-4.83519268

>  <minimizedRMSD>  (1) 
1.14413667

$$$$
