
     RDKit          3D

 33 35  0  0  1  0  0  0  0  0999 V2000
   37.0780   29.8260   41.9140 C   0  0  2  0  0  0  0  0  0  0  0  0
   38.0930   29.4080   42.9010 C   0  0  0  0  0  0  0  0  0  0  0  0
   37.6500   28.3110   43.8280 C   0  0  0  0  0  0  0  0  0  0  0  0
   36.6100   27.4100   43.2860 C   0  0  0  0  0  0  0  0  0  0  0  0
   36.6460   27.3690   41.7840 C   0  0  0  0  0  0  0  0  0  0  0  0
   36.3440   28.7230   41.2020 C   0  0  2  0  0  0  0  0  0  0  0  0
   37.6970   30.7500   40.9340 C   0  0  0  0  0  0  0  0  0  0  0  0
   36.8660   31.7950   40.5070 C   0  0  0  0  0  0  0  0  0  0  0  0
   37.3590   32.7220   39.5810 C   0  0  0  0  0  0  0  0  0  0  0  0
   38.6490   32.5350   39.1480 N   0  0  0  0  0  0  0  0  0  0  0  0
   39.4220   31.5240   39.5760 C   0  0  0  0  0  0  0  0  0  0  0  0
   38.9480   30.6200   40.4760 N   0  0  0  0  0  0  0  0  0  0  0  0
   36.4820   28.7290   39.7110 C   0  0  0  0  0  0  0  0  0  0  0  0
   35.9270   27.5460   38.9680 C   0  0  0  0  0  0  0  0  0  0  0  0
   35.2130   28.8330   38.8410 C   0  0  0  0  0  0  0  0  0  0  0  0
   36.2954   30.3245   42.5048 H   0  0  0  0  0  0  0  0  0  0  0  0
   38.9800   29.0570   42.3533 H   0  0  0  0  0  0  0  0  0  0  0  0
   38.2948   30.2864   43.5316 H   0  0  0  0  0  0  0  0  0  0  0  0
   38.5306   27.7017   44.0795 H   0  0  0  0  0  0  0  0  0  0  0  0
   37.1981   28.8103   44.6977 H   0  0  0  0  0  0  0  0  0  0  0  0
   36.7778   26.3951   43.6755 H   0  0  0  0  0  0  0  0  0  0  0  0
   35.6263   27.7910   43.5977 H   0  0  0  0  0  0  0  0  0  0  0  0
   37.6469   27.0514   41.4564 H   0  0  0  0  0  0  0  0  0  0  0  0
   35.8832   26.6581   41.4337 H   0  0  0  0  0  0  0  0  0  0  0  0
   35.2823   28.9442   41.3862 H   0  0  0  0  0  0  0  0  0  0  0  0
   35.8404   31.8854   40.8943 H   0  0  0  0  0  0  0  0  0  0  0  0
   36.7438   33.5586   39.2182 H   0  0  0  0  0  0  0  0  0  0  0  0
   40.4492   31.4254   39.1951 H   0  0  0  0  0  0  0  0  0  0  0  0
   37.4395   29.2685   39.7578 H   0  0  0  0  0  0  0  0  0  0  0  0
   36.4748   27.1408   38.1044 H   0  0  0  0  0  0  0  0  0  0  0  0
   35.6249   26.5307   39.2646 H   0  0  0  0  0  0  0  0  0  0  0  0
   35.2403   29.3867   37.8909 H   0  0  0  0  0  0  0  0  0  0  0  0
   34.1794   29.1710   39.0068 H   0  0  0  0  0  0  0  0  0  0  0  0
  1  2  1  0
  2  3  1  0
  4  3  1  0
  5  4  1  0
  6  5  1  0
  6  1  1  0
  7  1  1  0
  8  7  2  0
  9  8  1  0
 10 11  1  0
 10  9  2  0
 11 12  2  0
 12  7  1  0
 13  6  1  0
 14 13  1  0
 15 14  1  0
 15 13  1  0
  1 16  1  1
  2 17  1  0
  2 18  1  0
  3 19  1  0
  3 20  1  0
  4 21  1  0
  4 22  1  0
  5 23  1  0
  5 24  1  0
  6 25  1  6
  8 26  1  0
  9 27  1  0
 11 28  1  0
 13 29  1  0
 14 30  1  0
 14 31  1  0
 15 32  1  0
 15 33  1  0
M  ISO  8  16  13  17  13  18  13  19  13  20  13  21  13  22  13  23  13
M  ISO  8  24  13  25  13  26  14  27  14  28  14  29  13  30  13  31  13
M  ISO  2  32  13  33  13
M  END
>  <minimizedAffinity>  (1) 
-4.82759237

>  <minimizedRMSD>  (1) 
1.62787294

$$$$
