
     RDKit          3D

 33 35  0  0  1  0  0  0  0  0999 V2000
   37.0250   29.8550   41.9260 C   0  0  2  0  0  0  0  0  0  0  0  0
   38.1360   29.3860   42.7800 C   0  0  0  0  0  0  0  0  0  0  0  0
   37.7950   28.2060   43.6430 C   0  0  0  0  0  0  0  0  0  0  0  0
   36.7890   27.2750   43.0840 C   0  0  0  0  0  0  0  0  0  0  0  0
   36.6670   27.4040   41.5930 C   0  0  0  0  0  0  0  0  0  0  0  0
   36.2790   28.7830   41.1690 C   0  0  2  0  0  0  0  0  0  0  0  0
   37.5320   30.8870   40.9970 C   0  0  0  0  0  0  0  0  0  0  0  0
   38.9260   30.9230   40.8520 C   0  0  0  0  0  0  0  0  0  0  0  0
   39.5010   31.8680   39.9940 C   0  0  0  0  0  0  0  0  0  0  0  0
   38.6410   32.7130   39.3370 N   0  0  0  0  0  0  0  0  0  0  0  0
   37.3040   32.6550   39.4950 C   0  0  0  0  0  0  0  0  0  0  0  0
   36.7520   31.7430   40.3250 N   0  0  0  0  0  0  0  0  0  0  0  0
   36.3150   28.9130   39.7100 C   0  0  0  0  0  0  0  0  0  0  0  0
   35.1440   29.1080   38.9620 C   0  0  0  0  0  0  0  0  0  0  0  0
   35.3680   29.1960   37.6210 N   0  0  0  0  0  0  0  0  0  0  0  0
   36.7230   29.0500   37.5260 C   0  0  0  0  0  0  0  0  0  0  0  0
   37.2650   28.8860   38.7570 N   0  0  0  0  0  0  0  0  0  0  0  0
   36.2740   30.2668   42.6162 H   0  0  0  0  0  0  0  0  0  0  0  0
   38.9766   29.1051   42.1285 H   0  0  0  0  0  0  0  0  0  0  0  0
   38.3817   30.2142   43.4609 H   0  0  0  0  0  0  0  0  0  0  0  0
   38.7201   27.6380   43.8207 H   0  0  0  0  0  0  0  0  0  0  0  0
   37.3459   28.6213   44.5572 H   0  0  0  0  0  0  0  0  0  0  0  0
   37.0856   26.2442   43.3277 H   0  0  0  0  0  0  0  0  0  0  0  0
   35.8134   27.5248   43.5266 H   0  0  0  0  0  0  0  0  0  0  0  0
   37.6361   27.1539   41.1366 H   0  0  0  0  0  0  0  0  0  0  0  0
   35.8750   26.7165   41.2612 H   0  0  0  0  0  0  0  0  0  0  0  0
   35.2295   28.9504   41.4528 H   0  0  0  0  0  0  0  0  0  0  0  0
   39.5611   30.2164   41.4064 H   0  0  0  0  0  0  0  0  0  0  0  0
   40.5901   31.9306   39.8529 H   0  0  0  0  0  0  0  0  0  0  0  0
   36.6579   33.3547   38.9446 H   0  0  0  0  0  0  0  0  0  0  0  0
   34.1438   29.1825   39.4137 H   0  0  0  0  0  0  0  0  0  0  0  0
   37.2925   29.0636   36.5850 H   0  0  0  0  0  0  0  0  0  0  0  0
   38.2706   28.7577   38.9392 H   0  0  0  0  0  0  0  0  0  0  0  0
  1  2  1  0
  2  3  1  0
  4  3  1  0
  5  4  1  0
  6  5  1  0
  6  1  1  0
  7  1  1  0
  8  7  2  0
  9  8  1  0
 10 11  1  0
 10  9  2  0
 11 12  2  0
 12  7  1  0
 13  6  1  0
 14 13  2  0
 15 14  1  0
 16 15  2  0
 16 17  1  0
 17 13  1  0
  1 18  1  1
  2 19  1  0
  2 20  1  0
  3 21  1  0
  3 22  1  0
  4 23  1  0
  4 24  1  0
  5 25  1  0
  5 26  1  0
  6 27  1  1
  8 28  1  0
  9 29  1  0
 11 30  1  0
 14 31  1  0
 16 32  1  0
 17 33  1  0
M  ISO  8  18  13  19  13  20  13  21  13  22  13  23  13  24  13  25  13
M  ISO  8  26  13  27  13  28  14  29  14  30  14  31  14  32  14  33   9
M  END
>  <minimizedAffinity>  (1) 
-4.79358768

>  <minimizedRMSD>  (1) 
0.643830836

$$$$
