
     RDKit          3D

 40 42  0  0  1  0  0  0  0  0999 V2000
   39.9490   32.3230   41.1350 C   0  0  0  0  0  0  0  0  0  0  0  0
   39.5410   31.0220   41.5370 C   0  0  0  0  0  0  0  0  0  0  0  0
   38.2290   30.6720   41.3180 C   0  0  0  0  0  0  0  0  0  0  0  0
   37.3920   31.5630   40.7400 N   0  0  0  0  0  0  0  0  0  0  0  0
   37.7930   32.7910   40.3640 C   0  0  0  0  0  0  0  0  0  0  0  0
   39.0610   33.1750   40.5570 N   0  0  0  0  0  0  0  0  0  0  0  0
   36.8650   33.6880   39.7630 N   0  0  0  0  0  0  0  0  0  0  0  0
   37.7360   29.3850   41.6770 N   0  0  0  0  0  0  0  0  0  0  0  0
   37.7960   28.9530   43.0330 C   0  0  0  0  0  0  0  0  0  0  0  0
   36.7850   27.8140   43.1790 C   0  0  0  0  0  0  0  0  0  0  0  0
   37.0300   26.7190   42.2850 N   0  0  0  0  0  0  0  0  0  0  0  0
   37.5580   27.0790   41.0120 C   0  0  0  0  0  0  0  0  0  0  0  0
   37.1700   28.5070   40.6770 C   0  0  2  0  0  0  0  0  0  0  0  0
   37.4010   28.8880   39.3250 N   0  0  0  0  0  0  0  0  0  0  0  0
   36.5860   29.9190   38.7790 C   0  0  0  0  0  0  0  0  0  0  0  0
   37.3490   30.7370   37.7500 C   0  0  0  0  0  0  0  0  0  0  0  0
   38.3000   29.9260   37.0070 N   0  0  0  0  0  0  0  0  0  0  0  0
   39.3030   29.3100   37.8390 C   0  0  0  0  0  0  0  0  0  0  0  0
   38.7790   29.3600   39.2580 C   0  0  0  0  0  0  0  0  0  0  0  0
   40.9897   32.6425   41.2926 H   0  0  0  0  0  0  0  0  0  0  0  0
   40.2479   30.3215   42.0056 H   0  0  0  0  0  0  0  0  0  0  0  0
   35.8889   33.3953   39.6133 H   0  0  0  0  0  0  0  0  0  0  0  0
   37.1697   34.6297   39.4779 H   0  0  0  0  0  0  0  0  0  0  0  0
   38.8080   28.5940   43.2717 H   0  0  0  0  0  0  0  0  0  0  0  0
   37.5624   29.7788   43.7211 H   0  0  0  0  0  0  0  0  0  0  0  0
   36.8295   27.4380   44.2118 H   0  0  0  0  0  0  0  0  0  0  0  0
   35.7951   28.2233   42.9289 H   0  0  0  0  0  0  0  0  0  0  0  0
   37.6999   26.0816   42.7387 H   0  0  0  0  0  0  0  0  0  0  0  0
   38.6545   26.9948   41.0349 H   0  0  0  0  0  0  0  0  0  0  0  0
   37.1491   26.4035   40.2462 H   0  0  0  0  0  0  0  0  0  0  0  0
   36.0748   28.5968   40.7277 H   0  0  0  0  0  0  0  0  0  0  0  0
   35.7081   29.4646   38.2965 H   0  0  0  0  0  0  0  0  0  0  0  0
   36.2773   30.5879   39.5959 H   0  0  0  0  0  0  0  0  0  0  0  0
   36.6306   31.1787   37.0437 H   0  0  0  0  0  0  0  0  0  0  0  0
   37.9115   31.5167   38.2845 H   0  0  0  0  0  0  0  0  0  0  0  0
   37.7819   29.1831   36.5166 H   0  0  0  0  0  0  0  0  0  0  0  0
   39.4634   28.2665   37.5303 H   0  0  0  0  0  0  0  0  0  0  0  0
   40.2660   29.8347   37.7533 H   0  0  0  0  0  0  0  0  0  0  0  0
   39.4086   28.7227   39.8963 H   0  0  0  0  0  0  0  0  0  0  0  0
   38.8085   30.4034   39.6051 H   0  0  0  0  0  0  0  0  0  0  0  0
  1  2  2  0
  3  2  1  0
  3  8  1  0
  4  3  2  0
  5  6  2  0
  5  4  1  0
  6  1  1  0
  7  5  1  0
  8  9  1  0
  9 10  1  0
 11 10  1  0
 12 11  1  0
 13 12  1  0
 13  8  1  0
 14 13  1  0
 15 14  1  0
 16 15  1  0
 17 16  1  0
 17 18  1  0
 18 19  1  0
 19 14  1  0
  1 20  1  0
  2 21  1  0
  7 22  1  0
  7 23  1  0
  9 24  1  0
  9 25  1  0
 10 26  1  0
 10 27  1  0
 11 28  1  0
 12 29  1  0
 12 30  1  0
 13 31  1  1
 15 32  1  0
 15 33  1  0
 16 34  1  0
 16 35  1  0
 17 36  1  0
 18 37  1  0
 18 38  1  0
 19 39  1  0
 19 40  1  0
M  ISO  8  20  14  21  14  24  13  25  13  26  13  27  13  28   5  29  13
M  ISO  8  30  13  31  13  32  13  33  13  34  13  35  13  36   5  37  13
M  ISO  3  38  13  39  13  40  13
M  END
>  <minimizedAffinity>  (1) 
-5.42851782

>  <minimizedRMSD>  (1) 
0.853963792

$$$$
