
     RDKit          3D

 32 33  0  0  1  0  0  0  0  0999 V2000
   37.0490   29.8120   41.9360 C   0  0  2  0  0  0  0  0  0  0  0  0
   38.0920   29.3840   42.8930 C   0  0  0  0  0  0  0  0  0  0  0  0
   37.6300   28.3280   43.8580 C   0  0  0  0  0  0  0  0  0  0  0  0
   36.6220   27.3830   43.3360 C   0  0  0  0  0  0  0  0  0  0  0  0
   36.5750   27.3600   41.8350 C   0  0  0  0  0  0  0  0  0  0  0  0
   36.3080   28.7020   41.2380 C   0  0  2  0  0  0  0  0  0  0  0  0
   37.6560   30.7230   40.9350 C   0  0  0  0  0  0  0  0  0  0  0  0
   36.7940   31.7160   40.4440 C   0  0  0  0  0  0  0  0  0  0  0  0
   37.2600   32.6250   39.4910 C   0  0  0  0  0  0  0  0  0  0  0  0
   38.5670   32.4750   39.0940 N   0  0  0  0  0  0  0  0  0  0  0  0
   39.3720   31.5150   39.5810 C   0  0  0  0  0  0  0  0  0  0  0  0
   38.9210   30.6270   40.5110 N   0  0  0  0  0  0  0  0  0  0  0  0
   36.6350   28.6170   39.7700 C   0  0  0  0  0  0  0  0  0  0  0  0
   37.3440   27.3090   39.4320 C   0  0  0  0  0  0  0  0  0  0  0  0
   36.2828   30.3194   42.5405 H   0  0  0  0  0  0  0  0  0  0  0  0
   38.9437   28.9847   42.3228 H   0  0  0  0  0  0  0  0  0  0  0  0
   38.3634   30.2677   43.4892 H   0  0  0  0  0  0  0  0  0  0  0  0
   38.5099   27.7461   44.1696 H   0  0  0  0  0  0  0  0  0  0  0  0
   37.1388   28.8672   44.6814 H   0  0  0  0  0  0  0  0  0  0  0  0
   36.8661   26.3728   43.6964 H   0  0  0  0  0  0  0  0  0  0  0  0
   35.6366   27.7147   43.6953 H   0  0  0  0  0  0  0  0  0  0  0  0
   37.5428   26.9959   41.4598 H   0  0  0  0  0  0  0  0  0  0  0  0
   35.7456   26.6993   41.5424 H   0  0  0  0  0  0  0  0  0  0  0  0
   35.2476   28.9628   41.3708 H   0  0  0  0  0  0  0  0  0  0  0  0
   35.7576   31.7781   40.8075 H   0  0  0  0  0  0  0  0  0  0  0  0
   36.6162   33.4171   39.0810 H   0  0  0  0  0  0  0  0  0  0  0  0
   40.4100   31.4452   39.2236 H   0  0  0  0  0  0  0  0  0  0  0  0
   35.7015   28.6779   39.1914 H   0  0  0  0  0  0  0  0  0  0  0  0
   37.3068   29.4503   39.5163 H   0  0  0  0  0  0  0  0  0  0  0  0
   37.6239   26.7927   40.3621 H   0  0  0  0  0  0  0  0  0  0  0  0
   36.6700   26.6676   38.8451 H   0  0  0  0  0  0  0  0  0  0  0  0
   38.2493   27.5237   38.8451 H   0  0  0  0  0  0  0  0  0  0  0  0
  1  2  1  0
  2  3  1  0
  4  3  1  0
  5  4  1  0
  6  5  1  0
  6  1  1  0
  7  1  1  0
  8  7  2  0
  9  8  1  0
 10  9  2  0
 10 11  1  0
 11 12  2  0
 12  7  1  0
 13  6  1  0
 14 13  1  0
  1 15  1  1
  2 16  1  0
  2 17  1  0
  3 18  1  0
  3 19  1  0
  4 20  1  0
  4 21  1  0
  5 22  1  0
  5 23  1  0
  6 24  1  6
  8 25  1  0
  9 26  1  0
 11 27  1  0
 13 28  1  0
 13 29  1  0
 14 30  1  0
 14 31  1  0
 14 32  1  0
M  ISO  8  15  13  16  13  17  13  18  13  19  13  20  13  21  13  22  13
M  ISO  8  23  13  24  13  25  14  26  14  27  14  28   8  29   8  30   8
M  ISO  2  31   8  32   8
M  END
>  <minimizedAffinity>  (1) 
-4.45195341

>  <minimizedRMSD>  (1) 
1.43241882

$$$$
