
     RDKit          3D

 28 29  0  0  1  0  0  0  0  0999 V2000
   37.1470   29.8510   41.8740 C   0  0  2  0  0  0  0  0  0  0  0  0
   38.0690   29.4400   42.9510 C   0  0  0  0  0  0  0  0  0  0  0  0
   37.6040   28.2600   43.7550 C   0  0  0  0  0  0  0  0  0  0  0  0
   36.6590   27.3560   43.0550 C   0  0  0  0  0  0  0  0  0  0  0  0
   36.8880   27.3880   41.5700 C   0  0  0  0  0  0  0  0  0  0  0  0
   36.6260   28.7380   40.9950 C   0  0  1  0  0  0  0  0  0  0  0  0
   37.8130   30.8700   41.0290 C   0  0  0  0  0  0  0  0  0  0  0  0
   39.1510   30.5870   40.7050 C   0  0  0  0  0  0  0  0  0  0  0  0
   39.8670   31.4900   39.9080 C   0  0  0  0  0  0  0  0  0  0  0  0
   39.1970   32.6120   39.4870 N   0  0  0  0  0  0  0  0  0  0  0  0
   37.9150   32.8560   39.8120 C   0  0  0  0  0  0  0  0  0  0  0  0
   37.2170   31.9850   40.5850 N   0  0  0  0  0  0  0  0  0  0  0  0
   35.1840   28.9230   40.6270 C   0  0  0  0  0  0  0  0  0  0  0  0
   34.7850   29.3150   39.5220 O   0  0  0  0  0  0  0  0  0  0  0  0
   36.2598   30.2494   42.3879 H   0  0  0  0  0  0  0  0  0  0  0  0
   39.0370   29.1847   42.4952 H   0  0  0  0  0  0  0  0  0  0  0  0
   38.1312   30.2880   43.6489 H   0  0  0  0  0  0  0  0  0  0  0  0
   38.4888   27.6726   44.0416 H   0  0  0  0  0  0  0  0  0  0  0  0
   37.0550   28.6717   44.6147 H   0  0  0  0  0  0  0  0  0  0  0  0
   36.8056   26.3288   43.4201 H   0  0  0  0  0  0  0  0  0  0  0  0
   35.6322   27.6933   43.2600 H   0  0  0  0  0  0  0  0  0  0  0  0
   37.9328   27.1112   41.3655 H   0  0  0  0  0  0  0  0  0  0  0  0
   36.1902   26.6777   41.1026 H   0  0  0  0  0  0  0  0  0  0  0  0
   37.1984   28.7973   40.0575 H   0  0  0  0  0  0  0  0  0  0  0  0
   39.6303   29.6677   41.0727 H   0  0  0  0  0  0  0  0  0  0  0  0
   40.9164   31.3085   39.6326 H   0  0  0  0  0  0  0  0  0  0  0  0
   37.4264   33.7716   39.4474 H   0  0  0  0  0  0  0  0  0  0  0  0
   34.4276   28.6945   41.3922 H   0  0  0  0  0  0  0  0  0  0  0  0
  1  2  1  0
  2  3  1  0
  4  3  1  0
  5  4  1  0
  6  5  1  0
  6  1  1  0
  7  1  1  0
  8  7  2  0
  9  8  1  0
 10 11  1  0
 10  9  2  0
 11 12  2  0
 12  7  1  0
 13  6  1  0
 14 13  2  0
  1 15  1  1
  2 16  1  0
  2 17  1  0
  3 18  1  0
  3 19  1  0
  4 20  1  0
  4 21  1  0
  5 22  1  0
  5 23  1  0
  6 24  1  6
  8 25  1  0
  9 26  1  0
 11 27  1  0
 13 28  1  0
M  ISO  8  15  13  16  13  17  13  18  13  19  13  20  13  21  13  22  13
M  ISO  6  23  13  24  13  25  14  26  14  27  14  28   6
M  END
>  <minimizedAffinity>  (1) 
-4.37776136

>  <minimizedRMSD>  (1) 
0.307350665

$$$$
