
     RDKit          3D

 51 56  0  0  1  0  0  0  0  0999 V2000
   37.8910   29.3330   42.8380 C   0  0  2  0  0  0  0  0  0  0  0  0
   38.1030   28.5500   44.0510 C   0  0  0  0  0  0  0  0  0  0  0  0
   36.8730   27.7780   44.4830 C   0  0  0  0  0  0  0  0  0  0  0  0
   36.0250   27.2780   43.3800 C   0  0  0  0  0  0  0  0  0  0  0  0
   36.7370   27.2530   42.0550 C   0  0  0  0  0  0  0  0  0  0  0  0
   37.1740   28.6380   41.6960 C   0  0  2  0  0  0  0  0  0  0  0  0
   37.8870   28.6990   40.4580 N   0  0  0  0  0  0  0  0  0  0  0  0
   38.8080   27.8290   39.9620 C   0  0  0  0  0  0  0  0  0  0  0  0
   39.2560   28.2320   38.7560 N   0  0  0  0  0  0  0  0  0  0  0  0
   38.6460   29.3830   38.4150 C   0  0  0  0  0  0  0  0  0  0  0  0
   38.6300   30.2920   37.3740 C   0  0  0  0  0  0  0  0  0  0  0  0
   37.8490   31.3880   37.3700 N   0  0  0  0  0  0  0  0  0  0  0  0
   37.0410   31.6160   38.4280 C   0  0  0  0  0  0  0  0  0  0  0  0
   37.0390   30.7490   39.4490 N   0  0  0  0  0  0  0  0  0  0  0  0
   37.8190   29.6410   39.4690 C   0  0  0  0  0  0  0  0  0  0  0  0
   39.1490   29.9470   42.3810 C   0  0  0  0  0  0  0  0  0  0  0  0
   40.2900   29.2730   42.7820 C   0  0  0  0  0  0  0  0  0  0  0  0
   41.5510   29.7660   42.4120 C   0  0  0  0  0  0  0  0  0  0  0  0
   41.5610   30.9200   41.6510 N   0  0  0  0  0  0  0  0  0  0  0  0
   40.4380   31.5330   41.2860 C   0  0  0  0  0  0  0  0  0  0  0  0
   39.2160   31.0520   41.6490 N   0  0  0  0  0  0  0  0  0  0  0  0
   40.5300   32.7570   40.4770 C   0  0  0  0  0  0  0  0  0  0  0  0
   39.5830   33.7600   40.5350 C   0  0  0  0  0  0  0  0  0  0  0  0
   39.9850   34.7180   39.6670 N   0  0  0  0  0  0  0  0  0  0  0  0
   41.1430   34.3020   39.1030 C   0  0  0  0  0  0  0  0  0  0  0  0
   41.8920   34.9760   38.1630 C   0  0  0  0  0  0  0  0  0  0  0  0
   43.0630   34.3670   37.7080 C   0  0  0  0  0  0  0  0  0  0  0  0
   43.4510   33.1150   38.1960 C   0  0  0  0  0  0  0  0  0  0  0  0
   42.6630   32.4620   39.1500 C   0  0  0  0  0  0  0  0  0  0  0  0
   41.5250   33.0690   39.5840 C   0  0  0  0  0  0  0  0  0  0  0  0
   37.1803   30.1122   43.1508 H   0  0  0  0  0  0  0  0  0  0  0  0
   38.9186   27.8350   43.8680 H   0  0  0  0  0  0  0  0  0  0  0  0
   38.3473   29.2560   44.8584 H   0  0  0  0  0  0  0  0  0  0  0  0
   37.2048   26.9132   45.0763 H   0  0  0  0  0  0  0  0  0  0  0  0
   36.2510   28.4864   45.0497 H   0  0  0  0  0  0  0  0  0  0  0  0
   35.7011   26.2553   43.6230 H   0  0  0  0  0  0  0  0  0  0  0  0
   35.1729   27.9668   43.2823 H   0  0  0  0  0  0  0  0  0  0  0  0
   37.6175   26.5974   42.1245 H   0  0  0  0  0  0  0  0  0  0  0  0
   36.0555   26.8718   41.2803 H   0  0  0  0  0  0  0  0  0  0  0  0
   36.2530   29.2143   41.5238 H   0  0  0  0  0  0  0  0  0  0  0  0
   39.1430   26.9167   40.4773 H   0  0  0  0  0  0  0  0  0  0  0  0
   39.2855   30.1114   36.5093 H   0  0  0  0  0  0  0  0  0  0  0  0
   36.3919   32.5037   38.4509 H   0  0  0  0  0  0  0  0  0  0  0  0
   40.2088   28.3575   43.3864 H   0  0  0  0  0  0  0  0  0  0  0  0
   42.4813   29.2612   42.7115 H   0  0  0  0  0  0  0  0  0  0  0  0
   38.6799   33.7773   41.1627 H   0  0  0  0  0  0  0  0  0  0  0  0
   39.4975   35.6039   39.4711 H   0  0  0  0  0  0  0  0  0  0  0  0
   41.5781   35.9599   37.7842 H   0  0  0  0  0  0  0  0  0  0  0  0
   43.6864   34.8767   36.9586 H   0  0  0  0  0  0  0  0  0  0  0  0
   44.3752   32.6440   37.8299 H   0  0  0  0  0  0  0  0  0  0  0  0
   42.9576   31.4772   39.5416 H   0  0  0  0  0  0  0  0  0  0  0  0
  1  2  1  0
  2  3  1  0
  4  3  1  0
  5  4  1  0
  6  5  1  0
  6  1  1  0
  7  6  1  0
  8  7  1  0
  9  8  2  0
 10  9  1  0
 10 15  2  0
 11 10  1  0
 12 11  2  0
 12 13  1  0
 13 14  2  0
 14 15  1  0
 15  7  1  0
 16 17  2  0
 16  1  1  0
 18 17  1  0
 19 18  2  0
 20 21  2  0
 20 19  1  0
 21 16  1  0
 22 23  2  0
 22 20  1  0
 24 23  1  0
 25 30  2  0
 25 24  1  0
 26 25  1  0
 27 26  2  0
 27 28  1  0
 28 29  2  0
 29 30  1  0
 30 22  1  0
  1 31  1  1
  2 32  1  0
  2 33  1  0
  3 34  1  0
  3 35  1  0
  4 36  1  0
  4 37  1  0
  5 38  1  0
  5 39  1  0
  6 40  1  6
  8 41  1  0
 11 42  1  0
 13 43  1  0
 17 44  1  0
 18 45  1  0
 23 46  1  0
 24 47  1  0
 26 48  1  0
 27 49  1  0
 28 50  1  0
 29 51  1  0
M  ISO  8  31  13  32  13  33  13  34  13  35  13  36  13  37  13  38  13
M  ISO  8  39  13  40  13  41  14  42  14  43  14  44  14  45  14  46  14
M  ISO  5  47   9  48  14  49  14  50  14  51  14
M  END
>  <minimizedAffinity>  (1) 
-6.47112751

>  <minimizedRMSD>  (1) 
4.28401518

$$$$
