
     RDKit          3D

 50 54  0  0  1  0  0  0  0  0999 V2000
   37.5180   29.4060   42.5200 C   0  0  2  0  0  0  0  0  0  0  0  0
   37.8230   29.0360   43.8940 C   0  0  0  0  0  0  0  0  0  0  0  0
   36.8430   28.0460   44.4920 C   0  0  0  0  0  0  0  0  0  0  0  0
   36.2500   27.0840   43.5340 C   0  0  0  0  0  0  0  0  0  0  0  0
   37.0490   26.9590   42.2670 C   0  0  0  0  0  0  0  0  0  0  0  0
   37.1130   28.2860   41.5800 C   0  0  2  0  0  0  0  0  0  0  0  0
   37.8880   28.2500   40.3760 N   0  0  0  0  0  0  0  0  0  0  0  0
   39.1230   27.7300   40.1710 C   0  0  0  0  0  0  0  0  0  0  0  0
   39.5160   27.8900   38.8930 N   0  0  0  0  0  0  0  0  0  0  0  0
   38.5460   28.5260   38.2070 C   0  0  0  0  0  0  0  0  0  0  0  0
   38.2940   28.9840   36.9260 C   0  0  0  0  0  0  0  0  0  0  0  0
   37.1480   29.6050   36.5820 N   0  0  0  0  0  0  0  0  0  0  0  0
   36.2030   29.7940   37.5230 C   0  0  0  0  0  0  0  0  0  0  0  0
   36.4260   29.3590   38.7700 N   0  0  0  0  0  0  0  0  0  0  0  0
   37.5680   28.7320   39.1350 C   0  0  0  0  0  0  0  0  0  0  0  0
   38.6000   30.2210   41.9430 C   0  0  0  0  0  0  0  0  0  0  0  0
   39.8560   29.9470   42.4520 C   0  0  0  0  0  0  0  0  0  0  0  0
   40.9670   30.6630   41.9820 C   0  0  0  0  0  0  0  0  0  0  0  0
   40.7180   31.6180   41.0120 N   0  0  0  0  0  0  0  0  0  0  0  0
   39.4900   31.8490   40.5480 C   0  0  0  0  0  0  0  0  0  0  0  0
   38.4230   31.1510   41.0110 N   0  0  0  0  0  0  0  0  0  0  0  0
   39.2250   32.8840   39.4970 C   0  0  0  0  0  0  0  0  0  0  0  0
   40.4100   33.8010   39.2810 C   0  0  0  0  0  0  0  0  0  0  0  0
   40.2900   34.7760   40.4120 C   0  0  0  0  0  0  0  0  0  0  0  0
   38.8590   34.7670   40.8620 C   0  0  0  0  0  0  0  0  0  0  0  0
   38.1470   33.8580   39.8930 C   0  0  0  0  0  0  0  0  0  0  0  0
   36.5980   30.0020   42.6114 H   0  0  0  0  0  0  0  0  0  0  0  0
   38.8272   28.5877   43.9179 H   0  0  0  0  0  0  0  0  0  0  0  0
   37.7582   29.9547   44.4955 H   0  0  0  0  0  0  0  0  0  0  0  0
   37.3710   27.4715   45.2674 H   0  0  0  0  0  0  0  0  0  0  0  0
   36.0053   28.6442   44.8798 H   0  0  0  0  0  0  0  0  0  0  0  0
   36.1964   26.0962   44.0150 H   0  0  0  0  0  0  0  0  0  0  0  0
   35.2523   27.4589   43.2617 H   0  0  0  0  0  0  0  0  0  0  0  0
   38.0680   26.6226   42.5087 H   0  0  0  0  0  0  0  0  0  0  0  0
   36.5670   26.2269   41.6024 H   0  0  0  0  0  0  0  0  0  0  0  0
   36.0867   28.5196   41.2604 H   0  0  0  0  0  0  0  0  0  0  0  0
   39.7268   27.2401   40.9490 H   0  0  0  0  0  0  0  0  0  0  0  0
   39.0631   28.8348   36.1538 H   0  0  0  0  0  0  0  0  0  0  0  0
   35.2593   30.2996   37.2704 H   0  0  0  0  0  0  0  0  0  0  0  0
   39.9834   29.1715   43.2216 H   0  0  0  0  0  0  0  0  0  0  0  0
   41.9814   30.4754   42.3639 H   0  0  0  0  0  0  0  0  0  0  0  0
   38.9634   32.2808   38.6151 H   0  0  0  0  0  0  0  0  0  0  0  0
   41.3568   33.2439   39.3376 H   0  0  0  0  0  0  0  0  0  0  0  0
   40.4122   34.2818   38.2917 H   0  0  0  0  0  0  0  0  0  0  0  0
   40.9467   34.4731   41.2408 H   0  0  0  0  0  0  0  0  0  0  0  0
   40.5893   35.7841   40.0892 H   0  0  0  0  0  0  0  0  0  0  0  0
   38.7793   34.3765   41.8873 H   0  0  0  0  0  0  0  0  0  0  0  0
   38.4247   35.7776   40.8734 H   0  0  0  0  0  0  0  0  0  0  0  0
   37.7793   34.4185   39.0208 H   0  0  0  0  0  0  0  0  0  0  0  0
   37.2581   33.3732   40.3229 H   0  0  0  0  0  0  0  0  0  0  0  0
  1  2  1  0
  2  3  1  0
  4  3  1  0
  5  4  1  0
  6  5  1  0
  6  1  1  0
  7  6  1  0
  8  7  1  0
  9  8  2  0
 10  9  1  0
 10 15  2  0
 11 10  1  0
 12 11  2  0
 12 13  1  0
 13 14  2  0
 14 15  1  0
 15  7  1  0
 16 17  2  0
 16  1  1  0
 18 17  1  0
 19 18  2  0
 20 21  2  0
 20 19  1  0
 21 16  1  0
 22 26  1  0
 22 20  1  0
 23 22  1  0
 23 24  1  0
 24 25  1  0
 26 25  1  0
  1 27  1  1
  2 28  1  0
  2 29  1  0
  3 30  1  0
  3 31  1  0
  4 32  1  0
  4 33  1  0
  5 34  1  0
  5 35  1  0
  6 36  1  6
  8 37  1  0
 11 38  1  0
 13 39  1  0
 17 40  1  0
 18 41  1  0
 22 42  1  0
 23 43  1  0
 23 44  1  0
 24 45  1  0
 24 46  1  0
 25 47  1  0
 25 48  1  0
 26 49  1  0
 26 50  1  0
M  ISO  8  27  13  28  13  29  13  30  13  31  13  32  13  33  13  34  13
M  ISO  8  35  13  36  13  37  14  38  14  39  14  40  14  41  14  42  13
M  ISO  8  43  13  44  13  45  13  46  13  47  13  48  13  49  13  50  13
M  END
>  <minimizedAffinity>  (1) 
-6.17801905

>  <minimizedRMSD>  (1) 
2.34679294

$$$$
