
     RDKit          3D

 44 48  0  0  1  0  0  0  0  0999 V2000
   37.8820   29.4430   42.7180 C   0  0  2  0  0  0  0  0  0  0  0  0
   38.1530   28.6610   43.9150 C   0  0  0  0  0  0  0  0  0  0  0  0
   37.0220   27.7400   44.3240 C   0  0  0  0  0  0  0  0  0  0  0  0
   36.1470   27.2780   43.2200 C   0  0  0  0  0  0  0  0  0  0  0  0
   36.8720   27.3070   41.8970 C   0  0  0  0  0  0  0  0  0  0  0  0
   37.2030   28.7280   41.5650 C   0  0  2  0  0  0  0  0  0  0  0  0
   37.9000   28.8670   40.3240 N   0  0  0  0  0  0  0  0  0  0  0  0
   38.8120   28.0290   39.7610 C   0  0  0  0  0  0  0  0  0  0  0  0
   39.2470   28.5030   38.5760 N   0  0  0  0  0  0  0  0  0  0  0  0
   38.6340   29.6770   38.3190 C   0  0  0  0  0  0  0  0  0  0  0  0
   38.6070   30.6510   37.3390 C   0  0  0  0  0  0  0  0  0  0  0  0
   37.8280   31.7470   37.4170 N   0  0  0  0  0  0  0  0  0  0  0  0
   37.0380   31.9100   38.4970 C   0  0  0  0  0  0  0  0  0  0  0  0
   37.0470   30.9790   39.4610 N   0  0  0  0  0  0  0  0  0  0  0  0
   37.8240   29.8690   39.3990 C   0  0  0  0  0  0  0  0  0  0  0  0
   39.0880   30.1550   42.2660 C   0  0  0  0  0  0  0  0  0  0  0  0
   40.2630   29.4410   42.4190 C   0  0  0  0  0  0  0  0  0  0  0  0
   41.4820   30.0190   42.0300 C   0  0  0  0  0  0  0  0  0  0  0  0
   41.4200   31.2940   41.5050 N   0  0  0  0  0  0  0  0  0  0  0  0
   40.2670   31.9380   41.3770 C   0  0  0  0  0  0  0  0  0  0  0  0
   39.0840   31.3810   41.7540 N   0  0  0  0  0  0  0  0  0  0  0  0
   40.1920   33.2690   40.8310 C   0  0  0  0  0  0  0  0  0  0  0  0
   39.0660   34.1350   40.6930 C   0  0  0  0  0  0  0  0  0  0  0  0
   39.2370   35.3640   40.1420 C   0  0  0  0  0  0  0  0  0  0  0  0
   40.5740   35.7260   39.7210 C   0  0  0  0  0  0  0  0  0  0  0  0
   41.5490   34.1650   40.1830 S   0  0  0  0  0  0  0  0  0  0  0  0
   37.1186   30.1608   43.0525 H   0  0  0  0  0  0  0  0  0  0  0  0
   39.0478   28.0481   43.7315 H   0  0  0  0  0  0  0  0  0  0  0  0
   38.2895   29.3787   44.7374 H   0  0  0  0  0  0  0  0  0  0  0  0
   37.4629   26.8526   44.8016 H   0  0  0  0  0  0  0  0  0  0  0  0
   36.3787   28.3292   44.9941 H   0  0  0  0  0  0  0  0  0  0  0  0
   35.8216   26.2480   43.4278 H   0  0  0  0  0  0  0  0  0  0  0  0
   35.2817   27.9542   43.1566 H   0  0  0  0  0  0  0  0  0  0  0  0
   37.7981   26.7179   41.9690 H   0  0  0  0  0  0  0  0  0  0  0  0
   36.2356   26.8757   41.1102 H   0  0  0  0  0  0  0  0  0  0  0  0
   36.2422   29.2411   41.4114 H   0  0  0  0  0  0  0  0  0  0  0  0
   39.1510   27.0858   40.2143 H   0  0  0  0  0  0  0  0  0  0  0  0
   39.2505   30.5256   36.4557 H   0  0  0  0  0  0  0  0  0  0  0  0
   36.3934   32.7969   38.5861 H   0  0  0  0  0  0  0  0  0  0  0  0
   40.2424   28.4262   42.8430 H   0  0  0  0  0  0  0  0  0  0  0  0
   42.4368   29.4836   42.1380 H   0  0  0  0  0  0  0  0  0  0  0  0
   38.0703   33.8102   41.0294 H   0  0  0  0  0  0  0  0  0  0  0  0
   38.3922   36.0579   40.0202 H   0  0  0  0  0  0  0  0  0  0  0  0
   40.9299   36.6577   39.2570 H   0  0  0  0  0  0  0  0  0  0  0  0
  1  2  1  0
  2  3  1  0
  4  3  1  0
  5  4  1  0
  6  5  1  0
  6  1  1  0
  7  6  1  0
  8  7  1  0
  9  8  2  0
 10  9  1  0
 10 15  2  0
 11 12  2  0
 11 10  1  0
 12 13  1  0
 13 14  2  0
 15 14  1  0
 15  7  1  0
 16 17  2  0
 16  1  1  0
 18 17  1  0
 19 18  2  0
 20 19  1  0
 20 21  2  0
 21 16  1  0
 22 20  1  0
 23 22  2  0
 24 23  1  0
 25 24  2  0
 25 26  1  0
 26 22  1  0
  1 27  1  1
  2 28  1  0
  2 29  1  0
  3 30  1  0
  3 31  1  0
  4 32  1  0
  4 33  1  0
  5 34  1  0
  5 35  1  0
  6 36  1  6
  8 37  1  0
 11 38  1  0
 13 39  1  0
 17 40  1  0
 18 41  1  0
 23 42  1  0
 24 43  1  0
 25 44  1  0
M  ISO  8  27  13  28  13  29  13  30  13  31  13  32  13  33  13  34  13
M  ISO  8  35  13  36  13  37  14  38  14  39  14  40  14  41  14  42  14
M  ISO  2  43  14  44  14
M  END
>  <minimizedAffinity>  (1) 
-6.02558899

>  <minimizedRMSD>  (1) 
3.47378874

$$$$
