
     RDKit          3D

 45 49  0  0  1  0  0  0  0  0999 V2000
   38.5810   29.1480   42.6890 C   0  0  2  0  0  0  0  0  0  0  0  0
   38.9350   27.9760   43.4780 C   0  0  0  0  0  0  0  0  0  0  0  0
   37.7550   27.3180   44.1640 C   0  0  0  0  0  0  0  0  0  0  0  0
   36.4540   27.4690   43.4680 C   0  0  0  0  0  0  0  0  0  0  0  0
   36.6380   27.7330   41.9960 C   0  0  0  0  0  0  0  0  0  0  0  0
   37.3370   29.0450   41.8250 C   0  0  2  0  0  0  0  0  0  0  0  0
   37.5670   29.3860   40.4560 N   0  0  0  0  0  0  0  0  0  0  0  0
   37.9530   28.5820   39.4300 C   0  0  0  0  0  0  0  0  0  0  0  0
   38.0640   29.2740   38.2800 N   0  0  0  0  0  0  0  0  0  0  0  0
   37.7530   30.5640   38.5100 C   0  0  0  0  0  0  0  0  0  0  0  0
   37.6620   31.7560   37.8160 C   0  0  0  0  0  0  0  0  0  0  0  0
   37.2990   32.9140   38.3980 N   0  0  0  0  0  0  0  0  0  0  0  0
   37.0110   32.9170   39.7160 C   0  0  0  0  0  0  0  0  0  0  0  0
   37.0930   31.7740   40.4090 N   0  0  0  0  0  0  0  0  0  0  0  0
   37.4570   30.6000   39.8400 C   0  0  0  0  0  0  0  0  0  0  0  0
   39.7320   29.6280   41.9070 C   0  0  0  0  0  0  0  0  0  0  0  0
   40.5700   28.6230   41.4520 C   0  0  0  0  0  0  0  0  0  0  0  0
   41.7050   28.9580   40.7000 C   0  0  0  0  0  0  0  0  0  0  0  0
   41.9110   30.3030   40.4600 N   0  0  0  0  0  0  0  0  0  0  0  0
   41.0760   31.2330   40.9170 C   0  0  0  0  0  0  0  0  0  0  0  0
   39.9760   30.9060   41.6460 N   0  0  0  0  0  0  0  0  0  0  0  0
   41.3100   32.6590   40.6510 C   0  0  0  0  0  0  0  0  0  0  0  0
   42.4080   33.2740   41.2490 C   0  0  0  0  0  0  0  0  0  0  0  0
   42.6260   34.6120   40.9970 C   0  0  0  0  0  0  0  0  0  0  0  0
   41.7780   35.2680   40.1900 N   0  0  0  0  0  0  0  0  0  0  0  0
   40.7200   34.6770   39.6140 C   0  0  0  0  0  0  0  0  0  0  0  0
   40.5000   33.3720   39.8540 N   0  0  0  0  0  0  0  0  0  0  0  0
   38.3012   29.8918   43.4495 H   0  0  0  0  0  0  0  0  0  0  0  0
   39.4033   27.2377   42.8104 H   0  0  0  0  0  0  0  0  0  0  0  0
   39.6149   28.3191   44.2717 H   0  0  0  0  0  0  0  0  0  0  0  0
   37.9699   26.2429   44.2538 H   0  0  0  0  0  0  0  0  0  0  0  0
   37.6432   27.8267   45.1329 H   0  0  0  0  0  0  0  0  0  0  0  0
   35.8723   26.5440   43.5945 H   0  0  0  0  0  0  0  0  0  0  0  0
   35.9271   28.3286   43.9078 H   0  0  0  0  0  0  0  0  0  0  0  0
   37.2435   26.9306   41.5493 H   0  0  0  0  0  0  0  0  0  0  0  0
   35.6584   27.7635   41.4965 H   0  0  0  0  0  0  0  0  0  0  0  0
   36.6442   29.8150   42.1953 H   0  0  0  0  0  0  0  0  0  0  0  0
   38.1495   27.5040   39.5267 H   0  0  0  0  0  0  0  0  0  0  0  0
   37.8965   31.7582   36.7413 H   0  0  0  0  0  0  0  0  0  0  0  0
   36.7116   33.8496   40.2167 H   0  0  0  0  0  0  0  0  0  0  0  0
   40.3466   27.5701   41.6790 H   0  0  0  0  0  0  0  0  0  0  0  0
   42.3954   28.1901   40.3209 H   0  0  0  0  0  0  0  0  0  0  0  0
   43.0839   32.7064   41.9056 H   0  0  0  0  0  0  0  0  0  0  0  0
   43.4818   35.1336   41.4505 H   0  0  0  0  0  0  0  0  0  0  0  0
   40.0461   35.2483   38.9587 H   0  0  0  0  0  0  0  0  0  0  0  0
  1  2  1  0
  2  3  1  0
  4  3  1  0
  5  4  1  0
  6  5  1  0
  6  1  1  0
  7  6  1  0
  8  7  1  0
  9 10  1  0
  9  8  2  0
 10 15  2  0
 11 12  2  0
 11 10  1  0
 12 13  1  0
 13 14  2  0
 15 14  1  0
 15  7  1  0
 16  1  1  0
 17 16  2  0
 18 17  1  0
 19 18  2  0
 19 20  1  0
 20 21  2  0
 21 16  1  0
 22 20  1  0
 22 23  2  0
 24 23  1  0
 25 24  2  0
 26 27  2  0
 26 25  1  0
 27 22  1  0
  1 28  1  1
  2 29  1  0
  2 30  1  0
  3 31  1  0
  3 32  1  0
  4 33  1  0
  4 34  1  0
  5 35  1  0
  5 36  1  0
  6 37  1  1
  8 38  1  0
 11 39  1  0
 13 40  1  0
 17 41  1  0
 18 42  1  0
 23 43  1  0
 24 44  1  0
 26 45  1  0
M  ISO  8  28  13  29  13  30  13  31  13  32  13  33  13  34  13  35  13
M  ISO  8  36  13  37  13  38  14  39  14  40  14  41  14  42  14  43  14
M  ISO  2  44  14  45  14
M  END
>  <minimizedAffinity>  (1) 
-5.86040449

>  <minimizedRMSD>  (1) 
4.2147851

$$$$
