
     RDKit          3D

 49 52  0  0  1  0  0  0  0  0999 V2000
   37.3600   29.2790   42.5700 C   0  0  2  0  0  0  0  0  0  0  0  0
   37.6730   28.9120   43.9450 C   0  0  0  0  0  0  0  0  0  0  0  0
   36.7690   27.8360   44.5100 C   0  0  0  0  0  0  0  0  0  0  0  0
   36.2600   26.8570   43.5250 C   0  0  0  0  0  0  0  0  0  0  0  0
   37.1010   26.8070   42.2780 C   0  0  0  0  0  0  0  0  0  0  0  0
   37.0710   28.1430   41.6070 C   0  0  2  0  0  0  0  0  0  0  0  0
   37.8650   28.1910   40.4190 N   0  0  0  0  0  0  0  0  0  0  0  0
   39.1340   27.7450   40.2230 C   0  0  0  0  0  0  0  0  0  0  0  0
   39.5400   27.9690   38.9580 N   0  0  0  0  0  0  0  0  0  0  0  0
   38.5490   28.5720   38.2740 C   0  0  0  0  0  0  0  0  0  0  0  0
   38.2990   29.0560   37.0030 C   0  0  0  0  0  0  0  0  0  0  0  0
   37.1300   29.6260   36.6550 N   0  0  0  0  0  0  0  0  0  0  0  0
   36.1540   29.7320   37.5820 C   0  0  0  0  0  0  0  0  0  0  0  0
   36.3730   29.2700   38.8210 N   0  0  0  0  0  0  0  0  0  0  0  0
   37.5440   28.6930   39.1890 C   0  0  0  0  0  0  0  0  0  0  0  0
   38.3760   30.1940   42.0210 C   0  0  0  0  0  0  0  0  0  0  0  0
   39.6290   30.0620   42.5960 C   0  0  0  0  0  0  0  0  0  0  0  0
   40.6780   30.8850   42.1600 C   0  0  0  0  0  0  0  0  0  0  0  0
   40.3790   31.7910   41.1620 N   0  0  0  0  0  0  0  0  0  0  0  0
   39.1590   31.8810   40.6400 C   0  0  0  0  0  0  0  0  0  0  0  0
   38.1430   31.0840   41.0630 N   0  0  0  0  0  0  0  0  0  0  0  0
   38.8710   32.8700   39.5630 C   0  0  0  0  0  0  0  0  0  0  0  0
   37.4240   33.2050   39.4520 C   0  0  0  0  0  0  0  0  0  0  0  0
   39.6470   34.1310   39.9100 C   0  0  0  0  0  0  0  0  0  0  0  0
   39.4740   32.3330   38.2960 C   0  0  0  0  0  0  0  0  0  0  0  0
   36.3918   29.7939   42.6565 H   0  0  0  0  0  0  0  0  0  0  0  0
   38.7102   28.5472   43.9793 H   0  0  0  0  0  0  0  0  0  0  0  0
   37.5235   29.8121   44.5594 H   0  0  0  0  0  0  0  0  0  0  0  0
   37.3342   27.2849   45.2760 H   0  0  0  0  0  0  0  0  0  0  0  0
   35.8849   28.3579   44.9051 H   0  0  0  0  0  0  0  0  0  0  0  0
   36.2558   25.8594   43.9884 H   0  0  0  0  0  0  0  0  0  0  0  0
   35.2467   27.1706   43.2336 H   0  0  0  0  0  0  0  0  0  0  0  0
   38.1376   26.5527   42.5440 H   0  0  0  0  0  0  0  0  0  0  0  0
   36.7016   26.0428   41.5949 H   0  0  0  0  0  0  0  0  0  0  0  0
   36.0361   28.2930   41.2657 H   0  0  0  0  0  0  0  0  0  0  0  0
   39.7497   27.2635   40.9970 H   0  0  0  0  0  0  0  0  0  0  0  0
   39.0898   28.9716   36.2431 H   0  0  0  0  0  0  0  0  0  0  0  0
   35.1893   30.1927   37.3231 H   0  0  0  0  0  0  0  0  0  0  0  0
   39.8002   29.3180   43.3880 H   0  0  0  0  0  0  0  0  0  0  0  0
   41.6873   30.8122   42.5912 H   0  0  0  0  0  0  0  0  0  0  0  0
   36.9925   33.3049   40.4589 H   0  0  0  0  0  0  0  0  0  0  0  0
   37.3080   34.1538   38.9076 H   0  0  0  0  0  0  0  0  0  0  0  0
   36.9028   32.4038   38.9076 H   0  0  0  0  0  0  0  0  0  0  0  0
   39.7101   34.2335   41.0034 H   0  0  0  0  0  0  0  0  0  0  0  0
   40.6610   34.0651   39.4888 H   0  0  0  0  0  0  0  0  0  0  0  0
   39.1312   35.0065   39.4888 H   0  0  0  0  0  0  0  0  0  0  0  0
   40.2743   31.6203   38.5442 H   0  0  0  0  0  0  0  0  0  0  0  0
   38.6973   31.8220   37.7081 H   0  0  0  0  0  0  0  0  0  0  0  0
   39.8919   33.1635   37.7081 H   0  0  0  0  0  0  0  0  0  0  0  0
  1  2  1  0
  2  3  1  0
  4  3  1  0
  5  4  1  0
  6  5  1  0
  6  1  1  0
  7  6  1  0
  8  7  1  0
  9  8  2  0
 10  9  1  0
 10 15  2  0
 11 10  1  0
 12 11  2  0
 12 13  1  0
 13 14  2  0
 14 15  1  0
 15  7  1  0
 16  1  1  0
 16 17  2  0
 18 17  1  0
 19 18  2  0
 20 21  2  0
 20 19  1  0
 21 16  1  0
 22 24  1  0
 22 20  1  0
 23 22  1  0
 25 22  1  0
  1 26  1  1
  2 27  1  0
  2 28  1  0
  3 29  1  0
  3 30  1  0
  4 31  1  0
  4 32  1  0
  5 33  1  0
  5 34  1  0
  6 35  1  6
  8 36  1  0
 11 37  1  0
 13 38  1  0
 17 39  1  0
 18 40  1  0
 23 41  1  0
 23 42  1  0
 23 43  1  0
 24 44  1  0
 24 45  1  0
 24 46  1  0
 25 47  1  0
 25 48  1  0
 25 49  1  0
M  ISO  8  26  13  27  13  28  13  29  13  30  13  31  13  32  13  33  13
M  ISO  8  34  13  35  13  36  14  37  14  38  14  39  14  40  14  41   8
M  ISO  8  42   8  43   8  44   8  45   8  46   8  47   8  48   8  49   8
M  END
>  <minimizedAffinity>  (1) 
-5.81868792

>  <minimizedRMSD>  (1) 
2.24766517

$$$$
