
     RDKit          3D

 40 43  0  0  1  0  0  0  0  0999 V2000
   37.2640   29.2800   42.5300 C   0  0  2  0  0  0  0  0  0  0  0  0
   37.6310   28.9120   43.8910 C   0  0  0  0  0  0  0  0  0  0  0  0
   36.8340   27.7470   44.4420 C   0  0  0  0  0  0  0  0  0  0  0  0
   36.3980   26.7480   43.4400 C   0  0  0  0  0  0  0  0  0  0  0  0
   37.2230   26.8030   42.1830 C   0  0  0  0  0  0  0  0  0  0  0  0
   37.0610   28.1450   41.5430 C   0  0  2  0  0  0  0  0  0  0  0  0
   37.8300   28.2920   40.3470 N   0  0  0  0  0  0  0  0  0  0  0  0
   39.1330   27.9760   40.1250 C   0  0  0  0  0  0  0  0  0  0  0  0
   39.4970   28.2610   38.8600 N   0  0  0  0  0  0  0  0  0  0  0  0
   38.4420   28.7780   38.2010 C   0  0  0  0  0  0  0  0  0  0  0  0
   38.1270   29.2590   36.9430 C   0  0  0  0  0  0  0  0  0  0  0  0
   36.9020   29.7190   36.6200 N   0  0  0  0  0  0  0  0  0  0  0  0
   35.9390   29.7100   37.5620 C   0  0  0  0  0  0  0  0  0  0  0  0
   36.2180   29.2490   38.7900 N   0  0  0  0  0  0  0  0  0  0  0  0
   37.4450   28.7830   39.1300 C   0  0  0  0  0  0  0  0  0  0  0  0
   38.1850   30.2950   41.9900 C   0  0  0  0  0  0  0  0  0  0  0  0
   39.4590   30.2530   42.5330 C   0  0  0  0  0  0  0  0  0  0  0  0
   40.4230   31.1770   42.1020 C   0  0  0  0  0  0  0  0  0  0  0  0
   40.0220   32.0860   41.1410 N   0  0  0  0  0  0  0  0  0  0  0  0
   38.7860   32.0860   40.6510 C   0  0  0  0  0  0  0  0  0  0  0  0
   37.8520   31.1910   41.0680 N   0  0  0  0  0  0  0  0  0  0  0  0
   38.3780   33.0840   39.6070 C   0  0  0  0  0  0  0  0  0  0  0  0
   37.1590   33.6690   39.9620 F   0  0  0  0  0  0  0  0  0  0  0  0
   39.2870   34.0930   39.4650 F   0  0  0  0  0  0  0  0  0  0  0  0
   38.1690   32.4810   38.3760 F   0  0  0  0  0  0  0  0  0  0  0  0
   36.2547   29.7028   42.6422 H   0  0  0  0  0  0  0  0  0  0  0  0
   38.6968   28.6400   43.9020 H   0  0  0  0  0  0  0  0  0  0  0  0
   37.4136   29.7812   44.5292 H   0  0  0  0  0  0  0  0  0  0  0  0
   37.4573   27.2311   45.1872 H   0  0  0  0  0  0  0  0  0  0  0  0
   35.9133   28.1795   44.8607 H   0  0  0  0  0  0  0  0  0  0  0  0
   36.4888   25.7436   43.8791 H   0  0  0  0  0  0  0  0  0  0  0  0
   35.3563   26.9752   43.1693 H   0  0  0  0  0  0  0  0  0  0  0  0
   38.2821   26.6399   42.4313 H   0  0  0  0  0  0  0  0  0  0  0  0
   36.8866   26.0202   41.4872 H   0  0  0  0  0  0  0  0  0  0  0  0
   36.0119   28.2077   41.2181 H   0  0  0  0  0  0  0  0  0  0  0  0
   39.8042   27.5431   40.8814 H   0  0  0  0  0  0  0  0  0  0  0  0
   38.9113   29.2664   36.1717 H   0  0  0  0  0  0  0  0  0  0  0  0
   34.9300   30.0786   37.3253 H   0  0  0  0  0  0  0  0  0  0  0  0
   39.7126   29.5017   43.2954 H   0  0  0  0  0  0  0  0  0  0  0  0
   41.4453   31.1779   42.5080 H   0  0  0  0  0  0  0  0  0  0  0  0
  1  2  1  0
  2  3  1  0
  4  3  1  0
  5  4  1  0
  6  5  1  0
  6  1  1  0
  7  6  1  0
  8  7  1  0
  9  8  2  0
 10  9  1  0
 10 15  2  0
 11 10  1  0
 12 11  2  0
 12 13  1  0
 13 14  2  0
 14 15  1  0
 15  7  1  0
 16  1  1  0
 16 17  2  0
 18 17  1  0
 19 18  2  0
 20 21  2  0
 20 19  1  0
 21 16  1  0
 22 23  1  0
 22 20  1  0
 24 22  1  0
 25 22  1  0
  1 26  1  1
  2 27  1  0
  2 28  1  0
  3 29  1  0
  3 30  1  0
  4 31  1  0
  4 32  1  0
  5 33  1  0
  5 34  1  0
  6 35  1  6
  8 36  1  0
 11 37  1  0
 13 38  1  0
 17 39  1  0
 18 40  1  0
M  ISO  8  26  13  27  13  28  13  29  13  30  13  31  13  32  13  33  13
M  ISO  7  34  13  35  13  36  14  37  14  38  14  39  14  40  14
M  END
>  <minimizedAffinity>  (1) 
-5.80271244

>  <minimizedRMSD>  (1) 
1.99674296

$$$$
