
     RDKit          3D

 38 41  0  0  1  0  0  0  0  0999 V2000
   36.9740   29.5470   42.0450 C   0  0  2  0  0  0  0  0  0  0  0  0
   37.7720   29.2520   43.2260 C   0  0  0  0  0  0  0  0  0  0  0  0
   37.3020   28.0350   43.9980 C   0  0  0  0  0  0  0  0  0  0  0  0
   36.6530   26.9810   43.1830 C   0  0  0  0  0  0  0  0  0  0  0  0
   37.0370   27.0650   41.7310 C   0  0  0  0  0  0  0  0  0  0  0  0
   36.5700   28.3720   41.1730 C   0  0  2  0  0  0  0  0  0  0  0  0
   36.9120   28.5460   39.7970 N   0  0  0  0  0  0  0  0  0  0  0  0
   38.1420   28.5470   39.2160 C   0  0  0  0  0  0  0  0  0  0  0  0
   38.0530   28.7400   37.8850 N   0  0  0  0  0  0  0  0  0  0  0  0
   36.7560   28.8750   37.5410 C   0  0  0  0  0  0  0  0  0  0  0  0
   35.9890   29.0820   36.4090 C   0  0  0  0  0  0  0  0  0  0  0  0
   34.6550   29.1650   36.4380 N   0  0  0  0  0  0  0  0  0  0  0  0
   34.0120   29.0400   37.6270 C   0  0  0  0  0  0  0  0  0  0  0  0
   34.7340   28.8380   38.7370 N   0  0  0  0  0  0  0  0  0  0  0  0
   36.0880   28.7520   38.7230 C   0  0  0  0  0  0  0  0  0  0  0  0
   37.5950   30.6160   41.2430 C   0  0  0  0  0  0  0  0  0  0  0  0
   38.9800   30.6180   41.2690 C   0  0  0  0  0  0  0  0  0  0  0  0
   39.6810   31.5960   40.5480 C   0  0  0  0  0  0  0  0  0  0  0  0
   38.9170   32.5090   39.8440 N   0  0  0  0  0  0  0  0  0  0  0  0
   37.5900   32.4640   39.8490 C   0  0  0  0  0  0  0  0  0  0  0  0
   36.9110   31.5180   40.5490 N   0  0  0  0  0  0  0  0  0  0  0  0
   36.8970   33.4340   39.1040 O   0  0  0  0  0  0  0  0  0  0  0  0
   36.0160   29.8892   42.4635 H   0  0  0  0  0  0  0  0  0  0  0  0
   38.8108   29.0800   42.9077 H   0  0  0  0  0  0  0  0  0  0  0  0
   37.6738   30.1151   43.9008 H   0  0  0  0  0  0  0  0  0  0  0  0
   38.1760   27.5899   44.4960 H   0  0  0  0  0  0  0  0  0  0  0  0
   36.5334   28.3959   44.6972 H   0  0  0  0  0  0  0  0  0  0  0  0
   36.9540   25.9972   43.5722 H   0  0  0  0  0  0  0  0  0  0  0  0
   35.5646   27.1243   43.2522 H   0  0  0  0  0  0  0  0  0  0  0  0
   38.1305   26.9938   41.6350 H   0  0  0  0  0  0  0  0  0  0  0  0
   36.5687   26.2383   41.1767 H   0  0  0  0  0  0  0  0  0  0  0  0
   35.4706   28.3422   41.1942 H   0  0  0  0  0  0  0  0  0  0  0  0
   39.0869   28.4083   39.7618 H   0  0  0  0  0  0  0  0  0  0  0  0
   36.5001   29.1830   35.4402 H   0  0  0  0  0  0  0  0  0  0  0  0
   32.9150   29.1036   37.6781 H   0  0  0  0  0  0  0  0  0  0  0  0
   39.5252   29.8595   41.8498 H   0  0  0  0  0  0  0  0  0  0  0  0
   40.7803   31.6347   40.5428 H   0  0  0  0  0  0  0  0  0  0  0  0
   35.9072   33.4300   39.0855 H   0  0  0  0  0  0  0  0  0  0  0  0
  1  2  1  0
  2  3  1  0
  4  3  1  0
  5  4  1  0
  6  5  1  0
  6  1  1  0
  7  6  1  0
  8  7  1  0
  9  8  2  0
 10  9  1  0
 10 15  2  0
 11 12  2  0
 11 10  1  0
 12 13  1  0
 13 14  2  0
 15 14  1  0
 15  7  1  0
 16 17  2  0
 16  1  1  0
 18 17  1  0
 19 20  1  0
 19 18  2  0
 20 21  2  0
 21 16  1  0
 22 20  1  0
  1 23  1  1
  2 24  1  0
  2 25  1  0
  3 26  1  0
  3 27  1  0
  4 28  1  0
  4 29  1  0
  5 30  1  0
  5 31  1  0
  6 32  1  6
  8 33  1  0
 11 34  1  0
 13 35  1  0
 17 36  1  0
 18 37  1  0
 22 38  1  0
M  ISO  8  23  13  24  13  25  13  26  13  27  13  28  13  29  13  30  13
M  ISO  8  31  13  32  13  33  14  34  14  35  14  36  14  37  14  38   3
M  END
>  <minimizedAffinity>  (1) 
-5.74761152

>  <minimizedRMSD>  (1) 
0.49837473

$$$$
