
     RDKit          3D

 13 13  0  0  0  0  0  0  0  0999 V2000
   36.7010   29.3340   41.4360 C   0  0  0  0  0  0  0  0  0  0  0  0
   37.5670   30.3500   41.0080 C   0  0  0  0  0  0  0  0  0  0  0  0
   38.7120   30.6130   41.7660 C   0  0  0  0  0  0  0  0  0  0  0  0
   38.9350   29.8600   42.8960 N   0  0  0  0  0  0  0  0  0  0  0  0
   38.0700   28.8910   43.2670 C   0  0  0  0  0  0  0  0  0  0  0  0
   36.9670   28.6220   42.5570 N   0  0  0  0  0  0  0  0  0  0  0  0
   35.4570   28.9630   40.7180 C   0  0  0  0  0  0  0  0  0  0  0  0
   37.3506   30.9270   40.0968 H   0  0  0  0  0  0  0  0  0  0  0  0
   39.4172   31.4023   41.4665 H   0  0  0  0  0  0  0  0  0  0  0  0
   38.2772   28.3076   44.1762 H   0  0  0  0  0  0  0  0  0  0  0  0
   34.6685   28.7278   41.4481 H   0  0  0  0  0  0  0  0  0  0  0  0
   35.1333   29.8037   40.0868 H   0  0  0  0  0  0  0  0  0  0  0  0
   35.6467   28.0823   40.0868 H   0  0  0  0  0  0  0  0  0  0  0  0
  1  6  2  0
  2  1  1  0
  2  3  2  0
  3  4  1  0
  4  5  2  0
  6  5  1  0
  7  1  1  0
  2  8  1  0
  3  9  1  0
  5 10  1  0
  7 11  1  0
  7 12  1  0
  7 13  1  0
M  ISO  6   8  14   9  14  10  14  11   8  12   8  13   8
M  END
>  <minimizedAffinity>  (1) 
-2.37827873

>  <minimizedRMSD>  (1) 
3.40167379

$$$$
