
     RDKit          3D

 26 27  0  0  0  0  0  0  0  0999 V2000
   38.6850   29.6980   40.8570 C   0  0  0  0  0  0  0  0  0  0  0  0
   38.4260   31.1140   40.5300 C   0  0  0  0  0  0  0  0  0  0  0  0
   39.1010   32.1760   41.1400 C   0  0  0  0  0  0  0  0  0  0  0  0
   38.7880   33.4760   40.7660 C   0  0  0  0  0  0  0  0  0  0  0  0
   37.8170   33.6610   39.8020 N   0  0  0  0  0  0  0  0  0  0  0  0
   37.1920   32.6020   39.2430 C   0  0  0  0  0  0  0  0  0  0  0  0
   37.4860   31.3490   39.5950 N   0  0  0  0  0  0  0  0  0  0  0  0
   37.5050   28.9650   41.2660 N   0  0  0  0  0  0  0  0  0  0  0  0
   37.4950   27.6150   40.9010 C   0  0  0  0  0  0  0  0  0  0  0  0
   37.1660   26.5930   41.9210 C   0  0  0  0  0  0  0  0  0  0  0  0
   36.7780   27.1180   43.2790 C   0  0  0  0  0  0  0  0  0  0  0  0
   37.6960   28.3120   43.5420 C   0  0  0  0  0  0  0  0  0  0  0  0
   37.1520   29.3540   42.5770 C   0  0  0  0  0  0  0  0  0  0  0  0
   39.4176   29.6602   41.6767 H   0  0  0  0  0  0  0  0  0  0  0  0
   39.0549   29.2205   39.9377 H   0  0  0  0  0  0  0  0  0  0  0  0
   39.8683   31.9844   41.9045 H   0  0  0  0  0  0  0  0  0  0  0  0
   39.2995   34.3348   41.2251 H   0  0  0  0  0  0  0  0  0  0  0  0
   36.4211   32.7770   38.4781 H   0  0  0  0  0  0  0  0  0  0  0  0
   37.7287   27.3158   39.8686 H   0  0  0  0  0  0  0  0  0  0  0  0
   37.2027   25.5159   41.7006 H   0  0  0  0  0  0  0  0  0  0  0  0
   35.7252   27.4368   43.2799 H   0  0  0  0  0  0  0  0  0  0  0  0
   36.8838   26.3470   44.0564 H   0  0  0  0  0  0  0  0  0  0  0  0
   37.6168   28.6540   44.5845 H   0  0  0  0  0  0  0  0  0  0  0  0
   38.7632   28.0892   43.3957 H   0  0  0  0  0  0  0  0  0  0  0  0
   37.5894   30.3373   42.8046 H   0  0  0  0  0  0  0  0  0  0  0  0
   36.0585   29.4265   42.6714 H   0  0  0  0  0  0  0  0  0  0  0  0
  1  8  1  0
  2  1  1  0
  2  3  2  0
  4  3  1  0
  5  4  2  0
  6  7  2  0
  6  5  1  0
  7  2  1  0
  8 13  1  0
  9  8  1  0
  9 10  2  0
 10 11  1  0
 11 12  1  0
 13 12  1  0
  1 14  1  0
  1 15  1  0
  3 16  1  0
  4 17  1  0
  6 18  1  0
  9 19  1  0
 10 20  1  0
 11 21  1  0
 11 22  1  0
 12 23  1  0
 12 24  1  0
 13 25  1  0
 13 26  1  0
M  ISO  8  14   8  15   8  16  14  17  14  18  14  19  13  20  13  21  13
M  ISO  5  22  13  23  13  24  13  25  13  26  13
M  END
>  <minimizedAffinity>  (1) 
-3.90230155

>  <minimizedRMSD>  (1) 
4.33434105

$$$$
