
     RDKit          3D

 20 20  0  0  0  0  0  0  0  0999 V2000
   36.7260   28.9890   39.5510 C   0  0  0  0  0  0  0  0  0  0  0  0
   35.8250   29.0140   38.3780 C   0  0  0  0  0  0  0  0  0  0  0  0
   34.4440   28.8340   38.4710 C   0  0  0  0  0  0  0  0  0  0  0  0
   33.7010   28.8780   37.2960 C   0  0  0  0  0  0  0  0  0  0  0  0
   34.3630   29.0960   36.1090 N   0  0  0  0  0  0  0  0  0  0  0  0
   35.6950   29.2640   36.0730 C   0  0  0  0  0  0  0  0  0  0  0  0
   36.4320   29.2260   37.1860 N   0  0  0  0  0  0  0  0  0  0  0  0
   37.2680   30.3240   39.6800 N   0  0  0  0  0  0  0  0  0  0  0  0
   36.5550   31.2530   40.4750 C   0  0  0  0  0  0  0  0  0  0  0  0
   35.7000   30.9290   41.3800 N   0  0  0  0  0  0  0  0  0  0  0  0
   36.7760   32.6460   40.2850 N   0  0  0  0  0  0  0  0  0  0  0  0
   35.4390   29.9660   41.6270 H   0  0  0  0  0  0  0  0  0  0  0  0
   37.5371   28.2631   39.3920 H   0  0  0  0  0  0  0  0  0  0  0  0
   36.1863   28.6887   40.4613 H   0  0  0  0  0  0  0  0  0  0  0  0
   33.9585   28.6627   39.4431 H   0  0  0  0  0  0  0  0  0  0  0  0
   32.6096   28.7417   37.3149 H   0  0  0  0  0  0  0  0  0  0  0  0
   36.1896   29.4366   35.1058 H   0  0  0  0  0  0  0  0  0  0  0  0
   38.1444   30.5899   39.2086 H   0  0  0  0  0  0  0  0  0  0  0  0
   36.2631   33.3316   40.8575 H   0  0  0  0  0  0  0  0  0  0  0  0
   37.4489   32.9686   39.5750 H   0  0  0  0  0  0  0  0  0  0  0  0
  1  8  1  0
  2  3  2  0
  2  1  1  0
  4  3  1  0
  5  4  2  0
  6  5  1  0
  6  7  2  0
  7  2  1  0
  8  9  1  0
  9 10  2  0
 10 12  1  0
 11  9  1  0
  1 13  1  0
  1 14  1  0
  3 15  1  0
  4 16  1  0
  6 17  1  0
  8 18  1  0
 11 19  1  0
 11 20  1  0
M  ISO  5  13   8  14   8  15  14  16  14  17  14
M  END
>  <minimizedAffinity>  (1) 
-3.70567346

>  <minimizedRMSD>  (1) 
5.27304792

$$$$
