
     RDKit          3D

 25 26  0  0  0  0  0  0  0  0999 V2000
   36.9030   29.6180   41.6660 C   0  0  0  0  0  0  0  0  0  0  0  0
   38.1340   29.8490   42.2840 C   0  0  0  0  0  0  0  0  0  0  0  0
   38.7080   28.8270   43.0440 C   0  0  0  0  0  0  0  0  0  0  0  0
   38.0280   27.6430   43.1440 N   0  0  0  0  0  0  0  0  0  0  0  0
   36.8430   27.4610   42.5330 C   0  0  0  0  0  0  0  0  0  0  0  0
   36.2900   28.4290   41.8080 N   0  0  0  0  0  0  0  0  0  0  0  0
   36.2050   30.6250   40.8410 C   0  0  0  0  0  0  0  0  0  0  0  0
   36.9130   30.7040   39.5920 N   0  0  0  0  0  0  0  0  0  0  0  0
   37.0990   32.0440   39.1220 C   0  0  0  0  0  0  0  0  0  0  0  0
   37.7210   31.7990   37.7460 C   0  0  0  0  0  0  0  0  0  0  0  0
   37.3160   30.3680   37.3920 C   0  0  0  0  0  0  0  0  0  0  0  0
   36.2670   30.0790   38.4740 C   0  0  0  0  0  0  0  0  0  0  0  0
   38.6424   30.8183   42.1743 H   0  0  0  0  0  0  0  0  0  0  0  0
   39.6762   28.9692   43.5464 H   0  0  0  0  0  0  0  0  0  0  0  0
   36.3237   26.4966   42.6348 H   0  0  0  0  0  0  0  0  0  0  0  0
   35.1638   30.3157   40.6669 H   0  0  0  0  0  0  0  0  0  0  0  0
   36.1852   31.6024   41.3452 H   0  0  0  0  0  0  0  0  0  0  0  0
   36.1409   32.5783   39.0409 H   0  0  0  0  0  0  0  0  0  0  0  0
   37.7109   32.6721   39.7862 H   0  0  0  0  0  0  0  0  0  0  0  0
   37.3226   32.5099   37.0071 H   0  0  0  0  0  0  0  0  0  0  0  0
   38.8124   31.9359   37.7500 H   0  0  0  0  0  0  0  0  0  0  0  0
   36.8812   30.3099   36.3832 H   0  0  0  0  0  0  0  0  0  0  0  0
   38.1524   29.6539   37.3718 H   0  0  0  0  0  0  0  0  0  0  0  0
   35.2985   30.5469   38.2438 H   0  0  0  0  0  0  0  0  0  0  0  0
   36.0107   29.0180   38.6105 H   0  0  0  0  0  0  0  0  0  0  0  0
  1  6  1  0
  1  2  2  0
  2  3  1  0
  3  4  2  0
  5  4  1  0
  6  5  2  0
  7  1  1  0
  8  7  1  0
  9  8  1  0
 10  9  1  0
 11 10  1  0
 11 12  1  0
 12  8  1  0
  2 13  1  0
  3 14  1  0
  5 15  1  0
  7 16  1  0
  7 17  1  0
  9 18  1  0
  9 19  1  0
 10 20  1  0
 10 21  1  0
 11 22  1  0
 11 23  1  0
 12 24  1  0
 12 25  1  0
M  ISO  8  13  14  14  14  15  14  16   8  17   8  18  13  19  13  20  13
M  ISO  5  21  13  22  13  23  13  24  13  25  13
M  END
>  <minimizedAffinity>  (1) 
-3.66811967

>  <minimizedRMSD>  (1) 
3.29187799

$$$$
