
     RDKit          3D

 25 26  0  0  0  0  0  0  0  0999 V2000
   37.4920   29.9480   42.0310 C   0  0  0  0  0  0  0  0  0  0  0  0
   37.7550   31.0830   41.1270 C   0  0  0  0  0  0  0  0  0  0  0  0
   36.8600   31.5220   40.1370 C   0  0  0  0  0  0  0  0  0  0  0  0
   37.2250   32.6100   39.3440 C   0  0  0  0  0  0  0  0  0  0  0  0
   38.4400   33.1970   39.5730 N   0  0  0  0  0  0  0  0  0  0  0  0
   39.2740   32.7380   40.5410 C   0  0  0  0  0  0  0  0  0  0  0  0
   38.9390   31.7020   41.3050 N   0  0  0  0  0  0  0  0  0  0  0  0
   37.5710   28.6740   41.3900 N   0  0  0  0  0  0  0  0  0  0  0  0
   38.8440   28.0250   41.4520 C   0  0  0  0  0  0  0  0  0  0  0  0
   39.1750   27.3180   42.7010 C   0  0  0  0  0  0  0  0  0  0  0  0
   38.2560   27.3160   43.7620 N   0  0  0  0  0  0  0  0  0  0  0  0
   36.8840   27.5360   43.4530 C   0  0  0  0  0  0  0  0  0  0  0  0
   36.5970   27.7930   42.0070 C   0  0  0  0  0  0  0  0  0  0  0  0
   38.2313   29.9737   42.8451 H   0  0  0  0  0  0  0  0  0  0  0  0
   36.4609   30.0606   42.3972 H   0  0  0  0  0  0  0  0  0  0  0  0
   35.8928   31.0189   39.9905 H   0  0  0  0  0  0  0  0  0  0  0  0
   36.5550   32.9857   38.5566 H   0  0  0  0  0  0  0  0  0  0  0  0
   40.2445   33.2319   40.6963 H   0  0  0  0  0  0  0  0  0  0  0  0
   39.5447   28.0526   40.6045 H   0  0  0  0  0  0  0  0  0  0  0  0
   40.1371   26.7944   42.8018 H   0  0  0  0  0  0  0  0  0  0  0  0
   38.5643   27.1604   44.7324 H   0  0  0  0  0  0  0  0  0  0  0  0
   36.3173   26.6448   43.7607 H   0  0  0  0  0  0  0  0  0  0  0  0
   36.5886   28.4478   43.9929 H   0  0  0  0  0  0  0  0  0  0  0  0
   35.6020   28.2544   41.9224 H   0  0  0  0  0  0  0  0  0  0  0  0
   36.6439   26.8272   41.4825 H   0  0  0  0  0  0  0  0  0  0  0  0
  2  7  1  0
  2  1  1  0
  3  2  2  0
  4  5  2  0
  4  3  1  0
  5  6  1  0
  6  7  2  0
  8  9  1  0
  8 13  1  0
  8  1  1  0
  9 10  2  0
 10 11  1  0
 12 11  1  0
 13 12  1  0
  1 14  1  0
  1 15  1  0
  3 16  1  0
  4 17  1  0
  6 18  1  0
  9 19  1  0
 10 20  1  0
 11 21  1  0
 12 22  1  0
 12 23  1  0
 13 24  1  0
 13 25  1  0
M  ISO  8  14   8  15   8  16  14  17  14  18  14  19  13  20  13  22  13
M  ISO  3  23  13  24  13  25  13
M  END
>  <minimizedAffinity>  (1) 
-3.57515669

>  <minimizedRMSD>  (1) 
3.49682236

$$$$
