
     RDKit          3D

 20 21  0  0  0  0  0  0  0  0999 V2000
   35.3410   29.0670   40.6400 C   0  0  0  0  0  0  0  0  0  0  0  0
   36.3270   28.0520   41.1070 C   0  0  0  0  0  0  0  0  0  0  0  0
   36.6170   27.8490   42.4510 C   0  0  0  0  0  0  0  0  0  0  0  0
   37.5670   26.8620   42.7770 C   0  0  0  0  0  0  0  0  0  0  0  0
   38.1520   26.1560   41.7560 N   0  0  0  0  0  0  0  0  0  0  0  0
   37.8290   26.4000   40.4760 C   0  0  0  0  0  0  0  0  0  0  0  0
   36.9330   27.3300   40.1450 N   0  0  0  0  0  0  0  0  0  0  0  0
   36.0750   30.2090   40.0290 C   0  0  0  0  0  0  0  0  0  0  0  0
   36.6010   31.2490   40.7730 C   0  0  0  0  0  0  0  0  0  0  0  0
   37.2350   32.1840   39.9690 C   0  0  0  0  0  0  0  0  0  0  0  0
   37.0660   31.6670   38.7270 N   0  0  0  0  0  0  0  0  0  0  0  0
   36.3950   30.5230   38.7600 N   0  0  0  0  0  0  0  0  0  0  0  0
   34.6727   28.6154   39.8921 H   0  0  0  0  0  0  0  0  0  0  0  0
   34.7416   29.4226   41.4911 H   0  0  0  0  0  0  0  0  0  0  0  0
   36.1205   28.4401   43.2346 H   0  0  0  0  0  0  0  0  0  0  0  0
   37.8338   26.6617   43.8252 H   0  0  0  0  0  0  0  0  0  0  0  0
   38.3161   25.8177   39.6800 H   0  0  0  0  0  0  0  0  0  0  0  0
   36.5258   31.3252   41.8678 H   0  0  0  0  0  0  0  0  0  0  0  0
   37.7465   33.1119   40.2645 H   0  0  0  0  0  0  0  0  0  0  0  0
   37.4155   32.1080   37.8643 H   0  0  0  0  0  0  0  0  0  0  0  0
  1  2  1  0
  2  3  2  0
  3  4  1  0
  5  4  2  0
  6  5  1  0
  7  6  2  0
  7  2  1  0
  8  1  1  0
  8  9  1  0
 10  9  2  0
 11 12  1  0
 11 10  1  0
 12  8  2  0
  1 13  1  0
  1 14  1  0
  3 15  1  0
  4 16  1  0
  6 17  1  0
  9 18  1  0
 10 19  1  0
 11 20  1  0
M  ISO  8  13   8  14   8  15  14  16  14  17  14  18  14  19  14  20   9
M  END
>  <minimizedAffinity>  (1) 
-3.56120968

>  <minimizedRMSD>  (1) 
3.70412469

$$$$
