
     RDKit          3D

 23 24  0  0  0  0  0  0  0  0999 V2000
   36.7830   31.1650   40.8100 C   0  0  0  0  0  0  0  0  0  0  0  0
   37.1870   29.9930   41.6030 C   0  0  0  0  0  0  0  0  0  0  0  0
   38.3300   29.9400   42.3980 C   0  0  0  0  0  0  0  0  0  0  0  0
   38.6060   28.7740   43.1010 C   0  0  0  0  0  0  0  0  0  0  0  0
   37.7420   27.7170   42.9860 N   0  0  0  0  0  0  0  0  0  0  0  0
   36.6340   27.8030   42.1990 C   0  0  0  0  0  0  0  0  0  0  0  0
   36.3540   28.9150   41.5180 N   0  0  0  0  0  0  0  0  0  0  0  0
   37.8230   31.5540   39.8780 N   0  0  0  0  0  0  0  0  0  0  0  0
   38.0090   30.6980   38.8460 C   0  0  0  0  0  0  0  0  0  0  0  0
   38.9580   30.9140   37.8640 C   0  0  0  0  0  0  0  0  0  0  0  0
   39.7520   32.0460   37.9310 C   0  0  0  0  0  0  0  0  0  0  0  0
   40.6280   32.2840   37.0600 O   0  0  0  0  0  0  0  0  0  0  0  0
   39.5310   32.8680   38.9740 N   0  0  0  0  0  0  0  0  0  0  0  0
   38.6050   32.6500   39.9240 C   0  0  0  0  0  0  0  0  0  0  0  0
   38.3910   33.4080   40.8990 O   0  0  0  0  0  0  0  0  0  0  0  0
   35.8706   30.9194   40.2468 H   0  0  0  0  0  0  0  0  0  0  0  0
   36.6016   32.0040   41.4979 H   0  0  0  0  0  0  0  0  0  0  0  0
   39.0029   30.8073   42.4679 H   0  0  0  0  0  0  0  0  0  0  0  0
   39.5003   28.7009   43.7372 H   0  0  0  0  0  0  0  0  0  0  0  0
   35.9572   26.9391   42.1235 H   0  0  0  0  0  0  0  0  0  0  0  0
   37.3814   29.7965   38.7864 H   0  0  0  0  0  0  0  0  0  0  0  0
   39.0805   30.1956   37.0401 H   0  0  0  0  0  0  0  0  0  0  0  0
   40.1080   33.7179   39.0489 H   0  0  0  0  0  0  0  0  0  0  0  0
  1  2  1  0
  2  3  2  0
  3  4  1  0
  5  4  2  0
  6  5  1  0
  7  2  1  0
  7  6  2  0
  8 14  1  0
  8  1  1  0
  9  8  1  0
 10 11  1  0
 10  9  2  0
 11 13  1  0
 12 11  2  0
 13 14  1  0
 14 15  2  0
  1 16  1  0
  1 17  1  0
  3 18  1  0
  4 19  1  0
  6 20  1  0
  9 21  1  0
 10 22  1  0
 13 23  1  0
M  ISO  8  16   8  17   8  18  14  19  14  20  14  21  14  22  14  23   9
M  END
>  <minimizedAffinity>  (1) 
-4.1325345

>  <minimizedRMSD>  (1) 
4.77525282

$$$$
