
     RDKit          3D

 37 40  0  0  0  0  0  0  0  0999 V2000
   37.5930   30.9570   40.1940 N   0  0  0  0  0  0  0  0  0  0  0  0
   37.4740   30.5070   38.9350 C   0  0  0  0  0  0  0  0  0  0  0  0
   38.3460   30.8590   37.9340 C   0  0  0  0  0  0  0  0  0  0  0  0
   39.4010   31.7170   38.2260 C   0  0  0  0  0  0  0  0  0  0  0  0
   40.2270   32.0710   37.3510 O   0  0  0  0  0  0  0  0  0  0  0  0
   39.4830   32.1410   39.4940 N   0  0  0  0  0  0  0  0  0  0  0  0
   38.6200   31.7900   40.4680 C   0  0  0  0  0  0  0  0  0  0  0  0
   38.6920   32.1850   41.6630 O   0  0  0  0  0  0  0  0  0  0  0  0
   40.5280   33.0250   39.8970 C   0  0  0  0  0  0  0  0  0  0  0  0
   41.7120   32.4100   40.0800 N   0  0  0  0  0  0  0  0  0  0  0  0
   42.8190   33.1090   40.4680 C   0  0  0  0  0  0  0  0  0  0  0  0
   42.7010   34.4380   40.6650 N   0  0  0  0  0  0  0  0  0  0  0  0
   41.5240   35.0660   40.4860 C   0  0  0  0  0  0  0  0  0  0  0  0
   41.3930   36.4360   40.6870 C   0  0  0  0  0  0  0  0  0  0  0  0
   40.1540   37.0410   40.4890 C   0  0  0  0  0  0  0  0  0  0  0  0
   39.0670   36.3020   40.1000 C   0  0  0  0  0  0  0  0  0  0  0  0
   39.1440   34.9330   39.8860 C   0  0  0  0  0  0  0  0  0  0  0  0
   40.3860   34.3820   40.0940 C   0  0  0  0  0  0  0  0  0  0  0  0
   36.5900   30.4920   41.1370 C   0  0  0  0  0  0  0  0  0  0  0  0
   36.9730   29.2290   41.7570 C   0  0  0  0  0  0  0  0  0  0  0  0
   37.6560   29.1590   42.9520 C   0  0  0  0  0  0  0  0  0  0  0  0
   37.9960   27.9240   43.4980 C   0  0  0  0  0  0  0  0  0  0  0  0
   37.6270   26.7950   42.8110 N   0  0  0  0  0  0  0  0  0  0  0  0
   36.9550   26.8920   41.6400 C   0  0  0  0  0  0  0  0  0  0  0  0
   36.6300   28.0790   41.1160 N   0  0  0  0  0  0  0  0  0  0  0  0
   36.6429   29.8276   38.6948 H   0  0  0  0  0  0  0  0  0  0  0  0
   38.2118   30.4675   36.9148 H   0  0  0  0  0  0  0  0  0  0  0  0
   43.7832   32.6007   40.6162 H   0  0  0  0  0  0  0  0  0  0  0  0
   42.2601   37.0364   40.9995 H   0  0  0  0  0  0  0  0  0  0  0  0
   40.0466   38.1243   40.6466 H   0  0  0  0  0  0  0  0  0  0  0  0
   38.1027   36.8104   39.9527 H   0  0  0  0  0  0  0  0  0  0  0  0
   38.2762   34.3337   39.5734 H   0  0  0  0  0  0  0  0  0  0  0  0
   36.4623   31.2503   41.9235 H   0  0  0  0  0  0  0  0  0  0  0  0
   35.6516   30.3314   40.5861 H   0  0  0  0  0  0  0  0  0  0  0  0
   37.9342   30.0844   43.4776 H   0  0  0  0  0  0  0  0  0  0  0  0
   38.5431   27.8556   44.4499 H   0  0  0  0  0  0  0  0  0  0  0  0
   36.6695   25.9732   41.1068 H   0  0  0  0  0  0  0  0  0  0  0  0
  1  7  1  0
  1 19  1  0
  2  1  1  0
  3  4  1  0
  3  2  2  0
  4  6  1  0
  5  4  2  0
  6  9  1  0
  6  7  1  0
  7  8  2  0
  9 10  2  0
  9 18  1  0
 10 11  1  0
 11 12  2  0
 13 12  1  0
 13 14  2  0
 15 14  1  0
 16 15  2  0
 17 18  2  0
 17 16  1  0
 18 13  1  0
 19 20  1  0
 20 21  2  0
 21 22  1  0
 23 22  2  0
 24 23  1  0
 25 24  2  0
 25 20  1  0
  2 26  1  0
  3 27  1  0
 11 28  1  0
 14 29  1  0
 15 30  1  0
 16 31  1  0
 17 32  1  0
 19 33  1  0
 19 34  1  0
 21 35  1  0
 22 36  1  0
 24 37  1  0
M  ISO  8  26  14  27  14  28  14  29  14  30  14  31  14  32  14  33   8
M  ISO  4  34   8  35  14  36  14  37  14
M  END
>  <minimizedAffinity>  (1) 
-6.5115943

>  <minimizedRMSD>  (1) 
1.46991026

$$$$
