
     RDKit          3D

 37 40  0  0  0  0  0  0  0  0999 V2000
   37.3640   30.6920   40.2030 N   0  0  0  0  0  0  0  0  0  0  0  0
   37.3390   30.3070   38.8980 C   0  0  0  0  0  0  0  0  0  0  0  0
   38.2350   30.8080   37.9770 C   0  0  0  0  0  0  0  0  0  0  0  0
   39.1930   31.7300   38.3810 C   0  0  0  0  0  0  0  0  0  0  0  0
   40.0120   32.1940   37.5600 O   0  0  0  0  0  0  0  0  0  0  0  0
   39.1740   32.0740   39.6730 N   0  0  0  0  0  0  0  0  0  0  0  0
   38.3050   31.5920   40.5740 C   0  0  0  0  0  0  0  0  0  0  0  0
   38.2810   31.9080   41.7830 O   0  0  0  0  0  0  0  0  0  0  0  0
   40.1160   33.0130   40.1800 C   0  0  0  0  0  0  0  0  0  0  0  0
   41.3090   32.5170   40.7160 C   0  0  0  0  0  0  0  0  0  0  0  0
   42.0250   33.6020   41.1240 N   0  0  0  0  0  0  0  0  0  0  0  0
   41.3580   34.7380   40.8780 C   0  0  0  0  0  0  0  0  0  0  0  0
   41.5990   36.0820   41.0780 C   0  0  0  0  0  0  0  0  0  0  0  0
   40.6440   37.0170   40.6830 C   0  0  0  0  0  0  0  0  0  0  0  0
   39.4550   36.6170   40.0920 C   0  0  0  0  0  0  0  0  0  0  0  0
   39.1790   35.2680   39.8760 C   0  0  0  0  0  0  0  0  0  0  0  0
   40.1610   34.3880   40.2880 C   0  0  0  0  0  0  0  0  0  0  0  0
   36.3650   30.0820   41.0570 C   0  0  0  0  0  0  0  0  0  0  0  0
   36.8720   28.8630   41.6990 C   0  0  0  0  0  0  0  0  0  0  0  0
   37.4480   28.8630   42.9500 C   0  0  0  0  0  0  0  0  0  0  0  0
   37.9160   27.6850   43.5230 C   0  0  0  0  0  0  0  0  0  0  0  0
   37.7800   26.5400   42.7970 N   0  0  0  0  0  0  0  0  0  0  0  0
   37.2100   26.5640   41.5640 C   0  0  0  0  0  0  0  0  0  0  0  0
   36.7690   27.6920   41.0310 N   0  0  0  0  0  0  0  0  0  0  0  0
   36.5845   29.5772   38.5692 H   0  0  0  0  0  0  0  0  0  0  0  0
   38.1915   30.4795   36.9281 H   0  0  0  0  0  0  0  0  0  0  0  0
   41.6092   31.4616   40.7928 H   0  0  0  0  0  0  0  0  0  0  0  0
   42.9555   33.5553   41.5632 H   0  0  0  0  0  0  0  0  0  0  0  0
   42.5380   36.4129   41.5458 H   0  0  0  0  0  0  0  0  0  0  0  0
   40.8363   38.0883   40.8424 H   0  0  0  0  0  0  0  0  0  0  0  0
   38.7185   37.3758   39.7891 H   0  0  0  0  0  0  0  0  0  0  0  0
   38.2430   34.9273   39.4093 H   0  0  0  0  0  0  0  0  0  0  0  0
   36.0749   30.8016   41.8368 H   0  0  0  0  0  0  0  0  0  0  0  0
   35.5013   29.8078   40.4334 H   0  0  0  0  0  0  0  0  0  0  0  0
   37.5393   29.8087   43.5044 H   0  0  0  0  0  0  0  0  0  0  0  0
   38.3771   27.6781   44.5216 H   0  0  0  0  0  0  0  0  0  0  0  0
   37.1131   25.6264   40.9971 H   0  0  0  0  0  0  0  0  0  0  0  0
  1  7  1  0
  1 18  1  0
  2  1  1  0
  3  4  1  0
  3  2  2  0
  4  6  1  0
  5  4  2  0
  6  9  1  0
  6  7  1  0
  7  8  2  0
  9 17  1  0
  9 10  2  0
 10 11  1  0
 12 13  2  0
 12 11  1  0
 14 13  1  0
 15 14  2  0
 16 15  1  0
 16 17  2  0
 17 12  1  0
 18 19  1  0
 19 20  2  0
 20 21  1  0
 22 21  2  0
 23 22  1  0
 24 23  2  0
 24 19  1  0
  2 25  1  0
  3 26  1  0
 10 27  1  0
 11 28  1  0
 13 29  1  0
 14 30  1  0
 15 31  1  0
 16 32  1  0
 18 33  1  0
 18 34  1  0
 20 35  1  0
 21 36  1  0
 23 37  1  0
M  ISO  8  25  14  26  14  27  14  28   9  29  14  30  14  31  14  32  14
M  ISO  5  33   8  34   8  35  14  36  14  37  14
M  END
>  <minimizedAffinity>  (1) 
-5.94038486

>  <minimizedRMSD>  (1) 
1.42309785

$$$$
