
     RDKit          3D

 30 32  0  0  0  0  0  0  0  0999 V2000
   37.8370   31.4580   39.9490 N   0  0  0  0  0  0  0  0  0  0  0  0
   38.0030   30.6460   38.8780 C   0  0  0  0  0  0  0  0  0  0  0  0
   38.9530   30.8950   37.9110 C   0  0  0  0  0  0  0  0  0  0  0  0
   39.7670   32.0010   38.0250 C   0  0  0  0  0  0  0  0  0  0  0  0
   40.6410   32.2610   37.1670 O   0  0  0  0  0  0  0  0  0  0  0  0
   39.5730   32.7800   39.0960 N   0  0  0  0  0  0  0  0  0  0  0  0
   38.6440   32.5430   40.0480 C   0  0  0  0  0  0  0  0  0  0  0  0
   38.4500   33.2600   41.0540 O   0  0  0  0  0  0  0  0  0  0  0  0
   41.9250   35.4900   39.3480 N   0  0  0  0  0  0  0  0  0  0  0  0
   41.6160   34.2750   38.9140 N   0  0  0  0  0  0  0  0  0  0  0  0
   40.3660   33.9470   39.2980 C   0  0  0  0  0  0  0  0  0  0  0  0
   39.8800   35.0360   40.0170 C   0  0  0  0  0  0  0  0  0  0  0  0
   40.8780   35.9930   40.0330 C   0  0  0  0  0  0  0  0  0  0  0  0
   36.8010   31.0780   40.8910 C   0  0  0  0  0  0  0  0  0  0  0  0
   37.1810   29.8860   41.6550 C   0  0  0  0  0  0  0  0  0  0  0  0
   38.3070   29.8340   42.4470 C   0  0  0  0  0  0  0  0  0  0  0  0
   38.6240   28.6850   43.1510 C   0  0  0  0  0  0  0  0  0  0  0  0
   37.7790   27.6080   43.0300 N   0  0  0  0  0  0  0  0  0  0  0  0
   36.6680   27.6850   42.2370 C   0  0  0  0  0  0  0  0  0  0  0  0
   36.3790   28.7910   41.5720 N   0  0  0  0  0  0  0  0  0  0  0  0
   37.3593   29.7598   38.7766 H   0  0  0  0  0  0  0  0  0  0  0  0
   39.0608   30.2148   37.0532 H   0  0  0  0  0  0  0  0  0  0  0  0
   42.8210   35.9719   39.1875 H   0  0  0  0  0  0  0  0  0  0  0  0
   38.8879   35.1194   40.4847 H   0  0  0  0  0  0  0  0  0  0  0  0
   40.8273   36.9806   40.5147 H   0  0  0  0  0  0  0  0  0  0  0  0
   36.6298   31.9106   41.5892 H   0  0  0  0  0  0  0  0  0  0  0  0
   35.8866   30.8480   40.3244 H   0  0  0  0  0  0  0  0  0  0  0  0
   38.9613   30.7151   42.5208 H   0  0  0  0  0  0  0  0  0  0  0  0
   39.5213   28.6357   43.7854 H   0  0  0  0  0  0  0  0  0  0  0  0
   36.0035   26.8126   42.1507 H   0  0  0  0  0  0  0  0  0  0  0  0
  1  7  1  0
  1 14  1  0
  2  1  1  0
  3  4  1  0
  3  2  2  0
  4  6  1  0
  5  4  2  0
  6 11  1  0
  6  7  1  0
  7  8  2  0
  9 13  1  0
 10 11  2  0
 10  9  1  0
 11 12  1  0
 12 13  2  0
 14 15  1  0
 15 16  2  0
 16 17  1  0
 18 17  2  0
 19 18  1  0
 20 15  1  0
 20 19  2  0
  2 21  1  0
  3 22  1  0
  9 23  1  0
 12 24  1  0
 13 25  1  0
 14 26  1  0
 14 27  1  0
 16 28  1  0
 17 29  1  0
 19 30  1  0
M  ISO  8  21  14  22  14  23   9  24  14  25  14  26   8  27   8  28  14
M  ISO  2  29  14  30  14
M  END
>  <minimizedAffinity>  (1) 
-5.63987017

>  <minimizedRMSD>  (1) 
0.176414594

$$$$
