
     RDKit          3D

 35 37  0  0  1  0  0  0  0  0999 V2000
   37.6800   31.3240   40.0000 N   0  0  0  0  0  0  0  0  0  0  0  0
   37.7780   30.5650   38.8750 C   0  0  0  0  0  0  0  0  0  0  0  0
   38.7060   30.8400   37.8980 C   0  0  0  0  0  0  0  0  0  0  0  0
   39.5750   31.9200   38.0490 C   0  0  0  0  0  0  0  0  0  0  0  0
   40.4200   32.1730   37.1680 O   0  0  0  0  0  0  0  0  0  0  0  0
   39.4440   32.6370   39.1650 N   0  0  0  0  0  0  0  0  0  0  0  0
   38.5310   32.3690   40.1280 C   0  0  0  0  0  0  0  0  0  0  0  0
   38.3960   33.0310   41.1790 O   0  0  0  0  0  0  0  0  0  0  0  0
   39.6790   34.9950   39.6720 N   0  0  0  0  0  0  0  0  0  0  0  0
   40.8620   35.8490   39.8750 C   0  0  0  0  0  0  0  0  0  0  0  0
   41.9240   34.9630   40.4880 C   0  0  0  0  0  0  0  0  0  0  0  0
   41.2530   33.5930   40.5370 C   0  0  0  0  0  0  0  0  0  0  0  0
   40.3090   33.7500   39.3640 C   0  0  1  0  0  0  0  0  0  0  0  0
   36.6630   30.9150   40.9430 C   0  0  0  0  0  0  0  0  0  0  0  0
   37.0900   29.7460   41.7130 C   0  0  0  0  0  0  0  0  0  0  0  0
   38.2050   29.7250   42.5210 C   0  0  0  0  0  0  0  0  0  0  0  0
   38.5540   28.5790   43.2260 C   0  0  0  0  0  0  0  0  0  0  0  0
   37.7410   27.4750   43.0800 N   0  0  0  0  0  0  0  0  0  0  0  0
   36.6510   27.5160   42.2820 C   0  0  0  0  0  0  0  0  0  0  0  0
   36.3430   28.6200   41.6230 N   0  0  0  0  0  0  0  0  0  0  0  0
   37.0981   29.7103   38.7437 H   0  0  0  0  0  0  0  0  0  0  0  0
   38.7626   30.2089   36.9988 H   0  0  0  0  0  0  0  0  0  0  0  0
   39.1053   34.9305   40.5250 H   0  0  0  0  0  0  0  0  0  0  0  0
   41.2108   36.2519   38.9127 H   0  0  0  0  0  0  0  0  0  0  0  0
   40.6306   36.7051   40.5257 H   0  0  0  0  0  0  0  0  0  0  0  0
   42.8266   34.9374   39.8598 H   0  0  0  0  0  0  0  0  0  0  0  0
   42.2597   35.3134   41.4752 H   0  0  0  0  0  0  0  0  0  0  0  0
   41.9723   32.7755   40.3811 H   0  0  0  0  0  0  0  0  0  0  0  0
   40.7786   33.3324   41.4946 H   0  0  0  0  0  0  0  0  0  0  0  0
   40.8005   33.7665   38.3801 H   0  0  0  0  0  0  0  0  0  0  0  0
   36.4615   31.7458   41.6352 H   0  0  0  0  0  0  0  0  0  0  0  0
   35.7561   30.6477   40.3808 H   0  0  0  0  0  0  0  0  0  0  0  0
   38.8278   30.6273   42.6097 H   0  0  0  0  0  0  0  0  0  0  0  0
   39.4425   28.5539   43.8740 H   0  0  0  0  0  0  0  0  0  0  0  0
   36.0153   26.6241   42.1800 H   0  0  0  0  0  0  0  0  0  0  0  0
  1  7  1  0
  1 14  1  0
  2  1  1  0
  3  4  1  0
  3  2  2  0
  4  6  1  0
  5  4  2  0
  6  7  1  0
  7  8  2  0
  9 10  1  0
 10 11  1  0
 11 12  1  0
 13  6  1  0
 13  9  1  0
 13 12  1  0
 14 15  1  0
 15 16  2  0
 16 17  1  0
 18 17  2  0
 19 18  1  0
 20 15  1  0
 20 19  2  0
  2 21  1  0
  3 22  1  0
  9 23  1  0
 10 24  1  0
 10 25  1  0
 11 26  1  0
 11 27  1  0
 12 28  1  0
 12 29  1  0
 13 30  1  6
 14 31  1  0
 14 32  1  0
 16 33  1  0
 17 34  1  0
 19 35  1  0
M  ISO  8  21  14  22  14  23   5  24  13  25  13  26  13  27  13  28  13
M  ISO  7  29  13  30  13  31   8  32   8  33  14  34  14  35  14
M  END
>  <minimizedAffinity>  (1) 
-5.25616264

>  <minimizedRMSD>  (1) 
0.375693232

$$$$
