
     RDKit          3D

 35 36  0  0  0  0  0  0  0  0999 V2000
   38.0430   31.7190   39.9390 N   0  0  0  0  0  0  0  0  0  0  0  0
   38.1720   30.9700   38.8070 C   0  0  0  0  0  0  0  0  0  0  0  0
   39.1680   31.2110   37.8970 C   0  0  0  0  0  0  0  0  0  0  0  0
   40.0660   32.2340   38.1240 C   0  0  0  0  0  0  0  0  0  0  0  0
   40.9950   32.4830   37.3060 O   0  0  0  0  0  0  0  0  0  0  0  0
   39.9150   32.9540   39.2440 N   0  0  0  0  0  0  0  0  0  0  0  0
   38.9300   32.7070   40.1330 C   0  0  0  0  0  0  0  0  0  0  0  0
   38.7500   33.3490   41.1940 O   0  0  0  0  0  0  0  0  0  0  0  0
   40.8350   34.0320   39.5120 C   0  0  0  0  0  0  0  0  0  0  0  0
   40.2070   35.3270   39.8850 C   0  0  0  0  0  0  0  0  0  0  0  0
   41.7700   34.3110   38.3420 C   0  0  0  0  0  0  0  0  0  0  0  0
   41.7600   33.6440   40.6700 C   0  0  0  0  0  0  0  0  0  0  0  0
   36.9390   31.3310   40.7950 C   0  0  0  0  0  0  0  0  0  0  0  0
   37.2380   30.1100   41.5490 C   0  0  0  0  0  0  0  0  0  0  0  0
   38.3290   29.9860   42.3820 C   0  0  0  0  0  0  0  0  0  0  0  0
   38.5290   28.7860   43.0570 C   0  0  0  0  0  0  0  0  0  0  0  0
   37.6420   27.7680   42.8740 N   0  0  0  0  0  0  0  0  0  0  0  0
   36.5730   27.9190   42.0470 C   0  0  0  0  0  0  0  0  0  0  0  0
   36.3930   29.0640   41.4110 N   0  0  0  0  0  0  0  0  0  0  0  0
   37.4597   30.1529   38.6197 H   0  0  0  0  0  0  0  0  0  0  0  0
   39.2512   30.5927   36.9910 H   0  0  0  0  0  0  0  0  0  0  0  0
   40.1657   35.4123   40.9809 H   0  0  0  0  0  0  0  0  0  0  0  0
   40.8035   36.1553   39.4750 H   0  0  0  0  0  0  0  0  0  0  0  0
   39.1872   35.3715   39.4750 H   0  0  0  0  0  0  0  0  0  0  0  0
   42.7582   34.6059   38.7246 H   0  0  0  0  0  0  0  0  0  0  0  0
   41.8702   33.4036   37.7283 H   0  0  0  0  0  0  0  0  0  0  0  0
   41.3566   35.1249   37.7283 H   0  0  0  0  0  0  0  0  0  0  0  0
   41.2585   33.8544   41.6262 H   0  0  0  0  0  0  0  0  0  0  0  0
   41.9954   32.5713   40.6076 H   0  0  0  0  0  0  0  0  0  0  0  0
   42.6902   34.2278   40.6076 H   0  0  0  0  0  0  0  0  0  0  0  0
   36.7348   32.1465   41.5044 H   0  0  0  0  0  0  0  0  0  0  0  0
   36.0648   31.1336   40.1572 H   0  0  0  0  0  0  0  0  0  0  0  0
   39.0309   30.8230   42.5112 H   0  0  0  0  0  0  0  0  0  0  0  0
   39.3909   28.6608   43.7289 H   0  0  0  0  0  0  0  0  0  0  0  0
   35.8612   27.0920   41.9078 H   0  0  0  0  0  0  0  0  0  0  0  0
  1  7  1  0
  1 13  1  0
  2  1  1  0
  3  4  1  0
  3  2  2  0
  4  6  1  0
  5  4  2  0
  6  9  1  0
  6  7  1  0
  7  8  2  0
  9 10  1  0
  9 12  1  0
 11  9  1  0
 13 14  1  0
 14 15  2  0
 15 16  1  0
 17 16  2  0
 18 17  1  0
 19 14  1  0
 19 18  2  0
  2 20  1  0
  3 21  1  0
 10 22  1  0
 10 23  1  0
 10 24  1  0
 11 25  1  0
 11 26  1  0
 11 27  1  0
 12 28  1  0
 12 29  1  0
 12 30  1  0
 13 31  1  0
 13 32  1  0
 15 33  1  0
 16 34  1  0
 18 35  1  0
M  ISO  8  20  14  21  14  22   8  23   8  24   8  25   8  26   8  27   8
M  ISO  8  28   8  29   8  30   8  31   8  32   8  33  14  34  14  35  14
M  END
>  <minimizedAffinity>  (1) 
-4.86061239

>  <minimizedRMSD>  (1) 
0.54961884

$$$$
