
     RDKit          3D

 26 27  0  0  0  0  0  0  0  0999 V2000
   36.8710   31.1750   40.8850 C   0  0  0  0  0  0  0  0  0  0  0  0
   37.9150   31.5360   39.9480 N   0  0  0  0  0  0  0  0  0  0  0  0
   37.9890   30.7670   38.8330 C   0  0  0  0  0  0  0  0  0  0  0  0
   38.9340   30.9940   37.8560 C   0  0  0  0  0  0  0  0  0  0  0  0
   39.8350   32.0270   37.9990 C   0  0  0  0  0  0  0  0  0  0  0  0
   40.7050   32.2610   37.1310 O   0  0  0  0  0  0  0  0  0  0  0  0
   39.7220   32.7620   39.1210 N   0  0  0  0  0  0  0  0  0  0  0  0
   38.8020   32.5440   40.0750 C   0  0  0  0  0  0  0  0  0  0  0  0
   38.6870   33.2220   41.1230 O   0  0  0  0  0  0  0  0  0  0  0  0
   40.6460   33.8660   39.3240 C   0  0  0  0  0  0  0  0  0  0  0  0
   37.2120   29.9640   41.6370 C   0  0  0  0  0  0  0  0  0  0  0  0
   38.3290   29.8620   42.4360 C   0  0  0  0  0  0  0  0  0  0  0  0
   38.5920   28.6810   43.1230 C   0  0  0  0  0  0  0  0  0  0  0  0
   37.7110   27.6430   42.9720 N   0  0  0  0  0  0  0  0  0  0  0  0
   36.6220   27.7700   42.1800 C   0  0  0  0  0  0  0  0  0  0  0  0
   36.3860   28.9000   41.5340 N   0  0  0  0  0  0  0  0  0  0  0  0
   35.9385   30.9985   40.3289 H   0  0  0  0  0  0  0  0  0  0  0  0
   36.7527   32.0013   41.6014 H   0  0  0  0  0  0  0  0  0  0  0  0
   37.2753   29.9398   38.7052 H   0  0  0  0  0  0  0  0  0  0  0  0
   38.9691   30.3518   36.9636 H   0  0  0  0  0  0  0  0  0  0  0  0
   40.7861   34.0334   40.4021 H   0  0  0  0  0  0  0  0  0  0  0  0
   41.6142   33.6235   38.8617 H   0  0  0  0  0  0  0  0  0  0  0  0
   40.2368   34.7764   38.8617 H   0  0  0  0  0  0  0  0  0  0  0  0
   39.0151   30.7165   42.5313 H   0  0  0  0  0  0  0  0  0  0  0  0
   39.4788   28.5840   43.7666 H   0  0  0  0  0  0  0  0  0  0  0  0
   35.9257   26.9253   42.0720 H   0  0  0  0  0  0  0  0  0  0  0  0
  1 11  1  0
  2  8  1  0
  2  1  1  0
  3  2  1  0
  4  5  1  0
  4  3  2  0
  5  7  1  0
  6  5  2  0
  7 10  1  0
  7  8  1  0
  8  9  2  0
 11 12  2  0
 12 13  1  0
 14 13  2  0
 15 14  1  0
 16 11  1  0
 16 15  2  0
  1 17  1  0
  1 18  1  0
  3 19  1  0
  4 20  1  0
 10 21  1  0
 10 22  1  0
 10 23  1  0
 12 24  1  0
 13 25  1  0
 15 26  1  0
M  ISO  8  17   8  18   8  19  14  20  14  21   8  22   8  23   8  24  14
M  ISO  2  25  14  26  14
M  END
>  <minimizedAffinity>  (1) 
-4.29172754

>  <minimizedRMSD>  (1) 
0.192905888

$$$$
