
     RDKit          3D

 26 27  0  0  0  0  0  0  0  0999 V2000
   37.9340   31.5790   39.9660 N   0  0  0  0  0  0  0  0  0  0  0  0
   38.0650   30.8220   38.8530 C   0  0  0  0  0  0  0  0  0  0  0  0
   39.0280   31.0730   37.8970 C   0  0  0  0  0  0  0  0  0  0  0  0
   39.8970   32.1370   38.0760 C   0  0  0  0  0  0  0  0  0  0  0  0
   40.7830   32.3990   37.2350 O   0  0  0  0  0  0  0  0  0  0  0  0
   39.7330   32.8630   39.1920 N   0  0  0  0  0  0  0  0  0  0  0  0
   38.7930   32.6160   40.1240 C   0  0  0  0  0  0  0  0  0  0  0  0
   38.6310   33.2860   41.1710 O   0  0  0  0  0  0  0  0  0  0  0  0
   40.6230   33.9910   39.4240 C   0  0  0  0  0  0  0  0  0  0  0  0
   39.7650   35.0850   39.5930 F   0  0  0  0  0  0  0  0  0  0  0  0
   41.3410   33.8870   40.5850 F   0  0  0  0  0  0  0  0  0  0  0  0
   41.3950   34.3010   38.3280 F   0  0  0  0  0  0  0  0  0  0  0  0
   36.8780   31.1930   40.8760 C   0  0  0  0  0  0  0  0  0  0  0  0
   37.2230   29.9820   41.6190 C   0  0  0  0  0  0  0  0  0  0  0  0
   38.3360   29.8850   42.4230 C   0  0  0  0  0  0  0  0  0  0  0  0
   38.6080   28.7060   43.1030 C   0  0  0  0  0  0  0  0  0  0  0  0
   37.7490   27.6580   42.9530 N   0  0  0  0  0  0  0  0  0  0  0  0
   36.6470   27.7780   42.1490 C   0  0  0  0  0  0  0  0  0  0  0  0
   36.4020   28.9100   41.5060 N   0  0  0  0  0  0  0  0  0  0  0  0
   37.3788   29.9752   38.7043 H   0  0  0  0  0  0  0  0  0  0  0  0
   39.1047   30.4359   37.0036 H   0  0  0  0  0  0  0  0  0  0  0  0
   36.7045   32.0121   41.5894 H   0  0  0  0  0  0  0  0  0  0  0  0
   35.9730   30.9879   40.2853 H   0  0  0  0  0  0  0  0  0  0  0  0
   39.0130   30.7458   42.5271 H   0  0  0  0  0  0  0  0  0  0  0  0
   39.4953   28.6193   43.7474 H   0  0  0  0  0  0  0  0  0  0  0  0
   35.9592   26.9270   42.0361 H   0  0  0  0  0  0  0  0  0  0  0  0
  1  7  1  0
  1 13  1  0
  2  1  1  0
  3  4  1  0
  3  2  2  0
  4  6  1  0
  5  4  2  0
  6  9  1  0
  6  7  1  0
  7  8  2  0
  9 10  1  0
  9 11  1  0
 12  9  1  0
 13 14  1  0
 14 15  2  0
 15 16  1  0
 17 16  2  0
 18 17  1  0
 19 14  1  0
 19 18  2  0
  2 20  1  0
  3 21  1  0
 13 22  1  0
 13 23  1  0
 15 24  1  0
 16 25  1  0
 18 26  1  0
M  ISO  7  20  14  21  14  22   8  23   8  24  14  25  14  26  14
M  END
>  <minimizedAffinity>  (1) 
-4.83440542

>  <minimizedRMSD>  (1) 
0.298126429

$$$$
