
     RDKit          3D

 40 43  0  0  0  0  0  0  0  0999 V2000
   38.1170   30.1780   40.6720 C   0  0  0  0  0  0  0  0  0  0  0  0
   38.6080   30.5880   41.8910 C   0  0  0  0  0  0  0  0  0  0  0  0
   38.7080   29.6790   42.9340 C   0  0  0  0  0  0  0  0  0  0  0  0
   38.3150   28.3950   42.7270 N   0  0  0  0  0  0  0  0  0  0  0  0
   37.8320   28.0140   41.5090 C   0  0  0  0  0  0  0  0  0  0  0  0
   37.7390   28.8820   40.5220 N   0  0  0  0  0  0  0  0  0  0  0  0
   37.4410   26.6120   41.3970 C   0  0  0  0  0  0  0  0  0  0  0  0
   37.6320   25.6510   42.3620 C   0  0  0  0  0  0  0  0  0  0  0  0
   37.1610   24.4600   41.9530 N   0  0  0  0  0  0  0  0  0  0  0  0
   36.6570   24.6170   40.7260 C   0  0  0  0  0  0  0  0  0  0  0  0
   36.0650   23.6790   39.9040 C   0  0  0  0  0  0  0  0  0  0  0  0
   35.6350   24.1520   38.6690 C   0  0  0  0  0  0  0  0  0  0  0  0
   35.7820   25.4730   38.2710 C   0  0  0  0  0  0  0  0  0  0  0  0
   36.3860   26.3820   39.1360 C   0  0  0  0  0  0  0  0  0  0  0  0
   36.8210   25.9390   40.3660 C   0  0  0  0  0  0  0  0  0  0  0  0
   37.9860   31.0830   39.5360 C   0  0  0  0  0  0  0  0  0  0  0  0
   39.0080   32.1080   39.5410 N   0  0  0  0  0  0  0  0  0  0  0  0
   40.2520   31.7100   39.2300 C   0  0  0  0  0  0  0  0  0  0  0  0
   41.3260   32.5800   39.1940 C   0  0  0  0  0  0  0  0  0  0  0  0
   41.1150   33.9160   39.4920 C   0  0  0  0  0  0  0  0  0  0  0  0
   42.0570   34.7320   39.4720 O   0  0  0  0  0  0  0  0  0  0  0  0
   39.8660   34.2730   39.7970 N   0  0  0  0  0  0  0  0  0  0  0  0
   38.8180   33.4220   39.8310 C   0  0  0  0  0  0  0  0  0  0  0  0
   37.6460   33.7460   40.1140 O   0  0  0  0  0  0  0  0  0  0  0  0
   39.5980   35.6640   40.1150 C   0  0  0  0  0  0  0  0  0  0  0  0
   40.5120   36.3870   39.3520 F   0  0  0  0  0  0  0  0  0  0  0  0
   38.3450   36.0790   39.7260 F   0  0  0  0  0  0  0  0  0  0  0  0
   39.8940   35.9810   41.4260 F   0  0  0  0  0  0  0  0  0  0  0  0
   38.9199   31.6326   42.0374 H   0  0  0  0  0  0  0  0  0  0  0  0
   39.0992   29.9927   43.9130 H   0  0  0  0  0  0  0  0  0  0  0  0
   38.1065   25.8324   43.3377 H   0  0  0  0  0  0  0  0  0  0  0  0
   37.1846   23.5818   42.4907 H   0  0  0  0  0  0  0  0  0  0  0  0
   35.9418   22.6284   40.2056 H   0  0  0  0  0  0  0  0  0  0  0  0
   35.1558   23.4457   37.9751 H   0  0  0  0  0  0  0  0  0  0  0  0
   35.4253   25.7988   37.2828 H   0  0  0  0  0  0  0  0  0  0  0  0
   36.5135   27.4345   38.8426 H   0  0  0  0  0  0  0  0  0  0  0  0
   36.9984   31.5655   39.5779 H   0  0  0  0  0  0  0  0  0  0  0  0
   38.1004   30.4924   38.6151 H   0  0  0  0  0  0  0  0  0  0  0  0
   40.4236   30.6493   38.9944 H   0  0  0  0  0  0  0  0  0  0  0  0
   42.3311   32.2172   38.9331 H   0  0  0  0  0  0  0  0  0  0  0  0
  1  2  2  0
  2  3  1  0
  4  3  2  0
  5  4  1  0
  6  1  1  0
  6  5  2  0
  7  5  1  0
  7  8  2  0
  9  8  1  0
 10  9  1  0
 11 10  2  0
 12 11  1  0
 13 12  2  0
 13 14  1  0
 14 15  2  0
 15 10  1  0
 15  7  1  0
 16 17  1  0
 16  1  1  0
 17 23  1  0
 18 17  1  0
 19 18  2  0
 19 20  1  0
 20 22  1  0
 21 20  2  0
 22 23  1  0
 22 25  1  0
 23 24  2  0
 25 28  1  0
 26 25  1  0
 27 25  1  0
  2 29  1  0
  3 30  1  0
  8 31  1  0
  9 32  1  0
 11 33  1  0
 12 34  1  0
 13 35  1  0
 14 36  1  0
 16 37  1  0
 16 38  1  0
 18 39  1  0
 19 40  1  0
M  ISO  8  29  14  30  14  31  14  32   9  33  14  34  14  35  14  36  14
M  ISO  4  37   8  38   8  39  14  40  14
M  END
>  <minimizedAffinity>  (1) 
-6.76744509

>  <minimizedRMSD>  (1) 
2.10643363

$$$$
