
     RDKit          3D

 33 35  0  0  0  0  0  0  0  0999 V2000
   37.0450   32.2470   40.2700 C   0  0  0  0  0  0  0  0  0  0  0  0
   38.2920   32.4540   39.5690 N   0  0  0  0  0  0  0  0  0  0  0  0
   38.4690   31.7110   38.4560 C   0  0  0  0  0  0  0  0  0  0  0  0
   39.6120   31.8040   37.6880 C   0  0  0  0  0  0  0  0  0  0  0  0
   40.6130   32.6880   38.0680 C   0  0  0  0  0  0  0  0  0  0  0  0
   41.6600   32.7950   37.3920 O   0  0  0  0  0  0  0  0  0  0  0  0
   40.3920   33.4090   39.1880 N   0  0  0  0  0  0  0  0  0  0  0  0
   39.2770   33.3120   39.9310 C   0  0  0  0  0  0  0  0  0  0  0  0
   39.0680   33.9750   40.9630 O   0  0  0  0  0  0  0  0  0  0  0  0
   41.4160   34.3420   39.6150 C   0  0  0  0  0  0  0  0  0  0  0  0
   40.9400   35.5970   39.2070 F   0  0  0  0  0  0  0  0  0  0  0  0
   41.5540   34.3980   40.9770 F   0  0  0  0  0  0  0  0  0  0  0  0
   42.6170   34.1770   38.9540 F   0  0  0  0  0  0  0  0  0  0  0  0
   36.8660   30.8630   40.6780 C   0  0  0  0  0  0  0  0  0  0  0  0
   35.7500   30.1370   40.3810 C   0  0  0  0  0  0  0  0  0  0  0  0
   35.6050   28.8080   40.7870 C   0  0  0  0  0  0  0  0  0  0  0  0
   36.6290   28.2690   41.4930 N   0  0  0  0  0  0  0  0  0  0  0  0
   37.7370   29.0060   41.7830 C   0  0  0  0  0  0  0  0  0  0  0  0
   37.8410   30.2550   41.3850 N   0  0  0  0  0  0  0  0  0  0  0  0
   38.7270   28.2910   42.5350 C   0  0  0  0  0  0  0  0  0  0  0  0
   38.6680   27.2260   43.3710 C   0  0  0  0  0  0  0  0  0  0  0  0
   39.7790   26.7240   43.9750 C   0  0  0  0  0  0  0  0  0  0  0  0
   41.0030   27.4270   43.6440 C   0  0  0  0  0  0  0  0  0  0  0  0
   40.4500   28.7670   42.4770 S   0  0  0  0  0  0  0  0  0  0  0  0
   36.2147   32.5307   39.6066 H   0  0  0  0  0  0  0  0  0  0  0  0
   37.0621   32.8668   41.1786 H   0  0  0  0  0  0  0  0  0  0  0  0
   37.6779   31.0098   38.1517 H   0  0  0  0  0  0  0  0  0  0  0  0
   39.7285   31.1854   36.7859 H   0  0  0  0  0  0  0  0  0  0  0  0
   34.9413   30.6113   39.8056 H   0  0  0  0  0  0  0  0  0  0  0  0
   34.7029   28.2268   40.5453 H   0  0  0  0  0  0  0  0  0  0  0  0
   37.6940   26.7539   43.5669 H   0  0  0  0  0  0  0  0  0  0  0  0
   39.7510   25.8600   44.6552 H   0  0  0  0  0  0  0  0  0  0  0  0
   42.0223   27.2170   44.0001 H   0  0  0  0  0  0  0  0  0  0  0  0
  1 14  1  0
  2  8  1  0
  2  1  1  0
  3  2  1  0
  4  5  1  0
  4  3  2  0
  5  7  1  0
  6  5  2  0
  7 10  1  0
  7  8  1  0
  8  9  2  0
 10 12  1  0
 11 10  1  0
 13 10  1  0
 14 19  1  0
 15 14  2  0
 15 16  1  0
 16 17  2  0
 17 18  1  0
 18 20  1  0
 19 18  2  0
 20 21  2  0
 21 22  1  0
 23 22  2  0
 24 20  1  0
 24 23  1  0
  1 25  1  0
  1 26  1  0
  3 27  1  0
  4 28  1  0
 15 29  1  0
 16 30  1  0
 21 31  1  0
 22 32  1  0
 23 33  1  0
M  ISO  8  25   8  26   8  27  14  28  14  29  14  30  14  31  14  32  14
M  ISO  1  33  14
M  END
>  <minimizedAffinity>  (1) 
-5.91076756

>  <minimizedRMSD>  (1) 
2.91887903

$$$$
