
     RDKit          3D

 34 36  0  0  0  0  0  0  0  0999 V2000
   37.5740   31.4160   40.3370 C   0  0  0  0  0  0  0  0  0  0  0  0
   38.6750   32.0450   39.6550 N   0  0  0  0  0  0  0  0  0  0  0  0
   39.1830   31.3630   38.6070 C   0  0  0  0  0  0  0  0  0  0  0  0
   40.2360   31.8280   37.8520 C   0  0  0  0  0  0  0  0  0  0  0  0
   40.8060   33.0580   38.1800 C   0  0  0  0  0  0  0  0  0  0  0  0
   41.7630   33.5120   37.5170 O   0  0  0  0  0  0  0  0  0  0  0  0
   40.2720   33.6980   39.2250 N   0  0  0  0  0  0  0  0  0  0  0  0
   39.2480   33.2360   39.9520 C   0  0  0  0  0  0  0  0  0  0  0  0
   38.7430   33.8330   40.9330 O   0  0  0  0  0  0  0  0  0  0  0  0
   40.8330   34.9830   39.6040 C   0  0  0  0  0  0  0  0  0  0  0  0
   39.7420   35.8540   39.6430 F   0  0  0  0  0  0  0  0  0  0  0  0
   41.3820   34.9880   40.8670 F   0  0  0  0  0  0  0  0  0  0  0  0
   41.6770   35.5080   38.6490 F   0  0  0  0  0  0  0  0  0  0  0  0
   38.0000   30.2750   41.1350 C   0  0  0  0  0  0  0  0  0  0  0  0
   38.8680   30.3910   42.1820 C   0  0  0  0  0  0  0  0  0  0  0  0
   39.2600   29.2850   42.9280 C   0  0  0  0  0  0  0  0  0  0  0  0
   38.7400   28.0740   42.5730 N   0  0  0  0  0  0  0  0  0  0  0  0
   37.8670   27.9720   41.5160 C   0  0  0  0  0  0  0  0  0  0  0  0
   37.5250   29.0470   40.8400 N   0  0  0  0  0  0  0  0  0  0  0  0
   37.3480   26.6320   41.1920 C   0  0  0  0  0  0  0  0  0  0  0  0
   37.3420   25.6860   42.1980 C   0  0  0  0  0  0  0  0  0  0  0  0
   36.8450   24.4470   41.8340 C   0  0  0  0  0  0  0  0  0  0  0  0
   36.4190   24.2610   40.5770 N   0  0  0  0  0  0  0  0  0  0  0  0
   36.4360   25.2050   39.6160 C   0  0  0  0  0  0  0  0  0  0  0  0
   36.9190   26.4370   39.9330 N   0  0  0  0  0  0  0  0  0  0  0  0
   36.8440   31.0724   39.5893 H   0  0  0  0  0  0  0  0  0  0  0  0
   37.1311   32.1575   41.0181 H   0  0  0  0  0  0  0  0  0  0  0  0
   38.7359   30.3928   38.3446 H   0  0  0  0  0  0  0  0  0  0  0  0
   40.6208   31.2403   37.0055 H   0  0  0  0  0  0  0  0  0  0  0  0
   39.2668   31.3827   42.4417 H   0  0  0  0  0  0  0  0  0  0  0  0
   39.9609   29.3821   43.7702 H   0  0  0  0  0  0  0  0  0  0  0  0
   37.7054   25.9015   43.2136 H   0  0  0  0  0  0  0  0  0  0  0  0
   36.8002   23.6268   42.5656 H   0  0  0  0  0  0  0  0  0  0  0  0
   36.0693   24.9858   38.6024 H   0  0  0  0  0  0  0  0  0  0  0  0
  1 14  1  0
  2  8  1  0
  2  1  1  0
  3  2  1  0
  4  5  1  0
  4  3  2  0
  5  7  1  0
  6  5  2  0
  7 10  1  0
  7  8  1  0
  8  9  2  0
 10 11  1  0
 10 12  1  0
 13 10  1  0
 14 15  2  0
 15 16  1  0
 17 16  2  0
 18 17  1  0
 19 14  1  0
 19 18  2  0
 20 18  1  0
 20 21  2  0
 22 21  1  0
 23 22  2  0
 24 25  2  0
 24 23  1  0
 25 20  1  0
  1 26  1  0
  1 27  1  0
  3 28  1  0
  4 29  1  0
 15 30  1  0
 16 31  1  0
 21 32  1  0
 22 33  1  0
 24 34  1  0
M  ISO  8  26   8  27   8  28  14  29  14  30  14  31  14  32  14  33  14
M  ISO  1  34  14
M  END
>  <minimizedAffinity>  (1) 
-5.80787945

>  <minimizedRMSD>  (1) 
1.45151842

$$$$
