
     RDKit          3D

 28 29  0  0  0  0  0  0  0  0999 V2000
   44.1170   35.4470   42.1320 N   0  0  0  0  0  0  0  0  0  0  0  0
   44.2660   34.4530   41.2290 C   0  0  0  0  0  0  0  0  0  0  0  0
   43.2410   34.0650   40.3890 C   0  0  0  0  0  0  0  0  0  0  0  0
   42.0160   34.7080   40.4660 C   0  0  0  0  0  0  0  0  0  0  0  0
   41.0720   34.3850   39.7270 O   0  0  0  0  0  0  0  0  0  0  0  0
   41.9120   35.6910   41.3790 N   0  0  0  0  0  0  0  0  0  0  0  0
   42.9120   36.0640   42.1930 C   0  0  0  0  0  0  0  0  0  0  0  0
   42.8210   36.9820   43.0490 O   0  0  0  0  0  0  0  0  0  0  0  0
   40.6420   36.3960   41.4970 C   0  0  0  0  0  0  0  0  0  0  0  0
   39.6730   35.4090   41.2360 F   0  0  0  0  0  0  0  0  0  0  0  0
   40.3930   36.8550   42.7600 F   0  0  0  0  0  0  0  0  0  0  0  0
   40.4740   37.3410   40.5160 F   0  0  0  0  0  0  0  0  0  0  0  0
   45.2760   35.7570   42.9550 C   0  0  0  0  0  0  0  0  0  0  0  0
   45.2120   35.0720   44.2400 C   0  0  0  0  0  0  0  0  0  0  0  0
   44.9860   35.7300   45.4250 C   0  0  0  0  0  0  0  0  0  0  0  0
   44.9360   35.0100   46.6200 C   0  0  0  0  0  0  0  0  0  0  0  0
   45.1150   33.6640   46.5900 N   0  0  0  0  0  0  0  0  0  0  0  0
   45.3400   33.0390   45.3830 C   0  0  0  0  0  0  0  0  0  0  0  0
   45.3850   33.7200   44.2590 N   0  0  0  0  0  0  0  0  0  0  0  0
   45.5250   31.5910   45.4070 C   0  0  0  0  0  0  0  0  0  0  0  0
   44.6350   30.7330   45.2730 O   0  0  0  0  0  0  0  0  0  0  0  0
   45.2347   33.9364   41.1608 H   0  0  0  0  0  0  0  0  0  0  0  0
   43.3957   33.2519   39.6645 H   0  0  0  0  0  0  0  0  0  0  0  0
   46.1866   35.4404   42.4252 H   0  0  0  0  0  0  0  0  0  0  0  0
   45.2902   36.8412   43.1400 H   0  0  0  0  0  0  0  0  0  0  0  0
   44.8449   36.8209   45.4320 H   0  0  0  0  0  0  0  0  0  0  0  0
   44.7539   35.5264   47.5740 H   0  0  0  0  0  0  0  0  0  0  0  0
   46.5507   31.2235   45.5582 H   0  0  0  0  0  0  0  0  0  0  0  0
  1  7  1  0
  1 13  1  0
  2  1  1  0
  3  4  1  0
  3  2  2  0
  4  6  1  0
  5  4  2  0
  6  9  1  0
  6  7  1  0
  7  8  2  0
  9 11  1  0
 10  9  1  0
 12  9  1  0
 13 14  1  0
 14 19  1  0
 14 15  2  0
 15 16  1  0
 17 16  2  0
 18 20  1  0
 18 17  1  0
 19 18  2  0
 21 20  2  0
  2 22  1  0
  3 23  1  0
 13 24  1  0
 13 25  1  0
 15 26  1  0
 16 27  1  0
 20 28  1  0
M  ISO  7  22  14  23  14  24   8  25   8  26  14  27  14  28   6
M  END
>  <minimizedAffinity>  (1) 
-5.35480595

>  <minimizedRMSD>  (1) 
7.74475002

$$$$
