
     RDKit          3D

 29 30  0  0  0  0  0  0  0  0999 V2000
   38.7830   31.3770   40.7590 C   0  0  0  0  0  0  0  0  0  0  0  0
   39.5780   32.4220   40.1530 N   0  0  0  0  0  0  0  0  0  0  0  0
   40.5110   32.0180   39.2510 C   0  0  0  0  0  0  0  0  0  0  0  0
   41.3360   32.9030   38.5980 C   0  0  0  0  0  0  0  0  0  0  0  0
   41.2190   34.2580   38.8650 C   0  0  0  0  0  0  0  0  0  0  0  0
   41.9530   35.0890   38.2910 O   0  0  0  0  0  0  0  0  0  0  0  0
   40.2930   34.6120   39.7550 N   0  0  0  0  0  0  0  0  0  0  0  0
   39.4850   33.7460   40.3940 C   0  0  0  0  0  0  0  0  0  0  0  0
   38.6120   34.0790   41.2320 O   0  0  0  0  0  0  0  0  0  0  0  0
   40.1320   36.0270   40.0690 C   0  0  0  0  0  0  0  0  0  0  0  0
   38.8020   36.3130   39.7800 F   0  0  0  0  0  0  0  0  0  0  0  0
   40.3060   36.3090   41.3990 F   0  0  0  0  0  0  0  0  0  0  0  0
   40.8650   36.8450   39.2350 F   0  0  0  0  0  0  0  0  0  0  0  0
   39.5900   30.4980   41.5970 C   0  0  0  0  0  0  0  0  0  0  0  0
   40.8890   30.7710   41.9170 C   0  0  0  0  0  0  0  0  0  0  0  0
   41.6160   29.8920   42.7250 C   0  0  0  0  0  0  0  0  0  0  0  0
   40.9890   28.7660   43.1780 N   0  0  0  0  0  0  0  0  0  0  0  0
   39.6940   28.5270   42.8390 C   0  0  0  0  0  0  0  0  0  0  0  0
   39.0290   29.3670   42.0770 N   0  0  0  0  0  0  0  0  0  0  0  0
   39.1310   27.2980   43.3780 C   0  0  0  0  0  0  0  0  0  0  0  0
   38.0470   26.8510   42.9200 O   0  0  0  0  0  0  0  0  0  0  0  0
   39.6480   26.5160   44.3730 O   0  0  0  0  0  0  0  0  0  0  0  0
   38.3152   30.7790   39.9631 H   0  0  0  0  0  0  0  0  0  0  0  0
   38.0226   31.8525   41.3960 H   0  0  0  0  0  0  0  0  0  0  0  0
   40.6096   30.9438   39.0356 H   0  0  0  0  0  0  0  0  0  0  0  0
   42.0794   32.5403   37.8729 H   0  0  0  0  0  0  0  0  0  0  0  0
   41.3656   31.6868   41.5373 H   0  0  0  0  0  0  0  0  0  0  0  0
   42.6633   30.1011   42.9886 H   0  0  0  0  0  0  0  0  0  0  0  0
   39.1709   25.6963   44.6568 H   0  0  0  0  0  0  0  0  0  0  0  0
  1 14  1  0
  2  8  1  0
  2  1  1  0
  3  2  1  0
  4  5  1  0
  4  3  2  0
  5  7  1  0
  6  5  2  0
  7 10  1  0
  7  8  1  0
  8  9  2  0
 10 12  1  0
 11 10  1  0
 13 10  1  0
 14 15  2  0
 14 19  1  0
 15 16  1  0
 16 17  2  0
 18 17  1  0
 18 20  1  0
 19 18  2  0
 20 22  1  0
 21 20  2  0
  1 23  1  0
  1 24  1  0
  3 25  1  0
  4 26  1  0
 15 27  1  0
 16 28  1  0
 22 29  1  0
M  ISO  7  23   8  24   8  25  14  26  14  27  14  28  14  29   3
M  END
>  <minimizedAffinity>  (1) 
-5.33057213

>  <minimizedRMSD>  (1) 
2.76044941

$$$$
