
     RDKit          3D

 33 35  0  0  1  0  0  0  0  0999 V2000
   39.8630   31.6670   39.6080 C   0  0  0  0  0  0  0  0  0  0  0  0
   39.4590   30.5720   40.4240 C   0  0  0  0  0  0  0  0  0  0  0  0
   38.1840   30.6220   40.9800 C   0  0  0  0  0  0  0  0  0  0  0  0
   37.3850   31.6910   40.7330 N   0  0  0  0  0  0  0  0  0  0  0  0
   37.8080   32.7150   39.9480 C   0  0  0  0  0  0  0  0  0  0  0  0
   39.0270   32.7120   39.3900 N   0  0  0  0  0  0  0  0  0  0  0  0
   36.9090   33.8100   39.7320 N   0  0  0  0  0  0  0  0  0  0  0  0
   37.7240   29.5560   41.8070 N   0  0  0  0  0  0  0  0  0  0  0  0
   38.4110   29.2320   43.0190 C   0  0  0  0  0  0  0  0  0  0  0  0
   37.3910   28.5140   43.9070 C   0  0  0  0  0  0  0  0  0  0  0  0
   36.8580   27.3320   43.3080 N   0  0  0  0  0  0  0  0  0  0  0  0
   36.6820   27.3860   41.8990 C   0  0  0  0  0  0  0  0  0  0  0  0
   36.5630   28.8140   41.4010 C   0  0  2  0  0  0  0  0  0  0  0  0
   36.6200   28.7020   39.8840 C   0  0  0  0  0  0  0  0  0  0  0  0
   36.1150   27.4910   39.2040 C   0  0  0  0  0  0  0  0  0  0  0  0
   35.4300   28.8490   39.0450 C   0  0  0  0  0  0  0  0  0  0  0  0
   40.8631   31.6650   39.1501 H   0  0  0  0  0  0  0  0  0  0  0  0
   40.1290   29.7192   40.6079 H   0  0  0  0  0  0  0  0  0  0  0  0
   37.1966   34.6038   39.1420 H   0  0  0  0  0  0  0  0  0  0  0  0
   35.9753   33.8032   40.1667 H   0  0  0  0  0  0  0  0  0  0  0  0
   39.2654   28.5719   42.8086 H   0  0  0  0  0  0  0  0  0  0  0  0
   38.8066   30.1335   43.5098 H   0  0  0  0  0  0  0  0  0  0  0  0
   37.8831   28.2364   44.8508 H   0  0  0  0  0  0  0  0  0  0  0  0
   36.5517   29.2067   44.0672 H   0  0  0  0  0  0  0  0  0  0  0  0
   37.4985   26.5533   43.5181 H   0  0  0  0  0  0  0  0  0  0  0  0
   37.5470   26.9104   41.4135 H   0  0  0  0  0  0  0  0  0  0  0  0
   35.7496   26.8580   41.6502 H   0  0  0  0  0  0  0  0  0  0  0  0
   35.6542   29.3041   41.7803 H   0  0  0  0  0  0  0  0  0  0  0  0
   37.5870   29.2255   39.9139 H   0  0  0  0  0  0  0  0  0  0  0  0
   36.6754   27.0507   38.3661 H   0  0  0  0  0  0  0  0  0  0  0  0
   35.8041   26.4832   39.5167 H   0  0  0  0  0  0  0  0  0  0  0  0
   35.4914   29.3901   38.0893 H   0  0  0  0  0  0  0  0  0  0  0  0
   34.4101   29.2335   39.1934 H   0  0  0  0  0  0  0  0  0  0  0  0
  1  2  2  0
  2  3  1  0
  3  8  1  0
  4  3  2  0
  5  4  1  0
  6  1  1  0
  6  5  2  0
  7  5  1  0
  8  9  1  0
  9 10  1  0
 11 10  1  0
 12 11  1  0
 13  8  1  0
 13 12  1  0
 14 13  1  0
 15 14  1  0
 16 15  1  0
 16 14  1  0
  1 17  1  0
  2 18  1  0
  7 19  1  0
  7 20  1  0
  9 21  1  0
  9 22  1  0
 10 23  1  0
 10 24  1  0
 11 25  1  0
 12 26  1  0
 12 27  1  0
 13 28  1  6
 14 29  1  0
 15 30  1  0
 15 31  1  0
 16 32  1  0
 16 33  1  0
M  ISO  8  17  14  18  14  21  13  22  13  23  13  24  13  25   5  26  13
M  ISO  7  27  13  28  13  29  13  30  13  31  13  32  13  33  13
M  END
>  <minimizedAffinity>  (1) 
-4.9722724

>  <minimizedRMSD>  (1) 
1.72832406

$$$$
