
     RDKit          3D

 21 22  0  0  0  0  0  0  0  0999 V2000
   38.1170   29.0080   43.3330 C   0  0  0  0  0  0  0  0  0  0  0  0
   38.2610   27.6170   43.4860 C   0  0  0  0  0  0  0  0  0  0  0  0
   37.5130   26.7720   42.6810 C   0  0  0  0  0  0  0  0  0  0  0  0
   36.6660   27.3280   41.7680 N   0  0  0  0  0  0  0  0  0  0  0  0
   36.5390   28.6650   41.6330 C   0  0  0  0  0  0  0  0  0  0  0  0
   37.2570   29.4950   42.4060 N   0  0  0  0  0  0  0  0  0  0  0  0
   35.4110   29.3410   40.4180 S   0  0  0  0  0  0  0  0  0  0  0  0
   36.3070   30.1670   39.1120 C   0  0  0  0  0  0  0  0  0  0  0  0
   36.5260   29.6720   37.8410 C   0  0  0  0  0  0  0  0  0  0  0  0
   37.2350   30.4010   36.9090 C   0  0  0  0  0  0  0  0  0  0  0  0
   37.7210   31.6370   37.2810 C   0  0  0  0  0  0  0  0  0  0  0  0
   37.5270   32.1720   38.5410 C   0  0  0  0  0  0  0  0  0  0  0  0
   36.8080   31.4170   39.4620 C   0  0  0  0  0  0  0  0  0  0  0  0
   38.6995   29.6967   43.9626 H   0  0  0  0  0  0  0  0  0  0  0  0
   38.9564   27.2063   44.2328 H   0  0  0  0  0  0  0  0  0  0  0  0
   37.6004   25.6796   42.7763 H   0  0  0  0  0  0  0  0  0  0  0  0
   36.1295   28.6828   37.5684 H   0  0  0  0  0  0  0  0  0  0  0  0
   37.4081   30.0073   35.8966 H   0  0  0  0  0  0  0  0  0  0  0  0
   38.2880   32.2230   36.5426 H   0  0  0  0  0  0  0  0  0  0  0  0
   37.9277   33.1615   38.8063 H   0  0  0  0  0  0  0  0  0  0  0  0
   36.6343   31.8110   40.4742 H   0  0  0  0  0  0  0  0  0  0  0  0
  1  2  2  0
  3  2  1  0
  4  3  2  0
  5  4  1  0
  5  6  2  0
  6  1  1  0
  7  5  1  0
  8 13  1  0
  8  7  1  0
  9  8  2  0
 10 11  2  0
 10  9  1  0
 11 12  1  0
 12 13  2  0
  1 14  1  0
  2 15  1  0
  3 16  1  0
  9 17  1  0
 10 18  1  0
 11 19  1  0
 12 20  1  0
 13 21  1  0
M  ISO  8  14  14  15  14  16  14  17  14  18  14  19  14  20  14  21  14
M  END
>  <minimizedAffinity>  (1) 
-4.26474762

>  <minimizedRMSD>  (1) 
2.16102862

$$$$
