
     RDKit          3D

 23 24  0  0  1  0  0  0  0  0999 V2000
   38.2500   29.3960   43.1010 C   0  0  0  0  0  0  0  0  0  0  0  0
   37.7380   28.2040   43.6600 C   0  0  0  0  0  0  0  0  0  0  0  0
   36.6920   27.5670   42.9860 C   0  0  0  0  0  0  0  0  0  0  0  0
   36.2110   28.1060   41.8330 N   0  0  0  0  0  0  0  0  0  0  0  0
   36.7290   29.2530   41.3280 C   0  0  0  0  0  0  0  0  0  0  0  0
   37.7350   29.8850   41.9580 N   0  0  0  0  0  0  0  0  0  0  0  0
   36.0440   29.9020   39.8060 S   0  0  0  0  0  0  0  0  0  0  0  0
   36.9240   32.3350   40.5950 N   0  0  0  0  0  0  0  0  0  0  0  0
   37.8230   33.3700   40.0570 C   0  0  0  0  0  0  0  0  0  0  0  0
   38.9090   32.5710   39.3370 C   0  0  0  0  0  0  0  0  0  0  0  0
   38.2390   31.2500   39.0640 C   0  0  0  0  0  0  0  0  0  0  0  0
   36.7730   31.5100   39.4120 C   0  0  1  0  0  0  0  0  0  0  0  0
   39.0730   29.9266   43.6021 H   0  0  0  0  0  0  0  0  0  0  0  0
   38.1482   27.7913   44.5935 H   0  0  0  0  0  0  0  0  0  0  0  0
   36.2610   26.6369   43.3848 H   0  0  0  0  0  0  0  0  0  0  0  0
   37.3571   31.8163   41.3724 H   0  0  0  0  0  0  0  0  0  0  0  0
   37.2887   34.0265   39.3545 H   0  0  0  0  0  0  0  0  0  0  0  0
   38.2278   34.0299   40.8384 H   0  0  0  0  0  0  0  0  0  0  0  0
   39.2057   33.0642   38.3996 H   0  0  0  0  0  0  0  0  0  0  0  0
   39.8339   32.4728   39.9243 H   0  0  0  0  0  0  0  0  0  0  0  0
   38.3471   30.9662   38.0068 H   0  0  0  0  0  0  0  0  0  0  0  0
   38.6749   30.4226   39.6431 H   0  0  0  0  0  0  0  0  0  0  0  0
   36.1424   31.9782   38.6419 H   0  0  0  0  0  0  0  0  0  0  0  0
  1  2  2  0
  3  2  1  0
  4  3  2  0
  5  4  1  0
  5  6  2  0
  6  1  1  0
  7  5  1  0
  9  8  1  0
 10  9  1  0
 11 10  1  0
 11 12  1  0
 12  7  1  0
 12  8  1  0
  1 13  1  0
  2 14  1  0
  3 15  1  0
  8 16  1  0
  9 17  1  0
  9 18  1  0
 10 19  1  0
 10 20  1  0
 11 21  1  0
 11 22  1  0
 12 23  1  6
M  ISO  8  13  14  14  14  15  14  16   5  17  13  18  13  19  13  20  13
M  ISO  3  21  13  22  13  23  13
M  END
>  <minimizedAffinity>  (1) 
-4.00544262

>  <minimizedRMSD>  (1) 
0.578184009

$$$$
