
     RDKit          3D

 19 20  0  0  0  0  0  0  0  0999 V2000
   38.7910   28.5450   43.1350 C   0  0  0  0  0  0  0  0  0  0  0  0
   38.1660   27.2970   43.1620 C   0  0  0  0  0  0  0  0  0  0  0  0
   36.9450   27.1390   42.5190 C   0  0  0  0  0  0  0  0  0  0  0  0
   36.4060   28.2300   41.8810 N   0  0  0  0  0  0  0  0  0  0  0  0
   37.0360   29.4220   41.8740 C   0  0  0  0  0  0  0  0  0  0  0  0
   38.2120   29.5770   42.4920 N   0  0  0  0  0  0  0  0  0  0  0  0
   36.2900   30.8180   41.0260 S   0  0  0  0  0  0  0  0  0  0  0  0
   36.5750   30.5850   39.2650 C   0  0  0  0  0  0  0  0  0  0  0  0
   37.3900   31.5370   38.6510 C   0  0  0  0  0  0  0  0  0  0  0  0
   37.6820   31.4700   37.3110 C   0  0  0  0  0  0  0  0  0  0  0  0
   37.1370   30.4350   36.6310 N   0  0  0  0  0  0  0  0  0  0  0  0
   36.3500   29.5180   37.2240 C   0  0  0  0  0  0  0  0  0  0  0  0
   36.0440   29.5600   38.5500 N   0  0  0  0  0  0  0  0  0  0  0  0
   39.7581   28.6857   43.6398 H   0  0  0  0  0  0  0  0  0  0  0  0
   38.6341   26.4503   43.6854 H   0  0  0  0  0  0  0  0  0  0  0  0
   36.4252   26.1696   42.5205 H   0  0  0  0  0  0  0  0  0  0  0  0
   37.8070   32.3579   39.2529 H   0  0  0  0  0  0  0  0  0  0  0  0
   38.3229   32.2158   36.8181 H   0  0  0  0  0  0  0  0  0  0  0  0
   35.9375   28.7018   36.6127 H   0  0  0  0  0  0  0  0  0  0  0  0
  1  2  2  0
  3  2  1  0
  4  3  2  0
  5  4  1  0
  5  6  2  0
  6  1  1  0
  7  5  1  0
  8  7  1  0
  9  8  2  0
 10  9  1  0
 11 12  1  0
 11 10  2  0
 12 13  2  0
 13  8  1  0
  1 14  1  0
  2 15  1  0
  3 16  1  0
  9 17  1  0
 10 18  1  0
 12 19  1  0
M  ISO  6  14  14  15  14  16  14  17  14  18  14  19  14
M  END
>  <minimizedAffinity>  (1) 
-3.84051824

>  <minimizedRMSD>  (1) 
2.94103146

$$$$
