
     RDKit          3D

 29 30  0  0  1  0  0  0  0  0999 V2000
   40.0390   32.0730   41.0220 C   0  0  0  0  0  0  0  0  0  0  0  0
   39.6000   30.8110   41.5310 C   0  0  0  0  0  0  0  0  0  0  0  0
   38.2590   30.5220   41.4560 C   0  0  0  0  0  0  0  0  0  0  0  0
   37.4110   31.4290   40.9070 N   0  0  0  0  0  0  0  0  0  0  0  0
   37.8520   32.6170   40.4320 C   0  0  0  0  0  0  0  0  0  0  0  0
   39.1610   32.9390   40.4880 N   0  0  0  0  0  0  0  0  0  0  0  0
   36.9080   33.5300   39.8660 N   0  0  0  0  0  0  0  0  0  0  0  0
   37.7640   29.2810   41.9460 N   0  0  0  0  0  0  0  0  0  0  0  0
   37.9200   28.9330   43.3180 C   0  0  0  0  0  0  0  0  0  0  0  0
   36.8420   27.8900   43.6260 C   0  0  0  0  0  0  0  0  0  0  0  0
   36.9490   26.7200   42.8090 N   0  0  0  0  0  0  0  0  0  0  0  0
   37.3340   26.9590   41.4640 C   0  0  0  0  0  0  0  0  0  0  0  0
   37.0980   28.3750   41.0340 C   0  0  1  0  0  0  0  0  0  0  0  0
   35.6720   28.7550   40.8320 C   0  0  0  0  0  0  0  0  0  0  0  0
   41.1057   32.3376   41.0680 H   0  0  0  0  0  0  0  0  0  0  0  0
   40.3121   30.0955   41.9680 H   0  0  0  0  0  0  0  0  0  0  0  0
   35.9098   33.2795   39.8256 H   0  0  0  0  0  0  0  0  0  0  0  0
   37.2263   34.4381   39.4988 H   0  0  0  0  0  0  0  0  0  0  0  0
   38.9200   28.5088   43.4913 H   0  0  0  0  0  0  0  0  0  0  0  0
   37.8175   29.8153   43.9668 H   0  0  0  0  0  0  0  0  0  0  0  0
   36.9340   27.5912   44.6806 H   0  0  0  0  0  0  0  0  0  0  0  0
   35.8662   28.3518   43.4148 H   0  0  0  0  0  0  0  0  0  0  0  0
   37.6488   26.0959   43.2353 H   0  0  0  0  0  0  0  0  0  0  0  0
   38.4058   26.7344   41.3603 H   0  0  0  0  0  0  0  0  0  0  0  0
   36.7170   26.3117   40.8235 H   0  0  0  0  0  0  0  0  0  0  0  0
   37.5356   28.4574   40.0281 H   0  0  0  0  0  0  0  0  0  0  0  0
   35.1851   28.8848   41.8098 H   0  0  0  0  0  0  0  0  0  0  0  0
   35.6202   29.6983   40.2685 H   0  0  0  0  0  0  0  0  0  0  0  0
   35.1577   27.9626   40.2685 H   0  0  0  0  0  0  0  0  0  0  0  0
  1  2  2  0
  3  2  1  0
  3  8  1  0
  4  3  2  0
  5  6  2  0
  5  4  1  0
  6  1  1  0
  7  5  1  0
  8  9  1  0
  9 10  1  0
 11 10  1  0
 12 11  1  0
 13 12  1  0
 13  8  1  0
 14 13  1  0
  1 15  1  0
  2 16  1  0
  7 17  1  0
  7 18  1  0
  9 19  1  0
  9 20  1  0
 10 21  1  0
 10 22  1  0
 11 23  1  0
 12 24  1  0
 12 25  1  0
 13 26  1  6
 14 27  1  0
 14 28  1  0
 14 29  1  0
M  ISO  8  15  14  16  14  19  13  20  13  21  13  22  13  23   5  24  13
M  ISO  5  25  13  26  13  27   8  28   8  29   8
M  END
>  <minimizedAffinity>  (1) 
-4.90757799

>  <minimizedRMSD>  (1) 
0.447733551

$$$$
