
     RDKit          3D

 23 23  0  0  0  0  0  0  0  0999 V2000
   38.5020   28.8210   43.3490 C   0  0  0  0  0  0  0  0  0  0  0  0
   37.8670   27.5620   43.4920 C   0  0  0  0  0  0  0  0  0  0  0  0
   36.7520   27.3060   42.7110 C   0  0  0  0  0  0  0  0  0  0  0  0
   36.3090   28.2580   41.8470 N   0  0  0  0  0  0  0  0  0  0  0  0
   36.9350   29.4480   41.7330 C   0  0  0  0  0  0  0  0  0  0  0  0
   38.0070   29.7080   42.4760 N   0  0  0  0  0  0  0  0  0  0  0  0
   36.3130   30.6670   40.5870 S   0  0  0  0  0  0  0  0  0  0  0  0
   36.9600   30.4910   38.9310 C   0  0  0  0  0  0  0  0  0  0  0  0
   35.9970   29.7840   38.0020 C   0  0  0  0  0  0  0  0  0  0  0  0
   37.3270   31.8030   38.3150 C   0  0  0  0  0  0  0  0  0  0  0  0
   38.1910   29.5900   39.0250 C   0  0  0  0  0  0  0  0  0  0  0  0
   39.3912   29.0668   43.9481 H   0  0  0  0  0  0  0  0  0  0  0  0
   38.2476   26.8118   44.2008 H   0  0  0  0  0  0  0  0  0  0  0  0
   36.2295   26.3411   42.7890 H   0  0  0  0  0  0  0  0  0  0  0  0
   35.2505   29.2359   38.5956 H   0  0  0  0  0  0  0  0  0  0  0  0
   35.4887   30.5251   37.3676 H   0  0  0  0  0  0  0  0  0  0  0  0
   36.5518   29.0771   37.3676 H   0  0  0  0  0  0  0  0  0  0  0  0
   37.5321   32.5362   39.1089 H   0  0  0  0  0  0  0  0  0  0  0  0
   38.2244   31.6771   37.6914 H   0  0  0  0  0  0  0  0  0  0  0  0
   36.4945   32.1610   37.6914 H   0  0  0  0  0  0  0  0  0  0  0  0
   38.4348   29.4115   40.0827 H   0  0  0  0  0  0  0  0  0  0  0  0
   37.9816   28.6303   38.5300 H   0  0  0  0  0  0  0  0  0  0  0  0
   39.0425   30.0798   38.5300 H   0  0  0  0  0  0  0  0  0  0  0  0
  1  2  2  0
  3  2  1  0
  4  3  2  0
  5  4  1  0
  5  6  2  0
  6  1  1  0
  7  5  1  0
  8 11  1  0
  8  7  1  0
  9  8  1  0
 10  8  1  0
  1 12  1  0
  2 13  1  0
  3 14  1  0
  9 15  1  0
  9 16  1  0
  9 17  1  0
 10 18  1  0
 10 19  1  0
 10 20  1  0
 11 21  1  0
 11 22  1  0
 11 23  1  0
M  ISO  8  12  14  13  14  14  14  15   8  16   8  17   8  18   8  19   8
M  ISO  4  20   8  21   8  22   8  23   8
M  END
>  <minimizedAffinity>  (1) 
-3.44673657

>  <minimizedRMSD>  (1) 
0.481070191

$$$$
