
     RDKit          3D

 32 35  0  0  0  0  0  0  0  0999 V2000
   39.5750   32.0580   36.9490 N   0  0  0  0  0  0  0  0  0  0  0  0
   38.4470   31.9560   37.6160 N   0  0  0  0  0  0  0  0  0  0  0  0
   38.6250   32.3650   38.8830 C   0  0  0  0  0  0  0  0  0  0  0  0
   39.9430   32.7230   38.9360 C   0  0  0  0  0  0  0  0  0  0  0  0
   40.5690   32.5350   37.7160 C   0  0  0  0  0  0  0  0  0  0  0  0
   41.9670   32.8310   37.4840 C   0  0  0  0  0  0  0  0  0  0  0  0
   42.5280   34.1000   37.4510 C   0  0  0  0  0  0  0  0  0  0  0  0
   43.8450   34.0470   37.2150 N   0  0  0  0  0  0  0  0  0  0  0  0
   44.2220   32.7650   37.0800 C   0  0  0  0  0  0  0  0  0  0  0  0
   45.4410   32.1750   36.8320 C   0  0  0  0  0  0  0  0  0  0  0  0
   45.5440   30.8030   36.7420 C   0  0  0  0  0  0  0  0  0  0  0  0
   44.3980   30.0520   36.9050 C   0  0  0  0  0  0  0  0  0  0  0  0
   43.1990   30.6830   37.1510 C   0  0  0  0  0  0  0  0  0  0  0  0
   43.0600   32.0400   37.2480 C   0  0  0  0  0  0  0  0  0  0  0  0
   37.5240   32.4800   40.2810 S   0  0  0  0  0  0  0  0  0  0  0  0
   37.4120   28.9330   42.0690 C   0  0  0  0  0  0  0  0  0  0  0  0
   36.2440   28.3460   41.5850 C   0  0  0  0  0  0  0  0  0  0  0  0
   35.4570   29.0650   40.6730 C   0  0  0  0  0  0  0  0  0  0  0  0
   35.8890   30.3040   40.3150 N   0  0  0  0  0  0  0  0  0  0  0  0
   37.0240   30.8430   40.8020 C   0  0  0  0  0  0  0  0  0  0  0  0
   37.7830   30.1670   41.6730 N   0  0  0  0  0  0  0  0  0  0  0  0
   39.6836   31.8027   35.9571 H   0  0  0  0  0  0  0  0  0  0  0  0
   40.4433   33.1117   39.8352 H   0  0  0  0  0  0  0  0  0  0  0  0
   41.9623   35.0315   37.5999 H   0  0  0  0  0  0  0  0  0  0  0  0
   44.4711   34.8621   37.1475 H   0  0  0  0  0  0  0  0  0  0  0  0
   46.3366   32.8009   36.7051 H   0  0  0  0  0  0  0  0  0  0  0  0
   46.5129   30.3205   36.5457 H   0  0  0  0  0  0  0  0  0  0  0  0
   44.4419   28.9549   36.8388 H   0  0  0  0  0  0  0  0  0  0  0  0
   42.3014   30.0597   37.2767 H   0  0  0  0  0  0  0  0  0  0  0  0
   38.0399   28.3814   42.7842 H   0  0  0  0  0  0  0  0  0  0  0  0
   35.9453   27.3390   41.9117 H   0  0  0  0  0  0  0  0  0  0  0  0
   34.5272   28.6433   40.2636 H   0  0  0  0  0  0  0  0  0  0  0  0
  1  2  1  0
  1  5  1  0
  2  3  2  0
  3  4  1  0
  3 15  1  0
  5  4  2  0
  6  5  1  0
  7  6  2  0
  8  7  1  0
  9  8  1  0
  9 14  2  0
 10  9  1  0
 11 10  2  0
 11 12  1  0
 12 13  2  0
 13 14  1  0
 14  6  1  0
 15 20  1  0
 17 16  2  0
 18 17  1  0
 19 18  2  0
 19 20  1  0
 20 21  2  0
 21 16  1  0
  1 22  1  0
  4 23  1  0
  7 24  1  0
  8 25  1  0
 10 26  1  0
 11 27  1  0
 12 28  1  0
 13 29  1  0
 16 30  1  0
 17 31  1  0
 18 32  1  0
M  ISO  8  22   9  23  14  24  14  25   9  26  14  27  14  28  14  29  14
M  ISO  3  30  14  31  14  32  14
M  END
>  <minimizedAffinity>  (1) 
-5.60584354

>  <minimizedRMSD>  (1) 
0.964611471

$$$$
