
     RDKit          3D

 25 26  0  0  0  0  0  0  0  0999 V2000
   39.8840   32.2930   36.9480 N   0  0  0  0  0  0  0  0  0  0  0  0
   38.9620   32.1120   37.8820 N   0  0  0  0  0  0  0  0  0  0  0  0
   39.4710   32.3950   39.0920 C   0  0  0  0  0  0  0  0  0  0  0  0
   40.7740   32.7640   38.8460 C   0  0  0  0  0  0  0  0  0  0  0  0
   41.0540   32.7050   37.4910 C   0  0  0  0  0  0  0  0  0  0  0  0
   42.2860   33.0100   36.8560 N   0  0  0  0  0  0  0  0  0  0  0  0
   43.0810   34.1020   37.2910 C   0  0  0  0  0  0  0  0  0  0  0  0
   42.4840   35.1630   37.7210 N   0  0  0  0  0  0  0  0  0  0  0  0
   44.5160   33.9730   37.2290 N   0  0  0  0  0  0  0  0  0  0  0  0
   43.0440   35.9910   38.0510 H   0  0  0  0  0  0  0  0  0  0  0  0
   38.7850   32.3610   40.7320 S   0  0  0  0  0  0  0  0  0  0  0  0
   37.1270   28.9100   41.8370 C   0  0  0  0  0  0  0  0  0  0  0  0
   35.9340   28.8750   41.1150 C   0  0  0  0  0  0  0  0  0  0  0  0
   35.6290   29.9390   40.2660 C   0  0  0  0  0  0  0  0  0  0  0  0
   36.5080   30.9650   40.1760 N   0  0  0  0  0  0  0  0  0  0  0  0
   37.6590   30.9630   40.8960 C   0  0  0  0  0  0  0  0  0  0  0  0
   37.9670   29.9570   41.7120 N   0  0  0  0  0  0  0  0  0  0  0  0
   39.7309   32.1404   35.9409 H   0  0  0  0  0  0  0  0  0  0  0  0
   41.4949   33.0649   39.6204 H   0  0  0  0  0  0  0  0  0  0  0  0
   42.6078   32.4302   36.0678 H   0  0  0  0  0  0  0  0  0  0  0  0
   45.1168   34.7503   37.5384 H   0  0  0  0  0  0  0  0  0  0  0  0
   44.9401   33.1036   36.8753 H   0  0  0  0  0  0  0  0  0  0  0  0
   37.3835   28.0796   42.5113 H   0  0  0  0  0  0  0  0  0  0  0  0
   35.2454   28.0228   41.2135 H   0  0  0  0  0  0  0  0  0  0  0  0
   34.6961   29.9444   39.6832 H   0  0  0  0  0  0  0  0  0  0  0  0
  1  5  1  0
  1  2  1  0
  2  3  2  0
  3 11  1  0
  4  3  1  0
  5  4  2  0
  6  7  1  0
  6  5  1  0
  7  8  2  0
  8 10  1  0
  9  7  1  0
 11 16  1  0
 13 12  2  0
 14 13  1  0
 15 14  2  0
 15 16  1  0
 16 17  2  0
 17 12  1  0
  1 18  1  0
  4 19  1  0
  6 20  1  0
  9 21  1  0
  9 22  1  0
 12 23  1  0
 13 24  1  0
 14 25  1  0
M  ISO  5  18   9  19  14  23  14  24  14  25  14
M  END
>  <minimizedAffinity>  (1) 
-5.53827429

>  <minimizedRMSD>  (1) 
0.338228971

$$$$
