
     RDKit          3D

 27 29  0  0  0  0  0  0  0  0999 V2000
   38.3470   32.3890   38.3980 N   0  0  0  0  0  0  0  0  0  0  0  0
   37.5150   31.3710   38.5310 N   0  0  0  0  0  0  0  0  0  0  0  0
   37.0380   31.3440   39.7960 C   0  0  0  0  0  0  0  0  0  0  0  0
   37.6270   32.4160   40.4500 C   0  0  0  0  0  0  0  0  0  0  0  0
   38.4580   33.0790   39.5610 C   0  0  0  0  0  0  0  0  0  0  0  0
   39.2950   34.2540   39.7500 C   0  0  0  0  0  0  0  0  0  0  0  0
   38.7230   35.4690   40.0570 C   0  0  0  0  0  0  0  0  0  0  0  0
   39.6090   36.5100   40.2140 C   0  0  0  0  0  0  0  0  0  0  0  0
   40.9980   36.4030   40.0840 C   0  0  0  0  0  0  0  0  0  0  0  0
   41.4660   35.1260   39.7720 C   0  0  0  0  0  0  0  0  0  0  0  0
   40.6210   34.0860   39.6130 N   0  0  0  0  0  0  0  0  0  0  0  0
   35.8960   30.2590   40.6490 S   0  0  0  0  0  0  0  0  0  0  0  0
   37.0160   27.1530   42.8820 C   0  0  0  0  0  0  0  0  0  0  0  0
   38.2220   27.5680   43.4480 C   0  0  0  0  0  0  0  0  0  0  0  0
   38.7090   28.8540   43.1300 C   0  0  0  0  0  0  0  0  0  0  0  0
   37.9730   29.6100   42.2920 N   0  0  0  0  0  0  0  0  0  0  0  0
   36.8060   29.1830   41.7560 C   0  0  0  0  0  0  0  0  0  0  0  0
   36.3430   27.9690   42.0540 N   0  0  0  0  0  0  0  0  0  0  0  0
   38.8446   32.6268   37.5281 H   0  0  0  0  0  0  0  0  0  0  0  0
   37.4617   32.6941   41.5013 H   0  0  0  0  0  0  0  0  0  0  0  0
   37.6363   35.5977   40.1686 H   0  0  0  0  0  0  0  0  0  0  0  0
   39.1949   37.4990   40.4598 H   0  0  0  0  0  0  0  0  0  0  0  0
   41.6715   37.2623   40.2179 H   0  0  0  0  0  0  0  0  0  0  0  0
   42.5474   34.9635   39.6531 H   0  0  0  0  0  0  0  0  0  0  0  0
   36.6154   26.1552   43.1144 H   0  0  0  0  0  0  0  0  0  0  0  0
   38.7809   26.9074   44.1271 H   0  0  0  0  0  0  0  0  0  0  0  0
   39.6549   29.2255   43.5510 H   0  0  0  0  0  0  0  0  0  0  0  0
  1  2  1  0
  1  5  1  0
  2  3  2  0
  3  4  1  0
  3 12  1  0
  5  6  1  0
  5  4  2  0
  6  7  2  0
  7  8  1  0
  9  8  2  0
 10  9  1  0
 11  6  1  0
 11 10  2  0
 12 17  1  0
 13 14  2  0
 15 14  1  0
 16 15  2  0
 17 18  2  0
 17 16  1  0
 18 13  1  0
  1 19  1  0
  4 20  1  0
  7 21  1  0
  8 22  1  0
  9 23  1  0
 10 24  1  0
 13 25  1  0
 14 26  1  0
 15 27  1  0
M  ISO  8  19   9  20  14  21  14  22  14  23  14  24  14  25  14  26  14
M  ISO  1  27  14
M  END
>  <minimizedAffinity>  (1) 
-5.45820761

>  <minimizedRMSD>  (1) 
3.89914846

$$$$
