
     RDKit          3D

 25 27  0  0  0  0  0  0  0  0999 V2000
   39.0210   32.6720   38.7560 N   0  0  0  0  0  0  0  0  0  0  0  0
   38.2590   31.5880   38.8330 N   0  0  0  0  0  0  0  0  0  0  0  0
   37.4300   31.6750   39.8920 C   0  0  0  0  0  0  0  0  0  0  0  0
   37.7120   32.8920   40.4950 C   0  0  0  0  0  0  0  0  0  0  0  0
   38.7170   33.5300   39.7810 C   0  0  0  0  0  0  0  0  0  0  0  0
   39.3550   34.8190   40.0120 C   0  0  0  0  0  0  0  0  0  0  0  0
   40.6930   34.9090   40.4120 C   0  0  0  0  0  0  0  0  0  0  0  0
   40.9470   36.2620   40.5320 C   0  0  0  0  0  0  0  0  0  0  0  0
   39.7840   36.9230   40.2060 C   0  0  0  0  0  0  0  0  0  0  0  0
   38.8950   36.0320   39.9140 O   0  0  0  0  0  0  0  0  0  0  0  0
   36.1790   30.5920   40.5570 S   0  0  0  0  0  0  0  0  0  0  0  0
   38.6750   28.8720   43.1490 C   0  0  0  0  0  0  0  0  0  0  0  0
   38.0760   27.6470   43.4340 C   0  0  0  0  0  0  0  0  0  0  0  0
   36.8670   27.3420   42.8070 C   0  0  0  0  0  0  0  0  0  0  0  0
   36.3270   28.2400   41.9550 N   0  0  0  0  0  0  0  0  0  0  0  0
   36.9390   29.4330   41.6970 C   0  0  0  0  0  0  0  0  0  0  0  0
   38.0880   29.7170   42.2940 N   0  0  0  0  0  0  0  0  0  0  0  0
   39.7348   32.8431   38.0334 H   0  0  0  0  0  0  0  0  0  0  0  0
   37.2184   33.2880   41.3947 H   0  0  0  0  0  0  0  0  0  0  0  0
   41.3930   34.0799   40.5924 H   0  0  0  0  0  0  0  0  0  0  0  0
   41.8992   36.7240   40.8316 H   0  0  0  0  0  0  0  0  0  0  0  0
   39.6380   38.0132   40.1960 H   0  0  0  0  0  0  0  0  0  0  0  0
   39.6283   29.1438   43.6258 H   0  0  0  0  0  0  0  0  0  0  0  0
   38.5433   26.9391   44.1344 H   0  0  0  0  0  0  0  0  0  0  0  0
   36.3617   26.3849   43.0037 H   0  0  0  0  0  0  0  0  0  0  0  0
  1  2  1  0
  1  5  1  0
  2  3  2  0
  3  4  1  0
  3 11  1  0
  5  6  1  0
  5  4  2  0
  6  7  2  0
  7  8  1  0
  9  8  2  0
 10  6  1  0
 10  9  1  0
 11 16  1  0
 12 13  2  0
 14 13  1  0
 15 14  2  0
 16 15  1  0
 16 17  2  0
 17 12  1  0
  1 18  1  0
  4 19  1  0
  7 20  1  0
  8 21  1  0
  9 22  1  0
 12 23  1  0
 13 24  1  0
 14 25  1  0
M  ISO  8  18   9  19  14  20  14  21  14  22  14  23  14  24  14  25  14
M  END
>  <minimizedAffinity>  (1) 
-5.34242916

>  <minimizedRMSD>  (1) 
3.81949353

$$$$
