
     RDKit          3D

 33 35  0  0  0  0  0  0  0  0999 V2000
   38.5640   31.5790   41.0650 N   0  0  0  0  0  0  0  0  0  0  0  0
   39.3310   32.6500   41.2450 N   0  0  0  0  0  0  0  0  0  0  0  0
   38.9160   33.6440   40.4240 C   0  0  0  0  0  0  0  0  0  0  0  0
   37.8380   33.1430   39.7110 C   0  0  0  0  0  0  0  0  0  0  0  0
   37.6240   31.8360   40.1240 C   0  0  0  0  0  0  0  0  0  0  0  0
   36.6650   30.8950   39.7150 N   0  0  0  0  0  0  0  0  0  0  0  0
   36.6330   30.5070   38.3190 C   0  0  0  0  0  0  0  0  0  0  0  0
   35.5360   29.5060   38.0400 C   0  0  0  0  0  0  0  0  0  0  0  0
   35.4080   28.4280   39.0640 C   0  0  0  0  0  0  0  0  0  0  0  0
   35.8470   28.7970   40.4430 C   0  0  0  0  0  0  0  0  0  0  0  0
   35.7070   30.2960   40.6240 C   0  0  0  0  0  0  0  0  0  0  0  0
   39.4950   35.3230   40.1600 S   0  0  0  0  0  0  0  0  0  0  0  0
   43.1740   34.9590   41.6310 C   0  0  0  0  0  0  0  0  0  0  0  0
   43.2860   36.0340   42.5130 C   0  0  0  0  0  0  0  0  0  0  0  0
   42.1880   36.9060   42.6610 C   0  0  0  0  0  0  0  0  0  0  0  0
   41.0840   36.6480   41.9380 N   0  0  0  0  0  0  0  0  0  0  0  0
   41.0000   35.5940   41.0860 C   0  0  0  0  0  0  0  0  0  0  0  0
   42.0370   34.7740   40.9470 N   0  0  0  0  0  0  0  0  0  0  0  0
   38.6690   30.6857   41.5669 H   0  0  0  0  0  0  0  0  0  0  0  0
   37.2554   33.6857   38.9521 H   0  0  0  0  0  0  0  0  0  0  0  0
   36.4622   31.4030   37.7042 H   0  0  0  0  0  0  0  0  0  0  0  0
   37.5962   30.0363   38.0727 H   0  0  0  0  0  0  0  0  0  0  0  0
   34.5803   30.0483   37.9905 H   0  0  0  0  0  0  0  0  0  0  0  0
   35.7980   29.0098   37.0939 H   0  0  0  0  0  0  0  0  0  0  0  0
   34.3500   28.1308   39.1131 H   0  0  0  0  0  0  0  0  0  0  0  0
   36.0802   27.6204   38.7386 H   0  0  0  0  0  0  0  0  0  0  0  0
   35.2189   28.2766   41.1811 H   0  0  0  0  0  0  0  0  0  0  0  0
   36.8968   28.5026   40.5889 H   0  0  0  0  0  0  0  0  0  0  0  0
   35.9350   30.5794   41.6621 H   0  0  0  0  0  0  0  0  0  0  0  0
   34.6821   30.6352   40.4132 H   0  0  0  0  0  0  0  0  0  0  0  0
   44.0170   34.2651   41.4975 H   0  0  0  0  0  0  0  0  0  0  0  0
   44.2130   36.1982   43.0820 H   0  0  0  0  0  0  0  0  0  0  0  0
   42.2329   37.7671   43.3439 H   0  0  0  0  0  0  0  0  0  0  0  0
  1  2  1  0
  3  2  2  0
  4  5  2  0
  4  3  1  0
  5  1  1  0
  6  5  1  0
  6 11  1  0
  7  6  1  0
  8  7  1  0
  8  9  1  0
  9 10  1  0
 10 11  1  0
 12  3  1  0
 12 17  1  0
 13 14  2  0
 14 15  1  0
 16 15  2  0
 17 16  1  0
 18 17  2  0
 18 13  1  0
  1 19  1  0
  4 20  1  0
  7 21  1  0
  7 22  1  0
  8 23  1  0
  8 24  1  0
  9 25  1  0
  9 26  1  0
 10 27  1  0
 10 28  1  0
 11 29  1  0
 11 30  1  0
 13 31  1  0
 14 32  1  0
 15 33  1  0
M  ISO  8  19   9  20  14  21  13  22  13  23  13  24  13  25  13  26  13
M  ISO  7  27  13  28  13  29  13  30  13  31  14  32  14  33  14
M  END
>  <minimizedAffinity>  (1) 
-5.26459169

>  <minimizedRMSD>  (1) 
7.38360071

$$$$
