
     RDKit          3D

 26 28  0  0  0  0  0  0  0  0999 V2000
   38.4080   31.4710   41.0810 N   0  0  0  0  0  0  0  0  0  0  0  0
   39.0970   32.5840   41.2840 N   0  0  0  0  0  0  0  0  0  0  0  0
   38.6720   33.5590   40.4490 C   0  0  0  0  0  0  0  0  0  0  0  0
   37.6610   32.9980   39.6930 C   0  0  0  0  0  0  0  0  0  0  0  0
   37.4990   31.6790   40.0960 C   0  0  0  0  0  0  0  0  0  0  0  0
   36.5470   30.7070   39.5720 C   0  0  0  0  0  0  0  0  0  0  0  0
   36.5710   30.4150   38.2280 C   0  0  0  0  0  0  0  0  0  0  0  0
   35.6630   29.4980   37.7750 C   0  0  0  0  0  0  0  0  0  0  0  0
   34.8000   28.9260   38.6280 N   0  0  0  0  0  0  0  0  0  0  0  0
   34.7650   29.2040   39.9550 C   0  0  0  0  0  0  0  0  0  0  0  0
   35.6790   30.1180   40.3780 N   0  0  0  0  0  0  0  0  0  0  0  0
   39.1740   35.2590   40.2170 S   0  0  0  0  0  0  0  0  0  0  0  0
   42.9260   34.8970   41.4600 C   0  0  0  0  0  0  0  0  0  0  0  0
   43.1020   35.9980   42.3070 C   0  0  0  0  0  0  0  0  0  0  0  0
   42.0320   36.8810   42.5020 C   0  0  0  0  0  0  0  0  0  0  0  0
   40.8740   36.6290   41.8620 N   0  0  0  0  0  0  0  0  0  0  0  0
   40.7340   35.5530   41.0480 C   0  0  0  0  0  0  0  0  0  0  0  0
   41.7420   34.6970   40.8470 N   0  0  0  0  0  0  0  0  0  0  0  0
   38.5416   30.5863   41.5912 H   0  0  0  0  0  0  0  0  0  0  0  0
   37.0840   33.5080   38.9075 H   0  0  0  0  0  0  0  0  0  0  0  0
   37.2884   30.8975   37.5479 H   0  0  0  0  0  0  0  0  0  0  0  0
   35.6403   29.2289   36.7087 H   0  0  0  0  0  0  0  0  0  0  0  0
   34.0494   28.7250   40.6394 H   0  0  0  0  0  0  0  0  0  0  0  0
   43.7555   34.1938   41.2944 H   0  0  0  0  0  0  0  0  0  0  0  0
   44.0649   36.1669   42.8112 H   0  0  0  0  0  0  0  0  0  0  0  0
   42.1348   37.7565   43.1600 H   0  0  0  0  0  0  0  0  0  0  0  0
  1  2  1  0
  3  2  2  0
  4  5  2  0
  4  3  1  0
  5  1  1  0
  6  5  1  0
  6 11  1  0
  7  6  2  0
  8  7  1  0
  8  9  2  0
  9 10  1  0
 10 11  2  0
 12  3  1  0
 12 17  1  0
 13 14  2  0
 14 15  1  0
 16 15  2  0
 17 16  1  0
 18 17  2  0
 18 13  1  0
  1 19  1  0
  4 20  1  0
  7 21  1  0
  8 22  1  0
 10 23  1  0
 13 24  1  0
 14 25  1  0
 15 26  1  0
M  ISO  8  19   9  20  14  21  14  22  14  23  14  24  14  25  14  26  14
M  END
>  <minimizedAffinity>  (1) 
-5.14385843

>  <minimizedRMSD>  (1) 
7.39504623

$$$$
