
     RDKit          3D

 27 28  0  0  1  0  0  0  0  0999 V2000
   40.0400   32.0810   41.0470 C   0  0  0  0  0  0  0  0  0  0  0  0
   39.5910   30.8280   41.5510 C   0  0  0  0  0  0  0  0  0  0  0  0
   38.2580   30.5110   41.4710 C   0  0  0  0  0  0  0  0  0  0  0  0
   37.4110   31.4200   40.9080 N   0  0  0  0  0  0  0  0  0  0  0  0
   37.8580   32.6090   40.4340 C   0  0  0  0  0  0  0  0  0  0  0  0
   39.1530   32.9460   40.4970 N   0  0  0  0  0  0  0  0  0  0  0  0
   36.8910   33.5050   39.8550 N   0  0  0  0  0  0  0  0  0  0  0  0
   37.7700   29.2850   41.9560 N   0  0  0  0  0  0  0  0  0  0  0  0
   37.9240   28.9170   43.3220 C   0  0  0  0  0  0  0  0  0  0  0  0
   36.8590   27.8790   43.6430 C   0  0  0  0  0  0  0  0  0  0  0  0
   36.9220   26.7220   42.8050 N   0  0  0  0  0  0  0  0  0  0  0  0
   37.3900   26.9500   41.4680 C   0  0  0  0  0  0  0  0  0  0  0  0
   37.0970   28.3710   41.0630 C   0  0  1  0  0  0  0  0  0  0  0  0
   35.7180   28.6320   41.0630 O   0  0  0  0  0  0  0  0  0  0  0  0
   41.1058   32.3472   41.1037 H   0  0  0  0  0  0  0  0  0  0  0  0
   40.3046   30.1213   41.9998 H   0  0  0  0  0  0  0  0  0  0  0  0
   35.8982   33.2338   39.8127 H   0  0  0  0  0  0  0  0  0  0  0  0
   37.1920   34.4172   39.4831 H   0  0  0  0  0  0  0  0  0  0  0  0
   38.9246   28.4901   43.4847 H   0  0  0  0  0  0  0  0  0  0  0  0
   37.8141   29.7966   43.9733 H   0  0  0  0  0  0  0  0  0  0  0  0
   36.9870   27.5600   44.6879 H   0  0  0  0  0  0  0  0  0  0  0  0
   35.8815   28.3526   43.4693 H   0  0  0  0  0  0  0  0  0  0  0  0
   37.5545   26.0420   43.2505 H   0  0  0  0  0  0  0  0  0  0  0  0
   38.4750   26.7739   41.4254 H   0  0  0  0  0  0  0  0  0  0  0  0
   36.8768   26.2619   40.7801 H   0  0  0  0  0  0  0  0  0  0  0  0
   37.4691   28.5149   40.0379 H   0  0  0  0  0  0  0  0  0  0  0  0
   35.3938   28.6934   41.9964 H   0  0  0  0  0  0  0  0  0  0  0  0
  1  2  2  0
  3  2  1  0
  3  8  1  0
  4  3  2  0
  5  6  2  0
  5  4  1  0
  6  1  1  0
  7  5  1  0
  8  9  1  0
  9 10  1  0
 11 10  1  0
 12 11  1  0
 13 12  1  0
 13  8  1  0
 14 13  1  0
  1 15  1  0
  2 16  1  0
  7 17  1  0
  7 18  1  0
  9 19  1  0
  9 20  1  0
 10 21  1  0
 10 22  1  0
 11 23  1  0
 12 24  1  0
 12 25  1  0
 13 26  1  6
 14 27  1  0
M  ISO  8  15  14  16  14  19  13  20  13  21  13  22  13  23   5  24  13
M  ISO  3  25  13  26  13  27   3
M  END
>  <minimizedAffinity>  (1) 
-4.80548334

>  <minimizedRMSD>  (1) 
0.437880933

$$$$
