
     RDKit          3D

 34 36  0  0  0  0  0  0  0  0999 V2000
   38.3090   32.4310   40.8020 N   0  0  0  0  0  0  0  0  0  0  0  0
   38.9040   33.5920   41.0590 N   0  0  0  0  0  0  0  0  0  0  0  0
   39.6530   33.9640   40.0050 C   0  0  0  0  0  0  0  0  0  0  0  0
   39.5090   32.9750   39.0470 C   0  0  0  0  0  0  0  0  0  0  0  0
   38.6490   31.9940   39.5570 C   0  0  0  0  0  0  0  0  0  0  0  0
   38.2350   30.7650   38.8450 C   0  0  0  0  0  0  0  0  0  0  0  0
   37.1820   30.0920   39.6800 C   0  0  0  0  0  0  0  0  0  0  0  0
   35.9040   29.8440   38.9120 C   0  0  0  0  0  0  0  0  0  0  0  0
   36.3070   29.1380   37.6300 C   0  0  0  0  0  0  0  0  0  0  0  0
   36.9690   30.1720   36.7560 C   0  0  0  0  0  0  0  0  0  0  0  0
   37.7120   31.2180   37.5020 C   0  0  0  0  0  0  0  0  0  0  0  0
   40.6970   35.3890   39.6810 S   0  0  0  0  0  0  0  0  0  0  0  0
   43.6390   34.9590   42.3160 C   0  0  0  0  0  0  0  0  0  0  0  0
   43.4680   36.0510   43.1930 C   0  0  0  0  0  0  0  0  0  0  0  0
   42.4130   36.9390   42.9530 C   0  0  0  0  0  0  0  0  0  0  0  0
   41.6020   36.7190   41.9020 N   0  0  0  0  0  0  0  0  0  0  0  0
   41.7990   35.6500   41.0750 C   0  0  0  0  0  0  0  0  0  0  0  0
   42.8010   34.7990   41.2940 N   0  0  0  0  0  0  0  0  0  0  0  0
   37.6818   31.9339   41.4503 H   0  0  0  0  0  0  0  0  0  0  0  0
   39.9873   32.9618   38.0565 H   0  0  0  0  0  0  0  0  0  0  0  0
   39.0482   30.0410   38.6882 H   0  0  0  0  0  0  0  0  0  0  0  0
   37.5748   29.1267   40.0320 H   0  0  0  0  0  0  0  0  0  0  0  0
   36.9426   30.7619   40.5190 H   0  0  0  0  0  0  0  0  0  0  0  0
   35.2242   29.2089   39.4989 H   0  0  0  0  0  0  0  0  0  0  0  0
   35.3757   30.7854   38.7007 H   0  0  0  0  0  0  0  0  0  0  0  0
   37.0108   28.3222   37.8516 H   0  0  0  0  0  0  0  0  0  0  0  0
   35.4323   28.6977   37.1289 H   0  0  0  0  0  0  0  0  0  0  0  0
   36.1903   30.6649   36.1554 H   0  0  0  0  0  0  0  0  0  0  0  0
   37.7090   29.6378   36.1419 H   0  0  0  0  0  0  0  0  0  0  0  0
   38.5671   31.5380   36.8885 H   0  0  0  0  0  0  0  0  0  0  0  0
   37.0002   32.0335   37.6978 H   0  0  0  0  0  0  0  0  0  0  0  0
   44.4597   34.2442   42.4758 H   0  0  0  0  0  0  0  0  0  0  0  0
   44.1475   36.2009   44.0449 H   0  0  0  0  0  0  0  0  0  0  0  0
   42.2494   37.8034   43.6134 H   0  0  0  0  0  0  0  0  0  0  0  0
  1  2  1  0
  3  2  2  0
  4  5  2  0
  4  3  1  0
  5  1  1  0
  6  5  1  0
  6  7  1  0
  8  7  1  0
  9  8  1  0
 10 11  1  0
 10  9  1  0
 11  6  1  0
 12  3  1  0
 12 17  1  0
 13 14  2  0
 15 14  1  0
 16 15  2  0
 17 18  2  0
 17 16  1  0
 18 13  1  0
  1 19  1  0
  4 20  1  0
  6 21  1  0
  7 22  1  0
  7 23  1  0
  8 24  1  0
  8 25  1  0
  9 26  1  0
  9 27  1  0
 10 28  1  0
 10 29  1  0
 11 30  1  0
 11 31  1  0
 13 32  1  0
 14 33  1  0
 15 34  1  0
M  ISO  8  19   9  20  14  21  13  22  13  23  13  24  13  25  13  26  13
M  ISO  8  27  13  28  13  29  13  30  13  31  13  32  14  33  14  34  14
M  END
>  <minimizedAffinity>  (1) 
-5.02529907

>  <minimizedRMSD>  (1) 
6.94812107

$$$$
