
     RDKit          3D

 25 27  0  0  0  0  0  0  0  0999 V2000
   39.6970   32.0770   37.0220 N   0  0  0  0  0  0  0  0  0  0  0  0
   38.5450   31.9340   37.6390 N   0  0  0  0  0  0  0  0  0  0  0  0
   38.6390   32.3910   38.9090 C   0  0  0  0  0  0  0  0  0  0  0  0
   39.9370   32.8350   39.0460 C   0  0  0  0  0  0  0  0  0  0  0  0
   40.6170   32.6360   37.8430 C   0  0  0  0  0  0  0  0  0  0  0  0
   42.0120   32.9780   37.5930 C   0  0  0  0  0  0  0  0  0  0  0  0
   43.0540   32.0730   37.6370 C   0  0  0  0  0  0  0  0  0  0  0  0
   44.2470   32.7390   37.3490 C   0  0  0  0  0  0  0  0  0  0  0  0
   43.8750   34.0360   37.1390 N   0  0  0  0  0  0  0  0  0  0  0  0
   42.5670   34.1630   37.2840 N   0  0  0  0  0  0  0  0  0  0  0  0
   37.4840   32.4960   40.2630 S   0  0  0  0  0  0  0  0  0  0  0  0
   37.4800   28.9380   42.0330 C   0  0  0  0  0  0  0  0  0  0  0  0
   36.2910   28.3340   41.5750 C   0  0  0  0  0  0  0  0  0  0  0  0
   35.4760   29.0530   40.6970 C   0  0  0  0  0  0  0  0  0  0  0  0
   35.8580   30.2990   40.3200 N   0  0  0  0  0  0  0  0  0  0  0  0
   37.0160   30.8450   40.7880 C   0  0  0  0  0  0  0  0  0  0  0  0
   37.8120   30.1730   41.6300 N   0  0  0  0  0  0  0  0  0  0  0  0
   39.8755   31.8010   36.0458 H   0  0  0  0  0  0  0  0  0  0  0  0
   40.3679   33.2755   39.9572 H   0  0  0  0  0  0  0  0  0  0  0  0
   42.9595   31.0005   37.8625 H   0  0  0  0  0  0  0  0  0  0  0  0
   45.2604   32.3138   37.3018 H   0  0  0  0  0  0  0  0  0  0  0  0
   44.5196   34.8036   36.9021 H   0  0  0  0  0  0  0  0  0  0  0  0
   38.1389   28.3929   42.7249 H   0  0  0  0  0  0  0  0  0  0  0  0
   36.0119   27.3212   41.9011 H   0  0  0  0  0  0  0  0  0  0  0  0
   34.5404   28.6162   40.3178 H   0  0  0  0  0  0  0  0  0  0  0  0
  1  2  1  0
  1  5  1  0
  2  3  2  0
  3  4  1  0
  3 11  1  0
  5  4  2  0
  6  7  1  0
  6  5  1  0
  8  7  2  0
  9 10  1  0
  9  8  1  0
 10  6  2  0
 11 16  1  0
 13 12  2  0
 14 13  1  0
 15 14  2  0
 15 16  1  0
 16 17  2  0
 17 12  1  0
  1 18  1  0
  4 19  1  0
  7 20  1  0
  8 21  1  0
  9 22  1  0
 12 23  1  0
 13 24  1  0
 14 25  1  0
M  ISO  8  18   9  19  14  20  14  21  14  22   9  23  14  24  14  25  14
M  END
>  <minimizedAffinity>  (1) 
-4.99780226

>  <minimizedRMSD>  (1) 
0.73285687

$$$$
