
     RDKit          3D

 24 26  0  0  0  0  0  0  0  0999 V2000
   40.7170   31.0000   41.9030 N   0  0  0  0  0  0  0  0  0  0  0  0
   41.7660   31.7900   41.7130 N   0  0  0  0  0  0  0  0  0  0  0  0
   41.4310   32.8690   40.9930 C   0  0  0  0  0  0  0  0  0  0  0  0
   40.0950   32.7260   40.7280 C   0  0  0  0  0  0  0  0  0  0  0  0
   39.6230   31.5360   41.3040 C   0  0  0  0  0  0  0  0  0  0  0  0
   38.2760   31.0770   41.2230 N   0  0  0  0  0  0  0  0  0  0  0  0
   37.9470   29.8810   41.7790 C   0  0  0  0  0  0  0  0  0  0  0  0
   36.6360   29.6640   41.5780 N   0  0  0  0  0  0  0  0  0  0  0  0
   36.1450   30.7200   40.8990 C   0  0  0  0  0  0  0  0  0  0  0  0
   37.1720   31.5650   40.6970 N   0  0  0  0  0  0  0  0  0  0  0  0
   42.3540   34.2710   40.4100 S   0  0  0  0  0  0  0  0  0  0  0  0
   44.4580   35.6510   43.4910 C   0  0  0  0  0  0  0  0  0  0  0  0
   43.7440   36.7790   43.8970 C   0  0  0  0  0  0  0  0  0  0  0  0
   42.5820   37.1250   43.2030 C   0  0  0  0  0  0  0  0  0  0  0  0
   42.2060   36.3410   42.1650 N   0  0  0  0  0  0  0  0  0  0  0  0
   42.9190   35.2580   41.7970 C   0  0  0  0  0  0  0  0  0  0  0  0
   44.0280   34.9200   42.4520 N   0  0  0  0  0  0  0  0  0  0  0  0
   40.7307   30.1131   42.4265 H   0  0  0  0  0  0  0  0  0  0  0  0
   39.4842   33.4361   40.1511 H   0  0  0  0  0  0  0  0  0  0  0  0
   38.6373   29.2049   42.3047 H   0  0  0  0  0  0  0  0  0  0  0  0
   35.1043   30.8632   40.5727 H   0  0  0  0  0  0  0  0  0  0  0  0
   45.3753   35.3607   44.0241 H   0  0  0  0  0  0  0  0  0  0  0  0
   44.0897   37.3846   44.7478 H   0  0  0  0  0  0  0  0  0  0  0  0
   41.9909   38.0069   43.4908 H   0  0  0  0  0  0  0  0  0  0  0  0
  2  1  1  0
  3  2  2  0
  4  3  1  0
  4  5  2  0
  5  1  1  0
  6  5  1  0
  6  7  1  0
  8  7  2  0
  9  8  1  0
 10  9  2  0
 10  6  1  0
 11  3  1  0
 11 16  1  0
 12 13  2  0
 14 13  1  0
 15 14  2  0
 16 15  1  0
 16 17  2  0
 17 12  1  0
  1 18  1  0
  4 19  1  0
  7 20  1  0
  9 21  1  0
 12 22  1  0
 13 23  1  0
 14 24  1  0
M  ISO  7  18   9  19  14  20  14  21  14  22  14  23  14  24  14
M  END
>  <minimizedAffinity>  (1) 
-4.60245657

>  <minimizedRMSD>  (1) 
7.48712492

$$$$
