
     RDKit          3D

 21 22  0  0  0  0  0  0  0  0999 V2000
   39.6640   32.0590   36.9650 N   0  0  0  0  0  0  0  0  0  0  0  0
   38.4990   31.9760   37.5960 N   0  0  0  0  0  0  0  0  0  0  0  0
   38.6630   32.3580   38.8780 C   0  0  0  0  0  0  0  0  0  0  0  0
   39.9980   32.6890   39.0270 C   0  0  0  0  0  0  0  0  0  0  0  0
   40.6380   32.4960   37.8000 C   0  0  0  0  0  0  0  0  0  0  0  0
   42.0610   32.6970   37.4000 C   0  0  0  0  0  0  0  0  0  0  0  0
   42.4810   31.7640   36.4820 F   0  0  0  0  0  0  0  0  0  0  0  0
   42.2740   33.9810   36.8930 F   0  0  0  0  0  0  0  0  0  0  0  0
   42.8940   32.5930   38.5210 F   0  0  0  0  0  0  0  0  0  0  0  0
   37.5480   32.4920   40.2700 S   0  0  0  0  0  0  0  0  0  0  0  0
   37.4490   28.9380   42.0570 C   0  0  0  0  0  0  0  0  0  0  0  0
   36.2590   28.3580   41.5860 C   0  0  0  0  0  0  0  0  0  0  0  0
   35.4620   29.0940   40.6830 C   0  0  0  0  0  0  0  0  0  0  0  0
   35.8900   30.3180   40.3240 N   0  0  0  0  0  0  0  0  0  0  0  0
   37.0460   30.8480   40.8000 C   0  0  0  0  0  0  0  0  0  0  0  0
   37.8050   30.1680   41.6490 N   0  0  0  0  0  0  0  0  0  0  0  0
   39.8085   31.8227   35.9729 H   0  0  0  0  0  0  0  0  0  0  0  0
   40.4742   33.0435   39.9531 H   0  0  0  0  0  0  0  0  0  0  0  0
   38.0894   28.3851   42.7599 H   0  0  0  0  0  0  0  0  0  0  0  0
   35.9553   27.3528   41.9137 H   0  0  0  0  0  0  0  0  0  0  0  0
   34.5229   28.6809   40.2863 H   0  0  0  0  0  0  0  0  0  0  0  0
  1  2  1  0
  1  5  1  0
  2  3  2  0
  3  4  1  0
  3 10  1  0
  5  4  2  0
  6  5  1  0
  6  9  1  0
  7  6  1  0
  8  6  1  0
 10 15  1  0
 12 11  2  0
 13 12  1  0
 14 13  2  0
 14 15  1  0
 15 16  2  0
 16 11  1  0
  1 17  1  0
  4 18  1  0
 11 19  1  0
 12 20  1  0
 13 21  1  0
M  ISO  5  17   9  18  14  19  14  20  14  21  14
M  END
>  <minimizedAffinity>  (1) 
-4.47050762

>  <minimizedRMSD>  (1) 
0.832112074

$$$$
