
     RDKit          3D

 20 21  0  0  0  0  0  0  0  0999 V2000
   38.8010   32.6160   40.6940 S   0  0  0  0  0  0  0  0  0  0  0  0
   37.2830   29.1150   41.8550 C   0  0  0  0  0  0  0  0  0  0  0  0
   36.0910   29.0140   41.1410 C   0  0  0  0  0  0  0  0  0  0  0  0
   35.7370   30.0470   40.2750 C   0  0  0  0  0  0  0  0  0  0  0  0
   36.5640   31.1210   40.1550 N   0  0  0  0  0  0  0  0  0  0  0  0
   37.7200   31.1860   40.8670 C   0  0  0  0  0  0  0  0  0  0  0  0
   38.0640   30.1960   41.7000 N   0  0  0  0  0  0  0  0  0  0  0  0
   40.1650   32.2740   37.0100 N   0  0  0  0  0  0  0  0  0  0  0  0
   39.2320   32.0140   37.8990 N   0  0  0  0  0  0  0  0  0  0  0  0
   39.5690   32.5670   39.0880 C   0  0  0  0  0  0  0  0  0  0  0  0
   40.7890   33.1950   38.8730 C   0  0  0  0  0  0  0  0  0  0  0  0
   41.1850   33.0190   37.5520 C   0  0  0  0  0  0  0  0  0  0  0  0
   42.3450   33.4700   36.8640 N   0  0  0  0  0  0  0  0  0  0  0  0
   37.5834   28.3115   42.5436 H   0  0  0  0  0  0  0  0  0  0  0  0
   35.4408   28.1346   41.2587 H   0  0  0  0  0  0  0  0  0  0  0  0
   34.8026   29.9949   39.6969 H   0  0  0  0  0  0  0  0  0  0  0  0
   40.1353   31.9588   36.0299 H   0  0  0  0  0  0  0  0  0  0  0  0
   41.3573   33.7491   39.6345 H   0  0  0  0  0  0  0  0  0  0  0  0
   43.0555   34.0254   37.3616 H   0  0  0  0  0  0  0  0  0  0  0  0
   42.4746   33.2412   35.8681 H   0  0  0  0  0  0  0  0  0  0  0  0
  1  6  1  0
  3  2  2  0
  4  3  1  0
  5  4  2  0
  5  6  1  0
  6  7  2  0
  7  2  1  0
  8 12  1  0
  8  9  1  0
  9 10  2  0
 10  1  1  0
 11 10  1  0
 12 11  2  0
 13 12  1  0
  2 14  1  0
  3 15  1  0
  4 16  1  0
  8 17  1  0
 11 18  1  0
 13 19  1  0
 13 20  1  0
M  ISO  5  14  14  15  14  16  14  17   9  18  14
M  END
>  <minimizedAffinity>  (1) 
-4.39958763

>  <minimizedRMSD>  (1) 
0.240264803

$$$$
