
     RDKit          3D

 32 35  0  0  0  0  0  0  0  0999 V2000
   37.7970   33.6730   40.5700 N   0  0  0  0  0  0  0  0  0  0  0  0
   38.4520   34.7560   40.1630 N   0  0  0  0  0  0  0  0  0  0  0  0
   39.7630   34.5250   40.2140 C   0  0  0  0  0  0  0  0  0  0  0  0
   39.8420   33.2470   40.6730 C   0  0  0  0  0  0  0  0  0  0  0  0
   38.6070   32.6800   40.9080 C   0  0  0  0  0  0  0  0  0  0  0  0
   38.4950   31.3290   41.4030 C   0  0  0  0  0  0  0  0  0  0  0  0
   39.4560   30.8310   42.1890 N   0  0  0  0  0  0  0  0  0  0  0  0
   39.4820   29.6160   42.7120 C   0  0  0  0  0  0  0  0  0  0  0  0
   38.4970   28.7380   42.4850 N   0  0  0  0  0  0  0  0  0  0  0  0
   37.4610   29.1370   41.6950 C   0  0  0  0  0  0  0  0  0  0  0  0
   36.4320   28.2630   41.4390 C   0  0  0  0  0  0  0  0  0  0  0  0
   35.3620   28.6240   40.6440 C   0  0  0  0  0  0  0  0  0  0  0  0
   35.3950   29.9150   40.1260 C   0  0  0  0  0  0  0  0  0  0  0  0
   36.4530   30.7350   40.4190 C   0  0  0  0  0  0  0  0  0  0  0  0
   37.5210   30.3990   41.2030 C   0  0  0  0  0  0  0  0  0  0  0  0
   41.1790   35.5220   39.8180 S   0  0  0  0  0  0  0  0  0  0  0  0
   43.9510   35.1500   42.6490 C   0  0  0  0  0  0  0  0  0  0  0  0
   43.6680   36.1870   43.5320 C   0  0  0  0  0  0  0  0  0  0  0  0
   42.5960   37.0350   43.2640 C   0  0  0  0  0  0  0  0  0  0  0  0
   41.8730   36.8030   42.1370 N   0  0  0  0  0  0  0  0  0  0  0  0
   42.1790   35.7740   41.2910 C   0  0  0  0  0  0  0  0  0  0  0  0
   43.2030   34.9700   41.5550 N   0  0  0  0  0  0  0  0  0  0  0  0
   36.7699   33.6122   40.6175 H   0  0  0  0  0  0  0  0  0  0  0  0
   40.7931   32.7200   40.8396 H   0  0  0  0  0  0  0  0  0  0  0  0
   40.3307   29.3210   43.3466 H   0  0  0  0  0  0  0  0  0  0  0  0
   36.4612   27.2542   41.8767 H   0  0  0  0  0  0  0  0  0  0  0  0
   34.5332   27.9323   40.4329 H   0  0  0  0  0  0  0  0  0  0  0  0
   34.5767   30.2752   39.4852 H   0  0  0  0  0  0  0  0  0  0  0  0
   36.4419   31.7469   39.9878 H   0  0  0  0  0  0  0  0  0  0  0  0
   44.7949   34.4741   42.8517 H   0  0  0  0  0  0  0  0  0  0  0  0
   44.2836   36.3356   44.4314 H   0  0  0  0  0  0  0  0  0  0  0  0
   42.3433   37.8640   43.9414 H   0  0  0  0  0  0  0  0  0  0  0  0
  1  5  1  0
  2  3  2  0
  2  1  1  0
  3  4  1  0
  4  5  2  0
  5  6  1  0
  6  7  2  0
  7  8  1  0
  9  8  2  0
 10  9  1  0
 11 10  2  0
 12 11  1  0
 13 14  1  0
 13 12  2  0
 14 15  2  0
 15  6  1  0
 15 10  1  0
 16  3  1  0
 16 21  1  0
 17 18  2  0
 19 18  1  0
 20 19  2  0
 21 22  2  0
 21 20  1  0
 22 17  1  0
  1 23  1  0
  4 24  1  0
  8 25  1  0
 11 26  1  0
 12 27  1  0
 13 28  1  0
 14 29  1  0
 17 30  1  0
 18 31  1  0
 19 32  1  0
M  ISO  8  23   9  24  14  25  14  26  14  27  14  28  14  29  14  30  14
M  ISO  2  31  14  32  14
M  END
>  <minimizedAffinity>  (1) 
-6.53877068

>  <minimizedRMSD>  (1) 
8.05198002

$$$$
