
     RDKit          3D

 34 37  0  0  0  0  0  0  0  0999 V2000
   37.3730   33.7350   40.0210 N   0  0  0  0  0  0  0  0  0  0  0  0
   37.7920   34.9640   39.7670 N   0  0  0  0  0  0  0  0  0  0  0  0
   39.0360   35.1150   40.2550 C   0  0  0  0  0  0  0  0  0  0  0  0
   39.3300   33.8960   40.8140 C   0  0  0  0  0  0  0  0  0  0  0  0
   38.2620   33.0060   40.6650 C   0  0  0  0  0  0  0  0  0  0  0  0
   38.3420   31.6820   41.1990 C   0  0  0  0  0  0  0  0  0  0  0  0
   39.4050   31.3460   41.9670 N   0  0  0  0  0  0  0  0  0  0  0  0
   39.6020   30.1730   42.5480 C   0  0  0  0  0  0  0  0  0  0  0  0
   38.7250   29.1710   42.4230 N   0  0  0  0  0  0  0  0  0  0  0  0
   37.6200   29.3910   41.6770 C   0  0  0  0  0  0  0  0  0  0  0  0
   36.6930   28.4020   41.5150 C   0  0  0  0  0  0  0  0  0  0  0  0
   35.5510   28.5910   40.7540 C   0  0  0  0  0  0  0  0  0  0  0  0
   35.3990   29.8320   40.1660 C   0  0  0  0  0  0  0  0  0  0  0  0
   36.3700   30.7850   40.3680 C   0  0  0  0  0  0  0  0  0  0  0  0
   37.4960   30.6280   41.1100 C   0  0  0  0  0  0  0  0  0  0  0  0
   40.1740   36.4890   40.2840 S   0  0  0  0  0  0  0  0  0  0  0  0
   43.4450   34.6300   41.5870 C   0  0  0  0  0  0  0  0  0  0  0  0
   43.8400   35.3770   42.7000 C   0  0  0  0  0  0  0  0  0  0  0  0
   43.0890   36.4830   43.0700 C   0  0  0  0  0  0  0  0  0  0  0  0
   41.9930   36.7880   42.3220 N   0  0  0  0  0  0  0  0  0  0  0  0
   41.6370   36.0350   41.2410 C   0  0  0  0  0  0  0  0  0  0  0  0
   42.3630   34.9770   40.8950 N   0  0  0  0  0  0  0  0  0  0  0  0
   43.4460   37.3040   44.2190 C   0  0  0  0  0  0  0  0  0  0  0  0
   43.7970   36.7260   45.2710 O   0  0  0  0  0  0  0  0  0  0  0  0
   36.4455   33.3835   39.7434 H   0  0  0  0  0  0  0  0  0  0  0  0
   40.2796   33.6520   41.3128 H   0  0  0  0  0  0  0  0  0  0  0  0
   40.5103   30.0184   43.1490 H   0  0  0  0  0  0  0  0  0  0  0  0
   36.8572   27.4293   42.0016 H   0  0  0  0  0  0  0  0  0  0  0  0
   34.8038   27.7942   40.6245 H   0  0  0  0  0  0  0  0  0  0  0  0
   34.5170   30.0540   39.5472 H   0  0  0  0  0  0  0  0  0  0  0  0
   36.2208   31.7620   39.8850 H   0  0  0  0  0  0  0  0  0  0  0  0
   44.0315   33.7509   41.2816 H   0  0  0  0  0  0  0  0  0  0  0  0
   44.7337   35.0920   43.2745 H   0  0  0  0  0  0  0  0  0  0  0  0
   43.4079   38.4019   44.1629 H   0  0  0  0  0  0  0  0  0  0  0  0
  1  5  1  0
  2  1  1  0
  2  3  2  0
  3 16  1  0
  3  4  1  0
  5  4  2  0
  5  6  1  0
  6  7  2  0
  7  8  1  0
  9  8  2  0
 10  9  1  0
 11 10  2  0
 12 11  1  0
 13 14  1  0
 13 12  2  0
 14 15  2  0
 15  6  1  0
 15 10  1  0
 16 21  1  0
 17 18  2  0
 18 19  1  0
 19 23  1  0
 20 19  2  0
 21 20  1  0
 22 21  2  0
 22 17  1  0
 23 24  2  0
  1 25  1  0
  4 26  1  0
  8 27  1  0
 11 28  1  0
 12 29  1  0
 13 30  1  0
 14 31  1  0
 17 32  1  0
 18 33  1  0
 23 34  1  0
M  ISO  8  25   9  26  14  27  14  28  14  29  14  30  14  31  14  32  14
M  ISO  2  33  14  34   6
M  END
>  <minimizedAffinity>  (1) 
-7.13976717

>  <minimizedRMSD>  (1) 
0.838336587

$$$$
