
     RDKit          3D

 32 33  0  0  1  0  0  0  0  0999 V2000
   40.0250   31.9740   41.0060 C   0  0  0  0  0  0  0  0  0  0  0  0
   39.5780   30.7350   41.5230 C   0  0  0  0  0  0  0  0  0  0  0  0
   38.2240   30.4580   41.4740 C   0  0  0  0  0  0  0  0  0  0  0  0
   37.4050   31.3900   40.9350 N   0  0  0  0  0  0  0  0  0  0  0  0
   37.8460   32.5670   40.4460 C   0  0  0  0  0  0  0  0  0  0  0  0
   39.1550   32.8650   40.4780 N   0  0  0  0  0  0  0  0  0  0  0  0
   36.8850   33.4840   39.8910 N   0  0  0  0  0  0  0  0  0  0  0  0
   37.7030   29.2480   41.9650 N   0  0  0  0  0  0  0  0  0  0  0  0
   37.8770   28.9000   43.3530 C   0  0  0  0  0  0  0  0  0  0  0  0
   36.8070   27.8740   43.7000 C   0  0  0  0  0  0  0  0  0  0  0  0
   36.8590   26.7070   42.8810 N   0  0  0  0  0  0  0  0  0  0  0  0
   37.2420   26.9180   41.5340 C   0  0  0  0  0  0  0  0  0  0  0  0
   36.9960   28.3470   41.1050 C   0  0  2  0  0  0  0  0  0  0  0  0
   37.3470   28.5790   39.6640 C   0  0  0  0  0  0  0  0  0  0  0  0
   36.1220   28.7030   38.7840 C   0  0  0  0  0  0  0  0  0  0  0  0
   41.0976   32.2166   41.0339 H   0  0  0  0  0  0  0  0  0  0  0  0
   40.2877   30.0123   41.9519 H   0  0  0  0  0  0  0  0  0  0  0  0
   35.8854   33.2360   39.8761 H   0  0  0  0  0  0  0  0  0  0  0  0
   37.1970   34.3881   39.5088 H   0  0  0  0  0  0  0  0  0  0  0  0
   38.8768   28.4692   43.5106 H   0  0  0  0  0  0  0  0  0  0  0  0
   37.7847   29.7904   43.9923 H   0  0  0  0  0  0  0  0  0  0  0  0
   36.9407   27.5709   44.7489 H   0  0  0  0  0  0  0  0  0  0  0  0
   35.8304   28.3501   43.5280 H   0  0  0  0  0  0  0  0  0  0  0  0
   37.5343   26.0540   43.3033 H   0  0  0  0  0  0  0  0  0  0  0  0
   38.3133   26.6923   41.4275 H   0  0  0  0  0  0  0  0  0  0  0  0
   36.6371   26.2572   40.8957 H   0  0  0  0  0  0  0  0  0  0  0  0
   35.9174   28.5425   41.1968 H   0  0  0  0  0  0  0  0  0  0  0  0
   37.9318   29.5075   39.5881 H   0  0  0  0  0  0  0  0  0  0  0  0
   37.9235   27.7095   39.3153 H   0  0  0  0  0  0  0  0  0  0  0  0
   35.2252   28.7938   39.4145 H   0  0  0  0  0  0  0  0  0  0  0  0
   36.2156   29.5963   38.1489 H   0  0  0  0  0  0  0  0  0  0  0  0
   36.0347   27.8091   38.1489 H   0  0  0  0  0  0  0  0  0  0  0  0
  1  2  2  0
  3  2  1  0
  3  8  1  0
  4  3  2  0
  5  6  2  0
  5  4  1  0
  6  1  1  0
  7  5  1  0
  8  9  1  0
  9 10  1  0
 11 10  1  0
 12 11  1  0
 13 12  1  0
 13  8  1  0
 14 13  1  0
 15 14  1  0
  1 16  1  0
  2 17  1  0
  7 18  1  0
  7 19  1  0
  9 20  1  0
  9 21  1  0
 10 22  1  0
 10 23  1  0
 11 24  1  0
 12 25  1  0
 12 26  1  0
 13 27  1  6
 14 28  1  0
 14 29  1  0
 15 30  1  0
 15 31  1  0
 15 32  1  0
M  ISO  8  16  14  17  14  20  13  21  13  22  13  23  13  24   5  25  13
M  ISO  7  26  13  27  13  28   8  29   8  30   8  31   8  32   8
M  END
>  <minimizedAffinity>  (1) 
-4.59702682

>  <minimizedRMSD>  (1) 
0.484453797

$$$$
