
     RDKit          3D

 45 49  0  0  0  0  0  0  0  0999 V2000
   37.2740   33.5580   39.9390 N   0  0  0  0  0  0  0  0  0  0  0  0
   37.6380   34.7920   39.6970 N   0  0  0  0  0  0  0  0  0  0  0  0
   38.8530   35.0070   40.2740 C   0  0  0  0  0  0  0  0  0  0  0  0
   39.1640   33.7910   40.8680 C   0  0  0  0  0  0  0  0  0  0  0  0
   38.1210   32.8710   40.6360 C   0  0  0  0  0  0  0  0  0  0  0  0
   38.2070   31.5770   41.1970 C   0  0  0  0  0  0  0  0  0  0  0  0
   39.2690   31.2530   41.9900 N   0  0  0  0  0  0  0  0  0  0  0  0
   39.4540   30.1050   42.6070 C   0  0  0  0  0  0  0  0  0  0  0  0
   38.5800   29.0950   42.5150 N   0  0  0  0  0  0  0  0  0  0  0  0
   37.4900   29.2890   41.7610 C   0  0  0  0  0  0  0  0  0  0  0  0
   36.5610   28.2980   41.6320 C   0  0  0  0  0  0  0  0  0  0  0  0
   35.4170   28.4740   40.8520 C   0  0  0  0  0  0  0  0  0  0  0  0
   35.2740   29.7050   40.2140 C   0  0  0  0  0  0  0  0  0  0  0  0
   36.2560   30.6380   40.4030 C   0  0  0  0  0  0  0  0  0  0  0  0
   37.3710   30.5090   41.1500 C   0  0  0  0  0  0  0  0  0  0  0  0
   39.9260   36.4440   40.4140 S   0  0  0  0  0  0  0  0  0  0  0  0
   43.3240   34.4970   41.0300 C   0  0  0  0  0  0  0  0  0  0  0  0
   43.9210   35.1970   42.0940 C   0  0  0  0  0  0  0  0  0  0  0  0
   43.2890   36.2660   42.6290 C   0  0  0  0  0  0  0  0  0  0  0  0
   42.0900   36.6000   42.0900 N   0  0  0  0  0  0  0  0  0  0  0  0
   41.5150   35.9390   41.0770 C   0  0  0  0  0  0  0  0  0  0  0  0
   42.1330   34.9030   40.5630 N   0  0  0  0  0  0  0  0  0  0  0  0
   43.9360   36.9310   43.7830 C   0  0  0  0  0  0  0  0  0  0  0  0
   44.1260   36.1180   44.9740 C   0  0  0  0  0  0  0  0  0  0  0  0
   45.1690   35.1540   44.9840 N   0  0  0  0  0  0  0  0  0  0  0  0
   45.2990   34.7970   46.3260 C   0  0  0  0  0  0  0  0  0  0  0  0
   46.2630   33.8260   46.6350 C   0  0  0  0  0  0  0  0  0  0  0  0
   46.7850   33.5420   45.4210 N   0  0  0  0  0  0  0  0  0  0  0  0
   46.1380   34.3100   44.5400 C   0  0  0  0  0  0  0  0  0  0  0  0
   36.3839   33.1649   39.6014 H   0  0  0  0  0  0  0  0  0  0  0  0
   40.0834   33.5780   41.4331 H   0  0  0  0  0  0  0  0  0  0  0  0
   40.3579   29.9709   43.2193 H   0  0  0  0  0  0  0  0  0  0  0  0
   36.7167   27.3417   42.1529 H   0  0  0  0  0  0  0  0  0  0  0  0
   34.6641   27.6791   40.7458 H   0  0  0  0  0  0  0  0  0  0  0  0
   34.4009   29.9188   39.5800 H   0  0  0  0  0  0  0  0  0  0  0  0
   36.1211   31.6008   39.8883 H   0  0  0  0  0  0  0  0  0  0  0  0
   43.8279   33.6261   40.5854 H   0  0  0  0  0  0  0  0  0  0  0  0
   44.8965   34.8766   42.4886 H   0  0  0  0  0  0  0  0  0  0  0  0
   44.9259   37.2816   43.4556 H   0  0  0  0  0  0  0  0  0  0  0  0
   43.2455   37.7329   44.0833 H   0  0  0  0  0  0  0  0  0  0  0  0
   44.3150   36.8078   45.8098 H   0  0  0  0  0  0  0  0  0  0  0  0
   43.2069   35.5168   45.0356 H   0  0  0  0  0  0  0  0  0  0  0  0
   44.6742   35.2559   47.1064 H   0  0  0  0  0  0  0  0  0  0  0  0
   46.5269   33.4033   47.6156 H   0  0  0  0  0  0  0  0  0  0  0  0
   46.3860   34.2602   43.4695 H   0  0  0  0  0  0  0  0  0  0  0  0
  1  5  1  0
  2  1  1  0
  2  3  2  0
  3 16  1  0
  3  4  1  0
  5  4  2  0
  5  6  1  0
  6  7  2  0
  7  8  1  0
  9  8  2  0
 10  9  1  0
 11 10  2  0
 12 11  1  0
 13 14  1  0
 13 12  2  0
 14 15  2  0
 15  6  1  0
 15 10  1  0
 16 21  1  0
 17 18  2  0
 18 19  1  0
 19 23  1  0
 20 19  2  0
 21 20  1  0
 22 17  1  0
 22 21  2  0
 23 24  1  0
 24 25  1  0
 25 26  1  0
 26 27  2  0
 28 27  1  0
 29 25  1  0
 29 28  2  0
  1 30  1  0
  4 31  1  0
  8 32  1  0
 11 33  1  0
 12 34  1  0
 13 35  1  0
 14 36  1  0
 17 37  1  0
 18 38  1  0
 23 39  1  0
 23 40  1  0
 24 41  1  0
 24 42  1  0
 26 43  1  0
 27 44  1  0
 29 45  1  0
M  ISO  8  30   9  31  14  32  14  33  14  34  14  35  14  36  14  37  14
M  ISO  8  38  14  39   8  40   8  41   8  42   8  43  14  44  14  45  14
M  END
>  <minimizedAffinity>  (1) 
-7.42348719

>  <minimizedRMSD>  (1) 
0.959315896

$$$$
