
     RDKit          3D

 17 18  0  0  0  0  0  0  0  0999 V2000
   38.2720   29.1220   43.1890 C   0  0  0  0  0  0  0  0  0  0  0  0
   37.3330   28.0650   43.1590 C   0  0  0  0  0  0  0  0  0  0  0  0
   36.3670   28.0910   42.1440 C   0  0  0  0  0  0  0  0  0  0  0  0
   36.3930   29.1250   41.2550 N   0  0  0  0  0  0  0  0  0  0  0  0
   37.3060   30.1100   41.3220 C   0  0  0  0  0  0  0  0  0  0  0  0
   38.2420   30.1170   42.2790 N   0  0  0  0  0  0  0  0  0  0  0  0
   37.2720   31.1870   40.3350 C   0  0  0  0  0  0  0  0  0  0  0  0
   37.3840   31.0470   38.9660 C   0  0  0  0  0  0  0  0  0  0  0  0
   37.3050   32.2700   38.4160 N   0  0  0  0  0  0  0  0  0  0  0  0
   37.1470   33.1930   39.4080 C   0  0  0  0  0  0  0  0  0  0  0  0
   37.1290   32.5030   40.5800 N   0  0  0  0  0  0  0  0  0  0  0  0
   39.0443   29.1329   43.9722 H   0  0  0  0  0  0  0  0  0  0  0  0
   37.3598   27.2548   43.9026 H   0  0  0  0  0  0  0  0  0  0  0  0
   35.6080   27.2986   42.0664 H   0  0  0  0  0  0  0  0  0  0  0  0
   37.5149   30.1003   38.4214 H   0  0  0  0  0  0  0  0  0  0  0  0
   37.0526   34.2819   39.2843 H   0  0  0  0  0  0  0  0  0  0  0  0
   37.0221   32.9238   41.5140 H   0  0  0  0  0  0  0  0  0  0  0  0
  2  1  2  0
  3  2  1  0
  4  5  1  0
  4  3  2  0
  5  6  2  0
  6  1  1  0
  7 11  1  0
  7  5  1  0
  8  7  2  0
  9  8  1  0
  9 10  2  0
 10 11  1  0
  1 12  1  0
  2 13  1  0
  3 14  1  0
  8 15  1  0
 10 16  1  0
 11 17  1  0
M  ISO  6  12  14  13  14  14  14  15  14  16  14  17   9
M  END
>  <minimizedAffinity>  (1) 
-3.76515269

>  <minimizedRMSD>  (1) 
1.41712523

$$$$
