
     RDKit          3D

 36 38  0  0  1  0  0  0  0  0999 V2000
   37.4990   26.7830   40.9510 C   0  0  1  0  0  0  0  0  0  0  0  0
   36.9310   26.5520   42.3460 C   0  0  1  0  0  0  0  0  0  0  0  0
   36.9130   25.0630   42.4750 C   0  0  0  0  0  0  0  0  0  0  0  0
   37.1890   24.4900   41.1010 C   0  0  0  0  0  0  0  0  0  0  0  0
   36.8490   25.6760   40.1910 C   0  0  0  0  0  0  0  0  0  0  0  0
   37.1700   28.1260   40.5030 C   0  0  0  0  0  0  0  0  0  0  0  0
   35.8570   28.5810   40.7110 C   0  0  0  0  0  0  0  0  0  0  0  0
   35.4810   29.8720   40.2990 C   0  0  0  0  0  0  0  0  0  0  0  0
   36.4560   30.6190   39.7040 N   0  0  0  0  0  0  0  0  0  0  0  0
   37.7180   30.1490   39.5180 C   0  0  0  0  0  0  0  0  0  0  0  0
   38.0740   28.9020   39.9180 N   0  0  0  0  0  0  0  0  0  0  0  0
   37.6060   27.2710   43.4420 C   0  0  0  0  0  0  0  0  0  0  0  0
   39.0910   26.9310   43.3520 C   0  0  0  0  0  0  0  0  0  0  0  0
   39.8030   28.1910   43.0020 C   0  0  0  0  0  0  0  0  0  0  0  0
   38.8420   29.3300   43.0140 C   0  0  0  0  0  0  0  0  0  0  0  0
   37.5490   28.7360   43.4570 C   0  0  0  0  0  0  0  0  0  0  0  0
   38.5937   26.7509   40.8475 H   0  0  0  0  0  0  0  0  0  0  0  0
   35.9273   26.9897   42.4512 H   0  0  0  0  0  0  0  0  0  0  0  0
   37.6899   24.7368   43.1822 H   0  0  0  0  0  0  0  0  0  0  0  0
   35.9404   24.7161   42.8540 H   0  0  0  0  0  0  0  0  0  0  0  0
   38.2430   24.1936   40.9952 H   0  0  0  0  0  0  0  0  0  0  0  0
   36.6165   23.5781   40.8760 H   0  0  0  0  0  0  0  0  0  0  0  0
   35.7626   25.8245   40.1032 H   0  0  0  0  0  0  0  0  0  0  0  0
   37.1852   25.5707   39.1489 H   0  0  0  0  0  0  0  0  0  0  0  0
   35.1204   27.9250   41.1979 H   0  0  0  0  0  0  0  0  0  0  0  0
   34.4613   30.2570   40.4475 H   0  0  0  0  0  0  0  0  0  0  0  0
   38.4664   30.7930   39.0331 H   0  0  0  0  0  0  0  0  0  0  0  0
   37.0649   26.9430   44.3418 H   0  0  0  0  0  0  0  0  0  0  0  0
   39.4509   26.5492   44.3188 H   0  0  0  0  0  0  0  0  0  0  0  0
   39.2716   26.1535   42.5951 H   0  0  0  0  0  0  0  0  0  0  0  0
   40.2443   28.0953   41.9990 H   0  0  0  0  0  0  0  0  0  0  0  0
   40.5983   28.3772   43.7388 H   0  0  0  0  0  0  0  0  0  0  0  0
   39.1722   30.1076   43.7185 H   0  0  0  0  0  0  0  0  0  0  0  0
   38.7600   29.8130   42.0291 H   0  0  0  0  0  0  0  0  0  0  0  0
   36.7495   29.0710   42.7798 H   0  0  0  0  0  0  0  0  0  0  0  0
   37.3485   29.0663   44.4869 H   0  0  0  0  0  0  0  0  0  0  0  0
  1  2  1  0
  2  3  1  0
  2 12  1  0
  4  3  1  0
  5  1  1  0
  5  4  1  0
  6  7  2  0
  6  1  1  0
  8  7  1  0
  9  8  2  0
 10  9  1  0
 10 11  2  0
 11  6  1  0
 12 16  1  0
 13 12  1  0
 14 15  1  0
 14 13  1  0
 15 16  1  0
  1 17  1  1
  2 18  1  6
  3 19  1  0
  3 20  1  0
  4 21  1  0
  4 22  1  0
  5 23  1  0
  5 24  1  0
  7 25  1  0
  8 26  1  0
 10 27  1  0
 12 28  1  0
 13 29  1  0
 13 30  1  0
 14 31  1  0
 14 32  1  0
 15 33  1  0
 15 34  1  0
 16 35  1  0
 16 36  1  0
M  ISO  8  17  13  18  13  19  13  20  13  21  13  22  13  23  13  24  13
M  ISO  8  25  14  26  14  27  14  28  13  29  13  30  13  31  13  32  13
M  ISO  4  33  13  34  13  35  13  36  13
M  END
>  <minimizedAffinity>  (1) 
-5.05094576

>  <minimizedRMSD>  (1) 
1.1886462

$$$$
