
     RDKit          3D

 30 32  0  0  1  0  0  0  0  0999 V2000
   37.0050   30.0290   39.3870 C   0  0  1  0  0  0  0  0  0  0  0  0
   35.9770   29.9860   40.5230 C   0  0  1  0  0  0  0  0  0  0  0  0
   34.8600   29.1570   39.9630 C   0  0  0  0  0  0  0  0  0  0  0  0
   35.2410   28.8240   38.5230 C   0  0  0  0  0  0  0  0  0  0  0  0
   36.1330   30.0360   38.1850 C   0  0  0  0  0  0  0  0  0  0  0  0
   37.8640   31.1870   39.5640 C   0  0  0  0  0  0  0  0  0  0  0  0
   37.2260   32.4500   39.7460 C   0  0  0  0  0  0  0  0  0  0  0  0
   38.0210   33.5960   39.9310 C   0  0  0  0  0  0  0  0  0  0  0  0
   39.3880   33.4150   39.9250 N   0  0  0  0  0  0  0  0  0  0  0  0
   39.9430   32.1890   39.7480 C   0  0  0  0  0  0  0  0  0  0  0  0
   39.1880   31.1000   39.5710 N   0  0  0  0  0  0  0  0  0  0  0  0
   36.6130   29.2560   41.6030 N   0  0  0  0  0  0  0  0  0  0  0  0
   37.4790   29.8030   42.4210 N   0  0  0  0  0  0  0  0  0  0  0  0
   37.8980   28.8720   43.3250 C   0  0  0  0  0  0  0  0  0  0  0  0
   37.2330   27.6960   43.0170 C   0  0  0  0  0  0  0  0  0  0  0  0
   36.4150   27.9610   41.9130 C   0  0  0  0  0  0  0  0  0  0  0  0
   37.7219   29.1967   39.3293 H   0  0  0  0  0  0  0  0  0  0  0  0
   35.6291   30.9679   40.8764 H   0  0  0  0  0  0  0  0  0  0  0  0
   34.7437   28.2327   40.5479 H   0  0  0  0  0  0  0  0  0  0  0  0
   33.9045   29.7005   40.0041 H   0  0  0  0  0  0  0  0  0  0  0  0
   35.7985   27.8780   38.4582 H   0  0  0  0  0  0  0  0  0  0  0  0
   34.3882   28.6771   37.8439 H   0  0  0  0  0  0  0  0  0  0  0  0
   36.7063   29.8801   37.2592 H   0  0  0  0  0  0  0  0  0  0  0  0
   35.5974   30.9780   37.9961 H   0  0  0  0  0  0  0  0  0  0  0  0
   36.1287   32.5267   39.7418 H   0  0  0  0  0  0  0  0  0  0  0  0
   37.5728   34.5903   40.0738 H   0  0  0  0  0  0  0  0  0  0  0  0
   41.0385   32.0893   39.7502 H   0  0  0  0  0  0  0  0  0  0  0  0
   38.6219   29.0246   44.1390 H   0  0  0  0  0  0  0  0  0  0  0  0
   37.3300   26.7342   43.5420 H   0  0  0  0  0  0  0  0  0  0  0  0
   35.7453   27.2539   41.4016 H   0  0  0  0  0  0  0  0  0  0  0  0
  1  6  1  0
  1  2  1  0
  2 12  1  0
  3  2  1  0
  4  3  1  0
  5  4  1  0
  5  1  1  0
  6 11  1  0
  6  7  2  0
  7  8  1  0
  9  8  2  0
 10  9  1  0
 11 10  2  0
 12 16  1  0
 12 13  1  0
 13 14  2  0
 15 14  1  0
 16 15  2  0
  1 17  1  6
  2 18  1  1
  3 19  1  0
  3 20  1  0
  4 21  1  0
  4 22  1  0
  5 23  1  0
  5 24  1  0
  7 25  1  0
  8 26  1  0
 10 27  1  0
 14 28  1  0
 15 29  1  0
 16 30  1  0
M  ISO  8  17  13  18  13  19  13  20  13  21  13  22  13  23  13  24  13
M  ISO  6  25  14  26  14  27  14  28  14  29  14  30  14
M  END
>  <minimizedAffinity>  (1) 
-4.84554386

>  <minimizedRMSD>  (1) 
4.06498432

$$$$
