
     RDKit          3D

 30 32  0  0  1  0  0  0  0  0999 V2000
   37.1930   30.0750   39.7570 C   0  0  1  0  0  0  0  0  0  0  0  0
   36.1800   29.9270   40.9040 C   0  0  1  0  0  0  0  0  0  0  0  0
   35.0490   29.1710   40.2640 C   0  0  0  0  0  0  0  0  0  0  0  0
   35.3850   29.0230   38.7900 C   0  0  0  0  0  0  0  0  0  0  0  0
   36.2860   30.2580   38.5890 C   0  0  0  0  0  0  0  0  0  0  0  0
   38.0830   31.1850   40.0500 C   0  0  0  0  0  0  0  0  0  0  0  0
   37.5160   32.4910   40.0750 C   0  0  0  0  0  0  0  0  0  0  0  0
   38.3290   33.6010   40.3630 C   0  0  0  0  0  0  0  0  0  0  0  0
   39.6640   33.3350   40.6110 N   0  0  0  0  0  0  0  0  0  0  0  0
   40.1560   32.0740   40.5750 C   0  0  0  0  0  0  0  0  0  0  0  0
   39.3770   31.0200   40.2990 N   0  0  0  0  0  0  0  0  0  0  0  0
   36.8030   29.0290   41.9010 C   0  0  0  0  0  0  0  0  0  0  0  0
   37.6430   29.2420   42.9700 C   0  0  0  0  0  0  0  0  0  0  0  0
   37.9210   28.0110   43.5760 C   0  0  0  0  0  0  0  0  0  0  0  0
   37.2270   27.0970   42.8360 N   0  0  0  0  0  0  0  0  0  0  0  0
   36.5660   27.7110   41.8430 N   0  0  0  0  0  0  0  0  0  0  0  0
   37.8859   29.2384   39.5836 H   0  0  0  0  0  0  0  0  0  0  0  0
   35.8734   30.8752   41.3697 H   0  0  0  0  0  0  0  0  0  0  0  0
   34.9479   28.1792   40.7289 H   0  0  0  0  0  0  0  0  0  0  0  0
   34.0973   29.7067   40.3957 H   0  0  0  0  0  0  0  0  0  0  0  0
   35.9261   28.0869   38.5877 H   0  0  0  0  0  0  0  0  0  0  0  0
   34.5131   28.9747   38.1210 H   0  0  0  0  0  0  0  0  0  0  0  0
   36.8303   30.2208   37.6339 H   0  0  0  0  0  0  0  0  0  0  0  0
   35.7622   31.2242   38.5427 H   0  0  0  0  0  0  0  0  0  0  0  0
   36.4445   32.6309   39.8695 H   0  0  0  0  0  0  0  0  0  0  0  0
   37.9262   34.6243   40.3897 H   0  0  0  0  0  0  0  0  0  0  0  0
   41.2247   31.9108   40.7780 H   0  0  0  0  0  0  0  0  0  0  0  0
   38.0318   30.2184   43.2948 H   0  0  0  0  0  0  0  0  0  0  0  0
   38.5571   27.8220   44.4533 H   0  0  0  0  0  0  0  0  0  0  0  0
   37.2130   26.0827   43.0144 H   0  0  0  0  0  0  0  0  0  0  0  0
  1  6  1  0
  1  2  1  0
  2 12  1  0
  3  2  1  0
  4  3  1  0
  5  4  1  0
  5  1  1  0
  6  7  2  0
  6 11  1  0
  7  8  1  0
  8  9  2  0
 10  9  1  0
 11 10  2  0
 12 13  1  0
 13 14  2  0
 15 14  1  0
 16 12  2  0
 16 15  1  0
  1 17  1  6
  2 18  1  1
  3 19  1  0
  3 20  1  0
  4 21  1  0
  4 22  1  0
  5 23  1  0
  5 24  1  0
  7 25  1  0
  8 26  1  0
 10 27  1  0
 13 28  1  0
 14 29  1  0
 15 30  1  0
M  ISO  8  17  13  18  13  19  13  20  13  21  13  22  13  23  13  24  13
M  ISO  6  25  14  26  14  27  14  28  14  29  14  30   9
M  END
>  <minimizedAffinity>  (1) 
-4.7818408

>  <minimizedRMSD>  (1) 
3.88659501

$$$$
