
     RDKit          3D

 30 32  0  0  1  0  0  0  0  0999 V2000
   37.5970   28.6570   41.5380 C   0  0  1  0  0  0  0  0  0  0  0  0
   38.0650   29.1840   42.8990 C   0  0  1  0  0  0  0  0  0  0  0  0
   37.4570   28.2380   43.8810 C   0  0  0  0  0  0  0  0  0  0  0  0
   36.5680   27.2860   43.0920 C   0  0  0  0  0  0  0  0  0  0  0  0
   36.2310   28.1590   41.8650 C   0  0  0  0  0  0  0  0  0  0  0  0
   37.6550   29.7260   40.5520 C   0  0  0  0  0  0  0  0  0  0  0  0
   36.9250   30.9180   40.8360 C   0  0  0  0  0  0  0  0  0  0  0  0
   36.9850   31.9640   39.8950 C   0  0  0  0  0  0  0  0  0  0  0  0
   37.7460   31.7610   38.7650 N   0  0  0  0  0  0  0  0  0  0  0  0
   38.4190   30.6060   38.5480 C   0  0  0  0  0  0  0  0  0  0  0  0
   38.3680   29.6030   39.4400 N   0  0  0  0  0  0  0  0  0  0  0  0
   39.5530   29.1070   42.8820 C   0  0  0  0  0  0  0  0  0  0  0  0
   40.5970   29.9630   42.5840 C   0  0  0  0  0  0  0  0  0  0  0  0
   41.7600   29.3030   42.7580 N   0  0  0  0  0  0  0  0  0  0  0  0
   41.4670   28.0340   43.1630 C   0  0  0  0  0  0  0  0  0  0  0  0
   40.1240   27.9310   43.2330 N   0  0  0  0  0  0  0  0  0  0  0  0
   38.2060   27.8639   41.0797 H   0  0  0  0  0  0  0  0  0  0  0  0
   37.7777   30.2177   43.1417 H   0  0  0  0  0  0  0  0  0  0  0  0
   38.2459   27.6745   44.4007 H   0  0  0  0  0  0  0  0  0  0  0  0
   36.8740   28.7811   44.6394 H   0  0  0  0  0  0  0  0  0  0  0  0
   37.1084   26.3725   42.8032 H   0  0  0  0  0  0  0  0  0  0  0  0
   35.6911   26.9171   43.6443 H   0  0  0  0  0  0  0  0  0  0  0  0
   35.5449   28.9798   42.1209 H   0  0  0  0  0  0  0  0  0  0  0  0
   35.7132   27.6378   41.0463 H   0  0  0  0  0  0  0  0  0  0  0  0
   36.3350   31.0169   41.7591 H   0  0  0  0  0  0  0  0  0  0  0  0
   36.4442   32.9082   40.0564 H   0  0  0  0  0  0  0  0  0  0  0  0
   39.0143   30.4879   37.6306 H   0  0  0  0  0  0  0  0  0  0  0  0
   40.4957   31.0090   42.2589 H   0  0  0  0  0  0  0  0  0  0  0  0
   42.1932   27.2398   43.3909 H   0  0  0  0  0  0  0  0  0  0  0  0
   39.6094   27.0835   43.5120 H   0  0  0  0  0  0  0  0  0  0  0  0
  1  5  1  0
  1  2  1  0
  2  3  1  0
  4  3  1  0
  5  4  1  0
  6  7  2  0
  6  1  1  0
  8  7  1  0
  9  8  2  0
 10  9  1  0
 10 11  2  0
 11  6  1  0
 12  2  1  0
 12 16  1  0
 13 14  1  0
 13 12  2  0
 14 15  2  0
 15 16  1  0
  1 17  1  6
  2 18  1  1
  3 19  1  0
  3 20  1  0
  4 21  1  0
  4 22  1  0
  5 23  1  0
  5 24  1  0
  7 25  1  0
  8 26  1  0
 10 27  1  0
 13 28  1  0
 15 29  1  0
 16 30  1  0
M  ISO  8  17  13  18  13  19  13  20  13  21  13  22  13  23  13  24  13
M  ISO  6  25  14  26  14  27  14  28  14  29  14  30   9
M  END
>  <minimizedAffinity>  (1) 
-4.45102978

>  <minimizedRMSD>  (1) 
2.98198414

$$$$
