
     RDKit          3D

 30 32  0  0  1  0  0  0  0  0999 V2000
   39.3120   28.1670   43.1380 C   0  0  1  0  0  0  0  0  0  0  0  0
   38.9070   26.7270   43.3830 C   0  0  2  0  0  0  0  0  0  0  0  0
   40.1210   26.0830   43.9700 C   0  0  0  0  0  0  0  0  0  0  0  0
   41.1970   27.1500   44.0250 C   0  0  0  0  0  0  0  0  0  0  0  0
   40.7610   28.0700   42.8670 C   0  0  0  0  0  0  0  0  0  0  0  0
   38.5000   28.7710   42.0980 C   0  0  0  0  0  0  0  0  0  0  0  0
   39.1370   29.0470   40.8670 C   0  0  0  0  0  0  0  0  0  0  0  0
   38.3710   29.6280   39.8350 C   0  0  0  0  0  0  0  0  0  0  0  0
   37.0540   29.8860   40.0980 N   0  0  0  0  0  0  0  0  0  0  0  0
   36.4920   29.6020   41.2990 C   0  0  0  0  0  0  0  0  0  0  0  0
   37.2120   29.0420   42.3060 N   0  0  0  0  0  0  0  0  0  0  0  0
   38.3970   26.0260   42.2040 C   0  0  0  0  0  0  0  0  0  0  0  0
   37.1050   25.4870   42.2490 C   0  0  0  0  0  0  0  0  0  0  0  0
   36.8480   24.8740   41.0220 C   0  0  0  0  0  0  0  0  0  0  0  0
   38.0020   25.0720   40.2920 C   0  0  0  0  0  0  0  0  0  0  0  0
   38.8580   25.7370   41.0150 O   0  0  0  0  0  0  0  0  0  0  0  0
   39.1361   28.8513   43.9811 H   0  0  0  0  0  0  0  0  0  0  0  0
   38.0429   26.6797   44.0620 H   0  0  0  0  0  0  0  0  0  0  0  0
   39.9018   25.7131   44.9825 H   0  0  0  0  0  0  0  0  0  0  0  0
   40.4458   25.2246   43.3637 H   0  0  0  0  0  0  0  0  0  0  0  0
   41.1893   27.6818   44.9879 H   0  0  0  0  0  0  0  0  0  0  0  0
   42.2229   26.7636   43.9346 H   0  0  0  0  0  0  0  0  0  0  0  0
   40.9620   27.6134   41.8867 H   0  0  0  0  0  0  0  0  0  0  0  0
   41.2867   29.0352   42.8229 H   0  0  0  0  0  0  0  0  0  0  0  0
   40.2018   28.8149   40.7177 H   0  0  0  0  0  0  0  0  0  0  0  0
   38.8155   29.8643   38.8570 H   0  0  0  0  0  0  0  0  0  0  0  0
   35.4283   29.8303   41.4618 H   0  0  0  0  0  0  0  0  0  0  0  0
   36.4134   25.5380   43.1028 H   0  0  0  0  0  0  0  0  0  0  0  0
   35.9326   24.3512   40.7079 H   0  0  0  0  0  0  0  0  0  0  0  0
   38.1724   24.7236   39.2626 H   0  0  0  0  0  0  0  0  0  0  0  0
  1  2  1  0
  2  3  1  0
  3  4  1  0
  5  1  1  0
  5  4  1  0
  6 11  1  0
  6  1  1  0
  7  6  2  0
  8  9  2  0
  8  7  1  0
  9 10  1  0
 10 11  2  0
 12 13  2  0
 12  2  1  0
 14 13  1  0
 15 16  1  0
 15 14  2  0
 16 12  1  0
  1 17  1  1
  2 18  1  1
  3 19  1  0
  3 20  1  0
  4 21  1  0
  4 22  1  0
  5 23  1  0
  5 24  1  0
  7 25  1  0
  8 26  1  0
 10 27  1  0
 13 28  1  0
 14 29  1  0
 15 30  1  0
M  ISO  8  17  13  18  13  19  13  20  13  21  13  22  13  23  13  24  13
M  ISO  6  25  14  26  14  27  14  28  14  29  14  30  14
M  END
>  <minimizedAffinity>  (1) 
-4.41343784

>  <minimizedRMSD>  (1) 
3.68654084

$$$$
