
     RDKit          3D

 37 39  0  0  1  0  0  0  0  0999 V2000
   36.9670   29.1560   41.8200 C   0  0  1  0  0  0  0  0  0  0  0  0
   37.6280   28.0130   41.0490 C   0  0  1  0  0  0  0  0  0  0  0  0
   37.2430   26.8140   41.8520 C   0  0  0  0  0  0  0  0  0  0  0  0
   36.6710   27.2980   43.1640 C   0  0  0  0  0  0  0  0  0  0  0  0
   37.2410   28.7220   43.2220 C   0  0  0  0  0  0  0  0  0  0  0  0
   37.6180   30.4140   41.4430 C   0  0  0  0  0  0  0  0  0  0  0  0
   38.9950   30.5890   41.7650 C   0  0  0  0  0  0  0  0  0  0  0  0
   39.6030   31.7910   41.3820 C   0  0  0  0  0  0  0  0  0  0  0  0
   38.8490   32.7260   40.7240 N   0  0  0  0  0  0  0  0  0  0  0  0
   37.5400   32.5080   40.4430 C   0  0  0  0  0  0  0  0  0  0  0  0
   36.9520   31.3660   40.8040 N   0  0  0  0  0  0  0  0  0  0  0  0
   37.2660   27.9890   39.6890 N   0  0  0  0  0  0  0  0  0  0  0  0
   35.8390   28.0950   39.4570 C   0  0  0  0  0  0  0  0  0  0  0  0
   35.5850   29.2940   38.5890 C   0  0  0  0  0  0  0  0  0  0  0  0
   36.1070   28.9420   37.2710 N   0  0  0  0  0  0  0  0  0  0  0  0
   37.4880   28.5080   37.3590 C   0  0  0  0  0  0  0  0  0  0  0  0
   38.0410   28.7630   38.7710 C   0  0  0  0  0  0  0  0  0  0  0  0
   35.8970   29.3377   41.6407 H   0  0  0  0  0  0  0  0  0  0  0  0
   38.7213   28.0964   40.9616 H   0  0  0  0  0  0  0  0  0  0  0  0
   36.4877   26.2271   41.3088 H   0  0  0  0  0  0  0  0  0  0  0  0
   38.1198   26.1738   42.0291 H   0  0  0  0  0  0  0  0  0  0  0  0
   35.5711   27.3031   43.1482 H   0  0  0  0  0  0  0  0  0  0  0  0
   36.9273   26.6705   44.0303 H   0  0  0  0  0  0  0  0  0  0  0  0
   38.3173   28.7240   43.4490 H   0  0  0  0  0  0  0  0  0  0  0  0
   36.8114   29.3662   44.0033 H   0  0  0  0  0  0  0  0  0  0  0  0
   39.5600   29.8082   42.2952 H   0  0  0  0  0  0  0  0  0  0  0  0
   40.6635   31.9801   41.6049 H   0  0  0  0  0  0  0  0  0  0  0  0
   36.9593   33.2780   39.9139 H   0  0  0  0  0  0  0  0  0  0  0  0
   35.4769   27.1876   38.9515 H   0  0  0  0  0  0  0  0  0  0  0  0
   35.3086   28.2038   40.4145 H   0  0  0  0  0  0  0  0  0  0  0  0
   34.5069   29.5049   38.5313 H   0  0  0  0  0  0  0  0  0  0  0  0
   36.0682   30.1970   38.9904 H   0  0  0  0  0  0  0  0  0  0  0  0
   36.0512   29.7659   36.6554 H   0  0  0  0  0  0  0  0  0  0  0  0
   37.5448   27.4323   37.1363 H   0  0  0  0  0  0  0  0  0  0  0  0
   38.0877   29.0764   36.6329 H   0  0  0  0  0  0  0  0  0  0  0  0
   39.0963   28.4566   38.8207 H   0  0  0  0  0  0  0  0  0  0  0  0
   37.9787   29.8324   39.0212 H   0  0  0  0  0  0  0  0  0  0  0  0
  1  5  1  0
  2  1  1  0
  2  3  1  0
  3  4  1  0
  4  5  1  0
  6  7  2  0
  6  1  1  0
  8  7  1  0
  9  8  2  0
 10  9  1  0
 10 11  2  0
 11  6  1  0
 12  2  1  0
 13 12  1  0
 14 13  1  0
 15 16  1  0
 15 14  1  0
 16 17  1  0
 17 12  1  0
  1 18  1  1
  2 19  1  6
  3 20  1  0
  3 21  1  0
  4 22  1  0
  4 23  1  0
  5 24  1  0
  5 25  1  0
  7 26  1  0
  8 27  1  0
 10 28  1  0
 13 29  1  0
 13 30  1  0
 14 31  1  0
 14 32  1  0
 15 33  1  0
 16 34  1  0
 16 35  1  0
 17 36  1  0
 17 37  1  0
M  ISO  8  18  13  19  13  20  13  21  13  22  13  23  13  24  13  25  13
M  ISO  8  26  14  27  14  28  14  29  13  30  13  31  13  32  13  33   5
M  ISO  4  34  13  35  13  36  13  37  13
M  END
>  <minimizedAffinity>  (1) 
-4.40863609

>  <minimizedRMSD>  (1) 
4.79508591

$$$$
