
     RDKit          3D

 30 32  0  0  1  0  0  0  0  0999 V2000
   37.9300   27.5930   42.9990 C   0  0  1  0  0  0  0  0  0  0  0  0
   38.0700   26.2380   42.3060 C   0  0  2  0  0  0  0  0  0  0  0  0
   39.2200   25.5940   42.9980 C   0  0  0  0  0  0  0  0  0  0  0  0
   39.7520   26.6050   44.0040 C   0  0  0  0  0  0  0  0  0  0  0  0
   39.3560   27.9180   43.3000 C   0  0  0  0  0  0  0  0  0  0  0  0
   37.2300   28.5350   42.1410 C   0  0  0  0  0  0  0  0  0  0  0  0
   37.8650   29.7560   41.8720 C   0  0  0  0  0  0  0  0  0  0  0  0
   37.2580   30.7120   41.0390 C   0  0  0  0  0  0  0  0  0  0  0  0
   36.0220   30.3510   40.5290 N   0  0  0  0  0  0  0  0  0  0  0  0
   35.4470   29.1740   40.8090 C   0  0  0  0  0  0  0  0  0  0  0  0
   36.0450   28.2690   41.6090 N   0  0  0  0  0  0  0  0  0  0  0  0
   38.1180   26.2530   40.8770 C   0  0  0  0  0  0  0  0  0  0  0  0
   37.1780   25.7630   40.0150 C   0  0  0  0  0  0  0  0  0  0  0  0
   37.3580   25.8230   38.6800 C   0  0  0  0  0  0  0  0  0  0  0  0
   38.5860   26.4260   38.2370 C   0  0  0  0  0  0  0  0  0  0  0  0
   39.4210   26.8820   39.8780 S   0  0  0  0  0  0  0  0  0  0  0  0
   37.3172   27.6157   43.9122 H   0  0  0  0  0  0  0  0  0  0  0  0
   37.1519   25.6412   42.4102 H   0  0  0  0  0  0  0  0  0  0  0  0
   38.8874   24.6829   43.5169 H   0  0  0  0  0  0  0  0  0  0  0  0
   40.0009   25.3050   42.2792 H   0  0  0  0  0  0  0  0  0  0  0  0
   39.2616   26.5030   44.9833 H   0  0  0  0  0  0  0  0  0  0  0  0
   40.8231   26.5084   44.2353 H   0  0  0  0  0  0  0  0  0  0  0  0
   39.9428   28.0902   42.3857 H   0  0  0  0  0  0  0  0  0  0  0  0
   39.5219   28.8376   43.8804 H   0  0  0  0  0  0  0  0  0  0  0  0
   38.8482   29.9679   42.3174 H   0  0  0  0  0  0  0  0  0  0  0  0
   37.7311   31.6780   40.8087 H   0  0  0  0  0  0  0  0  0  0  0  0
   34.4633   28.9405   40.3757 H   0  0  0  0  0  0  0  0  0  0  0  0
   36.2588   25.3119   40.4169 H   0  0  0  0  0  0  0  0  0  0  0  0
   36.6107   25.4342   37.9726 H   0  0  0  0  0  0  0  0  0  0  0  0
   38.9481   26.5826   37.2102 H   0  0  0  0  0  0  0  0  0  0  0  0
  1  5  1  0
  2  3  1  0
  2  1  1  0
  3  4  1  0
  5  4  1  0
  6  1  1  0
  7  6  2  0
  8  7  1  0
  9 10  1  0
  9  8  2  0
 10 11  2  0
 11  6  1  0
 12  2  1  0
 13 12  2  0
 14 13  1  0
 15 14  2  0
 15 16  1  0
 16 12  1  0
  1 17  1  1
  2 18  1  6
  3 19  1  0
  3 20  1  0
  4 21  1  0
  4 22  1  0
  5 23  1  0
  5 24  1  0
  7 25  1  0
  8 26  1  0
 10 27  1  0
 13 28  1  0
 14 29  1  0
 15 30  1  0
M  ISO  8  17  13  18  13  19  13  20  13  21  13  22  13  23  13  24  13
M  ISO  6  25  14  26  14  27  14  28  14  29  14  30  14
M  END
>  <minimizedAffinity>  (1) 
-4.36409187

>  <minimizedRMSD>  (1) 
3.95588374

$$$$
