
     RDKit          3D

 35 37  0  0  1  0  0  0  0  0999 V2000
   37.4650   26.4420   40.4240 C   0  0  1  0  0  0  0  0  0  0  0  0
   37.1710   25.8480   41.8110 C   0  0  1  0  0  0  0  0  0  0  0  0
   36.7230   24.4500   41.5370 C   0  0  0  0  0  0  0  0  0  0  0  0
   36.7440   24.2900   40.0150 C   0  0  0  0  0  0  0  0  0  0  0  0
   36.4440   25.7470   39.5900 C   0  0  0  0  0  0  0  0  0  0  0  0
   37.3520   27.8930   40.4810 C   0  0  0  0  0  0  0  0  0  0  0  0
   36.0700   28.4370   40.7830 C   0  0  0  0  0  0  0  0  0  0  0  0
   35.9440   29.8370   40.8530 C   0  0  0  0  0  0  0  0  0  0  0  0
   37.0670   30.5830   40.6250 N   0  0  0  0  0  0  0  0  0  0  0  0
   38.2660   30.0180   40.3410 C   0  0  0  0  0  0  0  0  0  0  0  0
   38.4010   28.6720   40.2700 N   0  0  0  0  0  0  0  0  0  0  0  0
   38.2230   26.0550   42.6910 N   0  0  0  0  0  0  0  0  0  0  0  0
   38.3280   27.1690   43.5130 C   0  0  0  0  0  0  0  0  0  0  0  0
   39.8420   27.3580   43.6880 C   0  0  0  0  0  0  0  0  0  0  0  0
   40.2850   25.9030   43.6220 C   0  0  0  0  0  0  0  0  0  0  0  0
   39.4790   25.4670   42.3900 C   0  0  0  0  0  0  0  0  0  0  0  0
   38.4764   26.2899   40.0192 H   0  0  0  0  0  0  0  0  0  0  0  0
   36.3650   26.3448   42.3709 H   0  0  0  0  0  0  0  0  0  0  0  0
   37.4094   23.7299   42.0064 H   0  0  0  0  0  0  0  0  0  0  0  0
   35.7203   24.2608   41.9479 H   0  0  0  0  0  0  0  0  0  0  0  0
   37.7265   23.9529   39.6531 H   0  0  0  0  0  0  0  0  0  0  0  0
   36.0468   23.5376   39.6177 H   0  0  0  0  0  0  0  0  0  0  0  0
   36.6106   25.9065   38.5144 H   0  0  0  0  0  0  0  0  0  0  0  0
   35.4056   26.0800   39.7346 H   0  0  0  0  0  0  0  0  0  0  0  0
   35.2038   27.7816   40.9564 H   0  0  0  0  0  0  0  0  0  0  0  0
   34.9791   30.3128   41.0823 H   0  0  0  0  0  0  0  0  0  0  0  0
   39.1411   30.6611   40.1658 H   0  0  0  0  0  0  0  0  0  0  0  0
   37.8761   28.0512   43.0361 H   0  0  0  0  0  0  0  0  0  0  0  0
   37.8032   27.0400   44.4711 H   0  0  0  0  0  0  0  0  0  0  0  0
   40.2776   27.9571   42.8748 H   0  0  0  0  0  0  0  0  0  0  0  0
   40.1448   27.8993   44.5965 H   0  0  0  0  0  0  0  0  0  0  0  0
   41.3691   25.8080   43.4614 H   0  0  0  0  0  0  0  0  0  0  0  0
   40.1140   25.3128   44.5344 H   0  0  0  0  0  0  0  0  0  0  0  0
   39.4088   24.3718   42.3157 H   0  0  0  0  0  0  0  0  0  0  0  0
   39.9111   25.7701   41.4249 H   0  0  0  0  0  0  0  0  0  0  0  0
  1  6  1  0
  1  2  1  0
  2 12  1  0
  3  2  1  0
  4  3  1  0
  5  4  1  0
  5  1  1  0
  6  7  2  0
  7  8  1  0
  9  8  2  0
 10  9  1  0
 11 10  2  0
 11  6  1  0
 12 13  1  0
 13 14  1  0
 15 14  1  0
 16 12  1  0
 16 15  1  0
  1 17  1  6
  2 18  1  1
  3 19  1  0
  3 20  1  0
  4 21  1  0
  4 22  1  0
  5 23  1  0
  5 24  1  0
  7 25  1  0
  8 26  1  0
 10 27  1  0
 13 28  1  0
 13 29  1  0
 14 30  1  0
 14 31  1  0
 15 32  1  0
 15 33  1  0
 16 34  1  0
 16 35  1  0
M  ISO  8  17  13  18  13  19  13  20  13  21  13  22  13  23  13  24  13
M  ISO  8  25  14  26  14  27  14  28  13  29  13  30  13  31  13  32  13
M  ISO  3  33  13  34  13  35  13
M  END
>  <minimizedAffinity>  (1) 
-4.32433844

>  <minimizedRMSD>  (1) 
1.16986609

$$$$
