
     RDKit          3D

 34 36  0  0  1  0  0  0  0  0999 V2000
   37.5890   28.7200   41.4440 C   0  0  1  0  0  0  0  0  0  0  0  0
   38.0030   29.3270   42.8140 C   0  0  1  0  0  0  0  0  0  0  0  0
   37.4110   28.4000   43.8150 C   0  0  0  0  0  0  0  0  0  0  0  0
   36.6260   27.3440   43.0090 C   0  0  0  0  0  0  0  0  0  0  0  0
   36.2560   28.1670   41.7730 C   0  0  0  0  0  0  0  0  0  0  0  0
   37.6080   29.7930   40.4490 C   0  0  0  0  0  0  0  0  0  0  0  0
   36.9310   30.9930   40.7610 C   0  0  0  0  0  0  0  0  0  0  0  0
   36.9280   32.0470   39.8300 C   0  0  0  0  0  0  0  0  0  0  0  0
   37.6030   31.8220   38.6530 N   0  0  0  0  0  0  0  0  0  0  0  0
   38.2340   30.6570   38.4030 C   0  0  0  0  0  0  0  0  0  0  0  0
   38.2320   29.6600   39.2930 N   0  0  0  0  0  0  0  0  0  0  0  0
   39.5000   29.2970   42.8300 C   0  0  0  0  0  0  0  0  0  0  0  0
   40.2390   28.1470   42.9180 C   0  0  0  0  0  0  0  0  0  0  0  0
   41.6200   28.1190   42.9190 C   0  0  0  0  0  0  0  0  0  0  0  0
   42.2560   29.3340   42.8240 N   0  0  0  0  0  0  0  0  0  0  0  0
   41.5530   30.4600   42.7370 C   0  0  0  0  0  0  0  0  0  0  0  0
   40.2050   30.4600   42.7390 N   0  0  0  0  0  0  0  0  0  0  0  0
   42.3010   31.7110   42.6400 C   0  0  0  0  0  0  0  0  0  0  0  0
   42.1160   32.4470   41.6360 O   0  0  0  0  0  0  0  0  0  0  0  0
   43.2070   32.1290   43.6000 O   0  0  0  0  0  0  0  0  0  0  0  0
   38.2325   27.9432   41.0052 H   0  0  0  0  0  0  0  0  0  0  0  0
   37.6690   30.3565   43.0107 H   0  0  0  0  0  0  0  0  0  0  0  0
   38.2045   27.9178   44.4048 H   0  0  0  0  0  0  0  0  0  0  0  0
   36.7576   28.9344   44.5204 H   0  0  0  0  0  0  0  0  0  0  0  0
   37.2546   26.4794   42.7496 H   0  0  0  0  0  0  0  0  0  0  0  0
   35.7715   26.8995   43.5402 H   0  0  0  0  0  0  0  0  0  0  0  0
   35.5295   28.9586   42.0088 H   0  0  0  0  0  0  0  0  0  0  0  0
   35.7681   27.6046   40.9633 H   0  0  0  0  0  0  0  0  0  0  0  0
   36.4106   31.1020   41.7240 H   0  0  0  0  0  0  0  0  0  0  0  0
   36.4143   32.9985   40.0319 H   0  0  0  0  0  0  0  0  0  0  0  0
   38.7613   30.5244   37.4468 H   0  0  0  0  0  0  0  0  0  0  0  0
   39.7014   27.1902   42.9922 H   0  0  0  0  0  0  0  0  0  0  0  0
   42.1806   27.1754   42.9919 H   0  0  0  0  0  0  0  0  0  0  0  0
   43.6885   32.9865   43.4862 H   0  0  0  0  0  0  0  0  0  0  0  0
  1  5  1  0
  1  2  1  0
  2 12  1  0
  2  3  1  0
  4  3  1  0
  5  4  1  0
  6  7  2  0
  6  1  1  0
  8  7  1  0
  9  8  2  0
 10  9  1  0
 10 11  2  0
 11  6  1  0
 12 13  2  0
 13 14  1  0
 15 14  2  0
 16 17  2  0
 16 15  1  0
 17 12  1  0
 18 16  1  0
 18 20  1  0
 19 18  2  0
  1 21  1  6
  2 22  1  1
  3 23  1  0
  3 24  1  0
  4 25  1  0
  4 26  1  0
  5 27  1  0
  5 28  1  0
  7 29  1  0
  8 30  1  0
 10 31  1  0
 13 32  1  0
 14 33  1  0
 20 34  1  0
M  ISO  8  21  13  22  13  23  13  24  13  25  13  26  13  27  13  28  13
M  ISO  6  29  14  30  14  31  14  32  14  33  14  34   3
M  END
>  <minimizedAffinity>  (1) 
-5.13093042

>  <minimizedRMSD>  (1) 
4.49705029

$$$$
