
     RDKit          3D

 46 50  0  0  1  0  0  0  0  0999 V2000
   37.3970   26.3100   40.2190 C   0  0  1  0  0  0  0  0  0  0  0  0
   37.2170   26.5100   41.7300 C   0  0  1  0  0  0  0  0  0  0  0  0
   37.0100   25.1230   42.2590 C   0  0  0  0  0  0  0  0  0  0  0  0
   37.0390   24.1840   41.0510 C   0  0  0  0  0  0  0  0  0  0  0  0
   36.5230   25.1460   39.9540 C   0  0  0  0  0  0  0  0  0  0  0  0
   37.0390   27.5510   39.5420 C   0  0  0  0  0  0  0  0  0  0  0  0
   35.8010   28.1460   39.8810 C   0  0  0  0  0  0  0  0  0  0  0  0
   35.4220   29.3410   39.2510 C   0  0  0  0  0  0  0  0  0  0  0  0
   36.3080   29.8570   38.3270 N   0  0  0  0  0  0  0  0  0  0  0  0
   37.4790   29.2470   38.0410 C   0  0  0  0  0  0  0  0  0  0  0  0
   37.8380   28.1090   38.6410 N   0  0  0  0  0  0  0  0  0  0  0  0
   38.4800   27.1250   42.2400 C   0  0  0  0  0  0  0  0  0  0  0  0
   38.6800   28.4640   42.3820 C   0  0  0  0  0  0  0  0  0  0  0  0
   39.8620   29.0160   42.8440 C   0  0  0  0  0  0  0  0  0  0  0  0
   40.8720   28.1410   43.1700 N   0  0  0  0  0  0  0  0  0  0  0  0
   40.6780   26.8270   43.0330 C   0  0  0  0  0  0  0  0  0  0  0  0
   39.5310   26.3120   42.5850 N   0  0  0  0  0  0  0  0  0  0  0  0
   42.0650   25.7800   43.4750 S   0  0  0  0  0  0  0  0  0  0  0  0
   43.4050   26.7010   44.1190 C   0  0  0  0  0  0  0  0  0  0  0  0
   44.5300   26.9110   43.3130 C   0  0  0  0  0  0  0  0  0  0  0  0
   45.4190   27.6460   44.0350 N   0  0  0  0  0  0  0  0  0  0  0  0
   44.9100   27.9090   45.2540 C   0  0  0  0  0  0  0  0  0  0  0  0
   45.3700   28.5950   46.3570 C   0  0  0  0  0  0  0  0  0  0  0  0
   44.5540   28.6630   47.4680 C   0  0  0  0  0  0  0  0  0  0  0  0
   43.3030   28.0770   47.5200 C   0  0  0  0  0  0  0  0  0  0  0  0
   42.8200   27.3810   46.4200 C   0  0  0  0  0  0  0  0  0  0  0  0
   43.6590   27.3290   45.3220 C   0  0  0  0  0  0  0  0  0  0  0  0
   38.4141   26.1024   39.8551 H   0  0  0  0  0  0  0  0  0  0  0  0
   36.3819   27.1627   42.0241 H   0  0  0  0  0  0  0  0  0  0  0  0
   37.8143   24.8613   42.9622 H   0  0  0  0  0  0  0  0  0  0  0  0
   36.0553   25.0436   42.7996 H   0  0  0  0  0  0  0  0  0  0  0  0
   38.0568   23.8267   40.8355 H   0  0  0  0  0  0  0  0  0  0  0  0
   36.4565   23.2583   41.1683 H   0  0  0  0  0  0  0  0  0  0  0  0
   35.4596   25.3918   40.0909 H   0  0  0  0  0  0  0  0  0  0  0  0
   36.5662   24.7521   38.9278 H   0  0  0  0  0  0  0  0  0  0  0  0
   35.1441   27.6778   40.6288 H   0  0  0  0  0  0  0  0  0  0  0  0
   34.4692   29.8402   39.4813 H   0  0  0  0  0  0  0  0  0  0  0  0
   38.1522   29.6979   37.2970 H   0  0  0  0  0  0  0  0  0  0  0  0
   37.8576   29.1440   42.1151 H   0  0  0  0  0  0  0  0  0  0  0  0
   39.9879   30.1040   42.9458 H   0  0  0  0  0  0  0  0  0  0  0  0
   44.6699   26.5482   42.2840 H   0  0  0  0  0  0  0  0  0  0  0  0
   46.3426   27.9549   43.6996 H   0  0  0  0  0  0  0  0  0  0  0  0
   46.3598   29.0749   46.3521 H   0  0  0  0  0  0  0  0  0  0  0  0
   44.9155   29.2083   48.3523 H   0  0  0  0  0  0  0  0  0  0  0  0
   42.6918   28.1619   48.4306 H   0  0  0  0  0  0  0  0  0  0  0  0
   41.8306   26.9004   46.4218 H   0  0  0  0  0  0  0  0  0  0  0  0
  1  2  1  0
  2 12  1  0
  2  3  1  0
  4  3  1  0
  5  1  1  0
  5  4  1  0
  6  7  2  0
  6  1  1  0
  8  7  1  0
  9  8  2  0
 10  9  1  0
 10 11  2  0
 11  6  1  0
 12 13  2  0
 12 17  1  0
 13 14  1  0
 14 15  2  0
 16 15  1  0
 16 18  1  0
 17 16  2  0
 18 19  1  0
 19 27  1  0
 20 21  1  0
 20 19  2  0
 21 22  1  0
 22 27  2  0
 22 23  1  0
 23 24  2  0
 24 25  1  0
 26 25  2  0
 27 26  1  0
  1 28  1  1
  2 29  1  6
  3 30  1  0
  3 31  1  0
  4 32  1  0
  4 33  1  0
  5 34  1  0
  5 35  1  0
  7 36  1  0
  8 37  1  0
 10 38  1  0
 13 39  1  0
 14 40  1  0
 20 41  1  0
 21 42  1  0
 23 43  1  0
 24 44  1  0
 25 45  1  0
 26 46  1  0
M  ISO  8  28  13  29  13  30  13  31  13  32  13  33  13  34  13  35  13
M  ISO  8  36  14  37  14  38  14  39  14  40  14  41  14  42   9  43  14
M  ISO  3  44  14  45  14  46  14
M  END
>  <minimizedAffinity>  (1) 
-5.69081497

>  <minimizedRMSD>  (1) 
1.9375416

$$$$
