
     RDKit          3D

 44 46  0  0  1  0  0  0  0  0999 V2000
   37.4950   27.2440   40.3270 C   0  0  1  0  0  0  0  0  0  0  0  0
   37.3920   26.8440   41.8070 C   0  0  1  0  0  0  0  0  0  0  0  0
   37.0720   25.3770   41.7630 C   0  0  0  0  0  0  0  0  0  0  0  0
   36.9540   24.9980   40.2850 C   0  0  0  0  0  0  0  0  0  0  0  0
   36.4870   26.3550   39.7050 C   0  0  0  0  0  0  0  0  0  0  0  0
   37.2510   28.6830   40.2220 C   0  0  0  0  0  0  0  0  0  0  0  0
   36.2970   29.2430   41.0800 C   0  0  0  0  0  0  0  0  0  0  0  0
   36.0250   30.6180   41.0220 C   0  0  0  0  0  0  0  0  0  0  0  0
   36.7410   31.3400   40.0910 N   0  0  0  0  0  0  0  0  0  0  0  0
   37.6490   30.7560   39.2860 C   0  0  0  0  0  0  0  0  0  0  0  0
   37.9050   29.4450   39.3450 N   0  0  0  0  0  0  0  0  0  0  0  0
   38.7390   27.0930   42.4100 C   0  0  0  0  0  0  0  0  0  0  0  0
   39.1900   26.4880   43.5590 C   0  0  0  0  0  0  0  0  0  0  0  0
   40.4280   26.7230   44.1210 C   0  0  0  0  0  0  0  0  0  0  0  0
   41.2260   27.6170   43.4670 N   0  0  0  0  0  0  0  0  0  0  0  0
   40.8110   28.2210   42.3440 C   0  0  0  0  0  0  0  0  0  0  0  0
   39.5940   27.9710   41.8190 N   0  0  0  0  0  0  0  0  0  0  0  0
   41.9510   29.3680   41.5940 S   0  0  0  0  0  0  0  0  0  0  0  0
   41.6950   31.0060   42.2770 C   0  0  0  0  0  0  0  0  0  0  0  0
   40.2180   31.1220   42.6360 C   0  0  0  0  0  0  0  0  0  0  0  0
   42.0300   32.0250   41.1970 C   0  0  0  0  0  0  0  0  0  0  0  0
   42.5110   31.2940   43.4900 C   0  0  0  0  0  0  0  0  0  0  0  0
   38.4658   27.1136   39.8265 H   0  0  0  0  0  0  0  0  0  0  0  0
   36.6406   27.3920   42.3945 H   0  0  0  0  0  0  0  0  0  0  0  0
   37.8771   24.7987   42.2398 H   0  0  0  0  0  0  0  0  0  0  0  0
   36.1393   25.1586   42.3037 H   0  0  0  0  0  0  0  0  0  0  0  0
   37.9205   24.6836   39.8643 H   0  0  0  0  0  0  0  0  0  0  0  0
   36.2901   24.1469   40.0732 H   0  0  0  0  0  0  0  0  0  0  0  0
   36.5446   26.3739   38.6067 H   0  0  0  0  0  0  0  0  0  0  0  0
   35.4389   26.6176   39.9114 H   0  0  0  0  0  0  0  0  0  0  0  0
   35.7613   28.6056   41.7988 H   0  0  0  0  0  0  0  0  0  0  0  0
   35.2833   31.0927   41.6812 H   0  0  0  0  0  0  0  0  0  0  0  0
   38.1955   31.3751   38.5593 H   0  0  0  0  0  0  0  0  0  0  0  0
   38.5227   25.7723   44.0614 H   0  0  0  0  0  0  0  0  0  0  0  0
   40.7533   26.2190   45.0430 H   0  0  0  0  0  0  0  0  0  0  0  0
   40.1062   31.1308   43.7303 H   0  0  0  0  0  0  0  0  0  0  0  0
   39.8113   32.0549   42.2184 H   0  0  0  0  0  0  0  0  0  0  0  0
   39.6707   30.2641   42.2184 H   0  0  0  0  0  0  0  0  0  0  0  0
   42.3405   32.9695   41.6677 H   0  0  0  0  0  0  0  0  0  0  0  0
   42.8490   31.6405   40.5714 H   0  0  0  0  0  0  0  0  0  0  0  0
   41.1426   32.2014   40.5714 H   0  0  0  0  0  0  0  0  0  0  0  0
   41.9157   31.0839   44.3908 H   0  0  0  0  0  0  0  0  0  0  0  0
   43.4088   30.6584   43.4874 H   0  0  0  0  0  0  0  0  0  0  0  0
   42.8110   32.3523   43.4874 H   0  0  0  0  0  0  0  0  0  0  0  0
  1  2  1  0
  2 12  1  0
  3  2  1  0
  4  3  1  0
  5  4  1  0
  5  1  1  0
  6  1  1  0
  6  7  2  0
  8  7  1  0
  9  8  2  0
 10 11  2  0
 10  9  1  0
 11  6  1  0
 12 13  2  0
 13 14  1  0
 15 14  2  0
 16 15  1  0
 17 16  2  0
 17 12  1  0
 18 19  1  0
 18 16  1  0
 19 20  1  0
 19 22  1  0
 21 19  1  0
  1 23  1  6
  2 24  1  1
  3 25  1  0
  3 26  1  0
  4 27  1  0
  4 28  1  0
  5 29  1  0
  5 30  1  0
  7 31  1  0
  8 32  1  0
 10 33  1  0
 13 34  1  0
 14 35  1  0
 20 36  1  0
 20 37  1  0
 20 38  1  0
 21 39  1  0
 21 40  1  0
 21 41  1  0
 22 42  1  0
 22 43  1  0
 22 44  1  0
M  ISO  8  23  13  24  13  25  13  26  13  27  13  28  13  29  13  30  13
M  ISO  8  31  14  32  14  33  14  34  14  35  14  36   8  37   8  38   8
M  ISO  6  39   8  40   8  41   8  42   8  43   8  44   8
M  END
>  <minimizedAffinity>  (1) 
-4.87487745

>  <minimizedRMSD>  (1) 
2.92868423

$$$$
