
     RDKit          3D

 37 40  0  0  1  0  0  0  0  0999 V2000
   37.3830   26.4730   40.1940 C   0  0  1  0  0  0  0  0  0  0  0  0
   37.2080   26.0040   41.6470 C   0  0  1  0  0  0  0  0  0  0  0  0
   36.8370   24.5540   41.5160 C   0  0  0  0  0  0  0  0  0  0  0  0
   36.7700   24.2590   40.0200 C   0  0  0  0  0  0  0  0  0  0  0  0
   36.3850   25.6520   39.4820 C   0  0  0  0  0  0  0  0  0  0  0  0
   37.1830   27.9210   40.1440 C   0  0  0  0  0  0  0  0  0  0  0  0
   36.0620   28.4410   40.8230 C   0  0  0  0  0  0  0  0  0  0  0  0
   35.8340   29.8270   40.7980 C   0  0  0  0  0  0  0  0  0  0  0  0
   36.7490   30.5880   40.0940 N   0  0  0  0  0  0  0  0  0  0  0  0
   37.8010   30.0390   39.4640 C   0  0  0  0  0  0  0  0  0  0  0  0
   38.0180   28.7220   39.4870 N   0  0  0  0  0  0  0  0  0  0  0  0
   38.5240   26.1890   42.3230 C   0  0  0  0  0  0  0  0  0  0  0  0
   38.6920   26.7490   43.5500 C   0  0  0  0  0  0  0  0  0  0  0  0
   39.8990   26.9330   44.1710 C   0  0  0  0  0  0  0  0  0  0  0  0
   41.0130   26.5060   43.4730 N   0  0  0  0  0  0  0  0  0  0  0  0
   40.8780   25.9490   42.2570 C   0  0  0  0  0  0  0  0  0  0  0  0
   39.6650   25.7850   41.6790 N   0  0  0  0  0  0  0  0  0  0  0  0
   42.3850   25.4510   41.4480 S   0  0  0  0  0  0  0  0  0  0  0  0
   43.7600   25.9960   42.4500 C   0  0  0  0  0  0  0  0  0  0  0  0
   44.4110   27.1800   42.3760 N   0  0  0  0  0  0  0  0  0  0  0  0
   45.3570   27.2180   43.2620 O   0  0  0  0  0  0  0  0  0  0  0  0
   45.3800   26.0930   43.9500 C   0  0  0  0  0  0  0  0  0  0  0  0
   44.3790   25.3160   43.4480 N   0  0  0  0  0  0  0  0  0  0  0  0
   38.3736   26.3358   39.7359 H   0  0  0  0  0  0  0  0  0  0  0  0
   36.4504   26.5456   42.2325 H   0  0  0  0  0  0  0  0  0  0  0  0
   37.5993   23.9217   41.9945 H   0  0  0  0  0  0  0  0  0  0  0  0
   35.8757   24.3427   42.0072 H   0  0  0  0  0  0  0  0  0  0  0  0
   37.7416   23.9251   39.6270 H   0  0  0  0  0  0  0  0  0  0  0  0
   36.0789   23.4501   39.7405 H   0  0  0  0  0  0  0  0  0  0  0  0
   36.5035   25.7173   38.3904 H   0  0  0  0  0  0  0  0  0  0  0  0
   35.3369   25.9434   39.6452 H   0  0  0  0  0  0  0  0  0  0  0  0
   35.3767   27.7719   41.3639 H   0  0  0  0  0  0  0  0  0  0  0  0
   34.9739   30.2823   41.3108 H   0  0  0  0  0  0  0  0  0  0  0  0
   38.4993   30.6894   38.9169 H   0  0  0  0  0  0  0  0  0  0  0  0
   37.7897   27.0797   44.0853 H   0  0  0  0  0  0  0  0  0  0  0  0
   39.9771   27.3936   45.1669 H   0  0  0  0  0  0  0  0  0  0  0  0
   46.0698   25.8334   44.7665 H   0  0  0  0  0  0  0  0  0  0  0  0
  1  2  1  0
  2 12  1  0
  3  2  1  0
  4  3  1  0
  5  4  1  0
  5  1  1  0
  6  1  1  0
  6  7  2  0
  8  7  1  0
  9  8  2  0
 10 11  2  0
 10  9  1  0
 11  6  1  0
 12 13  2  0
 13 14  1  0
 15 14  2  0
 16 15  1  0
 17 16  2  0
 17 12  1  0
 18 16  1  0
 18 19  1  0
 19 23  1  0
 20 19  2  0
 20 21  1  0
 21 22  1  0
 23 22  2  0
  1 24  1  6
  2 25  1  1
  3 26  1  0
  3 27  1  0
  4 28  1  0
  4 29  1  0
  5 30  1  0
  5 31  1  0
  7 32  1  0
  8 33  1  0
 10 34  1  0
 13 35  1  0
 14 36  1  0
 22 37  1  0
M  ISO  8  24  13  25  13  26  13  27  13  28  13  29  13  30  13  31  13
M  ISO  6  32  14  33  14  34  14  35  14  36  14  37  14
M  END
>  <minimizedAffinity>  (1) 
-4.42483091

>  <minimizedRMSD>  (1) 
0.383749336

$$$$
