
     RDKit          3D

 35 37  0  0  1  0  0  0  0  0999 V2000
   37.4730   26.7310   40.2960 C   0  0  1  0  0  0  0  0  0  0  0  0
   37.3590   26.2420   41.7480 C   0  0  1  0  0  0  0  0  0  0  0  0
   36.8840   24.8240   41.6300 C   0  0  0  0  0  0  0  0  0  0  0  0
   36.7150   24.5580   40.1290 C   0  0  0  0  0  0  0  0  0  0  0  0
   36.3710   25.9880   39.6320 C   0  0  0  0  0  0  0  0  0  0  0  0
   37.3690   28.1840   40.2870 C   0  0  0  0  0  0  0  0  0  0  0  0
   36.2570   28.7650   40.9390 C   0  0  0  0  0  0  0  0  0  0  0  0
   36.1160   30.1610   40.9580 C   0  0  0  0  0  0  0  0  0  0  0  0
   37.0950   30.8830   40.3220 N   0  0  0  0  0  0  0  0  0  0  0  0
   38.1390   30.2820   39.7120 C   0  0  0  0  0  0  0  0  0  0  0  0
   38.2660   28.9570   39.6990 N   0  0  0  0  0  0  0  0  0  0  0  0
   38.7290   26.3200   42.3360 C   0  0  0  0  0  0  0  0  0  0  0  0
   39.0130   26.8020   43.5770 C   0  0  0  0  0  0  0  0  0  0  0  0
   40.2850   26.8850   44.1110 C   0  0  0  0  0  0  0  0  0  0  0  0
   41.3090   26.4470   43.3230 N   0  0  0  0  0  0  0  0  0  0  0  0
   41.0540   25.9680   42.0940 C   0  0  0  0  0  0  0  0  0  0  0  0
   39.7980   25.9050   41.6110 N   0  0  0  0  0  0  0  0  0  0  0  0
   42.4800   25.4410   41.1450 S   0  0  0  0  0  0  0  0  0  0  0  0
   42.0320   25.0790   39.4330 C   0  0  0  0  0  0  0  0  0  0  0  0
   43.1420   24.4880   38.8330 F   0  0  0  0  0  0  0  0  0  0  0  0
   41.7680   26.2470   38.7520 F   0  0  0  0  0  0  0  0  0  0  0  0
   41.0170   24.1440   39.3290 F   0  0  0  0  0  0  0  0  0  0  0  0
   38.4204   26.5398   39.7707 H   0  0  0  0  0  0  0  0  0  0  0  0
   36.6761   26.8233   42.3850 H   0  0  0  0  0  0  0  0  0  0  0  0
   37.6267   24.1352   42.0589 H   0  0  0  0  0  0  0  0  0  0  0  0
   35.9415   24.6682   42.1753 H   0  0  0  0  0  0  0  0  0  0  0  0
   37.6436   24.1816   39.6751 H   0  0  0  0  0  0  0  0  0  0  0  0
   35.9677   23.7908   39.8782 H   0  0  0  0  0  0  0  0  0  0  0  0
   36.4205   26.0676   38.5360 H   0  0  0  0  0  0  0  0  0  0  0  0
   35.3546   26.3394   39.8631 H   0  0  0  0  0  0  0  0  0  0  0  0
   35.5069   28.1265   41.4284 H   0  0  0  0  0  0  0  0  0  0  0  0
   35.2662   30.6507   41.4560 H   0  0  0  0  0  0  0  0  0  0  0  0
   38.9009   30.9006   39.2151 H   0  0  0  0  0  0  0  0  0  0  0  0
   38.1731   27.1490   44.1968 H   0  0  0  0  0  0  0  0  0  0  0  0
   40.4628   27.2841   45.1205 H   0  0  0  0  0  0  0  0  0  0  0  0
  1  2  1  0
  2 12  1  0
  3  2  1  0
  4  3  1  0
  5  4  1  0
  5  1  1  0
  6  1  1  0
  6  7  2  0
  7  8  1  0
  9  8  2  0
 10  9  1  0
 11 10  2  0
 11  6  1  0
 12 13  2  0
 13 14  1  0
 15 14  2  0
 16 15  1  0
 17 16  2  0
 17 12  1  0
 18 16  1  0
 19 18  1  0
 20 19  1  0
 21 19  1  0
 22 19  1  0
  1 23  1  6
  2 24  1  1
  3 25  1  0
  3 26  1  0
  4 27  1  0
  4 28  1  0
  5 29  1  0
  5 30  1  0
  7 31  1  0
  8 32  1  0
 10 33  1  0
 13 34  1  0
 14 35  1  0
M  ISO  8  23  13  24  13  25  13  26  13  27  13  28  13  29  13  30  13
M  ISO  5  31  14  32  14  33  14  34  14  35  14
M  END
>  <minimizedAffinity>  (1) 
-4.3371172

>  <minimizedRMSD>  (1) 
0.268864572

$$$$
