
     RDKit          3D

 35 37  0  0  1  0  0  0  0  0999 V2000
   37.6660   26.9050   40.6000 C   0  0  1  0  0  0  0  0  0  0  0  0
   37.6290   26.3420   42.0280 C   0  0  1  0  0  0  0  0  0  0  0  0
   37.0840   24.9540   41.8580 C   0  0  0  0  0  0  0  0  0  0  0  0
   36.7920   24.7830   40.3620 C   0  0  0  0  0  0  0  0  0  0  0  0
   36.4910   26.2480   39.9680 C   0  0  0  0  0  0  0  0  0  0  0  0
   37.6200   28.3660   40.6740 C   0  0  0  0  0  0  0  0  0  0  0  0
   36.4870   28.9550   41.2680 C   0  0  0  0  0  0  0  0  0  0  0  0
   36.4130   30.3530   41.3560 C   0  0  0  0  0  0  0  0  0  0  0  0
   37.4850   31.0590   40.8410 N   0  0  0  0  0  0  0  0  0  0  0  0
   38.5450   30.4500   40.2830 C   0  0  0  0  0  0  0  0  0  0  0  0
   38.6120   29.1200   40.2010 N   0  0  0  0  0  0  0  0  0  0  0  0
   39.0320   26.3330   42.5150 C   0  0  0  0  0  0  0  0  0  0  0  0
   39.4160   26.7080   43.7800 C   0  0  0  0  0  0  0  0  0  0  0  0
   40.7190   26.7100   44.2300 C   0  0  0  0  0  0  0  0  0  0  0  0
   41.6840   26.3020   43.3290 N   0  0  0  0  0  0  0  0  0  0  0  0
   41.3190   25.9310   42.0830 C   0  0  0  0  0  0  0  0  0  0  0  0
   40.0390   25.9440   41.6850 N   0  0  0  0  0  0  0  0  0  0  0  0
   42.6660   25.4380   41.0340 S   0  0  0  0  0  0  0  0  0  0  0  0
   41.9440   24.8700   39.4490 C   0  0  0  0  0  0  0  0  0  0  0  0
   38.5695   26.7022   40.0063 H   0  0  0  0  0  0  0  0  0  0  0  0
   37.0201   26.9093   42.7473 H   0  0  0  0  0  0  0  0  0  0  0  0
   37.8252   24.2113   42.1882 H   0  0  0  0  0  0  0  0  0  0  0  0
   36.1759   24.8058   42.4608 H   0  0  0  0  0  0  0  0  0  0  0  0
   37.6636   24.3870   39.8202 H   0  0  0  0  0  0  0  0  0  0  0  0
   35.9876   24.0698   40.1292 H   0  0  0  0  0  0  0  0  0  0  0  0
   36.4779   26.3873   38.8769 H   0  0  0  0  0  0  0  0  0  0  0  0
   35.5089   26.6304   40.2831 H   0  0  0  0  0  0  0  0  0  0  0  0
   35.6717   28.3276   41.6574 H   0  0  0  0  0  0  0  0  0  0  0  0
   35.5491   30.8604   41.8101 H   0  0  0  0  0  0  0  0  0  0  0  0
   39.3715   31.0584   39.8871 H   0  0  0  0  0  0  0  0  0  0  0  0
   38.6308   27.0281   44.4807 H   0  0  0  0  0  0  0  0  0  0  0  0
   40.9772   27.0203   45.2533 H   0  0  0  0  0  0  0  0  0  0  0  0
   41.0943   24.2015   39.6518 H   0  0  0  0  0  0  0  0  0  0  0  0
   41.5968   25.7396   38.8717 H   0  0  0  0  0  0  0  0  0  0  0  0
   42.7074   24.3278   38.8717 H   0  0  0  0  0  0  0  0  0  0  0  0
  1  6  1  0
  1  2  1  0
  2 12  1  0
  3  2  1  0
  4  3  1  0
  5  4  1  0
  5  1  1  0
  6  7  2  0
  7  8  1  0
  9  8  2  0
 10  9  1  0
 11 10  2  0
 11  6  1  0
 12 13  2  0
 13 14  1  0
 15 14  2  0
 16 15  1  0
 17 16  2  0
 17 12  1  0
 18 16  1  0
 19 18  1  0
  1 20  1  6
  2 21  1  1
  3 22  1  0
  3 23  1  0
  4 24  1  0
  4 25  1  0
  5 26  1  0
  5 27  1  0
  7 28  1  0
  8 29  1  0
 10 30  1  0
 13 31  1  0
 14 32  1  0
 19 33  1  0
 19 34  1  0
 19 35  1  0
M  ISO  8  20  13  21  13  22  13  23  13  24  13  25  13  26  13  27  13
M  ISO  8  28  14  29  14  30  14  31  14  32  14  33   8  34   8  35   8
M  END
>  <minimizedAffinity>  (1) 
-4.32738209

>  <minimizedRMSD>  (1) 
0.804172695

$$$$
