
     RDKit          3D

 27 29  0  0  0  0  0  0  0  0999 V2000
   37.2840   28.5660   42.6780 C   0  0  0  0  0  0  0  0  0  0  0  0
   38.4280   29.3560   42.4380 C   0  0  0  0  0  0  0  0  0  0  0  0
   38.5070   30.0230   41.2110 C   0  0  0  0  0  0  0  0  0  0  0  0
   37.4880   29.8750   40.3300 N   0  0  0  0  0  0  0  0  0  0  0  0
   36.4060   29.1100   40.5920 C   0  0  0  0  0  0  0  0  0  0  0  0
   36.2980   28.4520   41.7650 N   0  0  0  0  0  0  0  0  0  0  0  0
   35.4260   29.0580   39.5630 N   0  0  0  0  0  0  0  0  0  0  0  0
   34.0890   29.1380   39.6690 C   0  0  0  0  0  0  0  0  0  0  0  0
   33.5770   29.0420   38.4280 N   0  0  0  0  0  0  0  0  0  0  0  0
   34.5620   28.8990   37.5260 C   0  0  0  0  0  0  0  0  0  0  0  0
   34.6800   28.7560   36.1480 C   0  0  0  0  0  0  0  0  0  0  0  0
   33.6180   28.7450   35.4780 O   0  0  0  0  0  0  0  0  0  0  0  0
   35.8750   28.6330   35.5410 N   0  0  0  0  0  0  0  0  0  0  0  0
   37.0000   28.6490   36.2900 C   0  0  0  0  0  0  0  0  0  0  0  0
   38.2210   28.5130   35.5720 N   0  0  0  0  0  0  0  0  0  0  0  0
   36.9280   28.7860   37.6270 N   0  0  0  0  0  0  0  0  0  0  0  0
   35.7360   28.9100   38.2420 C   0  0  0  0  0  0  0  0  0  0  0  0
   37.1430   27.8360   43.9560 C   0  0  0  0  0  0  0  0  0  0  0  0
   36.8110   28.6670   44.9960 F   0  0  0  0  0  0  0  0  0  0  0  0
   38.3370   27.1620   44.2510 F   0  0  0  0  0  0  0  0  0  0  0  0
   36.1460   26.8820   43.8050 F   0  0  0  0  0  0  0  0  0  0  0  0
   39.2280   29.4441   43.1878 H   0  0  0  0  0  0  0  0  0  0  0  0
   39.3754   30.6525   40.9671 H   0  0  0  0  0  0  0  0  0  0  0  0
   33.5169   29.2598   40.6006 H   0  0  0  0  0  0  0  0  0  0  0  0
   35.9315   28.5279   34.5179 H   0  0  0  0  0  0  0  0  0  0  0  0
   39.1186   28.5165   36.0771 H   0  0  0  0  0  0  0  0  0  0  0  0
   38.2072   28.4111   34.5472 H   0  0  0  0  0  0  0  0  0  0  0  0
  1 18  1  0
  2  1  2  0
  3  2  1  0
  4  5  1  0
  4  3  2  0
  5  6  2  0
  6  1  1  0
  7  8  1  0
  7  5  1  0
  9  8  2  0
 10 17  2  0
 10  9  1  0
 11 10  1  0
 12 11  2  0
 13 11  1  0
 13 14  1  0
 14 16  2  0
 15 14  1  0
 16 17  1  0
 17  7  1  0
 18 20  1  0
 18 19  1  0
 21 18  1  0
  2 22  1  0
  3 23  1  0
  8 24  1  0
 13 25  1  0
 15 26  1  0
 15 27  1  0
M  ISO  4  22  14  23  14  24  14  25   9
M  END
>  <minimizedAffinity>  (1) 
-5.85203648

>  <minimizedRMSD>  (1) 
1.18419123

$$$$
