
     RDKit          3D

 26 27  0  0  0  0  0  0  0  0999 V2000
   37.5560   28.7780   42.8340 C   0  0  0  0  0  0  0  0  0  0  0  0
   38.6300   29.6850   42.9200 C   0  0  0  0  0  0  0  0  0  0  0  0
   38.9000   30.4760   41.8140 C   0  0  0  0  0  0  0  0  0  0  0  0
   38.1100   30.3320   40.7020 N   0  0  0  0  0  0  0  0  0  0  0  0
   37.0970   29.4540   40.6630 C   0  0  0  0  0  0  0  0  0  0  0  0
   36.8020   28.6670   41.7160 N   0  0  0  0  0  0  0  0  0  0  0  0
   36.3240   29.3660   39.4720 N   0  0  0  0  0  0  0  0  0  0  0  0
   36.8630   29.5550   38.2540 C   0  0  0  0  0  0  0  0  0  0  0  0
   36.1500   29.4790   37.0780 C   0  0  0  0  0  0  0  0  0  0  0  0
   36.7850   29.6940   35.7590 C   0  0  0  0  0  0  0  0  0  0  0  0
   34.7840   29.1870   37.1310 C   0  0  0  0  0  0  0  0  0  0  0  0
   34.0550   29.0970   36.1210 O   0  0  0  0  0  0  0  0  0  0  0  0
   34.3090   29.0100   38.3770 N   0  0  0  0  0  0  0  0  0  0  0  0
   34.9960   29.0830   39.5290 C   0  0  0  0  0  0  0  0  0  0  0  0
   34.4060   28.8900   40.6230 O   0  0  0  0  0  0  0  0  0  0  0  0
   37.2250   27.9060   43.9920 C   0  0  0  0  0  0  0  0  0  0  0  0
   36.7770   28.6510   45.0660 F   0  0  0  0  0  0  0  0  0  0  0  0
   38.3450   27.1590   44.3620 F   0  0  0  0  0  0  0  0  0  0  0  0
   36.2230   27.0310   43.6150 F   0  0  0  0  0  0  0  0  0  0  0  0
   39.2351   29.7632   43.8353 H   0  0  0  0  0  0  0  0  0  0  0  0
   39.7271   31.2010   41.8278 H   0  0  0  0  0  0  0  0  0  0  0  0
   37.9372   29.7839   38.1937 H   0  0  0  0  0  0  0  0  0  0  0  0
   37.8181   30.0438   35.9020 H   0  0  0  0  0  0  0  0  0  0  0  0
   36.7926   28.7483   35.1972 H   0  0  0  0  0  0  0  0  0  0  0  0
   36.2165   30.4497   35.1972 H   0  0  0  0  0  0  0  0  0  0  0  0
   33.3050   28.7941   38.4568 H   0  0  0  0  0  0  0  0  0  0  0  0
  1  2  2  0
  1 16  1  0
  3  2  1  0
  4  3  2  0
  5  4  1  0
  5  6  2  0
  6  1  1  0
  7 14  1  0
  7  5  1  0
  8  7  1  0
  9 11  1  0
  9  8  2  0
 10  9  1  0
 11 13  1  0
 12 11  2  0
 13 14  1  0
 14 15  2  0
 16 18  1  0
 16 17  1  0
 19 16  1  0
  2 20  1  0
  3 21  1  0
  8 22  1  0
 10 23  1  0
 10 24  1  0
 10 25  1  0
 13 26  1  0
M  ISO  7  20  14  21  14  22  14  23   8  24   8  25   8  26   9
M  END
>  <minimizedAffinity>  (1) 
-5.52027369

>  <minimizedRMSD>  (1) 
1.5503056

$$$$
