
     RDKit          3D

 24 25  0  0  0  0  0  0  0  0999 V2000
   37.6160   28.7690   42.8410 C   0  0  0  0  0  0  0  0  0  0  0  0
   38.6400   29.7150   42.9940 C   0  0  0  0  0  0  0  0  0  0  0  0
   38.9460   30.5180   41.8990 C   0  0  0  0  0  0  0  0  0  0  0  0
   38.2420   30.3440   40.7500 N   0  0  0  0  0  0  0  0  0  0  0  0
   37.2630   29.4220   40.6420 C   0  0  0  0  0  0  0  0  0  0  0  0
   36.9310   28.6170   41.6850 N   0  0  0  0  0  0  0  0  0  0  0  0
   36.6180   29.3590   39.3750 N   0  0  0  0  0  0  0  0  0  0  0  0
   37.3940   29.4970   38.2880 C   0  0  0  0  0  0  0  0  0  0  0  0
   36.8350   29.4460   37.0070 C   0  0  0  0  0  0  0  0  0  0  0  0
   35.4550   29.2480   36.9470 C   0  0  0  0  0  0  0  0  0  0  0  0
   34.8230   29.1870   35.6920 N   0  0  0  0  0  0  0  0  0  0  0  0
   34.7280   29.1160   38.0720 N   0  0  0  0  0  0  0  0  0  0  0  0
   35.2880   29.1680   39.2950 C   0  0  0  0  0  0  0  0  0  0  0  0
   34.5650   29.0390   40.2880 O   0  0  0  0  0  0  0  0  0  0  0  0
   37.2450   27.8850   43.9760 C   0  0  0  0  0  0  0  0  0  0  0  0
   36.7570   28.6000   45.0480 F   0  0  0  0  0  0  0  0  0  0  0  0
   38.3540   27.1270   44.3740 F   0  0  0  0  0  0  0  0  0  0  0  0
   36.2510   27.0090   43.5480 F   0  0  0  0  0  0  0  0  0  0  0  0
   39.1821   29.8187   43.9455 H   0  0  0  0  0  0  0  0  0  0  0  0
   39.7401   31.2766   41.9625 H   0  0  0  0  0  0  0  0  0  0  0  0
   38.4767   29.6512   38.4058 H   0  0  0  0  0  0  0  0  0  0  0  0
   37.4474   29.5556   36.0998 H   0  0  0  0  0  0  0  0  0  0  0  0
   33.8050   29.0413   35.6346 H   0  0  0  0  0  0  0  0  0  0  0  0
   35.3782   29.2881   34.8303 H   0  0  0  0  0  0  0  0  0  0  0  0
  1  2  2  0
  1 15  1  0
  3  2  1  0
  4  3  2  0
  5  4  1  0
  5  6  2  0
  6  1  1  0
  7  5  1  0
  8  7  1  0
  9  8  2  0
 10  9  1  0
 10 12  2  0
 11 10  1  0
 12 13  1  0
 13  7  1  0
 13 14  2  0
 15 17  1  0
 15 16  1  0
 18 15  1  0
  2 19  1  0
  3 20  1  0
  8 21  1  0
  9 22  1  0
 11 23  1  0
 11 24  1  0
M  ISO  4  19  14  20  14  21  14  22  14
M  END
>  <minimizedAffinity>  (1) 
-5.4747653

>  <minimizedRMSD>  (1) 
1.72006118

$$$$
