
     RDKit          3D

 22 23  0  0  0  0  0  0  0  0999 V2000
   37.4410   28.7470   42.9300 C   0  0  0  0  0  0  0  0  0  0  0  0
   38.5300   29.6240   42.9820 C   0  0  0  0  0  0  0  0  0  0  0  0
   38.7520   30.4260   41.8490 C   0  0  0  0  0  0  0  0  0  0  0  0
   37.9040   30.2990   40.7930 N   0  0  0  0  0  0  0  0  0  0  0  0
   36.8690   29.4430   40.7850 C   0  0  0  0  0  0  0  0  0  0  0  0
   36.6350   28.6590   41.8670 N   0  0  0  0  0  0  0  0  0  0  0  0
   35.9750   29.3290   39.6360 C   0  0  0  0  0  0  0  0  0  0  0  0
   36.5290   29.4360   38.3640 C   0  0  0  0  0  0  0  0  0  0  0  0
   35.7500   29.3380   37.2330 C   0  0  0  0  0  0  0  0  0  0  0  0
   34.4130   29.1310   37.5000 C   0  0  0  0  0  0  0  0  0  0  0  0
   33.8130   29.0170   38.7330 C   0  0  0  0  0  0  0  0  0  0  0  0
   34.6380   29.1230   39.8120 N   0  0  0  0  0  0  0  0  0  0  0  0
   37.1540   27.8650   44.1070 C   0  0  0  0  0  0  0  0  0  0  0  0
   36.7240   28.5960   45.1900 F   0  0  0  0  0  0  0  0  0  0  0  0
   38.2880   27.1370   44.4350 F   0  0  0  0  0  0  0  0  0  0  0  0
   36.1380   26.9930   43.7520 F   0  0  0  0  0  0  0  0  0  0  0  0
   39.1810   29.6831   43.8667 H   0  0  0  0  0  0  0  0  0  0  0  0
   39.5899   31.1380   41.8172 H   0  0  0  0  0  0  0  0  0  0  0  0
   37.6114   29.6023   38.2600 H   0  0  0  0  0  0  0  0  0  0  0  0
   36.1555   29.4173   36.2135 H   0  0  0  0  0  0  0  0  0  0  0  0
   33.7497   29.0474   36.6265 H   0  0  0  0  0  0  0  0  0  0  0  0
   32.7311   28.8501   38.8411 H   0  0  0  0  0  0  0  0  0  0  0  0
  1  2  2  0
  1 13  1  0
  3  2  1  0
  4  3  2  0
  5  4  1  0
  5  6  2  0
  6  1  1  0
  7 12  1  0
  7  5  1  0
  8  7  2  0
  9 10  2  0
  9  8  1  0
 10 11  1  0
 11 12  2  0
 13 15  1  0
 13 14  1  0
 16 13  1  0
  2 17  1  0
  3 18  1  0
  8 19  1  0
  9 20  1  0
 10 21  1  0
 11 22  1  0
M  ISO  6  17  14  18  14  19  14  20  14  21  14  22  14
M  END
>  <minimizedAffinity>  (1) 
-5.17749548

>  <minimizedRMSD>  (1) 
1.28218496

$$$$
