
     RDKit          3D

 20 21  0  0  0  0  0  0  0  0999 V2000
   37.3280   28.7270   42.8810 C   0  0  0  0  0  0  0  0  0  0  0  0
   38.4080   29.6250   42.8180 C   0  0  0  0  0  0  0  0  0  0  0  0
   38.5200   30.4270   41.6800 C   0  0  0  0  0  0  0  0  0  0  0  0
   37.5720   30.2910   40.6960 N   0  0  0  0  0  0  0  0  0  0  0  0
   36.5600   29.4230   40.7990 C   0  0  0  0  0  0  0  0  0  0  0  0
   36.4290   28.6380   41.8850 N   0  0  0  0  0  0  0  0  0  0  0  0
   35.5800   29.3190   39.7220 C   0  0  0  0  0  0  0  0  0  0  0  0
   35.8350   29.3200   38.3650 C   0  0  0  0  0  0  0  0  0  0  0  0
   34.6840   29.2090   37.6800 N   0  0  0  0  0  0  0  0  0  0  0  0
   33.7080   29.1400   38.6200 C   0  0  0  0  0  0  0  0  0  0  0  0
   34.2440   29.2070   39.8740 N   0  0  0  0  0  0  0  0  0  0  0  0
   37.1650   27.8540   44.0670 C   0  0  0  0  0  0  0  0  0  0  0  0
   36.7570   28.5640   45.1710 F   0  0  0  0  0  0  0  0  0  0  0  0
   38.3630   27.1830   44.3300 F   0  0  0  0  0  0  0  0  0  0  0  0
   36.1980   26.9050   43.7770 F   0  0  0  0  0  0  0  0  0  0  0  0
   39.1395   29.6936   43.6367 H   0  0  0  0  0  0  0  0  0  0  0  0
   39.3446   31.1474   41.5750 H   0  0  0  0  0  0  0  0  0  0  0  0
   36.8338   29.3999   37.9111 H   0  0  0  0  0  0  0  0  0  0  0  0
   32.6341   29.0435   38.4021 H   0  0  0  0  0  0  0  0  0  0  0  0
   33.7277   29.1777   40.7648 H   0  0  0  0  0  0  0  0  0  0  0  0
  1 12  1  0
  2  1  2  0
  3  2  1  0
  4  5  1  0
  4  3  2  0
  5  6  2  0
  6  1  1  0
  7 11  1  0
  7  5  1  0
  8  7  2  0
  9  8  1  0
  9 10  2  0
 10 11  1  0
 12 14  1  0
 12 13  1  0
 15 12  1  0
  2 16  1  0
  3 17  1  0
  8 18  1  0
 10 19  1  0
 11 20  1  0
M  ISO  5  16  14  17  14  18  14  19  14  20   9
M  END
>  <minimizedAffinity>  (1) 
-4.86068201

>  <minimizedRMSD>  (1) 
0.973275602

$$$$
