
     RDKit          3D

 19 19  0  0  0  0  0  0  0  0999 V2000
   37.5040   28.8700   42.9930 C   0  0  0  0  0  0  0  0  0  0  0  0
   38.6950   29.6070   43.0090 C   0  0  0  0  0  0  0  0  0  0  0  0
   38.9210   30.5260   41.9840 C   0  0  0  0  0  0  0  0  0  0  0  0
   37.9620   30.6540   41.0220 N   0  0  0  0  0  0  0  0  0  0  0  0
   36.8230   29.9310   41.0300 C   0  0  0  0  0  0  0  0  0  0  0  0
   36.5860   29.0380   42.0120 N   0  0  0  0  0  0  0  0  0  0  0  0
   37.2180   27.8830   44.0570 C   0  0  0  0  0  0  0  0  0  0  0  0
   36.7460   28.4810   45.1990 F   0  0  0  0  0  0  0  0  0  0  0  0
   38.3780   27.1590   44.3610 F   0  0  0  0  0  0  0  0  0  0  0  0
   36.2510   27.0000   43.5910 F   0  0  0  0  0  0  0  0  0  0  0  0
   35.8740   30.1830   39.9120 C   0  0  0  0  0  0  0  0  0  0  0  0
   34.7550   29.1930   39.8270 C   0  0  0  0  0  0  0  0  0  0  0  0
   39.4346   29.4646   43.8107 H   0  0  0  0  0  0  0  0  0  0  0  0
   39.8416   31.1273   41.9525 H   0  0  0  0  0  0  0  0  0  0  0  0
   35.4398   31.1847   40.0463 H   0  0  0  0  0  0  0  0  0  0  0  0
   36.4503   30.0919   38.9795 H   0  0  0  0  0  0  0  0  0  0  0  0
   34.4367   28.9114   40.8416 H   0  0  0  0  0  0  0  0  0  0  0  0
   33.9078   29.6426   39.2885 H   0  0  0  0  0  0  0  0  0  0  0  0
   35.0980   28.2973   39.2885 H   0  0  0  0  0  0  0  0  0  0  0  0
  1  2  2  0
  1  7  1  0
  3  2  1  0
  4  5  1  0
  4  3  2  0
  5  6  2  0
  6  1  1  0
  7  9  1  0
  7  8  1  0
 10  7  1  0
 11  5  1  0
 12 11  1  0
  2 13  1  0
  3 14  1  0
 11 15  1  0
 11 16  1  0
 12 17  1  0
 12 18  1  0
 12 19  1  0
M  ISO  7  13  14  14  14  15   8  16   8  17   8  18   8  19   8
M  END
>  <minimizedAffinity>  (1) 
-4.46720791

>  <minimizedRMSD>  (1) 
1.20413482

$$$$
