
     RDKit          3D

 34 37  0  0  0  0  0  0  0  0999 V2000
   37.4670   28.6870   42.9000 C   0  0  0  0  0  0  0  0  0  0  0  0
   38.4260   29.7100   43.0550 C   0  0  0  0  0  0  0  0  0  0  0  0
   38.5950   30.6110   42.0070 C   0  0  0  0  0  0  0  0  0  0  0  0
   37.8230   30.4460   40.9000 N   0  0  0  0  0  0  0  0  0  0  0  0
   36.9040   29.4430   40.7850 C   0  0  0  0  0  0  0  0  0  0  0  0
   36.7330   28.5680   41.7890 N   0  0  0  0  0  0  0  0  0  0  0  0
   36.1460   29.3600   39.5850 N   0  0  0  0  0  0  0  0  0  0  0  0
   34.8590   29.0750   39.6160 N   0  0  0  0  0  0  0  0  0  0  0  0
   34.3350   29.0470   38.3920 C   0  0  0  0  0  0  0  0  0  0  0  0
   35.3640   29.3360   37.5120 C   0  0  0  0  0  0  0  0  0  0  0  0
   36.4870   29.5270   38.2830 C   0  0  0  0  0  0  0  0  0  0  0  0
   37.8770   29.8660   38.0050 C   0  0  0  0  0  0  0  0  0  0  0  0
   38.2410   31.1830   37.9540 N   0  0  0  0  0  0  0  0  0  0  0  0
   39.4810   31.5800   37.7050 C   0  0  0  0  0  0  0  0  0  0  0  0
   40.5050   30.7110   37.4770 N   0  0  0  0  0  0  0  0  0  0  0  0
   40.2110   29.3930   37.5130 C   0  0  0  0  0  0  0  0  0  0  0  0
   41.1750   28.4110   37.2890 C   0  0  0  0  0  0  0  0  0  0  0  0
   40.8680   27.0550   37.3210 C   0  0  0  0  0  0  0  0  0  0  0  0
   39.5510   26.6590   37.5840 C   0  0  0  0  0  0  0  0  0  0  0  0
   38.6260   27.6600   37.8010 C   0  0  0  0  0  0  0  0  0  0  0  0
   38.9240   29.0020   37.7720 C   0  0  0  0  0  0  0  0  0  0  0  0
   37.2610   27.7090   43.9950 C   0  0  0  0  0  0  0  0  0  0  0  0
   36.7500   28.3220   45.1300 F   0  0  0  0  0  0  0  0  0  0  0  0
   38.4530   27.0670   44.3110 F   0  0  0  0  0  0  0  0  0  0  0  0
   36.3360   26.7820   43.5840 F   0  0  0  0  0  0  0  0  0  0  0  0
   39.0221   29.7933   43.9757 H   0  0  0  0  0  0  0  0  0  0  0  0
   39.3281   31.4285   42.0724 H   0  0  0  0  0  0  0  0  0  0  0  0
   33.2876   28.8353   38.1308 H   0  0  0  0  0  0  0  0  0  0  0  0
   35.2969   29.4000   36.4159 H   0  0  0  0  0  0  0  0  0  0  0  0
   39.6925   32.6592   37.6814 H   0  0  0  0  0  0  0  0  0  0  0  0
   42.2104   28.7183   37.0805 H   0  0  0  0  0  0  0  0  0  0  0  0
   41.6503   26.3027   37.1419 H   0  0  0  0  0  0  0  0  0  0  0  0
   39.2662   25.5970   37.6162 H   0  0  0  0  0  0  0  0  0  0  0  0
   37.5867   27.3663   38.0099 H   0  0  0  0  0  0  0  0  0  0  0  0
  1  2  2  0
  1 22  1  0
  3  2  1  0
  4  3  2  0
  5  4  1  0
  5  6  2  0
  6  1  1  0
  7  8  1  0
  7  5  1  0
  9  8  2  0
 10 11  2  0
 10  9  1  0
 11  7  1  0
 12 11  1  0
 13 12  2  0
 14 13  1  0
 15 16  1  0
 15 14  2  0
 16 21  2  0
 17 18  2  0
 17 16  1  0
 18 19  1  0
 19 20  2  0
 21 20  1  0
 21 12  1  0
 22 24  1  0
 22 23  1  0
 25 22  1  0
  2 26  1  0
  3 27  1  0
  9 28  1  0
 10 29  1  0
 14 30  1  0
 17 31  1  0
 18 32  1  0
 19 33  1  0
 20 34  1  0
M  ISO  8  26  14  27  14  28  14  29  14  30  14  31  14  32  14  33  14
M  ISO  1  34  14
M  END
>  <minimizedAffinity>  (1) 
-6.02935028

>  <minimizedRMSD>  (1) 
1.45636928

$$$$
