
     RDKit          3D

 34 37  0  0  0  0  0  0  0  0999 V2000
   37.7380   28.7460   42.8740 C   0  0  0  0  0  0  0  0  0  0  0  0
   38.7750   29.6760   43.1270 C   0  0  0  0  0  0  0  0  0  0  0  0
   39.1540   30.5220   42.0790 C   0  0  0  0  0  0  0  0  0  0  0  0
   38.4960   30.3800   40.9050 N   0  0  0  0  0  0  0  0  0  0  0  0
   37.5140   29.4900   40.6780 C   0  0  0  0  0  0  0  0  0  0  0  0
   37.1270   28.6580   41.6810 N   0  0  0  0  0  0  0  0  0  0  0  0
   36.8850   29.4380   39.4040 N   0  0  0  0  0  0  0  0  0  0  0  0
   35.5500   29.3860   39.3340 N   0  0  0  0  0  0  0  0  0  0  0  0
   35.1280   29.3850   38.0800 C   0  0  0  0  0  0  0  0  0  0  0  0
   36.2770   29.4400   37.2960 C   0  0  0  0  0  0  0  0  0  0  0  0
   37.3680   29.4700   38.1560 C   0  0  0  0  0  0  0  0  0  0  0  0
   38.7230   29.5220   37.7140 C   0  0  0  0  0  0  0  0  0  0  0  0
   39.5310   28.5450   37.2240 C   0  0  0  0  0  0  0  0  0  0  0  0
   40.7910   28.9230   36.9540 N   0  0  0  0  0  0  0  0  0  0  0  0
   40.8800   30.2390   37.2680 C   0  0  0  0  0  0  0  0  0  0  0  0
   41.9480   31.1050   37.1850 C   0  0  0  0  0  0  0  0  0  0  0  0
   41.7520   32.4030   37.5820 C   0  0  0  0  0  0  0  0  0  0  0  0
   40.5330   32.8320   38.0510 C   0  0  0  0  0  0  0  0  0  0  0  0
   39.5350   31.8980   38.0960 C   0  0  0  0  0  0  0  0  0  0  0  0
   39.6010   30.5760   37.7280 C   0  0  0  0  0  0  0  0  0  0  0  0
   37.2800   27.8390   43.9680 C   0  0  0  0  0  0  0  0  0  0  0  0
   36.7480   28.5670   45.0250 F   0  0  0  0  0  0  0  0  0  0  0  0
   38.3330   27.0660   44.4240 F   0  0  0  0  0  0  0  0  0  0  0  0
   36.2690   27.0410   43.4850 F   0  0  0  0  0  0  0  0  0  0  0  0
   39.2644   29.7314   44.1106 H   0  0  0  0  0  0  0  0  0  0  0  0
   39.9514   31.2694   42.2038 H   0  0  0  0  0  0  0  0  0  0  0  0
   34.0859   29.3483   37.7298 H   0  0  0  0  0  0  0  0  0  0  0  0
   36.3144   29.4567   36.1968 H   0  0  0  0  0  0  0  0  0  0  0  0
   39.1774   27.5164   37.0600 H   0  0  0  0  0  0  0  0  0  0  0  0
   41.5443   28.3281   36.5805 H   0  0  0  0  0  0  0  0  0  0  0  0
   42.9261   30.7665   36.8125 H   0  0  0  0  0  0  0  0  0  0  0  0
   42.5878   33.1158   37.5239 H   0  0  0  0  0  0  0  0  0  0  0  0
   40.3691   33.8710   38.3729 H   0  0  0  0  0  0  0  0  0  0  0  0
   38.5622   32.2474   38.4722 H   0  0  0  0  0  0  0  0  0  0  0  0
  1  2  2  0
  1 21  1  0
  3  2  1  0
  4  3  2  0
  5  4  1  0
  5  6  2  0
  6  1  1  0
  7  5  1  0
  8  7  1  0
  9  8  2  0
 10  9  1  0
 10 11  2  0
 11  7  1  0
 12 20  1  0
 12 11  1  0
 13 12  2  0
 14 13  1  0
 14 15  1  0
 15 20  2  0
 16 15  1  0
 16 17  2  0
 17 18  1  0
 18 19  2  0
 20 19  1  0
 21 23  1  0
 21 22  1  0
 24 21  1  0
  2 25  1  0
  3 26  1  0
  9 27  1  0
 10 28  1  0
 13 29  1  0
 14 30  1  0
 16 31  1  0
 17 32  1  0
 18 33  1  0
 19 34  1  0
M  ISO  8  25  14  26  14  27  14  28  14  29  14  30   9  31  14  32  14
M  ISO  2  33  14  34  14
M  END
>  <minimizedAffinity>  (1) 
-6.00484657

>  <minimizedRMSD>  (1) 
1.12518001

$$$$
