
     RDKit          3D

 34 36  0  0  0  0  0  0  0  0999 V2000
   37.3660   28.7050   42.8120 C   0  0  0  0  0  0  0  0  0  0  0  0
   38.3480   29.7270   42.8570 C   0  0  0  0  0  0  0  0  0  0  0  0
   38.4380   30.5990   41.7610 C   0  0  0  0  0  0  0  0  0  0  0  0
   37.5710   30.4020   40.7250 N   0  0  0  0  0  0  0  0  0  0  0  0
   36.6380   29.4120   40.7120 C   0  0  0  0  0  0  0  0  0  0  0  0
   36.5420   28.5680   41.7590 N   0  0  0  0  0  0  0  0  0  0  0  0
   35.7870   29.2980   39.5960 N   0  0  0  0  0  0  0  0  0  0  0  0
   34.4930   29.0730   39.7440 N   0  0  0  0  0  0  0  0  0  0  0  0
   33.8450   29.0130   38.5910 C   0  0  0  0  0  0  0  0  0  0  0  0
   34.7930   29.2140   37.6150 C   0  0  0  0  0  0  0  0  0  0  0  0
   35.9770   29.3870   38.2860 C   0  0  0  0  0  0  0  0  0  0  0  0
   37.2270   29.5970   37.6440 N   0  0  0  0  0  0  0  0  0  0  0  0
   38.2850   28.6590   37.2830 C   0  0  0  0  0  0  0  0  0  0  0  0
   39.3910   28.9100   38.2720 C   0  0  0  0  0  0  0  0  0  0  0  0
   39.5520   30.2720   38.6490 N   0  0  0  0  0  0  0  0  0  0  0  0
   39.0110   31.2660   37.7620 C   0  0  0  0  0  0  0  0  0  0  0  0
   37.5990   30.9780   37.2900 C   0  0  0  0  0  0  0  0  0  0  0  0
   37.2300   27.7650   43.9480 C   0  0  0  0  0  0  0  0  0  0  0  0
   36.7670   28.4070   45.0760 F   0  0  0  0  0  0  0  0  0  0  0  0
   38.4740   27.1650   44.2200 F   0  0  0  0  0  0  0  0  0  0  0  0
   36.3250   26.7900   43.6110 F   0  0  0  0  0  0  0  0  0  0  0  0
   39.0177   29.8329   43.7232 H   0  0  0  0  0  0  0  0  0  0  0  0
   39.1796   31.4111   41.7376 H   0  0  0  0  0  0  0  0  0  0  0  0
   32.7690   28.8382   38.4438 H   0  0  0  0  0  0  0  0  0  0  0  0
   34.6352   29.2322   36.5265 H   0  0  0  0  0  0  0  0  0  0  0  0
   37.9249   27.6226   37.3622 H   0  0  0  0  0  0  0  0  0  0  0  0
   38.6222   28.7999   36.2455 H   0  0  0  0  0  0  0  0  0  0  0  0
   39.1785   28.3259   39.1795 H   0  0  0  0  0  0  0  0  0  0  0  0
   40.3261   28.6120   37.7753 H   0  0  0  0  0  0  0  0  0  0  0  0
   39.0997   30.3955   39.5661 H   0  0  0  0  0  0  0  0  0  0  0  0
   39.0083   32.2322   38.2878 H   0  0  0  0  0  0  0  0  0  0  0  0
   39.6486   31.2693   36.8656 H   0  0  0  0  0  0  0  0  0  0  0  0
   37.5463   31.1021   36.1983 H   0  0  0  0  0  0  0  0  0  0  0  0
   36.9034   31.6778   37.7762 H   0  0  0  0  0  0  0  0  0  0  0  0
  1  2  2  0
  1 18  1  0
  3  2  1  0
  4  3  2  0
  5  4  1  0
  5  6  2  0
  6  1  1  0
  7  8  1  0
  7  5  1  0
  9  8  2  0
 10 11  2  0
 10  9  1  0
 11  7  1  0
 12 11  1  0
 13 12  1  0
 13 14  1  0
 14 15  1  0
 16 15  1  0
 17 12  1  0
 17 16  1  0
 18 20  1  0
 18 19  1  0
 21 18  1  0
  2 22  1  0
  3 23  1  0
  9 24  1  0
 10 25  1  0
 13 26  1  0
 13 27  1  0
 14 28  1  0
 14 29  1  0
 15 30  1  0
 16 31  1  0
 16 32  1  0
 17 33  1  0
 17 34  1  0
M  ISO  8  22  14  23  14  24  14  25  14  26  13  27  13  28  13  29  13
M  ISO  5  30   5  31  13  32  13  33  13  34  13
M  END
>  <minimizedAffinity>  (1) 
-5.77638817

>  <minimizedRMSD>  (1) 
0.443467647

$$$$
