
     RDKit          3D

 45 48  0  0  1  0  0  0  0  0999 V2000
   40.0340   32.1480   41.1030 C   0  0  0  0  0  0  0  0  0  0  0  0
   39.6230   30.8740   41.5840 C   0  0  0  0  0  0  0  0  0  0  0  0
   38.3020   30.5360   41.4590 C   0  0  0  0  0  0  0  0  0  0  0  0
   37.4310   31.4310   40.8780 N   0  0  0  0  0  0  0  0  0  0  0  0
   37.8480   32.6390   40.4270 C   0  0  0  0  0  0  0  0  0  0  0  0
   39.1510   33.0040   40.5370 N   0  0  0  0  0  0  0  0  0  0  0  0
   36.9040   33.5190   39.8380 N   0  0  0  0  0  0  0  0  0  0  0  0
   37.8140   29.3010   41.9070 N   0  0  0  0  0  0  0  0  0  0  0  0
   37.9410   28.9350   43.2970 C   0  0  0  0  0  0  0  0  0  0  0  0
   36.8740   27.8750   43.5890 C   0  0  0  0  0  0  0  0  0  0  0  0
   36.9290   26.7330   42.7430 N   0  0  0  0  0  0  0  0  0  0  0  0
   37.4720   26.9700   41.4430 C   0  0  0  0  0  0  0  0  0  0  0  0
   37.1770   28.3770   40.9930 C   0  0  2  0  0  0  0  0  0  0  0  0
   37.4810   28.6090   39.5710 C   0  0  0  0  0  0  0  0  0  0  0  0
   36.5080   29.0700   38.6950 C   0  0  0  0  0  0  0  0  0  0  0  0
   36.7060   29.3100   37.3690 C   0  0  0  0  0  0  0  0  0  0  0  0
   37.9540   29.0660   36.9310 N   0  0  0  0  0  0  0  0  0  0  0  0
   38.9290   28.6160   37.7520 C   0  0  0  0  0  0  0  0  0  0  0  0
   38.7100   28.3840   39.0690 N   0  0  0  0  0  0  0  0  0  0  0  0
   40.2480   28.3670   37.2420 N   0  0  0  0  0  0  0  0  0  0  0  0
   41.2490   29.2600   37.1660 C   0  0  0  0  0  0  0  0  0  0  0  0
   42.4440   28.8170   36.6410 C   0  0  0  0  0  0  0  0  0  0  0  0
   42.6310   27.5270   36.2080 C   0  0  0  0  0  0  0  0  0  0  0  0
   43.8860   27.1410   35.6810 N   0  0  0  0  0  0  0  0  0  0  0  0
   41.6140   26.6340   36.2900 N   0  0  0  0  0  0  0  0  0  0  0  0
   40.4560   27.0960   36.8070 C   0  0  0  0  0  0  0  0  0  0  0  0
   39.5410   26.2200   36.8600 O   0  0  0  0  0  0  0  0  0  0  0  0
   41.0898   32.4434   41.1927 H   0  0  0  0  0  0  0  0  0  0  0  0
   40.3443   30.1815   42.0424 H   0  0  0  0  0  0  0  0  0  0  0  0
   35.9168   33.2363   39.7574 H   0  0  0  0  0  0  0  0  0  0  0  0
   37.2058   34.4406   39.4909 H   0  0  0  0  0  0  0  0  0  0  0  0
   38.9429   28.5229   43.4876 H   0  0  0  0  0  0  0  0  0  0  0  0
   37.8044   29.8135   43.9448 H   0  0  0  0  0  0  0  0  0  0  0  0
   36.9997   27.5385   44.6287 H   0  0  0  0  0  0  0  0  0  0  0  0
   35.9004   28.3530   43.4058 H   0  0  0  0  0  0  0  0  0  0  0  0
   37.5096   26.0197   43.2066 H   0  0  0  0  0  0  0  0  0  0  0  0
   38.5615   26.8213   41.4738 H   0  0  0  0  0  0  0  0  0  0  0  0
   37.0117   26.2670   40.7331 H   0  0  0  0  0  0  0  0  0  0  0  0
   36.0924   28.5548   41.0387 H   0  0  0  0  0  0  0  0  0  0  0  0
   35.5029   29.2552   39.1017 H   0  0  0  0  0  0  0  0  0  0  0  0
   35.9068   29.6752   36.7073 H   0  0  0  0  0  0  0  0  0  0  0  0
   41.1207   30.2978   37.5073 H   0  0  0  0  0  0  0  0  0  0  0  0
   43.2821   29.5255   36.5657 H   0  0  0  0  0  0  0  0  0  0  0  0
   44.6528   27.8262   35.6226 H   0  0  0  0  0  0  0  0  0  0  0  0
   44.0328   26.1748   35.3558 H   0  0  0  0  0  0  0  0  0  0  0  0
  1  2  2  0
  3  2  1  0
  3  8  1  0
  4  3  2  0
  5  6  2  0
  5  4  1  0
  6  1  1  0
  7  5  1  0
  8  9  1  0
  9 10  1  0
 11 10  1  0
 12 11  1  0
 13 12  1  0
 13  8  1  0
 14 13  1  0
 15 14  2  0
 16 15  1  0
 17 16  2  0
 17 18  1  0
 18 19  2  0
 19 14  1  0
 20 18  1  0
 21 20  1  0
 22 21  2  0
 23 25  2  0
 23 22  1  0
 24 23  1  0
 25 26  1  0
 26 27  2  0
 26 20  1  0
  1 28  1  0
  2 29  1  0
  7 30  1  0
  7 31  1  0
  9 32  1  0
  9 33  1  0
 10 34  1  0
 10 35  1  0
 11 36  1  0
 12 37  1  0
 12 38  1  0
 13 39  1  6
 15 40  1  0
 16 41  1  0
 21 42  1  0
 22 43  1  0
 24 44  1  0
 24 45  1  0
M  ISO  8  28  14  29  14  32  13  33  13  34  13  35  13  36   5  37  13
M  ISO  6  38  13  39  13  40  14  41  14  42  14  43  14
M  END
>  <minimizedAffinity>  (1) 
-6.5253334

>  <minimizedRMSD>  (1) 
1.38454342

$$$$
