
     RDKit          3D

 32 33  0  0  0  0  0  0  0  0999 V2000
   37.3420   28.7290   42.7780 C   0  0  0  0  0  0  0  0  0  0  0  0
   38.3750   29.6880   42.7590 C   0  0  0  0  0  0  0  0  0  0  0  0
   38.4780   30.5020   41.6270 C   0  0  0  0  0  0  0  0  0  0  0  0
   37.5800   30.3070   40.6410 N   0  0  0  0  0  0  0  0  0  0  0  0
   36.6020   29.3900   40.6710 C   0  0  0  0  0  0  0  0  0  0  0  0
   36.4830   28.5890   41.7600 N   0  0  0  0  0  0  0  0  0  0  0  0
   35.7110   29.2800   39.5750 N   0  0  0  0  0  0  0  0  0  0  0  0
   34.4040   29.1460   39.7920 N   0  0  0  0  0  0  0  0  0  0  0  0
   33.7090   29.0460   38.6680 C   0  0  0  0  0  0  0  0  0  0  0  0
   34.6450   29.1210   37.6500 C   0  0  0  0  0  0  0  0  0  0  0  0
   35.9070   29.2700   38.2360 C   0  0  0  0  0  0  0  0  0  0  0  0
   37.1900   27.8440   43.9670 C   0  0  0  0  0  0  0  0  0  0  0  0
   36.7660   28.5640   45.0710 F   0  0  0  0  0  0  0  0  0  0  0  0
   38.3780   27.1920   44.2550 F   0  0  0  0  0  0  0  0  0  0  0  0
   36.2170   26.9090   43.6970 F   0  0  0  0  0  0  0  0  0  0  0  0
   37.1890   29.4010   37.5220 C   0  0  0  0  0  0  0  0  0  0  0  0
   37.0670   29.1330   36.0340 C   0  0  0  0  0  0  0  0  0  0  0  0
   38.3760   28.7550   38.1560 C   0  0  0  0  0  0  0  0  0  0  0  0
   37.5150   30.9270   37.5490 C   0  0  0  0  0  0  0  0  0  0  0  0
   39.0733   29.7919   43.6025 H   0  0  0  0  0  0  0  0  0  0  0  0
   39.2605   31.2707   41.5444 H   0  0  0  0  0  0  0  0  0  0  0  0
   32.6201   28.9284   38.5654 H   0  0  0  0  0  0  0  0  0  0  0  0
   34.4338   29.0721   36.5716 H   0  0  0  0  0  0  0  0  0  0  0  0
   36.6160   28.1423   35.8756 H   0  0  0  0  0  0  0  0  0  0  0  0
   36.4308   29.9033   35.5736 H   0  0  0  0  0  0  0  0  0  0  0  0
   38.0657   29.1591   35.5736 H   0  0  0  0  0  0  0  0  0  0  0  0
   38.2807   28.8069   39.2506 H   0  0  0  0  0  0  0  0  0  0  0  0
   38.4317   27.7022   37.8423 H   0  0  0  0  0  0  0  0  0  0  0  0
   39.2904   29.2799   37.8423 H   0  0  0  0  0  0  0  0  0  0  0  0
   37.5878   31.2680   38.5923 H   0  0  0  0  0  0  0  0  0  0  0  0
   38.4718   31.1067   37.0369 H   0  0  0  0  0  0  0  0  0  0  0  0
   36.7151   31.4819   37.0369 H   0  0  0  0  0  0  0  0  0  0  0  0
  1 12  1  0
  2  1  2  0
  3  2  1  0
  4  5  1  0
  4  3  2  0
  5  6  2  0
  6  1  1  0
  7  8  1  0
  7  5  1  0
  9  8  2  0
 10 11  2  0
 10  9  1  0
 11  7  1  0
 12 14  1  0
 12 13  1  0
 15 12  1  0
 16 19  1  0
 16 18  1  0
 16 11  1  0
 17 16  1  0
  2 20  1  0
  3 21  1  0
  9 22  1  0
 10 23  1  0
 17 24  1  0
 17 25  1  0
 17 26  1  0
 18 27  1  0
 18 28  1  0
 18 29  1  0
 19 30  1  0
 19 31  1  0
 19 32  1  0
M  ISO  8  20  14  21  14  22  14  23  14  24   8  25   8  26   8  27   8
M  ISO  5  28   8  29   8  30   8  31   8  32   8
M  END
>  <minimizedAffinity>  (1) 
-5.65291309

>  <minimizedRMSD>  (1) 
0.411656082

$$$$
