
     RDKit          3D

 30 32  0  0  0  0  0  0  0  0999 V2000
   37.7800   28.7550   42.7680 C   0  0  0  0  0  0  0  0  0  0  0  0
   38.7120   29.7750   43.0820 C   0  0  0  0  0  0  0  0  0  0  0  0
   38.9800   30.7400   42.1100 C   0  0  0  0  0  0  0  0  0  0  0  0
   38.3270   30.6350   40.9290 N   0  0  0  0  0  0  0  0  0  0  0  0
   37.4470   29.6600   40.6520 C   0  0  0  0  0  0  0  0  0  0  0  0
   37.1760   28.7160   41.5820 N   0  0  0  0  0  0  0  0  0  0  0  0
   36.8070   29.6250   39.3800 N   0  0  0  0  0  0  0  0  0  0  0  0
   35.5380   29.3280   39.2500 N   0  0  0  0  0  0  0  0  0  0  0  0
   35.1460   29.3530   37.9780 C   0  0  0  0  0  0  0  0  0  0  0  0
   36.2540   29.6940   37.2410 C   0  0  0  0  0  0  0  0  0  0  0  0
   37.2780   29.8600   38.1390 C   0  0  0  0  0  0  0  0  0  0  0  0
   38.6800   30.2260   37.8910 C   0  0  0  0  0  0  0  0  0  0  0  0
   39.6760   29.2570   37.8030 C   0  0  0  0  0  0  0  0  0  0  0  0
   40.9930   29.6220   37.5680 C   0  0  0  0  0  0  0  0  0  0  0  0
   41.2950   30.9570   37.4250 C   0  0  0  0  0  0  0  0  0  0  0  0
   40.3310   31.9340   37.5090 C   0  0  0  0  0  0  0  0  0  0  0  0
   39.0050   31.5620   37.7450 C   0  0  0  0  0  0  0  0  0  0  0  0
   37.4740   27.7180   43.7770 C   0  0  0  0  0  0  0  0  0  0  0  0
   36.8300   28.2650   44.8750 F   0  0  0  0  0  0  0  0  0  0  0  0
   38.6270   27.0640   44.1930 F   0  0  0  0  0  0  0  0  0  0  0  0
   36.6050   26.8090   43.2150 F   0  0  0  0  0  0  0  0  0  0  0  0
   39.2095   29.8054   44.0626 H   0  0  0  0  0  0  0  0  0  0  0  0
   39.6948   31.5550   42.2966 H   0  0  0  0  0  0  0  0  0  0  0  0
   34.1369   29.1427   37.5940 H   0  0  0  0  0  0  0  0  0  0  0  0
   36.3093   29.8107   36.1486 H   0  0  0  0  0  0  0  0  0  0  0  0
   39.4163   28.1946   37.9207 H   0  0  0  0  0  0  0  0  0  0  0  0
   41.7818   28.8586   37.4972 H   0  0  0  0  0  0  0  0  0  0  0  0
   42.3383   31.2512   37.2380 H   0  0  0  0  0  0  0  0  0  0  0  0
   40.6001   32.9941   37.3920 H   0  0  0  0  0  0  0  0  0  0  0  0
   38.2211   32.3306   37.8145 H   0  0  0  0  0  0  0  0  0  0  0  0
  1  2  2  0
  1 18  1  0
  3  2  1  0
  4  3  2  0
  5  4  1  0
  5  6  2  0
  6  1  1  0
  7  5  1  0
  8  7  1  0
  9  8  2  0
 10  9  1  0
 10 11  2  0
 11  7  1  0
 12 11  1  0
 13 12  2  0
 14 13  1  0
 15 16  1  0
 15 14  2  0
 16 17  2  0
 17 12  1  0
 18 20  1  0
 18 19  1  0
 21 18  1  0
  2 22  1  0
  3 23  1  0
  9 24  1  0
 10 25  1  0
 13 26  1  0
 14 27  1  0
 15 28  1  0
 16 29  1  0
 17 30  1  0
M  ISO  8  22  14  23  14  24  14  25  14  26  14  27  14  28  14  29  14
M  ISO  1  30  14
M  END
>  <minimizedAffinity>  (1) 
-5.58711243

>  <minimizedRMSD>  (1) 
1.19425166

$$$$
