
     RDKit          3D

 30 32  0  0  0  0  0  0  0  0999 V2000
   37.7830   28.7590   42.7540 C   0  0  0  0  0  0  0  0  0  0  0  0
   38.6930   29.7860   43.0800 C   0  0  0  0  0  0  0  0  0  0  0  0
   38.9500   30.7580   42.1040 C   0  0  0  0  0  0  0  0  0  0  0  0
   38.3040   30.6410   40.9120 N   0  0  0  0  0  0  0  0  0  0  0  0
   37.4430   29.6440   40.6420 C   0  0  0  0  0  0  0  0  0  0  0  0
   37.1750   28.6980   41.5540 N   0  0  0  0  0  0  0  0  0  0  0  0
   36.8220   29.6230   39.3540 N   0  0  0  0  0  0  0  0  0  0  0  0
   35.5350   29.3210   39.2360 N   0  0  0  0  0  0  0  0  0  0  0  0
   35.1460   29.3550   37.9570 C   0  0  0  0  0  0  0  0  0  0  0  0
   36.2430   29.6970   37.2180 C   0  0  0  0  0  0  0  0  0  0  0  0
   37.2680   29.8570   38.1110 C   0  0  0  0  0  0  0  0  0  0  0  0
   38.6620   30.2190   37.8790 C   0  0  0  0  0  0  0  0  0  0  0  0
   39.6180   29.2290   37.7900 C   0  0  0  0  0  0  0  0  0  0  0  0
   40.9430   29.5440   37.5700 C   0  0  0  0  0  0  0  0  0  0  0  0
   41.2900   30.8850   37.4430 C   0  0  0  0  0  0  0  0  0  0  0  0
   40.3560   31.9080   37.5270 C   0  0  0  0  0  0  0  0  0  0  0  0
   39.0270   31.5470   37.7490 C   0  0  0  0  0  0  0  0  0  0  0  0
   37.4890   27.7150   43.7620 C   0  0  0  0  0  0  0  0  0  0  0  0
   36.8530   28.2460   44.8680 F   0  0  0  0  0  0  0  0  0  0  0  0
   38.6520   27.0520   44.1450 F   0  0  0  0  0  0  0  0  0  0  0  0
   36.6170   26.7940   43.1950 F   0  0  0  0  0  0  0  0  0  0  0  0
   39.1829   29.8226   44.0642 H   0  0  0  0  0  0  0  0  0  0  0  0
   39.6488   31.5859   42.2945 H   0  0  0  0  0  0  0  0  0  0  0  0
   34.1362   29.1474   37.5734 H   0  0  0  0  0  0  0  0  0  0  0  0
   36.2925   29.8191   36.1259 H   0  0  0  0  0  0  0  0  0  0  0  0
   39.3204   28.1753   37.8957 H   0  0  0  0  0  0  0  0  0  0  0  0
   41.7057   28.7547   37.4969 H   0  0  0  0  0  0  0  0  0  0  0  0
   42.3448   31.1445   37.2694 H   0  0  0  0  0  0  0  0  0  0  0  0
   40.6521   32.9622   37.4226 H   0  0  0  0  0  0  0  0  0  0  0  0
   38.2578   32.3299   37.8218 H   0  0  0  0  0  0  0  0  0  0  0  0
  1  2  2  0
  1 18  1  0
  3  2  1  0
  4  3  2  0
  5  4  1  0
  5  6  2  0
  6  1  1  0
  7  5  1  0
  8  7  1  0
  9  8  2  0
 10  9  1  0
 10 11  2  0
 11  7  1  0
 12 11  1  0
 13 12  2  0
 14 13  1  0
 15 16  1  0
 15 14  2  0
 16 17  2  0
 17 12  1  0
 18 20  1  0
 18 19  1  0
 21 18  1  0
  2 22  1  0
  3 23  1  0
  9 24  1  0
 10 25  1  0
 13 26  1  0
 14 27  1  0
 15 28  1  0
 16 29  1  0
 17 30  1  0
M  ISO  8  22  14  23  14  24  14  25  14  26  14  27  14  28  14  29  14
M  ISO  1  30  14
M  END
>  <minimizedAffinity>  (1) 
-5.54862595

>  <minimizedRMSD>  (1) 
1.2262851

$$$$
