
     RDKit          3D

 23 24  0  0  0  0  0  0  0  0999 V2000
   37.3580   28.7100   42.8350 C   0  0  0  0  0  0  0  0  0  0  0  0
   38.4080   29.6710   42.8190 C   0  0  0  0  0  0  0  0  0  0  0  0
   38.5340   30.4800   41.6890 C   0  0  0  0  0  0  0  0  0  0  0  0
   37.6520   30.2990   40.6800 N   0  0  0  0  0  0  0  0  0  0  0  0
   36.6630   29.3810   40.7150 C   0  0  0  0  0  0  0  0  0  0  0  0
   36.5120   28.5790   41.7980 N   0  0  0  0  0  0  0  0  0  0  0  0
   35.7920   29.2720   39.6050 N   0  0  0  0  0  0  0  0  0  0  0  0
   34.4930   29.1030   39.7680 N   0  0  0  0  0  0  0  0  0  0  0  0
   33.8300   29.0230   38.6220 C   0  0  0  0  0  0  0  0  0  0  0  0
   34.7720   29.1480   37.6400 C   0  0  0  0  0  0  0  0  0  0  0  0
   35.9720   29.3010   38.2810 C   0  0  0  0  0  0  0  0  0  0  0  0
   37.1860   27.8300   44.0160 C   0  0  0  0  0  0  0  0  0  0  0  0
   36.7570   28.5590   45.1090 F   0  0  0  0  0  0  0  0  0  0  0  0
   38.3810   27.1670   44.3020 F   0  0  0  0  0  0  0  0  0  0  0  0
   36.2120   26.9050   43.7250 F   0  0  0  0  0  0  0  0  0  0  0  0
   37.3190   29.4790   37.6720 C   0  0  0  0  0  0  0  0  0  0  0  0
   38.2100   28.5830   38.2770 F   0  0  0  0  0  0  0  0  0  0  0  0
   37.7700   30.7800   37.9320 F   0  0  0  0  0  0  0  0  0  0  0  0
   37.3620   29.1930   36.3360 F   0  0  0  0  0  0  0  0  0  0  0  0
   39.0977   29.7726   43.6698 H   0  0  0  0  0  0  0  0  0  0  0  0
   39.3256   31.2408   41.6211 H   0  0  0  0  0  0  0  0  0  0  0  0
   32.7468   28.8847   38.4896 H   0  0  0  0  0  0  0  0  0  0  0  0
   34.6007   29.1294   36.5536 H   0  0  0  0  0  0  0  0  0  0  0  0
  1 12  1  0
  2  1  2  0
  3  2  1  0
  4  5  1  0
  4  3  2  0
  5  6  2  0
  6  1  1  0
  7  8  1  0
  7  5  1  0
  9  8  2  0
 10 11  2  0
 10  9  1  0
 11  7  1  0
 12 14  1  0
 12 13  1  0
 15 12  1  0
 16 18  1  0
 16 17  1  0
 16 11  1  0
 19 16  1  0
  2 20  1  0
  3 21  1  0
  9 22  1  0
 10 23  1  0
M  ISO  4  20  14  21  14  22  14  23  14
M  END
>  <minimizedAffinity>  (1) 
-5.49958134

>  <minimizedRMSD>  (1) 
0.259735525

$$$$
