
     RDKit          3D

 28 30  0  0  0  0  0  0  0  0999 V2000
   37.8590   28.7700   42.7250 C   0  0  0  0  0  0  0  0  0  0  0  0
   38.7610   29.8060   43.0990 C   0  0  0  0  0  0  0  0  0  0  0  0
   39.0490   30.7830   42.1540 C   0  0  0  0  0  0  0  0  0  0  0  0
   38.4550   30.6900   40.9360 N   0  0  0  0  0  0  0  0  0  0  0  0
   37.5980   29.6920   40.6010 C   0  0  0  0  0  0  0  0  0  0  0  0
   37.3090   28.7330   41.5130 N   0  0  0  0  0  0  0  0  0  0  0  0
   37.0270   29.6860   39.3100 N   0  0  0  0  0  0  0  0  0  0  0  0
   35.7350   29.4100   39.1470 N   0  0  0  0  0  0  0  0  0  0  0  0
   35.3790   29.4570   37.8640 C   0  0  0  0  0  0  0  0  0  0  0  0
   36.5210   29.7850   37.1590 C   0  0  0  0  0  0  0  0  0  0  0  0
   37.5130   29.9170   38.0900 C   0  0  0  0  0  0  0  0  0  0  0  0
   38.9040   30.2530   37.8210 C   0  0  0  0  0  0  0  0  0  0  0  0
   39.2530   31.5850   37.6450 C   0  0  0  0  0  0  0  0  0  0  0  0
   40.4990   32.0820   37.3870 C   0  0  0  0  0  0  0  0  0  0  0  0
   41.4980   31.1640   37.2960 N   0  0  0  0  0  0  0  0  0  0  0  0
   41.1940   29.8450   37.4640 C   0  0  0  0  0  0  0  0  0  0  0  0
   39.9440   29.4300   37.7150 N   0  0  0  0  0  0  0  0  0  0  0  0
   37.5290   27.7130   43.7100 C   0  0  0  0  0  0  0  0  0  0  0  0
   36.8700   28.2430   44.8080 F   0  0  0  0  0  0  0  0  0  0  0  0
   38.6720   27.0420   44.1240 F   0  0  0  0  0  0  0  0  0  0  0  0
   36.6600   26.8210   43.1140 F   0  0  0  0  0  0  0  0  0  0  0  0
   39.2141   29.8321   44.1010 H   0  0  0  0  0  0  0  0  0  0  0  0
   39.7384   31.6083   42.3856 H   0  0  0  0  0  0  0  0  0  0  0  0
   34.3771   29.2719   37.4493 H   0  0  0  0  0  0  0  0  0  0  0  0
   36.6131   29.9137   36.0704 H   0  0  0  0  0  0  0  0  0  0  0  0
   38.4380   32.3198   37.7216 H   0  0  0  0  0  0  0  0  0  0  0  0
   40.6830   33.1591   37.2606 H   0  0  0  0  0  0  0  0  0  0  0  0
   41.9990   29.0989   37.3913 H   0  0  0  0  0  0  0  0  0  0  0  0
  1  2  2  0
  1 18  1  0
  3  2  1  0
  4  3  2  0
  5  4  1  0
  5  6  2  0
  6  1  1  0
  7  5  1  0
  8  7  1  0
  9  8  2  0
 10  9  1  0
 10 11  2  0
 11  7  1  0
 12 11  1  0
 13 12  2  0
 14 13  1  0
 15 14  2  0
 15 16  1  0
 16 17  2  0
 17 12  1  0
 18 20  1  0
 18 19  1  0
 21 18  1  0
  2 22  1  0
  3 23  1  0
  9 24  1  0
 10 25  1  0
 13 26  1  0
 14 27  1  0
 16 28  1  0
M  ISO  7  22  14  23  14  24  14  25  14  26  14  27  14  28  14
M  END
>  <minimizedAffinity>  (1) 
-5.49726772

>  <minimizedRMSD>  (1) 
1.4260602

$$$$
