
     RDKit          3D

 28 30  0  0  0  0  0  0  0  0999 V2000
   37.8810   28.7700   42.7250 C   0  0  0  0  0  0  0  0  0  0  0  0
   38.7630   29.8010   43.0950 C   0  0  0  0  0  0  0  0  0  0  0  0
   39.0540   30.7970   42.1550 C   0  0  0  0  0  0  0  0  0  0  0  0
   38.4520   30.6840   40.9460 N   0  0  0  0  0  0  0  0  0  0  0  0
   37.6100   29.6950   40.6050 C   0  0  0  0  0  0  0  0  0  0  0  0
   37.3200   28.7250   41.5080 N   0  0  0  0  0  0  0  0  0  0  0  0
   37.0400   29.6920   39.3140 N   0  0  0  0  0  0  0  0  0  0  0  0
   35.7460   29.4170   39.1510 N   0  0  0  0  0  0  0  0  0  0  0  0
   35.3900   29.4640   37.8660 C   0  0  0  0  0  0  0  0  0  0  0  0
   36.5130   29.7870   37.1620 C   0  0  0  0  0  0  0  0  0  0  0  0
   37.5160   29.9210   38.0910 C   0  0  0  0  0  0  0  0  0  0  0  0
   38.9070   30.2580   37.8210 C   0  0  0  0  0  0  0  0  0  0  0  0
   39.2510   31.5910   37.6470 C   0  0  0  0  0  0  0  0  0  0  0  0
   40.4980   32.0790   37.3890 C   0  0  0  0  0  0  0  0  0  0  0  0
   41.5030   31.1610   37.2950 N   0  0  0  0  0  0  0  0  0  0  0  0
   41.2040   29.8410   37.4600 C   0  0  0  0  0  0  0  0  0  0  0  0
   39.9520   29.4240   37.7130 N   0  0  0  0  0  0  0  0  0  0  0  0
   37.5480   27.6970   43.7000 C   0  0  0  0  0  0  0  0  0  0  0  0
   36.8610   28.2090   44.7920 F   0  0  0  0  0  0  0  0  0  0  0  0
   38.7060   27.0680   44.1380 F   0  0  0  0  0  0  0  0  0  0  0  0
   36.7230   26.7870   43.0870 F   0  0  0  0  0  0  0  0  0  0  0  0
   39.2132   29.8243   44.0984 H   0  0  0  0  0  0  0  0  0  0  0  0
   39.7362   31.6285   42.3859 H   0  0  0  0  0  0  0  0  0  0  0  0
   34.3868   29.2785   37.4546 H   0  0  0  0  0  0  0  0  0  0  0  0
   36.5980   29.9142   36.0727 H   0  0  0  0  0  0  0  0  0  0  0  0
   38.4372   32.3270   37.7249 H   0  0  0  0  0  0  0  0  0  0  0  0
   40.6838   33.1559   37.2633 H   0  0  0  0  0  0  0  0  0  0  0  0
   42.0103   29.0966   37.3839 H   0  0  0  0  0  0  0  0  0  0  0  0
  1  2  2  0
  1 18  1  0
  3  2  1  0
  4  3  2  0
  5  4  1  0
  5  6  2  0
  6  1  1  0
  7  5  1  0
  8  7  1  0
  9  8  2  0
 10  9  1  0
 10 11  2  0
 11  7  1  0
 12 11  1  0
 13 12  2  0
 14 13  1  0
 15 14  2  0
 15 16  1  0
 16 17  2  0
 17 12  1  0
 18 20  1  0
 18 19  1  0
 21 18  1  0
  2 22  1  0
  3 23  1  0
  9 24  1  0
 10 25  1  0
 13 26  1  0
 14 27  1  0
 16 28  1  0
M  ISO  7  22  14  23  14  24  14  25  14  26  14  27  14  28  14
M  END
>  <minimizedAffinity>  (1) 
-5.48810101

>  <minimizedRMSD>  (1) 
1.55930197

$$$$
