
     RDKit          3D

 26 27  0  0  0  0  0  0  0  0999 V2000
   37.3580   28.7020   42.8580 C   0  0  0  0  0  0  0  0  0  0  0  0
   38.4120   29.6530   42.8540 C   0  0  0  0  0  0  0  0  0  0  0  0
   38.5410   30.4640   41.7200 C   0  0  0  0  0  0  0  0  0  0  0  0
   37.6610   30.2950   40.7070 N   0  0  0  0  0  0  0  0  0  0  0  0
   36.6610   29.3770   40.7400 C   0  0  0  0  0  0  0  0  0  0  0  0
   36.5140   28.5780   41.8260 N   0  0  0  0  0  0  0  0  0  0  0  0
   35.7900   29.2740   39.6320 N   0  0  0  0  0  0  0  0  0  0  0  0
   34.4810   29.1090   39.8040 N   0  0  0  0  0  0  0  0  0  0  0  0
   33.8310   29.0340   38.6450 C   0  0  0  0  0  0  0  0  0  0  0  0
   34.7750   29.1580   37.6660 C   0  0  0  0  0  0  0  0  0  0  0  0
   35.9810   29.3070   38.3110 C   0  0  0  0  0  0  0  0  0  0  0  0
   37.1860   27.8210   44.0400 C   0  0  0  0  0  0  0  0  0  0  0  0
   36.7560   28.5430   45.1420 F   0  0  0  0  0  0  0  0  0  0  0  0
   38.3730   27.1610   44.3350 F   0  0  0  0  0  0  0  0  0  0  0  0
   36.2040   26.8970   43.7510 F   0  0  0  0  0  0  0  0  0  0  0  0
   37.3020   29.4760   37.6980 C   0  0  0  0  0  0  0  0  0  0  0  0
   37.4580   30.8900   37.1380 C   0  0  0  0  0  0  0  0  0  0  0  0
   39.0995   29.7488   43.7073 H   0  0  0  0  0  0  0  0  0  0  0  0
   39.3379   31.2195   41.6546 H   0  0  0  0  0  0  0  0  0  0  0  0
   32.7485   28.8990   38.5037 H   0  0  0  0  0  0  0  0  0  0  0  0
   34.6051   29.1420   36.5793 H   0  0  0  0  0  0  0  0  0  0  0  0
   38.0782   29.3002   38.4574 H   0  0  0  0  0  0  0  0  0  0  0  0
   37.4057   28.7546   36.8741 H   0  0  0  0  0  0  0  0  0  0  0  0
   37.5371   31.6067   37.9687 H   0  0  0  0  0  0  0  0  0  0  0  0
   38.3673   30.9418   36.5212 H   0  0  0  0  0  0  0  0  0  0  0  0
   36.5819   31.1388   36.5212 H   0  0  0  0  0  0  0  0  0  0  0  0
  1 12  1  0
  2  1  2  0
  3  2  1  0
  4  5  1  0
  4  3  2  0
  5  6  2  0
  6  1  1  0
  7  8  1  0
  7  5  1  0
  9  8  2  0
 10 11  2  0
 10  9  1  0
 11  7  1  0
 12 14  1  0
 12 13  1  0
 15 12  1  0
 16 11  1  0
 17 16  1  0
  2 18  1  0
  3 19  1  0
  9 20  1  0
 10 21  1  0
 16 22  1  0
 16 23  1  0
 17 24  1  0
 17 25  1  0
 17 26  1  0
M  ISO  8  18  14  19  14  20  14  21  14  22   8  23   8  24   8  25   8
M  ISO  1  26   8
M  END
>  <minimizedAffinity>  (1) 
-5.34313059

>  <minimizedRMSD>  (1) 
0.509153306

$$$$
