
     RDKit          3D

 48 52  0  0  1  0  0  0  0  0999 V2000
   40.1870   32.3170   40.7700 C   0  0  0  0  0  0  0  0  0  0  0  0
   39.7880   31.0680   41.3210 C   0  0  0  0  0  0  0  0  0  0  0  0
   38.4470   30.7760   41.3450 C   0  0  0  0  0  0  0  0  0  0  0  0
   37.5480   31.6900   40.8410 N   0  0  0  0  0  0  0  0  0  0  0  0
   37.9540   32.8730   40.3210 C   0  0  0  0  0  0  0  0  0  0  0  0
   39.2790   33.1910   40.2840 N   0  0  0  0  0  0  0  0  0  0  0  0
   36.9730   33.7780   39.8180 N   0  0  0  0  0  0  0  0  0  0  0  0
   37.9690   29.5650   41.8720 N   0  0  0  0  0  0  0  0  0  0  0  0
   38.2390   29.2230   43.2460 C   0  0  0  0  0  0  0  0  0  0  0  0
   37.1840   28.2050   43.6740 C   0  0  0  0  0  0  0  0  0  0  0  0
   37.1330   27.0370   42.8560 N   0  0  0  0  0  0  0  0  0  0  0  0
   37.5290   27.2380   41.5010 C   0  0  0  0  0  0  0  0  0  0  0  0
   37.2030   28.6440   41.0590 C   0  0  2  0  0  0  0  0  0  0  0  0
   37.3550   28.8430   39.6010 C   0  0  0  0  0  0  0  0  0  0  0  0
   36.2860   29.2190   38.8070 C   0  0  0  0  0  0  0  0  0  0  0  0
   36.3740   29.4130   37.4650 C   0  0  0  0  0  0  0  0  0  0  0  0
   37.5700   29.2200   36.9290 N   0  0  0  0  0  0  0  0  0  0  0  0
   38.6420   28.8580   37.6400 C   0  0  0  0  0  0  0  0  0  0  0  0
   38.5230   28.6730   38.9680 N   0  0  0  0  0  0  0  0  0  0  0  0
   40.0360   28.6030   37.2340 C   0  0  0  0  0  0  0  0  0  0  0  0
   40.5490   27.3810   36.9260 N   0  0  0  0  0  0  0  0  0  0  0  0
   41.8060   27.1540   36.5630 C   0  0  0  0  0  0  0  0  0  0  0  0
   42.7070   28.1440   36.4630 N   0  0  0  0  0  0  0  0  0  0  0  0
   42.3010   29.3740   36.7440 C   0  0  0  0  0  0  0  0  0  0  0  0
   43.2290   30.3890   36.6420 C   0  0  0  0  0  0  0  0  0  0  0  0
   42.8830   31.6950   36.9190 C   0  0  0  0  0  0  0  0  0  0  0  0
   41.5590   31.9380   37.3030 C   0  0  0  0  0  0  0  0  0  0  0  0
   40.6800   30.8830   37.3860 C   0  0  0  0  0  0  0  0  0  0  0  0
   40.9950   29.5790   37.1180 C   0  0  0  0  0  0  0  0  0  0  0  0
   41.2556   32.5762   40.7390 H   0  0  0  0  0  0  0  0  0  0  0  0
   40.5304   30.3586   41.7154 H   0  0  0  0  0  0  0  0  0  0  0  0
   37.2630   34.6822   39.4189 H   0  0  0  0  0  0  0  0  0  0  0  0
   35.9746   33.5274   39.8539 H   0  0  0  0  0  0  0  0  0  0  0  0
   39.2438   28.7843   43.3347 H   0  0  0  0  0  0  0  0  0  0  0  0
   38.2008   30.1171   43.8856 H   0  0  0  0  0  0  0  0  0  0  0  0
   37.4032   27.8941   44.7061 H   0  0  0  0  0  0  0  0  0  0  0  0
   36.2074   28.7019   43.5771 H   0  0  0  0  0  0  0  0  0  0  0  0
   37.7555   26.3285   43.2700 H   0  0  0  0  0  0  0  0  0  0  0  0
   38.6128   27.0725   41.4121 H   0  0  0  0  0  0  0  0  0  0  0  0
   36.9838   26.5282   40.8615 H   0  0  0  0  0  0  0  0  0  0  0  0
   36.1345   28.8466   41.2243 H   0  0  0  0  0  0  0  0  0  0  0  0
   35.3091   29.3695   39.2898 H   0  0  0  0  0  0  0  0  0  0  0  0
   35.5050   29.7121   36.8605 H   0  0  0  0  0  0  0  0  0  0  0  0
   42.1183   26.1237   36.3375 H   0  0  0  0  0  0  0  0  0  0  0  0
   44.2590   30.1538   36.3356 H   0  0  0  0  0  0  0  0  0  0  0  0
   43.6164   32.5111   36.8415 H   0  0  0  0  0  0  0  0  0  0  0  0
   41.2255   32.9601   37.5356 H   0  0  0  0  0  0  0  0  0  0  0  0
   39.6465   31.1045   37.6907 H   0  0  0  0  0  0  0  0  0  0  0  0
  1  2  2  0
  2  3  1  0
  3  8  1  0
  4  3  2  0
  5  4  1  0
  6  5  2  0
  6  1  1  0
  7  5  1  0
  8  9  1  0
  9 10  1  0
 11 10  1  0
 12 11  1  0
 13 12  1  0
 13  8  1  0
 14 13  1  0
 15 14  2  0
 16 15  1  0
 17 16  2  0
 17 18  1  0
 18 19  2  0
 19 14  1  0
 20 18  1  0
 21 20  2  0
 22 21  1  0
 23 22  2  0
 23 24  1  0
 24 29  2  0
 25 24  1  0
 25 26  2  0
 26 27  1  0
 27 28  2  0
 29 20  1  0
 29 28  1  0
  1 30  1  0
  2 31  1  0
  7 32  1  0
  7 33  1  0
  9 34  1  0
  9 35  1  0
 10 36  1  0
 10 37  1  0
 11 38  1  0
 12 39  1  0
 12 40  1  0
 13 41  1  1
 15 42  1  0
 16 43  1  0
 22 44  1  0
 25 45  1  0
 26 46  1  0
 27 47  1  0
 28 48  1  0
M  ISO  8  30  14  31  14  34  13  35  13  36  13  37  13  38   5  39  13
M  ISO  8  40  13  41  13  42  14  43  14  44  14  45  14  46  14  47  14
M  ISO  1  48  14
M  END
>  <minimizedAffinity>  (1) 
-6.49010372

>  <minimizedRMSD>  (1) 
1.61434019

$$$$
