
     RDKit          3D

 27 29  0  0  0  0  0  0  0  0999 V2000
   37.3650   28.6560   43.0490 C   0  0  0  0  0  0  0  0  0  0  0  0
   38.4540   29.5600   43.0990 C   0  0  0  0  0  0  0  0  0  0  0  0
   38.7000   30.3390   41.9750 C   0  0  0  0  0  0  0  0  0  0  0  0
   37.8790   30.1830   40.9000 N   0  0  0  0  0  0  0  0  0  0  0  0
   36.8410   29.3050   40.8860 C   0  0  0  0  0  0  0  0  0  0  0  0
   36.5900   28.5440   41.9630 N   0  0  0  0  0  0  0  0  0  0  0  0
   36.0460   29.2180   39.7150 N   0  0  0  0  0  0  0  0  0  0  0  0
   34.7280   29.1100   39.8090 N   0  0  0  0  0  0  0  0  0  0  0  0
   34.1590   29.0410   38.6000 C   0  0  0  0  0  0  0  0  0  0  0  0
   35.1860   29.1130   37.6770 C   0  0  0  0  0  0  0  0  0  0  0  0
   36.3540   29.2230   38.4030 C   0  0  0  0  0  0  0  0  0  0  0  0
   37.7080   29.3300   37.9690 N   0  0  0  0  0  0  0  0  0  0  0  0
   38.5940   30.2760   37.7210 N   0  0  0  0  0  0  0  0  0  0  0  0
   39.7510   29.7310   37.3250 C   0  0  0  0  0  0  0  0  0  0  0  0
   39.5960   28.3480   37.3190 C   0  0  0  0  0  0  0  0  0  0  0  0
   38.2950   28.1210   37.7300 C   0  0  0  0  0  0  0  0  0  0  0  0
   37.0740   27.8040   44.2390 C   0  0  0  0  0  0  0  0  0  0  0  0
   36.6420   28.5770   45.3090 F   0  0  0  0  0  0  0  0  0  0  0  0
   38.2010   27.0720   44.6050 F   0  0  0  0  0  0  0  0  0  0  0  0
   36.0560   26.9280   43.9030 F   0  0  0  0  0  0  0  0  0  0  0  0
   39.0837   29.6427   43.9971 H   0  0  0  0  0  0  0  0  0  0  0  0
   39.5315   31.0588   41.9543 H   0  0  0  0  0  0  0  0  0  0  0  0
   33.0849   28.9457   38.3829 H   0  0  0  0  0  0  0  0  0  0  0  0
   35.0907   29.0876   36.5814 H   0  0  0  0  0  0  0  0  0  0  0  0
   40.6642   30.2802   37.0522 H   0  0  0  0  0  0  0  0  0  0  0  0
   40.3492   27.5945   37.0452 H   0  0  0  0  0  0  0  0  0  0  0  0
   37.8165   27.1372   37.8444 H   0  0  0  0  0  0  0  0  0  0  0  0
  1  2  2  0
  1 17  1  0
  3  2  1  0
  4  3  2  0
  5  4  1  0
  5  6  2  0
  6  1  1  0
  7  8  1  0
  7  5  1  0
  9  8  2  0
 10 11  2  0
 10  9  1  0
 11  7  1  0
 12 11  1  0
 13 12  1  0
 14 13  2  0
 15 14  1  0
 15 16  2  0
 16 12  1  0
 17 19  1  0
 17 18  1  0
 20 17  1  0
  2 21  1  0
  3 22  1  0
  9 23  1  0
 10 24  1  0
 14 25  1  0
 15 26  1  0
 16 27  1  0
M  ISO  7  21  14  22  14  23  14  24  14  25  14  26  14  27  14
M  END
>  <minimizedAffinity>  (1) 
-5.31727028

>  <minimizedRMSD>  (1) 
0.321414948

$$$$
