
     RDKit          3D

 26 28  0  0  0  0  0  0  0  0999 V2000
   37.8220   28.7590   42.7330 C   0  0  0  0  0  0  0  0  0  0  0  0
   38.7490   29.7610   43.1120 C   0  0  0  0  0  0  0  0  0  0  0  0
   39.0780   30.7340   42.1600 C   0  0  0  0  0  0  0  0  0  0  0  0
   38.4860   30.6530   40.9380 N   0  0  0  0  0  0  0  0  0  0  0  0
   37.6060   29.6870   40.6070 C   0  0  0  0  0  0  0  0  0  0  0  0
   37.2850   28.7460   41.5190 N   0  0  0  0  0  0  0  0  0  0  0  0
   37.0440   29.6900   39.3100 N   0  0  0  0  0  0  0  0  0  0  0  0
   35.7630   29.4020   39.1190 N   0  0  0  0  0  0  0  0  0  0  0  0
   35.4090   29.4520   37.8410 C   0  0  0  0  0  0  0  0  0  0  0  0
   36.5420   29.7980   37.1480 C   0  0  0  0  0  0  0  0  0  0  0  0
   37.5250   29.9340   38.0870 C   0  0  0  0  0  0  0  0  0  0  0  0
   38.8870   30.2840   37.8750 N   0  0  0  0  0  0  0  0  0  0  0  0
   39.1670   31.6000   37.6430 C   0  0  0  0  0  0  0  0  0  0  0  0
   40.4900   31.7730   37.4630 N   0  0  0  0  0  0  0  0  0  0  0  0
   41.0080   30.5210   37.5940 C   0  0  0  0  0  0  0  0  0  0  0  0
   40.0350   29.6260   37.8430 N   0  0  0  0  0  0  0  0  0  0  0  0
   37.4490   27.7130   43.7110 C   0  0  0  0  0  0  0  0  0  0  0  0
   36.5990   26.7830   43.1650 F   0  0  0  0  0  0  0  0  0  0  0  0
   36.8580   28.2900   44.8420 F   0  0  0  0  0  0  0  0  0  0  0  0
   38.6040   27.0500   44.1030 F   0  0  0  0  0  0  0  0  0  0  0  0
   39.1943   29.7743   44.1177 H   0  0  0  0  0  0  0  0  0  0  0  0
   39.7920   31.5377   42.3929 H   0  0  0  0  0  0  0  0  0  0  0  0
   34.4108   29.2560   37.4224 H   0  0  0  0  0  0  0  0  0  0  0  0
   36.6386   29.9371   36.0611 H   0  0  0  0  0  0  0  0  0  0  0  0
   38.4179   32.4048   37.6081 H   0  0  0  0  0  0  0  0  0  0  0  0
   42.0766   30.2747   37.5080 H   0  0  0  0  0  0  0  0  0  0  0  0
  1  2  2  0
  1 17  1  0
  3  2  1  0
  4  3  2  0
  5  4  1  0
  5  6  2  0
  6  1  1  0
  7  5  1  0
  8  7  1  0
  9  8  2  0
 10  9  1  0
 10 11  2  0
 11  7  1  0
 12 11  1  0
 13 12  1  0
 14 15  1  0
 14 13  2  0
 15 16  2  0
 16 12  1  0
 17 20  1  0
 17 19  1  0
 18 17  1  0
  2 21  1  0
  3 22  1  0
  9 23  1  0
 10 24  1  0
 13 25  1  0
 15 26  1  0
M  ISO  6  21  14  22  14  23  14  24  14  25  14  26  14
M  END
>  <minimizedAffinity>  (1) 
-5.30860043

>  <minimizedRMSD>  (1) 
1.71015811

$$$$
