
     RDKit          3D

 23 24  0  0  0  0  0  0  0  0999 V2000
   37.3570   28.7110   42.8450 C   0  0  0  0  0  0  0  0  0  0  0  0
   38.4130   29.6550   42.8430 C   0  0  0  0  0  0  0  0  0  0  0  0
   38.5600   30.4610   41.7110 C   0  0  0  0  0  0  0  0  0  0  0  0
   37.6890   30.2930   40.6880 N   0  0  0  0  0  0  0  0  0  0  0  0
   36.6890   29.3790   40.7250 C   0  0  0  0  0  0  0  0  0  0  0  0
   36.5400   28.6020   41.8050 N   0  0  0  0  0  0  0  0  0  0  0  0
   35.8200   29.2750   39.5970 N   0  0  0  0  0  0  0  0  0  0  0  0
   34.5250   29.0900   39.7600 N   0  0  0  0  0  0  0  0  0  0  0  0
   33.8710   29.0170   38.6060 C   0  0  0  0  0  0  0  0  0  0  0  0
   34.8260   29.1670   37.6260 C   0  0  0  0  0  0  0  0  0  0  0  0
   36.0370   29.3260   38.2780 C   0  0  0  0  0  0  0  0  0  0  0  0
   37.1780   27.8470   44.0310 C   0  0  0  0  0  0  0  0  0  0  0  0
   36.7560   28.5550   45.1220 F   0  0  0  0  0  0  0  0  0  0  0  0
   38.3570   27.1650   44.3360 F   0  0  0  0  0  0  0  0  0  0  0  0
   36.1970   26.9170   43.7290 F   0  0  0  0  0  0  0  0  0  0  0  0
   37.4300   29.5310   37.7620 C   0  0  0  0  0  0  0  0  0  0  0  0
   39.0933   29.7503   43.7021 H   0  0  0  0  0  0  0  0  0  0  0  0
   39.3618   31.2118   41.6525 H   0  0  0  0  0  0  0  0  0  0  0  0
   32.7906   28.8677   38.4632 H   0  0  0  0  0  0  0  0  0  0  0  0
   34.6597   29.1616   36.5387 H   0  0  0  0  0  0  0  0  0  0  0  0
   38.1237   29.6331   38.6096 H   0  0  0  0  0  0  0  0  0  0  0  0
   37.7248   28.6666   37.1490 H   0  0  0  0  0  0  0  0  0  0  0  0
   37.4633   30.4437   37.1490 H   0  0  0  0  0  0  0  0  0  0  0  0
  1 12  1  0
  2  1  2  0
  3  2  1  0
  4  5  1  0
  4  3  2  0
  5  6  2  0
  6  1  1  0
  7  8  1  0
  7  5  1  0
  9  8  2  0
 10 11  2  0
 10  9  1  0
 11  7  1  0
 12 14  1  0
 12 13  1  0
 15 12  1  0
 16 11  1  0
  2 17  1  0
  3 18  1  0
  9 19  1  0
 10 20  1  0
 16 21  1  0
 16 22  1  0
 16 23  1  0
M  ISO  7  17  14  18  14  19  14  20  14  21   8  22   8  23   8
M  END
>  <minimizedAffinity>  (1) 
-5.29962063

>  <minimizedRMSD>  (1) 
0.0348558165

$$$$
