
     RDKit          3D

 21 22  0  0  0  0  0  0  0  0999 V2000
   37.3690   28.7130   42.8600 C   0  0  0  0  0  0  0  0  0  0  0  0
   38.4270   29.6500   42.8580 C   0  0  0  0  0  0  0  0  0  0  0  0
   38.5810   30.4540   41.7240 C   0  0  0  0  0  0  0  0  0  0  0  0
   37.7080   30.2820   40.7090 N   0  0  0  0  0  0  0  0  0  0  0  0
   36.7060   29.3830   40.7330 C   0  0  0  0  0  0  0  0  0  0  0  0
   36.5450   28.5980   41.8220 N   0  0  0  0  0  0  0  0  0  0  0  0
   35.8360   29.2730   39.6180 N   0  0  0  0  0  0  0  0  0  0  0  0
   34.5450   29.0960   39.7680 N   0  0  0  0  0  0  0  0  0  0  0  0
   33.8910   29.0160   38.6090 C   0  0  0  0  0  0  0  0  0  0  0  0
   34.8470   29.1530   37.6440 C   0  0  0  0  0  0  0  0  0  0  0  0
   36.0590   29.3140   38.2880 C   0  0  0  0  0  0  0  0  0  0  0  0
   37.1710   27.8380   44.0460 C   0  0  0  0  0  0  0  0  0  0  0  0
   36.7460   28.5660   45.1350 F   0  0  0  0  0  0  0  0  0  0  0  0
   38.3530   27.1530   44.3510 F   0  0  0  0  0  0  0  0  0  0  0  0
   36.1990   26.9100   43.7440 F   0  0  0  0  0  0  0  0  0  0  0  0
   37.6830   29.5400   37.5840 S   0  0  0  0  0  0  0  0  0  0  0  0
   39.1058   29.7437   43.7185 H   0  0  0  0  0  0  0  0  0  0  0  0
   39.3860   31.2010   41.6614 H   0  0  0  0  0  0  0  0  0  0  0  0
   32.8107   28.8705   38.4616 H   0  0  0  0  0  0  0  0  0  0  0  0
   34.6830   29.1380   36.5564 H   0  0  0  0  0  0  0  0  0  0  0  0
   38.6033   29.6681   38.5907 H   0  0  0  0  0  0  0  0  0  0  0  0
  1 12  1  0
  2  1  2  0
  3  2  1  0
  4  5  1  0
  4  3  2  0
  5  6  2  0
  6  1  1  0
  7  8  1  0
  7  5  1  0
  9  8  2  0
 10 11  2  0
 10  9  1  0
 11  7  1  0
 12 14  1  0
 12 13  1  0
 15 12  1  0
 16 11  1  0
  2 17  1  0
  3 18  1  0
  9 19  1  0
 10 20  1  0
 16 21  1  0
M  ISO  5  17  14  18  14  19  14  20  14  21  11
M  END
>  <minimizedAffinity>  (1) 
-5.27326059

>  <minimizedRMSD>  (1) 
0.0220928453

$$$$
