
     RDKit          3D

 21 22  0  0  0  0  0  0  0  0999 V2000
   37.3640   28.7030   42.8650 C   0  0  0  0  0  0  0  0  0  0  0  0
   38.4240   29.6390   42.8580 C   0  0  0  0  0  0  0  0  0  0  0  0
   38.5750   30.4380   41.7230 C   0  0  0  0  0  0  0  0  0  0  0  0
   37.6960   30.2630   40.7040 N   0  0  0  0  0  0  0  0  0  0  0  0
   36.6880   29.3600   40.7350 C   0  0  0  0  0  0  0  0  0  0  0  0
   36.5290   28.5770   41.8300 N   0  0  0  0  0  0  0  0  0  0  0  0
   35.8220   29.2550   39.6170 N   0  0  0  0  0  0  0  0  0  0  0  0
   34.5320   29.0960   39.7790 N   0  0  0  0  0  0  0  0  0  0  0  0
   33.8810   29.0180   38.6180 C   0  0  0  0  0  0  0  0  0  0  0  0
   34.8460   29.1380   37.6350 C   0  0  0  0  0  0  0  0  0  0  0  0
   36.0370   29.2840   38.2930 C   0  0  0  0  0  0  0  0  0  0  0  0
   37.1760   27.8390   44.0530 C   0  0  0  0  0  0  0  0  0  0  0  0
   36.7400   28.5740   45.1450 F   0  0  0  0  0  0  0  0  0  0  0  0
   38.3440   27.1520   44.3600 F   0  0  0  0  0  0  0  0  0  0  0  0
   36.1900   26.9080   43.7570 F   0  0  0  0  0  0  0  0  0  0  0  0
   37.3000   29.4400   37.7410 O   0  0  0  0  0  0  0  0  0  0  0  0
   39.1054   29.7342   43.7163 H   0  0  0  0  0  0  0  0  0  0  0  0
   39.3800   31.1848   41.6569 H   0  0  0  0  0  0  0  0  0  0  0  0
   32.7988   28.8854   38.4722 H   0  0  0  0  0  0  0  0  0  0  0  0
   34.6885   29.1198   36.5465 H   0  0  0  0  0  0  0  0  0  0  0  0
   38.0894   29.5366   38.3306 H   0  0  0  0  0  0  0  0  0  0  0  0
  1 12  1  0
  2  1  2  0
  3  2  1  0
  4  5  1  0
  4  3  2  0
  5  6  2  0
  6  1  1  0
  7  8  1  0
  7  5  1  0
  9  8  2  0
 10 11  2  0
 10  9  1  0
 11  7  1  0
 12 14  1  0
 12 13  1  0
 15 12  1  0
 16 11  1  0
  2 17  1  0
  3 18  1  0
  9 19  1  0
 10 20  1  0
 16 21  1  0
M  ISO  5  17  14  18  14  19  14  20  14  21   3
M  END
>  <minimizedAffinity>  (1) 
-5.25231791

>  <minimizedRMSD>  (1) 
0.00812184345

$$$$
