
     RDKit          3D

 27 29  0  0  0  0  0  0  0  0999 V2000
   37.3420   28.5880   43.0170 C   0  0  0  0  0  0  0  0  0  0  0  0
   38.5030   29.3880   42.9250 C   0  0  0  0  0  0  0  0  0  0  0  0
   38.7340   30.0660   41.7280 C   0  0  0  0  0  0  0  0  0  0  0  0
   37.8210   29.9070   40.7400 N   0  0  0  0  0  0  0  0  0  0  0  0
   36.7120   29.1380   40.8410 C   0  0  0  0  0  0  0  0  0  0  0  0
   36.4740   28.4710   42.0000 N   0  0  0  0  0  0  0  0  0  0  0  0
   35.8090   29.0570   39.7510 N   0  0  0  0  0  0  0  0  0  0  0  0
   34.4970   29.1750   39.9720 N   0  0  0  0  0  0  0  0  0  0  0  0
   33.8080   29.1060   38.8360 C   0  0  0  0  0  0  0  0  0  0  0  0
   34.7330   28.9350   37.8330 C   0  0  0  0  0  0  0  0  0  0  0  0
   35.9890   28.9060   38.4390 C   0  0  0  0  0  0  0  0  0  0  0  0
   37.2120   28.7300   37.7090 C   0  0  0  0  0  0  0  0  0  0  0  0
   37.2980   27.9790   36.5280 C   0  0  0  0  0  0  0  0  0  0  0  0
   38.5110   27.9640   35.9890 N   0  0  0  0  0  0  0  0  0  0  0  0
   39.2770   28.7070   36.7960 C   0  0  0  0  0  0  0  0  0  0  0  0
   38.4780   29.1320   37.7850 N   0  0  0  0  0  0  0  0  0  0  0  0
   37.0500   27.8560   44.2840 C   0  0  0  0  0  0  0  0  0  0  0  0
   36.6840   28.7360   45.2930 F   0  0  0  0  0  0  0  0  0  0  0  0
   38.1560   27.1230   44.6840 F   0  0  0  0  0  0  0  0  0  0  0  0
   35.9810   27.0160   44.0720 F   0  0  0  0  0  0  0  0  0  0  0  0
   39.2021   29.4734   43.7700 H   0  0  0  0  0  0  0  0  0  0  0  0
   39.6204   30.7031   41.5921 H   0  0  0  0  0  0  0  0  0  0  0  0
   32.7160   29.1725   38.7218 H   0  0  0  0  0  0  0  0  0  0  0  0
   34.5225   28.8393   36.7576 H   0  0  0  0  0  0  0  0  0  0  0  0
   36.4391   27.4507   36.0885 H   0  0  0  0  0  0  0  0  0  0  0  0
   40.3480   28.9254   36.6727 H   0  0  0  0  0  0  0  0  0  0  0  0
   38.8207   29.7289   38.5513 H   0  0  0  0  0  0  0  0  0  0  0  0
  1 17  1  0
  2  1  2  0
  3  2  1  0
  4  5  1  0
  4  3  2  0
  5  6  2  0
  6  1  1  0
  7  8  1  0
  7  5  1  0
  9  8  2  0
 10 11  2  0
 10  9  1  0
 11  7  1  0
 12 16  1  0
 12 11  1  0
 13 12  2  0
 14 13  1  0
 14 15  2  0
 15 16  1  0
 17 19  1  0
 17 18  1  0
 20 17  1  0
  2 21  1  0
  3 22  1  0
  9 23  1  0
 10 24  1  0
 13 25  1  0
 15 26  1  0
 16 27  1  0
M  ISO  7  21  14  22  14  23  14  24  14  25  14  26  14  27   9
M  END
>  <minimizedAffinity>  (1) 
-5.22578335

>  <minimizedRMSD>  (1) 
0.539165974

$$$$
