
     RDKit          3D

 44 47  0  0  1  0  0  0  0  0999 V2000
   40.0340   32.0600   41.0250 C   0  0  0  0  0  0  0  0  0  0  0  0
   39.6180   30.7960   41.5340 C   0  0  0  0  0  0  0  0  0  0  0  0
   38.2780   30.4960   41.4590 C   0  0  0  0  0  0  0  0  0  0  0  0
   37.4170   31.4110   40.9080 N   0  0  0  0  0  0  0  0  0  0  0  0
   37.8510   32.6080   40.4330 C   0  0  0  0  0  0  0  0  0  0  0  0
   39.1600   32.9350   40.4910 N   0  0  0  0  0  0  0  0  0  0  0  0
   36.9040   33.5120   39.8740 N   0  0  0  0  0  0  0  0  0  0  0  0
   37.7650   29.2780   41.9310 N   0  0  0  0  0  0  0  0  0  0  0  0
   37.9260   28.9250   43.3180 C   0  0  0  0  0  0  0  0  0  0  0  0
   36.8520   27.8870   43.6550 C   0  0  0  0  0  0  0  0  0  0  0  0
   36.8630   26.7390   42.8100 N   0  0  0  0  0  0  0  0  0  0  0  0
   37.3520   26.9550   41.4870 C   0  0  0  0  0  0  0  0  0  0  0  0
   37.0720   28.3670   41.0450 C   0  0  2  0  0  0  0  0  0  0  0  0
   37.3420   28.5850   39.6110 C   0  0  0  0  0  0  0  0  0  0  0  0
   36.3220   29.0300   38.7660 C   0  0  0  0  0  0  0  0  0  0  0  0
   36.4820   29.2580   37.4280 C   0  0  0  0  0  0  0  0  0  0  0  0
   37.7110   29.0250   36.9480 N   0  0  0  0  0  0  0  0  0  0  0  0
   38.7130   28.5950   37.7450 C   0  0  0  0  0  0  0  0  0  0  0  0
   38.5710   28.3630   39.0790 N   0  0  0  0  0  0  0  0  0  0  0  0
   40.0490   28.3300   37.2810 N   0  0  0  0  0  0  0  0  0  0  0  0
   40.5970   27.1840   36.8830 C   0  0  0  0  0  0  0  0  0  0  0  0
   41.9050   27.1810   36.4810 C   0  0  0  0  0  0  0  0  0  0  0  0
   42.6620   28.3310   36.4790 C   0  0  0  0  0  0  0  0  0  0  0  0
   43.8630   28.3000   36.1050 O   0  0  0  0  0  0  0  0  0  0  0  0
   42.0670   29.4820   36.8930 N   0  0  0  0  0  0  0  0  0  0  0  0
   40.7800   29.4620   37.2840 C   0  0  0  0  0  0  0  0  0  0  0  0
   40.3930   30.6140   37.6340 O   0  0  0  0  0  0  0  0  0  0  0  0
   41.0996   32.3292   41.0693 H   0  0  0  0  0  0  0  0  0  0  0  0
   40.3393   30.0888   41.9693 H   0  0  0  0  0  0  0  0  0  0  0  0
   35.9076   33.2543   39.8338 H   0  0  0  0  0  0  0  0  0  0  0  0
   37.2152   34.4238   39.5097 H   0  0  0  0  0  0  0  0  0  0  0  0
   38.9262   28.4982   43.4835 H   0  0  0  0  0  0  0  0  0  0  0  0
   37.8221   29.8129   43.9589 H   0  0  0  0  0  0  0  0  0  0  0  0
   37.0076   27.5537   44.6917 H   0  0  0  0  0  0  0  0  0  0  0  0
   35.8794   28.3791   43.5069 H   0  0  0  0  0  0  0  0  0  0  0  0
   37.4556   26.0234   43.2545 H   0  0  0  0  0  0  0  0  0  0  0  0
   38.4376   26.7787   41.4691 H   0  0  0  0  0  0  0  0  0  0  0  0
   36.8436   26.2605   40.8021 H   0  0  0  0  0  0  0  0  0  0  0  0
   35.9944   28.5711   41.1293 H   0  0  0  0  0  0  0  0  0  0  0  0
   35.3291   29.2078   39.2047 H   0  0  0  0  0  0  0  0  0  0  0  0
   35.6582   29.6088   36.7890 H   0  0  0  0  0  0  0  0  0  0  0  0
   40.0082   26.2549   36.8774 H   0  0  0  0  0  0  0  0  0  0  0  0
   42.3628   26.2367   36.1514 H   0  0  0  0  0  0  0  0  0  0  0  0
   42.5989   30.3639   36.9070 H   0  0  0  0  0  0  0  0  0  0  0  0
  1  2  2  0
  3  2  1  0
  3  8  1  0
  4  3  2  0
  5  6  2  0
  5  4  1  0
  6  1  1  0
  7  5  1  0
  8  9  1  0
  9 10  1  0
 11 10  1  0
 12 11  1  0
 13 12  1  0
 13  8  1  0
 14 13  1  0
 15 14  2  0
 16 15  1  0
 17 16  2  0
 17 18  1  0
 18 19  2  0
 19 14  1  0
 20 26  1  0
 20 18  1  0
 21 20  1  0
 22 21  2  0
 23 22  1  0
 23 25  1  0
 24 23  2  0
 25 26  1  0
 26 27  2  0
  1 28  1  0
  2 29  1  0
  7 30  1  0
  7 31  1  0
  9 32  1  0
  9 33  1  0
 10 34  1  0
 10 35  1  0
 11 36  1  0
 12 37  1  0
 12 38  1  0
 13 39  1  6
 15 40  1  0
 16 41  1  0
 21 42  1  0
 22 43  1  0
 25 44  1  0
M  ISO  8  28  14  29  14  32  13  33  13  34  13  35  13  36   5  37  13
M  ISO  7  38  13  39  13  40  14  41  14  42  14  43  14  44   9
M  END
>  <minimizedAffinity>  (1) 
-6.36489153

>  <minimizedRMSD>  (1) 
1.18809271

$$$$
