
     RDKit          3D

 47 50  0  0  0  0  0  0  0  0999 V2000
   37.4180   28.6960   42.9180 C   0  0  0  0  0  0  0  0  0  0  0  0
   38.4020   29.7260   43.0450 C   0  0  0  0  0  0  0  0  0  0  0  0
   38.5490   30.6110   41.9760 C   0  0  0  0  0  0  0  0  0  0  0  0
   37.7500   30.4370   40.8870 N   0  0  0  0  0  0  0  0  0  0  0  0
   36.8340   29.4510   40.8070 C   0  0  0  0  0  0  0  0  0  0  0  0
   36.6740   28.5910   41.8210 N   0  0  0  0  0  0  0  0  0  0  0  0
   36.0470   29.3500   39.6310 N   0  0  0  0  0  0  0  0  0  0  0  0
   34.7650   29.0590   39.6890 N   0  0  0  0  0  0  0  0  0  0  0  0
   34.1890   29.0050   38.4830 C   0  0  0  0  0  0  0  0  0  0  0  0
   35.1910   29.2850   37.5960 C   0  0  0  0  0  0  0  0  0  0  0  0
   36.3540   29.5000   38.3140 C   0  0  0  0  0  0  0  0  0  0  0  0
   37.6940   29.8190   37.9970 N   0  0  0  0  0  0  0  0  0  0  0  0
   38.5010   28.7210   37.9320 C   0  0  0  0  0  0  0  0  0  0  0  0
   39.8420   28.8720   37.6300 C   0  0  0  0  0  0  0  0  0  0  0  0
   40.3260   30.1580   37.4000 C   0  0  0  0  0  0  0  0  0  0  0  0
   41.6970   30.3560   37.0870 N   0  0  0  0  0  0  0  0  0  0  0  0
   39.4880   31.2340   37.4740 N   0  0  0  0  0  0  0  0  0  0  0  0
   38.1960   31.0360   37.7700 C   0  0  0  0  0  0  0  0  0  0  0  0
   37.3520   31.9870   37.8580 O   0  0  0  0  0  0  0  0  0  0  0  0
   40.7980   27.7370   37.5360 C   0  0  0  0  0  0  0  0  0  0  0  0
   40.2240   26.6570   36.6100 C   0  0  0  0  0  0  0  0  0  0  0  0
   41.1690   25.4910   36.5940 C   0  0  0  0  0  0  0  0  0  0  0  0
   42.5330   25.9030   36.0780 C   0  0  0  0  0  0  0  0  0  0  0  0
   42.5540   27.3970   35.8710 C   0  0  0  0  0  0  0  0  0  0  0  0
   42.1870   28.1380   37.1400 C   0  0  0  0  0  0  0  0  0  0  0  0
   37.2400   27.7410   44.0390 C   0  0  0  0  0  0  0  0  0  0  0  0
   36.7520   28.3690   45.1600 F   0  0  0  0  0  0  0  0  0  0  0  0
   38.4460   27.0940   44.3230 F   0  0  0  0  0  0  0  0  0  0  0  0
   36.3250   26.7860   43.6350 F   0  0  0  0  0  0  0  0  0  0  0  0
   39.0195   29.8172   43.9508 H   0  0  0  0  0  0  0  0  0  0  0  0
   39.2882   31.4248   42.0119 H   0  0  0  0  0  0  0  0  0  0  0  0
   33.1362   28.7832   38.2542 H   0  0  0  0  0  0  0  0  0  0  0  0
   35.0901   29.3313   36.5016 H   0  0  0  0  0  0  0  0  0  0  0  0
   38.0866   27.7194   38.1191 H   0  0  0  0  0  0  0  0  0  0  0  0
   42.3340   29.5486   37.0297 H   0  0  0  0  0  0  0  0  0  0  0  0
   42.0544   31.3070   36.9173 H   0  0  0  0  0  0  0  0  0  0  0  0
   40.9120   27.3253   38.5496 H   0  0  0  0  0  0  0  0  0  0  0  0
   39.2412   26.3328   36.9828 H   0  0  0  0  0  0  0  0  0  0  0  0
   40.1036   27.0582   35.5929 H   0  0  0  0  0  0  0  0  0  0  0  0
   41.2746   25.0998   37.6166 H   0  0  0  0  0  0  0  0  0  0  0  0
   40.7606   24.7187   35.9256 H   0  0  0  0  0  0  0  0  0  0  0  0
   43.3039   25.6222   36.8107 H   0  0  0  0  0  0  0  0  0  0  0  0
   42.7364   25.3946   35.1240 H   0  0  0  0  0  0  0  0  0  0  0  0
   43.5643   27.7006   35.5592 H   0  0  0  0  0  0  0  0  0  0  0  0
   41.8135   27.6489   35.0976 H   0  0  0  0  0  0  0  0  0  0  0  0
   42.8927   27.8745   37.9416 H   0  0  0  0  0  0  0  0  0  0  0  0
   42.2336   29.2239   36.9710 H   0  0  0  0  0  0  0  0  0  0  0  0
  1  2  2  0
  1 26  1  0
  3  2  1  0
  4  3  2  0
  5  4  1  0
  5  6  2  0
  6  1  1  0
  7  8  1  0
  7  5  1  0
  9  8  2  0
 10 11  2  0
 10  9  1  0
 11  7  1  0
 12 11  1  0
 13 12  1  0
 14 13  2  0
 15 17  2  0
 15 14  1  0
 16 15  1  0
 17 18  1  0
 18 19  2  0
 18 12  1  0
 20 14  1  0
 21 20  1  0
 22 21  1  0
 23 22  1  0
 24 23  1  0
 24 25  1  0
 25 20  1  0
 26 28  1  0
 26 27  1  0
 29 26  1  0
  2 30  1  0
  3 31  1  0
  9 32  1  0
 10 33  1  0
 13 34  1  0
 16 35  1  0
 16 36  1  0
 20 37  1  0
 21 38  1  0
 21 39  1  0
 22 40  1  0
 22 41  1  0
 23 42  1  0
 23 43  1  0
 24 44  1  0
 24 45  1  0
 25 46  1  0
 25 47  1  0
M  ISO  8  30  14  31  14  32  14  33  14  34  14  37  13  38  13  39  13
M  ISO  8  40  13  41  13  42  13  43  13  44  13  45  13  46  13  47  13
M  END
>  <minimizedAffinity>  (1) 
-6.39023638

>  <minimizedRMSD>  (1) 
0.264696717

$$$$
