
     RDKit          3D

 47 50  0  0  1  0  0  0  0  0999 V2000
   39.9970   32.2730   41.2600 C   0  0  0  0  0  0  0  0  0  0  0  0
   39.6210   30.9820   41.7180 C   0  0  0  0  0  0  0  0  0  0  0  0
   38.3230   30.5850   41.5220 C   0  0  0  0  0  0  0  0  0  0  0  0
   37.4380   31.4350   40.8980 N   0  0  0  0  0  0  0  0  0  0  0  0
   37.8290   32.6650   40.4710 C   0  0  0  0  0  0  0  0  0  0  0  0
   39.1080   33.0870   40.6510 N   0  0  0  0  0  0  0  0  0  0  0  0
   36.8630   33.4990   39.8310 N   0  0  0  0  0  0  0  0  0  0  0  0
   37.8620   29.3310   41.9410 N   0  0  0  0  0  0  0  0  0  0  0  0
   37.9280   28.9670   43.3410 C   0  0  0  0  0  0  0  0  0  0  0  0
   36.9090   27.8590   43.5730 C   0  0  0  0  0  0  0  0  0  0  0  0
   37.0920   26.7180   42.7400 N   0  0  0  0  0  0  0  0  0  0  0  0
   37.6670   26.9880   41.4650 C   0  0  0  0  0  0  0  0  0  0  0  0
   37.3150   28.3770   40.9990 C   0  0  2  0  0  0  0  0  0  0  0  0
   37.7020   28.6230   39.5980 C   0  0  0  0  0  0  0  0  0  0  0  0
   36.7250   28.6850   38.6000 C   0  0  0  0  0  0  0  0  0  0  0  0
   36.9920   28.9080   37.2760 C   0  0  0  0  0  0  0  0  0  0  0  0
   38.3000   29.0730   36.9740 N   0  0  0  0  0  0  0  0  0  0  0  0
   39.2480   29.0180   37.9150 C   0  0  0  0  0  0  0  0  0  0  0  0
   38.9970   28.7970   39.2320 N   0  0  0  0  0  0  0  0  0  0  0  0
   40.6060   29.2010   37.5260 N   0  0  0  0  0  0  0  0  0  0  0  0
   41.3940   30.2880   38.0770 C   0  0  0  0  0  0  0  0  0  0  0  0
   42.1410   31.0250   36.9870 C   0  0  0  0  0  0  0  0  0  0  0  0
   42.5810   30.2360   35.9610 O   0  0  0  0  0  0  0  0  0  0  0  0
   42.6270   28.8830   36.2750 C   0  0  0  0  0  0  0  0  0  0  0  0
   41.2570   28.3200   36.5720 C   0  0  0  0  0  0  0  0  0  0  0  0
   41.0321   32.6163   41.4041 H   0  0  0  0  0  0  0  0  0  0  0  0
   40.3477   30.3218   42.2140 H   0  0  0  0  0  0  0  0  0  0  0  0
   35.8976   33.1638   39.7024 H   0  0  0  0  0  0  0  0  0  0  0  0
   37.1315   34.4359   39.4978 H   0  0  0  0  0  0  0  0  0  0  0  0
   38.9375   28.6070   43.5885 H   0  0  0  0  0  0  0  0  0  0  0  0
   37.7083   29.8360   43.9786 H   0  0  0  0  0  0  0  0  0  0  0  0
   36.9821   27.5363   44.6221 H   0  0  0  0  0  0  0  0  0  0  0  0
   35.9224   28.2779   43.3256 H   0  0  0  0  0  0  0  0  0  0  0  0
   37.7080   26.0571   43.2346 H   0  0  0  0  0  0  0  0  0  0  0  0
   38.7610   26.8989   41.5373 H   0  0  0  0  0  0  0  0  0  0  0  0
   37.2692   26.2629   40.7397 H   0  0  0  0  0  0  0  0  0  0  0  0
   36.2217   28.4973   40.9872 H   0  0  0  0  0  0  0  0  0  0  0  0
   35.6752   28.5458   38.8975 H   0  0  0  0  0  0  0  0  0  0  0  0
   36.2004   28.9499   36.5133 H   0  0  0  0  0  0  0  0  0  0  0  0
   40.7243   30.9918   38.5929 H   0  0  0  0  0  0  0  0  0  0  0  0
   42.1274   29.8668   38.7803 H   0  0  0  0  0  0  0  0  0  0  0  0
   41.4695   31.7889   36.5679 H   0  0  0  0  0  0  0  0  0  0  0  0
   43.0392   31.4497   37.4590 H   0  0  0  0  0  0  0  0  0  0  0  0
   43.0579   28.3360   35.4235 H   0  0  0  0  0  0  0  0  0  0  0  0
   43.2435   28.7665   37.1785 H   0  0  0  0  0  0  0  0  0  0  0  0
   40.6653   28.2702   35.6461 H   0  0  0  0  0  0  0  0  0  0  0  0
   41.3431   27.3049   36.9868 H   0  0  0  0  0  0  0  0  0  0  0  0
  1  2  2  0
  3  2  1  0
  3  8  1  0
  4  3  2  0
  5  6  2  0
  5  4  1  0
  6  1  1  0
  7  5  1  0
  8  9  1  0
  9 10  1  0
 11 10  1  0
 12 11  1  0
 13 12  1  0
 13  8  1  0
 14 13  1  0
 15 14  2  0
 16 15  1  0
 17 16  2  0
 17 18  1  0
 18 19  2  0
 19 14  1  0
 20 18  1  0
 20 21  1  0
 22 21  1  0
 23 24  1  0
 23 22  1  0
 24 25  1  0
 25 20  1  0
  1 26  1  0
  2 27  1  0
  7 28  1  0
  7 29  1  0
  9 30  1  0
  9 31  1  0
 10 32  1  0
 10 33  1  0
 11 34  1  0
 12 35  1  0
 12 36  1  0
 13 37  1  6
 15 38  1  0
 16 39  1  0
 21 40  1  0
 21 41  1  0
 22 42  1  0
 22 43  1  0
 24 44  1  0
 24 45  1  0
 25 46  1  0
 25 47  1  0
M  ISO  8  26  14  27  14  30  13  31  13  32  13  33  13  34   5  35  13
M  ISO  8  36  13  37  13  38  14  39  14  40  13  41  13  42  13  43  13
M  ISO  4  44  13  45  13  46  13  47  13
M  END
>  <minimizedAffinity>  (1) 
-6.22739267

>  <minimizedRMSD>  (1) 
1.77607334

$$$$
