
     RDKit          3D

 41 44  0  0  0  0  0  0  0  0999 V2000
   37.5330   29.6800   38.0720 N   0  0  0  0  0  0  0  0  0  0  0  0
   38.2850   28.5380   38.0510 C   0  0  0  0  0  0  0  0  0  0  0  0
   39.6260   28.6180   37.7190 C   0  0  0  0  0  0  0  0  0  0  0  0
   40.1680   29.8550   37.4190 C   0  0  0  0  0  0  0  0  0  0  0  0
   41.5370   29.9870   37.0730 N   0  0  0  0  0  0  0  0  0  0  0  0
   39.3830   30.9700   37.4510 N   0  0  0  0  0  0  0  0  0  0  0  0
   38.0900   30.8560   37.7760 C   0  0  0  0  0  0  0  0  0  0  0  0
   37.2800   31.8390   37.8330 O   0  0  0  0  0  0  0  0  0  0  0  0
   37.3370   28.6900   43.0290 C   0  0  0  0  0  0  0  0  0  0  0  0
   38.3610   29.6670   43.1040 C   0  0  0  0  0  0  0  0  0  0  0  0
   38.5270   30.5230   42.0080 C   0  0  0  0  0  0  0  0  0  0  0  0
   37.6970   30.3610   40.9450 N   0  0  0  0  0  0  0  0  0  0  0  0
   36.7270   29.4100   40.9150 C   0  0  0  0  0  0  0  0  0  0  0  0
   36.5460   28.5770   41.9490 N   0  0  0  0  0  0  0  0  0  0  0  0
   35.9120   29.3210   39.7570 N   0  0  0  0  0  0  0  0  0  0  0  0
   34.6070   29.0910   39.8530 N   0  0  0  0  0  0  0  0  0  0  0  0
   34.0100   29.0420   38.6670 C   0  0  0  0  0  0  0  0  0  0  0  0
   34.9890   29.2550   37.7390 C   0  0  0  0  0  0  0  0  0  0  0  0
   36.1710   29.4280   38.4320 C   0  0  0  0  0  0  0  0  0  0  0  0
   37.1350   27.7680   44.1720 C   0  0  0  0  0  0  0  0  0  0  0  0
   36.6770   28.4320   45.2840 F   0  0  0  0  0  0  0  0  0  0  0  0
   38.3360   27.0860   44.4620 F   0  0  0  0  0  0  0  0  0  0  0  0
   36.1900   26.8240   43.7970 F   0  0  0  0  0  0  0  0  0  0  0  0
   40.4180   27.4340   37.6950 N   0  0  0  0  0  0  0  0  0  0  0  0
   40.1410   26.6350   36.6240 C   0  0  0  0  0  0  0  0  0  0  0  0
   40.7790   25.4340   36.3840 C   0  0  0  0  0  0  0  0  0  0  0  0
   41.7470   25.0500   37.3000 C   0  0  0  0  0  0  0  0  0  0  0  0
   42.3980   23.9700   37.1850 O   0  0  0  0  0  0  0  0  0  0  0  0
   41.9940   25.8530   38.3370 N   0  0  0  0  0  0  0  0  0  0  0  0
   41.3690   27.0090   38.5530 C   0  0  0  0  0  0  0  0  0  0  0  0
   41.5530   27.8080   39.5050 O   0  0  0  0  0  0  0  0  0  0  0  0
   37.8292   27.5671   38.2952 H   0  0  0  0  0  0  0  0  0  0  0  0
   42.1435   29.1550   37.0442 H   0  0  0  0  0  0  0  0  0  0  0  0
   41.9248   30.9149   36.8505 H   0  0  0  0  0  0  0  0  0  0  0  0
   39.0036   29.7501   43.9929 H   0  0  0  0  0  0  0  0  0  0  0  0
   39.3043   31.3013   42.0080 H   0  0  0  0  0  0  0  0  0  0  0  0
   32.9420   28.8654   38.4719 H   0  0  0  0  0  0  0  0  0  0  0  0
   34.8605   29.2834   36.6469 H   0  0  0  0  0  0  0  0  0  0  0  0
   39.3684   26.9652   35.9140 H   0  0  0  0  0  0  0  0  0  0  0  0
   40.5319   24.8131   35.5103 H   0  0  0  0  0  0  0  0  0  0  0  0
   42.7137   25.5601   39.0132 H   0  0  0  0  0  0  0  0  0  0  0  0
  1 19  1  0
  2  1  1  0
  3  2  2  0
  4  6  2  0
  4  3  1  0
  5  4  1  0
  6  7  1  0
  7  8  2  0
  7  1  1  0
  9 10  2  0
  9 20  1  0
 11 10  1  0
 12 11  2  0
 13 12  1  0
 13 14  2  0
 14  9  1  0
 15 16  1  0
 15 13  1  0
 17 16  2  0
 18 19  2  0
 18 17  1  0
 19 15  1  0
 20 22  1  0
 20 21  1  0
 23 20  1  0
 24  3  1  0
 24 30  1  0
 25 24  1  0
 26 25  2  0
 26 27  1  0
 27 29  1  0
 28 27  2  0
 29 30  1  0
 30 31  2  0
  2 32  1  0
  5 33  1  0
  5 34  1  0
 10 35  1  0
 11 36  1  0
 17 37  1  0
 18 38  1  0
 25 39  1  0
 26 40  1  0
 29 41  1  0
M  ISO  8  32  14  35  14  36  14  37  14  38  14  39  14  40  14  41   9
M  END
>  <minimizedAffinity>  (1) 
-6.28915453

>  <minimizedRMSD>  (1) 
0.971971869

$$$$
