
     RDKit          3D

 38 41  0  0  0  0  0  0  0  0999 V2000
   37.4090   28.6640   42.9150 C   0  0  0  0  0  0  0  0  0  0  0  0
   38.3890   29.6770   43.0300 C   0  0  0  0  0  0  0  0  0  0  0  0
   38.5240   30.5850   41.9670 C   0  0  0  0  0  0  0  0  0  0  0  0
   37.7040   30.4270   40.9000 N   0  0  0  0  0  0  0  0  0  0  0  0
   36.7840   29.4500   40.8270 C   0  0  0  0  0  0  0  0  0  0  0  0
   36.6310   28.5690   41.8250 N   0  0  0  0  0  0  0  0  0  0  0  0
   35.9630   29.3650   39.6540 N   0  0  0  0  0  0  0  0  0  0  0  0
   34.6750   29.0780   39.7430 N   0  0  0  0  0  0  0  0  0  0  0  0
   34.0890   29.0460   38.5470 C   0  0  0  0  0  0  0  0  0  0  0  0
   35.0640   29.3300   37.6400 C   0  0  0  0  0  0  0  0  0  0  0  0
   36.2460   29.5310   38.3430 C   0  0  0  0  0  0  0  0  0  0  0  0
   37.5820   29.8490   38.0010 N   0  0  0  0  0  0  0  0  0  0  0  0
   38.3690   28.7420   37.8270 C   0  0  0  0  0  0  0  0  0  0  0  0
   39.6920   28.8990   37.4920 C   0  0  0  0  0  0  0  0  0  0  0  0
   40.2030   30.1650   37.3380 C   0  0  0  0  0  0  0  0  0  0  0  0
   41.5710   30.3660   36.9910 N   0  0  0  0  0  0  0  0  0  0  0  0
   39.3960   31.2440   37.5180 N   0  0  0  0  0  0  0  0  0  0  0  0
   38.1070   31.0690   37.8450 C   0  0  0  0  0  0  0  0  0  0  0  0
   37.2800   32.0200   38.0330 O   0  0  0  0  0  0  0  0  0  0  0  0
   40.5430   27.7280   37.3020 C   0  0  0  0  0  0  0  0  0  0  0  0
   40.2070   26.5870   36.6050 C   0  0  0  0  0  0  0  0  0  0  0  0
   41.3110   25.7330   36.6790 C   0  0  0  0  0  0  0  0  0  0  0  0
   42.2510   26.4200   37.4220 C   0  0  0  0  0  0  0  0  0  0  0  0
   41.7660   27.5900   37.7730 O   0  0  0  0  0  0  0  0  0  0  0  0
   37.2430   27.6940   44.0180 C   0  0  0  0  0  0  0  0  0  0  0  0
   36.7540   28.3030   45.1560 F   0  0  0  0  0  0  0  0  0  0  0  0
   38.4740   27.0720   44.3000 F   0  0  0  0  0  0  0  0  0  0  0  0
   36.3400   26.7380   43.6100 F   0  0  0  0  0  0  0  0  0  0  0  0
   39.0256   29.7515   43.9240 H   0  0  0  0  0  0  0  0  0  0  0  0
   39.2680   31.3946   41.9995 H   0  0  0  0  0  0  0  0  0  0  0  0
   33.0308   28.8331   38.3350 H   0  0  0  0  0  0  0  0  0  0  0  0
   34.9389   29.3896   36.5488 H   0  0  0  0  0  0  0  0  0  0  0  0
   37.9452   27.7350   37.9545 H   0  0  0  0  0  0  0  0  0  0  0  0
   41.9389   31.3215   36.8792 H   0  0  0  0  0  0  0  0  0  0  0  0
   42.1915   29.5557   36.8521 H   0  0  0  0  0  0  0  0  0  0  0  0
   39.2553   26.3875   36.0907 H   0  0  0  0  0  0  0  0  0  0  0  0
   41.4099   24.7293   36.2398 H   0  0  0  0  0  0  0  0  0  0  0  0
   43.2524   26.0452   37.6804 H   0  0  0  0  0  0  0  0  0  0  0  0
  1  2  2  0
  1 25  1  0
  3  2  1  0
  4  3  2  0
  5  4  1  0
  5  6  2  0
  6  1  1  0
  7  8  1  0
  7  5  1  0
  9  8  2  0
 10 11  2  0
 10  9  1  0
 11  7  1  0
 12 11  1  0
 13 12  1  0
 14 13  2  0
 15 14  1  0
 15 17  2  0
 16 15  1  0
 17 18  1  0
 18 12  1  0
 18 19  2  0
 20 14  1  0
 20 24  1  0
 21 22  1  0
 21 20  2  0
 22 23  2  0
 23 24  1  0
 25 27  1  0
 25 26  1  0
 28 25  1  0
  2 29  1  0
  3 30  1  0
  9 31  1  0
 10 32  1  0
 13 33  1  0
 16 34  1  0
 16 35  1  0
 21 36  1  0
 22 37  1  0
 23 38  1  0
M  ISO  8  29  14  30  14  31  14  32  14  33  14  36  14  37  14  38  14
M  END
>  <minimizedAffinity>  (1) 
-6.27464628

>  <minimizedRMSD>  (1) 
0.553225815

$$$$
