
     RDKit          3D

 41 44  0  0  0  0  0  0  0  0999 V2000
   37.3400   28.6710   43.0070 C   0  0  0  0  0  0  0  0  0  0  0  0
   38.4110   29.6050   43.0380 C   0  0  0  0  0  0  0  0  0  0  0  0
   38.5990   30.4200   41.9230 C   0  0  0  0  0  0  0  0  0  0  0  0
   37.7420   30.2680   40.8760 N   0  0  0  0  0  0  0  0  0  0  0  0
   36.7340   29.3670   40.8850 C   0  0  0  0  0  0  0  0  0  0  0  0
   36.5340   28.5740   41.9410 N   0  0  0  0  0  0  0  0  0  0  0  0
   35.8870   29.2810   39.7380 N   0  0  0  0  0  0  0  0  0  0  0  0
   34.5900   29.1110   39.8660 N   0  0  0  0  0  0  0  0  0  0  0  0
   33.9760   29.0560   38.6800 C   0  0  0  0  0  0  0  0  0  0  0  0
   34.9460   29.2010   37.7360 C   0  0  0  0  0  0  0  0  0  0  0  0
   36.1460   29.3430   38.4040 C   0  0  0  0  0  0  0  0  0  0  0  0
   37.5110   29.5270   38.0220 N   0  0  0  0  0  0  0  0  0  0  0  0
   38.2050   28.3470   37.9970 C   0  0  0  0  0  0  0  0  0  0  0  0
   39.5450   28.3700   37.6430 C   0  0  0  0  0  0  0  0  0  0  0  0
   40.1460   29.5820   37.3230 C   0  0  0  0  0  0  0  0  0  0  0  0
   41.5060   29.6330   36.9600 N   0  0  0  0  0  0  0  0  0  0  0  0
   39.4060   30.7330   37.3630 N   0  0  0  0  0  0  0  0  0  0  0  0
   38.1180   30.6740   37.7090 C   0  0  0  0  0  0  0  0  0  0  0  0
   37.3560   31.6920   37.7720 O   0  0  0  0  0  0  0  0  0  0  0  0
   40.3240   27.1340   37.6040 C   0  0  0  0  0  0  0  0  0  0  0  0
   40.8690   26.7930   38.8470 C   0  0  0  0  0  0  0  0  0  0  0  0
   41.6280   25.6340   38.9150 C   0  0  0  0  0  0  0  0  0  0  0  0
   41.8380   24.8400   37.7850 C   0  0  0  0  0  0  0  0  0  0  0  0
   41.2930   25.1930   36.5760 C   0  0  0  0  0  0  0  0  0  0  0  0
   40.5360   26.3450   36.4920 C   0  0  0  0  0  0  0  0  0  0  0  0
   37.1270   27.8000   44.1790 C   0  0  0  0  0  0  0  0  0  0  0  0
   36.6860   28.5090   45.2730 F   0  0  0  0  0  0  0  0  0  0  0  0
   38.2920   27.0980   44.4860 F   0  0  0  0  0  0  0  0  0  0  0  0
   36.1450   26.8820   43.8450 F   0  0  0  0  0  0  0  0  0  0  0  0
   39.0709   29.6822   43.9147 H   0  0  0  0  0  0  0  0  0  0  0  0
   39.4118   31.1605   41.8901 H   0  0  0  0  0  0  0  0  0  0  0  0
   32.8990   28.9203   38.5019 H   0  0  0  0  0  0  0  0  0  0  0  0
   34.8010   29.2044   36.6456 H   0  0  0  0  0  0  0  0  0  0  0  0
   37.7088   27.3992   38.2529 H   0  0  0  0  0  0  0  0  0  0  0  0
   42.0637   28.7676   36.9296 H   0  0  0  0  0  0  0  0  0  0  0  0
   41.9428   30.5357   36.7250 H   0  0  0  0  0  0  0  0  0  0  0  0
   40.7020   27.4197   39.7355 H   0  0  0  0  0  0  0  0  0  0  0  0
   42.0724   25.3348   39.8757 H   0  0  0  0  0  0  0  0  0  0  0  0
   42.4443   23.9257   37.8648 H   0  0  0  0  0  0  0  0  0  0  0  0
   41.4568   24.5672   35.6863 H   0  0  0  0  0  0  0  0  0  0  0  0
   40.0967   26.6372   35.5268 H   0  0  0  0  0  0  0  0  0  0  0  0
  1  2  2  0
  1 26  1  0
  3  2  1  0
  4  5  1  0
  4  3  2  0
  5  6  2  0
  6  1  1  0
  7  8  1  0
  7  5  1  0
  9  8  2  0
 10 11  2  0
 10  9  1  0
 11  7  1  0
 12 11  1  0
 13 12  1  0
 14 13  2  0
 15 17  2  0
 15 14  1  0
 16 15  1  0
 17 18  1  0
 18 19  2  0
 18 12  1  0
 20 14  1  0
 20 21  2  0
 21 22  1  0
 23 22  2  0
 24 23  1  0
 25 24  2  0
 25 20  1  0
 26 28  1  0
 26 27  1  0
 29 26  1  0
  2 30  1  0
  3 31  1  0
  9 32  1  0
 10 33  1  0
 13 34  1  0
 16 35  1  0
 16 36  1  0
 21 37  1  0
 22 38  1  0
 23 39  1  0
 24 40  1  0
 25 41  1  0
M  ISO  8  30  14  31  14  32  14  33  14  34  14  37  14  38  14  39  14
M  ISO  2  40  14  41  14
M  END
>  <minimizedAffinity>  (1) 
-6.25502539

>  <minimizedRMSD>  (1) 
0.686173916

$$$$
