
     RDKit          3D

 38 41  0  0  0  0  0  0  0  0999 V2000
   37.3490   28.6560   42.9790 C   0  0  0  0  0  0  0  0  0  0  0  0
   38.3770   29.6210   43.0520 C   0  0  0  0  0  0  0  0  0  0  0  0
   38.5430   30.4800   41.9670 C   0  0  0  0  0  0  0  0  0  0  0  0
   37.7030   30.3350   40.9000 N   0  0  0  0  0  0  0  0  0  0  0  0
   36.7290   29.3880   40.8830 C   0  0  0  0  0  0  0  0  0  0  0  0
   36.5560   28.5590   41.9130 N   0  0  0  0  0  0  0  0  0  0  0  0
   35.8980   29.3130   39.7250 N   0  0  0  0  0  0  0  0  0  0  0  0
   34.5990   29.0960   39.8450 N   0  0  0  0  0  0  0  0  0  0  0  0
   33.9810   29.0560   38.6570 C   0  0  0  0  0  0  0  0  0  0  0  0
   34.9570   29.2610   37.7260 C   0  0  0  0  0  0  0  0  0  0  0  0
   36.1570   29.4210   38.3980 C   0  0  0  0  0  0  0  0  0  0  0  0
   37.5010   29.6590   38.0290 N   0  0  0  0  0  0  0  0  0  0  0  0
   38.2320   28.5130   37.9010 C   0  0  0  0  0  0  0  0  0  0  0  0
   39.5570   28.5910   37.5470 C   0  0  0  0  0  0  0  0  0  0  0  0
   40.1400   29.8360   37.3220 C   0  0  0  0  0  0  0  0  0  0  0  0
   41.4940   29.9600   36.9570 N   0  0  0  0  0  0  0  0  0  0  0  0
   39.3710   30.9540   37.4600 N   0  0  0  0  0  0  0  0  0  0  0  0
   38.0860   30.8480   37.8060 C   0  0  0  0  0  0  0  0  0  0  0  0
   37.3050   31.8520   37.9550 O   0  0  0  0  0  0  0  0  0  0  0  0
   40.3680   27.4300   37.4000 N   0  0  0  0  0  0  0  0  0  0  0  0
   41.4640   27.2210   38.1110 N   0  0  0  0  0  0  0  0  0  0  0  0
   42.0220   26.0490   37.7590 C   0  0  0  0  0  0  0  0  0  0  0  0
   41.1750   25.5530   36.7680 C   0  0  0  0  0  0  0  0  0  0  0  0
   40.1300   26.4260   36.5410 C   0  0  0  0  0  0  0  0  0  0  0  0
   37.1570   27.7350   44.1240 C   0  0  0  0  0  0  0  0  0  0  0  0
   36.6870   28.3790   45.2360 F   0  0  0  0  0  0  0  0  0  0  0  0
   38.3680   27.0700   44.4170 F   0  0  0  0  0  0  0  0  0  0  0  0
   36.2300   26.7690   43.7370 F   0  0  0  0  0  0  0  0  0  0  0  0
   39.0263   29.6926   43.9370 H   0  0  0  0  0  0  0  0  0  0  0  0
   39.3270   31.2515   41.9700 H   0  0  0  0  0  0  0  0  0  0  0  0
   32.9093   28.8920   38.4709 H   0  0  0  0  0  0  0  0  0  0  0  0
   34.8157   29.2934   36.6356 H   0  0  0  0  0  0  0  0  0  0  0  0
   37.7632   27.5341   38.0801 H   0  0  0  0  0  0  0  0  0  0  0  0
   42.0782   29.1182   36.8517 H   0  0  0  0  0  0  0  0  0  0  0  0
   41.9005   30.8925   36.7952 H   0  0  0  0  0  0  0  0  0  0  0  0
   42.9363   25.5876   38.1604 H   0  0  0  0  0  0  0  0  0  0  0  0
   41.3196   24.5986   36.2405 H   0  0  0  0  0  0  0  0  0  0  0  0
   39.3000   26.3235   35.8265 H   0  0  0  0  0  0  0  0  0  0  0  0
  1  2  2  0
  1 25  1  0
  3  2  1  0
  4  3  2  0
  5  4  1  0
  5  6  2  0
  6  1  1  0
  7  8  1  0
  7  5  1  0
  9  8  2  0
 10 11  2  0
 10  9  1  0
 11  7  1  0
 12 11  1  0
 13 12  1  0
 14 13  2  0
 15 17  2  0
 15 14  1  0
 16 15  1  0
 17 18  1  0
 18 19  2  0
 18 12  1  0
 20 14  1  0
 20 21  1  0
 22 21  2  0
 23 22  1  0
 24 23  2  0
 24 20  1  0
 25 27  1  0
 25 26  1  0
 28 25  1  0
  2 29  1  0
  3 30  1  0
  9 31  1  0
 10 32  1  0
 13 33  1  0
 16 34  1  0
 16 35  1  0
 22 36  1  0
 23 37  1  0
 24 38  1  0
M  ISO  8  29  14  30  14  31  14  32  14  33  14  36  14  37  14  38  14
M  END
>  <minimizedAffinity>  (1) 
-6.15561008

>  <minimizedRMSD>  (1) 
0.433567494

$$$$
