
     RDKit          3D

 48 51  0  0  1  0  0  0  0  0999 V2000
   40.0230   32.1740   41.1500 C   0  0  0  0  0  0  0  0  0  0  0  0
   39.6200   30.8950   41.6210 C   0  0  0  0  0  0  0  0  0  0  0  0
   38.3050   30.5490   41.4710 C   0  0  0  0  0  0  0  0  0  0  0  0
   37.4370   31.4390   40.8800 N   0  0  0  0  0  0  0  0  0  0  0  0
   37.8470   32.6480   40.4430 C   0  0  0  0  0  0  0  0  0  0  0  0
   39.1530   33.0190   40.5790 N   0  0  0  0  0  0  0  0  0  0  0  0
   36.9050   33.5300   39.8380 N   0  0  0  0  0  0  0  0  0  0  0  0
   37.8140   29.3050   41.9060 N   0  0  0  0  0  0  0  0  0  0  0  0
   37.9280   28.9350   43.2980 C   0  0  0  0  0  0  0  0  0  0  0  0
   36.8640   27.8700   43.5680 C   0  0  0  0  0  0  0  0  0  0  0  0
   36.9560   26.7320   42.7220 N   0  0  0  0  0  0  0  0  0  0  0  0
   37.4860   26.9710   41.4230 C   0  0  0  0  0  0  0  0  0  0  0  0
   37.1930   28.3800   40.9830 C   0  0  2  0  0  0  0  0  0  0  0  0
   37.5260   28.6210   39.5660 C   0  0  0  0  0  0  0  0  0  0  0  0
   36.5600   29.0470   38.6660 C   0  0  0  0  0  0  0  0  0  0  0  0
   36.7770   29.2950   37.3410 C   0  0  0  0  0  0  0  0  0  0  0  0
   38.0330   29.0990   36.9240 N   0  0  0  0  0  0  0  0  0  0  0  0
   38.9990   28.6860   37.7680 C   0  0  0  0  0  0  0  0  0  0  0  0
   38.7720   28.4430   39.0870 N   0  0  0  0  0  0  0  0  0  0  0  0
   40.3430   28.4850   37.2900 N   0  0  0  0  0  0  0  0  0  0  0  0
   41.3310   29.5460   37.2990 C   0  0  0  0  0  0  0  0  0  0  0  0
   42.3470   29.3780   36.2110 C   0  0  0  0  0  0  0  0  0  0  0  0
   42.9380   28.0610   36.1720 N   0  0  0  0  0  0  0  0  0  0  0  0
   42.2180   27.0710   36.9230 C   0  0  0  0  0  0  0  0  0  0  0  0
   40.7160   27.1760   36.7870 C   0  0  0  0  0  0  0  0  0  0  0  0
   41.0748   32.4780   41.2567 H   0  0  0  0  0  0  0  0  0  0  0  0
   40.3399   30.2078   42.0895 H   0  0  0  0  0  0  0  0  0  0  0  0
   35.9208   33.2430   39.7388 H   0  0  0  0  0  0  0  0  0  0  0  0
   37.2084   34.4544   39.5000 H   0  0  0  0  0  0  0  0  0  0  0  0
   38.9297   28.5274   43.4994 H   0  0  0  0  0  0  0  0  0  0  0  0
   37.7813   29.8094   43.9491 H   0  0  0  0  0  0  0  0  0  0  0  0
   36.9671   27.5349   44.6106 H   0  0  0  0  0  0  0  0  0  0  0  0
   35.8886   28.3372   43.3671 H   0  0  0  0  0  0  0  0  0  0  0  0
   37.5595   26.0393   43.1877 H   0  0  0  0  0  0  0  0  0  0  0  0
   38.5750   26.8175   41.4429 H   0  0  0  0  0  0  0  0  0  0  0  0
   37.0165   26.2730   40.7142 H   0  0  0  0  0  0  0  0  0  0  0  0
   36.1070   28.5507   41.0214 H   0  0  0  0  0  0  0  0  0  0  0  0
   35.5400   29.1966   39.0497 H   0  0  0  0  0  0  0  0  0  0  0  0
   35.9770   29.6316   36.6652 H   0  0  0  0  0  0  0  0  0  0  0  0
   40.8185   30.5093   37.1602 H   0  0  0  0  0  0  0  0  0  0  0  0
   41.8582   29.5103   38.2638 H   0  0  0  0  0  0  0  0  0  0  0  0
   41.8569   29.5683   35.2448 H   0  0  0  0  0  0  0  0  0  0  0  0
   43.1595   30.0909   36.4147 H   0  0  0  0  0  0  0  0  0  0  0  0
   42.9795   27.7544   35.1896 H   0  0  0  0  0  0  0  0  0  0  0  0
   42.5293   26.0757   36.5729 H   0  0  0  0  0  0  0  0  0  0  0  0
   42.4563   27.2373   37.9839 H   0  0  0  0  0  0  0  0  0  0  0  0
   40.4230   27.0778   35.7313 H   0  0  0  0  0  0  0  0  0  0  0  0
   40.2107   26.3770   37.3493 H   0  0  0  0  0  0  0  0  0  0  0  0
  1  2  2  0
  3  2  1  0
  3  8  1  0
  4  3  2  0
  5  6  2  0
  5  4  1  0
  6  1  1  0
  7  5  1  0
  8  9  1  0
  9 10  1  0
 11 10  1  0
 12 11  1  0
 13 12  1  0
 13  8  1  0
 14 13  1  0
 15 14  2  0
 16 15  1  0
 17 16  2  0
 17 18  1  0
 18 19  2  0
 19 14  1  0
 20 21  1  0
 20 18  1  0
 22 21  1  0
 23 22  1  0
 23 24  1  0
 25 24  1  0
 25 20  1  0
  1 26  1  0
  2 27  1  0
  7 28  1  0
  7 29  1  0
  9 30  1  0
  9 31  1  0
 10 32  1  0
 10 33  1  0
 11 34  1  0
 12 35  1  0
 12 36  1  0
 13 37  1  6
 15 38  1  0
 16 39  1  0
 21 40  1  0
 21 41  1  0
 22 42  1  0
 22 43  1  0
 23 44  1  0
 24 45  1  0
 24 46  1  0
 25 47  1  0
 25 48  1  0
M  ISO  8  26  14  27  14  30  13  31  13  32  13  33  13  34   5  35  13
M  ISO  8  36  13  37  13  38  14  39  14  40  13  41  13  42  13  43  13
M  ISO  5  44   5  45  13  46  13  47  13  48  13
M  END
>  <minimizedAffinity>  (1) 
-6.1306529

>  <minimizedRMSD>  (1) 
1.37427926

$$$$
