
     RDKit          3D

 37 40  0  0  0  0  0  0  0  0999 V2000
   37.4080   28.6860   42.9370 C   0  0  0  0  0  0  0  0  0  0  0  0
   38.3950   29.6890   43.0410 C   0  0  0  0  0  0  0  0  0  0  0  0
   38.5440   30.5810   41.9770 C   0  0  0  0  0  0  0  0  0  0  0  0
   37.7230   30.4200   40.9050 N   0  0  0  0  0  0  0  0  0  0  0  0
   36.7910   29.4520   40.8360 C   0  0  0  0  0  0  0  0  0  0  0  0
   36.6290   28.5850   41.8430 N   0  0  0  0  0  0  0  0  0  0  0  0
   35.9730   29.3620   39.6650 N   0  0  0  0  0  0  0  0  0  0  0  0
   34.6890   29.0880   39.7490 N   0  0  0  0  0  0  0  0  0  0  0  0
   34.0990   29.0470   38.5630 C   0  0  0  0  0  0  0  0  0  0  0  0
   35.0840   29.3170   37.6450 C   0  0  0  0  0  0  0  0  0  0  0  0
   36.2510   29.5120   38.3520 C   0  0  0  0  0  0  0  0  0  0  0  0
   37.5970   29.8180   38.0110 N   0  0  0  0  0  0  0  0  0  0  0  0
   38.3810   28.7060   37.8830 C   0  0  0  0  0  0  0  0  0  0  0  0
   39.7080   28.8520   37.5550 C   0  0  0  0  0  0  0  0  0  0  0  0
   40.2360   30.1020   37.3580 C   0  0  0  0  0  0  0  0  0  0  0  0
   41.5970   30.3080   37.0190 N   0  0  0  0  0  0  0  0  0  0  0  0
   39.4270   31.1890   37.4940 N   0  0  0  0  0  0  0  0  0  0  0  0
   38.1330   31.0430   37.8140 C   0  0  0  0  0  0  0  0  0  0  0  0
   37.3080   31.9940   37.9600 O   0  0  0  0  0  0  0  0  0  0  0  0
   40.5840   27.7430   37.4040 N   0  0  0  0  0  0  0  0  0  0  0  0
   40.5000   26.6630   36.5900 C   0  0  0  0  0  0  0  0  0  0  0  0
   41.5790   25.8530   36.7930 N   0  0  0  0  0  0  0  0  0  0  0  0
   42.3210   26.4420   37.7340 C   0  0  0  0  0  0  0  0  0  0  0  0
   41.6980   27.5720   38.0820 N   0  0  0  0  0  0  0  0  0  0  0  0
   37.2360   27.7350   44.0510 C   0  0  0  0  0  0  0  0  0  0  0  0
   36.7490   28.3500   45.1790 F   0  0  0  0  0  0  0  0  0  0  0  0
   38.4580   27.0820   44.3280 F   0  0  0  0  0  0  0  0  0  0  0  0
   36.3350   26.7600   43.6420 F   0  0  0  0  0  0  0  0  0  0  0  0
   39.0299   29.7662   43.9360 H   0  0  0  0  0  0  0  0  0  0  0  0
   39.2964   31.3829   42.0049 H   0  0  0  0  0  0  0  0  0  0  0  0
   33.0387   28.8394   38.3565 H   0  0  0  0  0  0  0  0  0  0  0  0
   34.9644   29.3680   36.5527 H   0  0  0  0  0  0  0  0  0  0  0  0
   37.9546   27.7044   38.0408 H   0  0  0  0  0  0  0  0  0  0  0  0
   42.2285   29.5015   36.9106 H   0  0  0  0  0  0  0  0  0  0  0  0
   41.9544   31.2641   36.8811 H   0  0  0  0  0  0  0  0  0  0  0  0
   39.6867   26.4691   35.8752 H   0  0  0  0  0  0  0  0  0  0  0  0
   43.2692   26.0667   38.1463 H   0  0  0  0  0  0  0  0  0  0  0  0
  1  2  2  0
  1 25  1  0
  3  2  1  0
  4  3  2  0
  5  4  1  0
  5  6  2  0
  6  1  1  0
  7  8  1  0
  7  5  1  0
  9  8  2  0
 10 11  2  0
 10  9  1  0
 11  7  1  0
 12 11  1  0
 13 12  1  0
 14 13  2  0
 15 17  2  0
 15 14  1  0
 16 15  1  0
 17 18  1  0
 18 19  2  0
 18 12  1  0
 20 14  1  0
 20 24  1  0
 21 22  2  0
 21 20  1  0
 22 23  1  0
 23 24  2  0
 25 27  1  0
 25 26  1  0
 28 25  1  0
  2 29  1  0
  3 30  1  0
  9 31  1  0
 10 32  1  0
 13 33  1  0
 16 34  1  0
 16 35  1  0
 21 36  1  0
 23 37  1  0
M  ISO  7  29  14  30  14  31  14  32  14  33  14  36  14  37  14
M  END
>  <minimizedAffinity>  (1) 
-6.12514496

>  <minimizedRMSD>  (1) 
0.322124809

$$$$
