
     RDKit          3D

 40 42  0  0  0  0  0  0  0  0999 V2000
   37.4110   28.6770   42.9180 C   0  0  0  0  0  0  0  0  0  0  0  0
   38.3930   29.6950   43.0270 C   0  0  0  0  0  0  0  0  0  0  0  0
   38.5370   30.6000   41.9650 C   0  0  0  0  0  0  0  0  0  0  0  0
   37.7090   30.4280   40.8910 N   0  0  0  0  0  0  0  0  0  0  0  0
   36.7880   29.4470   40.8270 C   0  0  0  0  0  0  0  0  0  0  0  0
   36.6340   28.5780   41.8240 N   0  0  0  0  0  0  0  0  0  0  0  0
   35.9740   29.3610   39.6530 N   0  0  0  0  0  0  0  0  0  0  0  0
   34.6890   29.0760   39.7410 N   0  0  0  0  0  0  0  0  0  0  0  0
   34.1040   29.0430   38.5420 C   0  0  0  0  0  0  0  0  0  0  0  0
   35.0770   29.3230   37.6360 C   0  0  0  0  0  0  0  0  0  0  0  0
   36.2550   29.5240   38.3340 C   0  0  0  0  0  0  0  0  0  0  0  0
   37.6020   29.8420   37.9960 N   0  0  0  0  0  0  0  0  0  0  0  0
   38.3830   28.7310   37.8420 C   0  0  0  0  0  0  0  0  0  0  0  0
   39.7170   28.8860   37.5120 C   0  0  0  0  0  0  0  0  0  0  0  0
   40.2310   30.1670   37.3440 C   0  0  0  0  0  0  0  0  0  0  0  0
   41.5820   30.3640   37.0090 N   0  0  0  0  0  0  0  0  0  0  0  0
   39.4090   31.2480   37.5090 N   0  0  0  0  0  0  0  0  0  0  0  0
   38.1250   31.0590   37.8290 C   0  0  0  0  0  0  0  0  0  0  0  0
   37.2940   32.0100   38.0000 O   0  0  0  0  0  0  0  0  0  0  0  0
   40.5940   27.7210   37.3370 C   0  0  0  0  0  0  0  0  0  0  0  0
   39.9990   26.5820   36.5940 C   0  0  0  0  0  0  0  0  0  0  0  0
   40.9780   27.2390   38.7370 C   0  0  0  0  0  0  0  0  0  0  0  0
   37.2550   27.7260   44.0320 C   0  0  0  0  0  0  0  0  0  0  0  0
   36.7540   28.3310   45.1590 F   0  0  0  0  0  0  0  0  0  0  0  0
   38.4690   27.0840   44.3090 F   0  0  0  0  0  0  0  0  0  0  0  0
   36.3580   26.7500   43.6230 F   0  0  0  0  0  0  0  0  0  0  0  0
   39.0264   29.7728   43.9230 H   0  0  0  0  0  0  0  0  0  0  0  0
   39.2809   31.4097   41.9950 H   0  0  0  0  0  0  0  0  0  0  0  0
   33.0456   28.8314   38.3297 H   0  0  0  0  0  0  0  0  0  0  0  0
   34.9512   29.3797   36.5447 H   0  0  0  0  0  0  0  0  0  0  0  0
   37.9560   27.7265   37.9788 H   0  0  0  0  0  0  0  0  0  0  0  0
   42.2050   29.5534   36.8837 H   0  0  0  0  0  0  0  0  0  0  0  0
   41.9489   31.3189   36.8889 H   0  0  0  0  0  0  0  0  0  0  0  0
   41.4476   28.0515   36.7269 H   0  0  0  0  0  0  0  0  0  0  0  0
   39.6117   25.8405   37.3083 H   0  0  0  0  0  0  0  0  0  0  0  0
   39.1761   26.9466   35.9616 H   0  0  0  0  0  0  0  0  0  0  0  0
   40.7683   26.1148   35.9616 H   0  0  0  0  0  0  0  0  0  0  0  0
   40.4786   27.8659   39.4904 H   0  0  0  0  0  0  0  0  0  0  0  0
   40.6633   26.1926   38.8637 H   0  0  0  0  0  0  0  0  0  0  0  0
   42.0682   27.3119   38.8637 H   0  0  0  0  0  0  0  0  0  0  0  0
  1  2  2  0
  1 23  1  0
  3  2  1  0
  4  3  2  0
  5  4  1  0
  5  6  2  0
  6  1  1  0
  7  8  1  0
  7  5  1  0
  9  8  2  0
 10 11  2  0
 10  9  1  0
 11  7  1  0
 12 11  1  0
 13 12  1  0
 14 13  2  0
 15 17  2  0
 15 14  1  0
 16 15  1  0
 17 18  1  0
 18 12  1  0
 18 19  2  0
 20 14  1  0
 20 22  1  0
 21 20  1  0
 23 25  1  0
 23 24  1  0
 26 23  1  0
  2 27  1  0
  3 28  1  0
  9 29  1  0
 10 30  1  0
 13 31  1  0
 16 32  1  0
 16 33  1  0
 20 34  1  0
 21 35  1  0
 21 36  1  0
 21 37  1  0
 22 38  1  0
 22 39  1  0
 22 40  1  0
M  ISO  8  27  14  28  14  29  14  30  14  31  14  34   8  35   8  36   8
M  ISO  4  37   8  38   8  39   8  40   8
M  END
>  <minimizedAffinity>  (1) 
-6.0848031

>  <minimizedRMSD>  (1) 
0.188901499

$$$$
