
     RDKit          3D

 34 36  0  0  0  0  0  0  0  0999 V2000
   37.4570   28.6610   42.8900 C   0  0  0  0  0  0  0  0  0  0  0  0
   38.4010   29.7180   43.0400 C   0  0  0  0  0  0  0  0  0  0  0  0
   38.5200   30.6480   42.0060 C   0  0  0  0  0  0  0  0  0  0  0  0
   37.7230   30.4870   40.9120 N   0  0  0  0  0  0  0  0  0  0  0  0
   36.8380   29.4640   40.8140 C   0  0  0  0  0  0  0  0  0  0  0  0
   36.6970   28.5560   41.7830 N   0  0  0  0  0  0  0  0  0  0  0  0
   36.0400   29.3740   39.6230 N   0  0  0  0  0  0  0  0  0  0  0  0
   34.7750   29.0360   39.6790 N   0  0  0  0  0  0  0  0  0  0  0  0
   34.1990   29.0060   38.4770 C   0  0  0  0  0  0  0  0  0  0  0  0
   35.1770   29.3510   37.5970 C   0  0  0  0  0  0  0  0  0  0  0  0
   36.3280   29.5810   38.3180 C   0  0  0  0  0  0  0  0  0  0  0  0
   37.6640   29.9630   38.0050 N   0  0  0  0  0  0  0  0  0  0  0  0
   38.5040   28.8920   37.8630 C   0  0  0  0  0  0  0  0  0  0  0  0
   39.8340   29.1190   37.5570 C   0  0  0  0  0  0  0  0  0  0  0  0
   40.2850   30.4100   37.4020 C   0  0  0  0  0  0  0  0  0  0  0  0
   41.6440   30.6640   37.0890 N   0  0  0  0  0  0  0  0  0  0  0  0
   39.4210   31.4530   37.5500 N   0  0  0  0  0  0  0  0  0  0  0  0
   38.1280   31.2050   37.8480 C   0  0  0  0  0  0  0  0  0  0  0  0
   37.2610   32.1170   38.0010 O   0  0  0  0  0  0  0  0  0  0  0  0
   40.8000   28.0150   37.3910 C   0  0  0  0  0  0  0  0  0  0  0  0
   40.1660   26.7980   37.2160 F   0  0  0  0  0  0  0  0  0  0  0  0
   41.4760   28.2650   36.1920 F   0  0  0  0  0  0  0  0  0  0  0  0
   41.7110   28.0110   38.4130 F   0  0  0  0  0  0  0  0  0  0  0  0
   37.3250   27.6750   43.9780 C   0  0  0  0  0  0  0  0  0  0  0  0
   36.7770   28.2320   45.1120 F   0  0  0  0  0  0  0  0  0  0  0  0
   38.5620   27.0810   44.2570 F   0  0  0  0  0  0  0  0  0  0  0  0
   36.4780   26.6750   43.5300 F   0  0  0  0  0  0  0  0  0  0  0  0
   39.0192   29.7988   43.9462 H   0  0  0  0  0  0  0  0  0  0  0  0
   39.2331   31.4829   42.0718 H   0  0  0  0  0  0  0  0  0  0  0  0
   33.1533   28.7551   38.2457 H   0  0  0  0  0  0  0  0  0  0  0  0
   35.0683   29.4319   36.5054 H   0  0  0  0  0  0  0  0  0  0  0  0
   38.1275   27.8663   37.9902 H   0  0  0  0  0  0  0  0  0  0  0  0
   42.3018   29.8795   36.9759 H   0  0  0  0  0  0  0  0  0  0  0  0
   41.9737   31.6331   36.9746 H   0  0  0  0  0  0  0  0  0  0  0  0
  1  2  2  0
  1 24  1  0
  3  2  1  0
  4  3  2  0
  5  4  1  0
  5  6  2  0
  6  1  1  0
  7  8  1  0
  7  5  1  0
  9  8  2  0
 10 11  2  0
 10  9  1  0
 11  7  1  0
 12 11  1  0
 13 12  1  0
 14 13  2  0
 15 17  2  0
 15 14  1  0
 16 15  1  0
 17 18  1  0
 18 19  2  0
 18 12  1  0
 20 14  1  0
 20 23  1  0
 21 20  1  0
 22 20  1  0
 24 26  1  0
 24 25  1  0
 27 24  1  0
  2 28  1  0
  3 29  1  0
  9 30  1  0
 10 31  1  0
 13 32  1  0
 16 33  1  0
 16 34  1  0
M  ISO  5  28  14  29  14  30  14  31  14  32  14
M  END
>  <minimizedAffinity>  (1) 
-6.04713058

>  <minimizedRMSD>  (1) 
0.211515233

$$$$
