
     RDKit          3D

 38 40  0  0  0  0  0  0  0  0999 V2000
   37.4110   28.7020   42.9530 C   0  0  0  0  0  0  0  0  0  0  0  0
   38.4050   29.7100   43.0540 C   0  0  0  0  0  0  0  0  0  0  0  0
   38.5500   30.5960   41.9800 C   0  0  0  0  0  0  0  0  0  0  0  0
   37.7270   30.4270   40.9120 N   0  0  0  0  0  0  0  0  0  0  0  0
   36.7980   29.4580   40.8570 C   0  0  0  0  0  0  0  0  0  0  0  0
   36.6320   28.5930   41.8670 N   0  0  0  0  0  0  0  0  0  0  0  0
   35.9790   29.3680   39.6800 N   0  0  0  0  0  0  0  0  0  0  0  0
   34.6930   29.0950   39.7720 N   0  0  0  0  0  0  0  0  0  0  0  0
   34.1070   29.0540   38.5820 C   0  0  0  0  0  0  0  0  0  0  0  0
   35.0830   29.3180   37.6630 C   0  0  0  0  0  0  0  0  0  0  0  0
   36.2630   29.5160   38.3630 C   0  0  0  0  0  0  0  0  0  0  0  0
   37.6150   29.8180   38.0190 N   0  0  0  0  0  0  0  0  0  0  0  0
   38.3960   28.6970   37.9320 C   0  0  0  0  0  0  0  0  0  0  0  0
   39.7230   28.8070   37.6100 C   0  0  0  0  0  0  0  0  0  0  0  0
   40.2330   30.0860   37.3810 C   0  0  0  0  0  0  0  0  0  0  0  0
   41.6050   30.2770   37.0420 N   0  0  0  0  0  0  0  0  0  0  0  0
   39.4300   31.1710   37.4760 N   0  0  0  0  0  0  0  0  0  0  0  0
   38.1390   31.0240   37.7920 C   0  0  0  0  0  0  0  0  0  0  0  0
   37.3080   31.9800   37.9050 O   0  0  0  0  0  0  0  0  0  0  0  0
   40.6430   27.7320   37.4940 N   0  0  0  0  0  0  0  0  0  0  0  0
   40.2480   26.4060   37.1740 C   0  0  0  0  0  0  0  0  0  0  0  0
   39.3610   26.2500   36.2580 N   0  0  0  0  0  0  0  0  0  0  0  0
   40.8070   25.2800   37.8300 N   0  0  0  0  0  0  0  0  0  0  0  0
   38.9730   25.3690   35.9130 H   0  0  0  0  0  0  0  0  0  0  0  0
   37.2360   27.7530   44.0730 C   0  0  0  0  0  0  0  0  0  0  0  0
   36.7480   28.3690   45.1960 F   0  0  0  0  0  0  0  0  0  0  0  0
   38.4480   27.0980   44.3540 F   0  0  0  0  0  0  0  0  0  0  0  0
   36.3170   26.7800   43.6710 F   0  0  0  0  0  0  0  0  0  0  0  0
   39.0411   29.7924   43.9476 H   0  0  0  0  0  0  0  0  0  0  0  0
   39.3018   31.3988   41.9998 H   0  0  0  0  0  0  0  0  0  0  0  0
   33.0462   28.8483   38.3763 H   0  0  0  0  0  0  0  0  0  0  0  0
   34.9561   29.3647   36.5713 H   0  0  0  0  0  0  0  0  0  0  0  0
   37.9572   27.7062   38.1210 H   0  0  0  0  0  0  0  0  0  0  0  0
   42.2341   29.4652   36.9643 H   0  0  0  0  0  0  0  0  0  0  0  0
   41.9668   31.2268   36.8749 H   0  0  0  0  0  0  0  0  0  0  0  0
   41.6432   27.9226   37.6491 H   0  0  0  0  0  0  0  0  0  0  0  0
   40.4996   24.3305   37.5754 H   0  0  0  0  0  0  0  0  0  0  0  0
   41.5205   25.4116   38.5611 H   0  0  0  0  0  0  0  0  0  0  0  0
  1  2  2  0
  1 25  1  0
  3  2  1  0
  4  3  2  0
  5  4  1  0
  5  6  2  0
  6  1  1  0
  7  8  1  0
  7  5  1  0
  9  8  2  0
 10 11  2  0
 10  9  1  0
 11  7  1  0
 12 11  1  0
 13 12  1  0
 14 13  2  0
 15 17  2  0
 15 14  1  0
 16 15  1  0
 17 18  1  0
 18 19  2  0
 18 12  1  0
 20 14  1  0
 21 20  1  0
 21 23  1  0
 22 21  2  0
 24 22  1  0
 25 27  1  0
 25 26  1  0
 28 25  1  0
  2 29  1  0
  3 30  1  0
  9 31  1  0
 10 32  1  0
 13 33  1  0
 16 34  1  0
 16 35  1  0
 20 36  1  0
 23 37  1  0
 23 38  1  0
M  ISO  5  29  14  30  14  31  14  32  14  33  14
M  END
>  <minimizedAffinity>  (1) 
-6.01570177

>  <minimizedRMSD>  (1) 
0.328056425

$$$$
