
     RDKit          3D

 33 35  0  0  1  0  0  0  0  0999 V2000
   36.7260   30.7330   41.1870 C   0  0  0  0  0  0  0  0  0  0  0  0
   37.5970   29.8500   41.8410 C   0  0  0  0  0  0  0  0  0  0  0  0
   37.3040   28.4740   41.7980 C   0  0  0  0  0  0  0  0  0  0  0  0
   36.1880   28.0640   41.1210 N   0  0  0  0  0  0  0  0  0  0  0  0
   35.3850   28.9660   40.5080 C   0  0  0  0  0  0  0  0  0  0  0  0
   35.6550   30.2970   40.5410 N   0  0  0  0  0  0  0  0  0  0  0  0
   38.1060   27.4810   42.4270 N   0  0  0  0  0  0  0  0  0  0  0  0
   38.3720   27.3370   43.8480 C   0  0  0  0  0  0  0  0  0  0  0  0
   39.6620   26.5600   43.8780 C   0  0  0  0  0  0  0  0  0  0  0  0
   39.4750   25.6110   42.7230 C   0  0  0  0  0  0  0  0  0  0  0  0
   38.7730   26.4610   41.6990 C   0  0  1  0  0  0  0  0  0  0  0  0
   37.9390   25.7260   40.7930 N   0  0  0  0  0  0  0  0  0  0  0  0
   38.0010   25.8500   39.4600 C   0  0  0  0  0  0  0  0  0  0  0  0
   37.1810   25.1270   38.6100 C   0  0  0  0  0  0  0  0  0  0  0  0
   36.2640   24.2470   39.1140 C   0  0  0  0  0  0  0  0  0  0  0  0
   35.3510   23.4290   38.4120 N   0  0  0  0  0  0  0  0  0  0  0  0
   36.1900   24.1120   40.4500 N   0  0  0  0  0  0  0  0  0  0  0  0
   37.0150   24.8420   41.2460 C   0  0  0  0  0  0  0  0  0  0  0  0
   36.9520   24.7220   42.5130 O   0  0  0  0  0  0  0  0  0  0  0  0
   36.9369   31.8123   41.2110 H   0  0  0  0  0  0  0  0  0  0  0  0
   38.4848   30.2224   42.3730 H   0  0  0  0  0  0  0  0  0  0  0  0
   34.4928   28.6124   39.9705 H   0  0  0  0  0  0  0  0  0  0  0  0
   38.4915   28.3192   44.3287 H   0  0  0  0  0  0  0  0  0  0  0  0
   37.5555   26.8398   44.3922 H   0  0  0  0  0  0  0  0  0  0  0  0
   40.5297   27.2174   43.7201 H   0  0  0  0  0  0  0  0  0  0  0  0
   39.8600   26.0608   44.8380 H   0  0  0  0  0  0  0  0  0  0  0  0
   40.4437   25.2537   42.3437 H   0  0  0  0  0  0  0  0  0  0  0  0
   38.9140   24.7041   42.9927 H   0  0  0  0  0  0  0  0  0  0  0  0
   39.4985   26.9063   41.0023 H   0  0  0  0  0  0  0  0  0  0  0  0
   38.7291   26.5509   39.0257 H   0  0  0  0  0  0  0  0  0  0  0  0
   37.2680   25.2616   37.5217 H   0  0  0  0  0  0  0  0  0  0  0  0
   34.7125   22.8082   38.9295 H   0  0  0  0  0  0  0  0  0  0  0  0
   35.3238   23.4534   37.3826 H   0  0  0  0  0  0  0  0  0  0  0  0
  1  2  2  0
  3  2  1  0
  3  7  1  0
  4  3  2  0
  5  6  2  0
  5  4  1  0
  6  1  1  0
  7  8  1  0
  8  9  1  0
 10  9  1  0
 11  7  1  0
 11 10  1  0
 12 18  1  0
 12 11  1  0
 13 12  1  0
 14 15  1  0
 14 13  2  0
 15 17  2  0
 16 15  1  0
 17 18  1  0
 18 19  2  0
  1 20  1  0
  2 21  1  0
  5 22  1  0
  8 23  1  0
  8 24  1  0
  9 25  1  0
  9 26  1  0
 10 27  1  0
 10 28  1  0
 11 29  1  6
 13 30  1  0
 14 31  1  0
 16 32  1  0
 16 33  1  0
M  ISO  8  20  14  21  14  22  14  23  13  24  13  25  13  26  13  27  13
M  ISO  4  28  13  29  13  30  14  31  14
M  END
>  <minimizedAffinity>  (1) 
-4.95172024

>  <minimizedRMSD>  (1) 
0.478807628

$$$$
