
     RDKit          3D

 37 39  0  0  1  0  0  0  0  0999 V2000
   36.8810   30.7450   41.1050 C   0  0  0  0  0  0  0  0  0  0  0  0
   37.7010   29.8430   41.7930 C   0  0  0  0  0  0  0  0  0  0  0  0
   37.3270   28.5090   41.9070 C   0  0  0  0  0  0  0  0  0  0  0  0
   36.1670   28.1700   41.3290 N   0  0  0  0  0  0  0  0  0  0  0  0
   35.3710   29.0230   40.6680 C   0  0  0  0  0  0  0  0  0  0  0  0
   35.7350   30.3300   40.5540 N   0  0  0  0  0  0  0  0  0  0  0  0
   38.0930   27.5350   42.5840 N   0  0  0  0  0  0  0  0  0  0  0  0
   38.4880   27.5220   43.9840 C   0  0  0  0  0  0  0  0  0  0  0  0
   39.7110   26.6130   43.9550 C   0  0  0  0  0  0  0  0  0  0  0  0
   39.2770   25.5630   42.9710 C   0  0  0  0  0  0  0  0  0  0  0  0
   38.6060   26.3870   41.9380 C   0  0  1  0  0  0  0  0  0  0  0  0
   37.7910   25.6910   41.0070 N   0  0  0  0  0  0  0  0  0  0  0  0
   38.5960   25.2840   39.8750 C   0  0  0  0  0  0  0  0  0  0  0  0
   38.3620   23.8460   39.4810 C   0  0  0  0  0  0  0  0  0  0  0  0
   36.8530   23.7650   39.2080 C   0  0  0  0  0  0  0  0  0  0  0  0
   36.1830   23.8860   40.5590 C   0  0  0  0  0  0  0  0  0  0  0  0
   37.0110   24.6300   41.5540 C   0  0  0  0  0  0  0  0  0  0  0  0
   37.1804   31.7998   41.0171 H   0  0  0  0  0  0  0  0  0  0  0  0
   38.6424   30.1901   42.2439 H   0  0  0  0  0  0  0  0  0  0  0  0
   34.4303   28.6692   40.2209 H   0  0  0  0  0  0  0  0  0  0  0  0
   38.7475   28.5313   44.3362 H   0  0  0  0  0  0  0  0  0  0  0  0
   37.6959   27.1811   44.6670 H   0  0  0  0  0  0  0  0  0  0  0  0
   40.6035   27.1506   43.6023 H   0  0  0  0  0  0  0  0  0  0  0  0
   39.9990   26.2152   44.9393 H   0  0  0  0  0  0  0  0  0  0  0  0
   40.1391   25.0208   42.5553 H   0  0  0  0  0  0  0  0  0  0  0  0
   38.6388   24.7786   43.4038 H   0  0  0  0  0  0  0  0  0  0  0  0
   39.3325   26.7384   41.1905 H   0  0  0  0  0  0  0  0  0  0  0  0
   38.3496   25.9282   39.0181 H   0  0  0  0  0  0  0  0  0  0  0  0
   39.6523   25.3811   40.1664 H   0  0  0  0  0  0  0  0  0  0  0  0
   38.9352   23.5919   38.5772 H   0  0  0  0  0  0  0  0  0  0  0  0
   38.6854   23.1400   40.2601 H   0  0  0  0  0  0  0  0  0  0  0  0
   36.5382   24.5877   38.5492 H   0  0  0  0  0  0  0  0  0  0  0  0
   36.5824   22.8252   38.7044 H   0  0  0  0  0  0  0  0  0  0  0  0
   35.2278   24.4163   40.4308 H   0  0  0  0  0  0  0  0  0  0  0  0
   36.0369   22.8672   40.9473 H   0  0  0  0  0  0  0  0  0  0  0  0
   37.6949   23.9144   42.0339 H   0  0  0  0  0  0  0  0  0  0  0  0
   36.3058   25.0948   42.2588 H   0  0  0  0  0  0  0  0  0  0  0  0
  1  2  2  0
  2  3  1  0
  3  7  1  0
  4  3  2  0
  5  4  1  0
  6  5  2  0
  6  1  1  0
  7  8  1  0
  9  8  1  0
 10  9  1  0
 11  7  1  0
 11 10  1  0
 12 17  1  0
 12 11  1  0
 13 12  1  0
 14 13  1  0
 15 14  1  0
 15 16  1  0
 16 17  1  0
  1 18  1  0
  2 19  1  0
  5 20  1  0
  8 21  1  0
  8 22  1  0
  9 23  1  0
  9 24  1  0
 10 25  1  0
 10 26  1  0
 11 27  1  6
 13 28  1  0
 13 29  1  0
 14 30  1  0
 14 31  1  0
 15 32  1  0
 15 33  1  0
 16 34  1  0
 16 35  1  0
 17 36  1  0
 17 37  1  0
M  ISO  8  18  14  19  14  20  14  21  13  22  13  23  13  24  13  25  13
M  ISO  8  26  13  27  13  28  13  29  13  30  13  31  13  32  13  33  13
M  ISO  4  34  13  35  13  36  13  37  13
M  END
>  <minimizedAffinity>  (1) 
-4.7951045

>  <minimizedRMSD>  (1) 
1.34620929

$$$$
