
     RDKit          3D

 25 26  0  0  1  0  0  0  0  0999 V2000
   36.9700   30.7170   41.0060 C   0  0  0  0  0  0  0  0  0  0  0  0
   37.8130   29.8220   41.7010 C   0  0  0  0  0  0  0  0  0  0  0  0
   37.3410   28.5020   41.8730 C   0  0  0  0  0  0  0  0  0  0  0  0
   36.1270   28.2160   41.3570 N   0  0  0  0  0  0  0  0  0  0  0  0
   35.3560   29.0930   40.7030 C   0  0  0  0  0  0  0  0  0  0  0  0
   35.7840   30.3550   40.5270 N   0  0  0  0  0  0  0  0  0  0  0  0
   38.0710   27.4830   42.5500 N   0  0  0  0  0  0  0  0  0  0  0  0
   38.5210   27.4900   43.9250 C   0  0  0  0  0  0  0  0  0  0  0  0
   39.7130   26.5460   43.8840 C   0  0  0  0  0  0  0  0  0  0  0  0
   39.1890   25.4710   42.9660 C   0  0  0  0  0  0  0  0  0  0  0  0
   38.4620   26.2690   41.9090 C   0  0  1  0  0  0  0  0  0  0  0  0
   37.3780   25.4770   41.3220 C   0  0  0  0  0  0  0  0  0  0  0  0
   36.8130   24.5410   41.9680 O   0  0  0  0  0  0  0  0  0  0  0  0
   36.6610   25.4010   40.1160 O   0  0  0  0  0  0  0  0  0  0  0  0
   37.3077   31.7530   40.8553 H   0  0  0  0  0  0  0  0  0  0  0  0
   38.7919   30.1384   42.0903 H   0  0  0  0  0  0  0  0  0  0  0  0
   34.3762   28.7824   40.3112 H   0  0  0  0  0  0  0  0  0  0  0  0
   38.8238   28.4997   44.2394 H   0  0  0  0  0  0  0  0  0  0  0  0
   37.7447   27.1864   44.6428 H   0  0  0  0  0  0  0  0  0  0  0  0
   40.6042   27.0368   43.4657 H   0  0  0  0  0  0  0  0  0  0  0  0
   40.0418   26.1838   44.8692 H   0  0  0  0  0  0  0  0  0  0  0  0
   40.0116   24.8871   42.5275 H   0  0  0  0  0  0  0  0  0  0  0  0
   38.5510   24.7331   43.4743 H   0  0  0  0  0  0  0  0  0  0  0  0
   39.0827   26.5234   41.0372 H   0  0  0  0  0  0  0  0  0  0  0  0
   35.9454   24.7255   40.0073 H   0  0  0  0  0  0  0  0  0  0  0  0
  1  2  2  0
  2  3  1  0
  3  7  1  0
  4  3  2  0
  5  4  1  0
  6  5  2  0
  6  1  1  0
  7  8  1  0
  9  8  1  0
 10  9  1  0
 11  7  1  0
 11 10  1  0
 12 11  1  0
 12 13  2  0
 14 12  1  0
  1 15  1  0
  2 16  1  0
  5 17  1  0
  8 18  1  0
  8 19  1  0
  9 20  1  0
  9 21  1  0
 10 22  1  0
 10 23  1  0
 11 24  1  6
 14 25  1  0
M  ISO  8  15  14  16  14  17  14  18  13  19  13  20  13  21  13  22  13
M  ISO  3  23  13  24  13  25   3
M  END
>  <minimizedAffinity>  (1) 
-4.16579342

>  <minimizedRMSD>  (1) 
0.451330692

$$$$
