
     RDKit          3D

 23 24  0  0  1  0  0  0  0  0999 V2000
   36.7940   30.7540   41.1770 C   0  0  0  0  0  0  0  0  0  0  0  0
   37.6330   29.8560   41.8480 C   0  0  0  0  0  0  0  0  0  0  0  0
   37.3010   28.5030   41.8730 C   0  0  0  0  0  0  0  0  0  0  0  0
   36.1580   28.1400   41.2320 N   0  0  0  0  0  0  0  0  0  0  0  0
   35.3730   29.0270   40.5990 C   0  0  0  0  0  0  0  0  0  0  0  0
   35.6910   30.3440   40.5690 N   0  0  0  0  0  0  0  0  0  0  0  0
   38.0730   27.5060   42.5180 N   0  0  0  0  0  0  0  0  0  0  0  0
   38.4500   27.4170   43.9010 C   0  0  0  0  0  0  0  0  0  0  0  0
   39.6890   26.5680   43.8840 C   0  0  0  0  0  0  0  0  0  0  0  0
   39.3690   25.5680   42.8110 C   0  0  0  0  0  0  0  0  0  0  0  0
   38.6120   26.3750   41.8030 C   0  0  1  0  0  0  0  0  0  0  0  0
   37.2110   25.4360   41.1000 S   0  0  0  0  0  0  0  0  0  0  0  0
   37.0563   31.8220   41.1543 H   0  0  0  0  0  0  0  0  0  0  0  0
   38.5439   30.2146   42.3497 H   0  0  0  0  0  0  0  0  0  0  0  0
   34.4580   28.6792   40.0972 H   0  0  0  0  0  0  0  0  0  0  0  0
   38.6645   28.4141   44.3131 H   0  0  0  0  0  0  0  0  0  0  0  0
   37.6541   26.9933   44.5311 H   0  0  0  0  0  0  0  0  0  0  0  0
   40.5771   27.1626   43.6239 H   0  0  0  0  0  0  0  0  0  0  0  0
   39.9277   26.1130   44.8567 H   0  0  0  0  0  0  0  0  0  0  0  0
   40.2884   25.1523   42.3729 H   0  0  0  0  0  0  0  0  0  0  0  0
   38.8011   24.7030   43.1842 H   0  0  0  0  0  0  0  0  0  0  0  0
   39.2805   26.6584   40.9767 H   0  0  0  0  0  0  0  0  0  0  0  0
   36.4481   24.9246   42.1165 H   0  0  0  0  0  0  0  0  0  0  0  0
  1  2  2  0
  2  3  1  0
  3  7  1  0
  4  3  2  0
  5  4  1  0
  6  5  2  0
  6  1  1  0
  7  8  1  0
  9  8  1  0
 10  9  1  0
 11  7  1  0
 11 10  1  0
 12 11  1  0
  1 13  1  0
  2 14  1  0
  5 15  1  0
  8 16  1  0
  8 17  1  0
  9 18  1  0
  9 19  1  0
 10 20  1  0
 10 21  1  0
 11 22  1  6
 12 23  1  0
M  ISO  8  13  14  14  14  15  14  16  13  17  13  18  13  19  13  20  13
M  ISO  3  21  13  22  13  23  11
M  END
>  <minimizedAffinity>  (1) 
-3.87744808

>  <minimizedRMSD>  (1) 
0.0213624872

$$$$
