
     RDKit          3D

 47 52  0  0  1  0  0  0  0  0999 V2000
   37.7460   25.5300   41.2480 N   0  0  0  0  0  0  0  0  0  0  0  0
   37.1240   24.4620   41.8170 C   0  0  0  0  0  0  0  0  0  0  0  0
   36.2440   23.8870   41.0070 N   0  0  0  0  0  0  0  0  0  0  0  0
   36.2750   24.5860   39.8660 C   0  0  0  0  0  0  0  0  0  0  0  0
   35.5560   24.4160   38.6910 C   0  0  0  0  0  0  0  0  0  0  0  0
   35.8180   25.3040   37.6960 N   0  0  0  0  0  0  0  0  0  0  0  0
   36.7310   26.2890   37.8660 C   0  0  0  0  0  0  0  0  0  0  0  0
   37.4280   26.4550   39.0030 N   0  0  0  0  0  0  0  0  0  0  0  0
   37.2190   25.6130   40.0280 C   0  0  0  0  0  0  0  0  0  0  0  0
   37.0000   27.2160   36.8180 N   0  0  0  0  0  0  0  0  0  0  0  0
   38.1630   27.5040   36.2060 C   0  0  0  0  0  0  0  0  0  0  0  0
   37.9380   28.4450   35.2710 N   0  0  0  0  0  0  0  0  0  0  0  0
   36.6290   28.7550   35.2930 C   0  0  0  0  0  0  0  0  0  0  0  0
   35.9060   29.6690   34.5220 C   0  0  0  0  0  0  0  0  0  0  0  0
   36.4150   30.3910   33.6250 O   0  0  0  0  0  0  0  0  0  0  0  0
   34.5960   29.7100   34.8260 N   0  0  0  0  0  0  0  0  0  0  0  0
   33.9880   28.9690   35.7690 C   0  0  0  0  0  0  0  0  0  0  0  0
   32.5800   29.1340   35.9680 N   0  0  0  0  0  0  0  0  0  0  0  0
   34.7080   28.0960   36.4970 N   0  0  0  0  0  0  0  0  0  0  0  0
   36.0280   27.9830   36.2670 C   0  0  0  0  0  0  0  0  0  0  0  0
   36.7870   30.6160   41.0140 C   0  0  0  0  0  0  0  0  0  0  0  0
   37.7280   29.7990   41.6540 C   0  0  0  0  0  0  0  0  0  0  0  0
   37.3970   28.4640   41.8690 C   0  0  0  0  0  0  0  0  0  0  0  0
   36.1880   28.0390   41.4480 N   0  0  0  0  0  0  0  0  0  0  0  0
   35.3020   28.8530   40.8340 C   0  0  0  0  0  0  0  0  0  0  0  0
   35.6090   30.1470   40.6200 N   0  0  0  0  0  0  0  0  0  0  0  0
   38.2650   27.5300   42.5070 N   0  0  0  0  0  0  0  0  0  0  0  0
   38.8010   27.6070   43.8570 C   0  0  0  0  0  0  0  0  0  0  0  0
   40.0670   26.7660   43.7650 C   0  0  0  0  0  0  0  0  0  0  0  0
   39.5410   25.6360   42.9130 C   0  0  0  0  0  0  0  0  0  0  0  0
   38.7410   26.3490   41.8730 C   0  0  1  0  0  0  0  0  0  0  0  0
   37.3288   24.1124   42.8397 H   0  0  0  0  0  0  0  0  0  0  0  0
   34.8173   23.6097   38.5720 H   0  0  0  0  0  0  0  0  0  0  0  0
   39.1370   27.0458   36.4326 H   0  0  0  0  0  0  0  0  0  0  0  0
   34.0086   30.3651   34.2905 H   0  0  0  0  0  0  0  0  0  0  0  0
   32.0924   28.5774   36.6845 H   0  0  0  0  0  0  0  0  0  0  0  0
   32.0545   29.8093   35.3947 H   0  0  0  0  0  0  0  0  0  0  0  0
   37.0304   31.6734   40.8332 H   0  0  0  0  0  0  0  0  0  0  0  0
   38.6998   30.2005   41.9771 H   0  0  0  0  0  0  0  0  0  0  0  0
   34.3282   28.4585   40.5082 H   0  0  0  0  0  0  0  0  0  0  0  0
   39.0346   28.6461   44.1320 H   0  0  0  0  0  0  0  0  0  0  0  0
   38.0980   27.2537   44.6258 H   0  0  0  0  0  0  0  0  0  0  0  0
   40.8867   27.3079   43.2706 H   0  0  0  0  0  0  0  0  0  0  0  0
   40.5061   26.4665   44.7281 H   0  0  0  0  0  0  0  0  0  0  0  0
   40.3648   25.0667   42.4577 H   0  0  0  0  0  0  0  0  0  0  0  0
   38.9561   24.8982   43.4818 H   0  0  0  0  0  0  0  0  0  0  0  0
   39.3520   26.6201   40.9994 H   0  0  0  0  0  0  0  0  0  0  0  0
  1  2  1  0
  1 31  1  0
  3  2  2  0
  4  9  2  0
  4  3  1  0
  5  4  1  0
  6  7  1  0
  6  5  2  0
  7  8  2  0
  8  9  1  0
  9  1  1  0
 10  7  1  0
 11 10  1  0
 12 13  1  0
 12 11  2  0
 13 20  2  0
 14 16  1  0
 14 13  1  0
 15 14  2  0
 16 17  1  0
 17 18  1  0
 17 19  2  0
 20 19  1  0
 20 10  1  0
 21 22  2  0
 22 23  1  0
 23 27  1  0
 24 23  2  0
 25 24  1  0
 26 25  2  0
 26 21  1  0
 27 28  1  0
 29 28  1  0
 30 29  1  0
 31 27  1  0
 31 30  1  0
  2 32  1  0
  5 33  1  0
 11 34  1  0
 16 35  1  0
 18 36  1  0
 18 37  1  0
 21 38  1  0
 22 39  1  0
 25 40  1  0
 28 41  1  0
 28 42  1  0
 29 43  1  0
 29 44  1  0
 30 45  1  0
 30 46  1  0
 31 47  1  6
M  ISO  8  32  14  33  14  34  14  35   9  38  14  39  14  40  14  41  13
M  ISO  6  42  13  43  13  44  13  45  13  46  13  47  13
M  END
>  <minimizedAffinity>  (1) 
-6.38084078

>  <minimizedRMSD>  (1) 
1.07751739

$$$$
