
     RDKit          3D

 39 43  0  0  1  0  0  0  0  0999 V2000
   36.7960   30.6700   41.1880 C   0  0  0  0  0  0  0  0  0  0  0  0
   37.6930   29.8120   41.8310 C   0  0  0  0  0  0  0  0  0  0  0  0
   37.3590   28.4600   41.9700 C   0  0  0  0  0  0  0  0  0  0  0  0
   36.1690   28.0840   41.4580 N   0  0  0  0  0  0  0  0  0  0  0  0
   35.3170   28.9310   40.8400 C   0  0  0  0  0  0  0  0  0  0  0  0
   35.6460   30.2330   40.7110 N   0  0  0  0  0  0  0  0  0  0  0  0
   38.1850   27.4960   42.6010 N   0  0  0  0  0  0  0  0  0  0  0  0
   38.6500   27.5000   43.9770 C   0  0  0  0  0  0  0  0  0  0  0  0
   39.9140   26.6470   43.8990 C   0  0  0  0  0  0  0  0  0  0  0  0
   39.4280   25.5620   42.9700 C   0  0  0  0  0  0  0  0  0  0  0  0
   38.6870   26.3460   41.9320 C   0  0  1  0  0  0  0  0  0  0  0  0
   37.7250   25.5780   41.2060 N   0  0  0  0  0  0  0  0  0  0  0  0
   37.1230   24.4360   41.6600 C   0  0  0  0  0  0  0  0  0  0  0  0
   36.2640   23.9140   40.7880 N   0  0  0  0  0  0  0  0  0  0  0  0
   36.2890   24.7270   39.7210 C   0  0  0  0  0  0  0  0  0  0  0  0
   35.5910   24.6650   38.5180 C   0  0  0  0  0  0  0  0  0  0  0  0
   35.8330   25.6530   37.6140 N   0  0  0  0  0  0  0  0  0  0  0  0
   36.7210   26.6320   37.9130 C   0  0  0  0  0  0  0  0  0  0  0  0
   37.3950   26.7060   39.0570 N   0  0  0  0  0  0  0  0  0  0  0  0
   37.2010   25.7550   39.9980 C   0  0  0  0  0  0  0  0  0  0  0  0
   36.8660   27.5900   36.8720 N   0  0  0  0  0  0  0  0  0  0  0  0
   37.1130   27.5370   35.5530 C   0  0  0  0  0  0  0  0  0  0  0  0
   37.1440   28.7980   35.0490 N   0  0  0  0  0  0  0  0  0  0  0  0
   36.9090   29.6460   36.0820 C   0  0  0  0  0  0  0  0  0  0  0  0
   36.7490   28.8690   37.1570 N   0  0  0  0  0  0  0  0  0  0  0  0
   37.0547   31.7334   41.0772 H   0  0  0  0  0  0  0  0  0  0  0  0
   38.6476   30.1940   42.2221 H   0  0  0  0  0  0  0  0  0  0  0  0
   34.3598   28.5609   40.4440 H   0  0  0  0  0  0  0  0  0  0  0  0
   38.8793   28.5209   44.3165 H   0  0  0  0  0  0  0  0  0  0  0  0
   37.9067   27.1194   44.6930 H   0  0  0  0  0  0  0  0  0  0  0  0
   40.7595   27.2052   43.4706 H   0  0  0  0  0  0  0  0  0  0  0  0
   40.3008   26.2950   44.8668 H   0  0  0  0  0  0  0  0  0  0  0  0
   40.2695   25.0090   42.5273 H   0  0  0  0  0  0  0  0  0  0  0  0
   38.8149   24.7958   43.4670 H   0  0  0  0  0  0  0  0  0  0  0  0
   39.3503   26.6611   41.1131 H   0  0  0  0  0  0  0  0  0  0  0  0
   37.3284   23.9942   42.6462 H   0  0  0  0  0  0  0  0  0  0  0  0
   34.8770   23.8550   38.3080 H   0  0  0  0  0  0  0  0  0  0  0  0
   37.2663   26.6160   34.9714 H   0  0  0  0  0  0  0  0  0  0  0  0
   36.8604   30.7442   36.0425 H   0  0  0  0  0  0  0  0  0  0  0  0
  1  2  2  0
  2  3  1  0
  3  7  1  0
  4  3  2  0
  5  4  1  0
  6  5  2  0
  6  1  1  0
  7  8  1  0
  9  8  1  0
 10  9  1  0
 11  7  1  0
 11 10  1  0
 12 13  1  0
 12 11  1  0
 14 13  2  0
 15 20  2  0
 15 14  1  0
 16 15  1  0
 17 18  1  0
 17 16  2  0
 18 19  2  0
 19 20  1  0
 20 12  1  0
 21 25  1  0
 21 18  1  0
 22 21  1  0
 23 22  2  0
 23 24  1  0
 24 25  2  0
  1 26  1  0
  2 27  1  0
  5 28  1  0
  8 29  1  0
  8 30  1  0
  9 31  1  0
  9 32  1  0
 10 33  1  0
 10 34  1  0
 11 35  1  6
 13 36  1  0
 16 37  1  0
 22 38  1  0
 24 39  1  0
M  ISO  8  26  14  27  14  28  14  29  13  30  13  31  13  32  13  33  13
M  ISO  6  34  13  35  13  36  14  37  14  38  14  39  14
M  END
>  <minimizedAffinity>  (1) 
-5.83460617

>  <minimizedRMSD>  (1) 
0.883201361

$$$$
