
     RDKit          3D

 47 52  0  0  1  0  0  0  0  0999 V2000
   37.9020   25.4760   41.2400 N   0  0  0  0  0  0  0  0  0  0  0  0
   37.4250   24.2390   41.5280 C   0  0  0  0  0  0  0  0  0  0  0  0
   36.5650   23.7880   40.6190 N   0  0  0  0  0  0  0  0  0  0  0  0
   36.4670   24.7590   39.6970 C   0  0  0  0  0  0  0  0  0  0  0  0
   35.7320   24.8380   38.5300 C   0  0  0  0  0  0  0  0  0  0  0  0
   35.8540   25.9530   37.7990 N   0  0  0  0  0  0  0  0  0  0  0  0
   36.6620   26.9650   38.1810 C   0  0  0  0  0  0  0  0  0  0  0  0
   37.3750   26.8800   39.3210 N   0  0  0  0  0  0  0  0  0  0  0  0
   37.2990   25.7900   40.0980 C   0  0  0  0  0  0  0  0  0  0  0  0
   36.9350   30.5500   41.5680 C   0  0  0  0  0  0  0  0  0  0  0  0
   37.8300   29.6610   42.1620 C   0  0  0  0  0  0  0  0  0  0  0  0
   37.5050   28.3030   42.1950 C   0  0  0  0  0  0  0  0  0  0  0  0
   36.3250   27.9460   41.6380 N   0  0  0  0  0  0  0  0  0  0  0  0
   35.4700   28.8130   41.0690 C   0  0  0  0  0  0  0  0  0  0  0  0
   35.7820   30.1270   41.0360 N   0  0  0  0  0  0  0  0  0  0  0  0
   38.3270   27.3080   42.7660 N   0  0  0  0  0  0  0  0  0  0  0  0
   38.7660   27.2100   44.1500 C   0  0  0  0  0  0  0  0  0  0  0  0
   40.0450   26.3890   44.0420 C   0  0  0  0  0  0  0  0  0  0  0  0
   39.6020   25.3820   43.0200 C   0  0  0  0  0  0  0  0  0  0  0  0
   38.8550   26.2210   42.0310 C   0  0  1  0  0  0  0  0  0  0  0  0
   36.9340   28.2640   37.5230 C   0  0  0  0  0  0  0  0  0  0  0  0
   36.1890   28.7760   36.5170 N   0  0  0  0  0  0  0  0  0  0  0  0
   36.4220   29.9430   35.9160 C   0  0  0  0  0  0  0  0  0  0  0  0
   37.4530   30.7240   36.2780 N   0  0  0  0  0  0  0  0  0  0  0  0
   38.2490   30.2890   37.2740 C   0  0  0  0  0  0  0  0  0  0  0  0
   39.3010   31.1040   37.6300 C   0  0  0  0  0  0  0  0  0  0  0  0
   40.1610   30.7270   38.6410 C   0  0  0  0  0  0  0  0  0  0  0  0
   39.9070   29.5020   39.2650 C   0  0  0  0  0  0  0  0  0  0  0  0
   38.8360   28.7400   38.8550 C   0  0  0  0  0  0  0  0  0  0  0  0
   37.9780   29.0900   37.8650 C   0  0  0  0  0  0  0  0  0  0  0  0
   37.7191   23.6680   42.4210 H   0  0  0  0  0  0  0  0  0  0  0  0
   35.0721   24.0167   38.2136 H   0  0  0  0  0  0  0  0  0  0  0  0
   37.1817   31.6215   41.5360 H   0  0  0  0  0  0  0  0  0  0  0  0
   38.7739   30.0222   42.5963 H   0  0  0  0  0  0  0  0  0  0  0  0
   34.5248   28.4559   40.6341 H   0  0  0  0  0  0  0  0  0  0  0  0
   38.9686   28.2051   44.5727 H   0  0  0  0  0  0  0  0  0  0  0  0
   38.0141   26.7588   44.8141 H   0  0  0  0  0  0  0  0  0  0  0  0
   40.8920   26.9927   43.6841 H   0  0  0  0  0  0  0  0  0  0  0  0
   40.4138   25.9669   44.9885 H   0  0  0  0  0  0  0  0  0  0  0  0
   40.4653   24.8888   42.5494 H   0  0  0  0  0  0  0  0  0  0  0  0
   38.9975   24.5671   43.4447 H   0  0  0  0  0  0  0  0  0  0  0  0
   39.5195   26.6040   41.2425 H   0  0  0  0  0  0  0  0  0  0  0  0
   35.7553   30.2735   35.1059 H   0  0  0  0  0  0  0  0  0  0  0  0
   39.4560   32.0589   37.1064 H   0  0  0  0  0  0  0  0  0  0  0  0
   41.0077   31.3613   38.9422 H   0  0  0  0  0  0  0  0  0  0  0  0
   40.5585   29.1493   40.0781 H   0  0  0  0  0  0  0  0  0  0  0  0
   38.6645   27.7810   39.3658 H   0  0  0  0  0  0  0  0  0  0  0  0
  1  2  1  0
  1 20  1  0
  3  2  2  0
  4  9  2  0
  4  3  1  0
  5  4  1  0
  6  7  1  0
  6  5  2  0
  7  8  2  0
  8  9  1  0
  9  1  1  0
 10 11  2  0
 11 12  1  0
 12 16  1  0
 13 12  2  0
 14 13  1  0
 15 14  2  0
 15 10  1  0
 16 17  1  0
 18 17  1  0
 19 18  1  0
 20 16  1  0
 20 19  1  0
 21 30  1  0
 21  7  1  0
 22 21  2  0
 23 24  2  0
 23 22  1  0
 24 25  1  0
 25 26  1  0
 25 30  2  0
 26 27  2  0
 27 28  1  0
 29 28  2  0
 30 29  1  0
  2 31  1  0
  5 32  1  0
 10 33  1  0
 11 34  1  0
 14 35  1  0
 17 36  1  0
 17 37  1  0
 18 38  1  0
 18 39  1  0
 19 40  1  0
 19 41  1  0
 20 42  1  6
 23 43  1  0
 26 44  1  0
 27 45  1  0
 28 46  1  0
 29 47  1  0
M  ISO  8  31  14  32  14  33  14  34  14  35  14  36  13  37  13  38  13
M  ISO  8  39  13  40  13  41  13  42  13  43  14  44  14  45  14  46  14
M  ISO  1  47  14
M  END
>  <minimizedAffinity>  (1) 
-5.79001284

>  <minimizedRMSD>  (1) 
1.40954161

$$$$
