
     RDKit          3D

 40 44  0  0  1  0  0  0  0  0999 V2000
   36.7350   30.6700   41.1650 C   0  0  0  0  0  0  0  0  0  0  0  0
   37.6460   29.8150   41.7880 C   0  0  0  0  0  0  0  0  0  0  0  0
   37.3260   28.4620   41.9160 C   0  0  0  0  0  0  0  0  0  0  0  0
   36.1330   28.0630   41.4190 N   0  0  0  0  0  0  0  0  0  0  0  0
   35.2680   28.9150   40.8190 C   0  0  0  0  0  0  0  0  0  0  0  0
   35.5730   30.2140   40.6950 N   0  0  0  0  0  0  0  0  0  0  0  0
   38.1660   27.5000   42.5260 N   0  0  0  0  0  0  0  0  0  0  0  0
   38.6460   27.4840   43.8970 C   0  0  0  0  0  0  0  0  0  0  0  0
   39.9400   26.6670   43.7850 C   0  0  0  0  0  0  0  0  0  0  0  0
   39.4400   25.5740   42.8640 C   0  0  0  0  0  0  0  0  0  0  0  0
   38.6780   26.3560   41.8340 C   0  0  1  0  0  0  0  0  0  0  0  0
   37.7130   25.5770   41.1170 N   0  0  0  0  0  0  0  0  0  0  0  0
   37.1710   24.3970   41.5490 C   0  0  0  0  0  0  0  0  0  0  0  0
   36.2990   23.8820   40.6860 N   0  0  0  0  0  0  0  0  0  0  0  0
   36.2610   24.7420   39.6520 C   0  0  0  0  0  0  0  0  0  0  0  0
   35.5180   24.6920   38.4800 C   0  0  0  0  0  0  0  0  0  0  0  0
   35.6950   25.7200   37.6130 N   0  0  0  0  0  0  0  0  0  0  0  0
   36.5630   26.7400   37.9000 C   0  0  0  0  0  0  0  0  0  0  0  0
   37.2680   26.7690   39.0350 N   0  0  0  0  0  0  0  0  0  0  0  0
   37.1380   25.7760   39.9410 C   0  0  0  0  0  0  0  0  0  0  0  0
   36.7310   27.8090   36.9720 N   0  0  0  0  0  0  0  0  0  0  0  0
   36.9300   29.1020   37.1520 N   0  0  0  0  0  0  0  0  0  0  0  0
   37.0310   29.7270   35.9460 C   0  0  0  0  0  0  0  0  0  0  0  0
   36.8810   28.7320   34.9740 C   0  0  0  0  0  0  0  0  0  0  0  0
   36.6910   27.5210   35.6420 C   0  0  0  0  0  0  0  0  0  0  0  0
   36.9795   31.7373   41.0600 H   0  0  0  0  0  0  0  0  0  0  0  0
   38.6015   30.2015   42.1722 H   0  0  0  0  0  0  0  0  0  0  0  0
   34.3098   28.5387   40.4313 H   0  0  0  0  0  0  0  0  0  0  0  0
   38.8489   28.5026   44.2593 H   0  0  0  0  0  0  0  0  0  0  0  0
   37.9220   27.0639   44.6107 H   0  0  0  0  0  0  0  0  0  0  0  0
   40.7580   27.2471   43.3330 H   0  0  0  0  0  0  0  0  0  0  0  0
   40.3727   26.3268   44.7374 H   0  0  0  0  0  0  0  0  0  0  0  0
   40.2755   25.0220   42.4088 H   0  0  0  0  0  0  0  0  0  0  0  0
   38.8376   24.8072   43.3729 H   0  0  0  0  0  0  0  0  0  0  0  0
   39.3250   26.6844   41.0072 H   0  0  0  0  0  0  0  0  0  0  0  0
   37.4289   23.9243   42.5082 H   0  0  0  0  0  0  0  0  0  0  0  0
   34.8247   23.8651   38.2666 H   0  0  0  0  0  0  0  0  0  0  0  0
   37.1974   30.8002   35.7711 H   0  0  0  0  0  0  0  0  0  0  0  0
   36.9078   28.8772   33.8840 H   0  0  0  0  0  0  0  0  0  0  0  0
   36.5393   26.5319   35.1851 H   0  0  0  0  0  0  0  0  0  0  0  0
  1  2  2  0
  2  3  1  0
  3  7  1  0
  4  3  2  0
  5  4  1  0
  6  5  2  0
  6  1  1  0
  7  8  1  0
  9  8  1  0
 10  9  1  0
 11  7  1  0
 11 10  1  0
 12 13  1  0
 12 11  1  0
 14 13  2  0
 15 20  2  0
 15 14  1  0
 16 15  1  0
 17 18  1  0
 17 16  2  0
 18 19  2  0
 19 20  1  0
 20 12  1  0
 21 22  1  0
 21 18  1  0
 23 22  2  0
 24 25  2  0
 24 23  1  0
 25 21  1  0
  1 26  1  0
  2 27  1  0
  5 28  1  0
  8 29  1  0
  8 30  1  0
  9 31  1  0
  9 32  1  0
 10 33  1  0
 10 34  1  0
 11 35  1  6
 13 36  1  0
 16 37  1  0
 23 38  1  0
 24 39  1  0
 25 40  1  0
M  ISO  8  26  14  27  14  28  14  29  13  30  13  31  13  32  13  33  13
M  ISO  7  34  13  35  13  36  14  37  14  38  14  39  14  40  14
M  END
>  <minimizedAffinity>  (1) 
-5.77548409

>  <minimizedRMSD>  (1) 
1.0404588

$$$$
