
     RDKit          3D

 40 44  0  0  1  0  0  0  0  0999 V2000
   36.8040   30.6850   41.1860 C   0  0  0  0  0  0  0  0  0  0  0  0
   37.6970   29.8110   41.8190 C   0  0  0  0  0  0  0  0  0  0  0  0
   37.3720   28.4700   41.9570 C   0  0  0  0  0  0  0  0  0  0  0  0
   36.1690   28.0860   41.4520 N   0  0  0  0  0  0  0  0  0  0  0  0
   35.3220   28.9420   40.8440 C   0  0  0  0  0  0  0  0  0  0  0  0
   35.6400   30.2480   40.7100 N   0  0  0  0  0  0  0  0  0  0  0  0
   38.1920   27.4980   42.5770 N   0  0  0  0  0  0  0  0  0  0  0  0
   38.6490   27.4840   43.9530 C   0  0  0  0  0  0  0  0  0  0  0  0
   39.9210   26.6430   43.8650 C   0  0  0  0  0  0  0  0  0  0  0  0
   39.4440   25.5670   42.9220 C   0  0  0  0  0  0  0  0  0  0  0  0
   38.6980   26.3610   41.9000 C   0  0  1  0  0  0  0  0  0  0  0  0
   37.7260   25.5830   41.1740 N   0  0  0  0  0  0  0  0  0  0  0  0
   37.1300   24.4270   41.6140 C   0  0  0  0  0  0  0  0  0  0  0  0
   36.2740   23.9170   40.7450 N   0  0  0  0  0  0  0  0  0  0  0  0
   36.2890   24.7370   39.6970 C   0  0  0  0  0  0  0  0  0  0  0  0
   35.5850   24.6870   38.4990 C   0  0  0  0  0  0  0  0  0  0  0  0
   35.8150   25.6810   37.6100 N   0  0  0  0  0  0  0  0  0  0  0  0
   36.6950   26.6690   37.8960 C   0  0  0  0  0  0  0  0  0  0  0  0
   37.3780   26.7330   39.0400 N   0  0  0  0  0  0  0  0  0  0  0  0
   37.1950   25.7670   39.9760 C   0  0  0  0  0  0  0  0  0  0  0  0
   36.8260   27.6610   36.8320 C   0  0  0  0  0  0  0  0  0  0  0  0
   36.5660   28.9830   37.1660 C   0  0  0  0  0  0  0  0  0  0  0  0
   36.7610   29.7090   35.9880 C   0  0  0  0  0  0  0  0  0  0  0  0
   37.1230   28.7930   35.0230 C   0  0  0  0  0  0  0  0  0  0  0  0
   37.1500   27.5990   35.5570 O   0  0  0  0  0  0  0  0  0  0  0  0
   37.0682   31.7476   41.0807 H   0  0  0  0  0  0  0  0  0  0  0  0
   38.6551   30.1880   42.2062 H   0  0  0  0  0  0  0  0  0  0  0  0
   34.3624   28.5726   40.4533 H   0  0  0  0  0  0  0  0  0  0  0  0
   38.8678   28.5010   44.3105 H   0  0  0  0  0  0  0  0  0  0  0  0
   37.9060   27.0862   44.6599 H   0  0  0  0  0  0  0  0  0  0  0  0
   40.7619   27.2139   43.4444 H   0  0  0  0  0  0  0  0  0  0  0  0
   40.3109   26.2820   44.8282 H   0  0  0  0  0  0  0  0  0  0  0  0
   40.2894   25.0274   42.4703 H   0  0  0  0  0  0  0  0  0  0  0  0
   38.8388   24.7872   43.4073 H   0  0  0  0  0  0  0  0  0  0  0  0
   39.3571   26.6939   41.0847 H   0  0  0  0  0  0  0  0  0  0  0  0
   37.3434   23.9707   42.5919 H   0  0  0  0  0  0  0  0  0  0  0  0
   34.8734   23.8763   38.2837 H   0  0  0  0  0  0  0  0  0  0  0  0
   36.2693   29.3759   38.1497 H   0  0  0  0  0  0  0  0  0  0  0  0
   36.6481   30.7953   35.8567 H   0  0  0  0  0  0  0  0  0  0  0  0
   37.3522   29.0283   33.9732 H   0  0  0  0  0  0  0  0  0  0  0  0
  1  2  2  0
  2  3  1  0
  3  7  1  0
  4  3  2  0
  5  4  1  0
  6  5  2  0
  6  1  1  0
  7  8  1  0
  9  8  1  0
 10  9  1  0
 11  7  1  0
 11 10  1  0
 12 13  1  0
 12 11  1  0
 14 13  2  0
 15 20  2  0
 15 14  1  0
 16 15  1  0
 17 18  1  0
 17 16  2  0
 18 19  2  0
 19 20  1  0
 20 12  1  0
 21 22  2  0
 21 18  1  0
 23 22  1  0
 24 25  1  0
 24 23  2  0
 25 21  1  0
  1 26  1  0
  2 27  1  0
  5 28  1  0
  8 29  1  0
  8 30  1  0
  9 31  1  0
  9 32  1  0
 10 33  1  0
 10 34  1  0
 11 35  1  6
 13 36  1  0
 16 37  1  0
 22 38  1  0
 23 39  1  0
 24 40  1  0
M  ISO  8  26  14  27  14  28  14  29  13  30  13  31  13  32  13  33  13
M  ISO  7  34  13  35  13  36  14  37  14  38  14  39  14  40  14
M  END
>  <minimizedAffinity>  (1) 
-5.62988806

>  <minimizedRMSD>  (1) 
1.02567589

$$$$
