
     RDKit          3D

 42 46  0  0  1  0  0  0  0  0999 V2000
   36.9750   30.5690   41.3360 C   0  0  0  0  0  0  0  0  0  0  0  0
   37.8960   29.6780   41.8950 C   0  0  0  0  0  0  0  0  0  0  0  0
   37.5490   28.3320   42.0070 C   0  0  0  0  0  0  0  0  0  0  0  0
   36.3240   27.9770   41.5590 N   0  0  0  0  0  0  0  0  0  0  0  0
   35.4500   28.8560   41.0220 C   0  0  0  0  0  0  0  0  0  0  0  0
   35.7810   30.1570   40.9130 N   0  0  0  0  0  0  0  0  0  0  0  0
   38.3990   27.3310   42.5560 N   0  0  0  0  0  0  0  0  0  0  0  0
   38.9460   27.2770   43.9030 C   0  0  0  0  0  0  0  0  0  0  0  0
   40.1910   26.4220   43.7230 C   0  0  0  0  0  0  0  0  0  0  0  0
   39.6360   25.3730   42.7850 C   0  0  0  0  0  0  0  0  0  0  0  0
   38.8430   26.2050   41.8210 C   0  0  1  0  0  0  0  0  0  0  0  0
   37.8350   25.4650   41.1250 N   0  0  0  0  0  0  0  0  0  0  0  0
   37.2900   24.2810   41.5360 C   0  0  0  0  0  0  0  0  0  0  0  0
   36.3740   23.8080   40.7030 N   0  0  0  0  0  0  0  0  0  0  0  0
   36.2990   24.6950   39.7040 C   0  0  0  0  0  0  0  0  0  0  0  0
   35.5030   24.6980   38.5630 C   0  0  0  0  0  0  0  0  0  0  0  0
   35.6510   25.7440   37.7230 N   0  0  0  0  0  0  0  0  0  0  0  0
   36.5440   26.7380   38.0020 C   0  0  0  0  0  0  0  0  0  0  0  0
   37.3070   26.7270   39.1030 N   0  0  0  0  0  0  0  0  0  0  0  0
   37.2090   25.7110   39.9850 C   0  0  0  0  0  0  0  0  0  0  0  0
   36.6820   27.8620   37.0680 C   0  0  0  0  0  0  0  0  0  0  0  0
   36.8980   29.1460   37.5710 C   0  0  0  0  0  0  0  0  0  0  0  0
   37.0380   30.2570   36.7350 C   0  0  0  0  0  0  0  0  0  0  0  0
   36.9380   29.9340   35.4010 C   0  0  0  0  0  0  0  0  0  0  0  0
   36.7300   28.7060   34.8480 C   0  0  0  0  0  0  0  0  0  0  0  0
   36.6050   27.6810   35.7420 N   0  0  0  0  0  0  0  0  0  0  0  0
   37.2419   31.6321   41.2436 H   0  0  0  0  0  0  0  0  0  0  0  0
   38.8781   30.0328   42.2408 H   0  0  0  0  0  0  0  0  0  0  0  0
   34.4663   28.5086   40.6732 H   0  0  0  0  0  0  0  0  0  0  0  0
   39.2042   28.2824   44.2671 H   0  0  0  0  0  0  0  0  0  0  0  0
   38.2416   26.8725   44.6448 H   0  0  0  0  0  0  0  0  0  0  0  0
   41.0154   26.9880   43.2648 H   0  0  0  0  0  0  0  0  0  0  0  0
   40.6324   26.0340   44.6528 H   0  0  0  0  0  0  0  0  0  0  0  0
   40.4425   24.8278   42.2729 H   0  0  0  0  0  0  0  0  0  0  0  0
   39.0449   24.5947   43.2898 H   0  0  0  0  0  0  0  0  0  0  0  0
   39.4556   26.5512   40.9755 H   0  0  0  0  0  0  0  0  0  0  0  0
   37.5825   23.7712   42.4658 H   0  0  0  0  0  0  0  0  0  0  0  0
   34.7883   23.8879   38.3557 H   0  0  0  0  0  0  0  0  0  0  0  0
   36.9600   29.2878   38.6601 H   0  0  0  0  0  0  0  0  0  0  0  0
   37.2096   31.2792   37.1034 H   0  0  0  0  0  0  0  0  0  0  0  0
   37.0384   30.7704   34.6937 H   0  0  0  0  0  0  0  0  0  0  0  0
   36.6673   28.5515   33.7607 H   0  0  0  0  0  0  0  0  0  0  0  0
  1  2  2  0
  2  3  1  0
  3  7  1  0
  4  3  2  0
  5  4  1  0
  6  5  2  0
  6  1  1  0
  7  8  1  0
  9  8  1  0
 10  9  1  0
 11  7  1  0
 11 10  1  0
 12 13  1  0
 12 11  1  0
 14 13  2  0
 15 20  2  0
 15 14  1  0
 16 15  1  0
 17 18  1  0
 17 16  2  0
 18 19  2  0
 19 20  1  0
 20 12  1  0
 21 22  2  0
 21 18  1  0
 23 22  1  0
 24 23  2  0
 25 24  1  0
 25 26  2  0
 26 21  1  0
  1 27  1  0
  2 28  1  0
  5 29  1  0
  8 30  1  0
  8 31  1  0
  9 32  1  0
  9 33  1  0
 10 34  1  0
 10 35  1  0
 11 36  1  6
 13 37  1  0
 16 38  1  0
 22 39  1  0
 23 40  1  0
 24 41  1  0
 25 42  1  0
M  ISO  8  27  14  28  14  29  14  30  13  31  13  32  13  33  13  34  13
M  ISO  8  35  13  36  13  37  14  38  14  39  14  40  14  41  14  42  14
M  END
>  <minimizedAffinity>  (1) 
-5.60313702

>  <minimizedRMSD>  (1) 
1.30258727

$$$$
