
     RDKit          3D

 41 44  0  0  1  0  0  0  0  0999 V2000
   40.0250   32.1500   41.1440 C   0  0  0  0  0  0  0  0  0  0  0  0
   39.6060   30.8800   41.6240 C   0  0  0  0  0  0  0  0  0  0  0  0
   38.2860   30.5350   41.4840 C   0  0  0  0  0  0  0  0  0  0  0  0
   37.4190   31.4180   40.8910 N   0  0  0  0  0  0  0  0  0  0  0  0
   37.8450   32.6260   40.4400 C   0  0  0  0  0  0  0  0  0  0  0  0
   39.1430   32.9930   40.5650 N   0  0  0  0  0  0  0  0  0  0  0  0
   36.9030   33.5040   39.8320 N   0  0  0  0  0  0  0  0  0  0  0  0
   37.7960   29.3000   41.9330 N   0  0  0  0  0  0  0  0  0  0  0  0
   37.9050   28.9450   43.3190 C   0  0  0  0  0  0  0  0  0  0  0  0
   36.8530   27.8810   43.6140 C   0  0  0  0  0  0  0  0  0  0  0  0
   36.9410   26.7310   42.7640 N   0  0  0  0  0  0  0  0  0  0  0  0
   37.4780   26.9620   41.4710 C   0  0  0  0  0  0  0  0  0  0  0  0
   37.1770   28.3650   41.0180 C   0  0  2  0  0  0  0  0  0  0  0  0
   37.5160   28.5920   39.5940 C   0  0  0  0  0  0  0  0  0  0  0  0
   36.5290   28.9920   38.6910 C   0  0  0  0  0  0  0  0  0  0  0  0
   36.7400   29.2260   37.3690 C   0  0  0  0  0  0  0  0  0  0  0  0
   37.9970   29.0460   36.9530 N   0  0  0  0  0  0  0  0  0  0  0  0
   38.9800   28.6590   37.8010 C   0  0  0  0  0  0  0  0  0  0  0  0
   38.7690   28.4260   39.1220 N   0  0  0  0  0  0  0  0  0  0  0  0
   40.3000   28.4890   37.2800 N   0  0  0  0  0  0  0  0  0  0  0  0
   41.2660   29.4140   37.1930 C   0  0  0  0  0  0  0  0  0  0  0  0
   42.3750   28.8130   36.6270 C   0  0  0  0  0  0  0  0  0  0  0  0
   42.0830   27.5320   36.3710 N   0  0  0  0  0  0  0  0  0  0  0  0
   40.8150   27.3460   36.7730 C   0  0  0  0  0  0  0  0  0  0  0  0
   41.0786   32.4496   41.2450 H   0  0  0  0  0  0  0  0  0  0  0  0
   40.3221   30.1911   42.0959 H   0  0  0  0  0  0  0  0  0  0  0  0
   35.9176   33.2185   39.7402 H   0  0  0  0  0  0  0  0  0  0  0  0
   37.2070   34.4245   39.4840 H   0  0  0  0  0  0  0  0  0  0  0  0
   38.9089   28.5452   43.5247 H   0  0  0  0  0  0  0  0  0  0  0  0
   37.7455   29.8284   43.9547 H   0  0  0  0  0  0  0  0  0  0  0  0
   36.9750   27.5521   44.6566 H   0  0  0  0  0  0  0  0  0  0  0  0
   35.8709   28.3412   43.4305 H   0  0  0  0  0  0  0  0  0  0  0  0
   37.5365   26.0345   43.2343 H   0  0  0  0  0  0  0  0  0  0  0  0
   38.5680   26.8172   41.5006 H   0  0  0  0  0  0  0  0  0  0  0  0
   37.0204   26.2542   40.7642 H   0  0  0  0  0  0  0  0  0  0  0  0
   36.0906   28.5338   41.0536 H   0  0  0  0  0  0  0  0  0  0  0  0
   35.5079   29.1274   39.0771 H   0  0  0  0  0  0  0  0  0  0  0  0
   35.9338   29.5410   36.6901 H   0  0  0  0  0  0  0  0  0  0  0  0
   41.1901   30.4633   37.5143 H   0  0  0  0  0  0  0  0  0  0  0  0
   43.3369   29.3054   36.4213 H   0  0  0  0  0  0  0  0  0  0  0  0
   40.2696   26.3935   36.6998 H   0  0  0  0  0  0  0  0  0  0  0  0
  1  2  2  0
  3  2  1  0
  3  8  1  0
  4  3  2  0
  5  6  2  0
  5  4  1  0
  6  1  1  0
  7  5  1  0
  8  9  1  0
  9 10  1  0
 11 10  1  0
 12 11  1  0
 13 12  1  0
 13  8  1  0
 14 13  1  0
 15 14  2  0
 16 15  1  0
 17 16  2  0
 17 18  1  0
 18 19  2  0
 19 14  1  0
 20 18  1  0
 21 20  1  0
 22 21  2  0
 23 22  1  0
 23 24  2  0
 24 20  1  0
  1 25  1  0
  2 26  1  0
  7 27  1  0
  7 28  1  0
  9 29  1  0
  9 30  1  0
 10 31  1  0
 10 32  1  0
 11 33  1  0
 12 34  1  0
 12 35  1  0
 13 36  1  6
 15 37  1  0
 16 38  1  0
 21 39  1  0
 22 40  1  0
 24 41  1  0
M  ISO  8  25  14  26  14  29  13  30  13  31  13  32  13  33   5  34  13
M  ISO  7  35  13  36  13  37  14  38  14  39  14  40  14  41  14
M  END
>  <minimizedAffinity>  (1) 
-5.91106415

>  <minimizedRMSD>  (1) 
1.28586543

$$$$
