
     RDKit          3D

 43 47  0  0  1  0  0  0  0  0999 V2000
   37.1160   30.4710   41.4000 C   0  0  0  0  0  0  0  0  0  0  0  0
   38.0140   29.5320   41.8820 C   0  0  0  0  0  0  0  0  0  0  0  0
   37.6450   28.1880   41.9450 C   0  0  0  0  0  0  0  0  0  0  0  0
   36.3980   27.8880   41.5170 N   0  0  0  0  0  0  0  0  0  0  0  0
   35.5340   28.8130   41.0500 C   0  0  0  0  0  0  0  0  0  0  0  0
   35.9000   30.1070   40.9930 N   0  0  0  0  0  0  0  0  0  0  0  0
   38.4800   27.1510   42.4180 N   0  0  0  0  0  0  0  0  0  0  0  0
   39.0710   27.0120   43.7420 C   0  0  0  0  0  0  0  0  0  0  0  0
   40.2750   26.1310   43.4930 C   0  0  0  0  0  0  0  0  0  0  0  0
   39.6660   25.1490   42.5240 C   0  0  0  0  0  0  0  0  0  0  0  0
   38.8800   26.0420   41.6180 C   0  0  1  0  0  0  0  0  0  0  0  0
   37.8240   25.3630   40.9250 N   0  0  0  0  0  0  0  0  0  0  0  0
   37.2430   24.1860   41.3220 C   0  0  0  0  0  0  0  0  0  0  0  0
   36.2860   23.7740   40.4960 N   0  0  0  0  0  0  0  0  0  0  0  0
   36.2240   24.6860   39.5320 C   0  0  0  0  0  0  0  0  0  0  0  0
   35.4080   24.7660   38.4080 C   0  0  0  0  0  0  0  0  0  0  0  0
   35.5760   25.8310   37.5910 N   0  0  0  0  0  0  0  0  0  0  0  0
   36.5120   26.7720   37.8770 C   0  0  0  0  0  0  0  0  0  0  0  0
   37.2990   26.7000   38.9520 N   0  0  0  0  0  0  0  0  0  0  0  0
   37.1830   25.6650   39.8100 C   0  0  0  0  0  0  0  0  0  0  0  0
   36.6200   27.8840   36.9350 C   0  0  0  0  0  0  0  0  0  0  0  0
   36.5370   27.6250   35.5780 C   0  0  0  0  0  0  0  0  0  0  0  0
   36.6510   28.7470   34.7770 C   0  0  0  0  0  0  0  0  0  0  0  0
   36.8320   30.0450   35.1920 C   0  0  0  0  0  0  0  0  0  0  0  0
   36.9090   30.2520   36.5550 C   0  0  0  0  0  0  0  0  0  0  0  0
   36.8020   29.1680   37.4040 C   0  0  0  0  0  0  0  0  0  0  0  0
   37.4103   31.5298   41.3527 H   0  0  0  0  0  0  0  0  0  0  0  0
   39.0148   29.8454   42.2139 H   0  0  0  0  0  0  0  0  0  0  0  0
   34.5308   28.5098   40.7159 H   0  0  0  0  0  0  0  0  0  0  0  0
   39.3744   27.9903   44.1431 H   0  0  0  0  0  0  0  0  0  0  0  0
   38.3750   26.5916   44.4828 H   0  0  0  0  0  0  0  0  0  0  0  0
   41.1073   26.6909   43.0416 H   0  0  0  0  0  0  0  0  0  0  0  0
   40.7239   25.6850   44.3927 H   0  0  0  0  0  0  0  0  0  0  0  0
   40.4430   24.6027   41.9691 H   0  0  0  0  0  0  0  0  0  0  0  0
   39.0599   24.3696   43.0089 H   0  0  0  0  0  0  0  0  0  0  0  0
   39.4864   26.4026   40.7740 H   0  0  0  0  0  0  0  0  0  0  0  0
   37.5381   23.6393   42.2298 H   0  0  0  0  0  0  0  0  0  0  0  0
   34.6555   23.9933   38.1921 H   0  0  0  0  0  0  0  0  0  0  0  0
   36.3927   26.6133   35.1711 H   0  0  0  0  0  0  0  0  0  0  0  0
   36.5903   28.5829   33.6910 H   0  0  0  0  0  0  0  0  0  0  0  0
   36.9114   30.8757   34.4753 H   0  0  0  0  0  0  0  0  0  0  0  0
   37.0534   31.2651   36.9585 H   0  0  0  0  0  0  0  0  0  0  0  0
   36.8640   29.3342   38.4896 H   0  0  0  0  0  0  0  0  0  0  0  0
  1  2  2  0
  2  3  1  0
  3  7  1  0
  4  3  2  0
  5  4  1  0
  6  5  2  0
  6  1  1  0
  7  8  1  0
  9  8  1  0
 10  9  1  0
 11  7  1  0
 11 10  1  0
 12 13  1  0
 12 11  1  0
 14 13  2  0
 15 20  2  0
 15 14  1  0
 16 15  1  0
 17 18  1  0
 17 16  2  0
 18 19  2  0
 19 20  1  0
 20 12  1  0
 21 26  1  0
 21 18  1  0
 22 21  2  0
 23 24  2  0
 23 22  1  0
 24 25  1  0
 25 26  2  0
  1 27  1  0
  2 28  1  0
  5 29  1  0
  8 30  1  0
  8 31  1  0
  9 32  1  0
  9 33  1  0
 10 34  1  0
 10 35  1  0
 11 36  1  6
 13 37  1  0
 16 38  1  0
 22 39  1  0
 23 40  1  0
 24 41  1  0
 25 42  1  0
 26 43  1  0
M  ISO  8  27  14  28  14  29  14  30  13  31  13  32  13  33  13  34  13
M  ISO  8  35  13  36  13  37  14  38  14  39  14  40  14  41  14  42  14
M  ISO  1  43  14
M  END
>  <minimizedAffinity>  (1) 
-5.55159712

>  <minimizedRMSD>  (1) 
1.31126344

$$$$
