
     RDKit          3D

 38 42  0  0  1  0  0  0  0  0999 V2000
   36.8140   30.6460   41.0700 C   0  0  0  0  0  0  0  0  0  0  0  0
   37.7410   29.8100   41.6920 C   0  0  0  0  0  0  0  0  0  0  0  0
   37.4170   28.4610   41.8850 C   0  0  0  0  0  0  0  0  0  0  0  0
   36.2000   28.0560   41.4450 N   0  0  0  0  0  0  0  0  0  0  0  0
   35.3230   28.8850   40.8480 C   0  0  0  0  0  0  0  0  0  0  0  0
   35.6290   30.1850   40.6590 N   0  0  0  0  0  0  0  0  0  0  0  0
   38.2680   27.5210   42.4980 N   0  0  0  0  0  0  0  0  0  0  0  0
   38.7980   27.5670   43.8570 C   0  0  0  0  0  0  0  0  0  0  0  0
   40.0570   26.7240   43.7530 C   0  0  0  0  0  0  0  0  0  0  0  0
   39.5450   25.6070   42.8780 C   0  0  0  0  0  0  0  0  0  0  0  0
   38.7440   26.3500   41.8520 C   0  0  1  0  0  0  0  0  0  0  0  0
   37.7430   25.5400   41.1980 N   0  0  0  0  0  0  0  0  0  0  0  0
   37.1560   24.4360   41.7240 C   0  0  0  0  0  0  0  0  0  0  0  0
   36.2690   23.8900   40.8980 N   0  0  0  0  0  0  0  0  0  0  0  0
   36.2650   24.6450   39.8020 C   0  0  0  0  0  0  0  0  0  0  0  0
   35.5370   24.5410   38.6250 C   0  0  0  0  0  0  0  0  0  0  0  0
   35.7520   25.4700   37.6740 N   0  0  0  0  0  0  0  0  0  0  0  0
   36.6570   26.4700   37.8770 C   0  0  0  0  0  0  0  0  0  0  0  0
   37.3660   26.5750   39.0170 N   0  0  0  0  0  0  0  0  0  0  0  0
   37.1970   25.6810   40.0000 C   0  0  0  0  0  0  0  0  0  0  0  0
   36.9420   27.5100   36.8930 C   0  0  0  0  0  0  0  0  0  0  0  0
   37.6630   27.4960   35.7610 N   0  0  0  0  0  0  0  0  0  0  0  0
   37.6230   28.6730   35.2220 O   0  0  0  0  0  0  0  0  0  0  0  0
   36.8890   29.5080   35.9570 C   0  0  0  0  0  0  0  0  0  0  0  0
   36.4520   28.7770   37.0240 N   0  0  0  0  0  0  0  0  0  0  0  0
   37.0633   31.7061   40.9146 H   0  0  0  0  0  0  0  0  0  0  0  0
   38.7121   30.2041   42.0260 H   0  0  0  0  0  0  0  0  0  0  0  0
   34.3493   28.4991   40.5118 H   0  0  0  0  0  0  0  0  0  0  0  0
   39.0351   28.5988   44.1556 H   0  0  0  0  0  0  0  0  0  0  0  0
   38.0892   27.2014   44.6146 H   0  0  0  0  0  0  0  0  0  0  0  0
   40.8799   27.2748   43.2740 H   0  0  0  0  0  0  0  0  0  0  0  0
   40.4839   26.4038   44.7149 H   0  0  0  0  0  0  0  0  0  0  0  0
   40.3737   25.0532   42.4126 H   0  0  0  0  0  0  0  0  0  0  0  0
   38.9665   24.8477   43.4247 H   0  0  0  0  0  0  0  0  0  0  0  0
   39.3635   26.6405   40.9907 H   0  0  0  0  0  0  0  0  0  0  0  0
   37.3880   24.0371   42.7225 H   0  0  0  0  0  0  0  0  0  0  0  0
   34.8105   23.7289   38.4743 H   0  0  0  0  0  0  0  0  0  0  0  0
   36.6788   30.5672   35.7473 H   0  0  0  0  0  0  0  0  0  0  0  0
  1  2  2  0
  2  3  1  0
  3  7  1  0
  4  3  2  0
  5  4  1  0
  6  5  2  0
  6  1  1  0
  7  8  1  0
  9  8  1  0
 10  9  1  0
 11  7  1  0
 11 10  1  0
 12 13  1  0
 12 11  1  0
 14 13  2  0
 15 20  2  0
 15 14  1  0
 16 15  1  0
 17 18  1  0
 17 16  2  0
 18 19  2  0
 19 20  1  0
 20 12  1  0
 21 25  1  0
 21 18  1  0
 22 21  2  0
 23 22  1  0
 23 24  1  0
 24 25  2  0
  1 26  1  0
  2 27  1  0
  5 28  1  0
  8 29  1  0
  8 30  1  0
  9 31  1  0
  9 32  1  0
 10 33  1  0
 10 34  1  0
 11 35  1  6
 13 36  1  0
 16 37  1  0
 24 38  1  0
M  ISO  8  26  14  27  14  28  14  29  13  30  13  31  13  32  13  33  13
M  ISO  5  34  13  35  13  36  14  37  14  38  14
M  END
>  <minimizedAffinity>  (1) 
-5.35161638

>  <minimizedRMSD>  (1) 
0.85665983

$$$$
