
     RDKit          3D

 43 46  0  0  1  0  0  0  0  0999 V2000
   40.0320   32.1500   41.1330 C   0  0  0  0  0  0  0  0  0  0  0  0
   39.6150   30.8790   41.6090 C   0  0  0  0  0  0  0  0  0  0  0  0
   38.2960   30.5470   41.4680 C   0  0  0  0  0  0  0  0  0  0  0  0
   37.4290   31.4260   40.8830 N   0  0  0  0  0  0  0  0  0  0  0  0
   37.8620   32.6360   40.4370 C   0  0  0  0  0  0  0  0  0  0  0  0
   39.1650   32.9950   40.5650 N   0  0  0  0  0  0  0  0  0  0  0  0
   36.9070   33.5150   39.8350 N   0  0  0  0  0  0  0  0  0  0  0  0
   37.8040   29.3010   41.9140 N   0  0  0  0  0  0  0  0  0  0  0  0
   37.9220   28.9300   43.3040 C   0  0  0  0  0  0  0  0  0  0  0  0
   36.8460   27.8730   43.5850 C   0  0  0  0  0  0  0  0  0  0  0  0
   36.9450   26.7280   42.7400 N   0  0  0  0  0  0  0  0  0  0  0  0
   37.4700   26.9710   41.4420 C   0  0  0  0  0  0  0  0  0  0  0  0
   37.1740   28.3790   40.9940 C   0  0  2  0  0  0  0  0  0  0  0  0
   37.4980   28.6100   39.5740 C   0  0  0  0  0  0  0  0  0  0  0  0
   36.5280   29.0640   38.6880 C   0  0  0  0  0  0  0  0  0  0  0  0
   36.7400   29.3050   37.3610 C   0  0  0  0  0  0  0  0  0  0  0  0
   37.9940   29.0690   36.9330 N   0  0  0  0  0  0  0  0  0  0  0  0
   38.9500   28.6300   37.7640 C   0  0  0  0  0  0  0  0  0  0  0  0
   38.7350   28.3930   39.0840 N   0  0  0  0  0  0  0  0  0  0  0  0
   40.2860   28.3970   37.2320 C   0  0  0  0  0  0  0  0  0  0  0  0
   40.7190   27.1370   36.8800 C   0  0  0  0  0  0  0  0  0  0  0  0
   41.9620   26.8150   36.3690 C   0  0  0  0  0  0  0  0  0  0  0  0
   42.7980   27.9200   36.2260 C   0  0  0  0  0  0  0  0  0  0  0  0
   42.3610   29.1780   36.5790 C   0  0  0  0  0  0  0  0  0  0  0  0
   41.1360   29.4240   37.0710 N   0  0  0  0  0  0  0  0  0  0  0  0
   41.0870   32.4449   41.2332 H   0  0  0  0  0  0  0  0  0  0  0  0
   40.3291   30.1845   42.0756 H   0  0  0  0  0  0  0  0  0  0  0  0
   35.9229   33.2239   39.7472 H   0  0  0  0  0  0  0  0  0  0  0  0
   37.2036   34.4389   39.4894 H   0  0  0  0  0  0  0  0  0  0  0  0
   38.9207   28.5121   43.4989 H   0  0  0  0  0  0  0  0  0  0  0  0
   37.7872   29.8066   43.9547 H   0  0  0  0  0  0  0  0  0  0  0  0
   36.9436   27.5448   44.6304 H   0  0  0  0  0  0  0  0  0  0  0  0
   35.8704   28.3408   43.3866 H   0  0  0  0  0  0  0  0  0  0  0  0
   37.5550   26.0412   43.2059 H   0  0  0  0  0  0  0  0  0  0  0  0
   38.5596   26.8212   41.4610 H   0  0  0  0  0  0  0  0  0  0  0  0
   36.9969   26.2722   40.7364 H   0  0  0  0  0  0  0  0  0  0  0  0
   36.0893   28.5579   41.0319 H   0  0  0  0  0  0  0  0  0  0  0  0
   35.5174   29.2418   39.0843 H   0  0  0  0  0  0  0  0  0  0  0  0
   35.9451   29.6653   36.6915 H   0  0  0  0  0  0  0  0  0  0  0  0
   40.0080   26.3092   37.0189 H   0  0  0  0  0  0  0  0  0  0  0  0
   42.2608   25.7905   36.1024 H   0  0  0  0  0  0  0  0  0  0  0  0
   43.8149   27.7872   35.8282 H   0  0  0  0  0  0  0  0  0  0  0  0
   43.0514   30.0248   36.4512 H   0  0  0  0  0  0  0  0  0  0  0  0
  1  2  2  0
  3  2  1  0
  3  8  1  0
  4  3  2  0
  5  6  2  0
  5  4  1  0
  6  1  1  0
  7  5  1  0
  8  9  1  0
  9 10  1  0
 11 10  1  0
 12 11  1  0
 13 12  1  0
 13  8  1  0
 14 13  1  0
 15 14  2  0
 16 15  1  0
 17 16  2  0
 17 18  1  0
 18 19  2  0
 19 14  1  0
 20 18  1  0
 21 20  2  0
 22 21  1  0
 23 22  2  0
 23 24  1  0
 24 25  2  0
 25 20  1  0
  1 26  1  0
  2 27  1  0
  7 28  1  0
  7 29  1  0
  9 30  1  0
  9 31  1  0
 10 32  1  0
 10 33  1  0
 11 34  1  0
 12 35  1  0
 12 36  1  0
 13 37  1  6
 15 38  1  0
 16 39  1  0
 21 40  1  0
 22 41  1  0
 23 42  1  0
 24 43  1  0
M  ISO  8  26  14  27  14  30  13  31  13  32  13  33  13  34   5  35  13
M  ISO  8  36  13  37  13  38  14  39  14  40  14  41  14  42  14  43  14
M  END
>  <minimizedAffinity>  (1) 
-5.90153837

>  <minimizedRMSD>  (1) 
1.35207391

$$$$
