
     RDKit          3D

 49 53  0  0  1  0  0  0  0  0999 V2000
   37.9070   25.5690   41.1210 N   0  0  0  0  0  0  0  0  0  0  0  0
   36.9860   24.6740   41.5740 C   0  0  0  0  0  0  0  0  0  0  0  0
   36.2980   24.0860   40.5990 N   0  0  0  0  0  0  0  0  0  0  0  0
   36.7830   24.6130   39.4630 C   0  0  0  0  0  0  0  0  0  0  0  0
   36.4260   24.3570   38.1320 C   0  0  0  0  0  0  0  0  0  0  0  0
   37.1040   25.0540   37.1980 N   0  0  0  0  0  0  0  0  0  0  0  0
   38.0770   25.9500   37.5350 C   0  0  0  0  0  0  0  0  0  0  0  0
   38.4100   26.1850   38.8140 N   0  0  0  0  0  0  0  0  0  0  0  0
   37.7770   25.5280   39.7990 C   0  0  0  0  0  0  0  0  0  0  0  0
   36.8200   30.6400   41.1890 C   0  0  0  0  0  0  0  0  0  0  0  0
   37.6940   29.7900   41.8690 C   0  0  0  0  0  0  0  0  0  0  0  0
   37.3990   28.4280   41.9400 C   0  0  0  0  0  0  0  0  0  0  0  0
   36.2560   28.0260   41.3270 N   0  0  0  0  0  0  0  0  0  0  0  0
   35.4290   28.8570   40.6790 C   0  0  0  0  0  0  0  0  0  0  0  0
   35.7200   30.1680   40.6150 N   0  0  0  0  0  0  0  0  0  0  0  0
   38.2080   27.4600   42.6030 N   0  0  0  0  0  0  0  0  0  0  0  0
   38.5610   27.4250   44.0130 C   0  0  0  0  0  0  0  0  0  0  0  0
   39.8530   26.6300   44.0080 C   0  0  0  0  0  0  0  0  0  0  0  0
   39.4650   25.5620   43.0140 C   0  0  0  0  0  0  0  0  0  0  0  0
   38.7960   26.3560   41.9360 C   0  0  1  0  0  0  0  0  0  0  0  0
   38.7850   26.6830   36.4510 C   0  0  0  0  0  0  0  0  0  0  0  0
   38.5390   28.1620   36.4590 C   0  0  0  0  0  0  0  0  0  0  0  0
   37.1410   28.5230   36.1300 C   0  0  0  0  0  0  0  0  0  0  0  0
   36.1790   28.7990   37.0830 C   0  0  0  0  0  0  0  0  0  0  0  0
   34.8720   29.1360   36.7930 C   0  0  0  0  0  0  0  0  0  0  0  0
   34.4720   29.2090   35.4740 C   0  0  0  0  0  0  0  0  0  0  0  0
   35.4240   28.9340   34.4990 C   0  0  0  0  0  0  0  0  0  0  0  0
   36.7270   28.5990   34.7990 C   0  0  0  0  0  0  0  0  0  0  0  0
   36.8267   24.4585   42.6409 H   0  0  0  0  0  0  0  0  0  0  0  0
   35.6418   23.6328   37.8661 H   0  0  0  0  0  0  0  0  0  0  0  0
   37.0457   31.7149   41.1280 H   0  0  0  0  0  0  0  0  0  0  0  0
   38.6033   30.1887   42.3426 H   0  0  0  0  0  0  0  0  0  0  0  0
   34.5170   28.4689   40.2019 H   0  0  0  0  0  0  0  0  0  0  0  0
   38.7197   28.4391   44.4084 H   0  0  0  0  0  0  0  0  0  0  0  0
   37.7788   26.9868   44.6503 H   0  0  0  0  0  0  0  0  0  0  0  0
   40.7058   27.2300   43.6578 H   0  0  0  0  0  0  0  0  0  0  0  0
   40.1892   26.2649   44.9897 H   0  0  0  0  0  0  0  0  0  0  0  0
   40.3508   25.0354   42.6292 H   0  0  0  0  0  0  0  0  0  0  0  0
   38.8267   24.7744   43.4410 H   0  0  0  0  0  0  0  0  0  0  0  0
   39.5060   26.7178   41.1778 H   0  0  0  0  0  0  0  0  0  0  0  0
   38.4490   26.2809   35.4838 H   0  0  0  0  0  0  0  0  0  0  0  0
   39.8626   26.5368   36.6167 H   0  0  0  0  0  0  0  0  0  0  0  0
   38.7736   28.5499   37.4612 H   0  0  0  0  0  0  0  0  0  0  0  0
   39.1818   28.6043   35.6836 H   0  0  0  0  0  0  0  0  0  0  0  0
   36.4739   28.7468   38.1415 H   0  0  0  0  0  0  0  0  0  0  0  0
   34.1579   29.3439   37.6035 H   0  0  0  0  0  0  0  0  0  0  0  0
   33.4391   29.4747   35.2045 H   0  0  0  0  0  0  0  0  0  0  0  0
   35.1244   28.9860   33.4419 H   0  0  0  0  0  0  0  0  0  0  0  0
   37.4414   28.3913   33.9887 H   0  0  0  0  0  0  0  0  0  0  0  0
  1  2  1  0
  1 20  1  0
  3  2  2  0
  4  9  2  0
  4  3  1  0
  5  4  1  0
  6  7  1  0
  6  5  2  0
  7  8  2  0
  8  9  1  0
  9  1  1  0
 10 11  2  0
 11 12  1  0
 12 16  1  0
 13 12  2  0
 14 13  1  0
 15 14  2  0
 15 10  1  0
 16 17  1  0
 18 17  1  0
 19 18  1  0
 20 16  1  0
 20 19  1  0
 21 22  1  0
 21  7  1  0
 23 22  1  0
 23 24  2  0
 25 24  1  0
 26 25  2  0
 27 28  2  0
 27 26  1  0
 28 23  1  0
  2 29  1  0
  5 30  1  0
 10 31  1  0
 11 32  1  0
 14 33  1  0
 17 34  1  0
 17 35  1  0
 18 36  1  0
 18 37  1  0
 19 38  1  0
 19 39  1  0
 20 40  1  6
 21 41  1  0
 21 42  1  0
 22 43  1  0
 22 44  1  0
 24 45  1  0
 25 46  1  0
 26 47  1  0
 27 48  1  0
 28 49  1  0
M  ISO  8  29  14  30  14  31  14  32  14  33  14  34  13  35  13  36  13
M  ISO  8  37  13  38  13  39  13  40  13  41   8  42   8  43   8  44   8
M  ISO  5  45  14  46  14  47  14  48  14  49  14
M  END
>  <minimizedAffinity>  (1) 
-5.66300488

>  <minimizedRMSD>  (1) 
0.96583724

$$$$
