
     RDKit          3D

 41 44  0  0  1  0  0  0  0  0999 V2000
   36.8600   30.6820   41.1690 C   0  0  0  0  0  0  0  0  0  0  0  0
   37.7170   29.8080   41.8490 C   0  0  0  0  0  0  0  0  0  0  0  0
   37.3990   28.4520   41.9110 C   0  0  0  0  0  0  0  0  0  0  0  0
   36.2560   28.0810   41.2920 N   0  0  0  0  0  0  0  0  0  0  0  0
   35.4390   28.9130   40.6430 C   0  0  0  0  0  0  0  0  0  0  0  0
   35.7410   30.2250   40.5800 N   0  0  0  0  0  0  0  0  0  0  0  0
   38.1870   27.4810   42.5680 N   0  0  0  0  0  0  0  0  0  0  0  0
   38.5450   27.4270   43.9830 C   0  0  0  0  0  0  0  0  0  0  0  0
   39.8300   26.6090   43.9820 C   0  0  0  0  0  0  0  0  0  0  0  0
   39.4360   25.5570   42.9750 C   0  0  0  0  0  0  0  0  0  0  0  0
   38.7720   26.3630   41.9070 C   0  0  1  0  0  0  0  0  0  0  0  0
   37.8740   25.5940   41.0770 N   0  0  0  0  0  0  0  0  0  0  0  0
   36.9740   24.6800   41.5320 C   0  0  0  0  0  0  0  0  0  0  0  0
   36.2710   24.1160   40.5550 N   0  0  0  0  0  0  0  0  0  0  0  0
   36.7200   24.6710   39.4260 C   0  0  0  0  0  0  0  0  0  0  0  0
   36.3410   24.4560   38.1010 C   0  0  0  0  0  0  0  0  0  0  0  0
   36.9830   25.1780   37.1560 N   0  0  0  0  0  0  0  0  0  0  0  0
   37.9610   26.0780   37.4930 C   0  0  0  0  0  0  0  0  0  0  0  0
   38.3120   26.2710   38.7780 N   0  0  0  0  0  0  0  0  0  0  0  0
   37.7070   25.5820   39.7530 C   0  0  0  0  0  0  0  0  0  0  0  0
   38.6520   26.8570   36.4450 C   0  0  0  0  0  0  0  0  0  0  0  0
   37.8680   28.0560   35.9830 C   0  0  0  0  0  0  0  0  0  0  0  0
   37.6330   28.8680   37.1770 N   0  0  0  0  0  0  0  0  0  0  0  0
   37.1047   31.7531   41.1161 H   0  0  0  0  0  0  0  0  0  0  0  0
   38.6312   30.1872   42.3291 H   0  0  0  0  0  0  0  0  0  0  0  0
   34.5260   28.5309   40.1631 H   0  0  0  0  0  0  0  0  0  0  0  0
   38.7192   28.4359   44.3852 H   0  0  0  0  0  0  0  0  0  0  0  0
   37.7553   26.9917   44.6130 H   0  0  0  0  0  0  0  0  0  0  0  0
   40.6950   27.1993   43.6454 H   0  0  0  0  0  0  0  0  0  0  0  0
   40.1511   26.2294   44.9632 H   0  0  0  0  0  0  0  0  0  0  0  0
   40.3192   25.0304   42.5842 H   0  0  0  0  0  0  0  0  0  0  0  0
   38.7923   24.7692   43.3934 H   0  0  0  0  0  0  0  0  0  0  0  0
   39.4980   26.7176   41.1605 H   0  0  0  0  0  0  0  0  0  0  0  0
   36.8423   24.4340   42.5960 H   0  0  0  0  0  0  0  0  0  0  0  0
   35.5558   23.7322   37.8374 H   0  0  0  0  0  0  0  0  0  0  0  0
   39.6164   27.2030   36.8453 H   0  0  0  0  0  0  0  0  0  0  0  0
   38.7789   26.1948   35.5758 H   0  0  0  0  0  0  0  0  0  0  0  0
   38.4445   28.6266   35.2400 H   0  0  0  0  0  0  0  0  0  0  0  0
   36.9229   27.7597   35.5046 H   0  0  0  0  0  0  0  0  0  0  0  0
   37.7982   28.2972   38.0183 H   0  0  0  0  0  0  0  0  0  0  0  0
   38.2755   29.6730   37.1767 H   0  0  0  0  0  0  0  0  0  0  0  0
  1  2  2  0
  2  3  1  0
  3  7  1  0
  4  3  2  0
  5  4  1  0
  6  5  2  0
  6  1  1  0
  7  8  1  0
  9  8  1  0
 10  9  1  0
 11  7  1  0
 11 10  1  0
 12 13  1  0
 12 11  1  0
 14 13  2  0
 15 20  2  0
 15 14  1  0
 16 15  1  0
 17 18  1  0
 17 16  2  0
 18 19  2  0
 19 20  1  0
 20 12  1  0
 21 18  1  0
 22 21  1  0
 22 23  1  0
  1 24  1  0
  2 25  1  0
  5 26  1  0
  8 27  1  0
  8 28  1  0
  9 29  1  0
  9 30  1  0
 10 31  1  0
 10 32  1  0
 11 33  1  6
 13 34  1  0
 16 35  1  0
 21 36  1  0
 21 37  1  0
 22 38  1  0
 22 39  1  0
 23 40  1  0
 23 41  1  0
M  ISO  8  24  14  25  14  26  14  27  13  28  13  29  13  30  13  31  13
M  ISO  8  32  13  33  13  34  14  35  14  36   8  37   8  38   8  39   8
M  ISO  2  40   5  41   5
M  END
>  <minimizedAffinity>  (1) 
-4.90752077

>  <minimizedRMSD>  (1) 
0.0375916772

$$$$
