
     RDKit          3D

 15 16  0  0  0  0  0  0  0  0999 V2000
   39.4070   32.4030   40.8140 C   0  0  0  0  0  0  0  0  0  0  0  0
   39.1590   31.2300   41.5460 C   0  0  0  0  0  0  0  0  0  0  0  0
   37.8690   30.6940   41.4760 C   0  0  0  0  0  0  0  0  0  0  0  0
   36.9460   31.3340   40.7110 N   0  0  0  0  0  0  0  0  0  0  0  0
   37.2290   32.4640   40.0220 C   0  0  0  0  0  0  0  0  0  0  0  0
   38.4700   33.0030   40.0730 N   0  0  0  0  0  0  0  0  0  0  0  0
   37.4150   29.4840   42.1620 C   0  0  0  0  0  0  0  0  0  0  0  0
   36.5170   28.5310   41.8520 N   0  0  0  0  0  0  0  0  0  0  0  0
   36.4640   27.6430   42.7980 O   0  0  0  0  0  0  0  0  0  0  0  0
   37.3040   27.9550   43.7590 C   0  0  0  0  0  0  0  0  0  0  0  0
   37.8950   29.1030   43.3610 N   0  0  0  0  0  0  0  0  0  0  0  0
   40.4132   32.8459   40.8521 H   0  0  0  0  0  0  0  0  0  0  0  0
   39.9460   30.7532   42.1487 H   0  0  0  0  0  0  0  0  0  0  0  0
   36.4470   32.9469   39.4176 H   0  0  0  0  0  0  0  0  0  0  0  0
   37.4873   27.3992   44.6904 H   0  0  0  0  0  0  0  0  0  0  0  0
  1  2  2  0
  3  2  1  0
  3  7  1  0
  4  3  2  0
  5  6  2  0
  5  4  1  0
  6  1  1  0
  7 11  1  0
  8  7  2  0
  8  9  1  0
  9 10  1  0
 11 10  2  0
  1 12  1  0
  2 13  1  0
  5 14  1  0
 10 15  1  0
M  ISO  4  12  14  13  14  14  14  15  14
M  END
>  <minimizedAffinity>  (1) 
-3.44578934

>  <minimizedRMSD>  (1) 
3.88435006

$$$$
