
     RDKit          3D

 37 39  0  0  1  0  0  0  0  0999 V2000
   39.9960   31.8960   40.1170 C   0  0  0  0  0  0  0  0  0  0  0  0
   39.5960   30.7270   40.8230 C   0  0  0  0  0  0  0  0  0  0  0  0
   38.2550   30.6050   41.1430 C   0  0  0  0  0  0  0  0  0  0  0  0
   37.3890   31.5890   40.7760 N   0  0  0  0  0  0  0  0  0  0  0  0
   37.8060   32.6930   40.1020 C   0  0  0  0  0  0  0  0  0  0  0  0
   39.1160   32.8440   39.7720 N   0  0  0  0  0  0  0  0  0  0  0  0
   36.8410   33.6860   39.7480 N   0  0  0  0  0  0  0  0  0  0  0  0
   37.7740   29.4780   41.8420 N   0  0  0  0  0  0  0  0  0  0  0  0
   38.2900   29.1590   43.1470 C   0  0  0  0  0  0  0  0  0  0  0  0
   37.2310   28.3060   43.8600 C   0  0  0  0  0  0  0  0  0  0  0  0
   36.8780   27.1200   43.1460 N   0  0  0  0  0  0  0  0  0  0  0  0
   36.9870   27.2110   41.7250 C   0  0  0  0  0  0  0  0  0  0  0  0
   36.7590   28.6240   41.2630 C   0  0  2  0  0  0  0  0  0  0  0  0
   36.6390   28.7340   39.8000 C   0  0  0  0  0  0  0  0  0  0  0  0
   35.4670   29.2300   39.2210 C   0  0  0  0  0  0  0  0  0  0  0  0
   35.2700   29.3660   37.8670 C   0  0  0  0  0  0  0  0  0  0  0  0
   36.3050   28.9810   37.1050 N   0  0  0  0  0  0  0  0  0  0  0  0
   37.4440   28.5010   37.6230 C   0  0  0  0  0  0  0  0  0  0  0  0
   37.6350   28.3690   38.9640 N   0  0  0  0  0  0  0  0  0  0  0  0
   38.4860   28.1230   36.6350 C   0  0  0  0  0  0  0  0  0  0  0  0
   39.6130   28.8740   36.9070 F   0  0  0  0  0  0  0  0  0  0  0  0
   38.0220   28.3480   35.3380 F   0  0  0  0  0  0  0  0  0  0  0  0
   38.7930   26.7740   36.6920 F   0  0  0  0  0  0  0  0  0  0  0  0
   41.0549   32.0239   39.8480 H   0  0  0  0  0  0  0  0  0  0  0  0
   40.3237   29.9512   41.1033 H   0  0  0  0  0  0  0  0  0  0  0  0
   37.1349   34.5307   39.2371 H   0  0  0  0  0  0  0  0  0  0  0  0
   35.8517   33.5570   40.0038 H   0  0  0  0  0  0  0  0  0  0  0  0
   39.2285   28.5929   43.0528 H   0  0  0  0  0  0  0  0  0  0  0  0
   38.5008   30.0756   43.7175 H   0  0  0  0  0  0  0  0  0  0  0  0
   37.6242   28.0150   44.8452 H   0  0  0  0  0  0  0  0  0  0  0  0
   36.3211   28.9192   43.9379 H   0  0  0  0  0  0  0  0  0  0  0  0
   37.4958   26.3601   43.4650 H   0  0  0  0  0  0  0  0  0  0  0  0
   37.9933   26.8891   41.4188 H   0  0  0  0  0  0  0  0  0  0  0  0
   36.2236   26.5629   41.2698 H   0  0  0  0  0  0  0  0  0  0  0  0
   35.7810   28.9723   41.6264 H   0  0  0  0  0  0  0  0  0  0  0  0
   34.6493   29.5310   39.8924 H   0  0  0  0  0  0  0  0  0  0  0  0
   34.3355   29.7602   37.4412 H   0  0  0  0  0  0  0  0  0  0  0  0
  1  2  2  0
  2  3  1  0
  3  8  1  0
  4  3  2  0
  5  4  1  0
  6  5  2  0
  6  1  1  0
  7  5  1  0
  8  9  1  0
  9 10  1  0
 11 10  1  0
 12 11  1  0
 13 12  1  0
 13  8  1  0
 14 13  1  0
 15 14  2  0
 16 15  1  0
 17 18  1  0
 17 16  2  0
 18 19  2  0
 19 14  1  0
 20 23  1  0
 20 21  1  0
 20 18  1  0
 22 20  1  0
  1 24  1  0
  2 25  1  0
  7 26  1  0
  7 27  1  0
  9 28  1  0
  9 29  1  0
 10 30  1  0
 10 31  1  0
 11 32  1  0
 12 33  1  0
 12 34  1  0
 13 35  1  1
 15 36  1  0
 16 37  1  0
M  ISO  8  24  14  25  14  28  13  29  13  30  13  31  13  32   5  33  13
M  ISO  4  34  13  35  13  36  14  37  14
M  END
>  <minimizedAffinity>  (1) 
-5.78821516

>  <minimizedRMSD>  (1) 
0.359862328

$$$$
