
     RDKit          3D

 21 23  0  0  0  0  0  0  0  0999 V2000
   38.0980   32.4860   40.4020 C   0  0  0  0  0  0  0  0  0  0  0  0
   36.8340   32.2420   40.0210 N   0  0  0  0  0  0  0  0  0  0  0  0
   36.4030   31.1580   40.5710 O   0  0  0  0  0  0  0  0  0  0  0  0
   37.3300   30.6350   41.3260 C   0  0  0  0  0  0  0  0  0  0  0  0
   38.4050   31.4660   41.2270 N   0  0  0  0  0  0  0  0  0  0  0  0
   37.4630   29.4860   42.1660 N   0  0  0  0  0  0  0  0  0  0  0  0
   36.9290   28.3260   41.7230 C   0  0  0  0  0  0  0  0  0  0  0  0
   37.1280   27.3360   42.6090 N   0  0  0  0  0  0  0  0  0  0  0  0
   37.8080   27.9100   43.6280 C   0  0  0  0  0  0  0  0  0  0  0  0
   38.0070   29.2230   43.3470 N   0  0  0  0  0  0  0  0  0  0  0  0
   41.0940   34.5080   39.3050 C   0  0  0  0  0  0  0  0  0  0  0  0
   40.3220   33.3720   39.5170 C   0  0  0  0  0  0  0  0  0  0  0  0
   39.0630   33.5520   40.0960 C   0  0  0  0  0  0  0  0  0  0  0  0
   38.6590   34.8140   40.4190 N   0  0  0  0  0  0  0  0  0  0  0  0
   39.4460   35.8920   40.1920 C   0  0  0  0  0  0  0  0  0  0  0  0
   40.6770   35.7420   39.6300 N   0  0  0  0  0  0  0  0  0  0  0  0
   36.4018   28.2083   40.7648 H   0  0  0  0  0  0  0  0  0  0  0  0
   38.1459   27.3947   44.5392 H   0  0  0  0  0  0  0  0  0  0  0  0
   42.0893   34.3910   38.8515 H   0  0  0  0  0  0  0  0  0  0  0  0
   40.6871   32.3719   39.2403 H   0  0  0  0  0  0  0  0  0  0  0  0
   39.0883   36.8962   40.4635 H   0  0  0  0  0  0  0  0  0  0  0  0
  1  5  1  0
  2  1  2  0
  2  3  1  0
  3  4  1  0
  4  6  1  0
  5  4  2  0
  6 10  1  0
  7  6  1  0
  7  8  2  0
  8  9  1  0
 10  9  2  0
 11 12  2  0
 11 16  1  0
 12 13  1  0
 13  1  1  0
 13 14  2  0
 15 14  1  0
 16 15  2  0
  7 17  1  0
  9 18  1  0
 11 19  1  0
 12 20  1  0
 15 21  1  0
M  ISO  5  17  14  18  14  19  14  20  14  21  14
M  END
>  <minimizedAffinity>  (1) 
-5.18178988

>  <minimizedRMSD>  (1) 
3.67739105

$$$$
