
     RDKit          3D

 41 44  0  0  1  0  0  0  0  0999 V2000
   40.0410   32.1420   41.0980 C   0  0  0  0  0  0  0  0  0  0  0  0
   39.6290   30.8680   41.5750 C   0  0  0  0  0  0  0  0  0  0  0  0
   38.3030   30.5400   41.4550 C   0  0  0  0  0  0  0  0  0  0  0  0
   37.4350   31.4410   40.8860 N   0  0  0  0  0  0  0  0  0  0  0  0
   37.8610   32.6520   40.4380 C   0  0  0  0  0  0  0  0  0  0  0  0
   39.1700   33.0060   40.5440 N   0  0  0  0  0  0  0  0  0  0  0  0
   36.9130   33.5430   39.8570 N   0  0  0  0  0  0  0  0  0  0  0  0
   37.8050   29.3050   41.8980 N   0  0  0  0  0  0  0  0  0  0  0  0
   37.9410   28.9290   43.2880 C   0  0  0  0  0  0  0  0  0  0  0  0
   36.8550   27.8800   43.5740 C   0  0  0  0  0  0  0  0  0  0  0  0
   36.9210   26.7390   42.7290 N   0  0  0  0  0  0  0  0  0  0  0  0
   37.4400   26.9820   41.4210 C   0  0  0  0  0  0  0  0  0  0  0  0
   37.1530   28.3940   40.9830 C   0  0  2  0  0  0  0  0  0  0  0  0
   37.4620   28.6320   39.5600 C   0  0  0  0  0  0  0  0  0  0  0  0
   36.4840   29.1580   38.7100 C   0  0  0  0  0  0  0  0  0  0  0  0
   36.6950   29.4070   37.3760 C   0  0  0  0  0  0  0  0  0  0  0  0
   37.9160   29.1110   36.9200 N   0  0  0  0  0  0  0  0  0  0  0  0
   38.8740   28.6020   37.7230 C   0  0  0  0  0  0  0  0  0  0  0  0
   38.6810   28.3510   39.0430 N   0  0  0  0  0  0  0  0  0  0  0  0
   40.2390   28.2700   37.2190 C   0  0  0  0  0  0  0  0  0  0  0  0
   40.5360   26.8660   36.8300 C   0  0  0  0  0  0  0  0  0  0  0  0
   41.8190   26.6830   36.3840 C   0  0  0  0  0  0  0  0  0  0  0  0
   42.7290   27.6940   36.3070 C   0  0  0  0  0  0  0  0  0  0  0  0
   41.7070   29.1600   36.9390 S   0  0  0  0  0  0  0  0  0  0  0  0
   41.0993   32.4294   41.1838 H   0  0  0  0  0  0  0  0  0  0  0  0
   40.3493   30.1690   42.0251 H   0  0  0  0  0  0  0  0  0  0  0  0
   35.9241   33.2651   39.7815 H   0  0  0  0  0  0  0  0  0  0  0  0
   37.2166   34.4650   39.5125 H   0  0  0  0  0  0  0  0  0  0  0  0
   38.9379   28.5005   43.4683 H   0  0  0  0  0  0  0  0  0  0  0  0
   37.8274   29.8033   43.9457 H   0  0  0  0  0  0  0  0  0  0  0  0
   36.9620   27.5458   44.6165 H   0  0  0  0  0  0  0  0  0  0  0  0
   35.8854   28.3634   43.3834 H   0  0  0  0  0  0  0  0  0  0  0  0
   37.5223   26.0384   43.1856 H   0  0  0  0  0  0  0  0  0  0  0  0
   38.5282   26.8218   41.4298 H   0  0  0  0  0  0  0  0  0  0  0  0
   36.9555   26.2900   40.7164 H   0  0  0  0  0  0  0  0  0  0  0  0
   36.0702   28.5804   41.0352 H   0  0  0  0  0  0  0  0  0  0  0  0
   35.4937   29.3842   39.1321 H   0  0  0  0  0  0  0  0  0  0  0  0
   35.9110   29.8225   36.7259 H   0  0  0  0  0  0  0  0  0  0  0  0
   39.7977   26.0531   36.8940 H   0  0  0  0  0  0  0  0  0  0  0  0
   42.1281   25.6738   36.0741 H   0  0  0  0  0  0  0  0  0  0  0  0
   43.7754   27.6668   35.9690 H   0  0  0  0  0  0  0  0  0  0  0  0
  1  2  2  0
  3  2  1  0
  3  8  1  0
  4  3  2  0
  5  6  2  0
  5  4  1  0
  6  1  1  0
  7  5  1  0
  8  9  1  0
  9 10  1  0
 11 10  1  0
 12 11  1  0
 13 12  1  0
 13  8  1  0
 14 13  1  0
 15 14  2  0
 16 15  1  0
 17 16  2  0
 17 18  1  0
 18 19  2  0
 19 14  1  0
 20 18  1  0
 21 20  2  0
 22 21  1  0
 23 22  2  0
 23 24  1  0
 24 20  1  0
  1 25  1  0
  2 26  1  0
  7 27  1  0
  7 28  1  0
  9 29  1  0
  9 30  1  0
 10 31  1  0
 10 32  1  0
 11 33  1  0
 12 34  1  0
 12 35  1  0
 13 36  1  6
 15 37  1  0
 16 38  1  0
 21 39  1  0
 22 40  1  0
 23 41  1  0
M  ISO  8  25  14  26  14  29  13  30  13  31  13  32  13  33   5  34  13
M  ISO  7  35  13  36  13  37  14  38  14  39  14  40  14  41  14
M  END
>  <minimizedAffinity>  (1) 
-5.74517965

>  <minimizedRMSD>  (1) 
1.18065882

$$$$
