
     RDKit          3D

 16 17  0  0  0  0  0  0  0  0999 V2000
   39.4040   33.1380   40.6690 C   0  0  0  0  0  0  0  0  0  0  0  0
   39.1160   31.9160   41.3010 C   0  0  0  0  0  0  0  0  0  0  0  0
   37.8650   31.3570   41.0210 C   0  0  0  0  0  0  0  0  0  0  0  0
   37.0210   32.0060   40.1780 N   0  0  0  0  0  0  0  0  0  0  0  0
   37.3460   33.1820   39.5950 C   0  0  0  0  0  0  0  0  0  0  0  0
   38.5550   33.7550   39.8460 N   0  0  0  0  0  0  0  0  0  0  0  0
   37.3690   30.0920   41.5740 C   0  0  0  0  0  0  0  0  0  0  0  0
   36.3780   29.2490   41.1990 N   0  0  0  0  0  0  0  0  0  0  0  0
   36.3210   28.2430   42.0180 O   0  0  0  0  0  0  0  0  0  0  0  0
   37.2400   28.3650   42.9430 C   0  0  0  0  0  0  0  0  0  0  0  0
   37.9050   29.5200   42.6770 N   0  0  0  0  0  0  0  0  0  0  0  0
   37.6410   27.6200   44.0460 O   0  0  0  0  0  0  0  0  0  0  0  0
   40.3788   33.6093   40.8630 H   0  0  0  0  0  0  0  0  0  0  0  0
   39.8333   31.4275   41.9769 H   0  0  0  0  0  0  0  0  0  0  0  0
   36.6334   33.6756   38.9179 H   0  0  0  0  0  0  0  0  0  0  0  0
   38.3903   27.9358   44.6107 H   0  0  0  0  0  0  0  0  0  0  0  0
  1  2  2  0
  3  2  1  0
  3  7  1  0
  4  3  2  0
  5  6  2  0
  5  4  1  0
  6  1  1  0
  7 11  1  0
  8  7  2  0
  8  9  1  0
  9 10  1  0
 10 12  1  0
 11 10  2  0
  1 13  1  0
  2 14  1  0
  5 15  1  0
 12 16  1  0
M  ISO  4  13  14  14  14  15  14  16   3
M  END
>  <minimizedAffinity>  (1) 
-3.70569706

>  <minimizedRMSD>  (1) 
0.861172378

$$$$
