
     RDKit          3D

 27 29  0  0  0  0  0  0  0  0999 V2000
   36.7850   28.8870   39.5050 C   0  0  0  0  0  0  0  0  0  0  0  0
   35.9550   27.9590   38.9660 N   0  0  0  0  0  0  0  0  0  0  0  0
   36.2040   26.7850   39.4940 O   0  0  0  0  0  0  0  0  0  0  0  0
   37.1640   26.8890   40.3620 C   0  0  0  0  0  0  0  0  0  0  0  0
   37.5390   28.1940   40.3830 N   0  0  0  0  0  0  0  0  0  0  0  0
   37.7580   25.8400   41.1790 C   0  0  0  0  0  0  0  0  0  0  0  0
   37.1770   24.7160   41.5940 N   0  0  0  0  0  0  0  0  0  0  0  0
   38.0150   24.0250   42.3000 O   0  0  0  0  0  0  0  0  0  0  0  0
   39.1750   24.6630   42.3780 C   0  0  0  0  0  0  0  0  0  0  0  0
   39.0060   25.8010   41.6710 N   0  0  0  0  0  0  0  0  0  0  0  0
   40.3630   24.2460   43.0610 N   0  0  0  0  0  0  0  0  0  0  0  0
   41.2910   25.1920   43.6140 C   0  0  0  0  0  0  0  0  0  0  0  0
   40.7480   26.2770   44.1070 N   0  0  0  0  0  0  0  0  0  0  0  0
   42.6830   24.8220   43.5530 N   0  0  0  0  0  0  0  0  0  0  0  0
   41.4020   26.9780   44.5140 H   0  0  0  0  0  0  0  0  0  0  0  0
   36.9380   32.6470   39.8580 C   0  0  0  0  0  0  0  0  0  0  0  0
   36.7250   31.3210   40.2410 C   0  0  0  0  0  0  0  0  0  0  0  0
   36.9490   30.3220   39.2980 C   0  0  0  0  0  0  0  0  0  0  0  0
   37.3650   30.6910   38.0530 N   0  0  0  0  0  0  0  0  0  0  0  0
   37.5570   31.9990   37.7320 C   0  0  0  0  0  0  0  0  0  0  0  0
   37.3450   32.9690   38.6270 N   0  0  0  0  0  0  0  0  0  0  0  0
   40.5571   23.2391   43.1582 H   0  0  0  0  0  0  0  0  0  0  0  0
   43.4013   25.4555   43.9319 H   0  0  0  0  0  0  0  0  0  0  0  0
   42.9592   23.9242   43.1305 H   0  0  0  0  0  0  0  0  0  0  0  0
   36.7657   33.4491   40.5908 H   0  0  0  0  0  0  0  0  0  0  0  0
   36.3898   31.0731   41.2589 H   0  0  0  0  0  0  0  0  0  0  0  0
   37.8926   32.2630   36.7182 H   0  0  0  0  0  0  0  0  0  0  0  0
  1  5  1  0
  2  3  1  0
  2  1  2  0
  3  4  1  0
  4  5  2  0
  4  6  1  0
  6  7  2  0
  6 10  1  0
  7  8  1  0
  8  9  1  0
  9 11  1  0
 10  9  2  0
 11 12  1  0
 12 13  2  0
 13 15  1  0
 14 12  1  0
 16 17  2  0
 18  1  1  0
 18 17  1  0
 19 18  2  0
 20 19  1  0
 20 21  2  0
 21 16  1  0
 11 22  1  0
 14 23  1  0
 14 24  1  0
 16 25  1  0
 17 26  1  0
 20 27  1  0
M  ISO  3  25  14  26  14  27  14
M  END
>  <minimizedAffinity>  (1) 
-5.04018116

>  <minimizedRMSD>  (1) 
4.20128489

$$$$
