
     RDKit          3D

 22 24  0  0  0  0  0  0  0  0999 V2000
   36.3090   27.4940   38.3080 C   0  0  0  0  0  0  0  0  0  0  0  0
   36.3170   26.1580   38.5680 N   0  0  0  0  0  0  0  0  0  0  0  0
   36.6090   25.9600   39.8320 O   0  0  0  0  0  0  0  0  0  0  0  0
   36.7950   27.1030   40.4300 C   0  0  0  0  0  0  0  0  0  0  0  0
   36.6110   28.0610   39.4920 N   0  0  0  0  0  0  0  0  0  0  0  0
   36.5010   29.8670   35.3780 C   0  0  0  0  0  0  0  0  0  0  0  0
   36.9190   29.2130   36.5450 C   0  0  0  0  0  0  0  0  0  0  0  0
   36.0550   28.2720   37.1060 C   0  0  0  0  0  0  0  0  0  0  0  0
   34.8710   28.0520   36.4860 N   0  0  0  0  0  0  0  0  0  0  0  0
   34.5110   28.7110   35.3570 C   0  0  0  0  0  0  0  0  0  0  0  0
   35.3350   29.6180   34.8110 N   0  0  0  0  0  0  0  0  0  0  0  0
   37.1330   27.3540   41.8190 C   0  0  0  0  0  0  0  0  0  0  0  0
   38.3320   27.1850   42.4050 N   0  0  0  0  0  0  0  0  0  0  0  0
   38.2120   27.5250   43.6680 O   0  0  0  0  0  0  0  0  0  0  0  0
   36.9910   27.9100   43.9430 C   0  0  0  0  0  0  0  0  0  0  0  0
   36.3020   27.8070   42.7870 N   0  0  0  0  0  0  0  0  0  0  0  0
   36.4620   28.3500   45.1780 N   0  0  0  0  0  0  0  0  0  0  0  0
   37.1668   30.6128   34.9191 H   0  0  0  0  0  0  0  0  0  0  0  0
   37.8945   29.4339   37.0028 H   0  0  0  0  0  0  0  0  0  0  0  0
   33.5390   28.5010   34.8867 H   0  0  0  0  0  0  0  0  0  0  0  0
   35.4715   28.6242   45.2456 H   0  0  0  0  0  0  0  0  0  0  0  0
   37.0671   28.3963   46.0102 H   0  0  0  0  0  0  0  0  0  0  0  0
  1  2  2  0
  1  5  1  0
  2  3  1  0
  3  4  1  0
  4 12  1  0
  5  4  2  0
  6  7  2  0
  7  8  1  0
  8  1  1  0
  9  8  2  0
 10  9  1  0
 11 10  2  0
 11  6  1  0
 12 13  2  0
 12 16  1  0
 13 14  1  0
 14 15  1  0
 15 17  1  0
 16 15  2  0
  6 18  1  0
  7 19  1  0
 10 20  1  0
 17 21  1  0
 17 22  1  0
M  ISO  3  18  14  19  14  20  14
M  END
>  <minimizedAffinity>  (1) 
-4.22457314

>  <minimizedRMSD>  (1) 
2.08952975

$$$$
