
     RDKit          3D

 43 45  0  0  1  0  0  0  0  0999 V2000
   39.9610   31.8420   39.9880 C   0  0  0  0  0  0  0  0  0  0  0  0
   39.5610   30.6920   40.7260 C   0  0  0  0  0  0  0  0  0  0  0  0
   38.2490   30.6090   41.1130 C   0  0  0  0  0  0  0  0  0  0  0  0
   37.3830   31.6220   40.7780 N   0  0  0  0  0  0  0  0  0  0  0  0
   37.7840   32.7070   40.0760 C   0  0  0  0  0  0  0  0  0  0  0  0
   39.0800   32.8200   39.6770 N   0  0  0  0  0  0  0  0  0  0  0  0
   36.8470   33.7210   39.7580 N   0  0  0  0  0  0  0  0  0  0  0  0
   37.7650   29.5130   41.8420 N   0  0  0  0  0  0  0  0  0  0  0  0
   38.3330   29.1990   43.1320 C   0  0  0  0  0  0  0  0  0  0  0  0
   37.2930   28.3760   43.8990 C   0  0  0  0  0  0  0  0  0  0  0  0
   36.8710   27.1940   43.2190 N   0  0  0  0  0  0  0  0  0  0  0  0
   36.9130   27.2690   41.7970 C   0  0  0  0  0  0  0  0  0  0  0  0
   36.6990   28.6820   41.3250 C   0  0  2  0  0  0  0  0  0  0  0  0
   36.4990   28.7820   39.8740 C   0  0  0  0  0  0  0  0  0  0  0  0
   35.2660   29.1690   39.3460 C   0  0  0  0  0  0  0  0  0  0  0  0
   35.0070   29.2820   38.0090 C   0  0  0  0  0  0  0  0  0  0  0  0
   36.0340   28.9930   37.1940 N   0  0  0  0  0  0  0  0  0  0  0  0
   37.2300   28.6190   37.6710 C   0  0  0  0  0  0  0  0  0  0  0  0
   37.4890   28.5070   38.9970 N   0  0  0  0  0  0  0  0  0  0  0  0
   38.3400   28.3090   36.7200 C   0  0  0  0  0  0  0  0  0  0  0  0
   38.3400   26.8900   36.2470 C   0  0  0  0  0  0  0  0  0  0  0  0
   39.6800   28.7030   37.3400 C   0  0  0  0  0  0  0  0  0  0  0  0
   41.0079   31.9370   39.6641 H   0  0  0  0  0  0  0  0  0  0  0  0
   40.2798   29.8980   40.9767 H   0  0  0  0  0  0  0  0  0  0  0  0
   37.1460   34.5494   39.2239 H   0  0  0  0  0  0  0  0  0  0  0  0
   35.8668   33.6298   40.0609 H   0  0  0  0  0  0  0  0  0  0  0  0
   39.2562   28.6147   43.0047 H   0  0  0  0  0  0  0  0  0  0  0  0
   38.5846   30.1183   43.6812 H   0  0  0  0  0  0  0  0  0  0  0  0
   37.7288   28.0821   44.8653 H   0  0  0  0  0  0  0  0  0  0  0  0
   36.4033   29.0130   44.0115 H   0  0  0  0  0  0  0  0  0  0  0  0
   37.4815   26.4194   43.5161 H   0  0  0  0  0  0  0  0  0  0  0  0
   37.8949   26.9176   41.4471 H   0  0  0  0  0  0  0  0  0  0  0  0
   36.1100   26.6377   41.3888 H   0  0  0  0  0  0  0  0  0  0  0  0
   35.7495   29.0611   41.7309 H   0  0  0  0  0  0  0  0  0  0  0  0
   34.4522   29.3972   40.0501 H   0  0  0  0  0  0  0  0  0  0  0  0
   34.0227   29.5893   37.6260 H   0  0  0  0  0  0  0  0  0  0  0  0
   38.1730   28.9116   35.8150 H   0  0  0  0  0  0  0  0  0  0  0  0
   39.3771   26.5422   36.1311 H   0  0  0  0  0  0  0  0  0  0  0  0
   37.8215   26.2581   36.9831 H   0  0  0  0  0  0  0  0  0  0  0  0
   37.8215   26.8262   35.2790 H   0  0  0  0  0  0  0  0  0  0  0  0
   39.5978   28.6788   38.4367 H   0  0  0  0  0  0  0  0  0  0  0  0
   40.4567   27.9952   37.0148 H   0  0  0  0  0  0  0  0  0  0  0  0
   39.9500   29.7186   37.0148 H   0  0  0  0  0  0  0  0  0  0  0  0
  1  2  2  0
  2  3  1  0
  3  8  1  0
  4  3  2  0
  5  4  1  0
  6  1  1  0
  6  5  2  0
  7  5  1  0
  8  9  1  0
  9 10  1  0
 11 10  1  0
 12 11  1  0
 13 12  1  0
 13  8  1  0
 14 13  1  0
 15 14  2  0
 16 15  1  0
 17 18  1  0
 17 16  2  0
 18 19  2  0
 19 14  1  0
 20 22  1  0
 20 18  1  0
 21 20  1  0
  1 23  1  0
  2 24  1  0
  7 25  1  0
  7 26  1  0
  9 27  1  0
  9 28  1  0
 10 29  1  0
 10 30  1  0
 11 31  1  0
 12 32  1  0
 12 33  1  0
 13 34  1  1
 15 35  1  0
 16 36  1  0
 20 37  1  0
 21 38  1  0
 21 39  1  0
 21 40  1  0
 22 41  1  0
 22 42  1  0
 22 43  1  0
M  ISO  8  23  14  24  14  27  13  28  13  29  13  30  13  31   5  32  13
M  ISO  8  33  13  34  13  35  14  36  14  37   8  38   8  39   8  40   8
M  ISO  3  41   8  42   8  43   8
M  END
>  <minimizedAffinity>  (1) 
-5.6899991

>  <minimizedRMSD>  (1) 
0.371920139

$$$$
