
     RDKit          3D

 21 23  0  0  0  0  0  0  0  0999 V2000
   37.8100   28.1440   37.9250 C   0  0  0  0  0  0  0  0  0  0  0  0
   38.4740   26.9700   38.0550 N   0  0  0  0  0  0  0  0  0  0  0  0
   38.6870   26.7240   39.3270 O   0  0  0  0  0  0  0  0  0  0  0  0
   38.1870   27.6950   40.0540 C   0  0  0  0  0  0  0  0  0  0  0  0
   37.6320   28.5950   39.2010 N   0  0  0  0  0  0  0  0  0  0  0  0
   36.6480   30.8150   35.5320 C   0  0  0  0  0  0  0  0  0  0  0  0
   37.1270   30.2690   36.7210 C   0  0  0  0  0  0  0  0  0  0  0  0
   37.3210   28.8960   36.7840 C   0  0  0  0  0  0  0  0  0  0  0  0
   37.0310   28.1590   35.6750 N   0  0  0  0  0  0  0  0  0  0  0  0
   36.5640   28.7380   34.5360 C   0  0  0  0  0  0  0  0  0  0  0  0
   36.3730   30.0650   34.4650 N   0  0  0  0  0  0  0  0  0  0  0  0
   38.2050   27.8140   41.4950 C   0  0  0  0  0  0  0  0  0  0  0  0
   39.2900   27.8900   42.2940 N   0  0  0  0  0  0  0  0  0  0  0  0
   38.9000   27.9880   43.5270 O   0  0  0  0  0  0  0  0  0  0  0  0
   37.5880   27.9810   43.6020 C   0  0  0  0  0  0  0  0  0  0  0  0
   37.1620   27.8720   42.3270 N   0  0  0  0  0  0  0  0  0  0  0  0
   36.4350   28.0810   44.9570 S   0  0  0  0  0  0  0  0  0  0  0  0
   36.4914   31.9021   35.4718 H   0  0  0  0  0  0  0  0  0  0  0  0
   37.3459   30.9098   37.5879 H   0  0  0  0  0  0  0  0  0  0  0  0
   36.3398   28.1102   33.6610 H   0  0  0  0  0  0  0  0  0  0  0  0
   37.1180   28.0218   46.1431 H   0  0  0  0  0  0  0  0  0  0  0  0
  1  2  2  0
  1  5  1  0
  2  3  1  0
  3  4  1  0
  4 12  1  0
  5  4  2  0
  6  7  2  0
  7  8  1  0
  8  1  1  0
  9  8  2  0
 10  9  1  0
 11 10  2  0
 11  6  1  0
 12 13  2  0
 12 16  1  0
 13 14  1  0
 14 15  1  0
 15 17  1  0
 16 15  2  0
  6 18  1  0
  7 19  1  0
 10 20  1  0
 17 21  1  0
M  ISO  4  18  14  19  14  20  14  21  11
M  END
>  <minimizedAffinity>  (1) 
-2.99536896

>  <minimizedRMSD>  (1) 
1.74699354

$$$$
