
     RDKit          3D

 24 26  0  0  0  0  0  0  0  0999 V2000
   36.0830   27.0550   37.5070 C   0  0  0  0  0  0  0  0  0  0  0  0
   35.8120   25.7230   37.6900 N   0  0  0  0  0  0  0  0  0  0  0  0
   36.1150   25.3950   38.9200 O   0  0  0  0  0  0  0  0  0  0  0  0
   36.5680   26.4270   39.5620 C   0  0  0  0  0  0  0  0  0  0  0  0
   36.5550   27.4660   38.7000 N   0  0  0  0  0  0  0  0  0  0  0  0
   36.6320   29.1780   34.4430 C   0  0  0  0  0  0  0  0  0  0  0  0
   36.9490   28.3160   35.5020 C   0  0  0  0  0  0  0  0  0  0  0  0
   35.9430   27.9370   36.3610 C   0  0  0  0  0  0  0  0  0  0  0  0
   34.6840   28.4220   36.1410 N   0  0  0  0  0  0  0  0  0  0  0  0
   34.4160   29.2540   35.1060 C   0  0  0  0  0  0  0  0  0  0  0  0
   35.3730   29.6300   34.2670 N   0  0  0  0  0  0  0  0  0  0  0  0
   37.0180   26.5050   40.9480 C   0  0  0  0  0  0  0  0  0  0  0  0
   37.8690   25.6690   41.5660 N   0  0  0  0  0  0  0  0  0  0  0  0
   38.0220   26.0680   42.7960 O   0  0  0  0  0  0  0  0  0  0  0  0
   37.3060   27.1420   43.0270 C   0  0  0  0  0  0  0  0  0  0  0  0
   36.6570   27.4390   41.8630 N   0  0  0  0  0  0  0  0  0  0  0  0
   37.1490   27.9620   44.2660 C   0  0  0  0  0  0  0  0  0  0  0  0
   37.1590   29.3060   43.8600 O   0  0  0  0  0  0  0  0  0  0  0  0
   37.4221   29.4908   33.7445 H   0  0  0  0  0  0  0  0  0  0  0  0
   37.9772   27.9513   35.6429 H   0  0  0  0  0  0  0  0  0  0  0  0
   33.3903   29.6232   34.9589 H   0  0  0  0  0  0  0  0  0  0  0  0
   36.1969   27.7222   44.7620 H   0  0  0  0  0  0  0  0  0  0  0  0
   37.9579   27.7575   44.9828 H   0  0  0  0  0  0  0  0  0  0  0  0
   37.1634   29.8918   44.6581 H   0  0  0  0  0  0  0  0  0  0  0  0
  1  2  2  0
  1  5  1  0
  2  3  1  0
  3  4  1  0
  4 12  1  0
  5  4  2  0
  6  7  2  0
  7  8  1  0
  8  1  1  0
  9  8  2  0
 10  9  1  0
 11  6  1  0
 11 10  2  0
 12 13  2  0
 12 16  1  0
 13 14  1  0
 14 15  1  0
 15 17  1  0
 16 15  2  0
 18 17  1  0
  6 19  1  0
  7 20  1  0
 10 21  1  0
 17 22  1  0
 17 23  1  0
 18 24  1  0
M  ISO  6  19  14  20  14  21  14  22   8  23   8  24   3
M  END
>  <minimizedAffinity>  (1) 
-3.97175932

>  <minimizedRMSD>  (1) 
1.06635356

$$$$
