
     RDKit          3D

 32 35  0  0  0  0  0  0  0  0999 V2000
   39.9600   27.6700   42.9050 C   0  0  0  0  0  0  0  0  0  0  0  0
   40.1960   27.1000   44.0830 N   0  0  0  0  0  0  0  0  0  0  0  0
   39.9780   25.8110   43.9770 O   0  0  0  0  0  0  0  0  0  0  0  0
   39.5990   25.5120   42.7430 C   0  0  0  0  0  0  0  0  0  0  0  0
   39.5900   26.6850   42.0760 N   0  0  0  0  0  0  0  0  0  0  0  0
   39.6460   31.0690   41.7390 C   0  0  0  0  0  0  0  0  0  0  0  0
   40.8100   31.0940   42.4360 N   0  0  0  0  0  0  0  0  0  0  0  0
   41.0380   29.8930   42.9190 O   0  0  0  0  0  0  0  0  0  0  0  0
   40.0760   29.0770   42.5720 C   0  0  0  0  0  0  0  0  0  0  0  0
   39.1980   29.7890   41.8360 N   0  0  0  0  0  0  0  0  0  0  0  0
   38.3510   34.2520   40.1790 C   0  0  0  0  0  0  0  0  0  0  0  0
   39.1550   33.4210   40.9290 C   0  0  0  0  0  0  0  0  0  0  0  0
   38.8960   32.0850   40.9930 C   0  0  0  0  0  0  0  0  0  0  0  0
   37.8170   31.5970   40.2910 N   0  0  0  0  0  0  0  0  0  0  0  0
   37.0490   32.4350   39.5660 C   0  0  0  0  0  0  0  0  0  0  0  0
   37.3000   33.7510   39.5000 N   0  0  0  0  0  0  0  0  0  0  0  0
   39.2600   24.1790   42.2190 C   0  0  0  0  0  0  0  0  0  0  0  0
   37.8060   24.0710   42.1620 N   0  0  0  0  0  0  0  0  0  0  0  0
   37.0500   24.2180   40.9780 C   0  0  0  0  0  0  0  0  0  0  0  0
   37.0170   25.3380   40.1670 C   0  0  0  0  0  0  0  0  0  0  0  0
   36.1710   25.1190   39.1090 C   0  0  0  0  0  0  0  0  0  0  0  0
   35.7040   23.8770   39.2900 N   0  0  0  0  0  0  0  0  0  0  0  0
   36.2160   23.3610   40.3720 N   0  0  0  0  0  0  0  0  0  0  0  0
   38.5681   35.3294   40.1343 H   0  0  0  0  0  0  0  0  0  0  0  0
   40.0109   33.8389   41.4792 H   0  0  0  0  0  0  0  0  0  0  0  0
   36.1907   32.0272   39.0119 H   0  0  0  0  0  0  0  0  0  0  0  0
   39.6829   24.0559   41.2110 H   0  0  0  0  0  0  0  0  0  0  0  0
   39.6752   23.3962   42.8709 H   0  0  0  0  0  0  0  0  0  0  0  0
   37.3005   23.8758   43.0379 H   0  0  0  0  0  0  0  0  0  0  0  0
   37.5834   26.2643   40.3435 H   0  0  0  0  0  0  0  0  0  0  0  0
   35.9291   25.8127   38.2903 H   0  0  0  0  0  0  0  0  0  0  0  0
   35.0381   23.3996   38.6659 H   0  0  0  0  0  0  0  0  0  0  0  0
  1  2  2  0
  3  2  1  0
  4  3  1  0
  5  4  2  0
  5  1  1  0
  6 10  1  0
  6  7  2  0
  7  8  1  0
  9  1  1  0
  9  8  1  0
 10  9  2  0
 11 12  2  0
 12 13  1  0
 13  6  1  0
 14 13  2  0
 15 14  1  0
 16 15  2  0
 16 11  1  0
 17  4  1  0
 18 17  1  0
 19 18  1  0
 20 19  1  0
 21 22  1  0
 21 20  2  0
 22 23  1  0
 23 19  2  0
 11 24  1  0
 12 25  1  0
 15 26  1  0
 17 27  1  0
 17 28  1  0
 18 29  1  0
 20 30  1  0
 21 31  1  0
 22 32  1  0
M  ISO  8  24  14  25  14  26  14  27   8  28   8  30  14  31  14  32   9
M  END
>  <minimizedAffinity>  (1) 
-4.95915604

>  <minimizedRMSD>  (1) 
6.13143778

$$$$
