
     RDKit          3D

 28 30  0  0  0  0  0  0  0  0999 V2000
   35.9640   26.7100   37.5220 C   0  0  0  0  0  0  0  0  0  0  0  0
   35.3760   25.4830   37.7300 N   0  0  0  0  0  0  0  0  0  0  0  0
   35.7950   25.0220   38.8800 O   0  0  0  0  0  0  0  0  0  0  0  0
   36.6300   25.8820   39.4390 C   0  0  0  0  0  0  0  0  0  0  0  0
   36.7380   26.9190   38.6110 N   0  0  0  0  0  0  0  0  0  0  0  0
   36.6320   29.0060   34.6000 C   0  0  0  0  0  0  0  0  0  0  0  0
   36.8850   28.0700   35.5930 C   0  0  0  0  0  0  0  0  0  0  0  0
   35.8740   27.6820   36.4240 C   0  0  0  0  0  0  0  0  0  0  0  0
   34.6110   28.2230   36.2700 N   0  0  0  0  0  0  0  0  0  0  0  0
   34.4170   29.1360   35.2800 C   0  0  0  0  0  0  0  0  0  0  0  0
   35.4030   29.5260   34.4560 N   0  0  0  0  0  0  0  0  0  0  0  0
   37.2970   25.7190   40.7110 C   0  0  0  0  0  0  0  0  0  0  0  0
   37.5410   24.5940   41.3730 N   0  0  0  0  0  0  0  0  0  0  0  0
   38.1660   24.8790   42.4860 O   0  0  0  0  0  0  0  0  0  0  0  0
   38.3510   26.1730   42.5920 C   0  0  0  0  0  0  0  0  0  0  0  0
   37.8030   26.6930   41.4750 N   0  0  0  0  0  0  0  0  0  0  0  0
   39.0110   26.9100   43.6850 C   0  0  0  0  0  0  0  0  0  0  0  0
   39.2640   28.2700   43.2290 N   0  0  0  0  0  0  0  0  0  0  0  0
   38.3560   29.3100   43.0170 C   0  0  0  0  0  0  0  0  0  0  0  0
   38.7050   30.3120   42.3610 O   0  0  0  0  0  0  0  0  0  0  0  0
   37.0600   29.2730   43.5130 O   0  0  0  0  0  0  0  0  0  0  0  0
   37.4427   29.3233   33.9276 H   0  0  0  0  0  0  0  0  0  0  0  0
   37.8925   27.6441   35.7095 H   0  0  0  0  0  0  0  0  0  0  0  0
   33.4151   29.5709   35.1497 H   0  0  0  0  0  0  0  0  0  0  0  0
   38.3569   26.9293   44.5692 H   0  0  0  0  0  0  0  0  0  0  0  0
   39.9566   26.4186   43.9579 H   0  0  0  0  0  0  0  0  0  0  0  0
   40.2501   28.4964   43.0359 H   0  0  0  0  0  0  0  0  0  0  0  0
   36.4432   30.0286   43.3432 H   0  0  0  0  0  0  0  0  0  0  0  0
  1  2  2  0
  1  5  1  0
  2  3  1  0
  3  4  1  0
  4 12  1  0
  5  4  2  0
  6  7  2  0
  7  8  1  0
  8  1  1  0
  9  8  2  0
 10  9  1  0
 11  6  1  0
 11 10  2  0
 12 13  2  0
 12 16  1  0
 13 14  1  0
 14 15  1  0
 15 17  1  0
 16 15  2  0
 18 17  1  0
 19 18  1  0
 19 21  1  0
 20 19  2  0
  6 22  1  0
  7 23  1  0
 10 24  1  0
 17 25  1  0
 17 26  1  0
 18 27  1  0
 21 28  1  0
M  ISO  6  22  14  23  14  24  14  25   8  26   8  28   3
M  END
>  <minimizedAffinity>  (1) 
-4.33301687

>  <minimizedRMSD>  (1) 
1.22503912

$$$$
