
     RDKit          3D

 34 36  0  0  0  0  0  0  0  0999 V2000
   36.9760   24.9760   38.1750 C   0  0  0  0  0  0  0  0  0  0  0  0
   36.5560   24.3140   39.2870 N   0  0  0  0  0  0  0  0  0  0  0  0
   36.5070   25.1670   40.2870 O   0  0  0  0  0  0  0  0  0  0  0  0
   36.8780   26.3620   39.8780 C   0  0  0  0  0  0  0  0  0  0  0  0
   37.1700   26.2580   38.5780 N   0  0  0  0  0  0  0  0  0  0  0  0
   38.2690   23.3610   35.0160 C   0  0  0  0  0  0  0  0  0  0  0  0
   38.1730   23.6590   36.3650 C   0  0  0  0  0  0  0  0  0  0  0  0
   37.2160   24.5500   36.7910 C   0  0  0  0  0  0  0  0  0  0  0  0
   36.3810   25.1180   35.8710 N   0  0  0  0  0  0  0  0  0  0  0  0
   36.5170   24.7890   34.5540 C   0  0  0  0  0  0  0  0  0  0  0  0
   37.4450   23.9250   34.1270 N   0  0  0  0  0  0  0  0  0  0  0  0
   36.9610   27.5690   40.6680 C   0  0  0  0  0  0  0  0  0  0  0  0
   36.7180   27.6880   41.9770 N   0  0  0  0  0  0  0  0  0  0  0  0
   36.8970   28.9330   42.3300 O   0  0  0  0  0  0  0  0  0  0  0  0
   37.2540   29.6530   41.2860 C   0  0  0  0  0  0  0  0  0  0  0  0
   37.2940   28.7970   40.2390 N   0  0  0  0  0  0  0  0  0  0  0  0
   37.5580   31.0990   41.2240 C   0  0  0  0  0  0  0  0  0  0  0  0
   36.5020   31.7410   40.4430 N   0  0  0  0  0  0  0  0  0  0  0  0
   37.1020   32.6790   39.5440 C   0  0  0  0  0  0  0  0  0  0  0  0
   37.6250   31.9670   38.3040 C   0  0  0  0  0  0  0  0  0  0  0  0
   38.2860   33.3290   40.2440 C   0  0  0  0  0  0  0  0  0  0  0  0
   39.0342   22.6501   34.6710 H   0  0  0  0  0  0  0  0  0  0  0  0
   38.8550   23.1880   37.0882 H   0  0  0  0  0  0  0  0  0  0  0  0
   35.8410   25.2495   33.8185 H   0  0  0  0  0  0  0  0  0  0  0  0
   37.5822   31.5208   42.2396 H   0  0  0  0  0  0  0  0  0  0  0  0
   38.5396   31.2671   40.7570 H   0  0  0  0  0  0  0  0  0  0  0  0
   35.9856   31.0289   39.9071 H   0  0  0  0  0  0  0  0  0  0  0  0
   36.3488   33.4250   39.2504 H   0  0  0  0  0  0  0  0  0  0  0  0
   38.2510   31.1148   38.6071 H   0  0  0  0  0  0  0  0  0  0  0  0
   36.7771   31.6042   37.7045 H   0  0  0  0  0  0  0  0  0  0  0  0
   38.2248   32.6676   37.7045 H   0  0  0  0  0  0  0  0  0  0  0  0
   38.1531   33.2560   41.3335 H   0  0  0  0  0  0  0  0  0  0  0  0
   39.2127   32.8132   39.9523 H   0  0  0  0  0  0  0  0  0  0  0  0
   38.3483   34.3878   39.9523 H   0  0  0  0  0  0  0  0  0  0  0  0
  1  5  1  0
  1  2  2  0
  2  3  1  0
  4  3  1  0
  4 12  1  0
  5  4  2  0
  6  7  2  0
  7  8  1  0
  8  1  1  0
  9  8  2  0
 10  9  1  0
 11 10  2  0
 11  6  1  0
 12 13  2  0
 13 14  1  0
 15 14  1  0
 16 12  1  0
 16 15  2  0
 17 15  1  0
 18 17  1  0
 19 21  1  0
 19 18  1  0
 20 19  1  0
  6 22  1  0
  7 23  1  0
 10 24  1  0
 17 25  1  0
 17 26  1  0
 18 27  1  0
 19 28  1  0
 20 29  1  0
 20 30  1  0
 20 31  1  0
 21 32  1  0
 21 33  1  0
 21 34  1  0
M  ISO  8  22  14  23  14  24  14  25   8  26   8  27   5  28   8  29   8
M  ISO  5  30   8  31   8  32   8  33   8  34   8
M  END
>  <minimizedAffinity>  (1) 
-3.6248126

>  <minimizedRMSD>  (1) 
4.22350073

$$$$
