
     RDKit          3D

 14 14  0  0  0  0  0  0  0  0999 V2000
   37.4300   29.3300   42.0090 C   0  0  0  0  0  0  0  0  0  0  0  0
   36.5540   28.2430   41.9760 C   0  0  0  0  0  0  0  0  0  0  0  0
   36.9160   27.0640   42.6160 C   0  0  0  0  0  0  0  0  0  0  0  0
   38.1270   27.0250   43.2530 N   0  0  0  0  0  0  0  0  0  0  0  0
   38.9540   28.0890   43.2690 C   0  0  0  0  0  0  0  0  0  0  0  0
   38.5930   29.2320   42.6450 N   0  0  0  0  0  0  0  0  0  0  0  0
   37.0140   30.5230   41.3370 C   0  0  0  0  0  0  0  0  0  0  0  0
   37.7730   31.3260   40.7200 O   0  0  0  0  0  0  0  0  0  0  0  0
   35.6470   30.9190   41.3070 N   0  0  0  0  0  0  0  0  0  0  0  0
   35.5906   28.3191   41.4506 H   0  0  0  0  0  0  0  0  0  0  0  0
   36.2498   26.1887   42.6109 H   0  0  0  0  0  0  0  0  0  0  0  0
   39.9213   28.0271   43.7891 H   0  0  0  0  0  0  0  0  0  0  0  0
   35.3715   31.7820   40.8169 H   0  0  0  0  0  0  0  0  0  0  0  0
   34.9334   30.3425   41.7754 H   0  0  0  0  0  0  0  0  0  0  0  0
  1  6  2  0
  2  1  1  0
  2  3  2  0
  3  4  1  0
  4  5  2  0
  6  5  1  0
  7  1  1  0
  8  7  2  0
  9  7  1  0
  2 10  1  0
  3 11  1  0
  5 12  1  0
  9 13  1  0
  9 14  1  0
M  ISO  3  10  14  11  14  12  14
M  END
>  <minimizedAffinity>  (1) 
-3.54429221

>  <minimizedRMSD>  (1) 
0.691726804

$$$$
