
     RDKit          3D

 13 13  0  0  0  0  0  0  0  0999 V2000
   37.3660   29.3210   42.0480 C   0  0  0  0  0  0  0  0  0  0  0  0
   36.5220   28.2170   41.9550 C   0  0  0  0  0  0  0  0  0  0  0  0
   36.9640   27.0370   42.5610 C   0  0  0  0  0  0  0  0  0  0  0  0
   38.1630   27.0320   43.1930 N   0  0  0  0  0  0  0  0  0  0  0  0
   38.9470   28.1410   43.2530 C   0  0  0  0  0  0  0  0  0  0  0  0
   38.5520   29.2940   42.6800 N   0  0  0  0  0  0  0  0  0  0  0  0
   36.8800   30.5280   41.4100 C   0  0  0  0  0  0  0  0  0  0  0  0
   37.5580   31.3760   40.7620 O   0  0  0  0  0  0  0  0  0  0  0  0
   35.5590   30.9780   41.3960 O   0  0  0  0  0  0  0  0  0  0  0  0
   35.5562   28.2707   41.4311 H   0  0  0  0  0  0  0  0  0  0  0  0
   36.3479   26.1264   42.5254 H   0  0  0  0  0  0  0  0  0  0  0  0
   39.9142   28.0961   43.7751 H   0  0  0  0  0  0  0  0  0  0  0  0
   35.3279   31.8201   40.9297 H   0  0  0  0  0  0  0  0  0  0  0  0
  1  6  2  0
  2  1  1  0
  2  3  2  0
  3  4  1  0
  4  5  2  0
  6  5  1  0
  7  1  1  0
  8  7  2  0
  9  7  1  0
  2 10  1  0
  3 11  1  0
  5 12  1  0
  9 13  1  0
M  ISO  4  10  14  11  14  12  14  13   3
M  END
>  <minimizedAffinity>  (1) 
-3.59586549

>  <minimizedRMSD>  (1) 
0.604158103

$$$$
