
     RDKit          3D

 29 30  0  0  0  0  0  0  0  0999 V2000
   38.5770   30.4920   40.4830 C   0  0  0  0  0  0  0  0  0  0  0  0
   37.5500   31.4040   40.6380 C   0  0  0  0  0  0  0  0  0  0  0  0
   36.9380   31.9240   39.5050 C   0  0  0  0  0  0  0  0  0  0  0  0
   37.3840   31.5100   38.2910 N   0  0  0  0  0  0  0  0  0  0  0  0
   38.3910   30.6180   38.1740 C   0  0  0  0  0  0  0  0  0  0  0  0
   39.0030   30.0950   39.2630 N   0  0  0  0  0  0  0  0  0  0  0  0
   39.1790   29.9810   41.6870 C   0  0  0  0  0  0  0  0  0  0  0  0
   39.3410   30.6100   42.7730 O   0  0  0  0  0  0  0  0  0  0  0  0
   39.6880   28.7080   41.8670 O   0  0  0  0  0  0  0  0  0  0  0  0
   38.9810   27.5420   42.1380 C   0  0  0  0  0  0  0  0  0  0  0  0
   38.8720   27.3800   43.6340 C   0  0  0  0  0  0  0  0  0  0  0  0
   37.5690   27.9080   44.1820 C   0  0  0  0  0  0  0  0  0  0  0  0
   36.3650   27.3300   43.5120 C   0  0  0  0  0  0  0  0  0  0  0  0
   36.8160   26.4940   42.3390 C   0  0  0  0  0  0  0  0  0  0  0  0
   37.6420   27.4320   41.4520 C   0  0  0  0  0  0  0  0  0  0  0  0
   37.2229   31.7127   41.6419 H   0  0  0  0  0  0  0  0  0  0  0  0
   36.1159   32.6501   39.5885 H   0  0  0  0  0  0  0  0  0  0  0  0
   38.7217   30.3092   37.1714 H   0  0  0  0  0  0  0  0  0  0  0  0
   39.5527   26.7080   41.7049 H   0  0  0  0  0  0  0  0  0  0  0  0
   38.9495   26.3104   43.8790 H   0  0  0  0  0  0  0  0  0  0  0  0
   39.6857   27.9614   44.0920 H   0  0  0  0  0  0  0  0  0  0  0  0
   37.5195   27.6688   45.2545 H   0  0  0  0  0  0  0  0  0  0  0  0
   37.5545   28.9921   43.9963 H   0  0  0  0  0  0  0  0  0  0  0  0
   35.8122   26.6999   44.2243 H   0  0  0  0  0  0  0  0  0  0  0  0
   35.7065   28.1392   43.1633 H   0  0  0  0  0  0  0  0  0  0  0  0
   37.4327   25.6509   42.6839 H   0  0  0  0  0  0  0  0  0  0  0  0
   35.9616   26.0678   41.7928 H   0  0  0  0  0  0  0  0  0  0  0  0
   37.1619   28.4192   41.3813 H   0  0  0  0  0  0  0  0  0  0  0  0
   37.7351   27.0519   40.4240 H   0  0  0  0  0  0  0  0  0  0  0  0
  1  2  2  0
  1  7  1  0
  3  2  1  0
  4  3  2  0
  5  4  1  0
  5  6  2  0
  6  1  1  0
  7  9  1  0
  7  8  2  0
  9 10  1  0
 10 11  1  0
 11 12  1  0
 13 12  1  0
 14 13  1  0
 15 10  1  0
 15 14  1  0
  2 16  1  0
  3 17  1  0
  5 18  1  0
 10 19  1  0
 11 20  1  0
 11 21  1  0
 12 22  1  0
 12 23  1  0
 13 24  1  0
 13 25  1  0
 14 26  1  0
 14 27  1  0
 15 28  1  0
 15 29  1  0
M  ISO  8  16  14  17  14  18  14  19  13  20  13  21  13  22  13  23  13
M  ISO  6  24  13  25  13  26  13  27  13  28  13  29  13
M  END
>  <minimizedAffinity>  (1) 
-4.0921526

>  <minimizedRMSD>  (1) 
5.63278723

$$$$
