
     RDKit          3D

 16 16  0  0  0  0  0  0  0  0999 V2000
   38.2400   26.7650   43.0050 C   0  0  0  0  0  0  0  0  0  0  0  0
   37.6920   25.6770   42.3130 C   0  0  0  0  0  0  0  0  0  0  0  0
   38.4230   24.4880   42.3560 C   0  0  0  0  0  0  0  0  0  0  0  0
   39.5890   24.4590   43.0460 N   0  0  0  0  0  0  0  0  0  0  0  0
   40.0750   25.5550   43.7030 C   0  0  0  0  0  0  0  0  0  0  0  0
   39.3950   26.7230   43.6840 N   0  0  0  0  0  0  0  0  0  0  0  0
   37.4450   27.9840   42.9340 C   0  0  0  0  0  0  0  0  0  0  0  0
   37.7060   29.0830   43.5230 O   0  0  0  0  0  0  0  0  0  0  0  0
   36.2610   28.1420   42.2030 O   0  0  0  0  0  0  0  0  0  0  0  0
   36.2070   28.8130   40.9750 C   0  0  0  0  0  0  0  0  0  0  0  0
   37.4540   28.8580   40.3620 F   0  0  0  0  0  0  0  0  0  0  0  0
   35.3200   28.3040   40.0790 F   0  0  0  0  0  0  0  0  0  0  0  0
   35.8250   30.1150   41.2440 F   0  0  0  0  0  0  0  0  0  0  0  0
   36.7403   25.7549   41.7670 H   0  0  0  0  0  0  0  0  0  0  0  0
   38.0581   23.5889   41.8379 H   0  0  0  0  0  0  0  0  0  0  0  0
   41.0263   25.4858   44.2510 H   0  0  0  0  0  0  0  0  0  0  0  0
  1  6  2  0
  2  3  2  0
  2  1  1  0
  3  4  1  0
  4  5  2  0
  6  5  1  0
  7  1  1  0
  7  8  2  0
  9  7  1  0
 10 13  1  0
 10  9  1  0
 11 10  1  0
 12 10  1  0
  2 14  1  0
  3 15  1  0
  5 16  1  0
M  ISO  3  14  14  15  14  16  14
M  END
>  <minimizedAffinity>  (1) 
-3.67742515

>  <minimizedRMSD>  (1) 
3.22595072

$$$$
