
     RDKit          3D

 15 15  0  0  0  0  0  0  0  0999 V2000
   38.2220   26.7910   42.9920 C   0  0  0  0  0  0  0  0  0  0  0  0
   37.7310   25.6620   42.3210 C   0  0  0  0  0  0  0  0  0  0  0  0
   38.4570   24.4740   42.3810 C   0  0  0  0  0  0  0  0  0  0  0  0
   39.6190   24.4890   43.1010 N   0  0  0  0  0  0  0  0  0  0  0  0
   40.0590   25.6000   43.7340 C   0  0  0  0  0  0  0  0  0  0  0  0
   39.3650   26.7400   43.6790 N   0  0  0  0  0  0  0  0  0  0  0  0
   37.4060   27.9690   42.8710 C   0  0  0  0  0  0  0  0  0  0  0  0
   37.6640   29.0830   43.4390 O   0  0  0  0  0  0  0  0  0  0  0  0
   36.2220   28.0800   42.1240 O   0  0  0  0  0  0  0  0  0  0  0  0
   36.0600   28.9430   41.0630 C   0  0  0  0  0  0  0  0  0  0  0  0
   34.9450   29.0620   40.5220 O   0  0  0  0  0  0  0  0  0  0  0  0
   36.7883   25.7132   41.7565 H   0  0  0  0  0  0  0  0  0  0  0  0
   38.1100   23.5633   41.8709 H   0  0  0  0  0  0  0  0  0  0  0  0
   41.0006   25.5645   44.3015 H   0  0  0  0  0  0  0  0  0  0  0  0
   36.9157   29.5271   40.6936 H   0  0  0  0  0  0  0  0  0  0  0  0
  1  6  2  0
  2  3  2  0
  2  1  1  0
  3  4  1  0
  4  5  2  0
  6  5  1  0
  7  1  1  0
  7  8  2  0
  9  7  1  0
 10  9  1  0
 11 10  2  0
  2 12  1  0
  3 13  1  0
  5 14  1  0
 10 15  1  0
M  ISO  4  12  14  13  14  14  14  15   6
M  END
>  <minimizedAffinity>  (1) 
-3.30896902

>  <minimizedRMSD>  (1) 
3.15362191

$$$$
