
     RDKit          3D

 26 27  0  0  0  0  0  0  0  0999 V2000
   38.3190   26.7660   43.0840 C   0  0  0  0  0  0  0  0  0  0  0  0
   37.5370   25.9000   42.3100 C   0  0  0  0  0  0  0  0  0  0  0  0
   38.0570   24.6040   42.1220 C   0  0  0  0  0  0  0  0  0  0  0  0
   39.2510   24.2920   42.6910 N   0  0  0  0  0  0  0  0  0  0  0  0
   39.9550   25.1780   43.4280 C   0  0  0  0  0  0  0  0  0  0  0  0
   39.4910   26.4180   43.6260 N   0  0  0  0  0  0  0  0  0  0  0  0
   37.7470   28.0810   43.2470 C   0  0  0  0  0  0  0  0  0  0  0  0
   37.1500   28.5260   44.2810 O   0  0  0  0  0  0  0  0  0  0  0  0
   37.7290   29.1230   42.3250 O   0  0  0  0  0  0  0  0  0  0  0  0
   36.6510   29.7570   41.7820 C   0  0  0  0  0  0  0  0  0  0  0  0
   35.7370   28.9900   40.9050 C   0  0  0  0  0  0  0  0  0  0  0  0
   36.0740   29.2990   39.4610 C   0  0  0  0  0  0  0  0  0  0  0  0
   36.5440   30.7280   39.5500 C   0  0  0  0  0  0  0  0  0  0  0  0
   37.1810   30.8870   40.8920 C   0  0  0  0  0  0  0  0  0  0  0  0
   36.5759   26.2122   41.8755 H   0  0  0  0  0  0  0  0  0  0  0  0
   37.5076   23.8598   41.5267 H   0  0  0  0  0  0  0  0  0  0  0  0
   40.9172   24.8784   43.8690 H   0  0  0  0  0  0  0  0  0  0  0  0
   36.0588   30.0374   42.6655 H   0  0  0  0  0  0  0  0  0  0  0  0
   35.8621   27.9132   41.0918 H   0  0  0  0  0  0  0  0  0  0  0  0
   34.6943   29.2710   41.1142 H   0  0  0  0  0  0  0  0  0  0  0  0
   35.1880   29.2088   38.8153 H   0  0  0  0  0  0  0  0  0  0  0  0
   36.8142   28.6144   39.0212 H   0  0  0  0  0  0  0  0  0  0  0  0
   37.2759   30.9366   38.7557 H   0  0  0  0  0  0  0  0  0  0  0  0
   35.7057   31.4291   39.4241 H   0  0  0  0  0  0  0  0  0  0  0  0
   38.2748   30.8137   40.8011 H   0  0  0  0  0  0  0  0  0  0  0  0
   36.9411   31.8697   41.3242 H   0  0  0  0  0  0  0  0  0  0  0  0
  1  7  1  0
  1  6  1  0
  2  1  2  0
  3  2  1  0
  3  4  2  0
  4  5  1  0
  5  6  2  0
  7  8  2  0
  9  7  1  0
 10  9  1  0
 11 10  1  0
 12 13  1  0
 12 11  1  0
 13 14  1  0
 14 10  1  0
  2 15  1  0
  3 16  1  0
  5 17  1  0
 10 18  1  0
 11 19  1  0
 11 20  1  0
 12 21  1  0
 12 22  1  0
 13 23  1  0
 13 24  1  0
 14 25  1  0
 14 26  1  0
M  ISO  8  15  14  16  14  17  14  18  13  19  13  20  13  21  13  22  13
M  ISO  4  23  13  24  13  25  13  26  13
M  END
>  <minimizedAffinity>  (1) 
-4.06920385

>  <minimizedRMSD>  (1) 
3.29608083

$$$$
