
     RDKit          3D

 35 37  0  0  1  0  0  0  0  0999 V2000
   40.0050   31.9100   40.1710 C   0  0  0  0  0  0  0  0  0  0  0  0
   39.5960   30.7410   40.8680 C   0  0  0  0  0  0  0  0  0  0  0  0
   38.2630   30.6150   41.1700 C   0  0  0  0  0  0  0  0  0  0  0  0
   37.3980   31.6050   40.7940 N   0  0  0  0  0  0  0  0  0  0  0  0
   37.8130   32.7120   40.1310 C   0  0  0  0  0  0  0  0  0  0  0  0
   39.1340   32.8620   39.8170 N   0  0  0  0  0  0  0  0  0  0  0  0
   36.8520   33.7050   39.7710 N   0  0  0  0  0  0  0  0  0  0  0  0
   37.7680   29.4960   41.8560 N   0  0  0  0  0  0  0  0  0  0  0  0
   38.2580   29.1770   43.1690 C   0  0  0  0  0  0  0  0  0  0  0  0
   37.2060   28.3110   43.8610 C   0  0  0  0  0  0  0  0  0  0  0  0
   36.8450   27.1380   43.1310 N   0  0  0  0  0  0  0  0  0  0  0  0
   36.9860   27.2270   41.7220 C   0  0  0  0  0  0  0  0  0  0  0  0
   36.7600   28.6420   41.2620 C   0  0  2  0  0  0  0  0  0  0  0  0
   36.6440   28.7600   39.7950 C   0  0  0  0  0  0  0  0  0  0  0  0
   35.4620   29.2140   39.2140 C   0  0  0  0  0  0  0  0  0  0  0  0
   35.2800   29.3500   37.8610 C   0  0  0  0  0  0  0  0  0  0  0  0
   36.3290   29.0140   37.0970 N   0  0  0  0  0  0  0  0  0  0  0  0
   37.4800   28.5730   37.6370 C   0  0  0  0  0  0  0  0  0  0  0  0
   37.6640   28.4370   38.9730 N   0  0  0  0  0  0  0  0  0  0  0  0
   38.5390   28.2370   36.7970 O   0  0  0  0  0  0  0  0  0  0  0  0
   41.0675   32.0357   39.9154 H   0  0  0  0  0  0  0  0  0  0  0  0
   40.3213   29.9654   41.1550 H   0  0  0  0  0  0  0  0  0  0  0  0
   37.1508   34.5521   39.2670 H   0  0  0  0  0  0  0  0  0  0  0  0
   35.8600   33.5742   40.0154 H   0  0  0  0  0  0  0  0  0  0  0  0
   39.2057   28.6241   43.0909 H   0  0  0  0  0  0  0  0  0  0  0  0
   38.4399   30.0959   43.7456 H   0  0  0  0  0  0  0  0  0  0  0  0
   37.6027   28.0009   44.8390 H   0  0  0  0  0  0  0  0  0  0  0  0
   36.2966   28.9240   43.9466 H   0  0  0  0  0  0  0  0  0  0  0  0
   37.4388   26.3638   43.4609 H   0  0  0  0  0  0  0  0  0  0  0  0
   38.0008   26.9111   41.4383 H   0  0  0  0  0  0  0  0  0  0  0  0
   36.2404   26.5730   41.2461 H   0  0  0  0  0  0  0  0  0  0  0  0
   35.7783   28.9883   41.6175 H   0  0  0  0  0  0  0  0  0  0  0  0
   34.6263   29.4787   39.8785 H   0  0  0  0  0  0  0  0  0  0  0  0
   34.3343   29.7114   37.4309 H   0  0  0  0  0  0  0  0  0  0  0  0
   39.3913   27.9113   37.1811 H   0  0  0  0  0  0  0  0  0  0  0  0
  1  2  2  0
  2  3  1  0
  3  8  1  0
  4  3  2  0
  5  4  1  0
  6  5  2  0
  6  1  1  0
  7  5  1  0
  8  9  1  0
  9 10  1  0
 11 10  1  0
 12 11  1  0
 13 12  1  0
 13  8  1  0
 14 13  1  0
 15 14  2  0
 16 15  1  0
 17 18  1  0
 17 16  2  0
 18 19  2  0
 19 14  1  0
 20 18  1  0
  1 21  1  0
  2 22  1  0
  7 23  1  0
  7 24  1  0
  9 25  1  0
  9 26  1  0
 10 27  1  0
 10 28  1  0
 11 29  1  0
 12 30  1  0
 12 31  1  0
 13 32  1  1
 15 33  1  0
 16 34  1  0
 20 35  1  0
M  ISO  8  21  14  22  14  25  13  26  13  27  13  28  13  29   5  30  13
M  ISO  5  31  13  32  13  33  14  34  14  35   3
M  END
>  <minimizedAffinity>  (1) 
-5.5035181

>  <minimizedRMSD>  (1) 
0.0313987732

$$$$
