
     RDKit          3D

 42 44  0  0  1  0  0  0  0  0999 V2000
   37.8600   30.5990   39.4720 C   0  0  2  0  0  0  0  0  0  0  0  0
   36.4450   31.0210   39.9520 C   0  0  0  0  0  0  0  0  0  0  0  0
   36.0090   30.1140   41.0540 C   0  0  0  0  0  0  0  0  0  0  0  0
   36.6360   28.8180   40.5970 C   0  0  0  0  0  0  0  0  0  0  0  0
   37.9380   29.2080   39.9240 C   0  0  1  0  0  0  0  0  0  0  0  0
   38.3400   28.2050   38.8680 C   0  0  0  0  0  0  0  0  0  0  0  0
   39.7340   27.7240   39.1230 C   0  0  0  0  0  0  0  0  0  0  0  0
   40.1410   26.7080   38.0720 C   0  0  0  0  0  0  0  0  0  0  0  0
   40.2280   27.5360   36.7830 C   0  0  0  0  0  0  0  0  0  0  0  0
   38.8290   27.9160   36.4470 C   0  0  0  0  0  0  0  0  0  0  0  0
   38.0940   28.7020   37.4760 C   0  0  0  0  0  0  0  0  0  0  0  0
   38.8530   31.3240   40.0860 O   0  0  0  0  0  0  0  0  0  0  0  0
   39.8660   32.0370   39.3760 C   0  0  0  0  0  0  0  0  0  0  0  0
   40.5420   31.2970   38.6200 O   0  0  0  0  0  0  0  0  0  0  0  0
   40.0300   33.4710   39.5550 C   0  0  0  0  0  0  0  0  0  0  0  0
   38.8820   34.0990   40.1080 C   0  0  0  0  0  0  0  0  0  0  0  0
   38.9900   35.5120   40.2730 C   0  0  0  0  0  0  0  0  0  0  0  0
   40.1350   36.1340   39.9060 N   0  0  0  0  0  0  0  0  0  0  0  0
   41.1830   35.4590   39.3870 C   0  0  0  0  0  0  0  0  0  0  0  0
   41.1200   34.1400   39.2190 N   0  0  0  0  0  0  0  0  0  0  0  0
   37.9976   30.7516   38.3914 H   0  0  0  0  0  0  0  0  0  0  0  0
   36.4751   32.0575   40.3190 H   0  0  0  0  0  0  0  0  0  0  0  0
   35.7352   30.9521   39.1145 H   0  0  0  0  0  0  0  0  0  0  0  0
   36.4049   30.4369   42.0282 H   0  0  0  0  0  0  0  0  0  0  0  0
   34.9214   30.0699   41.2123 H   0  0  0  0  0  0  0  0  0  0  0  0
   36.8307   28.1614   41.4578 H   0  0  0  0  0  0  0  0  0  0  0  0
   35.9747   28.2655   39.9133 H   0  0  0  0  0  0  0  0  0  0  0  0
   38.7661   29.1712   40.6471 H   0  0  0  0  0  0  0  0  0  0  0  0
   37.6853   27.3245   38.9459 H   0  0  0  0  0  0  0  0  0  0  0  0
   40.4251   28.5791   39.0879 H   0  0  0  0  0  0  0  0  0  0  0  0
   39.7728   27.2486   40.1142 H   0  0  0  0  0  0  0  0  0  0  0  0
   41.1149   26.2588   38.3166 H   0  0  0  0  0  0  0  0  0  0  0  0
   39.4346   25.8685   37.9934 H   0  0  0  0  0  0  0  0  0  0  0  0
   40.8400   28.4353   36.9465 H   0  0  0  0  0  0  0  0  0  0  0  0
   40.6985   26.9663   35.9681 H   0  0  0  0  0  0  0  0  0  0  0  0
   38.8566   28.5145   35.5245 H   0  0  0  0  0  0  0  0  0  0  0  0
   38.2809   26.9667   36.3560 H   0  0  0  0  0  0  0  0  0  0  0  0
   38.4176   29.7515   37.4147 H   0  0  0  0  0  0  0  0  0  0  0  0
   37.0187   28.5952   37.2703 H   0  0  0  0  0  0  0  0  0  0  0  0
   37.9780   33.5382   40.3879 H   0  0  0  0  0  0  0  0  0  0  0  0
   38.1531   36.0890   40.6933 H   0  0  0  0  0  0  0  0  0  0  0  0
   42.0953   36.0030   39.1010 H   0  0  0  0  0  0  0  0  0  0  0  0
  1  5  1  0
  1  2  1  0
  1 12  1  0
  2  3  1  0
  4  3  1  0
  5  4  1  0
  6  7  1  0
  6  5  1  0
  8  7  1  0
  9  8  1  0
 10  9  1  0
 10 11  1  0
 11  6  1  0
 13 15  1  0
 13 12  1  0
 14 13  2  0
 15 16  2  0
 16 17  1  0
 18 17  2  0
 19 18  1  0
 20 19  2  0
 20 15  1  0
  1 21  1  6
  2 22  1  0
  2 23  1  0
  3 24  1  0
  3 25  1  0
  4 26  1  0
  4 27  1  0
  5 28  1  1
  6 29  1  0
  7 30  1  0
  7 31  1  0
  8 32  1  0
  8 33  1  0
  9 34  1  0
  9 35  1  0
 10 36  1  0
 10 37  1  0
 11 38  1  0
 11 39  1  0
 16 40  1  0
 17 41  1  0
 19 42  1  0
M  ISO  8  21  13  22  13  23  13  24  13  25  13  26  13  27  13  28  13
M  ISO  8  29  13  30  13  31  13  32  13  33  13  34  13  35  13  36  13
M  ISO  6  37  13  38  13  39  13  40  14  41  14  42  14
M  END
>  <minimizedAffinity>  (1) 
-4.28716278

>  <minimizedRMSD>  (1) 
7.35749722

$$$$
