
     RDKit          3D

 27 28  0  0  1  0  0  0  0  0999 V2000
   36.7440   29.8420   41.8160 C   0  0  2  0  0  0  0  0  0  0  0  0
   35.7670   29.0130   40.9160 C   0  0  0  0  0  0  0  0  0  0  0  0
   36.0560   29.2980   39.4890 C   0  0  0  0  0  0  0  0  0  0  0  0
   36.5580   30.7120   39.5320 C   0  0  0  0  0  0  0  0  0  0  0  0
   37.1770   30.8980   40.9100 C   0  0  2  0  0  0  0  0  0  0  0  0
   38.5760   30.8660   40.6550 O   0  0  0  0  0  0  0  0  0  0  0  0
   37.7820   29.0880   42.2310 O   0  0  0  0  0  0  0  0  0  0  0  0
   37.7410   28.1200   43.2760 C   0  0  0  0  0  0  0  0  0  0  0  0
   37.1460   28.5440   44.2900 O   0  0  0  0  0  0  0  0  0  0  0  0
   38.3340   26.8150   43.1140 C   0  0  0  0  0  0  0  0  0  0  0  0
   37.5420   25.9250   42.3380 C   0  0  0  0  0  0  0  0  0  0  0  0
   38.0280   24.6270   42.1300 C   0  0  0  0  0  0  0  0  0  0  0  0
   39.2360   24.3020   42.6920 N   0  0  0  0  0  0  0  0  0  0  0  0
   39.9520   25.1890   43.4230 C   0  0  0  0  0  0  0  0  0  0  0  0
   39.4910   26.4240   43.6200 N   0  0  0  0  0  0  0  0  0  0  0  0
   36.2833   30.2205   42.7404 H   0  0  0  0  0  0  0  0  0  0  0  0
   35.9074   27.9398   41.1124 H   0  0  0  0  0  0  0  0  0  0  0  0
   34.7279   29.2920   41.1450 H   0  0  0  0  0  0  0  0  0  0  0  0
   35.1461   29.2183   38.8761 H   0  0  0  0  0  0  0  0  0  0  0  0
   36.7709   28.5937   39.0385 H   0  0  0  0  0  0  0  0  0  0  0  0
   37.3137   30.8729   38.7491 H   0  0  0  0  0  0  0  0  0  0  0  0
   35.7458   31.4325   39.3555 H   0  0  0  0  0  0  0  0  0  0  0  0
   36.8765   31.8320   41.4073 H   0  0  0  0  0  0  0  0  0  0  0  0
   39.0679   30.8547   41.5141 H   0  0  0  0  0  0  0  0  0  0  0  0
   36.5786   26.2450   41.9144 H   0  0  0  0  0  0  0  0  0  0  0  0
   37.4605   23.8948   41.5369 H   0  0  0  0  0  0  0  0  0  0  0  0
   40.9178   24.8891   43.8559 H   0  0  0  0  0  0  0  0  0  0  0  0
  1  7  1  0
  2  1  1  0
  3  4  1  0
  3  2  1  0
  4  5  1  0
  5  1  1  0
  6  5  1  0
  7  8  1  0
  8  9  2  0
 10  8  1  0
 10 15  1  0
 11 10  2  0
 12 11  1  0
 12 13  2  0
 13 14  1  0
 14 15  2  0
  1 16  1  1
  2 17  1  0
  2 18  1  0
  3 19  1  0
  3 20  1  0
  4 21  1  0
  4 22  1  0
  5 23  1  1
  6 24  1  0
 11 25  1  0
 12 26  1  0
 14 27  1  0
M  ISO  8  16  13  17  13  18  13  19  13  20  13  21  13  22  13  23  13
M  ISO  4  24   3  25  14  26  14  27  14
M  END
>  <minimizedAffinity>  (1) 
-4.24452591

>  <minimizedRMSD>  (1) 
0.0338796228

$$$$
