
     RDKit          3D

 13 13  0  0  0  0  0  0  0  0999 V2000
   38.7970   29.6190   43.0520 C   0  0  0  0  0  0  0  0  0  0  0  0
   37.5450   29.0000   42.9320 C   0  0  0  0  0  0  0  0  0  0  0  0
   36.6950   29.3910   41.9000 C   0  0  0  0  0  0  0  0  0  0  0  0
   37.1280   30.3620   41.0550 N   0  0  0  0  0  0  0  0  0  0  0  0
   38.3310   30.9460   41.1830 C   0  0  0  0  0  0  0  0  0  0  0  0
   39.1540   30.5710   42.1780 N   0  0  0  0  0  0  0  0  0  0  0  0
   37.2130   27.9540   43.9340 C   0  0  0  0  0  0  0  0  0  0  0  0
   38.3480   27.2400   44.2730 F   0  0  0  0  0  0  0  0  0  0  0  0
   36.2470   27.0700   43.4940 F   0  0  0  0  0  0  0  0  0  0  0  0
   36.7440   28.4820   45.1170 F   0  0  0  0  0  0  0  0  0  0  0  0
   39.4835   29.3250   43.8596 H   0  0  0  0  0  0  0  0  0  0  0  0
   35.7051   28.9283   41.7736 H   0  0  0  0  0  0  0  0  0  0  0  0
   38.6420   31.7289   40.4757 H   0  0  0  0  0  0  0  0  0  0  0  0
  2  1  2  0
  2  7  1  0
  3  2  1  0
  4  5  1  0
  4  3  2  0
  5  6  2  0
  6  1  1  0
  7  8  1  0
  7 10  1  0
  9  7  1  0
  1 11  1  0
  3 12  1  0
  5 13  1  0
M  ISO  3  11  14  12  14  13  14
M  END
>  <minimizedAffinity>  (1) 
-3.9108274

>  <minimizedRMSD>  (1) 
1.82701731

$$$$
