
     RDKit          3D

 44 48  0  0  1  0  0  0  0  0999 V2000
   38.1210   29.6610   40.8450 C   0  0  2  0  0  0  0  0  0  0  0  0
   37.3200   30.0690   39.4760 C   0  0  0  0  0  0  0  0  0  0  0  0
   35.9140   30.3170   39.7950 C   0  0  0  0  0  0  0  0  0  0  0  0
   35.6980   29.3410   40.8930 C   0  0  0  0  0  0  0  0  0  0  0  0
   37.0070   29.3290   41.6730 C   0  0  1  0  0  0  0  0  0  0  0  0
   37.1830   28.0580   42.4570 C   0  0  0  0  0  0  0  0  0  0  0  0
   38.4030   27.8430   43.2370 C   0  0  0  0  0  0  0  0  0  0  0  0
   37.1740   28.2060   44.0010 C   0  0  0  0  0  0  0  0  0  0  0  0
   38.7060   30.7820   41.2630 O   0  0  0  0  0  0  0  0  0  0  0  0
   40.1270   30.9950   41.3320 C   0  0  0  0  0  0  0  0  0  0  0  0
   40.8050   30.0050   41.5490 O   0  0  0  0  0  0  0  0  0  0  0  0
   40.6060   32.3610   41.1280 C   0  0  0  0  0  0  0  0  0  0  0  0
   39.6020   33.2700   40.6470 C   0  0  0  0  0  0  0  0  0  0  0  0
   39.9970   34.5930   40.4040 C   0  0  0  0  0  0  0  0  0  0  0  0
   41.2990   34.9210   40.6420 N   0  0  0  0  0  0  0  0  0  0  0  0
   42.2070   34.0380   41.0940 C   0  0  0  0  0  0  0  0  0  0  0  0
   41.8370   32.7870   41.3240 N   0  0  0  0  0  0  0  0  0  0  0  0
   43.5300   34.5170   41.2970 N   0  0  0  0  0  0  0  0  0  0  0  0
   44.6510   34.1330   40.6500 C   0  0  0  0  0  0  0  0  0  0  0  0
   45.6680   34.8430   41.1640 N   0  0  0  0  0  0  0  0  0  0  0  0
   45.2120   35.6680   42.1240 C   0  0  0  0  0  0  0  0  0  0  0  0
   45.7150   36.6130   42.9960 C   0  0  0  0  0  0  0  0  0  0  0  0
   44.9550   37.2920   43.8720 N   0  0  0  0  0  0  0  0  0  0  0  0
   43.6240   37.0600   43.9250 C   0  0  0  0  0  0  0  0  0  0  0  0
   43.0790   36.1480   43.0970 N   0  0  0  0  0  0  0  0  0  0  0  0
   43.8420   35.4570   42.2080 C   0  0  0  0  0  0  0  0  0  0  0  0
   38.8850   28.8714   40.7915 H   0  0  0  0  0  0  0  0  0  0  0  0
   37.3925   29.2468   38.7488 H   0  0  0  0  0  0  0  0  0  0  0  0
   37.7660   30.9772   39.0445 H   0  0  0  0  0  0  0  0  0  0  0  0
   35.7529   31.3506   40.1353 H   0  0  0  0  0  0  0  0  0  0  0  0
   35.2278   30.2014   38.9431 H   0  0  0  0  0  0  0  0  0  0  0  0
   34.8666   29.6621   41.5378 H   0  0  0  0  0  0  0  0  0  0  0  0
   35.4343   28.3430   40.5129 H   0  0  0  0  0  0  0  0  0  0  0  0
   36.9560   30.1282   42.4271 H   0  0  0  0  0  0  0  0  0  0  0  0
   36.6498   27.4623   41.7014 H   0  0  0  0  0  0  0  0  0  0  0  0
   38.8152   26.8271   43.3270 H   0  0  0  0  0  0  0  0  0  0  0  0
   39.4177   28.2650   43.1887 H   0  0  0  0  0  0  0  0  0  0  0  0
   37.0795   29.1990   44.4647 H   0  0  0  0  0  0  0  0  0  0  0  0
   36.6027   27.7727   44.8352 H   0  0  0  0  0  0  0  0  0  0  0  0
   38.5662   32.9412   40.4765 H   0  0  0  0  0  0  0  0  0  0  0  0
   39.2807   35.3413   40.0338 H   0  0  0  0  0  0  0  0  0  0  0  0
   44.7185   33.3796   39.8514 H   0  0  0  0  0  0  0  0  0  0  0  0
   46.7949   36.8211   42.9724 H   0  0  0  0  0  0  0  0  0  0  0  0
   42.9923   37.6108   44.6375 H   0  0  0  0  0  0  0  0  0  0  0  0
  1  9  1  0
  1  5  1  0
  2  3  1  0
  2  1  1  0
  3  4  1  0
  4  5  1  0
  5  6  1  0
  6  7  1  0
  6  8  1  0
  7  8  1  0
  9 10  1  0
 10 11  2  0
 12 17  1  0
 12 10  1  0
 13 12  2  0
 14 15  2  0
 14 13  1  0
 15 16  1  0
 16 18  1  0
 16 17  2  0
 18 26  1  0
 19 20  2  0
 19 18  1  0
 20 21  1  0
 21 26  2  0
 21 22  1  0
 22 23  2  0
 23 24  1  0
 25 24  2  0
 26 25  1  0
  1 27  1  6
  2 28  1  0
  2 29  1  0
  3 30  1  0
  3 31  1  0
  4 32  1  0
  4 33  1  0
  5 34  1  1
  6 35  1  0
  7 36  1  0
  7 37  1  0
  8 38  1  0
  8 39  1  0
 13 40  1  0
 14 41  1  0
 19 42  1  0
 22 43  1  0
 24 44  1  0
M  ISO  8  27  13  28  13  29  13  30  13  31  13  32  13  33  13  34  13
M  ISO  8  35  13  36  13  37  13  38  13  39  13  40  14  41  14  42  14
M  ISO  2  43  14  44  14
M  END
>  <minimizedAffinity>  (1) 
-6.70966196

>  <minimizedRMSD>  (1) 
2.32551742

$$$$
