
     RDKit          3D

 40 42  0  0  1  0  0  0  0  0999 V2000
   37.9910   29.4640   40.9520 C   0  0  2  0  0  0  0  0  0  0  0  0
   37.2330   29.7220   39.5250 C   0  0  0  0  0  0  0  0  0  0  0  0
   35.7960   29.8390   39.7530 C   0  0  0  0  0  0  0  0  0  0  0  0
   35.6090   28.9110   40.8980 C   0  0  0  0  0  0  0  0  0  0  0  0
   36.8690   29.0660   41.7410 C   0  0  1  0  0  0  0  0  0  0  0  0
   37.1200   27.8620   42.6070 C   0  0  0  0  0  0  0  0  0  0  0  0
   38.3340   27.7880   43.4210 C   0  0  0  0  0  0  0  0  0  0  0  0
   37.0600   28.0980   44.1360 C   0  0  0  0  0  0  0  0  0  0  0  0
   38.4380   30.6580   41.3340 O   0  0  0  0  0  0  0  0  0  0  0  0
   39.6240   31.2980   40.8400 C   0  0  0  0  0  0  0  0  0  0  0  0
   40.5840   30.5660   40.6510 O   0  0  0  0  0  0  0  0  0  0  0  0
   39.5580   32.7410   40.6090 C   0  0  0  0  0  0  0  0  0  0  0  0
   38.2570   33.2150   40.2300 C   0  0  0  0  0  0  0  0  0  0  0  0
   38.1220   34.5840   39.9650 C   0  0  0  0  0  0  0  0  0  0  0  0
   39.2340   35.3650   40.0850 N   0  0  0  0  0  0  0  0  0  0  0  0
   40.4310   34.8820   40.4420 C   0  0  0  0  0  0  0  0  0  0  0  0
   40.5560   33.5870   40.6920 N   0  0  0  0  0  0  0  0  0  0  0  0
   41.5950   35.6840   40.5710 N   0  0  0  0  0  0  0  0  0  0  0  0
   41.8940   36.2860   41.8260 C   0  0  0  0  0  0  0  0  0  0  0  0
   40.9720   36.7880   42.5490 N   0  0  0  0  0  0  0  0  0  0  0  0
   43.2560   36.3390   42.2980 N   0  0  0  0  0  0  0  0  0  0  0  0
   39.9800   36.7990   42.2960 H   0  0  0  0  0  0  0  0  0  0  0  0
   38.8288   28.7518   40.9820 H   0  0  0  0  0  0  0  0  0  0  0  0
   37.4295   28.8781   38.8473 H   0  0  0  0  0  0  0  0  0  0  0  0
   37.6097   30.6508   39.0717 H   0  0  0  0  0  0  0  0  0  0  0  0
   35.5124   30.8683   40.0178 H   0  0  0  0  0  0  0  0  0  0  0  0
   35.1786   29.6017   38.8741 H   0  0  0  0  0  0  0  0  0  0  0  0
   34.7179   29.1894   41.4798 H   0  0  0  0  0  0  0  0  0  0  0  0
   35.4578   27.8726   40.5679 H   0  0  0  0  0  0  0  0  0  0  0  0
   36.7021   29.8945   42.4451 H   0  0  0  0  0  0  0  0  0  0  0  0
   36.6509   27.1836   41.8792 H   0  0  0  0  0  0  0  0  0  0  0  0
   38.8205   26.8143   43.5798 H   0  0  0  0  0  0  0  0  0  0  0  0
   39.3145   28.2837   43.3681 H   0  0  0  0  0  0  0  0  0  0  0  0
   36.8776   29.1059   44.5371 H   0  0  0  0  0  0  0  0  0  0  0  0
   36.5022   27.6707   44.9823 H   0  0  0  0  0  0  0  0  0  0  0  0
   37.3998   32.5302   40.1508 H   0  0  0  0  0  0  0  0  0  0  0  0
   37.1533   35.0141   39.6705 H   0  0  0  0  0  0  0  0  0  0  0  0
   42.2179   35.8292   39.7637 H   0  0  0  0  0  0  0  0  0  0  0  0
   43.4697   36.7751   43.2063 H   0  0  0  0  0  0  0  0  0  0  0  0
   44.0149   35.9408   41.7267 H   0  0  0  0  0  0  0  0  0  0  0  0
  1  9  1  0
  1  5  1  0
  2  3  1  0
  2  1  1  0
  3  4  1  0
  4  5  1  0
  5  6  1  0
  6  7  1  0
  6  8  1  0
  7  8  1  0
 10  9  1  0
 11 10  2  0
 12 17  1  0
 12 10  1  0
 13 12  2  0
 14 15  2  0
 14 13  1  0
 15 16  1  0
 16 18  1  0
 16 17  2  0
 18 19  1  0
 19 21  1  0
 19 20  2  0
 22 20  1  0
  1 23  1  6
  2 24  1  0
  2 25  1  0
  3 26  1  0
  3 27  1  0
  4 28  1  0
  4 29  1  0
  5 30  1  1
  6 31  1  0
  7 32  1  0
  7 33  1  0
  8 34  1  0
  8 35  1  0
 13 36  1  0
 14 37  1  0
 18 38  1  0
 21 39  1  0
 21 40  1  0
M  ISO  8  23  13  24  13  25  13  26  13  27  13  28  13  29  13  30  13
M  ISO  7  31  13  32  13  33  13  34  13  35  13  36  14  37  14
M  END
>  <minimizedAffinity>  (1) 
-6.51122046

>  <minimizedRMSD>  (1) 
0.313997924

$$$$
