
     RDKit          3D

 41 44  0  0  1  0  0  0  0  0999 V2000
   37.7030   28.4760   40.3790 C   0  0  2  0  0  0  0  0  0  0  0  0
   36.6890   28.7710   39.1240 C   0  0  0  0  0  0  0  0  0  0  0  0
   35.4700   29.3900   39.6270 C   0  0  0  0  0  0  0  0  0  0  0  0
   35.3430   28.7590   40.9630 C   0  0  0  0  0  0  0  0  0  0  0  0
   36.7760   28.5830   41.4530 C   0  0  1  0  0  0  0  0  0  0  0  0
   36.8910   27.4880   42.4780 C   0  0  0  0  0  0  0  0  0  0  0  0
   38.1730   27.2420   43.1390 C   0  0  0  0  0  0  0  0  0  0  0  0
   37.1300   27.9440   43.9390 C   0  0  0  0  0  0  0  0  0  0  0  0
   38.5620   29.4840   40.3790 O   0  0  0  0  0  0  0  0  0  0  0  0
   38.7980   30.3870   39.2860 C   0  0  0  0  0  0  0  0  0  0  0  0
   39.0710   29.8680   38.2180 O   0  0  0  0  0  0  0  0  0  0  0  0
   38.6780   31.8180   39.5630 C   0  0  0  0  0  0  0  0  0  0  0  0
   37.3990   32.3770   39.2170 C   0  0  0  0  0  0  0  0  0  0  0  0
   37.2200   33.7510   39.4240 C   0  0  0  0  0  0  0  0  0  0  0  0
   38.2680   34.4560   39.9360 N   0  0  0  0  0  0  0  0  0  0  0  0
   39.4480   33.8950   40.2460 C   0  0  0  0  0  0  0  0  0  0  0  0
   39.6220   32.5870   40.0510 N   0  0  0  0  0  0  0  0  0  0  0  0
   40.5490   34.6890   40.7950 C   0  0  0  0  0  0  0  0  0  0  0  0
   40.3180   36.0250   41.1020 C   0  0  0  0  0  0  0  0  0  0  0  0
   41.3950   36.7440   41.6230 C   0  0  0  0  0  0  0  0  0  0  0  0
   42.6170   36.2120   41.8350 N   0  0  0  0  0  0  0  0  0  0  0  0
   42.7610   34.9160   41.5120 C   0  0  0  0  0  0  0  0  0  0  0  0
   41.7740   34.1310   41.0000 N   0  0  0  0  0  0  0  0  0  0  0  0
   38.2767   27.5375   40.3885 H   0  0  0  0  0  0  0  0  0  0  0  0
   36.4405   27.8245   38.6217 H   0  0  0  0  0  0  0  0  0  0  0  0
   37.1770   29.4467   38.4062 H   0  0  0  0  0  0  0  0  0  0  0  0
   35.5782   30.4817   39.7076 H   0  0  0  0  0  0  0  0  0  0  0  0
   34.5938   29.2435   38.9783 H   0  0  0  0  0  0  0  0  0  0  0  0
   34.7779   29.4101   41.6461 H   0  0  0  0  0  0  0  0  0  0  0  0
   34.8006   27.8030   40.9190 H   0  0  0  0  0  0  0  0  0  0  0  0
   37.0600   29.5046   41.9822 H   0  0  0  0  0  0  0  0  0  0  0  0
   36.1751   26.8470   41.9426 H   0  0  0  0  0  0  0  0  0  0  0  0
   38.4560   26.2126   43.4040 H   0  0  0  0  0  0  0  0  0  0  0  0
   39.2163   27.4766   42.8811 H   0  0  0  0  0  0  0  0  0  0  0  0
   37.2372   29.0123   44.1783 H   0  0  0  0  0  0  0  0  0  0  0  0
   36.6359   27.7859   44.9090 H   0  0  0  0  0  0  0  0  0  0  0  0
   36.5934   31.7508   38.8062 H   0  0  0  0  0  0  0  0  0  0  0  0
   36.2668   34.2436   39.1817 H   0  0  0  0  0  0  0  0  0  0  0  0
   39.3351   36.4924   40.9423 H   0  0  0  0  0  0  0  0  0  0  0  0
   41.2390   37.8034   41.8748 H   0  0  0  0  0  0  0  0  0  0  0  0
   43.7473   34.4563   41.6728 H   0  0  0  0  0  0  0  0  0  0  0  0
  1  9  1  0
  1  5  1  0
  2  3  1  0
  2  1  1  0
  3  4  1  0
  4  5  1  0
  5  6  1  0
  6  7  1  0
  6  8  1  0
  7  8  1  0
 10 12  1  0
 10  9  1  0
 11 10  2  0
 12 17  2  0
 13 14  2  0
 13 12  1  0
 14 15  1  0
 15 16  2  0
 16 18  1  0
 17 16  1  0
 18 23  1  0
 18 19  2  0
 19 20  1  0
 20 21  2  0
 22 21  1  0
 23 22  2  0
  1 24  1  6
  2 25  1  0
  2 26  1  0
  3 27  1  0
  3 28  1  0
  4 29  1  0
  4 30  1  0
  5 31  1  1
  6 32  1  0
  7 33  1  0
  7 34  1  0
  8 35  1  0
  8 36  1  0
 13 37  1  0
 14 38  1  0
 19 39  1  0
 20 40  1  0
 22 41  1  0
M  ISO  8  24  13  25  13  26  13  27  13  28  13  29  13  30  13  31  13
M  ISO  8  32  13  33  13  34  13  35  13  36  13  37  14  38  14  39  14
M  ISO  2  40  14  41  14
M  END
>  <minimizedAffinity>  (1) 
-5.65967035

>  <minimizedRMSD>  (1) 
1.3717469

$$$$
