
     RDKit          3D

 40 43  0  0  1  0  0  0  0  0999 V2000
   38.1130   29.2660   40.9530 C   0  0  2  0  0  0  0  0  0  0  0  0
   37.3700   29.6250   39.5360 C   0  0  0  0  0  0  0  0  0  0  0  0
   35.9730   29.9670   39.7980 C   0  0  0  0  0  0  0  0  0  0  0  0
   35.6770   29.0700   40.9450 C   0  0  0  0  0  0  0  0  0  0  0  0
   36.9630   29.0440   41.7660 C   0  0  1  0  0  0  0  0  0  0  0  0
   37.0460   27.8230   42.6380 C   0  0  0  0  0  0  0  0  0  0  0  0
   38.2500   27.5690   43.4290 C   0  0  0  0  0  0  0  0  0  0  0  0
   37.0450   28.0750   44.1660 C   0  0  0  0  0  0  0  0  0  0  0  0
   38.7440   30.3810   41.3150 O   0  0  0  0  0  0  0  0  0  0  0  0
   40.0670   30.7550   40.8910 C   0  0  0  0  0  0  0  0  0  0  0  0
   40.8350   29.8370   40.6600 O   0  0  0  0  0  0  0  0  0  0  0  0
   40.3450   32.1860   40.7740 C   0  0  0  0  0  0  0  0  0  0  0  0
   39.2780   32.9460   40.1820 C   0  0  0  0  0  0  0  0  0  0  0  0
   39.4820   34.3240   40.0190 C   0  0  0  0  0  0  0  0  0  0  0  0
   40.6730   34.8370   40.4320 N   0  0  0  0  0  0  0  0  0  0  0  0
   41.6450   34.0970   40.9800 C   0  0  0  0  0  0  0  0  0  0  0  0
   41.4580   32.7910   41.1370 N   0  0  0  0  0  0  0  0  0  0  0  0
   42.9000   34.6390   41.4160 C   0  0  0  0  0  0  0  0  0  0  0  0
   43.2250   35.5930   42.3260 C   0  0  0  0  0  0  0  0  0  0  0  0
   44.5190   35.9430   42.5710 C   0  0  0  0  0  0  0  0  0  0  0  0
   45.5100   35.2210   41.7920 C   0  0  0  0  0  0  0  0  0  0  0  0
   44.4120   34.0770   40.7540 S   0  0  0  0  0  0  0  0  0  0  0  0
   38.8360   28.4372   40.9733 H   0  0  0  0  0  0  0  0  0  0  0  0
   37.4159   28.7540   38.8657 H   0  0  0  0  0  0  0  0  0  0  0  0
   37.8758   30.4778   39.0596 H   0  0  0  0  0  0  0  0  0  0  0  0
   35.8602   31.0261   40.0728 H   0  0  0  0  0  0  0  0  0  0  0  0
   35.3032   29.8387   38.9349 H   0  0  0  0  0  0  0  0  0  0  0  0
   34.8442   29.4686   41.5430 H   0  0  0  0  0  0  0  0  0  0  0  0
   35.3751   28.0644   40.6168 H   0  0  0  0  0  0  0  0  0  0  0  0
   36.9377   29.8922   42.4659 H   0  0  0  0  0  0  0  0  0  0  0  0
   36.4675   27.2186   41.9238 H   0  0  0  0  0  0  0  0  0  0  0  0
   38.5858   26.5335   43.5867 H   0  0  0  0  0  0  0  0  0  0  0  0
   39.2935   27.9091   43.3549 H   0  0  0  0  0  0  0  0  0  0  0  0
   37.0239   29.1012   44.5616 H   0  0  0  0  0  0  0  0  0  0  0  0
   36.4427   27.7427   45.0244 H   0  0  0  0  0  0  0  0  0  0  0  0
   38.3390   32.4659   39.8693 H   0  0  0  0  0  0  0  0  0  0  0  0
   38.7080   34.9664   39.5738 H   0  0  0  0  0  0  0  0  0  0  0  0
   42.4207   36.0977   42.8813 H   0  0  0  0  0  0  0  0  0  0  0  0
   44.7930   36.7154   43.3047 H   0  0  0  0  0  0  0  0  0  0  0  0
   46.6060   35.3136   41.8019 H   0  0  0  0  0  0  0  0  0  0  0  0
  1  9  1  0
  1  5  1  0
  2  3  1  0
  2  1  1  0
  3  4  1  0
  4  5  1  0
  5  6  1  0
  6  7  1  0
  6  8  1  0
  7  8  1  0
 10  9  1  0
 11 10  2  0
 12 10  1  0
 12 17  1  0
 13 12  2  0
 14 13  1  0
 14 15  2  0
 15 16  1  0
 16 17  2  0
 16 18  1  0
 18 19  2  0
 19 20  1  0
 21 20  2  0
 22 18  1  0
 22 21  1  0
  1 23  1  6
  2 24  1  0
  2 25  1  0
  3 26  1  0
  3 27  1  0
  4 28  1  0
  4 29  1  0
  5 30  1  1
  6 31  1  0
  7 32  1  0
  7 33  1  0
  8 34  1  0
  8 35  1  0
 13 36  1  0
 14 37  1  0
 19 38  1  0
 20 39  1  0
 21 40  1  0
M  ISO  8  23  13  24  13  25  13  26  13  27  13  28  13  29  13  30  13
M  ISO  8  31  13  32  13  33  13  34  13  35  13  36  14  37  14  38  14
M  ISO  2  39  14  40  14
M  END
>  <minimizedAffinity>  (1) 
-5.41053343

>  <minimizedRMSD>  (1) 
1.51177561

$$$$
