
     RDKit          3D

 49 53  0  0  1  0  0  0  0  0999 V2000
   39.5700   30.9500   41.5630 C   0  0  0  0  0  0  0  0  0  0  0  0
   40.4850   30.2540   41.8810 O   0  0  0  0  0  0  0  0  0  0  0  0
   39.6250   32.3300   41.0400 C   0  0  0  0  0  0  0  0  0  0  0  0
   38.3370   32.9010   40.7100 C   0  0  0  0  0  0  0  0  0  0  0  0
   38.3160   34.1940   40.1820 C   0  0  0  0  0  0  0  0  0  0  0  0
   39.5180   34.8240   40.0170 N   0  0  0  0  0  0  0  0  0  0  0  0
   40.6980   34.2540   40.3370 C   0  0  0  0  0  0  0  0  0  0  0  0
   40.7220   33.0260   40.8390 N   0  0  0  0  0  0  0  0  0  0  0  0
   41.9270   35.0580   40.1000 C   0  0  0  0  0  0  0  0  0  0  0  0
   42.6780   34.4530   39.0150 N   0  0  0  0  0  0  0  0  0  0  0  0
   42.1420   34.1560   37.8120 C   0  0  0  0  0  0  0  0  0  0  0  0
   43.0420   33.5990   36.9700 N   0  0  0  0  0  0  0  0  0  0  0  0
   44.2040   33.5340   37.6600 C   0  0  0  0  0  0  0  0  0  0  0  0
   45.4740   33.0760   37.3630 C   0  0  0  0  0  0  0  0  0  0  0  0
   46.4050   33.1710   38.3140 N   0  0  0  0  0  0  0  0  0  0  0  0
   46.1530   33.6890   39.5290 C   0  0  0  0  0  0  0  0  0  0  0  0
   44.9270   34.1420   39.8470 N   0  0  0  0  0  0  0  0  0  0  0  0
   43.9570   34.0630   38.9120 C   0  0  0  0  0  0  0  0  0  0  0  0
   45.7310   32.5360   36.0860 N   0  0  0  0  0  0  0  0  0  0  0  0
   38.2350   30.4140   41.6780 O   0  0  0  0  0  0  0  0  0  0  0  0
   37.8680   29.2000   41.3560 C   0  0  2  0  0  0  0  0  0  0  0  0
   37.3140   29.4200   39.7860 C   0  0  0  0  0  0  0  0  0  0  0  0
   35.8840   29.5530   39.7990 C   0  0  0  0  0  0  0  0  0  0  0  0
   35.5130   28.6580   40.9100 C   0  0  0  0  0  0  0  0  0  0  0  0
   36.6520   28.8270   41.9300 C   0  0  1  0  0  0  0  0  0  0  0  0
   36.7370   27.6500   42.8530 C   0  0  0  0  0  0  0  0  0  0  0  0
   37.9120   27.4930   43.7090 C   0  0  0  0  0  0  0  0  0  0  0  0
   36.6640   27.9420   44.3790 C   0  0  0  0  0  0  0  0  0  0  0  0
   37.4066   32.3363   40.8694 H   0  0  0  0  0  0  0  0  0  0  0  0
   37.3703   34.6856   39.9099 H   0  0  0  0  0  0  0  0  0  0  0  0
   41.6492   36.0872   39.8288 H   0  0  0  0  0  0  0  0  0  0  0  0
   42.5407   35.0816   41.0126 H   0  0  0  0  0  0  0  0  0  0  0  0
   41.0915   34.3457   37.5465 H   0  0  0  0  0  0  0  0  0  0  0  0
   46.9609   33.7431   40.2735 H   0  0  0  0  0  0  0  0  0  0  0  0
   46.6732   32.1914   35.8526 H   0  0  0  0  0  0  0  0  0  0  0  0
   44.9765   32.4861   35.3866 H   0  0  0  0  0  0  0  0  0  0  0  0
   38.6812   28.5010   41.6010 H   0  0  0  0  0  0  0  0  0  0  0  0
   37.5963   28.5519   39.1722 H   0  0  0  0  0  0  0  0  0  0  0  0
   37.7638   30.3298   39.3617 H   0  0  0  0  0  0  0  0  0  0  0  0
   35.5792   30.5905   40.0005 H   0  0  0  0  0  0  0  0  0  0  0  0
   35.4026   29.3020   38.8423 H   0  0  0  0  0  0  0  0  0  0  0  0
   34.5498   28.9589   41.3479 H   0  0  0  0  0  0  0  0  0  0  0  0
   35.3902   27.6140   40.5859 H   0  0  0  0  0  0  0  0  0  0  0  0
   36.3939   29.6908   42.5602 H   0  0  0  0  0  0  0  0  0  0  0  0
   36.2111   26.9993   42.1389 H   0  0  0  0  0  0  0  0  0  0  0  0
   38.3005   26.4842   43.9122 H   0  0  0  0  0  0  0  0  0  0  0  0
   38.9350   27.8954   43.6692 H   0  0  0  0  0  0  0  0  0  0  0  0
   36.5687   28.9751   44.7445 H   0  0  0  0  0  0  0  0  0  0  0  0
   36.0495   27.5969   45.2236 H   0  0  0  0  0  0  0  0  0  0  0  0
  1 20  1  0
  1  2  2  0
  3  1  1  0
  4  3  2  0
  5  4  1  0
  6  5  2  0
  6  7  1  0
  7  8  2  0
  8  3  1  0
  9  7  1  0
 10  9  1  0
 11 10  1  0
 12 13  1  0
 12 11  2  0
 13 18  2  0
 14 13  1  0
 14 15  2  0
 15 16  1  0
 16 17  2  0
 18 10  1  0
 18 17  1  0
 19 14  1  0
 21 20  1  0
 21 25  1  0
 22 23  1  0
 22 21  1  0
 23 24  1  0
 24 25  1  0
 25 26  1  0
 26 27  1  0
 26 28  1  0
 27 28  1  0
  4 29  1  0
  5 30  1  0
  9 31  1  0
  9 32  1  0
 11 33  1  0
 16 34  1  0
 19 35  1  0
 19 36  1  0
 21 37  1  6
 22 38  1  0
 22 39  1  0
 23 40  1  0
 23 41  1  0
 24 42  1  0
 24 43  1  0
 25 44  1  1
 26 45  1  0
 27 46  1  0
 27 47  1  0
 28 48  1  0
 28 49  1  0
M  ISO  8  29  14  30  14  31   8  32   8  33  14  34  14  37  13  38  13
M  ISO  8  39  13  40  13  41  13  42  13  43  13  44  13  45  13  46  13
M  ISO  3  47  13  48  13  49  13
M  END
>  <minimizedAffinity>  (1) 
-6.22863722

>  <minimizedRMSD>  (1) 
2.15206337

$$$$
