
     RDKit          3D

 50 54  0  0  1  0  0  0  0  0999 V2000
   39.0910   27.5060   43.3580 C   0  0  0  0  0  0  0  0  0  0  0  0
   38.3900   27.2950   44.3030 O   0  0  0  0  0  0  0  0  0  0  0  0
   40.5670   27.5460   43.3150 C   0  0  0  0  0  0  0  0  0  0  0  0
   41.1240   27.9850   42.0540 C   0  0  0  0  0  0  0  0  0  0  0  0
   42.5130   28.0100   41.9320 C   0  0  0  0  0  0  0  0  0  0  0  0
   43.2460   27.6170   43.0180 N   0  0  0  0  0  0  0  0  0  0  0  0
   42.6870   27.2170   44.1740 C   0  0  0  0  0  0  0  0  0  0  0  0
   41.3790   27.1930   44.2870 N   0  0  0  0  0  0  0  0  0  0  0  0
   43.6090   26.8020   45.2710 C   0  0  0  0  0  0  0  0  0  0  0  0
   43.4770   27.7300   46.4280 C   0  0  0  0  0  0  0  0  0  0  0  0
   42.8310   27.5330   47.6310 C   0  0  0  0  0  0  0  0  0  0  0  0
   43.0160   28.6790   48.3060 N   0  0  0  0  0  0  0  0  0  0  0  0
   43.7260   29.5800   47.6240 C   0  0  0  0  0  0  0  0  0  0  0  0
   44.1860   30.8620   47.8430 C   0  0  0  0  0  0  0  0  0  0  0  0
   44.9300   31.5240   46.8750 C   0  0  0  0  0  0  0  0  0  0  0  0
   45.2420   30.9470   45.6660 C   0  0  0  0  0  0  0  0  0  0  0  0
   44.7960   29.6700   45.4200 C   0  0  0  0  0  0  0  0  0  0  0  0
   44.0490   29.0090   46.3990 C   0  0  0  0  0  0  0  0  0  0  0  0
   38.4600   27.7510   42.0820 O   0  0  0  0  0  0  0  0  0  0  0  0
   37.1790   27.6450   41.8340 C   0  0  2  0  0  0  0  0  0  0  0  0
   37.0260   26.0000   41.5310 C   0  0  0  0  0  0  0  0  0  0  0  0
   37.0380   25.7750   40.1110 C   0  0  0  0  0  0  0  0  0  0  0  0
   36.3700   26.9900   39.6080 C   0  0  0  0  0  0  0  0  0  0  0  0
   36.8320   28.1020   40.5620 C   0  0  1  0  0  0  0  0  0  0  0  0
   35.8760   29.2540   40.5580 C   0  0  0  0  0  0  0  0  0  0  0  0
   36.2620   30.5120   41.2050 C   0  0  0  0  0  0  0  0  0  0  0  0
   36.2700   30.5010   39.7210 C   0  0  0  0  0  0  0  0  0  0  0  0
   40.4742   28.2887   41.2200 H   0  0  0  0  0  0  0  0  0  0  0  0
   42.9997   28.3328   40.9998 H   0  0  0  0  0  0  0  0  0  0  0  0
   43.3557   25.7810   45.5926 H   0  0  0  0  0  0  0  0  0  0  0  0
   44.6447   26.8316   44.9017 H   0  0  0  0  0  0  0  0  0  0  0  0
   42.2860   26.6371   47.9631 H   0  0  0  0  0  0  0  0  0  0  0  0
   42.6476   28.8456   49.2533 H   0  0  0  0  0  0  0  0  0  0  0  0
   43.9610   31.3654   48.7948 H   0  0  0  0  0  0  0  0  0  0  0  0
   45.2820   32.5453   47.0824 H   0  0  0  0  0  0  0  0  0  0  0  0
   45.8328   31.4929   44.9157 H   0  0  0  0  0  0  0  0  0  0  0  0
   45.0242   29.1747   44.4647 H   0  0  0  0  0  0  0  0  0  0  0  0
   36.6143   28.1497   42.6318 H   0  0  0  0  0  0  0  0  0  0  0  0
   37.8651   25.4613   41.9954 H   0  0  0  0  0  0  0  0  0  0  0  0
   36.0788   25.6341   41.9540 H   0  0  0  0  0  0  0  0  0  0  0  0
   38.0656   25.6946   39.7268 H   0  0  0  0  0  0  0  0  0  0  0  0
   36.5497   24.8384   39.8040 H   0  0  0  0  0  0  0  0  0  0  0  0
   36.6828   27.2074   38.5761 H   0  0  0  0  0  0  0  0  0  0  0  0
   35.2751   26.8869   39.5828 H   0  0  0  0  0  0  0  0  0  0  0  0
   37.7822   28.4897   40.1659 H   0  0  0  0  0  0  0  0  0  0  0  0
   35.0069   28.5835   40.6296 H   0  0  0  0  0  0  0  0  0  0  0  0
   35.5006   31.1017   41.7366 H   0  0  0  0  0  0  0  0  0  0  0  0
   37.0145   30.7728   41.9638 H   0  0  0  0  0  0  0  0  0  0  0  0
   37.2216   30.5229   39.1697 H   0  0  0  0  0  0  0  0  0  0  0  0
   35.8040   31.0976   38.9229 H   0  0  0  0  0  0  0  0  0  0  0  0
  1  2  2  0
  3  1  1  0
  3  8  1  0
  4  3  2  0
  5  4  1  0
  5  6  2  0
  6  7  1  0
  7  8  2  0
  7  9  1  0
  9 10  1  0
 10 11  2  0
 11 12  1  0
 13 14  2  0
 13 12  1  0
 15 14  1  0
 16 15  2  0
 17 16  1  0
 17 18  2  0
 18 10  1  0
 18 13  1  0
 19  1  1  0
 20 19  1  0
 21 20  1  0
 22 21  1  0
 23 22  1  0
 23 24  1  0
 24 20  1  0
 25 24  1  0
 25 26  1  0
 27 25  1  0
 27 26  1  0
  4 28  1  0
  5 29  1  0
  9 30  1  0
  9 31  1  0
 11 32  1  0
 12 33  1  0
 14 34  1  0
 15 35  1  0
 16 36  1  0
 17 37  1  0
 20 38  1  1
 21 39  1  0
 21 40  1  0
 22 41  1  0
 22 42  1  0
 23 43  1  0
 23 44  1  0
 24 45  1  6
 25 46  1  0
 26 47  1  0
 26 48  1  0
 27 49  1  0
 27 50  1  0
M  ISO  8  28  14  29  14  30   8  31   8  32  14  33   9  34  14  35  14
M  ISO  8  36  14  37  14  38  13  39  13  40  13  41  13  42  13  43  13
M  ISO  7  44  13  45  13  46  13  47  13  48  13  49  13  50  13
M  END
>  <minimizedAffinity>  (1) 
-5.89511776

>  <minimizedRMSD>  (1) 
8.80584908

$$$$
