
     RDKit          3D

 46 49  0  0  1  0  0  0  0  0999 V2000
   38.2520   28.5280   41.1570 O   0  0  0  0  0  0  0  0  0  0  0  0
   38.4560   27.5080   41.9430 C   0  0  2  0  0  0  0  0  0  0  0  0
   38.8330   26.3010   40.8340 C   0  0  0  0  0  0  0  0  0  0  0  0
   37.6620   25.5100   40.5760 C   0  0  0  0  0  0  0  0  0  0  0  0
   36.9890   25.5380   41.8880 C   0  0  0  0  0  0  0  0  0  0  0  0
   37.2830   26.9440   42.4390 C   0  0  1  0  0  0  0  0  0  0  0  0
   37.1610   26.9800   43.9290 C   0  0  0  0  0  0  0  0  0  0  0  0
   37.1930   28.2690   44.6210 C   0  0  0  0  0  0  0  0  0  0  0  0
   35.8660   27.6050   44.5190 C   0  0  0  0  0  0  0  0  0  0  0  0
   38.4450   29.9170   41.4940 C   0  0  0  0  0  0  0  0  0  0  0  0
   38.9180   30.1740   42.5570 O   0  0  0  0  0  0  0  0  0  0  0  0
   38.0220   30.8600   40.4370 C   0  0  0  0  0  0  0  0  0  0  0  0
   37.6600   30.2380   39.1830 C   0  0  0  0  0  0  0  0  0  0  0  0
   37.2740   31.0720   38.1330 C   0  0  0  0  0  0  0  0  0  0  0  0
   37.2690   32.4110   38.3730 N   0  0  0  0  0  0  0  0  0  0  0  0
   37.6100   32.9590   39.5500 C   0  0  0  0  0  0  0  0  0  0  0  0
   37.9750   32.1700   40.5410 N   0  0  0  0  0  0  0  0  0  0  0  0
   37.5630   34.4390   39.6670 C   0  0  0  0  0  0  0  0  0  0  0  0
   38.8490   35.0440   39.9960 C   0  0  0  0  0  0  0  0  0  0  0  0
   39.9360   34.2100   40.2380 C   0  0  0  0  0  0  0  0  0  0  0  0
   41.2240   34.6320   40.5620 C   0  0  0  0  0  0  0  0  0  0  0  0
   41.4310   36.0010   40.6500 C   0  0  0  0  0  0  0  0  0  0  0  0
   40.3720   36.8470   40.4160 C   0  0  0  0  0  0  0  0  0  0  0  0
   39.1020   36.4140   40.0950 C   0  0  0  0  0  0  0  0  0  0  0  0
   39.1433   27.8099   42.7471 H   0  0  0  0  0  0  0  0  0  0  0  0
   39.1807   26.7592   39.8964 H   0  0  0  0  0  0  0  0  0  0  0  0
   39.6276   25.6599   41.2434 H   0  0  0  0  0  0  0  0  0  0  0  0
   37.0355   25.9638   39.7940 H   0  0  0  0  0  0  0  0  0  0  0  0
   37.8793   24.4970   40.2065 H   0  0  0  0  0  0  0  0  0  0  0  0
   35.9060   25.3835   41.7733 H   0  0  0  0  0  0  0  0  0  0  0  0
   37.3447   24.7420   42.5587 H   0  0  0  0  0  0  0  0  0  0  0  0
   36.4994   27.6112   42.0508 H   0  0  0  0  0  0  0  0  0  0  0  0
   37.7100   26.0329   44.0372 H   0  0  0  0  0  0  0  0  0  0  0  0
   37.6856   28.3431   45.6017 H   0  0  0  0  0  0  0  0  0  0  0  0
   37.5624   29.2673   44.3436 H   0  0  0  0  0  0  0  0  0  0  0  0
   35.0900   28.0106   43.8532 H   0  0  0  0  0  0  0  0  0  0  0  0
   35.0825   27.2877   45.2229 H   0  0  0  0  0  0  0  0  0  0  0  0
   37.6879   29.1452   39.0609 H   0  0  0  0  0  0  0  0  0  0  0  0
   36.9860   30.6641   37.1529 H   0  0  0  0  0  0  0  0  0  0  0  0
   37.2207   34.8522   38.7068 H   0  0  0  0  0  0  0  0  0  0  0  0
   36.8771   34.6737   40.4944 H   0  0  0  0  0  0  0  0  0  0  0  0
   39.7642   33.1258   40.1676 H   0  0  0  0  0  0  0  0  0  0  0  0
   42.0380   33.9137   40.7396 H   0  0  0  0  0  0  0  0  0  0  0  0
   42.4236   36.4024   40.9022 H   0  0  0  0  0  0  0  0  0  0  0  0
   40.5477   37.9304   40.4890 H   0  0  0  0  0  0  0  0  0  0  0  0
   38.2958   37.1413   39.9186 H   0  0  0  0  0  0  0  0  0  0  0  0
  1 10  1  0
  1  2  1  0
  2  6  1  0
  3  2  1  0
  4  3  1  0
  4  5  1  0
  5  6  1  0
  6  7  1  0
  7  9  1  0
  7  8  1  0
  9  8  1  0
 10 11  2  0
 12 17  1  0
 12 10  1  0
 13 12  2  0
 14 15  2  0
 14 13  1  0
 15 16  1  0
 16 18  1  0
 16 17  2  0
 18 19  1  0
 19 24  1  0
 19 20  2  0
 20 21  1  0
 21 22  2  0
 23 22  1  0
 24 23  2  0
  2 25  1  1
  3 26  1  0
  3 27  1  0
  4 28  1  0
  4 29  1  0
  5 30  1  0
  5 31  1  0
  6 32  1  6
  7 33  1  0
  8 34  1  0
  8 35  1  0
  9 36  1  0
  9 37  1  0
 13 38  1  0
 14 39  1  0
 18 40  1  0
 18 41  1  0
 20 42  1  0
 21 43  1  0
 22 44  1  0
 23 45  1  0
 24 46  1  0
M  ISO  8  25  13  26  13  27  13  28  13  29  13  30  13  31  13  32  13
M  ISO  8  33  13  34  13  35  13  36  13  37  13  38  14  39  14  40   8
M  ISO  6  41   8  42  14  43  14  44  14  45  14  46  14
M  END
>  <minimizedAffinity>  (1) 
-5.59955978

>  <minimizedRMSD>  (1) 
3.07316113

$$$$
