
     RDKit          3D

 38 39  0  0  0  0  0  0  0  0999 V2000
   37.2470   27.6230   43.2190 C   0  0  0  0  0  0  0  0  0  0  0  0
   37.0440   30.7880   41.0770 C   0  0  0  0  0  0  0  0  0  0  0  0
   37.4980   29.8940   42.0540 C   0  0  0  0  0  0  0  0  0  0  0  0
   36.8510   28.6530   42.2050 C   0  0  0  0  0  0  0  0  0  0  0  0
   35.8110   28.3860   41.3860 N   0  0  0  0  0  0  0  0  0  0  0  0
   35.3840   29.2580   40.4480 C   0  0  0  0  0  0  0  0  0  0  0  0
   36.0000   30.4500   40.2990 N   0  0  0  0  0  0  0  0  0  0  0  0
   37.0810   26.2980   42.4700 C   0  0  0  0  0  0  0  0  0  0  0  0
   36.3700   27.6680   44.4330 C   0  0  0  0  0  0  0  0  0  0  0  0
   38.6760   27.7820   43.5960 C   0  0  0  0  0  0  0  0  0  0  0  0
   39.7050   27.0350   42.8650 C   0  0  0  0  0  0  0  0  0  0  0  0
   40.7810   27.8000   42.1950 C   0  0  0  0  0  0  0  0  0  0  0  0
   42.1340   27.0920   42.2750 C   0  0  0  0  0  0  0  0  0  0  0  0
   42.0070   25.6250   42.0220 C   0  0  0  0  0  0  0  0  0  0  0  0
   41.0360   24.9860   42.9590 C   0  0  0  0  0  0  0  0  0  0  0  0
   40.4110   26.0530   43.8220 C   0  0  0  0  0  0  0  0  0  0  0  0
   37.5385   31.7619   40.9462 H   0  0  0  0  0  0  0  0  0  0  0  0
   38.3508   30.1584   42.6965 H   0  0  0  0  0  0  0  0  0  0  0  0
   34.5319   28.9966   39.8034 H   0  0  0  0  0  0  0  0  0  0  0  0
   36.9782   25.4773   43.1952 H   0  0  0  0  0  0  0  0  0  0  0  0
   36.1816   26.3440   41.8384 H   0  0  0  0  0  0  0  0  0  0  0  0
   37.9640   26.1207   41.8384 H   0  0  0  0  0  0  0  0  0  0  0  0
   36.9946   27.6360   45.3379 H   0  0  0  0  0  0  0  0  0  0  0  0
   35.7818   28.5975   44.4262 H   0  0  0  0  0  0  0  0  0  0  0  0
   35.6898   26.8036   44.4262 H   0  0  0  0  0  0  0  0  0  0  0  0
   38.9183   28.8495   43.4874 H   0  0  0  0  0  0  0  0  0  0  0  0
   38.7231   27.3596   44.6106 H   0  0  0  0  0  0  0  0  0  0  0  0
   39.1215   26.5646   42.0599 H   0  0  0  0  0  0  0  0  0  0  0  0
   40.8681   28.7846   42.6777 H   0  0  0  0  0  0  0  0  0  0  0  0
   40.5139   27.8953   41.1322 H   0  0  0  0  0  0  0  0  0  0  0  0
   42.8084   27.5263   41.5223 H   0  0  0  0  0  0  0  0  0  0  0  0
   42.5338   27.2311   43.2903 H   0  0  0  0  0  0  0  0  0  0  0  0
   41.6611   25.4698   40.9894 H   0  0  0  0  0  0  0  0  0  0  0  0
   42.9924   25.1627   42.1808 H   0  0  0  0  0  0  0  0  0  0  0  0
   40.2524   24.4714   42.3835 H   0  0  0  0  0  0  0  0  0  0  0  0
   41.5582   24.2542   43.5929 H   0  0  0  0  0  0  0  0  0  0  0  0
   41.1869   26.5771   44.3993 H   0  0  0  0  0  0  0  0  0  0  0  0
   39.7000   25.6174   44.5394 H   0  0  0  0  0  0  0  0  0  0  0  0
  1 10  1  0
  1  9  1  0
  2  3  2  0
  3  4  1  0
  4  1  1  0
  5  4  2  0
  6  5  1  0
  7  6  2  0
  7  2  1  0
  8  1  1  0
 11 10  1  0
 11 16  1  0
 12 13  1  0
 12 11  1  0
 14 13  1  0
 14 15  1  0
 15 16  1  0
  2 17  1  0
  3 18  1  0
  6 19  1  0
  8 20  1  0
  8 21  1  0
  8 22  1  0
  9 23  1  0
  9 24  1  0
  9 25  1  0
 10 26  1  0
 10 27  1  0
 11 28  1  0
 12 29  1  0
 12 30  1  0
 13 31  1  0
 13 32  1  0
 14 33  1  0
 14 34  1  0
 15 35  1  0
 15 36  1  0
 16 37  1  0
 16 38  1  0
M  ISO  8  17  14  18  14  19  14  20   8  21   8  22   8  23   8  24   8
M  ISO  8  25   8  26   8  27   8  28  13  29  13  30  13  31  13  32  13
M  ISO  6  33  13  34  13  35  13  36  13  37  13  38  13
M  END
>  <minimizedAffinity>  (1) 
-4.80447912

>  <minimizedRMSD>  (1) 
3.76793265

$$$$
