
     RDKit          3D

 35 36  0  0  0  0  0  0  0  0999 V2000
   37.5560   26.6080   41.7980 C   0  0  0  0  0  0  0  0  0  0  0  0
   35.1760   29.2090   40.3340 C   0  0  0  0  0  0  0  0  0  0  0  0
   35.9860   28.5580   41.2820 C   0  0  0  0  0  0  0  0  0  0  0  0
   36.6690   27.3940   40.8930 C   0  0  0  0  0  0  0  0  0  0  0  0
   36.5070   26.9690   39.6220 N   0  0  0  0  0  0  0  0  0  0  0  0
   35.7270   27.6100   38.7300 C   0  0  0  0  0  0  0  0  0  0  0  0
   35.0680   28.7210   39.0850 N   0  0  0  0  0  0  0  0  0  0  0  0
   38.8670   26.4660   41.0250 C   0  0  0  0  0  0  0  0  0  0  0  0
   36.9580   25.2800   42.1500 C   0  0  0  0  0  0  0  0  0  0  0  0
   37.8820   27.3840   43.0460 C   0  0  0  0  0  0  0  0  0  0  0  0
   42.0690   27.5490   43.7940 C   0  0  0  0  0  0  0  0  0  0  0  0
   41.4090   28.5640   43.1000 C   0  0  0  0  0  0  0  0  0  0  0  0
   40.0400   28.4690   42.8770 C   0  0  0  0  0  0  0  0  0  0  0  0
   39.3300   27.3670   43.3460 C   0  0  0  0  0  0  0  0  0  0  0  0
   39.9920   26.3740   44.0280 C   0  0  0  0  0  0  0  0  0  0  0  0
   41.3380   26.4740   44.2420 C   0  0  0  0  0  0  0  0  0  0  0  0
   43.7920   27.7900   44.0050 S   0  0  0  0  0  0  0  0  0  0  0  0
   44.3100   26.6280   44.7950 O   0  0  0  0  0  0  0  0  0  0  0  0
   44.3850   27.8160   42.6160 O   0  0  0  0  0  0  0  0  0  0  0  0
   34.6287   30.1208   40.6151 H   0  0  0  0  0  0  0  0  0  0  0  0
   36.0823   28.9515   42.3047 H   0  0  0  0  0  0  0  0  0  0  0  0
   35.6309   27.2196   37.7061 H   0  0  0  0  0  0  0  0  0  0  0  0
   39.7029   26.3755   41.7343 H   0  0  0  0  0  0  0  0  0  0  0  0
   38.8241   25.5673   40.3922 H   0  0  0  0  0  0  0  0  0  0  0  0
   39.0175   27.3531   40.3922 H   0  0  0  0  0  0  0  0  0  0  0  0
   36.9117   25.1772   43.2442 H   0  0  0  0  0  0  0  0  0  0  0  0
   35.9427   25.2127   41.7321 H   0  0  0  0  0  0  0  0  0  0  0  0
   37.5806   24.4752   41.7321 H   0  0  0  0  0  0  0  0  0  0  0  0
   37.5596   28.4269   42.9102 H   0  0  0  0  0  0  0  0  0  0  0  0
   37.3548   26.9112   43.8878 H   0  0  0  0  0  0  0  0  0  0  0  0
   41.9695   29.4355   42.7310 H   0  0  0  0  0  0  0  0  0  0  0  0
   39.5166   29.2662   42.3288 H   0  0  0  0  0  0  0  0  0  0  0  0
   39.4388   25.4996   44.4012 H   0  0  0  0  0  0  0  0  0  0  0  0
   41.8522   25.6702   44.7892 H   0  0  0  0  0  0  0  0  0  0  0  0
   44.1079   28.9473   44.6667 H   0  0  0  0  0  0  0  0  0  0  0  0
  1  9  1  0
  1 10  1  0
  2  3  2  0
  4  3  1  0
  4  1  1  0
  5  4  2  0
  6  7  2  0
  6  5  1  0
  7  2  1  0
  8  1  1  0
 10 14  1  0
 11 17  1  0
 11 16  2  0
 12 11  1  0
 13 12  2  0
 13 14  1  0
 14 15  2  0
 15 16  1  0
 17 18  2  0
 19 17  2  0
  2 20  1  0
  3 21  1  0
  6 22  1  0
  8 23  1  0
  8 24  1  0
  8 25  1  0
  9 26  1  0
  9 27  1  0
  9 28  1  0
 10 29  1  0
 10 30  1  0
 12 31  1  0
 13 32  1  0
 15 33  1  0
 16 34  1  0
 17 35  1  0
M  ISO  8  20  14  21  14  22  14  23   8  24   8  25   8  26   8  27   8
M  ISO  8  28   8  29   8  30   8  31  14  32  14  33  14  34  14  35  11
M  END
>  <minimizedAffinity>  (1) 
-4.69472742

>  <minimizedRMSD>  (1) 
5.89831352

$$$$
