
     RDKit          3D

 35 36  0  0  0  0  0  0  0  0999 V2000
   37.6380   25.9840   41.7400 C   0  0  0  0  0  0  0  0  0  0  0  0
   41.2290   25.0330   42.6280 C   0  0  0  0  0  0  0  0  0  0  0  0
   40.0220   25.0520   41.9180 C   0  0  0  0  0  0  0  0  0  0  0  0
   38.9800   25.8630   42.3890 C   0  0  0  0  0  0  0  0  0  0  0  0
   39.1930   26.5920   43.5110 N   0  0  0  0  0  0  0  0  0  0  0  0
   40.3690   26.5580   44.1810 C   0  0  0  0  0  0  0  0  0  0  0  0
   41.3810   25.7830   43.7390 N   0  0  0  0  0  0  0  0  0  0  0  0
   36.8540   24.7890   42.2470 C   0  0  0  0  0  0  0  0  0  0  0  0
   37.7660   25.9880   40.2430 C   0  0  0  0  0  0  0  0  0  0  0  0
   36.9250   27.2280   42.1790 C   0  0  0  0  0  0  0  0  0  0  0  0
   36.9570   28.3040   41.2110 N   0  0  0  0  0  0  0  0  0  0  0  0
   36.0030   28.2630   40.2360 C   0  0  0  0  0  0  0  0  0  0  0  0
   35.8630   29.1780   39.2420 C   0  0  0  0  0  0  0  0  0  0  0  0
   34.8050   29.0830   38.2050 C   0  0  0  0  0  0  0  0  0  0  0  0
   36.7400   30.2360   39.2000 C   0  0  0  0  0  0  0  0  0  0  0  0
   36.6830   31.1230   38.3200 O   0  0  0  0  0  0  0  0  0  0  0  0
   37.6730   30.2680   40.1630 N   0  0  0  0  0  0  0  0  0  0  0  0
   37.7960   29.3510   41.1390 C   0  0  0  0  0  0  0  0  0  0  0  0
   38.6750   29.3850   42.0390 O   0  0  0  0  0  0  0  0  0  0  0  0
   42.0590   24.4021   42.2773 H   0  0  0  0  0  0  0  0  0  0  0  0
   39.8943   24.4437   41.0104 H   0  0  0  0  0  0  0  0  0  0  0  0
   40.4998   27.1646   45.0892 H   0  0  0  0  0  0  0  0  0  0  0  0
   36.8546   24.7900   43.3470 H   0  0  0  0  0  0  0  0  0  0  0  0
   35.8184   24.8478   41.8809 H   0  0  0  0  0  0  0  0  0  0  0  0
   37.3203   23.8624   41.8809 H   0  0  0  0  0  0  0  0  0  0  0  0
   38.8301   26.0213   39.9661 H   0  0  0  0  0  0  0  0  0  0  0  0
   37.3089   25.0751   39.8335 H   0  0  0  0  0  0  0  0  0  0  0  0
   37.2528   26.8705   39.8335 H   0  0  0  0  0  0  0  0  0  0  0  0
   35.8734   26.9717   42.3751 H   0  0  0  0  0  0  0  0  0  0  0  0
   37.4492   27.5931   43.0745 H   0  0  0  0  0  0  0  0  0  0  0  0
   35.2922   27.4237   40.2567 H   0  0  0  0  0  0  0  0  0  0  0  0
   33.8221   28.9947   38.6910 H   0  0  0  0  0  0  0  0  0  0  0  0
   34.8241   29.9865   37.5778 H   0  0  0  0  0  0  0  0  0  0  0  0
   34.9848   28.1974   37.5778 H   0  0  0  0  0  0  0  0  0  0  0  0
   38.3428   31.0504   40.1544 H   0  0  0  0  0  0  0  0  0  0  0  0
  1 10  1  0
  1  8  1  0
  1  4  1  0
  2  7  2  0
  3  4  2  0
  3  2  1  0
  4  5  1  0
  5  6  2  0
  7  6  1  0
  9  1  1  0
 11 10  1  0
 12 11  1  0
 13 12  2  0
 14 13  1  0
 15 13  1  0
 15 17  1  0
 16 15  2  0
 17 18  1  0
 18 11  1  0
 18 19  2  0
  2 20  1  0
  3 21  1  0
  6 22  1  0
  8 23  1  0
  8 24  1  0
  8 25  1  0
  9 26  1  0
  9 27  1  0
  9 28  1  0
 10 29  1  0
 10 30  1  0
 12 31  1  0
 14 32  1  0
 14 33  1  0
 14 34  1  0
 17 35  1  0
M  ISO  8  20  14  21  14  22  14  23   8  24   8  25   8  26   8  27   8
M  ISO  8  28   8  29   8  30   8  31  14  32   8  33   8  34   8  35   9
M  END
>  <minimizedAffinity>  (1) 
-4.60647869

>  <minimizedRMSD>  (1) 
6.39980602

$$$$
