
     RDKit          3D

 35 37  0  0  0  0  0  0  0  0999 V2000
   37.5760   25.7160   40.9030 C   0  0  0  0  0  0  0  0  0  0  0  0
   36.8590   27.9650   43.8880 C   0  0  0  0  0  0  0  0  0  0  0  0
   36.6710   26.9380   42.9500 C   0  0  0  0  0  0  0  0  0  0  0  0
   37.6380   26.7480   41.9500 C   0  0  0  0  0  0  0  0  0  0  0  0
   38.7170   27.5870   41.9550 N   0  0  0  0  0  0  0  0  0  0  0  0
   38.8720   28.5680   42.8720 C   0  0  0  0  0  0  0  0  0  0  0  0
   37.9520   28.7550   43.8280 N   0  0  0  0  0  0  0  0  0  0  0  0
   37.0600   24.4600   41.6030 C   0  0  0  0  0  0  0  0  0  0  0  0
   38.9090   25.4820   40.2630 C   0  0  0  0  0  0  0  0  0  0  0  0
   36.5650   26.0650   39.8380 C   0  0  0  0  0  0  0  0  0  0  0  0
   36.9750   27.1240   38.9690 N   0  0  0  0  0  0  0  0  0  0  0  0
   37.6220   26.9680   37.7810 C   0  0  0  0  0  0  0  0  0  0  0  0
   37.8720   28.1640   37.1970 N   0  0  0  0  0  0  0  0  0  0  0  0
   37.3890   29.1260   38.0020 C   0  0  0  0  0  0  0  0  0  0  0  0
   37.3410   30.5220   37.9520 C   0  0  0  0  0  0  0  0  0  0  0  0
   36.7680   31.2130   38.9520 N   0  0  0  0  0  0  0  0  0  0  0  0
   36.2320   30.5610   40.0140 C   0  0  0  0  0  0  0  0  0  0  0  0
   36.2890   29.2070   40.0440 N   0  0  0  0  0  0  0  0  0  0  0  0
   36.8520   28.4730   39.0660 C   0  0  0  0  0  0  0  0  0  0  0  0
   37.9340   31.1110   36.7910 N   0  0  0  0  0  0  0  0  0  0  0  0
   36.1105   28.1273   44.6775 H   0  0  0  0  0  0  0  0  0  0  0  0
   35.7812   26.2930   42.9975 H   0  0  0  0  0  0  0  0  0  0  0  0
   39.7593   29.2170   42.8331 H   0  0  0  0  0  0  0  0  0  0  0  0
   37.1167   24.5981   42.6928 H   0  0  0  0  0  0  0  0  0  0  0  0
   36.0151   24.2801   41.3101 H   0  0  0  0  0  0  0  0  0  0  0  0
   37.6766   23.5975   41.3101 H   0  0  0  0  0  0  0  0  0  0  0  0
   39.6722   25.3480   41.0438 H   0  0  0  0  0  0  0  0  0  0  0  0
   38.8619   24.5784   39.6375 H   0  0  0  0  0  0  0  0  0  0  0  0
   39.1724   26.3476   39.6375 H   0  0  0  0  0  0  0  0  0  0  0  0
   36.3825   25.1682   39.2276 H   0  0  0  0  0  0  0  0  0  0  0  0
   35.6619   26.4144   40.3599 H   0  0  0  0  0  0  0  0  0  0  0  0
   37.9051   25.9959   37.3511 H   0  0  0  0  0  0  0  0  0  0  0  0
   35.7601   31.1204   40.8352 H   0  0  0  0  0  0  0  0  0  0  0  0
   37.9395   32.1348   36.6787 H   0  0  0  0  0  0  0  0  0  0  0  0
   38.3555   30.5112   36.0674 H   0  0  0  0  0  0  0  0  0  0  0  0
  1  8  1  0
  1  4  1  0
  3  2  2  0
  4  5  2  0
  4  3  1  0
  5  6  1  0
  6  7  2  0
  7  2  1  0
  9  1  1  0
 10  1  1  0
 11 19  1  0
 11 10  1  0
 12 11  1  0
 13 12  2  0
 13 14  1  0
 14 19  2  0
 15 14  1  0
 15 16  2  0
 16 17  1  0
 17 18  2  0
 19 18  1  0
 20 15  1  0
  2 21  1  0
  3 22  1  0
  6 23  1  0
  8 24  1  0
  8 25  1  0
  8 26  1  0
  9 27  1  0
  9 28  1  0
  9 29  1  0
 10 30  1  0
 10 31  1  0
 12 32  1  0
 17 33  1  0
 20 34  1  0
 20 35  1  0
M  ISO  8  21  14  22  14  23  14  24   8  25   8  26   8  27   8  28   8
M  ISO  5  29   8  30   8  31   8  32  14  33  14
M  END
>  <minimizedAffinity>  (1) 
-4.59114313

>  <minimizedRMSD>  (1) 
2.55521703

$$$$
