
     RDKit          3D

 30 31  0  0  0  0  0  0  0  0999 V2000
   37.5720   25.7350   40.9340 C   0  0  0  0  0  0  0  0  0  0  0  0
   38.5950   28.6440   43.1720 C   0  0  0  0  0  0  0  0  0  0  0  0
   38.6690   27.7220   42.1130 C   0  0  0  0  0  0  0  0  0  0  0  0
   37.6640   26.7800   41.9790 C   0  0  0  0  0  0  0  0  0  0  0  0
   36.6480   26.8010   42.8960 N   0  0  0  0  0  0  0  0  0  0  0  0
   36.5940   27.6960   43.9070 C   0  0  0  0  0  0  0  0  0  0  0  0
   37.5660   28.6120   44.0410 N   0  0  0  0  0  0  0  0  0  0  0  0
   37.0290   24.4910   41.6180 C   0  0  0  0  0  0  0  0  0  0  0  0
   38.9210   25.4800   40.3060 C   0  0  0  0  0  0  0  0  0  0  0  0
   36.5940   26.1100   39.8500 C   0  0  0  0  0  0  0  0  0  0  0  0
   36.7150   27.5100   39.4220 C   0  0  0  0  0  0  0  0  0  0  0  0
   35.7240   28.3980   39.8530 C   0  0  0  0  0  0  0  0  0  0  0  0
   35.7740   29.7270   39.4890 C   0  0  0  0  0  0  0  0  0  0  0  0
   36.7580   30.2290   38.7180 N   0  0  0  0  0  0  0  0  0  0  0  0
   37.7130   29.3400   38.3140 C   0  0  0  0  0  0  0  0  0  0  0  0
   37.6970   28.0170   38.6530 N   0  0  0  0  0  0  0  0  0  0  0  0
   39.3856   29.3993   43.2922 H   0  0  0  0  0  0  0  0  0  0  0  0
   39.5099   27.7489   41.4043 H   0  0  0  0  0  0  0  0  0  0  0  0
   35.7554   27.6740   44.6185 H   0  0  0  0  0  0  0  0  0  0  0  0
   37.0847   24.6186   42.7091 H   0  0  0  0  0  0  0  0  0  0  0  0
   35.9815   24.3363   41.3199 H   0  0  0  0  0  0  0  0  0  0  0  0
   37.6278   23.6177   41.3199 H   0  0  0  0  0  0  0  0  0  0  0  0
   39.6725   25.3379   41.0966 H   0  0  0  0  0  0  0  0  0  0  0  0
   38.8699   24.5756   39.6819 H   0  0  0  0  0  0  0  0  0  0  0  0
   39.2035   26.3406   39.6819 H   0  0  0  0  0  0  0  0  0  0  0  0
   36.7712   25.4615   38.9794 H   0  0  0  0  0  0  0  0  0  0  0  0
   35.5825   25.9800   40.2623 H   0  0  0  0  0  0  0  0  0  0  0  0
   34.9007   28.0344   40.4854 H   0  0  0  0  0  0  0  0  0  0  0  0
   34.9807   30.4026   39.8414 H   0  0  0  0  0  0  0  0  0  0  0  0
   38.5363   29.7080   37.6840 H   0  0  0  0  0  0  0  0  0  0  0  0
  1  8  1  0
  1  4  1  0
  2  7  2  0
  3  2  1  0
  4  3  2  0
  4  5  1  0
  5  6  2  0
  6  7  1  0
  9  1  1  0
 10  1  1  0
 11 10  1  0
 11 12  2  0
 13 12  1  0
 14 13  2  0
 15 16  2  0
 15 14  1  0
 16 11  1  0
  2 17  1  0
  3 18  1  0
  6 19  1  0
  8 20  1  0
  8 21  1  0
  8 22  1  0
  9 23  1  0
  9 24  1  0
  9 25  1  0
 10 26  1  0
 10 27  1  0
 12 28  1  0
 13 29  1  0
 15 30  1  0
M  ISO  8  17  14  18  14  19  14  20   8  21   8  22   8  23   8  24   8
M  ISO  6  25   8  26   8  27   8  28  14  29  14  30  14
M  END
>  <minimizedAffinity>  (1) 
-3.85538888

>  <minimizedRMSD>  (1) 
5.05025721

$$$$
