
     RDKit          3D

 24 24  0  0  0  0  0  0  0  0999 V2000
   38.2700   25.2240   41.9930 C   0  0  0  0  0  0  0  0  0  0  0  0
   38.1660   28.7540   43.3960 C   0  0  0  0  0  0  0  0  0  0  0  0
   38.5600   27.3980   43.2640 C   0  0  0  0  0  0  0  0  0  0  0  0
   37.9600   26.6470   42.2500 C   0  0  0  0  0  0  0  0  0  0  0  0
   37.0450   27.2520   41.4610 N   0  0  0  0  0  0  0  0  0  0  0  0
   36.6900   28.5440   41.6090 C   0  0  0  0  0  0  0  0  0  0  0  0
   37.2470   29.2830   42.5690 N   0  0  0  0  0  0  0  0  0  0  0  0
   36.9270   24.4950   42.1480 C   0  0  0  0  0  0  0  0  0  0  0  0
   39.3090   24.6840   42.9340 C   0  0  0  0  0  0  0  0  0  0  0  0
   38.6980   24.9780   40.5740 C   0  0  0  0  0  0  0  0  0  0  0  0
   39.5700   26.0260   40.0580 N   0  0  0  0  0  0  0  0  0  0  0  0
   38.6161   29.3785   44.1818 H   0  0  0  0  0  0  0  0  0  0  0  0
   39.3101   26.9540   43.9350 H   0  0  0  0  0  0  0  0  0  0  0  0
   35.9407   28.9887   40.9377 H   0  0  0  0  0  0  0  0  0  0  0  0
   36.6984   24.3709   43.2168 H   0  0  0  0  0  0  0  0  0  0  0  0
   36.1319   25.0854   41.6691 H   0  0  0  0  0  0  0  0  0  0  0  0
   36.9889   23.5067   41.6691 H   0  0  0  0  0  0  0  0  0  0  0  0
   38.9862   24.8518   43.9721 H   0  0  0  0  0  0  0  0  0  0  0  0
   39.4366   23.6055   42.7595 H   0  0  0  0  0  0  0  0  0  0  0  0
   40.2650   25.1993   42.7595 H   0  0  0  0  0  0  0  0  0  0  0  0
   39.2361   24.0196   40.5302 H   0  0  0  0  0  0  0  0  0  0  0  0
   37.7911   24.9651   39.9517 H   0  0  0  0  0  0  0  0  0  0  0  0
   39.9952   26.5371   40.8447 H   0  0  0  0  0  0  0  0  0  0  0  0
   40.3119   25.6028   39.4824 H   0  0  0  0  0  0  0  0  0  0  0  0
  1  8  1  0
  1  4  1  0
  1  9  1  0
  3  2  2  0
  4  3  1  0
  5  6  1  0
  5  4  2  0
  6  7  2  0
  7  2  1  0
 10  1  1  0
 11 10  1  0
  2 12  1  0
  3 13  1  0
  6 14  1  0
  8 15  1  0
  8 16  1  0
  8 17  1  0
  9 18  1  0
  9 19  1  0
  9 20  1  0
 10 21  1  0
 10 22  1  0
 11 23  1  0
 11 24  1  0
M  ISO  8  12  14  13  14  14  14  15   8  16   8  17   8  18   8  19   8
M  ISO  5  20   8  21   8  22   8  23   5  24   5
M  END
>  <minimizedAffinity>  (1) 
-3.25916982

>  <minimizedRMSD>  (1) 
0.490882039

$$$$
