
     RDKit          3D

 23 23  0  0  0  0  0  0  0  0999 V2000
   38.6950   25.0890   42.1370 C   0  0  0  0  0  0  0  0  0  0  0  0
   39.2620   28.7760   42.8860 C   0  0  0  0  0  0  0  0  0  0  0  0
   39.5300   27.4630   42.4560 C   0  0  0  0  0  0  0  0  0  0  0  0
   38.5410   26.4930   42.5510 C   0  0  0  0  0  0  0  0  0  0  0  0
   37.3530   26.8880   43.0660 N   0  0  0  0  0  0  0  0  0  0  0  0
   37.1010   28.1470   43.4780 C   0  0  0  0  0  0  0  0  0  0  0  0
   38.0430   29.0820   43.3900 N   0  0  0  0  0  0  0  0  0  0  0  0
   37.2860   24.5010   42.1290 C   0  0  0  0  0  0  0  0  0  0  0  0
   39.5940   24.3210   43.0460 C   0  0  0  0  0  0  0  0  0  0  0  0
   39.1860   24.9940   40.7040 C   0  0  0  0  0  0  0  0  0  0  0  0
   37.8950   25.4440   39.5280 S   0  0  0  0  0  0  0  0  0  0  0  0
   40.0396   29.5505   42.8130 H   0  0  0  0  0  0  0  0  0  0  0  0
   40.5182   27.2064   42.0466 H   0  0  0  0  0  0  0  0  0  0  0  0
   36.1127   28.4018   43.8884 H   0  0  0  0  0  0  0  0  0  0  0  0
   36.9426   24.3577   43.1642 H   0  0  0  0  0  0  0  0  0  0  0  0
   36.6042   25.1897   41.6085 H   0  0  0  0  0  0  0  0  0  0  0  0
   37.2960   23.5320   41.6085 H   0  0  0  0  0  0  0  0  0  0  0  0
   39.3344   24.5428   44.0917 H   0  0  0  0  0  0  0  0  0  0  0  0
   39.4719   23.2440   42.8584 H   0  0  0  0  0  0  0  0  0  0  0  0
   40.6387   24.6098   42.8584 H   0  0  0  0  0  0  0  0  0  0  0  0
   40.0404   25.6744   40.5737 H   0  0  0  0  0  0  0  0  0  0  0  0
   39.4801   23.9520   40.5097 H   0  0  0  0  0  0  0  0  0  0  0  0
   36.7727   25.8352   40.2094 H   0  0  0  0  0  0  0  0  0  0  0  0
  1  4  1  0
  1  9  1  0
  2  7  2  0
  3  4  2  0
  3  2  1  0
  4  5  1  0
  5  6  2  0
  7  6  1  0
  8  1  1  0
 10  1  1  0
 11 10  1  0
  2 12  1  0
  3 13  1  0
  6 14  1  0
  8 15  1  0
  8 16  1  0
  8 17  1  0
  9 18  1  0
  9 19  1  0
  9 20  1  0
 10 21  1  0
 10 22  1  0
 11 23  1  0
M  ISO  8  12  14  13  14  14  14  15   8  16   8  17   8  18   8  19   8
M  ISO  4  20   8  21   8  22   8  23  11
M  END
>  <minimizedAffinity>  (1) 
-3.21555591

>  <minimizedRMSD>  (1) 
0.822458863

$$$$
