
     RDKit          3D

 38 39  0  0  0  0  0  0  0  0999 V2000
   37.4480   27.8040   43.1830 C   0  0  0  0  0  0  0  0  0  0  0  0
   36.6420   30.8560   41.0630 C   0  0  0  0  0  0  0  0  0  0  0  0
   37.2210   30.0440   42.0420 C   0  0  0  0  0  0  0  0  0  0  0  0
   36.8740   28.7120   42.1770 C   0  0  0  0  0  0  0  0  0  0  0  0
   35.9370   28.2340   41.3060 N   0  0  0  0  0  0  0  0  0  0  0  0
   35.3790   29.0200   40.3620 C   0  0  0  0  0  0  0  0  0  0  0  0
   35.7200   30.3050   40.2380 N   0  0  0  0  0  0  0  0  0  0  0  0
   37.1170   26.3960   42.6690 C   0  0  0  0  0  0  0  0  0  0  0  0
   36.8030   28.0240   44.5420 C   0  0  0  0  0  0  0  0  0  0  0  0
   38.9270   27.8890   43.2870 C   0  0  0  0  0  0  0  0  0  0  0  0
   39.6710   27.4280   42.1020 C   0  0  0  0  0  0  0  0  0  0  0  0
   39.9700   28.0770   40.9130 C   0  0  0  0  0  0  0  0  0  0  0  0
   40.7060   27.2500   40.0770 C   0  0  0  0  0  0  0  0  0  0  0  0
   40.8370   26.1200   40.7730 N   0  0  0  0  0  0  0  0  0  0  0  0
   40.2350   26.2240   41.9520 N   0  0  0  0  0  0  0  0  0  0  0  0
   41.5520   24.9600   40.2650 C   0  0  0  0  0  0  0  0  0  0  0  0
   42.9790   25.2680   39.9310 C   0  0  0  0  0  0  0  0  0  0  0  0
   40.8270   24.4670   39.0320 C   0  0  0  0  0  0  0  0  0  0  0  0
   36.9273   31.9138   40.9651 H   0  0  0  0  0  0  0  0  0  0  0  0
   37.9710   30.4747   42.7217 H   0  0  0  0  0  0  0  0  0  0  0  0
   34.6280   28.5936   39.6807 H   0  0  0  0  0  0  0  0  0  0  0  0
   36.9585   25.7216   43.5234 H   0  0  0  0  0  0  0  0  0  0  0  0
   36.2034   26.4342   42.0576 H   0  0  0  0  0  0  0  0  0  0  0  0
   37.9520   26.0232   42.0576 H   0  0  0  0  0  0  0  0  0  0  0  0
   37.5249   27.7778   45.3346 H   0  0  0  0  0  0  0  0  0  0  0  0
   36.4987   29.0768   44.6373 H   0  0  0  0  0  0  0  0  0  0  0  0
   35.9188   27.3766   44.6373 H   0  0  0  0  0  0  0  0  0  0  0  0
   39.1947   28.9405   43.4680 H   0  0  0  0  0  0  0  0  0  0  0  0
   39.2127   27.2130   44.1064 H   0  0  0  0  0  0  0  0  0  0  0  0
   39.6656   29.1051   40.6671 H   0  0  0  0  0  0  0  0  0  0  0  0
   41.0924   27.4745   39.0719 H   0  0  0  0  0  0  0  0  0  0  0  0
   41.5725   24.1887   41.0490 H   0  0  0  0  0  0  0  0  0  0  0  0
   43.5545   25.3922   40.8602 H   0  0  0  0  0  0  0  0  0  0  0  0
   43.4048   24.4411   39.3437 H   0  0  0  0  0  0  0  0  0  0  0  0
   43.0259   26.1969   39.3437 H   0  0  0  0  0  0  0  0  0  0  0  0
   39.9524   23.8723   39.3342 H   0  0  0  0  0  0  0  0  0  0  0  0
   40.4957   25.3279   38.4327 H   0  0  0  0  0  0  0  0  0  0  0  0
   41.5058   23.8425   38.4327 H   0  0  0  0  0  0  0  0  0  0  0  0
  1 10  1  0
  1  9  1  0
  2  3  2  0
  3  4  1  0
  4  1  1  0
  5  4  2  0
  6  5  1  0
  7  6  2  0
  7  2  1  0
  8  1  1  0
 11 10  1  0
 12 11  1  0
 13 14  1  0
 13 12  2  0
 14 15  1  0
 15 11  2  0
 16 14  1  0
 17 16  1  0
 18 16  1  0
  2 19  1  0
  3 20  1  0
  6 21  1  0
  8 22  1  0
  8 23  1  0
  8 24  1  0
  9 25  1  0
  9 26  1  0
  9 27  1  0
 10 28  1  0
 10 29  1  0
 12 30  1  0
 13 31  1  0
 16 32  1  0
 17 33  1  0
 17 34  1  0
 17 35  1  0
 18 36  1  0
 18 37  1  0
 18 38  1  0
M  ISO  8  19  14  20  14  21  14  22   8  23   8  24   8  25   8  26   8
M  ISO  8  27   8  28   8  29   8  30  14  31  14  32   8  33   8  34   8
M  ISO  4  35   8  36   8  37   8  38   8
M  END
>  <minimizedAffinity>  (1) 
-4.2686286

>  <minimizedRMSD>  (1) 
2.02637649

$$$$
