
     RDKit          3D

 46 49  0  0  0  0  0  0  0  0999 V2000
   37.1990   31.2250   40.8750 C   0  0  0  0  0  0  0  0  0  0  0  0
   37.5500   32.4110   40.2700 C   0  0  0  0  0  0  0  0  0  0  0  0
   38.8640   32.7300   40.5000 C   0  0  0  0  0  0  0  0  0  0  0  0
   39.3150   31.7050   41.2650 N   0  0  0  0  0  0  0  0  0  0  0  0
   38.3340   30.8350   41.4770 N   0  0  0  0  0  0  0  0  0  0  0  0
   39.7190   33.8390   40.1170 C   0  0  0  0  0  0  0  0  0  0  0  0
   39.5340   34.9980   40.8030 N   0  0  0  0  0  0  0  0  0  0  0  0
   40.2600   36.1110   40.5490 C   0  0  0  0  0  0  0  0  0  0  0  0
   41.2200   36.1500   39.5980 N   0  0  0  0  0  0  0  0  0  0  0  0
   41.4240   35.0150   38.9020 C   0  0  0  0  0  0  0  0  0  0  0  0
   42.3900   34.9820   37.9050 C   0  0  0  0  0  0  0  0  0  0  0  0
   42.5750   33.7910   37.1950 C   0  0  0  0  0  0  0  0  0  0  0  0
   41.8300   32.6420   37.4510 C   0  0  0  0  0  0  0  0  0  0  0  0
   40.8790   32.7000   38.4460 C   0  0  0  0  0  0  0  0  0  0  0  0
   40.6920   33.8700   39.1470 C   0  0  0  0  0  0  0  0  0  0  0  0
   40.6620   31.5550   41.7890 C   0  0  0  0  0  0  0  0  0  0  0  0
   41.3680   32.7120   41.8280 F   0  0  0  0  0  0  0  0  0  0  0  0
   41.3890   30.6490   41.0280 F   0  0  0  0  0  0  0  0  0  0  0  0
   40.6300   31.0200   43.0730 F   0  0  0  0  0  0  0  0  0  0  0  0
   35.9030   30.5110   40.8920 C   0  0  0  0  0  0  0  0  0  0  0  0
   35.8640   29.2840   40.0760 C   0  0  0  0  0  0  0  0  0  0  0  0
   36.8950   26.7760   42.7150 C   0  0  0  0  0  0  0  0  0  0  0  0
   36.4720   27.9450   42.0910 C   0  0  0  0  0  0  0  0  0  0  0  0
   36.3110   28.0630   40.7350 C   0  0  0  0  0  0  0  0  0  0  0  0
   36.5960   26.9500   40.0200 N   0  0  0  0  0  0  0  0  0  0  0  0
   37.0060   25.8090   40.6000 C   0  0  0  0  0  0  0  0  0  0  0  0
   37.1550   25.7190   41.9220 N   0  0  0  0  0  0  0  0  0  0  0  0
   34.3960   29.0050   39.6960 C   0  0  0  0  0  0  0  0  0  0  0  0
   36.6550   29.4980   38.7790 C   0  0  0  0  0  0  0  0  0  0  0  0
   36.8605   33.0276   39.6747 H   0  0  0  0  0  0  0  0  0  0  0  0
   40.0617   37.0183   41.1385 H   0  0  0  0  0  0  0  0  0  0  0  0
   42.9958   35.8719   37.6788 H   0  0  0  0  0  0  0  0  0  0  0  0
   43.3385   33.7605   36.4037 H   0  0  0  0  0  0  0  0  0  0  0  0
   41.9958   31.7183   36.8772 H   0  0  0  0  0  0  0  0  0  0  0  0
   40.2707   31.8138   38.6798 H   0  0  0  0  0  0  0  0  0  0  0  0
   35.6764   30.2373   41.9330 H   0  0  0  0  0  0  0  0  0  0  0  0
   35.1643   31.1984   40.4541 H   0  0  0  0  0  0  0  0  0  0  0  0
   37.0119   26.7175   43.8072 H   0  0  0  0  0  0  0  0  0  0  0  0
   36.2551   28.8215   42.7193 H   0  0  0  0  0  0  0  0  0  0  0  0
   37.2229   24.9324   39.9719 H   0  0  0  0  0  0  0  0  0  0  0  0
   33.7958   28.8909   40.6107 H   0  0  0  0  0  0  0  0  0  0  0  0
   34.0047   29.8449   39.1031 H   0  0  0  0  0  0  0  0  0  0  0  0
   34.3401   28.0802   39.1031 H   0  0  0  0  0  0  0  0  0  0  0  0
   37.6904   29.7781   39.0230 H   0  0  0  0  0  0  0  0  0  0  0  0
   36.6554   28.5677   38.1920 H   0  0  0  0  0  0  0  0  0  0  0  0
   36.1863   30.3016   38.1920 H   0  0  0  0  0  0  0  0  0  0  0  0
  1 20  1  0
  1  5  2  0
  2  3  2  0
  2  1  1  0
  3  4  1  0
  4  5  1  0
  4 16  1  0
  6  3  1  0
  6  7  2  0
  8  7  1  0
  9  8  2  0
 10 15  2  0
 10  9  1  0
 11 10  1  0
 12 13  1  0
 12 11  2  0
 13 14  2  0
 14 15  1  0
 15  6  1  0
 16 17  1  0
 16 19  1  0
 18 16  1  0
 21 24  1  0
 21 20  1  0
 23 22  2  0
 24 23  1  0
 25 26  1  0
 25 24  2  0
 26 27  2  0
 27 22  1  0
 28 21  1  0
 29 21  1  0
  2 30  1  0
  8 31  1  0
 11 32  1  0
 12 33  1  0
 13 34  1  0
 14 35  1  0
 20 36  1  0
 20 37  1  0
 22 38  1  0
 23 39  1  0
 26 40  1  0
 28 41  1  0
 28 42  1  0
 28 43  1  0
 29 44  1  0
 29 45  1  0
 29 46  1  0
M  ISO  8  30  14  31  14  32  14  33  14  34  14  35  14  36   8  37   8
M  ISO  8  38  14  39  14  40  14  41   8  42   8  43   8  44   8  45   8
M  ISO  1  46   8
M  END
>  <minimizedAffinity>  (1) 
-6.55815649

>  <minimizedRMSD>  (1) 
1.59549773

$$$$
