
     RDKit          3D

 44 45  0  0  0  0  0  0  0  0999 V2000
   36.1290   29.4440   40.3200 C   0  0  0  0  0  0  0  0  0  0  0  0
   36.8450   26.9140   43.0450 C   0  0  0  0  0  0  0  0  0  0  0  0
   36.5090   28.0890   42.3810 C   0  0  0  0  0  0  0  0  0  0  0  0
   36.4870   28.2140   41.0160 C   0  0  0  0  0  0  0  0  0  0  0  0
   36.8190   27.0990   40.3260 N   0  0  0  0  0  0  0  0  0  0  0  0
   37.1490   25.9410   40.9360 C   0  0  0  0  0  0  0  0  0  0  0  0
   37.1630   25.8480   42.2670 N   0  0  0  0  0  0  0  0  0  0  0  0
   34.6240   29.2930   40.0190 C   0  0  0  0  0  0  0  0  0  0  0  0
   36.8750   29.5320   38.9830 C   0  0  0  0  0  0  0  0  0  0  0  0
   36.3220   30.6950   41.0800 C   0  0  0  0  0  0  0  0  0  0  0  0
   37.6910   31.2480   41.0170 C   0  0  0  0  0  0  0  0  0  0  0  0
   38.1390   32.4490   40.5210 C   0  0  0  0  0  0  0  0  0  0  0  0
   39.5180   32.5750   40.6570 C   0  0  0  0  0  0  0  0  0  0  0  0
   39.8770   31.4240   41.2440 N   0  0  0  0  0  0  0  0  0  0  0  0
   38.8160   30.6550   41.4530 N   0  0  0  0  0  0  0  0  0  0  0  0
   41.2270   31.0640   41.6110 C   0  0  0  0  0  0  0  0  0  0  0  0
   41.7650   31.8070   42.6260 F   0  0  0  0  0  0  0  0  0  0  0  0
   42.0870   31.0740   40.5420 F   0  0  0  0  0  0  0  0  0  0  0  0
   41.2700   29.7310   42.0690 F   0  0  0  0  0  0  0  0  0  0  0  0
   40.3030   33.7510   40.2290 C   0  0  0  0  0  0  0  0  0  0  0  0
   39.4120   34.9650   40.0790 C   0  0  0  0  0  0  0  0  0  0  0  0
   40.7940   33.4720   38.7890 C   0  0  0  0  0  0  0  0  0  0  0  0
   41.5550   34.0010   41.0040 C   0  0  0  0  0  0  0  0  0  0  0  0
   36.8527   26.8518   44.1432 H   0  0  0  0  0  0  0  0  0  0  0  0
   36.2457   28.9690   42.9862 H   0  0  0  0  0  0  0  0  0  0  0  0
   37.4098   25.0623   40.3278 H   0  0  0  0  0  0  0  0  0  0  0  0
   34.0648   29.2369   40.9646 H   0  0  0  0  0  0  0  0  0  0  0  0
   34.2772   30.1609   39.4389 H   0  0  0  0  0  0  0  0  0  0  0  0
   34.4565   28.3735   39.4389 H   0  0  0  0  0  0  0  0  0  0  0  0
   37.9513   29.6590   39.1713 H   0  0  0  0  0  0  0  0  0  0  0  0
   36.7096   28.6081   38.4093 H   0  0  0  0  0  0  0  0  0  0  0  0
   36.4992   30.3920   38.4093 H   0  0  0  0  0  0  0  0  0  0  0  0
   35.6284   31.4496   40.6806 H   0  0  0  0  0  0  0  0  0  0  0  0
   36.1326   30.4508   42.1357 H   0  0  0  0  0  0  0  0  0  0  0  0
   37.4888   33.2147   40.0727 H   0  0  0  0  0  0  0  0  0  0  0  0
   39.1353   35.3420   41.0746 H   0  0  0  0  0  0  0  0  0  0  0  0
   39.9506   35.7491   39.5267 H   0  0  0  0  0  0  0  0  0  0  0  0
   38.5025   34.6863   39.5267 H   0  0  0  0  0  0  0  0  0  0  0  0
   41.7498   32.9289   38.8263 H   0  0  0  0  0  0  0  0  0  0  0  0
   40.0470   32.8635   38.2583 H   0  0  0  0  0  0  0  0  0  0  0  0
   40.9344   34.4252   38.2583 H   0  0  0  0  0  0  0  0  0  0  0  0
   41.3346   33.9570   42.0808 H   0  0  0  0  0  0  0  0  0  0  0  0
   42.3021   33.2343   40.7510 H   0  0  0  0  0  0  0  0  0  0  0  0
   41.9504   34.9958   40.7510 H   0  0  0  0  0  0  0  0  0  0  0  0
  1  4  1  0
  1 10  1  0
  3  2  2  0
  4  3  1  0
  5  6  1  0
  5  4  2  0
  6  7  2  0
  7  2  1  0
  8  1  1  0
  9  1  1  0
 11 10  1  0
 11 15  2  0
 12 13  2  0
 12 11  1  0
 13 14  1  0
 14 15  1  0
 14 16  1  0
 16 19  1  0
 16 17  1  0
 18 16  1  0
 20 13  1  0
 20 23  1  0
 21 20  1  0
 22 20  1  0
  2 24  1  0
  3 25  1  0
  6 26  1  0
  8 27  1  0
  8 28  1  0
  8 29  1  0
  9 30  1  0
  9 31  1  0
  9 32  1  0
 10 33  1  0
 10 34  1  0
 12 35  1  0
 21 36  1  0
 21 37  1  0
 21 38  1  0
 22 39  1  0
 22 40  1  0
 22 41  1  0
 23 42  1  0
 23 43  1  0
 23 44  1  0
M  ISO  8  24  14  25  14  26  14  27   8  28   8  29   8  30   8  31   8
M  ISO  8  32   8  33   8  34   8  35  14  36   8  37   8  38   8  39   8
M  ISO  5  40   8  41   8  42   8  43   8  44   8
M  END
>  <minimizedAffinity>  (1) 
-4.99017954

>  <minimizedRMSD>  (1) 
1.71121013

$$$$
