
     RDKit          3D

 42 44  0  0  1  0  0  0  0  0999 V2000
   36.0980   30.7140   40.5830 C   0  0  0  0  0  0  0  0  0  0  0  0
   37.3350   31.3460   40.0640 C   0  0  0  0  0  0  0  0  0  0  0  0
   37.8090   32.6390   40.2490 C   0  0  0  0  0  0  0  0  0  0  0  0
   39.0030   32.8360   39.5830 C   0  0  0  0  0  0  0  0  0  0  0  0
   39.2400   31.6530   39.0000 N   0  0  0  0  0  0  0  0  0  0  0  0
   38.2780   30.7940   39.2760 N   0  0  0  0  0  0  0  0  0  0  0  0
   39.8170   34.0810   39.5470 C   0  0  2  0  0  0  0  0  0  0  0  0
   40.9820   34.1710   40.5690 C   0  0  0  0  0  0  0  0  0  0  0  0
   39.8050   35.0860   40.5960 C   0  0  1  0  0  0  0  0  0  0  0  0
   39.9550   36.5280   40.1790 C   0  0  0  0  0  0  0  0  0  0  0  0
   40.5670   37.2970   41.1590 F   0  0  0  0  0  0  0  0  0  0  0  0
   38.7880   37.1330   39.8150 F   0  0  0  0  0  0  0  0  0  0  0  0
   40.8500   36.5340   39.1040 F   0  0  0  0  0  0  0  0  0  0  0  0
   40.3900   31.3450   38.1850 C   0  0  0  0  0  0  0  0  0  0  0  0
   41.5830   31.3940   38.8460 F   0  0  0  0  0  0  0  0  0  0  0  0
   40.4960   32.1990   37.1040 F   0  0  0  0  0  0  0  0  0  0  0  0
   40.2750   30.0710   37.6270 F   0  0  0  0  0  0  0  0  0  0  0  0
   35.8060   29.3970   39.9900 C   0  0  0  0  0  0  0  0  0  0  0  0
   37.0410   27.0580   42.6790 C   0  0  0  0  0  0  0  0  0  0  0  0
   36.5490   28.1790   42.0030 C   0  0  0  0  0  0  0  0  0  0  0  0
   36.3150   28.2230   40.6640 C   0  0  0  0  0  0  0  0  0  0  0  0
   36.5920   27.0910   40.0020 N   0  0  0  0  0  0  0  0  0  0  0  0
   37.0660   25.9860   40.6060 C   0  0  0  0  0  0  0  0  0  0  0  0
   37.2870   25.9630   41.9110 N   0  0  0  0  0  0  0  0  0  0  0  0
   34.2690   29.2060   39.9880 C   0  0  0  0  0  0  0  0  0  0  0  0
   36.2340   29.4040   38.5160 C   0  0  0  0  0  0  0  0  0  0  0  0
   36.2034   30.5883   41.6707 H   0  0  0  0  0  0  0  0  0  0  0  0
   35.2632   31.3776   40.3134 H   0  0  0  0  0  0  0  0  0  0  0  0
   37.2989   33.4071   40.8488 H   0  0  0  0  0  0  0  0  0  0  0  0
   39.6659   34.1483   38.4595 H   0  0  0  0  0  0  0  0  0  0  0  0
   41.1067   33.3990   41.3426 H   0  0  0  0  0  0  0  0  0  0  0  0
   42.0752   34.2830   40.5207 H   0  0  0  0  0  0  0  0  0  0  0  0
   39.1002   35.3606   41.3947 H   0  0  0  0  0  0  0  0  0  0  0  0
   37.2180   27.0617   43.7647 H   0  0  0  0  0  0  0  0  0  0  0  0
   36.3376   29.0835   42.5923 H   0  0  0  0  0  0  0  0  0  0  0  0
   37.2731   25.0876   40.0059 H   0  0  0  0  0  0  0  0  0  0  0  0
   33.9038   29.1606   41.0246 H   0  0  0  0  0  0  0  0  0  0  0  0
   33.7950   30.0522   39.4690 H   0  0  0  0  0  0  0  0  0  0  0  0
   34.0166   28.2696   39.4690 H   0  0  0  0  0  0  0  0  0  0  0  0
   37.3321   29.4220   38.4531 H   0  0  0  0  0  0  0  0  0  0  0  0
   35.8530   28.4995   38.0193 H   0  0  0  0  0  0  0  0  0  0  0  0
   35.8237   30.2956   38.0193 H   0  0  0  0  0  0  0  0  0  0  0  0
  2  3  1  0
  2  1  1  0
  4  3  2  0
  5  6  1  0
  5  4  1  0
  6  2  2  0
  7  4  1  0
  7  8  1  0
  7  9  1  0
  8  9  1  0
 10  9  1  0
 10 11  1  0
 12 10  1  0
 13 10  1  0
 14 15  1  0
 14  5  1  0
 16 14  1  0
 17 14  1  0
 18  1  1  0
 18 21  1  0
 20 19  2  0
 21 20  1  0
 22 23  1  0
 22 21  2  0
 23 24  2  0
 24 19  1  0
 25 18  1  0
 26 18  1  0
  1 27  1  0
  1 28  1  0
  3 29  1  0
  7 30  1  6
  8 31  1  0
  8 32  1  0
  9 33  1  1
 19 34  1  0
 20 35  1  0
 23 36  1  0
 25 37  1  0
 25 38  1  0
 25 39  1  0
 26 40  1  0
 26 41  1  0
 26 42  1  0
M  ISO  8  27   8  28   8  29  14  30  13  31  13  32  13  33  13  34  14
M  ISO  8  35  14  36  14  37   8  38   8  39   8  40   8  41   8  42   8
M  END
>  <minimizedAffinity>  (1) 
-6.04758215

>  <minimizedRMSD>  (1) 
1.57342052

$$$$
