
     RDKit          3D

 42 44  0  0  1  0  0  0  0  0999 V2000
   36.1910   30.8120   40.5830 C   0  0  0  0  0  0  0  0  0  0  0  0
   37.4220   31.4480   40.0590 C   0  0  0  0  0  0  0  0  0  0  0  0
   37.9270   32.7260   40.2850 C   0  0  0  0  0  0  0  0  0  0  0  0
   39.1080   32.9240   39.5940 C   0  0  0  0  0  0  0  0  0  0  0  0
   39.3080   31.7640   38.9580 N   0  0  0  0  0  0  0  0  0  0  0  0
   38.3340   30.9100   39.2250 N   0  0  0  0  0  0  0  0  0  0  0  0
   39.9350   34.1530   39.5930 C   0  0  2  0  0  0  0  0  0  0  0  0
   41.1450   34.1770   40.5690 C   0  0  0  0  0  0  0  0  0  0  0  0
   39.9900   35.1110   40.6810 C   0  0  1  0  0  0  0  0  0  0  0  0
   40.1310   36.5650   40.4750 C   0  0  0  0  0  0  0  0  0  0  0  0
   39.1990   37.2010   39.8780 O   0  0  0  0  0  0  0  0  0  0  0  0
   41.2280   37.3050   40.8910 O   0  0  0  0  0  0  0  0  0  0  0  0
   40.4330   31.4690   38.1040 C   0  0  0  0  0  0  0  0  0  0  0  0
   41.6410   31.4600   38.7390 F   0  0  0  0  0  0  0  0  0  0  0  0
   40.5350   32.3680   37.0600 F   0  0  0  0  0  0  0  0  0  0  0  0
   40.2830   30.2130   37.5070 F   0  0  0  0  0  0  0  0  0  0  0  0
   35.9100   29.4880   40.0230 C   0  0  0  0  0  0  0  0  0  0  0  0
   37.1170   27.2170   42.7770 C   0  0  0  0  0  0  0  0  0  0  0  0
   36.6410   28.3170   42.0660 C   0  0  0  0  0  0  0  0  0  0  0  0
   36.4030   28.3250   40.7260 C   0  0  0  0  0  0  0  0  0  0  0  0
   36.6620   27.1650   40.0900 N   0  0  0  0  0  0  0  0  0  0  0  0
   37.1230   26.0760   40.7380 C   0  0  0  0  0  0  0  0  0  0  0  0
   37.3470   26.0900   42.0400 N   0  0  0  0  0  0  0  0  0  0  0  0
   34.3710   29.3000   39.9770 C   0  0  0  0  0  0  0  0  0  0  0  0
   36.3840   29.4630   38.5540 C   0  0  0  0  0  0  0  0  0  0  0  0
   36.2936   30.7099   41.6734 H   0  0  0  0  0  0  0  0  0  0  0  0
   35.3526   31.4614   40.2908 H   0  0  0  0  0  0  0  0  0  0  0  0
   37.4490   33.4791   40.9288 H   0  0  0  0  0  0  0  0  0  0  0  0
   39.7339   34.2730   38.5182 H   0  0  0  0  0  0  0  0  0  0  0  0
   41.2851   33.3714   41.3047 H   0  0  0  0  0  0  0  0  0  0  0  0
   42.2375   34.2696   40.4799 H   0  0  0  0  0  0  0  0  0  0  0  0
   39.2905   35.3644   41.4912 H   0  0  0  0  0  0  0  0  0  0  0  0
   41.2606   38.2798   40.7214 H   0  0  0  0  0  0  0  0  0  0  0  0
   37.2960   27.2538   43.8617 H   0  0  0  0  0  0  0  0  0  0  0  0
   36.4440   29.2427   42.6265 H   0  0  0  0  0  0  0  0  0  0  0  0
   37.3171   25.1546   40.1694 H   0  0  0  0  0  0  0  0  0  0  0  0
   33.9767   29.2518   41.0028 H   0  0  0  0  0  0  0  0  0  0  0  0
   33.9136   30.1489   39.4478 H   0  0  0  0  0  0  0  0  0  0  0  0
   34.1314   28.3659   39.4478 H   0  0  0  0  0  0  0  0  0  0  0  0
   37.4821   29.4051   38.5240 H   0  0  0  0  0  0  0  0  0  0  0  0
   35.9565   28.5862   38.0457 H   0  0  0  0  0  0  0  0  0  0  0  0
   36.0511   30.3799   38.0457 H   0  0  0  0  0  0  0  0  0  0  0  0
  2  3  1  0
  2  1  1  0
  4  3  2  0
  5  6  1  0
  5  4  1  0
  6  2  2  0
  7  4  1  0
  7  8  1  0
  7  9  1  0
  8  9  1  0
 10  9  1  0
 10 12  1  0
 11 10  2  0
 13 14  1  0
 13  5  1  0
 15 13  1  0
 16 13  1  0
 17  1  1  0
 17 20  1  0
 19 18  2  0
 20 19  1  0
 21 20  2  0
 21 22  1  0
 22 23  2  0
 23 18  1  0
 24 17  1  0
 25 17  1  0
  1 26  1  0
  1 27  1  0
  3 28  1  0
  7 29  1  6
  8 30  1  0
  8 31  1  0
  9 32  1  1
 12 33  1  0
 18 34  1  0
 19 35  1  0
 22 36  1  0
 24 37  1  0
 24 38  1  0
 24 39  1  0
 25 40  1  0
 25 41  1  0
 25 42  1  0
M  ISO  8  26   8  27   8  28  14  29  13  30  13  31  13  32  13  33   3
M  ISO  8  34  14  35  14  36  14  37   8  38   8  39   8  40   8  41   8
M  ISO  1  42   8
M  END
>  <minimizedAffinity>  (1) 
-5.79475403

>  <minimizedRMSD>  (1) 
1.66299188

$$$$
