
     RDKit          3D

 51 54  0  0  1  0  0  0  0  0999 V2000
   39.5280   30.6470   42.1780 C   0  0  0  0  0  0  0  0  0  0  0  0
   39.5630   31.4330   41.0390 C   0  0  0  0  0  0  0  0  0  0  0  0
   40.7820   32.0550   40.8970 C   0  0  0  0  0  0  0  0  0  0  0  0
   41.4860   31.6370   41.9600 N   0  0  0  0  0  0  0  0  0  0  0  0
   40.7570   30.8210   42.7020 N   0  0  0  0  0  0  0  0  0  0  0  0
   41.1830   32.9740   39.8170 C   0  0  2  0  0  0  0  0  0  0  0  0
   42.5000   33.7730   40.0110 C   0  0  0  0  0  0  0  0  0  0  0  0
   41.1700   34.4240   39.8970 C   0  0  2  0  0  0  0  0  0  0  0  0
   40.6410   35.2230   40.9540 N   0  0  0  0  0  0  0  0  0  0  0  0
   39.1630   35.1260   40.9150 C   0  0  0  0  0  0  0  0  0  0  0  0
   38.8470   36.0920   39.7780 C   0  0  0  0  0  0  0  0  0  0  0  0
   39.6810   37.2850   40.2150 C   0  0  0  0  0  0  0  0  0  0  0  0
   40.8620   36.6290   40.8460 C   0  0  0  0  0  0  0  0  0  0  0  0
   42.8430   32.0170   42.2710 C   0  0  0  0  0  0  0  0  0  0  0  0
   43.0210   33.3530   42.4820 F   0  0  0  0  0  0  0  0  0  0  0  0
   43.7180   31.6480   41.2660 F   0  0  0  0  0  0  0  0  0  0  0  0
   43.2950   31.3430   43.4060 F   0  0  0  0  0  0  0  0  0  0  0  0
   38.4260   29.8090   42.7120 C   0  0  0  0  0  0  0  0  0  0  0  0
   38.2040   28.5660   41.9730 C   0  0  0  0  0  0  0  0  0  0  0  0
   40.3000   26.1620   43.9790 C   0  0  0  0  0  0  0  0  0  0  0  0
   39.7270   27.3320   43.4560 C   0  0  0  0  0  0  0  0  0  0  0  0
   38.7740   27.3430   42.4870 C   0  0  0  0  0  0  0  0  0  0  0  0
   38.3970   26.1410   42.0400 N   0  0  0  0  0  0  0  0  0  0  0  0
   38.9200   24.9920   42.5120 C   0  0  0  0  0  0  0  0  0  0  0  0
   39.8450   24.9910   43.4540 N   0  0  0  0  0  0  0  0  0  0  0  0
   36.6740   28.2990   41.9460 C   0  0  0  0  0  0  0  0  0  0  0  0
   38.6270   28.7810   40.5070 C   0  0  0  0  0  0  0  0  0  0  0  0
   38.7235   31.5459   40.3372 H   0  0  0  0  0  0  0  0  0  0  0  0
   40.7358   32.2727   39.0972 H   0  0  0  0  0  0  0  0  0  0  0  0
   43.0294   33.7505   40.9750 H   0  0  0  0  0  0  0  0  0  0  0  0
   43.4680   33.8472   39.4938 H   0  0  0  0  0  0  0  0  0  0  0  0
   40.7109   35.1782   39.2410 H   0  0  0  0  0  0  0  0  0  0  0  0
   38.8298   34.1037   40.6829 H   0  0  0  0  0  0  0  0  0  0  0  0
   38.6644   35.3618   41.8667 H   0  0  0  0  0  0  0  0  0  0  0  0
   37.7753   36.3359   39.7340 H   0  0  0  0  0  0  0  0  0  0  0  0
   39.0687   35.7129   38.7695 H   0  0  0  0  0  0  0  0  0  0  0  0
   39.9795   37.9002   39.3533 H   0  0  0  0  0  0  0  0  0  0  0  0
   39.1479   37.9746   40.8860 H   0  0  0  0  0  0  0  0  0  0  0  0
   41.7532   36.8110   40.2275 H   0  0  0  0  0  0  0  0  0  0  0  0
   41.0131   37.0486   41.8516 H   0  0  0  0  0  0  0  0  0  0  0  0
   38.6625   29.5523   43.7552 H   0  0  0  0  0  0  0  0  0  0  0  0
   37.5042   30.4017   42.6167 H   0  0  0  0  0  0  0  0  0  0  0  0
   41.0693   26.1896   44.7647 H   0  0  0  0  0  0  0  0  0  0  0  0
   40.0700   28.2982   43.8545 H   0  0  0  0  0  0  0  0  0  0  0  0
   38.5682   24.0333   42.1031 H   0  0  0  0  0  0  0  0  0  0  0  0
   36.2951   28.2329   42.9766 H   0  0  0  0  0  0  0  0  0  0  0  0
   36.1673   29.1223   41.4212 H   0  0  0  0  0  0  0  0  0  0  0  0
   36.4761   27.3528   41.4212 H   0  0  0  0  0  0  0  0  0  0  0  0
   39.6073   29.2792   40.4775 H   0  0  0  0  0  0  0  0  0  0  0  0
   38.6948   27.8080   39.9985 H   0  0  0  0  0  0  0  0  0  0  0  0
   37.8809   29.4093   39.9985 H   0  0  0  0  0  0  0  0  0  0  0  0
  1  5  2  0
  1 18  1  0
  2  1  1  0
  3  2  2  0
  3  4  1  0
  4 14  1  0
  4  5  1  0
  6  8  1  0
  6  7  1  0
  6  3  1  0
  8  7  1  0
  8  9  1  0
  9 10  1  0
 11 12  1  0
 11 10  1  0
 12 13  1  0
 13  9  1  0
 14 15  1  0
 14 17  1  0
 16 14  1  0
 19 22  1  0
 19 18  1  0
 21 20  2  0
 22 21  1  0
 23 22  2  0
 23 24  1  0
 24 25  2  0
 25 20  1  0
 26 19  1  0
 27 19  1  0
  2 28  1  0
  6 29  1  6
  7 30  1  0
  7 31  1  0
  8 32  1  6
 10 33  1  0
 10 34  1  0
 11 35  1  0
 11 36  1  0
 12 37  1  0
 12 38  1  0
 13 39  1  0
 13 40  1  0
 18 41  1  0
 18 42  1  0
 20 43  1  0
 21 44  1  0
 24 45  1  0
 26 46  1  0
 26 47  1  0
 26 48  1  0
 27 49  1  0
 27 50  1  0
 27 51  1  0
M  ISO  8  28  14  29  13  30  13  31  13  32  13  33  13  34  13  35  13
M  ISO  8  36  13  37  13  38  13  39  13  40  13  41   8  42   8  43  14
M  ISO  8  44  14  45  14  46   8  47   8  48   8  49   8  50   8  51   8
M  END
>  <minimizedAffinity>  (1) 
-5.55657482

>  <minimizedRMSD>  (1) 
2.87036014

$$$$
