
     RDKit          3D

 52 55  0  0  1  0  0  0  0  0999 V2000
   37.9930   30.6660   39.5380 C   0  0  0  0  0  0  0  0  0  0  0  0
   38.5670   31.8480   39.1010 C   0  0  0  0  0  0  0  0  0  0  0  0
   39.8070   31.6420   38.5510 C   0  0  0  0  0  0  0  0  0  0  0  0
   39.9860   30.3170   38.6560 N   0  0  0  0  0  0  0  0  0  0  0  0
   38.9350   29.7500   39.2290 N   0  0  0  0  0  0  0  0  0  0  0  0
   40.7040   32.6750   38.0050 C   0  0  2  0  0  0  0  0  0  0  0  0
   42.1500   32.7470   38.5700 C   0  0  0  0  0  0  0  0  0  0  0  0
   41.1580   33.8560   38.7000 C   0  0  2  0  0  0  0  0  0  0  0  0
   40.6780   34.2420   39.9730 N   0  0  0  0  0  0  0  0  0  0  0  0
   41.5950   34.3800   41.0410 C   0  0  0  0  0  0  0  0  0  0  0  0
   42.0320   35.7980   41.3410 C   0  0  0  0  0  0  0  0  0  0  0  0
   41.0360   36.7370   41.2370 O   0  0  0  0  0  0  0  0  0  0  0  0
   40.4770   36.6200   39.9650 C   0  0  0  0  0  0  0  0  0  0  0  0
   39.7200   35.3090   39.9680 C   0  0  0  0  0  0  0  0  0  0  0  0
   41.1600   29.5920   38.2100 C   0  0  0  0  0  0  0  0  0  0  0  0
   42.2670   29.7910   38.9460 F   0  0  0  0  0  0  0  0  0  0  0  0
   41.4630   29.9290   36.8800 F   0  0  0  0  0  0  0  0  0  0  0  0
   40.8980   28.2210   38.1780 F   0  0  0  0  0  0  0  0  0  0  0  0
   36.6840   30.4260   40.1890 C   0  0  0  0  0  0  0  0  0  0  0  0
   36.0720   29.1430   39.8590 C   0  0  0  0  0  0  0  0  0  0  0  0
   36.9910   26.8910   42.7370 C   0  0  0  0  0  0  0  0  0  0  0  0
   36.6210   27.9890   41.9640 C   0  0  0  0  0  0  0  0  0  0  0  0
   36.4580   27.9740   40.6140 C   0  0  0  0  0  0  0  0  0  0  0  0
   36.6850   26.7860   40.0360 N   0  0  0  0  0  0  0  0  0  0  0  0
   37.0460   25.6840   40.7260 C   0  0  0  0  0  0  0  0  0  0  0  0
   37.1970   25.7300   42.0450 N   0  0  0  0  0  0  0  0  0  0  0  0
   34.5450   29.2780   40.0930 C   0  0  0  0  0  0  0  0  0  0  0  0
   36.2550   28.8880   38.3490 C   0  0  0  0  0  0  0  0  0  0  0  0
   38.0864   32.8339   39.1848 H   0  0  0  0  0  0  0  0  0  0  0  0
   40.1977   32.5451   37.0371 H   0  0  0  0  0  0  0  0  0  0  0  0
   42.4384   32.1488   39.4469 H   0  0  0  0  0  0  0  0  0  0  0  0
   43.1688   32.6305   38.1719 H   0  0  0  0  0  0  0  0  0  0  0  0
   41.1495   34.9212   38.4256 H   0  0  0  0  0  0  0  0  0  0  0  0
   41.1249   33.9706   41.9473 H   0  0  0  0  0  0  0  0  0  0  0  0
   42.5032   33.8412   40.7329 H   0  0  0  0  0  0  0  0  0  0  0  0
   42.4241   35.8261   42.3684 H   0  0  0  0  0  0  0  0  0  0  0  0
   42.7864   36.0585   40.5840 H   0  0  0  0  0  0  0  0  0  0  0  0
   41.2665   36.6050   39.1992 H   0  0  0  0  0  0  0  0  0  0  0  0
   39.8171   37.4688   39.7324 H   0  0  0  0  0  0  0  0  0  0  0  0
   39.0869   35.2460   40.8653 H   0  0  0  0  0  0  0  0  0  0  0  0
   39.0756   35.2387   39.0793 H   0  0  0  0  0  0  0  0  0  0  0  0
   36.8290   30.4677   41.2786 H   0  0  0  0  0  0  0  0  0  0  0  0
   36.0013   31.2041   39.8168 H   0  0  0  0  0  0  0  0  0  0  0  0
   37.1093   26.9536   43.8288 H   0  0  0  0  0  0  0  0  0  0  0  0
   36.4473   28.9417   42.4857 H   0  0  0  0  0  0  0  0  0  0  0  0
   37.2169   24.7382   40.1910 H   0  0  0  0  0  0  0  0  0  0  0  0
   34.3398   29.2961   41.1735 H   0  0  0  0  0  0  0  0  0  0  0  0
   34.1851   30.2115   39.6357 H   0  0  0  0  0  0  0  0  0  0  0  0
   34.0269   28.4222   39.6357 H   0  0  0  0  0  0  0  0  0  0  0  0
   36.8905   28.0024   38.2011 H   0  0  0  0  0  0  0  0  0  0  0  0
   35.2728   28.7162   37.8845 H   0  0  0  0  0  0  0  0  0  0  0  0
   36.7322   29.7635   37.8845 H   0  0  0  0  0  0  0  0  0  0  0  0
  1 19  1  0
  2  1  1  0
  3  4  1  0
  3  2  2  0
  4  5  1  0
  5  1  2  0
  6  3  1  0
  6  7  1  0
  6  8  1  0
  7  8  1  0
  8  9  1  0
  9 10  1  0
 10 11  1  0
 12 11  1  0
 13 14  1  0
 13 12  1  0
 14  9  1  0
 15  4  1  0
 15 16  1  0
 17 15  1  0
 18 15  1  0
 20 27  1  0
 20 19  1  0
 20 23  1  0
 22 21  2  0
 23 22  1  0
 24 23  2  0
 24 25  1  0
 25 26  2  0
 26 21  1  0
 28 20  1  0
  2 29  1  0
  6 30  1  6
  7 31  1  0
  7 32  1  0
  8 33  1  6
 10 34  1  0
 10 35  1  0
 11 36  1  0
 11 37  1  0
 13 38  1  0
 13 39  1  0
 14 40  1  0
 14 41  1  0
 19 42  1  0
 19 43  1  0
 21 44  1  0
 22 45  1  0
 25 46  1  0
 27 47  1  0
 27 48  1  0
 27 49  1  0
 28 50  1  0
 28 51  1  0
 28 52  1  0
M  ISO  8  29  14  30  13  31  13  32  13  33  13  34  13  35  13  36  13
M  ISO  8  37  13  38  13  39  13  40  13  41  13  42   8  43   8  44  14
M  ISO  8  45  14  46  14  47   8  48   8  49   8  50   8  51   8  52   8
M  END
>  <minimizedAffinity>  (1) 
-5.27947092

>  <minimizedRMSD>  (1) 
3.15849853

$$$$
