
     RDKit          3D

 48 51  0  0  1  0  0  0  0  0999 V2000
   36.2810   29.3880   38.8500 C   0  0  0  0  0  0  0  0  0  0  0  0
   36.8710   30.6140   39.1130 C   0  0  0  0  0  0  0  0  0  0  0  0
   38.1470   30.4640   39.6360 C   0  0  0  0  0  0  0  0  0  0  0  0
   38.3070   29.1350   39.6800 N   0  0  0  0  0  0  0  0  0  0  0  0
   37.2360   28.5170   39.2280 N   0  0  0  0  0  0  0  0  0  0  0  0
   39.0700   31.5380   40.0420 C   0  0  2  0  0  0  0  0  0  0  0  0
   39.1920   31.8040   41.5720 C   0  0  0  0  0  0  0  0  0  0  0  0
   38.6560   32.8070   40.6110 C   0  0  1  0  0  0  0  0  0  0  0  0
   39.4380   34.0480   40.4340 C   0  0  0  0  0  0  0  0  0  0  0  0
   38.7520   35.2410   40.2120 C   0  0  0  0  0  0  0  0  0  0  0  0
   39.4630   36.4080   40.0460 C   0  0  0  0  0  0  0  0  0  0  0  0
   40.8510   36.3930   40.1010 C   0  0  0  0  0  0  0  0  0  0  0  0
   41.5060   35.1840   40.3250 C   0  0  0  0  0  0  0  0  0  0  0  0
   40.7790   34.0470   40.4850 N   0  0  0  0  0  0  0  0  0  0  0  0
   39.4880   28.4590   40.1700 C   0  0  0  0  0  0  0  0  0  0  0  0
   39.7350   28.6350   41.5010 F   0  0  0  0  0  0  0  0  0  0  0  0
   40.6250   28.8650   39.4990 F   0  0  0  0  0  0  0  0  0  0  0  0
   39.4020   27.0840   39.9440 F   0  0  0  0  0  0  0  0  0  0  0  0
   34.9450   29.0800   38.2860 C   0  0  0  0  0  0  0  0  0  0  0  0
   34.9740   28.5970   36.8980 C   0  0  0  0  0  0  0  0  0  0  0  0
   35.1650   24.8440   37.1600 C   0  0  0  0  0  0  0  0  0  0  0  0
   34.8240   26.1880   37.3740 C   0  0  0  0  0  0  0  0  0  0  0  0
   35.3420   27.2220   36.6600 C   0  0  0  0  0  0  0  0  0  0  0  0
   36.2220   26.8760   35.7150 N   0  0  0  0  0  0  0  0  0  0  0  0
   36.5780   25.6020   35.4750 C   0  0  0  0  0  0  0  0  0  0  0  0
   36.0670   24.6050   36.1750 N   0  0  0  0  0  0  0  0  0  0  0  0
   33.5410   28.7220   36.3210 C   0  0  0  0  0  0  0  0  0  0  0  0
   35.8520   29.5460   36.0630 C   0  0  0  0  0  0  0  0  0  0  0  0
   36.3877   31.5850   38.9299 H   0  0  0  0  0  0  0  0  0  0  0  0
   39.7180   31.2921   39.1878 H   0  0  0  0  0  0  0  0  0  0  0  0
   38.5220   31.2973   42.2822 H   0  0  0  0  0  0  0  0  0  0  0  0
   39.9941   31.7717   42.3240 H   0  0  0  0  0  0  0  0  0  0  0  0
   37.7184   33.3723   40.5044 H   0  0  0  0  0  0  0  0  0  0  0  0
   37.6528   35.2498   40.1699 H   0  0  0  0  0  0  0  0  0  0  0  0
   38.9309   37.3544   39.8694 H   0  0  0  0  0  0  0  0  0  0  0  0
   41.4246   37.3223   39.9696 H   0  0  0  0  0  0  0  0  0  0  0  0
   42.6045   35.1499   40.3721 H   0  0  0  0  0  0  0  0  0  0  0  0
   34.4768   28.3054   38.9111 H   0  0  0  0  0  0  0  0  0  0  0  0
   34.3788   30.0231   38.2809 H   0  0  0  0  0  0  0  0  0  0  0  0
   34.7262   24.0306   37.7566 H   0  0  0  0  0  0  0  0  0  0  0  0
   34.0954   26.4182   38.1653 H   0  0  0  0  0  0  0  0  0  0  0  0
   37.3082   25.3858   34.6812 H   0  0  0  0  0  0  0  0  0  0  0  0
   32.8173   28.7851   37.1470 H   0  0  0  0  0  0  0  0  0  0  0  0
   33.4723   29.6295   35.7032 H   0  0  0  0  0  0  0  0  0  0  0  0
   33.3162   27.8400   35.7032 H   0  0  0  0  0  0  0  0  0  0  0  0
   36.4433   30.1851   36.7353 H   0  0  0  0  0  0  0  0  0  0  0  0
   36.5294   28.9556   35.4285 H   0  0  0  0  0  0  0  0  0  0  0  0
   35.2109   30.1755   35.4285 H   0  0  0  0  0  0  0  0  0  0  0  0
  1  2  1  0
  1  5  2  0
  2  3  2  0
  3  4  1  0
  3  6  1  0
  4 15  1  0
  5  4  1  0
  6  8  1  0
  6  7  1  0
  8  7  1  0
  9 14  1  0
  9  8  1  0
 10  9  2  0
 11 12  2  0
 11 10  1  0
 12 13  1  0
 13 14  2  0
 15 16  1  0
 17 15  1  0
 18 15  1  0
 19  1  1  0
 20 19  1  0
 21 22  2  0
 23 20  1  0
 23 22  1  0
 24 23  2  0
 25 24  1  0
 25 26  2  0
 26 21  1  0
 27 20  1  0
 28 20  1  0
  2 29  1  0
  6 30  1  6
  7 31  1  0
  7 32  1  0
  8 33  1  1
 10 34  1  0
 11 35  1  0
 12 36  1  0
 13 37  1  0
 19 38  1  0
 19 39  1  0
 21 40  1  0
 22 41  1  0
 25 42  1  0
 27 43  1  0
 27 44  1  0
 27 45  1  0
 28 46  1  0
 28 47  1  0
 28 48  1  0
M  ISO  8  29  14  30  13  31  13  32  13  33  13  34  14  35  14  36  14
M  ISO  8  37  14  38   8  39   8  40  14  41  14  42  14  43   8  44   8
M  ISO  4  45   8  46   8  47   8  48   8
M  END
>  <minimizedAffinity>  (1) 
-5.00266218

>  <minimizedRMSD>  (1) 
4.00720215

$$$$
