
     RDKit          3D

 46 49  0  0  1  0  0  0  0  0999 V2000
   38.3630   29.3430   39.3740 C   0  0  0  0  0  0  0  0  0  0  0  0
   38.6970   30.6260   39.7990 C   0  0  0  0  0  0  0  0  0  0  0  0
   39.8320   31.0900   39.1650 C   0  0  0  0  0  0  0  0  0  0  0  0
   40.1770   30.0780   38.3590 N   0  0  0  0  0  0  0  0  0  0  0  0
   39.3300   29.0680   38.4780 N   0  0  0  0  0  0  0  0  0  0  0  0
   40.4980   32.3930   39.3520 C   0  0  2  0  0  0  0  0  0  0  0  0
   41.6770   32.4330   40.3670 C   0  0  0  0  0  0  0  0  0  0  0  0
   40.4030   33.1710   40.5800 C   0  0  1  0  0  0  0  0  0  0  0  0
   40.5060   34.6410   40.5700 C   0  0  0  0  0  0  0  0  0  0  0  0
   41.4500   35.7050   40.8480 C   0  0  0  0  0  0  0  0  0  0  0  0
   40.9570   36.9650   40.6500 C   0  0  0  0  0  0  0  0  0  0  0  0
   39.7080   37.2310   40.2330 C   0  0  0  0  0  0  0  0  0  0  0  0
   38.9600   35.5980   40.0360 S   0  0  0  0  0  0  0  0  0  0  0  0
   41.3230   30.0600   37.4780 C   0  0  0  0  0  0  0  0  0  0  0  0
   42.5250   29.9580   38.1150 F   0  0  0  0  0  0  0  0  0  0  0  0
   41.3790   31.1980   36.6980 F   0  0  0  0  0  0  0  0  0  0  0  0
   41.2430   29.0080   36.5750 F   0  0  0  0  0  0  0  0  0  0  0  0
   37.2310   28.4780   39.7810 C   0  0  0  0  0  0  0  0  0  0  0  0
   36.0020   28.6930   39.0110 C   0  0  0  0  0  0  0  0  0  0  0  0
   35.4150   25.1970   37.7310 C   0  0  0  0  0  0  0  0  0  0  0  0
   35.9390   26.3070   38.3840 C   0  0  0  0  0  0  0  0  0  0  0  0
   35.4220   27.5650   38.3150 C   0  0  0  0  0  0  0  0  0  0  0  0
   34.3280   27.6870   37.5460 N   0  0  0  0  0  0  0  0  0  0  0  0
   33.7770   26.6430   36.8900 C   0  0  0  0  0  0  0  0  0  0  0  0
   34.2980   25.4290   36.9740 N   0  0  0  0  0  0  0  0  0  0  0  0
   34.8950   29.1660   39.9870 C   0  0  0  0  0  0  0  0  0  0  0  0
   36.2250   29.8650   38.0360 C   0  0  0  0  0  0  0  0  0  0  0  0
   38.1278   31.1982   40.5464 H   0  0  0  0  0  0  0  0  0  0  0  0
   40.3122   32.6424   38.2969 H   0  0  0  0  0  0  0  0  0  0  0  0
   41.9185   31.5497   40.9765 H   0  0  0  0  0  0  0  0  0  0  0  0
   42.7465   32.6881   40.3325 H   0  0  0  0  0  0  0  0  0  0  0  0
   39.6259   33.1965   41.3582 H   0  0  0  0  0  0  0  0  0  0  0  0
   42.4780   35.5147   41.1900 H   0  0  0  0  0  0  0  0  0  0  0  0
   41.6265   37.8158   40.8448 H   0  0  0  0  0  0  0  0  0  0  0  0
   39.2479   38.2139   40.0533 H   0  0  0  0  0  0  0  0  0  0  0  0
   37.5368   27.4287   39.6565 H   0  0  0  0  0  0  0  0  0  0  0  0
   36.9980   28.7335   40.8252 H   0  0  0  0  0  0  0  0  0  0  0  0
   35.8680   24.1983   37.8169 H   0  0  0  0  0  0  0  0  0  0  0  0
   36.8370   26.1582   39.0016 H   0  0  0  0  0  0  0  0  0  0  0  0
   32.8794   26.8043   36.2750 H   0  0  0  0  0  0  0  0  0  0  0  0
   35.2337   29.0213   41.0235 H   0  0  0  0  0  0  0  0  0  0  0  0
   34.6857   30.2321   39.8151 H   0  0  0  0  0  0  0  0  0  0  0  0
   33.9799   28.5803   39.8151 H   0  0  0  0  0  0  0  0  0  0  0  0
   36.4007   30.7886   38.6070 H   0  0  0  0  0  0  0  0  0  0  0  0
   37.0990   29.6537   37.4025 H   0  0  0  0  0  0  0  0  0  0  0  0
   35.3344   29.9894   37.4025 H   0  0  0  0  0  0  0  0  0  0  0  0
  1 18  1  0
  1  2  1  0
  3  6  1  0
  3  2  2  0
  4  5  1  0
  4  3  1  0
  5  1  2  0
  6  7  1  0
  6  8  1  0
  7  8  1  0
  9  8  1  0
  9 10  2  0
 11 10  1  0
 12 11  2  0
 13 12  1  0
 13  9  1  0
 14 15  1  0
 14  4  1  0
 16 14  1  0
 17 14  1  0
 19 18  1  0
 19 26  1  0
 20 21  2  0
 22 21  1  0
 22 19  1  0
 23 22  2  0
 24 25  2  0
 24 23  1  0
 25 20  1  0
 27 19  1  0
  2 28  1  0
  6 29  1  6
  7 30  1  0
  7 31  1  0
  8 32  1  1
 10 33  1  0
 11 34  1  0
 12 35  1  0
 18 36  1  0
 18 37  1  0
 20 38  1  0
 21 39  1  0
 24 40  1  0
 26 41  1  0
 26 42  1  0
 26 43  1  0
 27 44  1  0
 27 45  1  0
 27 46  1  0
M  ISO  8  28  14  29  13  30  13  31  13  32  13  33  14  34  14  35  14
M  ISO  8  36   8  37   8  38  14  39  14  40  14  41   8  42   8  43   8
M  ISO  3  44   8  45   8  46   8
M  END
>  <minimizedAffinity>  (1) 
-4.86307621

>  <minimizedRMSD>  (1) 
3.53343248

$$$$
