
     RDKit          3D

 42 44  0  0  1  0  0  0  0  0999 V2000
   36.0920   30.6250   40.9360 C   0  0  0  0  0  0  0  0  0  0  0  0
   37.3510   31.3670   40.6890 C   0  0  0  0  0  0  0  0  0  0  0  0
   37.5370   32.7060   40.3470 C   0  0  0  0  0  0  0  0  0  0  0  0
   38.8800   33.0010   40.1950 C   0  0  0  0  0  0  0  0  0  0  0  0
   39.4910   31.8470   40.4450 N   0  0  0  0  0  0  0  0  0  0  0  0
   38.6210   30.9050   40.7280 N   0  0  0  0  0  0  0  0  0  0  0  0
   39.4820   34.3210   39.8400 C   0  0  2  0  0  0  0  0  0  0  0  0
   40.2880   35.0070   40.9970 C   0  0  0  0  0  0  0  0  0  0  0  0
   39.0500   35.5830   40.3670 C   0  0  1  0  0  0  0  0  0  0  0  0
   39.1520   36.6690   39.4900 O   0  0  0  0  0  0  0  0  0  0  0  0
   40.9130   31.6450   40.4200 C   0  0  0  0  0  0  0  0  0  0  0  0
   41.5820   32.2300   41.4710 F   0  0  0  0  0  0  0  0  0  0  0  0
   41.4960   32.1300   39.2800 F   0  0  0  0  0  0  0  0  0  0  0  0
   41.2330   30.2890   40.4620 F   0  0  0  0  0  0  0  0  0  0  0  0
   35.9960   29.3640   40.1790 C   0  0  1  0  0  0  0  0  0  0  0  0
   36.9840   26.8640   42.8190 C   0  0  0  0  0  0  0  0  0  0  0  0
   36.5820   28.0450   42.1720 C   0  0  0  0  0  0  0  0  0  0  0  0
   36.4110   28.1360   40.8300 C   0  0  0  0  0  0  0  0  0  0  0  0
   36.6510   27.0150   40.1570 N   0  0  0  0  0  0  0  0  0  0  0  0
   37.0350   25.8650   40.7190 C   0  0  0  0  0  0  0  0  0  0  0  0
   37.1990   25.7890   42.0410 N   0  0  0  0  0  0  0  0  0  0  0  0
   34.5060   29.1250   39.8400 C   0  0  0  0  0  0  0  0  0  0  0  0
   36.7180   29.5220   38.8410 C   0  0  0  0  0  0  0  0  0  0  0  0
   35.8300   29.7120   37.7290 N   0  0  0  0  0  0  0  0  0  0  0  0
   36.0294   30.3927   42.0094 H   0  0  0  0  0  0  0  0  0  0  0  0
   35.2654   31.2684   40.6002 H   0  0  0  0  0  0  0  0  0  0  0  0
   36.7220   33.4330   40.2152 H   0  0  0  0  0  0  0  0  0  0  0  0
   39.6290   33.9860   38.8026 H   0  0  0  0  0  0  0  0  0  0  0  0
   40.2611   34.5998   42.0185 H   0  0  0  0  0  0  0  0  0  0  0  0
   41.3250   35.3303   41.1707 H   0  0  0  0  0  0  0  0  0  0  0  0
   38.1190   35.9617   40.8141 H   0  0  0  0  0  0  0  0  0  0  0  0
   39.2307   37.5073   40.0106 H   0  0  0  0  0  0  0  0  0  0  0  0
   37.1164   26.8213   43.9102 H   0  0  0  0  0  0  0  0  0  0  0  0
   36.3969   28.9397   42.7845 H   0  0  0  0  0  0  0  0  0  0  0  0
   37.2161   24.9801   40.0911 H   0  0  0  0  0  0  0  0  0  0  0  0
   33.9283   29.0323   40.7715 H   0  0  0  0  0  0  0  0  0  0  0  0
   34.1227   29.9731   39.2537 H   0  0  0  0  0  0  0  0  0  0  0  0
   34.4072   28.1995   39.2537 H   0  0  0  0  0  0  0  0  0  0  0  0
   37.3852   30.3941   38.9065 H   0  0  0  0  0  0  0  0  0  0  0  0
   37.2688   28.5874   38.6587 H   0  0  0  0  0  0  0  0  0  0  0  0
   34.8821   29.9148   38.0773 H   0  0  0  0  0  0  0  0  0  0  0  0
   36.1614   30.5011   37.1560 H   0  0  0  0  0  0  0  0  0  0  0  0
  2  6  2  0
  2  1  1  0
  3  2  1  0
  4  3  2  0
  4  5  1  0
  5  6  1  0
  7  4  1  0
  7  9  1  0
  7  8  1  0
  9  8  1  0
 10  9  1  0
 11  5  1  0
 11 14  1  0
 11 12  1  0
 13 11  1  0
 15 23  1  6
 15 18  1  0
 15  1  1  0
 17 16  2  0
 18 17  1  0
 19 20  1  0
 19 18  2  0
 20 21  2  0
 21 16  1  0
 22 15  1  0
 24 23  1  0
  1 25  1  0
  1 26  1  0
  3 27  1  0
  7 28  1  6
  8 29  1  0
  8 30  1  0
  9 31  1  1
 10 32  1  0
 16 33  1  0
 17 34  1  0
 20 35  1  0
 22 36  1  0
 22 37  1  0
 22 38  1  0
 23 39  1  0
 23 40  1  0
 24 41  1  0
 24 42  1  0
M  ISO  8  25   8  26   8  27  14  28  13  29  13  30  13  31  13  32   3
M  ISO  8  33  14  34  14  35  14  36   8  37   8  38   8  39   8  40   8
M  ISO  2  41   5  42   5
M  END
>  <minimizedAffinity>  (1) 
-5.02541971

>  <minimizedRMSD>  (1) 
0.232519448

$$$$
