
     RDKit          3D

 43 45  0  0  1  0  0  0  0  0999 V2000
   40.2550   31.1310   42.5130 C   0  0  0  0  0  0  0  0  0  0  0  0
   39.3570   30.0850   42.7450 C   0  0  0  0  0  0  0  0  0  0  0  0
   38.1840   30.0300   41.9820 C   0  0  0  0  0  0  0  0  0  0  0  0
   38.0010   30.9950   41.0730 N   0  0  0  0  0  0  0  0  0  0  0  0
   38.8740   31.9920   40.8650 C   0  0  0  0  0  0  0  0  0  0  0  0
   40.0020   32.0620   41.5830 N   0  0  0  0  0  0  0  0  0  0  0  0
   37.2070   29.0070   42.1270 N   0  0  0  0  0  0  0  0  0  0  0  0
   36.9980   28.3880   43.4580 C   0  0  0  0  0  0  0  0  0  0  0  0
   36.6590   26.9310   43.1770 C   0  0  0  0  0  0  0  0  0  0  0  0
   37.4540   26.4700   41.9970 C   0  0  0  0  0  0  0  0  0  0  0  0
   36.8770   27.1300   40.7390 C   0  0  0  0  0  0  0  0  0  0  0  0
   36.4000   28.5130   41.0960 C   0  0  2  0  0  0  0  0  0  0  0  0
   36.0790   29.3240   39.9710 N   0  0  0  0  0  0  0  0  0  0  0  0
   34.6290   29.2870   39.7050 C   0  0  0  0  0  0  0  0  0  0  0  0
   34.2290   28.4570   38.5450 C   0  0  0  0  0  0  0  0  0  0  0  0
   34.7580   29.0980   37.2540 C   0  0  0  0  0  0  0  0  0  0  0  0
   36.0750   29.7480   37.6450 C   0  0  0  0  0  0  0  0  0  0  0  0
   36.6890   28.8770   38.7320 C   0  0  0  0  0  0  0  0  0  0  0  0
   38.4340   32.9300   39.7810 C   0  0  0  0  0  0  0  0  0  0  0  0
   38.3630   32.2840   38.5570 F   0  0  0  0  0  0  0  0  0  0  0  0
   39.2790   33.9970   39.7110 F   0  0  0  0  0  0  0  0  0  0  0  0
   37.1890   33.4480   40.0930 F   0  0  0  0  0  0  0  0  0  0  0  0
   41.1821   31.1906   43.1020 H   0  0  0  0  0  0  0  0  0  0  0  0
   39.5670   29.3225   43.5095 H   0  0  0  0  0  0  0  0  0  0  0  0
   37.9131   28.4603   44.0641 H   0  0  0  0  0  0  0  0  0  0  0  0
   36.2002   28.8922   44.0231 H   0  0  0  0  0  0  0  0  0  0  0  0
   36.9101   26.3171   44.0546 H   0  0  0  0  0  0  0  0  0  0  0  0
   35.5841   26.8315   42.9654 H   0  0  0  0  0  0  0  0  0  0  0  0
   38.5070   26.7629   42.1208 H   0  0  0  0  0  0  0  0  0  0  0  0
   37.4001   25.3749   41.9086 H   0  0  0  0  0  0  0  0  0  0  0  0
   36.0335   26.5333   40.3615 H   0  0  0  0  0  0  0  0  0  0  0  0
   37.6498   27.1895   39.9585 H   0  0  0  0  0  0  0  0  0  0  0  0
   35.3914   28.5065   41.5348 H   0  0  0  0  0  0  0  0  0  0  0  0
   34.1275   28.8887   40.5994 H   0  0  0  0  0  0  0  0  0  0  0  0
   34.3331   30.3185   39.4631 H   0  0  0  0  0  0  0  0  0  0  0  0
   34.6511   27.4470   38.6532 H   0  0  0  0  0  0  0  0  0  0  0  0
   33.1319   28.3915   38.5004 H   0  0  0  0  0  0  0  0  0  0  0  0
   34.0509   29.8530   36.8799 H   0  0  0  0  0  0  0  0  0  0  0  0
   34.8862   28.3588   36.4496 H   0  0  0  0  0  0  0  0  0  0  0  0
   36.7462   29.7972   36.7749 H   0  0  0  0  0  0  0  0  0  0  0  0
   35.9169   30.7755   38.0045 H   0  0  0  0  0  0  0  0  0  0  0  0
   36.4605   27.8164   38.5508 H   0  0  0  0  0  0  0  0  0  0  0  0
   37.7850   28.9664   38.7589 H   0  0  0  0  0  0  0  0  0  0  0  0
  1  2  2  0
  3  7  1  0
  3  2  1  0
  4  3  2  0
  5  4  1  0
  5  6  2  0
  6  1  1  0
  7  8  1  0
  9  8  1  0
 10  9  1  0
 11 12  1  0
 11 10  1  0
 12  7  1  0
 13 12  1  0
 14 13  1  0
 15 14  1  0
 16 17  1  0
 16 15  1  0
 17 18  1  0
 18 13  1  0
 19 22  1  0
 19  5  1  0
 20 19  1  0
 21 19  1  0
  1 23  1  0
  2 24  1  0
  8 25  1  0
  8 26  1  0
  9 27  1  0
  9 28  1  0
 10 29  1  0
 10 30  1  0
 11 31  1  0
 11 32  1  0
 12 33  1  1
 14 34  1  0
 14 35  1  0
 15 36  1  0
 15 37  1  0
 16 38  1  0
 16 39  1  0
 17 40  1  0
 17 41  1  0
 18 42  1  0
 18 43  1  0
M  ISO  8  23  14  24  14  25  13  26  13  27  13  28  13  29  13  30  13
M  ISO  8  31  13  32  13  33  13  34  13  35  13  36  13  37  13  38  13
M  ISO  5  39  13  40  13  41  13  42  13  43  13
M  END
>  <minimizedAffinity>  (1) 
-6.01337051

>  <minimizedRMSD>  (1) 
2.14881158

$$$$
