
     RDKit          3D

 34 35  0  0  1  0  0  0  0  0999 V2000
   40.3100   31.0240   42.3850 C   0  0  0  0  0  0  0  0  0  0  0  0
   39.4210   29.9880   42.6680 C   0  0  0  0  0  0  0  0  0  0  0  0
   38.1660   29.9890   42.0640 C   0  0  0  0  0  0  0  0  0  0  0  0
   37.8560   31.0040   41.2150 N   0  0  0  0  0  0  0  0  0  0  0  0
   38.7400   31.9940   40.9590 C   0  0  0  0  0  0  0  0  0  0  0  0
   39.9580   32.0150   41.5340 N   0  0  0  0  0  0  0  0  0  0  0  0
   37.2090   28.9740   42.3050 N   0  0  0  0  0  0  0  0  0  0  0  0
   37.1540   28.2750   43.5840 C   0  0  0  0  0  0  0  0  0  0  0  0
   36.7650   26.8330   43.2630 C   0  0  0  0  0  0  0  0  0  0  0  0
   37.3760   26.4410   41.9440 C   0  0  0  0  0  0  0  0  0  0  0  0
   36.6330   27.1830   40.8490 C   0  0  0  0  0  0  0  0  0  0  0  0
   36.2370   28.5520   41.3610 C   0  0  2  0  0  0  0  0  0  0  0  0
   38.1860   32.9980   40.0000 C   0  0  0  0  0  0  0  0  0  0  0  0
   38.8480   32.9280   38.7840 F   0  0  0  0  0  0  0  0  0  0  0  0
   38.2850   34.2560   40.5090 F   0  0  0  0  0  0  0  0  0  0  0  0
   36.8370   32.7460   39.7880 F   0  0  0  0  0  0  0  0  0  0  0  0
   35.9750   29.4880   40.2270 C   0  0  0  0  0  0  0  0  0  0  0  0
   34.5840   29.1650   39.6880 C   0  0  0  0  0  0  0  0  0  0  0  0
   41.3037   31.0357   42.8566 H   0  0  0  0  0  0  0  0  0  0  0  0
   39.7068   29.1810   43.3587 H   0  0  0  0  0  0  0  0  0  0  0  0
   38.1366   28.3044   44.0776 H   0  0  0  0  0  0  0  0  0  0  0  0
   36.4303   28.7437   44.2670 H   0  0  0  0  0  0  0  0  0  0  0  0
   37.1374   26.1659   44.0544 H   0  0  0  0  0  0  0  0  0  0  0  0
   35.6698   26.7484   43.2043 H   0  0  0  0  0  0  0  0  0  0  0  0
   38.4404   26.7181   41.9278 H   0  0  0  0  0  0  0  0  0  0  0  0
   37.2978   25.3543   41.7926 H   0  0  0  0  0  0  0  0  0  0  0  0
   35.7311   26.6193   40.5683 H   0  0  0  0  0  0  0  0  0  0  0  0
   37.2816   27.2898   39.9670 H   0  0  0  0  0  0  0  0  0  0  0  0
   35.2777   28.5271   41.8987 H   0  0  0  0  0  0  0  0  0  0  0  0
   36.0096   30.5287   40.5815 H   0  0  0  0  0  0  0  0  0  0  0  0
   36.7354   29.3716   39.4407 H   0  0  0  0  0  0  0  0  0  0  0  0
   33.8931   29.0046   40.5288 H   0  0  0  0  0  0  0  0  0  0  0  0
   34.2251   30.0037   39.0734 H   0  0  0  0  0  0  0  0  0  0  0  0
   34.6314   28.2540   39.0734 H   0  0  0  0  0  0  0  0  0  0  0  0
  1  2  2  0
  3  7  1  0
  3  2  1  0
  4  3  2  0
  5  4  1  0
  5  6  2  0
  6  1  1  0
  7  8  1  0
  9  8  1  0
 10  9  1  0
 11 12  1  0
 11 10  1  0
 12  7  1  0
 13 15  1  0
 13  5  1  0
 14 13  1  0
 16 13  1  0
 17 12  1  0
 18 17  1  0
  1 19  1  0
  2 20  1  0
  8 21  1  0
  8 22  1  0
  9 23  1  0
  9 24  1  0
 10 25  1  0
 10 26  1  0
 11 27  1  0
 11 28  1  0
 12 29  1  1
 17 30  1  0
 17 31  1  0
 18 32  1  0
 18 33  1  0
 18 34  1  0
M  ISO  8  19  14  20  14  21  13  22  13  23  13  24  13  25  13  26  13
M  ISO  8  27  13  28  13  29  13  30   8  31   8  32   8  33   8  34   8
M  END
>  <minimizedAffinity>  (1) 
-5.41990852

>  <minimizedRMSD>  (1) 
1.78612661

$$$$
