
     RDKit          3D

 40 44  0  0  0  0  0  0  0  0999 V2000
   37.8230   28.6830   43.5260 C   0  0  0  0  0  0  0  0  0  0  0  0
   38.1060   27.3470   43.2300 C   0  0  0  0  0  0  0  0  0  0  0  0
   37.7290   26.8290   42.0040 C   0  0  0  0  0  0  0  0  0  0  0  0
   37.0870   27.6590   41.1240 N   0  0  0  0  0  0  0  0  0  0  0  0
   36.8230   28.9460   41.4310 C   0  0  0  0  0  0  0  0  0  0  0  0
   37.1890   29.4490   42.6220 N   0  0  0  0  0  0  0  0  0  0  0  0
   37.9070   25.5360   41.4980 N   0  0  0  0  0  0  0  0  0  0  0  0
   37.4120   24.4470   42.0640 C   0  0  0  0  0  0  0  0  0  0  0  0
   37.7860   23.3840   41.2980 N   0  0  0  0  0  0  0  0  0  0  0  0
   38.5130   23.8270   40.2610 C   0  0  0  0  0  0  0  0  0  0  0  0
   39.1530   23.2440   39.1740 C   0  0  0  0  0  0  0  0  0  0  0  0
   39.1000   21.9990   39.0310 O   0  0  0  0  0  0  0  0  0  0  0  0
   39.8170   24.0590   38.2990 N   0  0  0  0  0  0  0  0  0  0  0  0
   39.8810   25.3860   38.4390 C   0  0  0  0  0  0  0  0  0  0  0  0
   40.5760   26.2070   37.5180 N   0  0  0  0  0  0  0  0  0  0  0  0
   39.2600   25.9500   39.4940 N   0  0  0  0  0  0  0  0  0  0  0  0
   38.5980   25.2060   40.3770 C   0  0  0  0  0  0  0  0  0  0  0  0
   40.4640   23.4370   37.1940 C   0  0  0  0  0  0  0  0  0  0  0  0
   39.6540   23.2620   36.1000 C   0  0  0  0  0  0  0  0  0  0  0  0
   40.1370   22.6710   34.9460 C   0  0  0  0  0  0  0  0  0  0  0  0
   41.4640   22.2340   34.8530 C   0  0  0  0  0  0  0  0  0  0  0  0
   42.2510   22.4300   35.9810 C   0  0  0  0  0  0  0  0  0  0  0  0
   43.5670   22.0210   35.9550 C   0  0  0  0  0  0  0  0  0  0  0  0
   44.3570   22.2110   37.0700 C   0  0  0  0  0  0  0  0  0  0  0  0
   43.8510   22.8060   38.2180 C   0  0  0  0  0  0  0  0  0  0  0  0
   42.5300   23.2230   38.2650 C   0  0  0  0  0  0  0  0  0  0  0  0
   41.7660   23.0190   37.1320 C   0  0  0  0  0  0  0  0  0  0  0  0
   38.1186   29.1069   44.4971 H   0  0  0  0  0  0  0  0  0  0  0  0
   38.6237   26.7132   43.9650 H   0  0  0  0  0  0  0  0  0  0  0  0
   36.3053   29.5870   40.7023 H   0  0  0  0  0  0  0  0  0  0  0  0
   36.8096   24.4073   42.9835 H   0  0  0  0  0  0  0  0  0  0  0  0
   40.6047   27.2271   37.6572 H   0  0  0  0  0  0  0  0  0  0  0  0
   41.0528   25.7840   36.7089 H   0  0  0  0  0  0  0  0  0  0  0  0
   38.6068   23.5961   36.1412 H   0  0  0  0  0  0  0  0  0  0  0  0
   39.4652   22.5419   34.0846 H   0  0  0  0  0  0  0  0  0  0  0  0
   41.8599   21.7634   33.9410 H   0  0  0  0  0  0  0  0  0  0  0  0
   43.9835   21.5475   35.0537 H   0  0  0  0  0  0  0  0  0  0  0  0
   45.4074   21.8850   37.0491 H   0  0  0  0  0  0  0  0  0  0  0  0
   44.5013   22.9470   39.0939 H   0  0  0  0  0  0  0  0  0  0  0  0
   42.1085   23.6954   39.1645 H   0  0  0  0  0  0  0  0  0  0  0  0
  2  1  2  0
  3  2  1  0
  4  5  1  0
  4  3  2  0
  5  6  2  0
  6  1  1  0
  7  3  1  0
  7  8  1  0
  9  8  2  0
 10 17  2  0
 10  9  1  0
 11 10  1  0
 12 11  2  0
 13 14  1  0
 13 11  1  0
 14 16  2  0
 15 14  1  0
 16 17  1  0
 17  7  1  0
 18 13  1  0
 19 18  2  0
 20 19  1  0
 21 20  2  0
 21 22  1  0
 22 27  2  0
 23 22  1  0
 23 24  2  0
 24 25  1  0
 25 26  2  0
 27 18  1  0
 27 26  1  0
  1 28  1  0
  2 29  1  0
  5 30  1  0
  8 31  1  0
 15 32  1  0
 15 33  1  0
 19 34  1  0
 20 35  1  0
 21 36  1  0
 23 37  1  0
 24 38  1  0
 25 39  1  0
 26 40  1  0
M  ISO  8  28  14  29  14  30  14  31  14  34  14  35  14  36  14  37  14
M  ISO  3  38  14  39  14  40  14
M  END
>  <minimizedAffinity>  (1) 
-4.42691088

>  <minimizedRMSD>  (1) 
0.681993067

$$$$
