
     RDKit          3D

 31 34  0  0  0  0  0  0  0  0999 V2000
   37.7490   28.8160   43.5120 C   0  0  0  0  0  0  0  0  0  0  0  0
   37.9110   27.4400   43.3080 C   0  0  0  0  0  0  0  0  0  0  0  0
   37.6540   26.9490   42.0240 C   0  0  0  0  0  0  0  0  0  0  0  0
   37.2680   27.8260   41.0750 N   0  0  0  0  0  0  0  0  0  0  0  0
   37.1170   29.1410   41.2900 C   0  0  0  0  0  0  0  0  0  0  0  0
   37.3660   29.6160   42.5280 N   0  0  0  0  0  0  0  0  0  0  0  0
   37.7440   25.6180   41.5660 N   0  0  0  0  0  0  0  0  0  0  0  0
   37.0330   24.6180   42.0440 C   0  0  0  0  0  0  0  0  0  0  0  0
   37.3930   23.5010   41.3610 N   0  0  0  0  0  0  0  0  0  0  0  0
   38.3380   23.8250   40.4520 C   0  0  0  0  0  0  0  0  0  0  0  0
   39.0580   23.1400   39.5070 C   0  0  0  0  0  0  0  0  0  0  0  0
   38.8640   21.9000   39.3740 O   0  0  0  0  0  0  0  0  0  0  0  0
   39.9600   23.8340   38.7420 N   0  0  0  0  0  0  0  0  0  0  0  0
   40.1600   25.1410   38.8870 C   0  0  0  0  0  0  0  0  0  0  0  0
   41.0890   25.8490   38.0950 N   0  0  0  0  0  0  0  0  0  0  0  0
   39.4570   25.8230   39.8130 N   0  0  0  0  0  0  0  0  0  0  0  0
   38.5700   25.1850   40.5770 C   0  0  0  0  0  0  0  0  0  0  0  0
   40.6490   23.0260   37.7970 C   0  0  0  0  0  0  0  0  0  0  0  0
   40.7670   21.6650   37.7000 C   0  0  0  0  0  0  0  0  0  0  0  0
   41.5310   21.2700   36.6230 C   0  0  0  0  0  0  0  0  0  0  0  0
   41.8830   22.4380   36.0540 N   0  0  0  0  0  0  0  0  0  0  0  0
   41.3790   23.4210   36.7270 N   0  0  0  0  0  0  0  0  0  0  0  0
   37.9434   29.2405   44.5080 H   0  0  0  0  0  0  0  0  0  0  0  0
   38.2272   26.7732   44.1237 H   0  0  0  0  0  0  0  0  0  0  0  0
   36.7990   29.8136   40.4797 H   0  0  0  0  0  0  0  0  0  0  0  0
   36.2851   24.6767   42.8485 H   0  0  0  0  0  0  0  0  0  0  0  0
   41.2185   26.8613   38.2342 H   0  0  0  0  0  0  0  0  0  0  0  0
   41.6375   25.3534   37.3777 H   0  0  0  0  0  0  0  0  0  0  0  0
   40.3016   20.9619   38.4065 H   0  0  0  0  0  0  0  0  0  0  0  0
   41.7900   20.2491   36.3058 H   0  0  0  0  0  0  0  0  0  0  0  0
   42.4657   22.5345   35.2101 H   0  0  0  0  0  0  0  0  0  0  0  0
  2  1  2  0
  3  2  1  0
  4  5  1  0
  4  3  2  0
  5  6  2  0
  6  1  1  0
  7  3  1  0
  7  8  1  0
  9  8  2  0
 10 17  2  0
 10  9  1  0
 11 10  1  0
 12 11  2  0
 13 14  1  0
 13 11  1  0
 14 16  2  0
 15 14  1  0
 16 17  1  0
 17  7  1  0
 18 13  1  0
 19 18  1  0
 20 19  2  0
 21 20  1  0
 21 22  1  0
 22 18  2  0
  1 23  1  0
  2 24  1  0
  5 25  1  0
  8 26  1  0
 15 27  1  0
 15 28  1  0
 19 29  1  0
 20 30  1  0
 21 31  1  0
M  ISO  7  23  14  24  14  25  14  26  14  29  14  30  14  31   9
M  END
>  <minimizedAffinity>  (1) 
-4.4043808

>  <minimizedRMSD>  (1) 
0.116841555

$$$$
