
     RDKit          3D

 33 36  0  0  0  0  0  0  0  0999 V2000
   37.7780   28.7750   43.5130 C   0  0  0  0  0  0  0  0  0  0  0  0
   37.9660   27.3960   43.2990 C   0  0  0  0  0  0  0  0  0  0  0  0
   37.6860   26.9300   42.0040 C   0  0  0  0  0  0  0  0  0  0  0  0
   37.2630   27.8040   41.0620 N   0  0  0  0  0  0  0  0  0  0  0  0
   37.0970   29.1150   41.3160 C   0  0  0  0  0  0  0  0  0  0  0  0
   37.3610   29.5930   42.5580 N   0  0  0  0  0  0  0  0  0  0  0  0
   37.7880   25.6110   41.5250 N   0  0  0  0  0  0  0  0  0  0  0  0
   37.0960   24.5860   42.0140 C   0  0  0  0  0  0  0  0  0  0  0  0
   37.4550   23.4790   41.3110 N   0  0  0  0  0  0  0  0  0  0  0  0
   38.3760   23.8320   40.3840 C   0  0  0  0  0  0  0  0  0  0  0  0
   39.0990   23.1640   39.4000 C   0  0  0  0  0  0  0  0  0  0  0  0
   38.9170   21.9360   39.2650 O   0  0  0  0  0  0  0  0  0  0  0  0
   39.9550   23.8690   38.6450 N   0  0  0  0  0  0  0  0  0  0  0  0
   40.1430   25.1990   38.8000 C   0  0  0  0  0  0  0  0  0  0  0  0
   41.0630   25.9480   37.9890 N   0  0  0  0  0  0  0  0  0  0  0  0
   39.4450   25.8460   39.7500 N   0  0  0  0  0  0  0  0  0  0  0  0
   38.5920   25.1950   40.5180 C   0  0  0  0  0  0  0  0  0  0  0  0
   40.7510   23.3100   37.6090 C   0  0  0  0  0  0  0  0  0  0  0  0
   41.9080   22.5950   37.7570 C   0  0  0  0  0  0  0  0  0  0  0  0
   42.6600   22.0630   36.7340 C   0  0  0  0  0  0  0  0  0  0  0  0
   42.2460   22.2400   35.4320 C   0  0  0  0  0  0  0  0  0  0  0  0
   41.0830   22.9580   35.2780 C   0  0  0  0  0  0  0  0  0  0  0  0
   40.4180   23.4370   36.3190 N   0  0  0  0  0  0  0  0  0  0  0  0
   37.9852   29.1887   44.5109 H   0  0  0  0  0  0  0  0  0  0  0  0
   38.3115   26.7239   44.0983 H   0  0  0  0  0  0  0  0  0  0  0  0
   36.7500   29.7937   40.5230 H   0  0  0  0  0  0  0  0  0  0  0  0
   36.3668   24.6264   42.8365 H   0  0  0  0  0  0  0  0  0  0  0  0
   41.1762   26.9606   38.1400 H   0  0  0  0  0  0  0  0  0  0  0  0
   41.6092   25.4723   37.2567 H   0  0  0  0  0  0  0  0  0  0  0  0
   42.2689   22.4309   38.7831 H   0  0  0  0  0  0  0  0  0  0  0  0
   43.5809   21.5030   36.9536 H   0  0  0  0  0  0  0  0  0  0  0  0
   42.8060   21.8356   34.5759 H   0  0  0  0  0  0  0  0  0  0  0  0
   40.6951   23.1391   34.2647 H   0  0  0  0  0  0  0  0  0  0  0  0
  2  1  2  0
  3  2  1  0
  4  5  1  0
  4  3  2  0
  5  6  2  0
  6  1  1  0
  7  3  1  0
  7  8  1  0
  9  8  2  0
 10 17  2  0
 10  9  1  0
 11 10  1  0
 12 11  2  0
 13 14  1  0
 13 11  1  0
 14 16  2  0
 15 14  1  0
 16 17  1  0
 17  7  1  0
 18 19  2  0
 18 13  1  0
 20 19  1  0
 21 20  2  0
 22 21  1  0
 22 23  2  0
 23 18  1  0
  1 24  1  0
  2 25  1  0
  5 26  1  0
  8 27  1  0
 15 28  1  0
 15 29  1  0
 19 30  1  0
 20 31  1  0
 21 32  1  0
 22 33  1  0
M  ISO  8  24  14  25  14  26  14  27  14  30  14  31  14  32  14  33  14
M  END
>  <minimizedAffinity>  (1) 
-4.23782778

>  <minimizedRMSD>  (1) 
0.111664824

$$$$
