
     RDKit          3D

 32 35  0  0  0  0  0  0  0  0999 V2000
   37.7630   28.7670   43.5270 C   0  0  0  0  0  0  0  0  0  0  0  0
   37.9480   27.4040   43.2850 C   0  0  0  0  0  0  0  0  0  0  0  0
   37.6870   26.9200   42.0100 C   0  0  0  0  0  0  0  0  0  0  0  0
   37.2690   27.7980   41.0760 N   0  0  0  0  0  0  0  0  0  0  0  0
   37.0900   29.1140   41.3070 C   0  0  0  0  0  0  0  0  0  0  0  0
   37.3450   29.5800   42.5510 N   0  0  0  0  0  0  0  0  0  0  0  0
   37.7950   25.6100   41.5250 N   0  0  0  0  0  0  0  0  0  0  0  0
   37.0960   24.5860   42.0130 C   0  0  0  0  0  0  0  0  0  0  0  0
   37.4540   23.4760   41.3070 N   0  0  0  0  0  0  0  0  0  0  0  0
   38.3810   23.8350   40.3810 C   0  0  0  0  0  0  0  0  0  0  0  0
   39.0970   23.1680   39.4000 C   0  0  0  0  0  0  0  0  0  0  0  0
   38.9160   21.9380   39.2580 O   0  0  0  0  0  0  0  0  0  0  0  0
   39.9580   23.8680   38.6450 N   0  0  0  0  0  0  0  0  0  0  0  0
   40.1510   25.1940   38.8010 C   0  0  0  0  0  0  0  0  0  0  0  0
   41.0680   25.9500   37.9940 N   0  0  0  0  0  0  0  0  0  0  0  0
   39.4540   25.8430   39.7540 N   0  0  0  0  0  0  0  0  0  0  0  0
   38.5970   25.1930   40.5210 C   0  0  0  0  0  0  0  0  0  0  0  0
   40.7530   23.3130   37.6100 C   0  0  0  0  0  0  0  0  0  0  0  0
   41.9100   22.5970   37.7470 C   0  0  0  0  0  0  0  0  0  0  0  0
   42.6670   22.0660   36.7300 C   0  0  0  0  0  0  0  0  0  0  0  0
   42.2500   22.2580   35.4520 N   0  0  0  0  0  0  0  0  0  0  0  0
   41.1170   22.9570   35.2750 C   0  0  0  0  0  0  0  0  0  0  0  0
   40.4320   23.4430   36.3180 N   0  0  0  0  0  0  0  0  0  0  0  0
   37.9628   29.1751   44.5287 H   0  0  0  0  0  0  0  0  0  0  0  0
   38.2918   26.7309   44.0842 H   0  0  0  0  0  0  0  0  0  0  0  0
   36.7471   29.7882   40.5084 H   0  0  0  0  0  0  0  0  0  0  0  0
   36.3650   24.6284   42.8339 H   0  0  0  0  0  0  0  0  0  0  0  0
   41.1800   26.9616   38.1522 H   0  0  0  0  0  0  0  0  0  0  0  0
   41.6135   25.4804   37.2572 H   0  0  0  0  0  0  0  0  0  0  0  0
   42.2706   22.4294   38.7726 H   0  0  0  0  0  0  0  0  0  0  0  0
   43.5858   21.5008   36.9455 H   0  0  0  0  0  0  0  0  0  0  0  0
   40.7450   23.1335   34.2550 H   0  0  0  0  0  0  0  0  0  0  0  0
  2  1  2  0
  3  2  1  0
  4  5  1  0
  4  3  2  0
  5  6  2  0
  6  1  1  0
  7  3  1  0
  7  8  1  0
  9  8  2  0
 10 17  2  0
 10  9  1  0
 11 10  1  0
 12 11  2  0
 13 14  1  0
 13 11  1  0
 14 16  2  0
 15 14  1  0
 16 17  1  0
 17  7  1  0
 18 19  2  0
 18 13  1  0
 20 19  1  0
 21 20  2  0
 22 21  1  0
 22 23  2  0
 23 18  1  0
  1 24  1  0
  2 25  1  0
  5 26  1  0
  8 27  1  0
 15 28  1  0
 15 29  1  0
 19 30  1  0
 20 31  1  0
 22 32  1  0
M  ISO  7  24  14  25  14  26  14  27  14  30  14  31  14  32  14
M  END
>  <minimizedAffinity>  (1) 
-4.22136164

>  <minimizedRMSD>  (1) 
0.654335976

$$$$
