
     RDKit          3D

 30 32  0  0  0  0  0  0  0  0999 V2000
   37.8000   28.7430   43.4970 C   0  0  0  0  0  0  0  0  0  0  0  0
   38.0290   27.3740   43.2550 C   0  0  0  0  0  0  0  0  0  0  0  0
   37.7260   26.8890   41.9990 C   0  0  0  0  0  0  0  0  0  0  0  0
   37.2250   27.7530   41.0660 N   0  0  0  0  0  0  0  0  0  0  0  0
   37.0170   29.0580   41.3290 C   0  0  0  0  0  0  0  0  0  0  0  0
   37.3070   29.5390   42.5430 N   0  0  0  0  0  0  0  0  0  0  0  0
   37.8570   25.5810   41.4970 N   0  0  0  0  0  0  0  0  0  0  0  0
   37.2240   24.5300   42.0190 C   0  0  0  0  0  0  0  0  0  0  0  0
   37.5770   23.4380   41.2920 N   0  0  0  0  0  0  0  0  0  0  0  0
   38.4310   23.8220   40.3180 C   0  0  0  0  0  0  0  0  0  0  0  0
   39.1140   23.1910   39.2960 C   0  0  0  0  0  0  0  0  0  0  0  0
   38.9720   21.9500   39.1500 O   0  0  0  0  0  0  0  0  0  0  0  0
   39.9150   23.9450   38.4860 N   0  0  0  0  0  0  0  0  0  0  0  0
   40.0670   25.2640   38.6360 C   0  0  0  0  0  0  0  0  0  0  0  0
   40.9050   26.0220   37.7850 N   0  0  0  0  0  0  0  0  0  0  0  0
   39.4030   25.8790   39.6320 N   0  0  0  0  0  0  0  0  0  0  0  0
   38.6110   25.1940   40.4480 C   0  0  0  0  0  0  0  0  0  0  0  0
   40.6390   23.2970   37.4060 C   0  0  0  0  0  0  0  0  0  0  0  0
   41.9720   22.7510   37.8260 C   0  0  0  0  0  0  0  0  0  0  0  0
   38.0306   29.1635   44.4869 H   0  0  0  0  0  0  0  0  0  0  0  0
   38.4342   26.7162   44.0380 H   0  0  0  0  0  0  0  0  0  0  0  0
   36.6120   29.7225   40.5516 H   0  0  0  0  0  0  0  0  0  0  0  0
   36.5407   24.5445   42.8809 H   0  0  0  0  0  0  0  0  0  0  0  0
   41.0004   27.0376   37.9275 H   0  0  0  0  0  0  0  0  0  0  0  0
   41.4198   25.5583   37.0228 H   0  0  0  0  0  0  0  0  0  0  0  0
   40.8003   24.0323   36.6039 H   0  0  0  0  0  0  0  0  0  0  0  0
   40.0294   22.4445   37.0719 H   0  0  0  0  0  0  0  0  0  0  0  0
   42.0291   22.7276   38.9243 H   0  0  0  0  0  0  0  0  0  0  0  0
   42.0916   21.7314   37.4308 H   0  0  0  0  0  0  0  0  0  0  0  0
   42.7725   23.3937   37.4308 H   0  0  0  0  0  0  0  0  0  0  0  0
  2  1  2  0
  3  2  1  0
  4  5  1  0
  4  3  2  0
  5  6  2  0
  6  1  1  0
  7  3  1  0
  7  8  1  0
  9  8  2  0
 10 17  2  0
 10  9  1  0
 11 10  1  0
 12 11  2  0
 13 14  1  0
 13 11  1  0
 14 16  2  0
 15 14  1  0
 16 17  1  0
 17  7  1  0
 18 19  1  0
 18 13  1  0
  1 20  1  0
  2 21  1  0
  5 22  1  0
  8 23  1  0
 15 24  1  0
 15 25  1  0
 18 26  1  0
 18 27  1  0
 19 28  1  0
 19 29  1  0
 19 30  1  0
M  ISO  8  20  14  21  14  22  14  23  14  26   8  27   8  28   8  29   8
M  ISO  1  30   8
M  END
>  <minimizedAffinity>  (1) 
-3.95328808

>  <minimizedRMSD>  (1) 
0.235766098

$$$$
