
     RDKit          3D

 29 31  0  0  0  0  0  0  0  0999 V2000
   37.7300   28.7280   43.4670 C   0  0  0  0  0  0  0  0  0  0  0  0
   38.0040   27.4200   43.1090 C   0  0  0  0  0  0  0  0  0  0  0  0
   37.9060   27.0500   41.7830 C   0  0  0  0  0  0  0  0  0  0  0  0
   37.5390   28.0030   40.8770 N   0  0  0  0  0  0  0  0  0  0  0  0
   37.2760   29.2770   41.2430 C   0  0  0  0  0  0  0  0  0  0  0  0
   37.3730   29.6230   42.5260 N   0  0  0  0  0  0  0  0  0  0  0  0
   38.1340   25.7920   41.1870 N   0  0  0  0  0  0  0  0  0  0  0  0
   37.4570   24.7010   41.4870 C   0  0  0  0  0  0  0  0  0  0  0  0
   37.9400   23.6960   40.7290 N   0  0  0  0  0  0  0  0  0  0  0  0
   38.9350   24.1780   39.9440 C   0  0  0  0  0  0  0  0  0  0  0  0
   39.7820   23.6400   38.9870 C   0  0  0  0  0  0  0  0  0  0  0  0
   39.6800   22.4260   38.7130 O   0  0  0  0  0  0  0  0  0  0  0  0
   40.6820   24.4810   38.4020 N   0  0  0  0  0  0  0  0  0  0  0  0
   40.7810   25.7740   38.7030 C   0  0  0  0  0  0  0  0  0  0  0  0
   41.7290   26.6180   38.0720 N   0  0  0  0  0  0  0  0  0  0  0  0
   39.9560   26.3000   39.6360 N   0  0  0  0  0  0  0  0  0  0  0  0
   39.0610   25.5370   40.2410 C   0  0  0  0  0  0  0  0  0  0  0  0
   36.3900   24.5590   42.4440 N   0  0  0  0  0  0  0  0  0  0  0  0
   41.5440   23.8580   37.4040 C   0  0  0  0  0  0  0  0  0  0  0  0
   41.4200   22.5080   37.3720 F   0  0  0  0  0  0  0  0  0  0  0  0
   42.8600   24.1280   37.7770 F   0  0  0  0  0  0  0  0  0  0  0  0
   41.3190   24.4130   36.1300 F   0  0  0  0  0  0  0  0  0  0  0  0
   37.8037   29.0370   44.5201 H   0  0  0  0  0  0  0  0  0  0  0  0
   38.2965   26.6837   43.8721 H   0  0  0  0  0  0  0  0  0  0  0  0
   36.9843   30.0220   40.4881 H   0  0  0  0  0  0  0  0  0  0  0  0
   41.7812   27.6147   38.3266 H   0  0  0  0  0  0  0  0  0  0  0  0
   42.3657   26.2346   37.3589 H   0  0  0  0  0  0  0  0  0  0  0  0
   35.9416   23.6422   42.5831 H   0  0  0  0  0  0  0  0  0  0  0  0
   36.0754   25.3742   42.9893 H   0  0  0  0  0  0  0  0  0  0  0  0
  2  1  2  0
  3  2  1  0
  4  5  1  0
  4  3  2  0
  5  6  2  0
  6  1  1  0
  7  8  1  0
  7  3  1  0
  8 18  1  0
  9  8  2  0
 10 17  2  0
 10  9  1  0
 11 10  1  0
 12 11  2  0
 13 14  1  0
 13 11  1  0
 14 16  2  0
 15 14  1  0
 16 17  1  0
 17  7  1  0
 19 21  1  0
 19 13  1  0
 20 19  1  0
 22 19  1  0
  1 23  1  0
  2 24  1  0
  5 25  1  0
 15 26  1  0
 15 27  1  0
 18 28  1  0
 18 29  1  0
M  ISO  3  23  14  24  14  25  14
M  END
>  <minimizedAffinity>  (1) 
-4.02155399

>  <minimizedRMSD>  (1) 
0.858692408

$$$$
