
     RDKit          3D

 41 45  0  0  1  0  0  0  0  0999 V2000
   42.9520   31.3030   37.4870 C   0  0  0  0  0  0  0  0  0  0  0  0
   42.2170   31.4520   38.6680 C   0  0  0  0  0  0  0  0  0  0  0  0
   41.1270   30.6290   38.8560 C   0  0  0  0  0  0  0  0  0  0  0  0
   40.8420   29.7220   37.8710 N   0  0  0  0  0  0  0  0  0  0  0  0
   41.5690   29.6060   36.7510 C   0  0  0  0  0  0  0  0  0  0  0  0
   42.6180   30.3950   36.5650 N   0  0  0  0  0  0  0  0  0  0  0  0
   40.2340   30.5690   39.9350 N   0  0  0  0  0  0  0  0  0  0  0  0
   39.4850   31.5740   40.3100 C   0  0  0  0  0  0  0  0  0  0  0  0
   38.7450   31.1680   41.3780 N   0  0  0  0  0  0  0  0  0  0  0  0
   39.0540   29.8800   41.6580 C   0  0  0  0  0  0  0  0  0  0  0  0
   38.6540   28.9450   42.5920 C   0  0  0  0  0  0  0  0  0  0  0  0
   37.7890   29.2760   43.4440 O   0  0  0  0  0  0  0  0  0  0  0  0
   39.2230   27.7100   42.5400 N   0  0  0  0  0  0  0  0  0  0  0  0
   40.1440   27.3660   41.6310 C   0  0  0  0  0  0  0  0  0  0  0  0
   40.7040   26.0660   41.6120 N   0  0  0  0  0  0  0  0  0  0  0  0
   40.5430   28.2620   40.7190 N   0  0  0  0  0  0  0  0  0  0  0  0
   40.0160   29.4950   40.7230 C   0  0  0  0  0  0  0  0  0  0  0  0
   39.3510   32.9920   39.8060 C   0  0  1  0  0  0  0  0  0  0  0  0
   37.8940   33.4880   39.7510 C   0  0  0  0  0  0  0  0  0  0  0  0
   38.9080   34.0400   40.7120 C   0  0  2  0  0  0  0  0  0  0  0  0
   39.4640   35.3590   40.5370 N   0  0  0  0  0  0  0  0  0  0  0  0
   38.8860   36.3940   39.9230 C   0  0  0  0  0  0  0  0  0  0  0  0
   39.7750   37.4560   39.9910 C   0  0  0  0  0  0  0  0  0  0  0  0
   40.8850   37.0590   40.6440 N   0  0  0  0  0  0  0  0  0  0  0  0
   40.6880   35.7770   40.9740 C   0  0  0  0  0  0  0  0  0  0  0  0
   38.7490   26.7830   43.5550 C   0  0  0  0  0  0  0  0  0  0  0  0
   37.8610   27.3370   44.4250 F   0  0  0  0  0  0  0  0  0  0  0  0
   39.8780   26.4440   44.3350 F   0  0  0  0  0  0  0  0  0  0  0  0
   38.2520   25.6130   42.9790 F   0  0  0  0  0  0  0  0  0  0  0  0
   43.8256   31.9485   37.3132 H   0  0  0  0  0  0  0  0  0  0  0  0
   42.4996   32.2014   39.4220 H   0  0  0  0  0  0  0  0  0  0  0  0
   41.2966   28.8599   35.9900 H   0  0  0  0  0  0  0  0  0  0  0  0
   41.4114   25.8203   40.9048 H   0  0  0  0  0  0  0  0  0  0  0  0
   40.4041   25.3659   42.3054 H   0  0  0  0  0  0  0  0  0  0  0  0
   40.2110   32.9150   39.1245 H   0  0  0  0  0  0  0  0  0  0  0  0
   37.5424   34.0932   38.9024 H   0  0  0  0  0  0  0  0  0  0  0  0
   36.8960   33.0313   39.8246 H   0  0  0  0  0  0  0  0  0  0  0  0
   38.8961   34.1767   41.8034 H   0  0  0  0  0  0  0  0  0  0  0  0
   37.8920   36.4027   39.4520 H   0  0  0  0  0  0  0  0  0  0  0  0
   39.6020   38.4609   39.5783 H   0  0  0  0  0  0  0  0  0  0  0  0
   41.4089   35.1500   41.5192 H   0  0  0  0  0  0  0  0  0  0  0  0
  1  2  2  0
  2  3  1  0
  3  7  1  0
  4  3  2  0
  5  4  1  0
  6  5  2  0
  6  1  1  0
  7  8  1  0
  7 17  1  0
  8  9  2  0
  9 10  1  0
 10 11  1  0
 11 12  2  0
 13 11  1  0
 13 26  1  0
 14 13  1  0
 15 14  1  0
 16 17  1  0
 16 14  2  0
 17 10  2  0
 18  8  1  0
 18 20  1  0
 19 18  1  0
 19 20  1  0
 21 20  1  0
 21 25  1  0
 22 23  2  0
 22 21  1  0
 23 24  1  0
 24 25  2  0
 26 28  1  0
 26 27  1  0
 29 26  1  0
  1 30  1  0
  2 31  1  0
  5 32  1  0
 15 33  1  0
 15 34  1  0
 18 35  1  6
 19 36  1  0
 19 37  1  0
 20 38  1  1
 22 39  1  0
 23 40  1  0
 25 41  1  0
M  ISO  8  30  14  31  14  32  14  35  13  36  13  37  13  38  13  39  14
M  ISO  2  40  14  41  14
M  END
>  <minimizedAffinity>  (1) 
-6.46534395

>  <minimizedRMSD>  (1) 
1.54673016

$$$$
