
     RDKit          3D

 41 45  0  0  1  0  0  0  0  0999 V2000
   42.8850   31.1720   36.7850 C   0  0  0  0  0  0  0  0  0  0  0  0
   42.1750   31.2730   37.9920 C   0  0  0  0  0  0  0  0  0  0  0  0
   41.4530   30.1660   38.3870 C   0  0  0  0  0  0  0  0  0  0  0  0
   41.4830   29.0590   37.5800 N   0  0  0  0  0  0  0  0  0  0  0  0
   42.1720   29.0010   36.4360 C   0  0  0  0  0  0  0  0  0  0  0  0
   42.8710   30.0640   36.0470 N   0  0  0  0  0  0  0  0  0  0  0  0
   40.6640   29.9930   39.5370 N   0  0  0  0  0  0  0  0  0  0  0  0
   39.6160   30.7230   39.8150 C   0  0  0  0  0  0  0  0  0  0  0  0
   39.1040   30.2790   40.9810 N   0  0  0  0  0  0  0  0  0  0  0  0
   39.8460   29.2520   41.4420 C   0  0  0  0  0  0  0  0  0  0  0  0
   39.8170   28.4220   42.5420 C   0  0  0  0  0  0  0  0  0  0  0  0
   38.9110   28.5760   43.3970 O   0  0  0  0  0  0  0  0  0  0  0  0
   40.7870   27.4670   42.6450 N   0  0  0  0  0  0  0  0  0  0  0  0
   41.7600   27.3090   41.7160 C   0  0  0  0  0  0  0  0  0  0  0  0
   42.7460   26.3090   41.8570 N   0  0  0  0  0  0  0  0  0  0  0  0
   41.7910   28.1110   40.6490 N   0  0  0  0  0  0  0  0  0  0  0  0
   40.8670   29.0640   40.4970 C   0  0  0  0  0  0  0  0  0  0  0  0
   38.9780   31.8830   39.1120 C   0  0  1  0  0  0  0  0  0  0  0  0
   38.3930   31.5440   37.7290 C   0  0  0  0  0  0  0  0  0  0  0  0
   37.5420   31.9360   38.8840 C   0  0  1  0  0  0  0  0  0  0  0  0
   36.5630   30.9730   39.4410 C   0  0  0  0  0  0  0  0  0  0  0  0
   35.9220   29.8390   38.9300 C   0  0  0  0  0  0  0  0  0  0  0  0
   35.0980   29.2670   39.8470 C   0  0  0  0  0  0  0  0  0  0  0  0
   35.2360   30.0520   40.9210 N   0  0  0  0  0  0  0  0  0  0  0  0
   36.0740   31.0410   40.7140 N   0  0  0  0  0  0  0  0  0  0  0  0
   40.6980   26.6300   43.8250 C   0  0  0  0  0  0  0  0  0  0  0  0
   39.4670   26.6410   44.4020 F   0  0  0  0  0  0  0  0  0  0  0  0
   41.5960   27.1740   44.7640 F   0  0  0  0  0  0  0  0  0  0  0  0
   41.1230   25.3320   43.5530 F   0  0  0  0  0  0  0  0  0  0  0  0
   43.4714   32.0356   36.4381 H   0  0  0  0  0  0  0  0  0  0  0  0
   42.1936   32.1928   38.5951 H   0  0  0  0  0  0  0  0  0  0  0  0
   42.1612   28.0867   35.8245 H   0  0  0  0  0  0  0  0  0  0  0  0
   43.4785   26.2033   41.1406 H   0  0  0  0  0  0  0  0  0  0  0  0
   42.7331   25.6849   42.6763 H   0  0  0  0  0  0  0  0  0  0  0  0
   39.6847   32.6020   39.5520 H   0  0  0  0  0  0  0  0  0  0  0  0
   38.3925   30.5065   37.3636 H   0  0  0  0  0  0  0  0  0  0  0  0
   38.5410   31.8969   36.6977 H   0  0  0  0  0  0  0  0  0  0  0  0
   36.7989   32.7215   39.0858 H   0  0  0  0  0  0  0  0  0  0  0  0
   36.0675   29.4565   37.9090 H   0  0  0  0  0  0  0  0  0  0  0  0
   34.4682   28.3724   39.7331 H   0  0  0  0  0  0  0  0  0  0  0  0
   34.7404   29.8979   41.8107 H   0  0  0  0  0  0  0  0  0  0  0  0
  1  2  2  0
  2  3  1  0
  3  7  1  0
  4  3  2  0
  5  4  1  0
  6  5  2  0
  6  1  1  0
  7  8  1  0
  7 17  1  0
  8  9  2  0
  9 10  1  0
 10 11  1  0
 11 13  1  0
 11 12  2  0
 13 26  1  0
 14 15  1  0
 14 13  1  0
 16 14  2  0
 17 16  1  0
 17 10  2  0
 18  8  1  0
 19 20  1  0
 19 18  1  0
 20 18  1  0
 20 21  1  0
 21 25  2  0
 22 21  1  0
 22 23  2  0
 23 24  1  0
 25 24  1  0
 26 27  1  0
 26 28  1  0
 29 26  1  0
  1 30  1  0
  2 31  1  0
  5 32  1  0
 15 33  1  0
 15 34  1  0
 18 35  1  6
 19 36  1  0
 19 37  1  0
 20 38  1  6
 22 39  1  0
 23 40  1  0
 24 41  1  0
M  ISO  8  30  14  31  14  32  14  35  13  36  13  37  13  38  13  39  14
M  ISO  2  40  14  41   9
M  END
>  <minimizedAffinity>  (1) 
-6.27248478

>  <minimizedRMSD>  (1) 
1.49865913

$$$$
