
     RDKit          3D

 43 47  0  0  1  0  0  0  0  0999 V2000
   42.5830   31.5700   37.0760 C   0  0  0  0  0  0  0  0  0  0  0  0
   41.8200   31.5820   38.2480 C   0  0  0  0  0  0  0  0  0  0  0  0
   41.1540   30.4310   38.5920 C   0  0  0  0  0  0  0  0  0  0  0  0
   41.2850   29.3520   37.7590 N   0  0  0  0  0  0  0  0  0  0  0  0
   42.0240   29.3690   36.6430 C   0  0  0  0  0  0  0  0  0  0  0  0
   42.6680   30.4750   36.3060 N   0  0  0  0  0  0  0  0  0  0  0  0
   40.3260   30.1700   39.7060 N   0  0  0  0  0  0  0  0  0  0  0  0
   39.2230   30.8330   39.9430 C   0  0  0  0  0  0  0  0  0  0  0  0
   38.6860   30.3160   41.0790 N   0  0  0  0  0  0  0  0  0  0  0  0
   39.4730   29.3240   41.5380 C   0  0  0  0  0  0  0  0  0  0  0  0
   39.4450   28.4560   42.6080 C   0  0  0  0  0  0  0  0  0  0  0  0
   38.4850   28.5290   43.4270 O   0  0  0  0  0  0  0  0  0  0  0  0
   40.4620   27.5570   42.7290 N   0  0  0  0  0  0  0  0  0  0  0  0
   41.4810   27.4900   41.8460 C   0  0  0  0  0  0  0  0  0  0  0  0
   42.5210   26.5420   42.0000 N   0  0  0  0  0  0  0  0  0  0  0  0
   41.5150   28.3310   40.8030 N   0  0  0  0  0  0  0  0  0  0  0  0
   40.5410   29.2280   40.6440 C   0  0  0  0  0  0  0  0  0  0  0  0
   38.5340   31.9620   39.2580 C   0  0  1  0  0  0  0  0  0  0  0  0
   38.3970   31.8130   37.7350 C   0  0  0  0  0  0  0  0  0  0  0  0
   37.2150   31.8270   38.6790 C   0  0  1  0  0  0  0  0  0  0  0  0
   36.4110   30.5940   38.5570 C   0  0  0  0  0  0  0  0  0  0  0  0
   35.6670   30.2930   39.7060 C   0  0  0  0  0  0  0  0  0  0  0  0
   34.8290   29.1750   39.7930 C   0  0  0  0  0  0  0  0  0  0  0  0
   34.7340   28.3370   38.7020 C   0  0  0  0  0  0  0  0  0  0  0  0
   35.4730   28.6550   37.5900 C   0  0  0  0  0  0  0  0  0  0  0  0
   36.2570   29.7280   37.5490 N   0  0  0  0  0  0  0  0  0  0  0  0
   40.3710   26.6730   43.8720 C   0  0  0  0  0  0  0  0  0  0  0  0
   39.1690   26.7400   44.5120 F   0  0  0  0  0  0  0  0  0  0  0  0
   41.3520   27.0900   44.7800 F   0  0  0  0  0  0  0  0  0  0  0  0
   40.6680   25.3490   43.5100 F   0  0  0  0  0  0  0  0  0  0  0  0
   43.1259   32.4794   36.7788 H   0  0  0  0  0  0  0  0  0  0  0  0
   41.7553   32.4841   38.8741 H   0  0  0  0  0  0  0  0  0  0  0  0
   42.0954   28.4713   36.0113 H   0  0  0  0  0  0  0  0  0  0  0  0
   43.2903   26.5058   41.3161 H   0  0  0  0  0  0  0  0  0  0  0  0
   42.5084   25.8884   42.7960 H   0  0  0  0  0  0  0  0  0  0  0  0
   38.9469   32.6893   39.9725 H   0  0  0  0  0  0  0  0  0  0  0  0
   38.7019   30.8820   37.2347 H   0  0  0  0  0  0  0  0  0  0  0  0
   38.7145   32.3793   36.8470 H   0  0  0  0  0  0  0  0  0  0  0  0
   36.3163   32.4143   38.9187 H   0  0  0  0  0  0  0  0  0  0  0  0
   35.7447   30.9628   40.5751 H   0  0  0  0  0  0  0  0  0  0  0  0
   34.2590   28.9696   40.7111 H   0  0  0  0  0  0  0  0  0  0  0  0
   34.0893   27.4460   38.7222 H   0  0  0  0  0  0  0  0  0  0  0  0
   35.4149   28.0026   36.7063 H   0  0  0  0  0  0  0  0  0  0  0  0
  1  2  2  0
  2  3  1  0
  3  7  1  0
  4  3  2  0
  5  4  1  0
  6  5  2  0
  6  1  1  0
  7  8  1  0
  7 17  1  0
  8  9  2  0
  9 10  1  0
 10 11  1  0
 11 13  1  0
 11 12  2  0
 13 27  1  0
 14 15  1  0
 14 13  1  0
 16 14  2  0
 17 16  1  0
 17 10  2  0
 18  8  1  0
 19 20  1  0
 19 18  1  0
 20 18  1  0
 21 20  1  0
 21 22  2  0
 22 23  1  0
 24 23  2  0
 25 24  1  0
 26 25  2  0
 26 21  1  0
 27 28  1  0
 27 29  1  0
 30 27  1  0
  1 31  1  0
  2 32  1  0
  5 33  1  0
 15 34  1  0
 15 35  1  0
 18 36  1  6
 19 37  1  0
 19 38  1  0
 20 39  1  6
 22 40  1  0
 23 41  1  0
 24 42  1  0
 25 43  1  0
M  ISO  8  31  14  32  14  33  14  36  13  37  13  38  13  39  13  40  14
M  ISO  3  41  14  42  14  43  14
M  END
>  <minimizedAffinity>  (1) 
-6.19573784

>  <minimizedRMSD>  (1) 
1.88446546

$$$$
