
     RDKit          3D

 16 17  0  0  0  0  0  0  0  0999 V2000
   38.7410   28.2120   43.3140 C   0  0  0  0  0  0  0  0  0  0  0  0
   37.6230   27.3520   43.2620 C   0  0  0  0  0  0  0  0  0  0  0  0
   36.5360   27.7360   42.4620 C   0  0  0  0  0  0  0  0  0  0  0  0
   36.6270   28.9120   41.7860 N   0  0  0  0  0  0  0  0  0  0  0  0
   37.7130   29.7060   41.8620 C   0  0  0  0  0  0  0  0  0  0  0  0
   38.7650   29.3680   42.6160 N   0  0  0  0  0  0  0  0  0  0  0  0
   37.7750   30.9810   41.1110 C   0  0  0  0  0  0  0  0  0  0  0  0
   36.7730   31.4400   40.2480 C   0  0  0  0  0  0  0  0  0  0  0  0
   37.4870   33.0410   39.6730 S   0  0  0  0  0  0  0  0  0  0  0  0
   39.0360   32.7790   40.7330 C   0  0  0  0  0  0  0  0  0  0  0  0
   38.8540   31.7300   41.2740 N   0  0  0  0  0  0  0  0  0  0  0  0
   39.6072   27.9361   43.9333 H   0  0  0  0  0  0  0  0  0  0  0  0
   37.6044   26.4105   43.8306 H   0  0  0  0  0  0  0  0  0  0  0  0
   35.6382   27.1052   42.3843 H   0  0  0  0  0  0  0  0  0  0  0  0
   35.8141   30.9706   39.9830 H   0  0  0  0  0  0  0  0  0  0  0  0
   39.9071   33.4439   40.8285 H   0  0  0  0  0  0  0  0  0  0  0  0
  2  1  2  0
  3  2  1  0
  4  5  1  0
  4  3  2  0
  5  6  2  0
  6  1  1  0
  7 11  1  0
  7  5  1  0
  8  7  2  0
  9  8  1  0
  9 10  1  0
 10 11  2  0
  1 12  1  0
  2 13  1  0
  3 14  1  0
  8 15  1  0
 10 16  1  0
M  ISO  5  12  14  13  14  14  14  15  14  16  14
M  END
>  <minimizedAffinity>  (1) 
-3.43804717

>  <minimizedRMSD>  (1) 
1.84147084

$$$$
