
     RDKit          3D

 26 27  0  0  0  0  0  0  0  0999 V2000
   37.2710   30.3800   41.2770 C   0  0  0  0  0  0  0  0  0  0  0  0
   36.2380   29.7250   40.6160 C   0  0  0  0  0  0  0  0  0  0  0  0
   36.0540   28.5810   41.3560 C   0  0  0  0  0  0  0  0  0  0  0  0
   36.9170   28.5320   42.4050 N   0  0  0  0  0  0  0  0  0  0  0  0
   37.6510   29.6340   42.3430 N   0  0  0  0  0  0  0  0  0  0  0  0
   39.0880   32.1110   41.2030 C   0  0  0  0  0  0  0  0  0  0  0  0
   37.8190   31.6530   40.8550 C   0  0  0  0  0  0  0  0  0  0  0  0
   37.0300   32.4860   40.0470 C   0  0  0  0  0  0  0  0  0  0  0  0
   37.5250   33.6910   39.6370 N   0  0  0  0  0  0  0  0  0  0  0  0
   38.7830   34.0840   40.0130 C   0  0  0  0  0  0  0  0  0  0  0  0
   39.5670   33.2890   40.8000 N   0  0  0  0  0  0  0  0  0  0  0  0
   37.1160   27.5600   43.4470 C   0  0  0  0  0  0  0  0  0  0  0  0
   38.5970   27.2290   43.6170 C   0  0  0  0  0  0  0  0  0  0  0  0
   36.6110   28.0230   44.7810 C   0  0  0  0  0  0  0  0  0  0  0  0
   35.6961   30.0461   39.7142 H   0  0  0  0  0  0  0  0  0  0  0  0
   35.3063   27.8068   41.1289 H   0  0  0  0  0  0  0  0  0  0  0  0
   39.7220   31.4740   41.8372 H   0  0  0  0  0  0  0  0  0  0  0  0
   36.0201   32.1707   39.7460 H   0  0  0  0  0  0  0  0  0  0  0  0
   39.1683   35.0572   39.6749 H   0  0  0  0  0  0  0  0  0  0  0  0
   36.5456   26.6752   43.1281 H   0  0  0  0  0  0  0  0  0  0  0  0
   38.8399   27.1747   44.6885 H   0  0  0  0  0  0  0  0  0  0  0  0
   38.8131   26.2604   43.1425 H   0  0  0  0  0  0  0  0  0  0  0  0
   39.2049   28.0134   43.1425 H   0  0  0  0  0  0  0  0  0  0  0  0
   37.1675   27.5128   45.5810 H   0  0  0  0  0  0  0  0  0  0  0  0
   36.7545   29.1099   44.8703 H   0  0  0  0  0  0  0  0  0  0  0  0
   35.5406   27.7859   44.8703 H   0  0  0  0  0  0  0  0  0  0  0  0
  1  5  2  0
  2  1  1  0
  2  3  2  0
  3  4  1  0
  4 12  1  0
  5  4  1  0
  7  6  2  0
  7  1  1  0
  8  7  1  0
  9 10  1  0
  9  8  2  0
 10 11  2  0
 11  6  1  0
 12 13  1  0
 12 14  1  0
  2 15  1  0
  3 16  1  0
  6 17  1  0
  8 18  1  0
 10 19  1  0
 12 20  1  0
 13 21  1  0
 13 22  1  0
 13 23  1  0
 14 24  1  0
 14 25  1  0
 14 26  1  0
M  ISO  8  15  14  16  14  17  14  18  14  19  14  20   8  21   8  22   8
M  ISO  4  23   8  24   8  25   8  26   8
M  END
>  <minimizedAffinity>  (1) 
-4.60345888

>  <minimizedRMSD>  (1) 
4.10533476

$$$$
