
     RDKit          3D

 35 38  0  0  1  0  0  0  0  0999 V2000
   42.5260   31.5380   37.0390 C   0  0  0  0  0  0  0  0  0  0  0  0
   41.7770   31.5720   38.2240 C   0  0  0  0  0  0  0  0  0  0  0  0
   41.0970   30.4300   38.5840 C   0  0  0  0  0  0  0  0  0  0  0  0
   41.2080   29.3470   37.7520 N   0  0  0  0  0  0  0  0  0  0  0  0
   41.9270   29.3430   36.6300 C   0  0  0  0  0  0  0  0  0  0  0  0
   42.5860   30.4470   36.2790 N   0  0  0  0  0  0  0  0  0  0  0  0
   40.2800   30.1780   39.7030 N   0  0  0  0  0  0  0  0  0  0  0  0
   39.1880   30.8580   39.9560 C   0  0  0  0  0  0  0  0  0  0  0  0
   38.6510   30.3450   41.0990 N   0  0  0  0  0  0  0  0  0  0  0  0
   39.4340   29.3390   41.5440 C   0  0  0  0  0  0  0  0  0  0  0  0
   39.4110   28.4720   42.6140 C   0  0  0  0  0  0  0  0  0  0  0  0
   38.4660   28.5550   43.4430 O   0  0  0  0  0  0  0  0  0  0  0  0
   40.4160   27.5640   42.7240 N   0  0  0  0  0  0  0  0  0  0  0  0
   41.4260   27.4820   41.8320 C   0  0  0  0  0  0  0  0  0  0  0  0
   42.4520   26.5230   41.9820 N   0  0  0  0  0  0  0  0  0  0  0  0
   41.4510   28.3210   40.7930 N   0  0  0  0  0  0  0  0  0  0  0  0
   40.4880   29.2340   40.6370 C   0  0  0  0  0  0  0  0  0  0  0  0
   38.5210   32.0220   39.2570 C   0  0  1  0  0  0  0  0  0  0  0  0
   37.9810   31.6600   37.8620 C   0  0  0  0  0  0  0  0  0  0  0  0
   37.0860   32.0080   39.0300 C   0  0  1  0  0  0  0  0  0  0  0  0
   36.1340   30.6760   39.8130 S   0  0  0  0  0  0  0  0  0  0  0  0
   40.3280   26.6850   43.8730 C   0  0  0  0  0  0  0  0  0  0  0  0
   39.1500   26.7950   44.5460 F   0  0  0  0  0  0  0  0  0  0  0  0
   41.3290   27.1060   44.7740 F   0  0  0  0  0  0  0  0  0  0  0  0
   40.5990   25.3610   43.5210 F   0  0  0  0  0  0  0  0  0  0  0  0
   43.0788   32.4371   36.7292 H   0  0  0  0  0  0  0  0  0  0  0  0
   41.7342   32.4794   38.8444 H   0  0  0  0  0  0  0  0  0  0  0  0
   41.9759   28.4410   36.0023 H   0  0  0  0  0  0  0  0  0  0  0  0
   43.2156   26.4736   41.2925 H   0  0  0  0  0  0  0  0  0  0  0  0
   42.4367   25.8731   42.7809 H   0  0  0  0  0  0  0  0  0  0  0  0
   39.1874   32.7751   39.7029 H   0  0  0  0  0  0  0  0  0  0  0  0
   38.0392   30.6258   37.4917 H   0  0  0  0  0  0  0  0  0  0  0  0
   38.1251   32.0237   36.8339 H   0  0  0  0  0  0  0  0  0  0  0  0
   36.2771   32.7398   39.1717 H   0  0  0  0  0  0  0  0  0  0  0  0
   36.2185   30.7942   41.1753 H   0  0  0  0  0  0  0  0  0  0  0  0
  1  2  2  0
  2  3  1  0
  3  7  1  0
  4  3  2  0
  5  4  1  0
  6  5  2  0
  6  1  1  0
  7  8  1  0
  7 17  1  0
  8  9  2  0
  9 10  1  0
 10 11  1  0
 11 13  1  0
 11 12  2  0
 13 22  1  0
 14 15  1  0
 14 13  1  0
 16 14  2  0
 17 16  1  0
 17 10  2  0
 18  8  1  0
 19 20  1  0
 19 18  1  0
 20 18  1  0
 20 21  1  0
 22 23  1  0
 22 24  1  0
 25 22  1  0
  1 26  1  0
  2 27  1  0
  5 28  1  0
 15 29  1  0
 15 30  1  0
 18 31  1  6
 19 32  1  0
 19 33  1  0
 20 34  1  6
 21 35  1  0
M  ISO  8  26  14  27  14  28  14  31  13  32  13  33  13  34  13  35  11
M  END
>  <minimizedAffinity>  (1) 
-5.27842093

>  <minimizedRMSD>  (1) 
0.863711417

$$$$
