
     RDKit          3D

 34 36  0  0  0  0  0  0  0  0999 V2000
   38.0830   24.6290   42.0850 C   0  0  0  0  0  0  0  0  0  0  0  0
   37.4960   25.7420   41.4480 C   0  0  0  0  0  0  0  0  0  0  0  0
   36.8510   25.5450   40.2480 C   0  0  0  0  0  0  0  0  0  0  0  0
   36.7910   24.2880   39.6990 N   0  0  0  0  0  0  0  0  0  0  0  0
   37.3740   23.2310   40.3480 C   0  0  0  0  0  0  0  0  0  0  0  0
   38.0080   23.4110   41.5240 N   0  0  0  0  0  0  0  0  0  0  0  0
   37.3290   21.8820   39.7930 C   0  0  0  0  0  0  0  0  0  0  0  0
   38.3340   20.9710   40.1010 C   0  0  0  0  0  0  0  0  0  0  0  0
   38.3650   19.6940   39.6250 C   0  0  0  0  0  0  0  0  0  0  0  0
   37.3430   19.2810   38.7900 C   0  0  0  0  0  0  0  0  0  0  0  0
   36.3320   20.1640   38.4680 C   0  0  0  0  0  0  0  0  0  0  0  0
   36.3140   21.4690   38.9640 C   0  0  0  0  0  0  0  0  0  0  0  0
   37.5630   27.0780   42.0370 C   0  0  0  0  0  0  0  0  0  0  0  0
   37.8880   27.2990   43.3880 C   0  0  0  0  0  0  0  0  0  0  0  0
   37.8510   28.6670   43.5690 C   0  0  0  0  0  0  0  0  0  0  0  0
   37.5080   29.2020   42.3270 C   0  0  0  0  0  0  0  0  0  0  0  0
   37.3520   28.2490   41.4770 O   0  0  0  0  0  0  0  0  0  0  0  0
   37.3750   30.6050   42.1390 N   0  0  0  0  0  0  0  0  0  0  0  0
   36.4770   31.0780   41.1350 C   0  0  0  0  0  0  0  0  0  0  0  0
   35.3690   30.4750   40.8900 N   0  0  0  0  0  0  0  0  0  0  0  0
   36.8070   32.2540   40.3750 N   0  0  0  0  0  0  0  0  0  0  0  0
   35.1040   29.6390   41.4240 H   0  0  0  0  0  0  0  0  0  0  0  0
   38.6042   24.7590   43.0449 H   0  0  0  0  0  0  0  0  0  0  0  0
   36.3836   26.3947   39.7289 H   0  0  0  0  0  0  0  0  0  0  0  0
   39.1478   21.2988   40.7646 H   0  0  0  0  0  0  0  0  0  0  0  0
   39.1819   19.0098   39.8980 H   0  0  0  0  0  0  0  0  0  0  0  0
   37.3357   18.2579   38.3860 H   0  0  0  0  0  0  0  0  0  0  0  0
   35.5204   19.8312   37.8042 H   0  0  0  0  0  0  0  0  0  0  0  0
   35.4988   22.1568   38.6949 H   0  0  0  0  0  0  0  0  0  0  0  0
   38.1236   26.5370   44.1456 H   0  0  0  0  0  0  0  0  0  0  0  0
   38.0504   29.2200   44.4987 H   0  0  0  0  0  0  0  0  0  0  0  0
   37.9152   31.2663   42.7151 H   0  0  0  0  0  0  0  0  0  0  0  0
   36.1605   32.5970   39.6502 H   0  0  0  0  0  0  0  0  0  0  0  0
   37.6897   32.7530   40.5557 H   0  0  0  0  0  0  0  0  0  0  0  0
  2 13  1  0
  2  1  2  0
  3  2  1  0
  4  3  2  0
  4  5  1  0
  5  6  2  0
  6  1  1  0
  7  8  2  0
  7  5  1  0
  9  8  1  0
 10  9  2  0
 11 10  1  0
 11 12  2  0
 12  7  1  0
 13 14  2  0
 14 15  1  0
 16 15  2  0
 17 13  1  0
 17 16  1  0
 18 16  1  0
 19 18  1  0
 20 19  2  0
 20 22  1  0
 21 19  1  0
  1 23  1  0
  3 24  1  0
  8 25  1  0
  9 26  1  0
 10 27  1  0
 11 28  1  0
 12 29  1  0
 14 30  1  0
 15 31  1  0
 18 32  1  0
 21 33  1  0
 21 34  1  0
M  ISO  8  23  14  24  14  25  14  26  14  27  14  28  14  29  14  30  14
M  ISO  1  31  14
M  END
>  <minimizedAffinity>  (1) 
-5.59078503

>  <minimizedRMSD>  (1) 
1.90181911

$$$$
