
     RDKit          3D

 36 37  0  0  0  0  0  0  0  0999 V2000
   38.8260   29.8310   41.3180 C   0  0  0  0  0  0  0  0  0  0  0  0
   39.8170   30.0100   42.2980 C   0  0  0  0  0  0  0  0  0  0  0  0
   39.9900   31.3730   42.4270 C   0  0  0  0  0  0  0  0  0  0  0  0
   39.1040   31.9520   41.5250 C   0  0  0  0  0  0  0  0  0  0  0  0
   38.4430   31.0290   40.8970 O   0  0  0  0  0  0  0  0  0  0  0  0
   37.4390   27.8050   41.6810 C   0  0  0  0  0  0  0  0  0  0  0  0
   38.3400   28.5240   40.8760 C   0  0  0  0  0  0  0  0  0  0  0  0
   38.7400   27.9680   39.6860 C   0  0  0  0  0  0  0  0  0  0  0  0
   38.2700   26.7530   39.3080 N   0  0  0  0  0  0  0  0  0  0  0  0
   37.3880   26.0740   40.1170 C   0  0  0  0  0  0  0  0  0  0  0  0
   36.9810   26.6000   41.2910 N   0  0  0  0  0  0  0  0  0  0  0  0
   36.9060   24.7390   39.6430 C   0  0  0  0  0  0  0  0  0  0  0  0
   38.0680   23.9080   39.1210 C   0  0  0  0  0  0  0  0  0  0  0  0
   35.8070   24.8430   38.6260 C   0  0  0  0  0  0  0  0  0  0  0  0
   36.3460   23.9870   40.8460 C   0  0  0  0  0  0  0  0  0  0  0  0
   38.9970   33.3720   41.3730 N   0  0  0  0  0  0  0  0  0  0  0  0
   38.1540   33.8920   40.3610 C   0  0  0  0  0  0  0  0  0  0  0  0
   37.0470   33.3220   40.0470 N   0  0  0  0  0  0  0  0  0  0  0  0
   38.5410   35.0930   39.6620 N   0  0  0  0  0  0  0  0  0  0  0  0
   36.7400   32.4560   40.5360 H   0  0  0  0  0  0  0  0  0  0  0  0
   40.3483   29.2217   42.8514 H   0  0  0  0  0  0  0  0  0  0  0  0
   40.6845   31.8934   43.1029 H   0  0  0  0  0  0  0  0  0  0  0  0
   37.1049   28.2308   42.6386 H   0  0  0  0  0  0  0  0  0  0  0  0
   39.4439   28.5096   39.0370 H   0  0  0  0  0  0  0  0  0  0  0  0
   38.6376   23.5006   39.9693 H   0  0  0  0  0  0  0  0  0  0  0  0
   37.6809   23.0806   38.5081 H   0  0  0  0  0  0  0  0  0  0  0  0
   38.7258   24.5417   38.5081 H   0  0  0  0  0  0  0  0  0  0  0  0
   34.8390   24.9346   39.1403 H   0  0  0  0  0  0  0  0  0  0  0  0
   35.9729   25.7295   37.9962 H   0  0  0  0  0  0  0  0  0  0  0  0
   35.8037   23.9412   37.9962 H   0  0  0  0  0  0  0  0  0  0  0  0
   36.6999   24.4623   41.7727 H   0  0  0  0  0  0  0  0  0  0  0  0
   35.2467   24.0146   40.8164 H   0  0  0  0  0  0  0  0  0  0  0  0
   36.6874   22.9418   40.8164 H   0  0  0  0  0  0  0  0  0  0  0  0
   39.5251   34.0053   41.9903 H   0  0  0  0  0  0  0  0  0  0  0  0
   37.9337   35.4780   38.9245 H   0  0  0  0  0  0  0  0  0  0  0  0
   39.4246   35.5655   39.9003 H   0  0  0  0  0  0  0  0  0  0  0  0
  1  2  2  0
  2  3  1  0
  4  3  2  0
  5  1  1  0
  5  4  1  0
  7  1  1  0
  7  6  2  0
  8  7  1  0
  9  8  2  0
  9 10  1  0
 10 11  2  0
 11  6  1  0
 12 10  1  0
 12 15  1  0
 13 12  1  0
 14 12  1  0
 16  4  1  0
 17 16  1  0
 18 17  2  0
 18 20  1  0
 19 17  1  0
  2 21  1  0
  3 22  1  0
  6 23  1  0
  8 24  1  0
 13 25  1  0
 13 26  1  0
 13 27  1  0
 14 28  1  0
 14 29  1  0
 14 30  1  0
 15 31  1  0
 15 32  1  0
 15 33  1  0
 16 34  1  0
 19 35  1  0
 19 36  1  0
M  ISO  8  21  14  22  14  23  14  24  14  25   8  26   8  27   8  28   8
M  ISO  5  29   8  30   8  31   8  32   8  33   8
M  END
>  <minimizedAffinity>  (1) 
-5.05095053

>  <minimizedRMSD>  (1) 
1.95996654

$$$$
