
     RDKit          3D

 27 28  0  0  0  0  0  0  0  0999 V2000
   38.6070   29.0040   41.7000 C   0  0  0  0  0  0  0  0  0  0  0  0
   39.4310   29.3270   42.7720 C   0  0  0  0  0  0  0  0  0  0  0  0
   39.6740   30.6850   42.6840 C   0  0  0  0  0  0  0  0  0  0  0  0
   38.9880   31.1120   41.5720 C   0  0  0  0  0  0  0  0  0  0  0  0
   38.3850   30.1140   41.0300 O   0  0  0  0  0  0  0  0  0  0  0  0
   37.5850   26.8560   42.4850 C   0  0  0  0  0  0  0  0  0  0  0  0
   38.1110   27.6450   41.4270 C   0  0  0  0  0  0  0  0  0  0  0  0
   38.1470   27.1200   40.1390 C   0  0  0  0  0  0  0  0  0  0  0  0
   37.6760   25.8600   39.9270 N   0  0  0  0  0  0  0  0  0  0  0  0
   37.1810   25.1360   40.9660 C   0  0  0  0  0  0  0  0  0  0  0  0
   37.1350   25.6220   42.2220 N   0  0  0  0  0  0  0  0  0  0  0  0
   36.7020   23.8010   40.6370 C   0  0  0  0  0  0  0  0  0  0  0  0
   37.4600   22.8270   40.7490 O   0  0  0  0  0  0  0  0  0  0  0  0
   35.4210   23.5260   40.1930 O   0  0  0  0  0  0  0  0  0  0  0  0
   39.0070   32.4760   41.1620 N   0  0  0  0  0  0  0  0  0  0  0  0
   37.9670   32.9550   40.3070 C   0  0  0  0  0  0  0  0  0  0  0  0
   36.7610   32.5330   40.4250 N   0  0  0  0  0  0  0  0  0  0  0  0
   38.2500   33.9290   39.2870 N   0  0  0  0  0  0  0  0  0  0  0  0
   36.5100   31.8320   41.1360 H   0  0  0  0  0  0  0  0  0  0  0  0
   39.8141   28.6379   43.5390 H   0  0  0  0  0  0  0  0  0  0  0  0
   40.2879   31.2961   43.3620 H   0  0  0  0  0  0  0  0  0  0  0  0
   37.5477   27.2544   43.5096 H   0  0  0  0  0  0  0  0  0  0  0  0
   38.5497   27.7135   39.3050 H   0  0  0  0  0  0  0  0  0  0  0  0
   34.7670   24.2610   40.0824 H   0  0  0  0  0  0  0  0  0  0  0  0
   39.7581   33.1067   41.4766 H   0  0  0  0  0  0  0  0  0  0  0  0
   39.2086   34.2866   39.1681 H   0  0  0  0  0  0  0  0  0  0  0  0
   37.4940   34.2689   38.6755 H   0  0  0  0  0  0  0  0  0  0  0  0
  1  2  2  0
  3  2  1  0
  4  3  2  0
  5  4  1  0
  5  1  1  0
  7  1  1  0
  7  6  2  0
  8  7  1  0
  9  8  2  0
  9 10  1  0
 10 11  2  0
 11  6  1  0
 12 13  2  0
 12 10  1  0
 14 12  1  0
 15  4  1  0
 16 17  2  0
 16 15  1  0
 17 19  1  0
 18 16  1  0
  2 20  1  0
  3 21  1  0
  6 22  1  0
  8 23  1  0
 14 24  1  0
 15 25  1  0
 18 26  1  0
 18 27  1  0
M  ISO  5  20  14  21  14  22  14  23  14  24   3
M  END
>  <minimizedAffinity>  (1) 
-4.83730268

>  <minimizedRMSD>  (1) 
1.08098948

$$$$
