
     RDKit          3D

 38 41  0  0  0  0  0  0  0  0999 V2000
   38.5990   27.2930   41.1670 C   0  0  0  0  0  0  0  0  0  0  0  0
   37.9780   28.5430   40.9400 C   0  0  0  0  0  0  0  0  0  0  0  0
   36.7880   28.5760   40.2760 C   0  0  0  0  0  0  0  0  0  0  0  0
   36.2200   27.4090   39.8420 N   0  0  0  0  0  0  0  0  0  0  0  0
   36.8550   26.2000   40.0790 C   0  0  0  0  0  0  0  0  0  0  0  0
   38.0270   26.1520   40.7320 N   0  0  0  0  0  0  0  0  0  0  0  0
   36.2510   24.9910   39.6150 N   0  0  0  0  0  0  0  0  0  0  0  0
   36.2090   23.7460   40.1580 N   0  0  0  0  0  0  0  0  0  0  0  0
   35.5140   22.9400   39.3690 C   0  0  0  0  0  0  0  0  0  0  0  0
   35.1060   23.6920   38.2970 C   0  0  0  0  0  0  0  0  0  0  0  0
   35.5750   24.9980   38.4540 C   0  0  0  0  0  0  0  0  0  0  0  0
   38.6280   29.7650   41.4120 C   0  0  0  0  0  0  0  0  0  0  0  0
   39.5060   29.8110   42.5060 C   0  0  0  0  0  0  0  0  0  0  0  0
   39.8980   31.1320   42.6210 C   0  0  0  0  0  0  0  0  0  0  0  0
   39.2390   31.8140   41.5940 C   0  0  0  0  0  0  0  0  0  0  0  0
   38.5120   30.9960   40.9120 O   0  0  0  0  0  0  0  0  0  0  0  0
   39.3980   33.2180   41.3880 N   0  0  0  0  0  0  0  0  0  0  0  0
   38.5520   33.8850   40.4600 C   0  0  0  0  0  0  0  0  0  0  0  0
   37.3400   33.5330   40.2690 N   0  0  0  0  0  0  0  0  0  0  0  0
   39.0750   34.9930   39.7050 N   0  0  0  0  0  0  0  0  0  0  0  0
   36.9400   32.7570   40.8340 H   0  0  0  0  0  0  0  0  0  0  0  0
   35.2720   25.9920   37.4240 C   0  0  0  0  0  0  0  0  0  0  0  0
   34.0370   26.5100   37.0970 C   0  0  0  0  0  0  0  0  0  0  0  0
   34.1490   27.4160   36.0810 C   0  0  0  0  0  0  0  0  0  0  0  0
   35.4850   27.4330   35.7990 C   0  0  0  0  0  0  0  0  0  0  0  0
   36.0530   26.6000   36.6030 O   0  0  0  0  0  0  0  0  0  0  0  0
   39.5582   27.2510   41.7038 H   0  0  0  0  0  0  0  0  0  0  0  0
   36.2862   29.5370   40.0897 H   0  0  0  0  0  0  0  0  0  0  0  0
   35.3046   21.8738   39.5405 H   0  0  0  0  0  0  0  0  0  0  0  0
   34.5064   23.3257   37.4506 H   0  0  0  0  0  0  0  0  0  0  0  0
   39.8182   28.9691   43.1414 H   0  0  0  0  0  0  0  0  0  0  0  0
   40.5859   31.5580   43.3662 H   0  0  0  0  0  0  0  0  0  0  0  0
   40.1177   33.7419   41.9060 H   0  0  0  0  0  0  0  0  0  0  0  0
   38.4735   35.4854   39.0293 H   0  0  0  0  0  0  0  0  0  0  0  0
   40.0508   35.2936   39.8404 H   0  0  0  0  0  0  0  0  0  0  0  0
   33.0920   26.2321   37.5866 H   0  0  0  0  0  0  0  0  0  0  0  0
   33.3481   27.9975   35.6009 H   0  0  0  0  0  0  0  0  0  0  0  0
   35.9830   28.0426   35.0306 H   0  0  0  0  0  0  0  0  0  0  0  0
  2  1  2  0
  2 12  1  0
  3  2  1  0
  4  5  1  0
  4  3  2  0
  5  6  2  0
  6  1  1  0
  7  5  1  0
  7  8  1  0
  9  8  2  0
 10 11  2  0
 10  9  1  0
 11  7  1  0
 12 13  2  0
 13 14  1  0
 15 14  2  0
 16 12  1  0
 16 15  1  0
 17 15  1  0
 18 17  1  0
 19 18  2  0
 19 21  1  0
 20 18  1  0
 22 11  1  0
 23 22  2  0
 24 23  1  0
 25 24  2  0
 25 26  1  0
 26 22  1  0
  1 27  1  0
  3 28  1  0
  9 29  1  0
 10 30  1  0
 13 31  1  0
 14 32  1  0
 17 33  1  0
 20 34  1  0
 20 35  1  0
 23 36  1  0
 24 37  1  0
 25 38  1  0
M  ISO  8  27  14  28  14  29  14  30  14  31  14  32  14  36  14  37  14
M  ISO  1  38  14
M  END
>  <minimizedAffinity>  (1) 
-5.71658707

>  <minimizedRMSD>  (1) 
0.297068566

$$$$
