
     RDKit          3D

 38 41  0  0  0  0  0  0  0  0999 V2000
   38.7030   27.3160   41.1550 C   0  0  0  0  0  0  0  0  0  0  0  0
   38.0320   28.5490   41.0070 C   0  0  0  0  0  0  0  0  0  0  0  0
   36.8070   28.5570   40.4120 C   0  0  0  0  0  0  0  0  0  0  0  0
   36.2530   27.3840   39.9700 N   0  0  0  0  0  0  0  0  0  0  0  0
   36.9400   26.1960   40.1300 C   0  0  0  0  0  0  0  0  0  0  0  0
   38.1470   26.1710   40.7170 N   0  0  0  0  0  0  0  0  0  0  0  0
   36.3470   24.9800   39.6550 N   0  0  0  0  0  0  0  0  0  0  0  0
   36.3660   23.7210   40.1940 N   0  0  0  0  0  0  0  0  0  0  0  0
   35.6580   22.9070   39.4310 C   0  0  0  0  0  0  0  0  0  0  0  0
   35.1910   23.6630   38.3980 C   0  0  0  0  0  0  0  0  0  0  0  0
   35.6290   24.9950   38.5320 C   0  0  0  0  0  0  0  0  0  0  0  0
   38.6700   29.7770   41.4680 C   0  0  0  0  0  0  0  0  0  0  0  0
   39.5490   29.8400   42.5570 C   0  0  0  0  0  0  0  0  0  0  0  0
   39.9270   31.1650   42.6610 C   0  0  0  0  0  0  0  0  0  0  0  0
   39.2570   31.8370   41.6270 C   0  0  0  0  0  0  0  0  0  0  0  0
   38.5360   31.0020   40.9540 O   0  0  0  0  0  0  0  0  0  0  0  0
   39.4040   33.2420   41.4140 N   0  0  0  0  0  0  0  0  0  0  0  0
   38.5710   33.8920   40.4690 C   0  0  0  0  0  0  0  0  0  0  0  0
   37.3530   33.5250   40.2970 N   0  0  0  0  0  0  0  0  0  0  0  0
   39.0800   34.9790   39.6810 N   0  0  0  0  0  0  0  0  0  0  0  0
   36.9620   32.7470   40.8450 H   0  0  0  0  0  0  0  0  0  0  0  0
   35.2140   25.8940   37.4880 C   0  0  0  0  0  0  0  0  0  0  0  0
   34.0200   26.3260   37.1130 C   0  0  0  0  0  0  0  0  0  0  0  0
   33.8640   27.1920   36.0880 C   0  0  0  0  0  0  0  0  0  0  0  0
   35.0250   27.6400   35.4040 C   0  0  0  0  0  0  0  0  0  0  0  0
   36.3310   26.7670   36.2980 S   0  0  0  0  0  0  0  0  0  0  0  0
   39.6928   27.2905   41.6343 H   0  0  0  0  0  0  0  0  0  0  0  0
   36.2625   29.5045   40.2862 H   0  0  0  0  0  0  0  0  0  0  0  0
   35.4811   21.8340   39.5966 H   0  0  0  0  0  0  0  0  0  0  0  0
   34.5623   23.2871   37.5774 H   0  0  0  0  0  0  0  0  0  0  0  0
   39.8719   29.0061   43.1976 H   0  0  0  0  0  0  0  0  0  0  0  0
   40.6121   31.6030   43.4018 H   0  0  0  0  0  0  0  0  0  0  0  0
   40.1082   33.7773   41.9418 H   0  0  0  0  0  0  0  0  0  0  0  0
   38.4705   35.4479   38.9957 H   0  0  0  0  0  0  0  0  0  0  0  0
   40.0546   35.2899   39.8010 H   0  0  0  0  0  0  0  0  0  0  0  0
   33.1295   25.9696   37.6515 H   0  0  0  0  0  0  0  0  0  0  0  0
   32.8640   27.5409   35.7910 H   0  0  0  0  0  0  0  0  0  0  0  0
   35.1077   28.3344   34.5549 H   0  0  0  0  0  0  0  0  0  0  0  0
  2  1  2  0
  2 12  1  0
  3  2  1  0
  4  5  1  0
  4  3  2  0
  5  6  2  0
  6  1  1  0
  7  5  1  0
  7  8  1  0
  9  8  2  0
 10 11  2  0
 10  9  1  0
 11  7  1  0
 12 13  2  0
 13 14  1  0
 15 14  2  0
 16 12  1  0
 16 15  1  0
 17 15  1  0
 18 17  1  0
 19 18  2  0
 19 21  1  0
 20 18  1  0
 22 11  1  0
 23 22  2  0
 24 23  1  0
 25 24  2  0
 25 26  1  0
 26 22  1  0
  1 27  1  0
  3 28  1  0
  9 29  1  0
 10 30  1  0
 13 31  1  0
 14 32  1  0
 17 33  1  0
 20 34  1  0
 20 35  1  0
 23 36  1  0
 24 37  1  0
 25 38  1  0
M  ISO  8  27  14  28  14  29  14  30  14  31  14  32  14  36  14  37  14
M  ISO  1  38  14
M  END
>  <minimizedAffinity>  (1) 
-5.7087431

>  <minimizedRMSD>  (1) 
0.630288541

$$$$
