
     RDKit          3D

 40 42  0  0  0  0  0  0  0  0999 V2000
   38.5290   27.2530   41.3300 C   0  0  0  0  0  0  0  0  0  0  0  0
   38.0030   28.5100   40.9530 C   0  0  0  0  0  0  0  0  0  0  0  0
   36.8960   28.5310   40.1500 C   0  0  0  0  0  0  0  0  0  0  0  0
   36.3430   27.3550   39.7440 N   0  0  0  0  0  0  0  0  0  0  0  0
   36.8660   26.1520   40.1200 C   0  0  0  0  0  0  0  0  0  0  0  0
   37.9520   26.1090   40.9080 N   0  0  0  0  0  0  0  0  0  0  0  0
   36.2690   24.9370   39.6860 N   0  0  0  0  0  0  0  0  0  0  0  0
   36.1520   23.7250   40.2640 N   0  0  0  0  0  0  0  0  0  0  0  0
   35.4790   22.9220   39.4190 C   0  0  0  0  0  0  0  0  0  0  0  0
   35.1720   23.6480   38.2980 C   0  0  0  0  0  0  0  0  0  0  0  0
   35.6680   24.9130   38.4630 C   0  0  0  0  0  0  0  0  0  0  0  0
   38.6400   29.7400   41.4180 C   0  0  0  0  0  0  0  0  0  0  0  0
   39.5030   29.7970   42.5240 C   0  0  0  0  0  0  0  0  0  0  0  0
   39.8830   31.1280   42.6260 C   0  0  0  0  0  0  0  0  0  0  0  0
   39.2360   31.7980   41.5850 C   0  0  0  0  0  0  0  0  0  0  0  0
   38.5220   30.9650   40.9010 O   0  0  0  0  0  0  0  0  0  0  0  0
   39.3920   33.1950   41.3760 N   0  0  0  0  0  0  0  0  0  0  0  0
   38.5470   33.8550   40.4370 C   0  0  0  0  0  0  0  0  0  0  0  0
   37.3160   33.4970   40.2630 N   0  0  0  0  0  0  0  0  0  0  0  0
   39.0760   34.9430   39.6670 N   0  0  0  0  0  0  0  0  0  0  0  0
   36.9270   32.7280   40.8070 H   0  0  0  0  0  0  0  0  0  0  0  0
   35.4510   25.9030   37.3640 C   0  0  0  0  0  0  0  0  0  0  0  0
   34.0180   26.1490   37.0300 C   0  0  0  0  0  0  0  0  0  0  0  0
   36.2820   25.4860   36.1460 C   0  0  0  0  0  0  0  0  0  0  0  0
   39.4190   27.2073   41.9749 H   0  0  0  0  0  0  0  0  0  0  0  0
   36.4566   29.4890   39.8352 H   0  0  0  0  0  0  0  0  0  0  0  0
   35.2207   21.8677   39.5971 H   0  0  0  0  0  0  0  0  0  0  0  0
   34.6230   23.2787   37.4193 H   0  0  0  0  0  0  0  0  0  0  0  0
   39.8123   28.9637   43.1721 H   0  0  0  0  0  0  0  0  0  0  0  0
   40.5578   31.5669   43.3757 H   0  0  0  0  0  0  0  0  0  0  0  0
   40.1065   33.7237   41.8964 H   0  0  0  0  0  0  0  0  0  0  0  0
   38.4775   35.4298   38.9845 H   0  0  0  0  0  0  0  0  0  0  0  0
   40.0544   35.2377   39.7965 H   0  0  0  0  0  0  0  0  0  0  0  0
   35.7986   26.8822   37.7250 H   0  0  0  0  0  0  0  0  0  0  0  0
   33.4370   26.2487   37.9587 H   0  0  0  0  0  0  0  0  0  0  0  0
   33.9322   27.0750   36.4425 H   0  0  0  0  0  0  0  0  0  0  0  0
   33.6283   25.3046   36.4425 H   0  0  0  0  0  0  0  0  0  0  0  0
   37.2176   25.0165   36.4838 H   0  0  0  0  0  0  0  0  0  0  0  0
   35.7096   24.7683   35.5399 H   0  0  0  0  0  0  0  0  0  0  0  0
   36.5153   26.3738   35.5399 H   0  0  0  0  0  0  0  0  0  0  0  0
  2  1  2  0
  2 12  1  0
  3  2  1  0
  4  5  1  0
  4  3  2  0
  5  6  2  0
  6  1  1  0
  7  5  1  0
  7  8  1  0
  9  8  2  0
 10 11  2  0
 10  9  1  0
 11  7  1  0
 12 13  2  0
 13 14  1  0
 15 14  2  0
 16 12  1  0
 16 15  1  0
 17 15  1  0
 18 17  1  0
 19 18  2  0
 19 21  1  0
 20 18  1  0
 22 11  1  0
 23 22  1  0
 24 22  1  0
  1 25  1  0
  3 26  1  0
  9 27  1  0
 10 28  1  0
 13 29  1  0
 14 30  1  0
 17 31  1  0
 20 32  1  0
 20 33  1  0
 22 34  1  0
 23 35  1  0
 23 36  1  0
 23 37  1  0
 24 38  1  0
 24 39  1  0
 24 40  1  0
M  ISO  8  25  14  26  14  27  14  28  14  29  14  30  14  34   8  35   8
M  ISO  5  36   8  37   8  38   8  39   8  40   8
M  END
>  <minimizedAffinity>  (1) 
-5.54926538

>  <minimizedRMSD>  (1) 
0.559066832

$$$$
