
     RDKit          3D

 33 35  0  0  0  0  0  0  0  0999 V2000
   38.5090   27.2580   41.3560 C   0  0  0  0  0  0  0  0  0  0  0  0
   38.0070   28.5070   40.9540 C   0  0  0  0  0  0  0  0  0  0  0  0
   36.9180   28.5280   40.1340 C   0  0  0  0  0  0  0  0  0  0  0  0
   36.3370   27.3570   39.7180 N   0  0  0  0  0  0  0  0  0  0  0  0
   36.8650   26.1470   40.1360 C   0  0  0  0  0  0  0  0  0  0  0  0
   37.9370   26.1090   40.9450 N   0  0  0  0  0  0  0  0  0  0  0  0
   36.2790   24.9210   39.7170 N   0  0  0  0  0  0  0  0  0  0  0  0
   36.1740   23.7030   40.2830 N   0  0  0  0  0  0  0  0  0  0  0  0
   35.5080   22.9060   39.4220 C   0  0  0  0  0  0  0  0  0  0  0  0
   35.1830   23.6160   38.2940 C   0  0  0  0  0  0  0  0  0  0  0  0
   35.6800   24.8770   38.5080 C   0  0  0  0  0  0  0  0  0  0  0  0
   38.6280   29.7430   41.4010 C   0  0  0  0  0  0  0  0  0  0  0  0
   39.4970   29.8050   42.5200 C   0  0  0  0  0  0  0  0  0  0  0  0
   39.8760   31.1220   42.6240 C   0  0  0  0  0  0  0  0  0  0  0  0
   39.2350   31.7930   41.5840 C   0  0  0  0  0  0  0  0  0  0  0  0
   38.5220   30.9630   40.8980 O   0  0  0  0  0  0  0  0  0  0  0  0
   39.3850   33.1980   41.3610 N   0  0  0  0  0  0  0  0  0  0  0  0
   38.5350   33.8490   40.4310 C   0  0  0  0  0  0  0  0  0  0  0  0
   37.3100   33.4850   40.2590 N   0  0  0  0  0  0  0  0  0  0  0  0
   39.0700   34.9400   39.6700 N   0  0  0  0  0  0  0  0  0  0  0  0
   36.9230   32.7180   40.8080 H   0  0  0  0  0  0  0  0  0  0  0  0
   35.5180   25.9020   37.5140 N   0  0  0  0  0  0  0  0  0  0  0  0
   39.3858   27.2171   42.0190 H   0  0  0  0  0  0  0  0  0  0  0  0
   36.5021   29.4912   39.8035 H   0  0  0  0  0  0  0  0  0  0  0  0
   35.2629   21.8481   39.5976 H   0  0  0  0  0  0  0  0  0  0  0  0
   34.6407   23.2526   37.4086 H   0  0  0  0  0  0  0  0  0  0  0  0
   39.8039   28.9721   43.1697 H   0  0  0  0  0  0  0  0  0  0  0  0
   40.5494   31.5585   43.3763 H   0  0  0  0  0  0  0  0  0  0  0  0
   40.1034   33.7317   41.8709 H   0  0  0  0  0  0  0  0  0  0  0  0
   38.4760   35.4317   38.9871 H   0  0  0  0  0  0  0  0  0  0  0  0
   40.0483   35.2321   39.8062 H   0  0  0  0  0  0  0  0  0  0  0  0
   35.8938   26.8462   37.6819 H   0  0  0  0  0  0  0  0  0  0  0  0
   35.0261   25.6925   36.6337 H   0  0  0  0  0  0  0  0  0  0  0  0
  2  1  2  0
  2 12  1  0
  3  2  1  0
  4  3  2  0
  4  5  1  0
  5  6  2  0
  6  1  1  0
  7  5  1  0
  7  8  1  0
  9  8  2  0
 10 11  2  0
 10  9  1  0
 11  7  1  0
 12 13  2  0
 13 14  1  0
 15 14  2  0
 16 12  1  0
 16 15  1  0
 17 15  1  0
 18 17  1  0
 19 18  2  0
 19 21  1  0
 20 18  1  0
 22 11  1  0
  1 23  1  0
  3 24  1  0
  9 25  1  0
 10 26  1  0
 13 27  1  0
 14 28  1  0
 17 29  1  0
 20 30  1  0
 20 31  1  0
 22 32  1  0
 22 33  1  0
M  ISO  6  23  14  24  14  25  14  26  14  27  14  28  14
M  END
>  <minimizedAffinity>  (1) 
-5.52560377

>  <minimizedRMSD>  (1) 
0.0359727368

$$$$
