
     RDKit          3D

 43 46  0  0  0  0  0  0  0  0999 V2000
   40.9260   27.9930   43.2880 C   0  0  0  0  0  0  0  0  0  0  0  0
   39.7170   27.3140   43.3990 C   0  0  0  0  0  0  0  0  0  0  0  0
   38.6090   27.9770   42.8960 C   0  0  0  0  0  0  0  0  0  0  0  0
   38.8270   29.1920   42.3640 N   0  0  0  0  0  0  0  0  0  0  0  0
   39.9670   29.8450   42.2530 C   0  0  0  0  0  0  0  0  0  0  0  0
   41.0080   29.1950   42.7380 N   0  0  0  0  0  0  0  0  0  0  0  0
   40.3170   31.1420   41.7040 C   0  0  0  0  0  0  0  0  0  0  0  0
   41.5600   31.6860   41.7780 N   0  0  0  0  0  0  0  0  0  0  0  0
   41.9230   32.8620   41.2930 C   0  0  0  0  0  0  0  0  0  0  0  0
   41.0530   33.6360   40.6660 N   0  0  0  0  0  0  0  0  0  0  0  0
   39.7860   33.2150   40.5240 C   0  0  0  0  0  0  0  0  0  0  0  0
   38.8510   34.0160   39.8650 C   0  0  0  0  0  0  0  0  0  0  0  0
   37.5610   33.6220   39.7030 C   0  0  0  0  0  0  0  0  0  0  0  0
   37.2050   32.3930   40.2170 C   0  0  0  0  0  0  0  0  0  0  0  0
   38.1450   31.6210   40.8620 C   0  0  0  0  0  0  0  0  0  0  0  0
   39.4580   31.9850   41.0460 C   0  0  0  0  0  0  0  0  0  0  0  0
   37.2070   27.4710   42.8930 C   0  0  0  0  0  0  0  0  0  0  0  0
   36.3810   28.1670   41.8630 C   0  0  0  0  0  0  0  0  0  0  0  0
   36.5660   27.7580   44.2490 C   0  0  0  0  0  0  0  0  0  0  0  0
   37.1710   25.9720   42.7070 C   0  0  0  0  0  0  0  0  0  0  0  0
   37.4130   25.5650   41.2980 C   0  0  0  0  0  0  0  0  0  0  0  0
   36.5880   24.5840   40.7880 C   0  0  0  0  0  0  0  0  0  0  0  0
   36.9970   24.3710   39.4710 C   0  0  0  0  0  0  0  0  0  0  0  0
   38.0300   25.2070   39.2340 N   0  0  0  0  0  0  0  0  0  0  0  0
   38.2880   25.9280   40.3190 N   0  0  0  0  0  0  0  0  0  0  0  0
   41.8418   27.5171   43.6686 H   0  0  0  0  0  0  0  0  0  0  0  0
   39.6452   26.3161   43.8561 H   0  0  0  0  0  0  0  0  0  0  0  0
   42.9627   33.2007   41.4128 H   0  0  0  0  0  0  0  0  0  0  0  0
   39.1672   34.9914   39.4667 H   0  0  0  0  0  0  0  0  0  0  0  0
   36.8297   34.2580   39.1826 H   0  0  0  0  0  0  0  0  0  0  0  0
   36.1719   32.0301   40.1119 H   0  0  0  0  0  0  0  0  0  0  0  0
   37.8235   30.6461   41.2572 H   0  0  0  0  0  0  0  0  0  0  0  0
   35.6308   28.7992   42.3605 H   0  0  0  0  0  0  0  0  0  0  0  0
   37.0305   28.7942   41.2347 H   0  0  0  0  0  0  0  0  0  0  0  0
   35.8730   27.4206   41.2347 H   0  0  0  0  0  0  0  0  0  0  0  0
   37.2526   27.4506   45.0516 H   0  0  0  0  0  0  0  0  0  0  0  0
   36.3589   28.8348   44.3361 H   0  0  0  0  0  0  0  0  0  0  0  0
   35.6248   27.1953   44.3361 H   0  0  0  0  0  0  0  0  0  0  0  0
   37.9463   25.5194   43.3426 H   0  0  0  0  0  0  0  0  0  0  0  0
   36.1648   25.6257   42.9858 H   0  0  0  0  0  0  0  0  0  0  0  0
   35.7699   24.0713   41.3151 H   0  0  0  0  0  0  0  0  0  0  0  0
   36.5595   23.6556   38.7591 H   0  0  0  0  0  0  0  0  0  0  0  0
   38.5425   25.2756   38.3432 H   0  0  0  0  0  0  0  0  0  0  0  0
  1  2  2  0
  3  2  1  0
  4  3  2  0
  5  4  1  0
  5  6  2  0
  6  1  1  0
  7  8  2  0
  7  5  1  0
  9  8  1  0
 10  9  2  0
 11 10  1  0
 11 16  2  0
 12 11  1  0
 13 12  2  0
 13 14  1  0
 14 15  2  0
 15 16  1  0
 16  7  1  0
 17  3  1  0
 17 19  1  0
 18 17  1  0
 20 17  1  0
 21 20  1  0
 22 21  1  0
 23 22  2  0
 24 23  1  0
 24 25  1  0
 25 21  2  0
  1 26  1  0
  2 27  1  0
  9 28  1  0
 12 29  1  0
 13 30  1  0
 14 31  1  0
 15 32  1  0
 18 33  1  0
 18 34  1  0
 18 35  1  0
 19 36  1  0
 19 37  1  0
 19 38  1  0
 20 39  1  0
 20 40  1  0
 22 41  1  0
 23 42  1  0
 24 43  1  0
M  ISO  8  26  14  27  14  28  14  29  14  30  14  31  14  32  14  33   8
M  ISO  8  34   8  35   8  36   8  37   8  38   8  39   8  40   8  41  14
M  ISO  2  42  14  43   9
M  END
>  <minimizedAffinity>  (1) 
-6.12174273

>  <minimizedRMSD>  (1) 
3.38131928

$$$$
