
     RDKit          3D

 43 46  0  0  0  0  0  0  0  0999 V2000
   41.3290   28.2510   43.1460 C   0  0  0  0  0  0  0  0  0  0  0  0
   40.1740   27.4920   43.3090 C   0  0  0  0  0  0  0  0  0  0  0  0
   38.9840   28.0770   42.8570 C   0  0  0  0  0  0  0  0  0  0  0  0
   39.0900   29.2950   42.3220 N   0  0  0  0  0  0  0  0  0  0  0  0
   40.1710   30.0230   42.1610 C   0  0  0  0  0  0  0  0  0  0  0  0
   41.2830   29.4490   42.5960 N   0  0  0  0  0  0  0  0  0  0  0  0
   40.4010   31.3450   41.5980 C   0  0  0  0  0  0  0  0  0  0  0  0
   41.5960   31.9890   41.6360 N   0  0  0  0  0  0  0  0  0  0  0  0
   41.8510   33.1830   41.1390 C   0  0  0  0  0  0  0  0  0  0  0  0
   40.9080   33.8760   40.5380 N   0  0  0  0  0  0  0  0  0  0  0  0
   39.6750   33.3610   40.4270 C   0  0  0  0  0  0  0  0  0  0  0  0
   38.6710   34.0830   39.7930 C   0  0  0  0  0  0  0  0  0  0  0  0
   37.4130   33.5830   39.6690 C   0  0  0  0  0  0  0  0  0  0  0  0
   37.1540   32.3260   40.1920 C   0  0  0  0  0  0  0  0  0  0  0  0
   38.1870   31.6480   40.8140 C   0  0  0  0  0  0  0  0  0  0  0  0
   39.4560   32.1120   40.9590 C   0  0  0  0  0  0  0  0  0  0  0  0
   37.6450   27.4360   42.9380 C   0  0  0  0  0  0  0  0  0  0  0  0
   36.7340   27.9430   41.8740 C   0  0  0  0  0  0  0  0  0  0  0  0
   37.0050   27.8710   44.2750 C   0  0  0  0  0  0  0  0  0  0  0  0
   37.7310   25.9410   42.9810 C   0  0  0  0  0  0  0  0  0  0  0  0
   37.5920   25.2950   41.6880 C   0  0  0  0  0  0  0  0  0  0  0  0
   36.5520   24.4910   41.2310 C   0  0  0  0  0  0  0  0  0  0  0  0
   36.6260   23.9790   39.9610 C   0  0  0  0  0  0  0  0  0  0  0  0
   37.7840   24.3200   39.2060 C   0  0  0  0  0  0  0  0  0  0  0  0
   38.7640   25.3980   40.3740 S   0  0  0  0  0  0  0  0  0  0  0  0
   42.2952   27.8456   43.4810 H   0  0  0  0  0  0  0  0  0  0  0  0
   40.1942   26.4916   43.7659 H   0  0  0  0  0  0  0  0  0  0  0  0
   42.8632   33.6044   41.2277 H   0  0  0  0  0  0  0  0  0  0  0  0
   38.8986   35.0783   39.3836 H   0  0  0  0  0  0  0  0  0  0  0  0
   36.6224   34.1602   39.1673 H   0  0  0  0  0  0  0  0  0  0  0  0
   36.1521   31.8786   40.1145 H   0  0  0  0  0  0  0  0  0  0  0  0
   37.9630   30.6524   41.2246 H   0  0  0  0  0  0  0  0  0  0  0  0
   35.8625   28.4280   42.3379 H   0  0  0  0  0  0  0  0  0  0  0  0
   37.2702   28.6725   41.2492 H   0  0  0  0  0  0  0  0  0  0  0  0
   36.3966   27.1029   41.2492 H   0  0  0  0  0  0  0  0  0  0  0  0
   37.5954   27.4697   45.1119 H   0  0  0  0  0  0  0  0  0  0  0  0
   36.9868   28.9693   44.3326 H   0  0  0  0  0  0  0  0  0  0  0  0
   35.9770   27.4837   44.3326 H   0  0  0  0  0  0  0  0  0  0  0  0
   38.7096   25.6646   43.4003 H   0  0  0  0  0  0  0  0  0  0  0  0
   36.8877   25.5955   43.5970 H   0  0  0  0  0  0  0  0  0  0  0  0
   35.6882   24.2707   41.8754 H   0  0  0  0  0  0  0  0  0  0  0  0
   35.8328   23.3388   39.5475 H   0  0  0  0  0  0  0  0  0  0  0  0
   38.0403   24.0199   38.1792 H   0  0  0  0  0  0  0  0  0  0  0  0
  1  2  2  0
  3 17  1  0
  3  2  1  0
  4  3  2  0
  5  4  1  0
  5  6  2  0
  6  1  1  0
  7  8  2  0
  7  5  1  0
  9  8  1  0
 10  9  2  0
 11 10  1  0
 11 16  2  0
 12 11  1  0
 13 12  2  0
 13 14  1  0
 14 15  2  0
 15 16  1  0
 16  7  1  0
 17 20  1  0
 17 19  1  0
 18 17  1  0
 21 20  1  0
 22 21  2  0
 23 22  1  0
 24 23  2  0
 24 25  1  0
 25 21  1  0
  1 26  1  0
  2 27  1  0
  9 28  1  0
 12 29  1  0
 13 30  1  0
 14 31  1  0
 15 32  1  0
 18 33  1  0
 18 34  1  0
 18 35  1  0
 19 36  1  0
 19 37  1  0
 19 38  1  0
 20 39  1  0
 20 40  1  0
 22 41  1  0
 23 42  1  0
 24 43  1  0
M  ISO  8  26  14  27  14  28  14  29  14  30  14  31  14  32  14  33   8
M  ISO  8  34   8  35   8  36   8  37   8  38   8  39   8  40   8  41  14
M  ISO  2  42  14  43  14
M  END
>  <minimizedAffinity>  (1) 
-5.9872365

>  <minimizedRMSD>  (1) 
3.15115905

$$$$
