
     RDKit          3D

 43 46  0  0  0  0  0  0  0  0999 V2000
   40.6660   29.6120   37.5990 C   0  0  0  0  0  0  0  0  0  0  0  0
   41.4760   30.7240   37.8350 C   0  0  0  0  0  0  0  0  0  0  0  0
   41.0780   31.5510   38.8920 C   0  0  0  0  0  0  0  0  0  0  0  0
   39.9700   31.1780   39.5510 N   0  0  0  0  0  0  0  0  0  0  0  0
   39.2050   30.1410   39.3380 C   0  0  0  0  0  0  0  0  0  0  0  0
   39.5970   29.3710   38.3350 N   0  0  0  0  0  0  0  0  0  0  0  0
   37.9930   29.6450   39.9820 C   0  0  0  0  0  0  0  0  0  0  0  0
   36.7500   29.7910   39.4480 N   0  0  0  0  0  0  0  0  0  0  0  0
   35.6180   29.3580   39.9950 C   0  0  0  0  0  0  0  0  0  0  0  0
   35.6280   28.7250   41.1520 N   0  0  0  0  0  0  0  0  0  0  0  0
   36.7970   28.5200   41.7780 C   0  0  0  0  0  0  0  0  0  0  0  0
   36.8170   27.8540   43.0020 C   0  0  0  0  0  0  0  0  0  0  0  0
   37.9850   27.6300   43.6630 C   0  0  0  0  0  0  0  0  0  0  0  0
   39.1630   28.0870   43.0820 C   0  0  0  0  0  0  0  0  0  0  0  0
   39.0970   28.7410   41.8730 C   0  0  0  0  0  0  0  0  0  0  0  0
   37.9360   28.9850   41.1750 C   0  0  0  0  0  0  0  0  0  0  0  0
   41.7800   32.7760   39.3200 C   0  0  0  0  0  0  0  0  0  0  0  0
   41.6440   33.8740   38.2950 C   0  0  0  0  0  0  0  0  0  0  0  0
   43.2750   32.4790   39.4220 C   0  0  0  0  0  0  0  0  0  0  0  0
   41.3240   33.2680   40.6610 C   0  0  0  0  0  0  0  0  0  0  0  0
   40.6890   34.5610   40.4570 N   0  0  0  0  0  0  0  0  0  0  0  0
   41.2070   35.7760   40.4870 N   0  0  0  0  0  0  0  0  0  0  0  0
   40.2680   36.7140   40.2430 C   0  0  0  0  0  0  0  0  0  0  0  0
   39.0520   36.0700   40.0380 C   0  0  0  0  0  0  0  0  0  0  0  0
   39.3620   34.7270   40.1810 C   0  0  0  0  0  0  0  0  0  0  0  0
   40.9240   28.9218   36.7823 H   0  0  0  0  0  0  0  0  0  0  0  0
   42.3694   30.9367   37.2295 H   0  0  0  0  0  0  0  0  0  0  0  0
   34.6629   29.5296   39.4769 H   0  0  0  0  0  0  0  0  0  0  0  0
   35.8717   27.5031   43.4416 H   0  0  0  0  0  0  0  0  0  0  0  0
   37.9972   27.1030   44.6285 H   0  0  0  0  0  0  0  0  0  0  0  0
   40.1308   27.9284   43.5802 H   0  0  0  0  0  0  0  0  0  0  0  0
   40.0408   29.0945   41.4323 H   0  0  0  0  0  0  0  0  0  0  0  0
   41.5243   34.8404   38.8066 H   0  0  0  0  0  0  0  0  0  0  0  0
   42.5456   33.9016   37.6654 H   0  0  0  0  0  0  0  0  0  0  0  0
   40.7629   33.6808   37.6654 H   0  0  0  0  0  0  0  0  0  0  0  0
   43.5659   32.4212   40.4813 H   0  0  0  0  0  0  0  0  0  0  0  0
   43.4928   31.5200   38.9291 H   0  0  0  0  0  0  0  0  0  0  0  0
   43.8428   33.2819   38.9291 H   0  0  0  0  0  0  0  0  0  0  0  0
   40.6036   32.5598   41.0963 H   0  0  0  0  0  0  0  0  0  0  0  0
   42.1753   33.3580   41.3518 H   0  0  0  0  0  0  0  0  0  0  0  0
   40.4353   37.8008   40.2116 H   0  0  0  0  0  0  0  0  0  0  0  0
   38.0739   36.5211   39.8148 H   0  0  0  0  0  0  0  0  0  0  0  0
   38.6369   33.9054   40.0851 H   0  0  0  0  0  0  0  0  0  0  0  0
  1  2  2  0
  1  6  1  0
  2  3  1  0
  3 17  1  0
  3  4  2  0
  5  4  1  0
  5  7  1  0
  6  5  2  0
  7 16  1  0
  8  7  2  0
  8  9  1  0
  9 10  2  0
 10 11  1  0
 11 12  1  0
 12 13  2  0
 14 13  1  0
 15 14  2  0
 16 11  2  0
 16 15  1  0
 17 19  1  0
 17 20  1  0
 18 17  1  0
 21 22  1  0
 21 20  1  0
 23 22  2  0
 24 25  2  0
 24 23  1  0
 25 21  1  0
  1 26  1  0
  2 27  1  0
  9 28  1  0
 12 29  1  0
 13 30  1  0
 14 31  1  0
 15 32  1  0
 18 33  1  0
 18 34  1  0
 18 35  1  0
 19 36  1  0
 19 37  1  0
 19 38  1  0
 20 39  1  0
 20 40  1  0
 23 41  1  0
 24 42  1  0
 25 43  1  0
M  ISO  8  26  14  27  14  28  14  29  14  30  14  31  14  32  14  33   8
M  ISO  8  34   8  35   8  36   8  37   8  38   8  39   8  40   8  41  14
M  ISO  2  42  14  43  14
M  END
>  <minimizedAffinity>  (1) 
-5.84356403

>  <minimizedRMSD>  (1) 
7.52835369

$$$$
