
     RDKit          3D

 44 47  0  0  0  0  0  0  0  0999 V2000
   40.1360   27.5180   39.2540 C   0  0  0  0  0  0  0  0  0  0  0  0
   39.4960   26.6790   40.1590 C   0  0  0  0  0  0  0  0  0  0  0  0
   39.0550   27.2840   41.3390 C   0  0  0  0  0  0  0  0  0  0  0  0
   39.3000   28.5930   41.4580 N   0  0  0  0  0  0  0  0  0  0  0  0
   39.8990   29.4050   40.6250 C   0  0  0  0  0  0  0  0  0  0  0  0
   40.3110   28.8060   39.5080 N   0  0  0  0  0  0  0  0  0  0  0  0
   40.2190   30.8190   40.6420 C   0  0  0  0  0  0  0  0  0  0  0  0
   41.4400   31.3160   40.9810 N   0  0  0  0  0  0  0  0  0  0  0  0
   41.7710   32.5930   41.0080 C   0  0  0  0  0  0  0  0  0  0  0  0
   40.9040   33.5290   40.6960 N   0  0  0  0  0  0  0  0  0  0  0  0
   39.6520   33.1730   40.3400 C   0  0  0  0  0  0  0  0  0  0  0  0
   38.7140   34.1500   40.0050 C   0  0  0  0  0  0  0  0  0  0  0  0
   37.4470   33.8170   39.6450 C   0  0  0  0  0  0  0  0  0  0  0  0
   37.1110   32.4690   39.6200 C   0  0  0  0  0  0  0  0  0  0  0  0
   38.0740   31.5410   39.9600 C   0  0  0  0  0  0  0  0  0  0  0  0
   39.3580   31.8350   40.3270 C   0  0  0  0  0  0  0  0  0  0  0  0
   38.3530   26.6000   42.4370 C   0  0  0  0  0  0  0  0  0  0  0  0
   36.9320   26.2710   42.0630 C   0  0  0  0  0  0  0  0  0  0  0  0
   38.2680   27.5390   43.6380 C   0  0  0  0  0  0  0  0  0  0  0  0
   39.0730   25.3650   42.9120 C   0  0  0  0  0  0  0  0  0  0  0  0
   40.4500   25.7180   43.3510 C   0  0  0  0  0  0  0  0  0  0  0  0
   41.5270   25.0520   42.7990 C   0  0  0  0  0  0  0  0  0  0  0  0
   42.7960   25.4240   43.2490 C   0  0  0  0  0  0  0  0  0  0  0  0
   43.0210   26.3780   44.1750 N   0  0  0  0  0  0  0  0  0  0  0  0
   41.9330   26.9950   44.6800 C   0  0  0  0  0  0  0  0  0  0  0  0
   40.6860   26.6770   44.2840 N   0  0  0  0  0  0  0  0  0  0  0  0
   40.5056   27.1025   38.3049 H   0  0  0  0  0  0  0  0  0  0  0  0
   39.3463   25.6077   39.9591 H   0  0  0  0  0  0  0  0  0  0  0  0
   42.7929   32.8793   41.2974 H   0  0  0  0  0  0  0  0  0  0  0  0
   39.0059   35.2102   40.0329 H   0  0  0  0  0  0  0  0  0  0  0  0
   36.7103   34.5902   39.3816 H   0  0  0  0  0  0  0  0  0  0  0  0
   36.0981   32.1482   39.3350 H   0  0  0  0  0  0  0  0  0  0  0  0
   37.7857   30.4798   39.9337 H   0  0  0  0  0  0  0  0  0  0  0  0
   36.3350   26.1328   42.9765 H   0  0  0  0  0  0  0  0  0  0  0  0
   36.5089   27.0949   41.4696 H   0  0  0  0  0  0  0  0  0  0  0  0
   36.9140   25.3449   41.4696 H   0  0  0  0  0  0  0  0  0  0  0  0
   38.3211   26.9521   44.5668 H   0  0  0  0  0  0  0  0  0  0  0  0
   39.1053   28.2517   43.6062 H   0  0  0  0  0  0  0  0  0  0  0  0
   37.3163   28.0897   43.6062 H   0  0  0  0  0  0  0  0  0  0  0  0
   38.5228   24.9243   43.7565 H   0  0  0  0  0  0  0  0  0  0  0  0
   39.1310   24.6401   42.0867 H   0  0  0  0  0  0  0  0  0  0  0  0
   41.3918   24.2662   42.0412 H   0  0  0  0  0  0  0  0  0  0  0  0
   43.6668   24.9059   42.8209 H   0  0  0  0  0  0  0  0  0  0  0  0
   42.0685   27.7810   45.4375 H   0  0  0  0  0  0  0  0  0  0  0  0
  1  6  2  0
  1  2  1  0
  2  3  2  0
  3  4  1  0
  3 17  1  0
  5  7  1  0
  5  4  2  0
  6  5  1  0
  7  8  2  0
  8  9  1  0
 10  9  2  0
 11 10  1  0
 12 11  2  0
 13 12  1  0
 14 13  2  0
 14 15  1  0
 15 16  2  0
 16 11  1  0
 16  7  1  0
 17 20  1  0
 17 19  1  0
 18 17  1  0
 20 21  1  0
 21 26  2  0
 22 23  2  0
 22 21  1  0
 23 24  1  0
 24 25  2  0
 26 25  1  0
  1 27  1  0
  2 28  1  0
  9 29  1  0
 12 30  1  0
 13 31  1  0
 14 32  1  0
 15 33  1  0
 18 34  1  0
 18 35  1  0
 18 36  1  0
 19 37  1  0
 19 38  1  0
 19 39  1  0
 20 40  1  0
 20 41  1  0
 22 42  1  0
 23 43  1  0
 25 44  1  0
M  ISO  8  27  14  28  14  29  14  30  14  31  14  32  14  33  14  34   8
M  ISO  8  35   8  36   8  37   8  38   8  39   8  40   8  41   8  42  14
M  ISO  2  43  14  44  14
M  END
>  <minimizedAffinity>  (1) 
-5.77114439

>  <minimizedRMSD>  (1) 
2.94806767

$$$$
