
     RDKit          3D

 43 45  0  0  0  0  0  0  0  0999 V2000
   42.8010   29.5480   42.2360 C   0  0  0  0  0  0  0  0  0  0  0  0
   43.6980   29.0880   43.1970 C   0  0  0  0  0  0  0  0  0  0  0  0
   43.1710   28.2310   44.1670 C   0  0  0  0  0  0  0  0  0  0  0  0
   41.8660   27.9590   44.0490 N   0  0  0  0  0  0  0  0  0  0  0  0
   41.0010   28.3720   43.1640 C   0  0  0  0  0  0  0  0  0  0  0  0
   41.5340   29.1880   42.2530 N   0  0  0  0  0  0  0  0  0  0  0  0
   39.5870   28.1440   42.9470 C   0  0  0  0  0  0  0  0  0  0  0  0
   38.6510   29.1150   42.9500 N   0  0  0  0  0  0  0  0  0  0  0  0
   37.3530   28.9550   42.7560 C   0  0  0  0  0  0  0  0  0  0  0  0
   36.8560   27.7560   42.5350 N   0  0  0  0  0  0  0  0  0  0  0  0
   37.6740   26.6940   42.5040 C   0  0  0  0  0  0  0  0  0  0  0  0
   37.1560   25.4230   42.2700 C   0  0  0  0  0  0  0  0  0  0  0  0
   37.9720   24.3200   42.2340 C   0  0  0  0  0  0  0  0  0  0  0  0
   39.3220   24.5180   42.4390 C   0  0  0  0  0  0  0  0  0  0  0  0
   39.7990   25.7910   42.6680 C   0  0  0  0  0  0  0  0  0  0  0  0
   39.0180   26.9090   42.7110 C   0  0  0  0  0  0  0  0  0  0  0  0
   43.9330   27.6190   45.2860 C   0  0  0  0  0  0  0  0  0  0  0  0
   44.5900   26.3440   44.8680 C   0  0  0  0  0  0  0  0  0  0  0  0
   42.9460   27.2760   46.4070 C   0  0  0  0  0  0  0  0  0  0  0  0
   44.9260   28.6020   45.8770 C   0  0  0  0  0  0  0  0  0  0  0  0
   45.3450   28.0210   47.1620 N   0  0  0  0  0  0  0  0  0  0  0  0
   45.9800   28.8860   48.1250 C   0  0  0  0  0  0  0  0  0  0  0  0
   45.5740   30.1180   48.2070 N   0  0  0  0  0  0  0  0  0  0  0  0
   47.0270   28.3570   48.9480 N   0  0  0  0  0  0  0  0  0  0  0  0
   46.0590   30.7120   48.9160 H   0  0  0  0  0  0  0  0  0  0  0  0
   43.1579   30.2258   41.4466 H   0  0  0  0  0  0  0  0  0  0  0  0
   44.7581   29.3817   43.1928 H   0  0  0  0  0  0  0  0  0  0  0  0
   36.6847   29.8284   42.7794 H   0  0  0  0  0  0  0  0  0  0  0  0
   36.0744   25.3008   42.1113 H   0  0  0  0  0  0  0  0  0  0  0  0
   37.5647   23.3152   42.0485 H   0  0  0  0  0  0  0  0  0  0  0  0
   40.0147   23.6637   42.4198 H   0  0  0  0  0  0  0  0  0  0  0  0
   40.8806   25.9135   42.8265 H   0  0  0  0  0  0  0  0  0  0  0  0
   44.8842   25.7731   45.7611 H   0  0  0  0  0  0  0  0  0  0  0  0
   43.8864   25.7486   44.2676 H   0  0  0  0  0  0  0  0  0  0  0  0
   45.4832   26.5714   44.2676 H   0  0  0  0  0  0  0  0  0  0  0  0
   43.4264   27.4430   47.3823 H   0  0  0  0  0  0  0  0  0  0  0  0
   42.0567   27.9178   46.3217 H   0  0  0  0  0  0  0  0  0  0  0  0
   42.6464   26.2210   46.3217 H   0  0  0  0  0  0  0  0  0  0  0  0
   45.7920   28.7205   45.2092 H   0  0  0  0  0  0  0  0  0  0  0  0
   44.4807   29.5992   46.0084 H   0  0  0  0  0  0  0  0  0  0  0  0
   45.1890   27.0239   47.3680 H   0  0  0  0  0  0  0  0  0  0  0  0
   47.4918   28.9605   49.6413 H   0  0  0  0  0  0  0  0  0  0  0  0
   47.3148   27.3733   48.8463 H   0  0  0  0  0  0  0  0  0  0  0  0
  1  6  2  0
  1  2  1  0
  2  3  2  0
  3 17  1  0
  4  3  1  0
  5  4  2  0
  6  5  1  0
  7  8  2  0
  7  5  1  0
  9  8  1  0
 10  9  2  0
 11 10  1  0
 11 16  2  0
 12 11  1  0
 13 12  2  0
 13 14  1  0
 14 15  2  0
 15 16  1  0
 16  7  1  0
 17 20  1  0
 17 19  1  0
 18 17  1  0
 20 21  1  0
 21 22  1  0
 22 23  2  0
 22 24  1  0
 23 25  1  0
  1 26  1  0
  2 27  1  0
  9 28  1  0
 12 29  1  0
 13 30  1  0
 14 31  1  0
 15 32  1  0
 18 33  1  0
 18 34  1  0
 18 35  1  0
 19 36  1  0
 19 37  1  0
 19 38  1  0
 20 39  1  0
 20 40  1  0
 21 41  1  0
 24 42  1  0
 24 43  1  0
M  ISO  8  26  14  27  14  28  14  29  14  30  14  31  14  32  14  33   8
M  ISO  7  34   8  35   8  36   8  37   8  38   8  39   8  40   8
M  END
>  <minimizedAffinity>  (1) 
-5.43596268

>  <minimizedRMSD>  (1) 
5.42544317

$$$$
