
     RDKit          3D

 50 53  0  0  0  0  0  0  0  0999 V2000
   42.0170   29.9870   42.5030 C   0  0  0  0  0  0  0  0  0  0  0  0
   41.6220   28.7460   42.9940 C   0  0  0  0  0  0  0  0  0  0  0  0
   40.3130   28.3780   42.7260 C   0  0  0  0  0  0  0  0  0  0  0  0
   39.5820   29.2540   42.0310 N   0  0  0  0  0  0  0  0  0  0  0  0
   39.9350   30.4350   41.5570 C   0  0  0  0  0  0  0  0  0  0  0  0
   41.1830   30.7580   41.8260 N   0  0  0  0  0  0  0  0  0  0  0  0
   39.2250   31.4620   40.7960 C   0  0  0  0  0  0  0  0  0  0  0  0
   39.0900   32.7480   41.2160 N   0  0  0  0  0  0  0  0  0  0  0  0
   38.4580   33.7050   40.5640 C   0  0  0  0  0  0  0  0  0  0  0  0
   37.8880   33.4710   39.4080 N   0  0  0  0  0  0  0  0  0  0  0  0
   37.9440   32.2290   38.8670 C   0  0  0  0  0  0  0  0  0  0  0  0
   37.3460   31.9650   37.6520 C   0  0  0  0  0  0  0  0  0  0  0  0
   37.3870   30.7280   37.0930 C   0  0  0  0  0  0  0  0  0  0  0  0
   38.0570   29.7250   37.7880 C   0  0  0  0  0  0  0  0  0  0  0  0
   38.6420   30.0310   39.0010 C   0  0  0  0  0  0  0  0  0  0  0  0
   38.6170   31.2760   39.5930 C   0  0  0  0  0  0  0  0  0  0  0  0
   39.6650   27.1160   43.1690 C   0  0  0  0  0  0  0  0  0  0  0  0
   38.3390   27.3980   43.8410 C   0  0  0  0  0  0  0  0  0  0  0  0
   40.5170   26.4660   44.2590 C   0  0  0  0  0  0  0  0  0  0  0  0
   39.5330   26.1220   42.0680 C   0  0  0  0  0  0  0  0  0  0  0  0
   38.2140   25.5780   41.8530 N   0  0  0  0  0  0  0  0  0  0  0  0
   38.0310   25.6150   40.3870 C   0  0  0  0  0  0  0  0  0  0  0  0
   36.6010   25.1910   40.1670 C   0  0  0  0  0  0  0  0  0  0  0  0
   36.6010   23.7330   40.3080 N   0  0  0  0  0  0  0  0  0  0  0  0
   37.8070   23.2960   40.9680 C   0  0  0  0  0  0  0  0  0  0  0  0
   38.1720   24.1510   42.1660 C   0  0  0  0  0  0  0  0  0  0  0  0
   43.0454   30.3339   42.6821 H   0  0  0  0  0  0  0  0  0  0  0  0
   42.3067   28.0972   43.5599 H   0  0  0  0  0  0  0  0  0  0  0  0
   38.4089   34.7147   40.9976 H   0  0  0  0  0  0  0  0  0  0  0  0
   36.8235   32.7759   37.1234 H   0  0  0  0  0  0  0  0  0  0  0  0
   36.9072   30.5255   36.1241 H   0  0  0  0  0  0  0  0  0  0  0  0
   38.1194   28.7062   37.3780 H   0  0  0  0  0  0  0  0  0  0  0  0
   39.1657   29.2232   39.5333 H   0  0  0  0  0  0  0  0  0  0  0  0
   38.4682   27.3705   44.9330 H   0  0  0  0  0  0  0  0  0  0  0  0
   37.9792   28.3927   43.5393 H   0  0  0  0  0  0  0  0  0  0  0  0
   37.6056   26.6357   43.5393 H   0  0  0  0  0  0  0  0  0  0  0  0
   40.1334   26.7586   45.2475 H   0  0  0  0  0  0  0  0  0  0  0  0
   40.4706   25.3717   44.1569 H   0  0  0  0  0  0  0  0  0  0  0  0
   41.5601   26.7999   44.1569 H   0  0  0  0  0  0  0  0  0  0  0  0
   39.8501   26.6110   41.1351 H   0  0  0  0  0  0  0  0  0  0  0  0
   40.1576   25.2675   42.3677 H   0  0  0  0  0  0  0  0  0  0  0  0
   38.1976   26.6316   40.0012 H   0  0  0  0  0  0  0  0  0  0  0  0
   38.7435   24.9611   39.8628 H   0  0  0  0  0  0  0  0  0  0  0  0
   36.2644   25.4802   39.1605 H   0  0  0  0  0  0  0  0  0  0  0  0
   35.9175   25.6710   40.8828 H   0  0  0  0  0  0  0  0  0  0  0  0
   35.7845   23.4452   40.8660 H   0  0  0  0  0  0  0  0  0  0  0  0
   37.6643   22.2596   41.3079 H   0  0  0  0  0  0  0  0  0  0  0  0
   38.6283   23.3814   40.2413 H   0  0  0  0  0  0  0  0  0  0  0  0
   39.1632   23.8418   42.5293 H   0  0  0  0  0  0  0  0  0  0  0  0
   37.3928   24.0024   42.9281 H   0  0  0  0  0  0  0  0  0  0  0  0
  1  2  2  0
  3  2  1  0
  3 17  1  0
  4  3  2  0
  5  6  2  0
  5  4  1  0
  6  1  1  0
  7  8  2  0
  7  5  1  0
  9  8  1  0
 10  9  2  0
 11 10  1  0
 11 16  2  0
 12 11  1  0
 13 12  2  0
 13 14  1  0
 14 15  2  0
 15 16  1  0
 16  7  1  0
 17 18  1  0
 17 19  1  0
 20 17  1  0
 21 20  1  0
 21 26  1  0
 22 21  1  0
 23 24  1  0
 23 22  1  0
 24 25  1  0
 25 26  1  0
  1 27  1  0
  2 28  1  0
  9 29  1  0
 12 30  1  0
 13 31  1  0
 14 32  1  0
 15 33  1  0
 18 34  1  0
 18 35  1  0
 18 36  1  0
 19 37  1  0
 19 38  1  0
 19 39  1  0
 20 40  1  0
 20 41  1  0
 22 42  1  0
 22 43  1  0
 23 44  1  0
 23 45  1  0
 24 46  1  0
 25 47  1  0
 25 48  1  0
 26 49  1  0
 26 50  1  0
M  ISO  8  27  14  28  14  29  14  30  14  31  14  32  14  33  14  34   8
M  ISO  8  35   8  36   8  37   8  38   8  39   8  40   8  41   8  42  13
M  ISO  8  43  13  44  13  45  13  46   5  47  13  48  13  49  13  50  13
M  END
>  <minimizedAffinity>  (1) 
-5.37226486

>  <minimizedRMSD>  (1) 
3.03301859

$$$$
