
     RDKit          3D

 45 48  0  0  0  0  0  0  0  0999 V2000
   42.5630   28.4710   40.2540 C   0  0  0  0  0  0  0  0  0  0  0  0
   42.7800   27.4550   41.1850 C   0  0  0  0  0  0  0  0  0  0  0  0
   41.7990   27.3290   42.1720 C   0  0  0  0  0  0  0  0  0  0  0  0
   40.7760   28.1830   42.1160 N   0  0  0  0  0  0  0  0  0  0  0  0
   40.5540   29.1430   41.2500 C   0  0  0  0  0  0  0  0  0  0  0  0
   41.4960   29.2510   40.3160 N   0  0  0  0  0  0  0  0  0  0  0  0
   39.4960   30.1260   41.0820 C   0  0  0  0  0  0  0  0  0  0  0  0
   39.6940   31.4620   41.0350 N   0  0  0  0  0  0  0  0  0  0  0  0
   38.7650   32.3790   40.8850 C   0  0  0  0  0  0  0  0  0  0  0  0
   37.4910   32.0470   40.7620 N   0  0  0  0  0  0  0  0  0  0  0  0
   37.1460   30.7460   40.7910 C   0  0  0  0  0  0  0  0  0  0  0  0
   35.8110   30.3750   40.6650 C   0  0  0  0  0  0  0  0  0  0  0  0
   35.4350   29.0650   40.6910 C   0  0  0  0  0  0  0  0  0  0  0  0
   36.4300   28.1150   40.8490 C   0  0  0  0  0  0  0  0  0  0  0  0
   37.7380   28.5160   40.9730 C   0  0  0  0  0  0  0  0  0  0  0  0
   38.1530   29.8250   40.9500 C   0  0  0  0  0  0  0  0  0  0  0  0
   41.8150   26.3190   43.2690 C   0  0  0  0  0  0  0  0  0  0  0  0
   41.2640   25.0050   42.8030 C   0  0  0  0  0  0  0  0  0  0  0  0
   40.9030   26.8070   44.3900 C   0  0  0  0  0  0  0  0  0  0  0  0
   43.1950   26.1480   43.8600 C   0  0  0  0  0  0  0  0  0  0  0  0
   43.3790   27.1750   44.9200 C   0  0  0  0  0  0  0  0  0  0  0  0
   43.8420   28.4410   44.6000 C   0  0  0  0  0  0  0  0  0  0  0  0
   44.0390   29.4540   45.5360 C   0  0  0  0  0  0  0  0  0  0  0  0
   43.7520   29.1640   46.8590 C   0  0  0  0  0  0  0  0  0  0  0  0
   43.2930   27.9040   47.1660 C   0  0  0  0  0  0  0  0  0  0  0  0
   43.1190   26.9640   46.2360 N   0  0  0  0  0  0  0  0  0  0  0  0
   43.2964   28.6274   39.4492 H   0  0  0  0  0  0  0  0  0  0  0  0
   43.6619   26.7988   41.1449 H   0  0  0  0  0  0  0  0  0  0  0  0
   39.0519   33.4407   40.8614 H   0  0  0  0  0  0  0  0  0  0  0  0
   35.0441   31.1539   40.5420 H   0  0  0  0  0  0  0  0  0  0  0  0
   34.3793   28.7731   40.5901 H   0  0  0  0  0  0  0  0  0  0  0  0
   36.1745   27.0454   40.8751 H   0  0  0  0  0  0  0  0  0  0  0  0
   38.5041   27.7367   41.0991 H   0  0  0  0  0  0  0  0  0  0  0  0
   41.0046   24.3863   43.6747 H   0  0  0  0  0  0  0  0  0  0  0  0
   40.3633   25.1796   42.1962 H   0  0  0  0  0  0  0  0  0  0  0  0
   42.0198   24.4849   42.1962 H   0  0  0  0  0  0  0  0  0  0  0  0
   41.3558   26.5647   45.3628 H   0  0  0  0  0  0  0  0  0  0  0  0
   40.7715   27.8960   44.3078 H   0  0  0  0  0  0  0  0  0  0  0  0
   39.9240   26.3122   44.3078 H   0  0  0  0  0  0  0  0  0  0  0  0
   43.2913   25.1425   44.2955 H   0  0  0  0  0  0  0  0  0  0  0  0
   43.9598   26.2683   43.0786 H   0  0  0  0  0  0  0  0  0  0  0  0
   44.0672   28.6590   43.5456 H   0  0  0  0  0  0  0  0  0  0  0  0
   44.4082   30.4457   45.2355 H   0  0  0  0  0  0  0  0  0  0  0  0
   43.8875   29.9218   47.6447 H   0  0  0  0  0  0  0  0  0  0  0  0
   43.0616   27.6636   48.2142 H   0  0  0  0  0  0  0  0  0  0  0  0
  1  6  2  0
  1  2  1  0
  2  3  2  0
  3 17  1  0
  4  3  1  0
  5  4  2  0
  6  5  1  0
  7  5  1  0
  8  7  2  0
  9  8  1  0
 10 11  1  0
 10  9  2  0
 11 16  2  0
 12 13  2  0
 12 11  1  0
 13 14  1  0
 14 15  2  0
 16 15  1  0
 16  7  1  0
 17 20  1  0
 17 19  1  0
 18 17  1  0
 20 21  1  0
 21 26  1  0
 22 21  2  0
 22 23  1  0
 23 24  2  0
 24 25  1  0
 26 25  2  0
  1 27  1  0
  2 28  1  0
  9 29  1  0
 12 30  1  0
 13 31  1  0
 14 32  1  0
 15 33  1  0
 18 34  1  0
 18 35  1  0
 18 36  1  0
 19 37  1  0
 19 38  1  0
 19 39  1  0
 20 40  1  0
 20 41  1  0
 22 42  1  0
 23 43  1  0
 24 44  1  0
 25 45  1  0
M  ISO  8  27  14  28  14  29  14  30  14  31  14  32  14  33  14  34   8
M  ISO  8  35   8  36   8  37   8  38   8  39   8  40   8  41   8  42  14
M  ISO  3  43  14  44  14  45  14
M  END
>  <minimizedAffinity>  (1) 
-5.24824953

>  <minimizedRMSD>  (1) 
2.71973944

$$$$
