
     RDKit          3D

 38 40  0  0  0  0  0  0  0  0999 V2000
   42.7420   29.1140   41.1010 C   0  0  0  0  0  0  0  0  0  0  0  0
   42.4320   27.9410   41.7800 C   0  0  0  0  0  0  0  0  0  0  0  0
   41.0990   27.7590   42.1080 C   0  0  0  0  0  0  0  0  0  0  0  0
   40.2490   28.7300   41.7370 N   0  0  0  0  0  0  0  0  0  0  0  0
   40.5190   29.8480   41.0940 C   0  0  0  0  0  0  0  0  0  0  0  0
   41.8020   29.9930   40.7950 N   0  0  0  0  0  0  0  0  0  0  0  0
   39.7050   30.9660   40.6400 C   0  0  0  0  0  0  0  0  0  0  0  0
   39.6180   32.1490   41.3000 N   0  0  0  0  0  0  0  0  0  0  0  0
   38.8990   33.1900   40.9330 C   0  0  0  0  0  0  0  0  0  0  0  0
   38.1710   33.1450   39.8300 N   0  0  0  0  0  0  0  0  0  0  0  0
   38.1710   32.0280   39.0830 C   0  0  0  0  0  0  0  0  0  0  0  0
   37.4050   31.9700   37.9160 C   0  0  0  0  0  0  0  0  0  0  0  0
   37.3830   30.8530   37.1390 C   0  0  0  0  0  0  0  0  0  0  0  0
   38.1530   29.7660   37.5500 C   0  0  0  0  0  0  0  0  0  0  0  0
   38.8900   29.8660   38.7050 C   0  0  0  0  0  0  0  0  0  0  0  0
   38.9370   30.9740   39.5130 C   0  0  0  0  0  0  0  0  0  0  0  0
   40.5320   26.5970   42.8260 C   0  0  0  0  0  0  0  0  0  0  0  0
   39.9640   25.5830   41.8960 C   0  0  0  0  0  0  0  0  0  0  0  0
   39.3760   27.0730   43.7110 C   0  0  0  0  0  0  0  0  0  0  0  0
   41.5430   25.9570   43.7590 C   0  0  0  0  0  0  0  0  0  0  0  0
   41.6130   26.6740   45.0190 N   0  0  0  0  0  0  0  0  0  0  0  0
   43.7848   29.3142   40.8139 H   0  0  0  0  0  0  0  0  0  0  0  0
   43.2016   27.1999   42.0417 H   0  0  0  0  0  0  0  0  0  0  0  0
   38.9042   34.1022   41.5478 H   0  0  0  0  0  0  0  0  0  0  0  0
   36.8077   32.8448   37.6193 H   0  0  0  0  0  0  0  0  0  0  0  0
   36.7797   30.8094   36.2202 H   0  0  0  0  0  0  0  0  0  0  0  0
   38.1702   28.8398   36.9569 H   0  0  0  0  0  0  0  0  0  0  0  0
   39.4873   28.9922   39.0046 H   0  0  0  0  0  0  0  0  0  0  0  0
   39.5074   24.7679   42.4767 H   0  0  0  0  0  0  0  0  0  0  0  0
   39.1988   26.0548   41.2620 H   0  0  0  0  0  0  0  0  0  0  0  0
   40.7660   25.1769   41.2620 H   0  0  0  0  0  0  0  0  0  0  0  0
   39.6534   26.9588   44.7693 H   0  0  0  0  0  0  0  0  0  0  0  0
   39.1642   28.1315   43.4996 H   0  0  0  0  0  0  0  0  0  0  0  0
   38.4803   26.4705   43.4996 H   0  0  0  0  0  0  0  0  0  0  0  0
   41.2450   24.9161   43.9533 H   0  0  0  0  0  0  0  0  0  0  0  0
   42.5329   25.9909   43.2804 H   0  0  0  0  0  0  0  0  0  0  0  0
   41.5476   26.0046   45.7991 H   0  0  0  0  0  0  0  0  0  0  0  0
   42.5075   27.1814   45.0761 H   0  0  0  0  0  0  0  0  0  0  0  0
  1  2  2  0
  2  3  1  0
  3 17  1  0
  4  3  2  0
  5  4  1  0
  6  5  2  0
  6  1  1  0
  7  5  1  0
  7  8  2  0
  9  8  1  0
 10  9  2  0
 11 16  2  0
 11 10  1  0
 12 11  1  0
 13 14  1  0
 13 12  2  0
 14 15  2  0
 15 16  1  0
 16  7  1  0
 17 19  1  0
 17 20  1  0
 18 17  1  0
 20 21  1  0
  1 22  1  0
  2 23  1  0
  9 24  1  0
 12 25  1  0
 13 26  1  0
 14 27  1  0
 15 28  1  0
 18 29  1  0
 18 30  1  0
 18 31  1  0
 19 32  1  0
 19 33  1  0
 19 34  1  0
 20 35  1  0
 20 36  1  0
 21 37  1  0
 21 38  1  0
M  ISO  8  22  14  23  14  24  14  25  14  26  14  27  14  28  14  29   8
M  ISO  8  30   8  31   8  32   8  33   8  34   8  35   8  36   8  37   5
M  ISO  1  38   5
M  END
>  <minimizedAffinity>  (1) 
-4.39830637

>  <minimizedRMSD>  (1) 
1.08883464

$$$$
