
     RDKit          3D

 53 56  0  0  0  0  0  0  0  0999 V2000
   42.3160   30.3240   42.7030 C   0  0  0  0  0  0  0  0  0  0  0  0
   42.0580   29.0000   43.0900 C   0  0  0  0  0  0  0  0  0  0  0  0
   40.8310   28.4850   42.7180 C   0  0  0  0  0  0  0  0  0  0  0  0
   40.0340   29.3000   42.0340 N   0  0  0  0  0  0  0  0  0  0  0  0
   40.2290   30.5390   41.6480 C   0  0  0  0  0  0  0  0  0  0  0  0
   41.4110   31.0100   42.0180 N   0  0  0  0  0  0  0  0  0  0  0  0
   39.4410   31.4980   40.9010 C   0  0  0  0  0  0  0  0  0  0  0  0
   39.2370   32.7770   41.3020 N   0  0  0  0  0  0  0  0  0  0  0  0
   38.5230   33.6830   40.6520 C   0  0  0  0  0  0  0  0  0  0  0  0
   37.9280   33.3830   39.5050 N   0  0  0  0  0  0  0  0  0  0  0  0
   38.0510   32.1480   38.9970 C   0  0  0  0  0  0  0  0  0  0  0  0
   37.4400   31.8190   37.8010 C   0  0  0  0  0  0  0  0  0  0  0  0
   37.5490   30.5800   37.2570 C   0  0  0  0  0  0  0  0  0  0  0  0
   38.3000   29.6400   37.9480 C   0  0  0  0  0  0  0  0  0  0  0  0
   38.8960   30.0040   39.1410 C   0  0  0  0  0  0  0  0  0  0  0  0
   38.8080   31.2490   39.7200 C   0  0  0  0  0  0  0  0  0  0  0  0
   40.3590   27.1070   43.0380 C   0  0  0  0  0  0  0  0  0  0  0  0
   38.8580   27.1130   43.1600 C   0  0  0  0  0  0  0  0  0  0  0  0
   40.9120   26.7030   44.3890 C   0  0  0  0  0  0  0  0  0  0  0  0
   40.7860   26.1090   42.0080 C   0  0  0  0  0  0  0  0  0  0  0  0
   40.1570   26.3540   40.4010 S   0  0  0  0  0  0  0  0  0  0  0  0
   38.8740   25.3020   39.7750 C   0  0  0  0  0  0  0  0  0  0  0  0
   37.4910   25.9570   39.8500 C   0  0  0  0  0  0  0  0  0  0  0  0
   36.4040   24.9090   39.7180 C   0  0  0  0  0  0  0  0  0  0  0  0
   36.4020   23.9880   40.9360 C   0  0  0  0  0  0  0  0  0  0  0  0
   37.8200   23.9870   41.5470 C   0  0  0  0  0  0  0  0  0  0  0  0
   38.7520   23.9380   40.3260 C   0  0  0  0  0  0  0  0  0  0  0  0
   43.2737   30.7952   42.9691 H   0  0  0  0  0  0  0  0  0  0  0  0
   42.7904   28.4064   43.6568 H   0  0  0  0  0  0  0  0  0  0  0  0
   38.4220   34.6963   41.0680 H   0  0  0  0  0  0  0  0  0  0  0  0
   36.8486   32.5831   37.2753 H   0  0  0  0  0  0  0  0  0  0  0  0
   37.0601   30.3306   36.3037 H   0  0  0  0  0  0  0  0  0  0  0  0
   38.4193   28.6205   37.5525 H   0  0  0  0  0  0  0  0  0  0  0  0
   39.4859   29.2395   39.6679 H   0  0  0  0  0  0  0  0  0  0  0  0
   38.5766   27.1141   44.2234 H   0  0  0  0  0  0  0  0  0  0  0  0
   38.4541   28.0128   42.6729 H   0  0  0  0  0  0  0  0  0  0  0  0
   38.4469   26.2165   42.6729 H   0  0  0  0  0  0  0  0  0  0  0  0
   40.2989   27.1509   45.1850 H   0  0  0  0  0  0  0  0  0  0  0  0
   40.8895   25.6071   44.4816 H   0  0  0  0  0  0  0  0  0  0  0  0
   41.9492   27.0576   44.4816 H   0  0  0  0  0  0  0  0  0  0  0  0
   41.8840   26.1363   41.9476 H   0  0  0  0  0  0  0  0  0  0  0  0
   40.3779   25.1439   42.3426 H   0  0  0  0  0  0  0  0  0  0  0  0
   39.2235   25.1729   38.7400 H   0  0  0  0  0  0  0  0  0  0  0  0
   37.3846   26.4701   40.8171 H   0  0  0  0  0  0  0  0  0  0  0  0
   37.3926   26.6798   39.0267 H   0  0  0  0  0  0  0  0  0  0  0  0
   35.4269   25.4081   39.6394 H   0  0  0  0  0  0  0  0  0  0  0  0
   36.5951   24.3082   38.8166 H   0  0  0  0  0  0  0  0  0  0  0  0
   35.6777   24.3548   41.6782 H   0  0  0  0  0  0  0  0  0  0  0  0
   36.1173   22.9679   40.6387 H   0  0  0  0  0  0  0  0  0  0  0  0
   37.9931   24.9008   42.1344 H   0  0  0  0  0  0  0  0  0  0  0  0
   37.9826   23.1461   42.2372 H   0  0  0  0  0  0  0  0  0  0  0  0
   38.3301   23.2663   39.5639 H   0  0  0  0  0  0  0  0  0  0  0  0
   39.7421   23.5612   40.6224 H   0  0  0  0  0  0  0  0  0  0  0  0
  1  2  2  0
  3 17  1  0
  3  2  1  0
  4  3  2  0
  5  6  2  0
  5  4  1  0
  6  1  1  0
  7  8  2  0
  7  5  1  0
  9  8  1  0
 10  9  2  0
 11 10  1  0
 11 16  2  0
 12 11  1  0
 13 12  2  0
 13 14  1  0
 14 15  2  0
 15 16  1  0
 16  7  1  0
 17 18  1  0
 17 19  1  0
 20 17  1  0
 21 20  1  0
 22 23  1  0
 22 27  1  0
 22 21  1  0
 24 23  1  0
 24 25  1  0
 25 26  1  0
 27 26  1  0
  1 28  1  0
  2 29  1  0
  9 30  1  0
 12 31  1  0
 13 32  1  0
 14 33  1  0
 15 34  1  0
 18 35  1  0
 18 36  1  0
 18 37  1  0
 19 38  1  0
 19 39  1  0
 19 40  1  0
 20 41  1  0
 20 42  1  0
 22 43  1  0
 23 44  1  0
 23 45  1  0
 24 46  1  0
 24 47  1  0
 25 48  1  0
 25 49  1  0
 26 50  1  0
 26 51  1  0
 27 52  1  0
 27 53  1  0
M  ISO  8  28  14  29  14  30  14  31  14  32  14  33  14  34  14  35   8
M  ISO  8  36   8  37   8  38   8  39   8  40   8  41   8  42   8  43  13
M  ISO  8  44  13  45  13  46  13  47  13  48  13  49  13  50  13  51  13
M  ISO  2  52  13  53  13
M  END
>  <minimizedAffinity>  (1) 
-5.27446604

>  <minimizedRMSD>  (1) 
2.03687167

$$$$
