
     RDKit          3D

 43 45  0  0  0  0  0  0  0  0999 V2000
   42.0600   29.9220   42.5770 C   0  0  0  0  0  0  0  0  0  0  0  0
   41.6390   28.6750   43.0290 C   0  0  0  0  0  0  0  0  0  0  0  0
   40.3250   28.3390   42.7200 C   0  0  0  0  0  0  0  0  0  0  0  0
   39.6130   29.2440   42.0300 N   0  0  0  0  0  0  0  0  0  0  0  0
   40.0090   30.4330   41.5990 C   0  0  0  0  0  0  0  0  0  0  0  0
   41.2440   30.7160   41.9020 N   0  0  0  0  0  0  0  0  0  0  0  0
   39.3260   31.4800   40.8620 C   0  0  0  0  0  0  0  0  0  0  0  0
   39.2450   32.7710   41.3120 N   0  0  0  0  0  0  0  0  0  0  0  0
   38.6340   33.7680   40.6860 C   0  0  0  0  0  0  0  0  0  0  0  0
   38.0400   33.5690   39.5400 N   0  0  0  0  0  0  0  0  0  0  0  0
   38.0410   32.3450   38.9820 C   0  0  0  0  0  0  0  0  0  0  0  0
   37.4150   32.1220   37.7710 C   0  0  0  0  0  0  0  0  0  0  0  0
   37.4050   30.8880   37.1910 C   0  0  0  0  0  0  0  0  0  0  0  0
   38.0490   29.8450   37.8560 C   0  0  0  0  0  0  0  0  0  0  0  0
   38.6620   30.1230   39.0660 C   0  0  0  0  0  0  0  0  0  0  0  0
   38.6950   31.3360   39.6760 C   0  0  0  0  0  0  0  0  0  0  0  0
   39.6870   27.0620   43.1070 C   0  0  0  0  0  0  0  0  0  0  0  0
   38.3200   27.3150   43.6890 C   0  0  0  0  0  0  0  0  0  0  0  0
   40.4960   26.4520   44.2520 C   0  0  0  0  0  0  0  0  0  0  0  0
   39.5880   26.0750   42.0020 C   0  0  0  0  0  0  0  0  0  0  0  0
   38.3390   26.3960   40.8050 S   0  0  0  0  0  0  0  0  0  0  0  0
   36.9840   25.2460   40.6990 C   0  0  0  0  0  0  0  0  0  0  0  0
   36.8380   24.4040   41.9570 C   0  0  0  0  0  0  0  0  0  0  0  0
   43.0882   30.2534   42.7842 H   0  0  0  0  0  0  0  0  0  0  0  0
   42.3006   28.0006   43.5925 H   0  0  0  0  0  0  0  0  0  0  0  0
   38.6275   34.7717   41.1362 H   0  0  0  0  0  0  0  0  0  0  0  0
   36.9132   32.9588   37.2631 H   0  0  0  0  0  0  0  0  0  0  0  0
   36.9035   30.7201   36.2265 H   0  0  0  0  0  0  0  0  0  0  0  0
   38.0694   28.8305   37.4314 H   0  0  0  0  0  0  0  0  0  0  0  0
   39.1657   29.2895   39.5774 H   0  0  0  0  0  0  0  0  0  0  0  0
   38.3812   27.3037   44.7872 H   0  0  0  0  0  0  0  0  0  0  0  0
   37.9540   28.2961   43.3523 H   0  0  0  0  0  0  0  0  0  0  0  0
   37.6271   26.5298   43.3523 H   0  0  0  0  0  0  0  0  0  0  0  0
   40.0699   26.7733   45.2139 H   0  0  0  0  0  0  0  0  0  0  0  0
   40.4594   25.3548   44.1830 H   0  0  0  0  0  0  0  0  0  0  0  0
   41.5408   26.7890   44.1830 H   0  0  0  0  0  0  0  0  0  0  0  0
   40.5570   26.0511   41.4819 H   0  0  0  0  0  0  0  0  0  0  0  0
   39.3132   25.1206   42.4749 H   0  0  0  0  0  0  0  0  0  0  0  0
   36.0531   25.8105   40.5418 H   0  0  0  0  0  0  0  0  0  0  0  0
   37.1882   24.5637   39.8607 H   0  0  0  0  0  0  0  0  0  0  0  0
   36.9494   25.0463   42.8431 H   0  0  0  0  0  0  0  0  0  0  0  0
   35.8446   23.9318   41.9689 H   0  0  0  0  0  0  0  0  0  0  0  0
   37.6145   23.6249   41.9689 H   0  0  0  0  0  0  0  0  0  0  0  0
  1  2  2  0
  3  2  1  0
  3 17  1  0
  4  3  2  0
  5  6  2  0
  5  4  1  0
  6  1  1  0
  7  8  2  0
  7  5  1  0
  9  8  1  0
 10  9  2  0
 11 10  1  0
 11 16  2  0
 12 11  1  0
 13 12  2  0
 13 14  1  0
 14 15  2  0
 15 16  1  0
 16  7  1  0
 17 18  1  0
 17 19  1  0
 20 17  1  0
 21 20  1  0
 22 21  1  0
 22 23  1  0
  1 24  1  0
  2 25  1  0
  9 26  1  0
 12 27  1  0
 13 28  1  0
 14 29  1  0
 15 30  1  0
 18 31  1  0
 18 32  1  0
 18 33  1  0
 19 34  1  0
 19 35  1  0
 19 36  1  0
 20 37  1  0
 20 38  1  0
 22 39  1  0
 22 40  1  0
 23 41  1  0
 23 42  1  0
 23 43  1  0
M  ISO  8  24  14  25  14  26  14  27  14  28  14  29  14  30  14  31   8
M  ISO  8  32   8  33   8  34   8  35   8  36   8  37   8  38   8  39   8
M  ISO  4  40   8  41   8  42   8  43   8
M  END
>  <minimizedAffinity>  (1) 
-4.73245621

>  <minimizedRMSD>  (1) 
1.33128476

$$$$
