
     RDKit          3D

 34 37  0  0  0  0  0  0  0  0999 V2000
   35.9930   25.8490   38.6080 C   0  0  0  0  0  0  0  0  0  0  0  0
   35.7390   24.4750   38.6020 C   0  0  0  0  0  0  0  0  0  0  0  0
   36.1780   24.0120   39.7970 C   0  0  0  0  0  0  0  0  0  0  0  0
   36.6820   25.0320   40.5220 N   0  0  0  0  0  0  0  0  0  0  0  0
   36.5640   26.1560   39.7830 N   0  0  0  0  0  0  0  0  0  0  0  0
   36.5960   27.4520   36.7930 C   0  0  0  0  0  0  0  0  0  0  0  0
   35.6650   26.7240   37.5040 C   0  0  0  0  0  0  0  0  0  0  0  0
   34.3140   26.8450   37.1320 C   0  0  0  0  0  0  0  0  0  0  0  0
   34.0150   27.6800   36.0860 N   0  0  0  0  0  0  0  0  0  0  0  0
   34.9830   28.3730   35.4240 C   0  0  0  0  0  0  0  0  0  0  0  0
   36.3110   28.2550   35.7880 N   0  0  0  0  0  0  0  0  0  0  0  0
   37.2490   24.9360   41.8670 C   0  0  0  0  0  0  0  0  0  0  0  0
   37.7230   26.1950   42.4200 C   0  0  0  0  0  0  0  0  0  0  0  0
   36.7500   26.9230   43.0430 N   0  0  0  0  0  0  0  0  0  0  0  0
   36.9940   28.1410   43.5820 C   0  0  0  0  0  0  0  0  0  0  0  0
   38.2110   28.7660   43.5690 N   0  0  0  0  0  0  0  0  0  0  0  0
   39.1860   28.0610   42.9580 C   0  0  0  0  0  0  0  0  0  0  0  0
   40.4840   28.5340   42.8630 C   0  0  0  0  0  0  0  0  0  0  0  0
   41.5020   27.8060   42.2450 C   0  0  0  0  0  0  0  0  0  0  0  0
   41.2150   26.5510   41.6990 C   0  0  0  0  0  0  0  0  0  0  0  0
   39.9390   26.0920   41.7960 C   0  0  0  0  0  0  0  0  0  0  0  0
   38.9440   26.8250   42.4090 C   0  0  0  0  0  0  0  0  0  0  0  0
   35.2774   23.8896   37.7931 H   0  0  0  0  0  0  0  0  0  0  0  0
   36.1307   22.9635   40.1262 H   0  0  0  0  0  0  0  0  0  0  0  0
   37.6519   27.3553   37.0859 H   0  0  0  0  0  0  0  0  0  0  0  0
   33.5255   26.2898   37.6611 H   0  0  0  0  0  0  0  0  0  0  0  0
   34.7045   29.0341   34.5901 H   0  0  0  0  0  0  0  0  0  0  0  0
   36.4734   24.5380   42.5378 H   0  0  0  0  0  0  0  0  0  0  0  0
   38.1298   24.2820   41.7860 H   0  0  0  0  0  0  0  0  0  0  0  0
   36.1552   28.6645   44.0640 H   0  0  0  0  0  0  0  0  0  0  0  0
   40.7215   29.5195   43.2902 H   0  0  0  0  0  0  0  0  0  0  0  0
   42.5212   28.2159   42.1880 H   0  0  0  0  0  0  0  0  0  0  0  0
   41.9969   25.9541   41.2066 H   0  0  0  0  0  0  0  0  0  0  0  0
   39.6926   25.1069   41.3731 H   0  0  0  0  0  0  0  0  0  0  0  0
  1  5  2  0
  2  1  1  0
  2  3  2  0
  3  4  1  0
  4 12  1  0
  5  4  1  0
  6  7  2  0
  7  1  1  0
  8  7  1  0
  9  8  2  0
 10 11  2  0
 10  9  1  0
 11  6  1  0
 12 13  1  0
 13 14  2  0
 14 15  1  0
 16 15  2  0
 17 16  1  0
 18 17  2  0
 19 18  1  0
 20 21  1  0
 20 19  2  0
 21 22  2  0
 22 13  1  0
 22 17  1  0
  2 23  1  0
  3 24  1  0
  6 25  1  0
  8 26  1  0
 10 27  1  0
 12 28  1  0
 12 29  1  0
 15 30  1  0
 18 31  1  0
 19 32  1  0
 20 33  1  0
 21 34  1  0
M  ISO  8  23  14  24  14  25  14  26  14  27  14  28   8  29   8  30  14
M  ISO  4  31  14  32  14  33  14  34  14
M  END
>  <minimizedAffinity>  (1) 
-4.32466173

>  <minimizedRMSD>  (1) 
5.45550489

$$$$
