
     RDKit          3D

 34 37  0  0  0  0  0  0  0  0999 V2000
   36.3090   30.5510   41.2190 C   0  0  0  0  0  0  0  0  0  0  0  0
   35.9760   30.0400   39.8910 N   0  0  0  0  0  0  0  0  0  0  0  0
   35.0090   29.1310   39.6370 C   0  0  0  0  0  0  0  0  0  0  0  0
   34.9760   28.8870   38.3050 N   0  0  0  0  0  0  0  0  0  0  0  0
   35.9080   29.6300   37.7090 C   0  0  0  0  0  0  0  0  0  0  0  0
   36.3300   29.7960   36.3750 C   0  0  0  0  0  0  0  0  0  0  0  0
   35.7230   29.1120   35.5120 O   0  0  0  0  0  0  0  0  0  0  0  0
   37.3440   30.6600   36.0910 N   0  0  0  0  0  0  0  0  0  0  0  0
   37.9250   31.3410   37.0810 C   0  0  0  0  0  0  0  0  0  0  0  0
   38.9860   32.2450   36.7750 N   0  0  0  0  0  0  0  0  0  0  0  0
   37.5370   31.2010   38.3840 N   0  0  0  0  0  0  0  0  0  0  0  0
   36.5330   30.3500   38.7090 C   0  0  0  0  0  0  0  0  0  0  0  0
   37.5460   29.8970   41.6870 C   0  0  0  0  0  0  0  0  0  0  0  0
   38.7220   30.6070   41.9950 C   0  0  0  0  0  0  0  0  0  0  0  0
   39.8220   29.8750   42.4260 C   0  0  0  0  0  0  0  0  0  0  0  0
   39.7070   28.5050   42.5290 N   0  0  0  0  0  0  0  0  0  0  0  0
   38.5650   27.8850   42.2230 C   0  0  0  0  0  0  0  0  0  0  0  0
   37.4840   28.5410   41.8060 N   0  0  0  0  0  0  0  0  0  0  0  0
   38.5640   26.4650   42.3680 N   0  0  0  0  0  0  0  0  0  0  0  0
   39.4800   25.7080   42.9950 N   0  0  0  0  0  0  0  0  0  0  0  0
   39.1060   24.4150   42.9030 C   0  0  0  0  0  0  0  0  0  0  0  0
   37.9030   24.3160   42.1950 C   0  0  0  0  0  0  0  0  0  0  0  0
   37.6290   25.6340   41.8950 C   0  0  0  0  0  0  0  0  0  0  0  0
   35.4877   30.3294   41.9164 H   0  0  0  0  0  0  0  0  0  0  0  0
   36.4580   31.6399   41.1725 H   0  0  0  0  0  0  0  0  0  0  0  0
   34.3553   28.6652   40.3891 H   0  0  0  0  0  0  0  0  0  0  0  0
   37.6602   30.7869   35.1190 H   0  0  0  0  0  0  0  0  0  0  0  0
   39.4431   32.7768   37.5294 H   0  0  0  0  0  0  0  0  0  0  0  0
   39.2947   32.3656   35.7998 H   0  0  0  0  0  0  0  0  0  0  0  0
   38.7686   31.7017   41.8980 H   0  0  0  0  0  0  0  0  0  0  0  0
   40.7662   30.3790   42.6800 H   0  0  0  0  0  0  0  0  0  0  0  0
   39.6639   23.5648   43.3223 H   0  0  0  0  0  0  0  0  0  0  0  0
   37.3234   23.4160   41.9421 H   0  0  0  0  0  0  0  0  0  0  0  0
   36.7436   25.9636   41.3317 H   0  0  0  0  0  0  0  0  0  0  0  0
  1 13  1  0
  2  1  1  0
  3  2  1  0
  4  3  2  0
  5  4  1  0
  5 12  2  0
  6  5  1  0
  7  6  2  0
  8  6  1  0
  8  9  1  0
  9 11  2  0
 10  9  1  0
 11 12  1  0
 12  2  1  0
 13 18  1  0
 13 14  2  0
 14 15  1  0
 15 16  2  0
 17 19  1  0
 17 16  1  0
 18 17  2  0
 19 20  1  0
 21 20  2  0
 22 21  1  0
 23 22  2  0
 23 19  1  0
  1 24  1  0
  1 25  1  0
  3 26  1  0
  8 27  1  0
 10 28  1  0
 10 29  1  0
 14 30  1  0
 15 31  1  0
 21 32  1  0
 22 33  1  0
 23 34  1  0
M  ISO  8  24   8  25   8  26  14  27   9  30  14  31  14  32  14  33  14
M  ISO  1  34  14
M  END
>  <minimizedAffinity>  (1) 
-6.13936901

>  <minimizedRMSD>  (1) 
1.41595316

$$$$
