
     RDKit          3D

 32 35  0  0  0  0  0  0  0  0999 V2000
   36.2920   30.5790   41.2130 C   0  0  0  0  0  0  0  0  0  0  0  0
   35.9630   30.0630   39.8830 N   0  0  0  0  0  0  0  0  0  0  0  0
   34.9980   29.1660   39.6390 C   0  0  0  0  0  0  0  0  0  0  0  0
   34.9650   28.9120   38.3070 N   0  0  0  0  0  0  0  0  0  0  0  0
   35.9150   29.6550   37.7020 C   0  0  0  0  0  0  0  0  0  0  0  0
   36.3280   29.8000   36.3720 C   0  0  0  0  0  0  0  0  0  0  0  0
   35.7290   29.1240   35.5140 O   0  0  0  0  0  0  0  0  0  0  0  0
   37.3490   30.6600   36.0890 N   0  0  0  0  0  0  0  0  0  0  0  0
   37.9370   31.3480   37.0810 C   0  0  0  0  0  0  0  0  0  0  0  0
   39.0060   32.2440   36.7610 N   0  0  0  0  0  0  0  0  0  0  0  0
   37.5400   31.2140   38.3860 N   0  0  0  0  0  0  0  0  0  0  0  0
   36.5390   30.3790   38.7080 C   0  0  0  0  0  0  0  0  0  0  0  0
   37.4680   29.8490   41.7360 C   0  0  0  0  0  0  0  0  0  0  0  0
   38.6520   30.4790   42.1480 C   0  0  0  0  0  0  0  0  0  0  0  0
   39.6880   29.6790   42.6200 C   0  0  0  0  0  0  0  0  0  0  0  0
   39.4920   28.3060   42.6560 N   0  0  0  0  0  0  0  0  0  0  0  0
   38.3380   27.7670   42.2470 C   0  0  0  0  0  0  0  0  0  0  0  0
   37.3250   28.4960   41.7900 N   0  0  0  0  0  0  0  0  0  0  0  0
   38.2670   26.3130   42.3390 C   0  0  0  0  0  0  0  0  0  0  0  0
   39.1030   25.3500   42.7630 N   0  0  0  0  0  0  0  0  0  0  0  0
   38.5480   24.1820   42.6310 O   0  0  0  0  0  0  0  0  0  0  0  0
   37.3530   24.3680   42.1230 C   0  0  0  0  0  0  0  0  0  0  0  0
   37.1250   25.6940   41.9190 N   0  0  0  0  0  0  0  0  0  0  0  0
   35.4361   30.4312   41.8880 H   0  0  0  0  0  0  0  0  0  0  0  0
   36.5200   31.6532   41.1488 H   0  0  0  0  0  0  0  0  0  0  0  0
   34.3408   28.7106   40.3945 H   0  0  0  0  0  0  0  0  0  0  0  0
   37.6678   30.7811   35.1171 H   0  0  0  0  0  0  0  0  0  0  0  0
   39.4694   32.7805   37.5082 H   0  0  0  0  0  0  0  0  0  0  0  0
   39.3120   32.3524   35.7835 H   0  0  0  0  0  0  0  0  0  0  0  0
   38.7581   31.5728   42.0993 H   0  0  0  0  0  0  0  0  0  0  0  0
   40.6368   30.1231   42.9555 H   0  0  0  0  0  0  0  0  0  0  0  0
   36.6364   23.5654   41.8942 H   0  0  0  0  0  0  0  0  0  0  0  0
  1 13  1  0
  2  1  1  0
  3  2  1  0
  4  3  2  0
  5  4  1  0
  5 12  2  0
  6  5  1  0
  7  6  2  0
  8  6  1  0
  8  9  1  0
  9 11  2  0
 10  9  1  0
 11 12  1  0
 12  2  1  0
 13 18  1  0
 13 14  2  0
 14 15  1  0
 15 16  2  0
 17 19  1  0
 17 16  1  0
 18 17  2  0
 19 20  2  0
 21 20  1  0
 22 21  1  0
 23 22  2  0
 23 19  1  0
  1 24  1  0
  1 25  1  0
  3 26  1  0
  8 27  1  0
 10 28  1  0
 10 29  1  0
 14 30  1  0
 15 31  1  0
 22 32  1  0
M  ISO  7  24   8  25   8  26  14  27   9  30  14  31  14  32  14
M  END
>  <minimizedAffinity>  (1) 
-5.86343956

>  <minimizedRMSD>  (1) 
1.37863851

$$$$
