
     RDKit          3D

 34 37  0  0  0  0  0  0  0  0999 V2000
   36.2720   30.5830   41.2140 C   0  0  0  0  0  0  0  0  0  0  0  0
   35.9600   30.0650   39.8880 N   0  0  0  0  0  0  0  0  0  0  0  0
   34.9990   29.1530   39.6270 C   0  0  0  0  0  0  0  0  0  0  0  0
   34.9780   28.8960   38.2970 N   0  0  0  0  0  0  0  0  0  0  0  0
   35.9220   29.6400   37.7010 C   0  0  0  0  0  0  0  0  0  0  0  0
   36.3430   29.7830   36.3740 C   0  0  0  0  0  0  0  0  0  0  0  0
   35.7480   29.0950   35.5190 O   0  0  0  0  0  0  0  0  0  0  0  0
   37.3600   30.6520   36.1070 N   0  0  0  0  0  0  0  0  0  0  0  0
   37.9320   31.3440   37.0990 C   0  0  0  0  0  0  0  0  0  0  0  0
   38.9950   32.2440   36.7740 N   0  0  0  0  0  0  0  0  0  0  0  0
   37.5260   31.2090   38.3920 N   0  0  0  0  0  0  0  0  0  0  0  0
   36.5220   30.3610   38.7070 C   0  0  0  0  0  0  0  0  0  0  0  0
   37.4730   29.8930   41.7220 C   0  0  0  0  0  0  0  0  0  0  0  0
   38.6400   30.5300   42.1210 C   0  0  0  0  0  0  0  0  0  0  0  0
   39.7010   29.7730   42.5810 C   0  0  0  0  0  0  0  0  0  0  0  0
   39.5600   28.3970   42.6280 N   0  0  0  0  0  0  0  0  0  0  0  0
   38.4000   27.8250   42.2270 C   0  0  0  0  0  0  0  0  0  0  0  0
   37.3690   28.5250   41.7830 N   0  0  0  0  0  0  0  0  0  0  0  0
   38.3300   26.3500   42.3090 C   0  0  0  0  0  0  0  0  0  0  0  0
   37.2820   25.5150   42.0910 C   0  0  0  0  0  0  0  0  0  0  0  0
   37.7180   24.2600   42.2900 N   0  0  0  0  0  0  0  0  0  0  0  0
   39.0310   24.2810   42.6310 C   0  0  0  0  0  0  0  0  0  0  0  0
   39.3810   25.5750   42.6350 N   0  0  0  0  0  0  0  0  0  0  0  0
   35.4253   30.3991   41.8917 H   0  0  0  0  0  0  0  0  0  0  0  0
   36.4576   31.6658   41.1587 H   0  0  0  0  0  0  0  0  0  0  0  0
   34.3380   28.6918   40.3756 H   0  0  0  0  0  0  0  0  0  0  0  0
   37.6886   30.7758   35.1387 H   0  0  0  0  0  0  0  0  0  0  0  0
   39.4535   32.7895   37.5177 H   0  0  0  0  0  0  0  0  0  0  0  0
   39.3021   32.3466   35.7962 H   0  0  0  0  0  0  0  0  0  0  0  0
   38.7196   31.6260   42.0716 H   0  0  0  0  0  0  0  0  0  0  0  0
   40.6368   30.2535   42.9026 H   0  0  0  0  0  0  0  0  0  0  0  0
   36.2624   25.8117   41.8039 H   0  0  0  0  0  0  0  0  0  0  0  0
   39.6736   23.4173   42.8568 H   0  0  0  0  0  0  0  0  0  0  0  0
   40.3232   25.9272   42.8567 H   0  0  0  0  0  0  0  0  0  0  0  0
  1 13  1  0
  2  1  1  0
  3  2  1  0
  4  3  2  0
  5  4  1  0
  5 12  2  0
  6  5  1  0
  7  6  2  0
  8  6  1  0
  8  9  1  0
  9 11  2  0
 10  9  1  0
 11 12  1  0
 12  2  1  0
 13 18  1  0
 13 14  2  0
 14 15  1  0
 15 16  2  0
 17 19  1  0
 17 16  1  0
 18 17  2  0
 19 23  1  0
 20 21  1  0
 20 19  2  0
 21 22  2  0
 22 23  1  0
  1 24  1  0
  1 25  1  0
  3 26  1  0
  8 27  1  0
 10 28  1  0
 10 29  1  0
 14 30  1  0
 15 31  1  0
 20 32  1  0
 22 33  1  0
 23 34  1  0
M  ISO  8  24   8  25   8  26  14  27   9  30  14  31  14  32  14  33  14
M  ISO  1  34   9
M  END
>  <minimizedAffinity>  (1) 
-5.82955217

>  <minimizedRMSD>  (1) 
1.33222628

$$$$
