
     RDKit          3D

 39 41  0  0  0  0  0  0  0  0999 V2000
   35.9540   30.1640   39.8650 N   0  0  0  0  0  0  0  0  0  0  0  0
   35.0120   29.2120   39.6950 C   0  0  0  0  0  0  0  0  0  0  0  0
   34.9610   28.8720   38.3890 N   0  0  0  0  0  0  0  0  0  0  0  0
   35.8710   29.6060   37.7160 C   0  0  0  0  0  0  0  0  0  0  0  0
   36.2620   29.6850   36.3680 C   0  0  0  0  0  0  0  0  0  0  0  0
   35.6640   28.9290   35.5790 O   0  0  0  0  0  0  0  0  0  0  0  0
   37.2350   30.5540   36.0180 N   0  0  0  0  0  0  0  0  0  0  0  0
   37.8220   31.3310   36.9500 C   0  0  0  0  0  0  0  0  0  0  0  0
   38.8460   32.2360   36.5440 N   0  0  0  0  0  0  0  0  0  0  0  0
   37.4510   31.2630   38.2670 N   0  0  0  0  0  0  0  0  0  0  0  0
   36.4910   30.4150   38.6500 C   0  0  0  0  0  0  0  0  0  0  0  0
   36.2880   30.7760   41.1590 C   0  0  0  0  0  0  0  0  0  0  0  0
   37.5800   30.2340   41.6190 C   0  0  0  0  0  0  0  0  0  0  0  0
   38.7450   30.9910   41.7560 C   0  0  0  0  0  0  0  0  0  0  0  0
   39.9070   30.3720   42.1990 C   0  0  0  0  0  0  0  0  0  0  0  0
   39.8530   29.0150   42.4870 N   0  0  0  0  0  0  0  0  0  0  0  0
   38.7150   28.3340   42.3400 C   0  0  0  0  0  0  0  0  0  0  0  0
   37.5780   28.8950   41.9160 N   0  0  0  0  0  0  0  0  0  0  0  0
   38.8000   26.8890   42.6840 C   0  0  0  0  0  0  0  0  0  0  0  0
   37.4290   26.2630   42.7250 C   0  0  0  0  0  0  0  0  0  0  0  0
   39.4730   26.6450   44.0060 C   0  0  0  0  0  0  0  0  0  0  0  0
   39.6010   26.1300   41.6280 C   0  0  0  0  0  0  0  0  0  0  0  0
   34.3869   28.7825   40.4917 H   0  0  0  0  0  0  0  0  0  0  0  0
   37.5300   30.6233   35.0336 H   0  0  0  0  0  0  0  0  0  0  0  0
   39.3069   32.8384   37.2409 H   0  0  0  0  0  0  0  0  0  0  0  0
   39.1249   32.2875   35.5538 H   0  0  0  0  0  0  0  0  0  0  0  0
   36.3644   31.8673   41.0436 H   0  0  0  0  0  0  0  0  0  0  0  0
   35.5028   30.5485   41.8950 H   0  0  0  0  0  0  0  0  0  0  0  0
   38.7428   32.0645   41.5161 H   0  0  0  0  0  0  0  0  0  0  0  0
   40.8416   30.9398   42.3180 H   0  0  0  0  0  0  0  0  0  0  0  0
   37.1212   26.1225   43.7717 H   0  0  0  0  0  0  0  0  0  0  0  0
   36.7097   26.9219   42.2166 H   0  0  0  0  0  0  0  0  0  0  0  0
   37.4558   25.2879   42.2166 H   0  0  0  0  0  0  0  0  0  0  0  0
   38.7798   26.8963   44.8223 H   0  0  0  0  0  0  0  0  0  0  0  0
   39.7597   25.5857   44.0815 H   0  0  0  0  0  0  0  0  0  0  0  0
   40.3720   27.2744   44.0815 H   0  0  0  0  0  0  0  0  0  0  0  0
   40.3138   25.4546   42.1238 H   0  0  0  0  0  0  0  0  0  0  0  0
   38.9153   25.5424   40.9998 H   0  0  0  0  0  0  0  0  0  0  0  0
   40.1508   26.8463   40.9998 H   0  0  0  0  0  0  0  0  0  0  0  0
  1 12  1  0
  2  1  1  0
  3  2  2  0
  4  3  1  0
  4 11  2  0
  5  4  1  0
  6  5  2  0
  7  5  1  0
  7  8  1  0
  8 10  2  0
  9  8  1  0
 10 11  1  0
 11  1  1  0
 12 13  1  0
 13 14  2  0
 13 18  1  0
 14 15  1  0
 15 16  2  0
 17 16  1  0
 17 19  1  0
 18 17  2  0
 19 20  1  0
 19 21  1  0
 22 19  1  0
  2 23  1  0
  7 24  1  0
  9 25  1  0
  9 26  1  0
 12 27  1  0
 12 28  1  0
 14 29  1  0
 15 30  1  0
 20 31  1  0
 20 32  1  0
 20 33  1  0
 21 34  1  0
 21 35  1  0
 21 36  1  0
 22 37  1  0
 22 38  1  0
 22 39  1  0
M  ISO  8  23  14  24   9  27   8  28   8  29  14  30  14  31   8  32   8
M  ISO  7  33   8  34   8  35   8  36   8  37   8  38   8  39   8
M  END
>  <minimizedAffinity>  (1) 
-5.77942801

>  <minimizedRMSD>  (1) 
1.47186935

$$$$
