
     RDKit          3D

 33 35  0  0  0  0  0  0  0  0999 V2000
   35.9730   30.1970   39.9300 N   0  0  0  0  0  0  0  0  0  0  0  0
   35.0540   29.2230   39.7830 C   0  0  0  0  0  0  0  0  0  0  0  0
   35.0070   28.8560   38.4940 N   0  0  0  0  0  0  0  0  0  0  0  0
   35.8940   29.5870   37.7860 C   0  0  0  0  0  0  0  0  0  0  0  0
   36.2660   29.6350   36.4430 C   0  0  0  0  0  0  0  0  0  0  0  0
   35.6800   28.8470   35.6710 O   0  0  0  0  0  0  0  0  0  0  0  0
   37.2250   30.5200   36.0640 N   0  0  0  0  0  0  0  0  0  0  0  0
   37.7970   31.3260   36.9630 C   0  0  0  0  0  0  0  0  0  0  0  0
   38.7990   32.2400   36.5290 N   0  0  0  0  0  0  0  0  0  0  0  0
   37.4440   31.2900   38.2770 N   0  0  0  0  0  0  0  0  0  0  0  0
   36.4940   30.4270   38.7120 C   0  0  0  0  0  0  0  0  0  0  0  0
   36.3000   30.8440   41.1940 C   0  0  0  0  0  0  0  0  0  0  0  0
   37.5430   30.2540   41.7350 C   0  0  0  0  0  0  0  0  0  0  0  0
   38.8040   30.8150   41.5700 C   0  0  0  0  0  0  0  0  0  0  0  0
   39.8890   30.1640   42.1260 C   0  0  0  0  0  0  0  0  0  0  0  0
   39.6740   28.9930   42.8180 N   0  0  0  0  0  0  0  0  0  0  0  0
   38.4310   28.4980   42.9450 C   0  0  0  0  0  0  0  0  0  0  0  0
   37.3640   29.1020   42.4200 N   0  0  0  0  0  0  0  0  0  0  0  0
   38.4070   27.2300   43.7240 C   0  0  0  0  0  0  0  0  0  0  0  0
   39.7820   26.6370   43.9130 C   0  0  0  0  0  0  0  0  0  0  0  0
   34.4406   28.7971   40.5907 H   0  0  0  0  0  0  0  0  0  0  0  0
   37.5131   30.5698   35.0764 H   0  0  0  0  0  0  0  0  0  0  0  0
   39.2510   32.8691   37.2078 H   0  0  0  0  0  0  0  0  0  0  0  0
   39.0717   32.2720   35.5363 H   0  0  0  0  0  0  0  0  0  0  0  0
   36.4459   31.9217   41.0287 H   0  0  0  0  0  0  0  0  0  0  0  0
   35.4780   30.6940   41.9094 H   0  0  0  0  0  0  0  0  0  0  0  0
   38.9351   31.7533   41.0111 H   0  0  0  0  0  0  0  0  0  0  0  0
   40.9043   30.5732   42.0179 H   0  0  0  0  0  0  0  0  0  0  0  0
   37.9722   27.4331   44.7138 H   0  0  0  0  0  0  0  0  0  0  0  0
   37.8064   26.5031   43.1575 H   0  0  0  0  0  0  0  0  0  0  0  0
   39.9968   26.5444   44.9878 H   0  0  0  0  0  0  0  0  0  0  0  0
   39.8200   25.6425   43.4445 H   0  0  0  0  0  0  0  0  0  0  0  0
   40.5313   27.2919   43.4445 H   0  0  0  0  0  0  0  0  0  0  0  0
  1 12  1  0
  2  1  1  0
  3  2  2  0
  4  3  1  0
  4 11  2  0
  5  4  1  0
  6  5  2  0
  7  5  1  0
  7  8  1  0
  8 10  2  0
  9  8  1  0
 10 11  1  0
 11  1  1  0
 12 13  1  0
 13 18  1  0
 14 13  2  0
 14 15  1  0
 15 16  2  0
 16 17  1  0
 17 19  1  0
 18 17  2  0
 19 20  1  0
  2 21  1  0
  7 22  1  0
  9 23  1  0
  9 24  1  0
 12 25  1  0
 12 26  1  0
 14 27  1  0
 15 28  1  0
 19 29  1  0
 19 30  1  0
 20 31  1  0
 20 32  1  0
 20 33  1  0
M  ISO  8  21  14  22   9  25   8  26   8  27  14  28  14  29   8  30   8
M  ISO  3  31   8  32   8  33   8
M  END
>  <minimizedAffinity>  (1) 
-5.63171625

>  <minimizedRMSD>  (1) 
1.20659602

$$$$
