
     RDKit          3D

 38 41  0  0  0  0  0  0  0  0999 V2000
   36.2820   30.8650   41.1510 C   0  0  0  0  0  0  0  0  0  0  0  0
   35.9660   30.2210   39.8940 N   0  0  0  0  0  0  0  0  0  0  0  0
   35.0390   29.2450   39.7420 C   0  0  0  0  0  0  0  0  0  0  0  0
   35.0010   28.8720   38.4460 N   0  0  0  0  0  0  0  0  0  0  0  0
   35.8910   29.5920   37.7570 C   0  0  0  0  0  0  0  0  0  0  0  0
   36.2800   29.6400   36.4140 C   0  0  0  0  0  0  0  0  0  0  0  0
   35.7000   28.8540   35.6420 O   0  0  0  0  0  0  0  0  0  0  0  0
   37.2470   30.5190   36.0370 N   0  0  0  0  0  0  0  0  0  0  0  0
   37.8160   31.3280   36.9420 C   0  0  0  0  0  0  0  0  0  0  0  0
   38.8250   32.2420   36.5310 N   0  0  0  0  0  0  0  0  0  0  0  0
   37.4550   31.3010   38.2510 N   0  0  0  0  0  0  0  0  0  0  0  0
   36.4890   30.4340   38.6720 C   0  0  0  0  0  0  0  0  0  0  0  0
   37.5080   30.2770   41.7030 C   0  0  0  0  0  0  0  0  0  0  0  0
   38.7640   30.8890   41.6450 C   0  0  0  0  0  0  0  0  0  0  0  0
   39.8580   30.2530   42.1940 C   0  0  0  0  0  0  0  0  0  0  0  0
   39.6510   29.0080   42.7910 N   0  0  0  0  0  0  0  0  0  0  0  0
   38.4170   28.4670   42.8160 C   0  0  0  0  0  0  0  0  0  0  0  0
   37.3600   29.0620   42.2960 N   0  0  0  0  0  0  0  0  0  0  0  0
   38.3220   27.2070   43.4440 O   0  0  0  0  0  0  0  0  0  0  0  0
   38.3060   26.0320   42.7240 C   0  0  0  0  0  0  0  0  0  0  0  0
   37.0160   25.6070   42.4370 C   0  0  0  0  0  0  0  0  0  0  0  0
   36.7870   24.4470   41.7210 C   0  0  0  0  0  0  0  0  0  0  0  0
   37.8480   23.6950   41.2840 C   0  0  0  0  0  0  0  0  0  0  0  0
   39.1380   24.1060   41.5620 C   0  0  0  0  0  0  0  0  0  0  0  0
   39.3610   25.2600   42.2740 C   0  0  0  0  0  0  0  0  0  0  0  0
   35.4527   30.7168   41.8584 H   0  0  0  0  0  0  0  0  0  0  0  0
   36.4323   31.9420   40.9855 H   0  0  0  0  0  0  0  0  0  0  0  0
   34.4172   28.8242   40.5460 H   0  0  0  0  0  0  0  0  0  0  0  0
   37.5435   30.5633   35.0516 H   0  0  0  0  0  0  0  0  0  0  0  0
   39.2663   32.8664   37.2211 H   0  0  0  0  0  0  0  0  0  0  0  0
   39.1145   32.2796   35.5432 H   0  0  0  0  0  0  0  0  0  0  0  0
   38.8789   31.8718   41.1644 H   0  0  0  0  0  0  0  0  0  0  0  0
   40.8579   30.7104   42.1626 H   0  0  0  0  0  0  0  0  0  0  0  0
   36.1605   26.2042   42.7857 H   0  0  0  0  0  0  0  0  0  0  0  0
   35.7573   24.1278   41.5023 H   0  0  0  0  0  0  0  0  0  0  0  0
   37.6729   22.7698   40.7153 H   0  0  0  0  0  0  0  0  0  0  0  0
   39.9908   23.5061   41.2114 H   0  0  0  0  0  0  0  0  0  0  0  0
   40.3931   25.5739   42.4889 H   0  0  0  0  0  0  0  0  0  0  0  0
  1 13  1  0
  2  1  1  0
  3  2  1  0
  4  3  2  0
  5  4  1  0
  5 12  2  0
  6  5  1  0
  7  6  2  0
  8  6  1  0
  8  9  1  0
  9 11  2  0
 10  9  1  0
 11 12  1  0
 12  2  1  0
 13 18  1  0
 14 13  2  0
 14 15  1  0
 15 16  2  0
 16 17  1  0
 17 19  1  0
 18 17  2  0
 20 19  1  0
 21 20  2  0
 22 21  1  0
 23 24  1  0
 23 22  2  0
 24 25  2  0
 25 20  1  0
  1 26  1  0
  1 27  1  0
  3 28  1  0
  8 29  1  0
 10 30  1  0
 10 31  1  0
 14 32  1  0
 15 33  1  0
 21 34  1  0
 22 35  1  0
 23 36  1  0
 24 37  1  0
 25 38  1  0
M  ISO  8  26   8  27   8  28  14  29   9  32  14  33  14  34  14  35  14
M  ISO  3  36  14  37  14  38  14
M  END
>  <minimizedAffinity>  (1) 
-6.51529455

>  <minimizedRMSD>  (1) 
2.15603566

$$$$
