
     RDKit          3D

 35 38  0  0  0  0  0  0  0  0999 V2000
   36.2550   30.7380   41.1880 C   0  0  0  0  0  0  0  0  0  0  0  0
   35.9470   30.1410   39.9020 N   0  0  0  0  0  0  0  0  0  0  0  0
   35.0220   29.1920   39.7080 C   0  0  0  0  0  0  0  0  0  0  0  0
   34.9840   28.8520   38.3930 N   0  0  0  0  0  0  0  0  0  0  0  0
   35.8960   29.5900   37.7320 C   0  0  0  0  0  0  0  0  0  0  0  0
   36.2920   29.6730   36.4140 C   0  0  0  0  0  0  0  0  0  0  0  0
   35.7200   28.9250   35.5940 O   0  0  0  0  0  0  0  0  0  0  0  0
   37.2800   30.5570   36.0660 N   0  0  0  0  0  0  0  0  0  0  0  0
   37.8470   31.3280   37.0110 C   0  0  0  0  0  0  0  0  0  0  0  0
   38.8690   32.2380   36.6290 N   0  0  0  0  0  0  0  0  0  0  0  0
   37.4640   31.2530   38.3030 N   0  0  0  0  0  0  0  0  0  0  0  0
   36.4870   30.3870   38.6860 C   0  0  0  0  0  0  0  0  0  0  0  0
   37.4600   30.0940   41.7390 C   0  0  0  0  0  0  0  0  0  0  0  0
   38.7390   30.6650   41.7380 C   0  0  0  0  0  0  0  0  0  0  0  0
   39.7850   29.9550   42.2870 C   0  0  0  0  0  0  0  0  0  0  0  0
   39.5320   28.7060   42.8190 N   0  0  0  0  0  0  0  0  0  0  0  0
   38.2810   28.1940   42.7980 C   0  0  0  0  0  0  0  0  0  0  0  0
   37.2600   28.8710   42.2690 N   0  0  0  0  0  0  0  0  0  0  0  0
   38.1180   26.9230   43.3580 O   0  0  0  0  0  0  0  0  0  0  0  0
   38.6700   24.3310   41.0380 N   0  0  0  0  0  0  0  0  0  0  0  0
   39.0650   25.3850   41.7710 N   0  0  0  0  0  0  0  0  0  0  0  0
   38.0300   25.8370   42.4940 C   0  0  0  0  0  0  0  0  0  0  0  0
   36.9170   25.0650   42.2350 C   0  0  0  0  0  0  0  0  0  0  0  0
   37.3700   24.1460   41.3260 C   0  0  0  0  0  0  0  0  0  0  0  0
   35.4097   30.5888   41.8759 H   0  0  0  0  0  0  0  0  0  0  0  0
   36.4334   31.8164   41.0642 H   0  0  0  0  0  0  0  0  0  0  0  0
   34.3891   28.7542   40.4940 H   0  0  0  0  0  0  0  0  0  0  0  0
   37.5868   30.6305   35.0855 H   0  0  0  0  0  0  0  0  0  0  0  0
   39.3160   32.8374   37.3374 H   0  0  0  0  0  0  0  0  0  0  0  0
   39.1629   32.2983   35.6437 H   0  0  0  0  0  0  0  0  0  0  0  0
   38.9058   31.6630   41.3065 H   0  0  0  0  0  0  0  0  0  0  0  0
   40.8015   30.3751   42.3011 H   0  0  0  0  0  0  0  0  0  0  0  0
   39.2458   23.7773   40.3878 H   0  0  0  0  0  0  0  0  0  0  0  0
   35.9063   25.1637   42.6577 H   0  0  0  0  0  0  0  0  0  0  0  0
   36.7466   23.3538   40.8857 H   0  0  0  0  0  0  0  0  0  0  0  0
  1 13  1  0
  2  1  1  0
  3  2  1  0
  4  3  2  0
  5  4  1  0
  5 12  2  0
  6  5  1  0
  7  6  2  0
  8  6  1  0
  8  9  1  0
  9 11  2  0
 10  9  1  0
 11 12  1  0
 12  2  1  0
 13 18  1  0
 14 13  2  0
 14 15  1  0
 15 16  2  0
 17 16  1  0
 17 19  1  0
 18 17  2  0
 20 24  1  0
 20 21  1  0
 21 22  2  0
 22 19  1  0
 23 22  1  0
 24 23  2  0
  1 25  1  0
  1 26  1  0
  3 27  1  0
  8 28  1  0
 10 29  1  0
 10 30  1  0
 14 31  1  0
 15 32  1  0
 20 33  1  0
 23 34  1  0
 24 35  1  0
M  ISO  8  25   8  26   8  27  14  28   9  31  14  32  14  33   9  34  14
M  ISO  1  35  14
M  END
>  <minimizedAffinity>  (1) 
-5.9780488

>  <minimizedRMSD>  (1) 
1.85025191

$$$$
