
     RDKit          3D

 33 36  0  0  0  0  0  0  0  0999 V2000
   36.2330   30.7030   41.1790 C   0  0  0  0  0  0  0  0  0  0  0  0
   35.9400   30.1450   39.8680 N   0  0  0  0  0  0  0  0  0  0  0  0
   34.9860   29.2200   39.6200 C   0  0  0  0  0  0  0  0  0  0  0  0
   34.9870   28.9270   38.2960 N   0  0  0  0  0  0  0  0  0  0  0  0
   35.9420   29.6620   37.6910 C   0  0  0  0  0  0  0  0  0  0  0  0
   36.3760   29.7640   36.3740 C   0  0  0  0  0  0  0  0  0  0  0  0
   35.8020   29.0540   35.5310 O   0  0  0  0  0  0  0  0  0  0  0  0
   37.3880   30.6240   36.0890 N   0  0  0  0  0  0  0  0  0  0  0  0
   37.9500   31.3520   37.0640 C   0  0  0  0  0  0  0  0  0  0  0  0
   39.0190   32.2540   36.7440 N   0  0  0  0  0  0  0  0  0  0  0  0
   37.5350   31.2600   38.3540 N   0  0  0  0  0  0  0  0  0  0  0  0
   36.5310   30.4190   38.6790 C   0  0  0  0  0  0  0  0  0  0  0  0
   37.3450   29.9680   41.7760 C   0  0  0  0  0  0  0  0  0  0  0  0
   38.6310   30.4940   41.9500 C   0  0  0  0  0  0  0  0  0  0  0  0
   39.6100   29.7050   42.5280 C   0  0  0  0  0  0  0  0  0  0  0  0
   39.2740   28.4120   42.9170 N   0  0  0  0  0  0  0  0  0  0  0  0
   38.0050   27.9600   42.7200 C   0  0  0  0  0  0  0  0  0  0  0  0
   37.0520   28.6970   42.1690 N   0  0  0  0  0  0  0  0  0  0  0  0
   37.7890   26.6420   43.1520 O   0  0  0  0  0  0  0  0  0  0  0  0
   37.9460   25.5530   42.3080 C   0  0  0  0  0  0  0  0  0  0  0  0
   36.8820   24.7200   42.2400 N   0  0  0  0  0  0  0  0  0  0  0  0
   37.2020   23.7570   41.4060 O   0  0  0  0  0  0  0  0  0  0  0  0
   38.4270   23.9530   40.9480 C   0  0  0  0  0  0  0  0  0  0  0  0
   38.9190   25.0840   41.5030 N   0  0  0  0  0  0  0  0  0  0  0  0
   35.3457   30.6148   41.8231 H   0  0  0  0  0  0  0  0  0  0  0  0
   36.5038   31.7643   41.0769 H   0  0  0  0  0  0  0  0  0  0  0  0
   34.3164   28.7762   40.3715 H   0  0  0  0  0  0  0  0  0  0  0  0
   37.7248   30.7170   35.1201 H   0  0  0  0  0  0  0  0  0  0  0  0
   39.4570   32.8176   37.4866 H   0  0  0  0  0  0  0  0  0  0  0  0
   39.3484   32.3379   35.7717 H   0  0  0  0  0  0  0  0  0  0  0  0
   38.8602   31.5215   41.6312 H   0  0  0  0  0  0  0  0  0  0  0  0
   40.6294   30.0908   42.6764 H   0  0  0  0  0  0  0  0  0  0  0  0
   38.9572   23.3046   40.2349 H   0  0  0  0  0  0  0  0  0  0  0  0
  1 13  1  0
  2  1  1  0
  3  2  1  0
  4  3  2  0
  5  4  1  0
  5 12  2  0
  6  5  1  0
  7  6  2  0
  8  6  1  0
  8  9  1  0
  9 11  2  0
 10  9  1  0
 11 12  1  0
 12  2  1  0
 13 14  2  0
 13 18  1  0
 14 15  1  0
 15 16  2  0
 17 16  1  0
 17 19  1  0
 18 17  2  0
 20 19  1  0
 21 20  2  0
 22 21  1  0
 23 22  1  0
 23 24  2  0
 24 20  1  0
  1 25  1  0
  1 26  1  0
  3 27  1  0
  8 28  1  0
 10 29  1  0
 10 30  1  0
 14 31  1  0
 15 32  1  0
 23 33  1  0
M  ISO  7  25   8  26   8  27  14  28   9  31  14  32  14  33  14
M  END
>  <minimizedAffinity>  (1) 
-5.90993547

>  <minimizedRMSD>  (1) 
2.00485492

$$$$
