
     RDKit          3D

 31 33  0  0  0  0  0  0  0  0999 V2000
   36.3310   30.8220   41.2430 C   0  0  0  0  0  0  0  0  0  0  0  0
   35.9760   30.1500   39.9960 N   0  0  0  0  0  0  0  0  0  0  0  0
   35.0750   29.1610   39.8810 C   0  0  0  0  0  0  0  0  0  0  0  0
   34.9910   28.7710   38.5990 N   0  0  0  0  0  0  0  0  0  0  0  0
   35.8490   29.5140   37.8650 C   0  0  0  0  0  0  0  0  0  0  0  0
   36.1810   29.5520   36.5170 C   0  0  0  0  0  0  0  0  0  0  0  0
   35.5900   28.7460   35.7670 O   0  0  0  0  0  0  0  0  0  0  0  0
   37.1180   30.4530   36.0920 N   0  0  0  0  0  0  0  0  0  0  0  0
   37.6990   31.2800   36.9760 C   0  0  0  0  0  0  0  0  0  0  0  0
   38.6720   32.2110   36.5210 N   0  0  0  0  0  0  0  0  0  0  0  0
   37.3810   31.2470   38.2850 N   0  0  0  0  0  0  0  0  0  0  0  0
   36.4530   30.3680   38.7560 C   0  0  0  0  0  0  0  0  0  0  0  0
   37.5720   30.2430   41.7660 C   0  0  0  0  0  0  0  0  0  0  0  0
   38.8340   30.7850   41.5270 C   0  0  0  0  0  0  0  0  0  0  0  0
   39.9460   30.1560   42.0720 C   0  0  0  0  0  0  0  0  0  0  0  0
   39.7430   29.0040   42.8370 N   0  0  0  0  0  0  0  0  0  0  0  0
   38.4880   28.5290   43.0310 C   0  0  0  0  0  0  0  0  0  0  0  0
   37.4240   29.1280   42.5120 N   0  0  0  0  0  0  0  0  0  0  0  0
   38.3850   27.3750   43.8080 O   0  0  0  0  0  0  0  0  0  0  0  0
   39.4670   26.5090   43.8780 C   0  0  0  0  0  0  0  0  0  0  0  0
   39.4140   25.4340   43.1890 O   0  0  0  0  0  0  0  0  0  0  0  0
   40.6420   26.6310   44.6050 O   0  0  0  0  0  0  0  0  0  0  0  0
   35.5234   30.6857   41.9773 H   0  0  0  0  0  0  0  0  0  0  0  0
   36.4745   31.8965   41.0560 H   0  0  0  0  0  0  0  0  0  0  0  0
   34.4935   28.7347   40.7117 H   0  0  0  0  0  0  0  0  0  0  0  0
   37.3774   30.4971   35.0962 H   0  0  0  0  0  0  0  0  0  0  0  0
   39.1248   32.8507   37.1893 H   0  0  0  0  0  0  0  0  0  0  0  0
   38.9242   32.2459   35.5230 H   0  0  0  0  0  0  0  0  0  0  0  0
   38.9470   31.6941   40.9180 H   0  0  0  0  0  0  0  0  0  0  0  0
   40.9582   30.5534   41.9062 H   0  0  0  0  0  0  0  0  0  0  0  0
   41.3316   25.9226   44.5537 H   0  0  0  0  0  0  0  0  0  0  0  0
  1 13  1  0
  2  1  1  0
  3  2  1  0
  4  3  2  0
  5  4  1  0
  5 12  2  0
  6  5  1  0
  7  6  2  0
  8  6  1  0
  8  9  1  0
  9 11  2  0
 10  9  1  0
 11 12  1  0
 12  2  1  0
 13 18  1  0
 14 13  2  0
 14 15  1  0
 15 16  2  0
 16 17  1  0
 17 19  1  0
 18 17  2  0
 19 20  1  0
 20 22  1  0
 21 20  2  0
  1 23  1  0
  1 24  1  0
  3 25  1  0
  8 26  1  0
 10 27  1  0
 10 28  1  0
 14 29  1  0
 15 30  1  0
 22 31  1  0
M  ISO  7  23   8  24   8  25  14  26   9  29  14  30  14  31   3
M  END
>  <minimizedAffinity>  (1) 
-5.78616238

>  <minimizedRMSD>  (1) 
0.820697963

$$$$
