
     RDKit          3D

 30 32  0  0  0  0  0  0  0  0999 V2000
   35.9570   30.1510   39.9750 N   0  0  0  0  0  0  0  0  0  0  0  0
   35.0510   29.1570   39.8650 C   0  0  0  0  0  0  0  0  0  0  0  0
   34.9870   28.7770   38.5740 N   0  0  0  0  0  0  0  0  0  0  0  0
   35.8440   29.5180   37.8480 C   0  0  0  0  0  0  0  0  0  0  0  0
   36.1850   29.5580   36.5070 C   0  0  0  0  0  0  0  0  0  0  0  0
   35.6060   28.7560   35.7440 O   0  0  0  0  0  0  0  0  0  0  0  0
   37.1140   30.4500   36.0830 N   0  0  0  0  0  0  0  0  0  0  0  0
   37.6960   31.2810   36.9590 C   0  0  0  0  0  0  0  0  0  0  0  0
   38.6680   32.2110   36.5130 N   0  0  0  0  0  0  0  0  0  0  0  0
   37.3690   31.2500   38.2770 N   0  0  0  0  0  0  0  0  0  0  0  0
   36.4440   30.3730   38.7370 C   0  0  0  0  0  0  0  0  0  0  0  0
   36.3070   30.8260   41.2240 C   0  0  0  0  0  0  0  0  0  0  0  0
   37.5370   30.2520   41.7480 C   0  0  0  0  0  0  0  0  0  0  0  0
   38.8110   30.8030   41.5360 C   0  0  0  0  0  0  0  0  0  0  0  0
   39.9350   30.1880   42.0750 C   0  0  0  0  0  0  0  0  0  0  0  0
   39.7280   29.0350   42.8100 N   0  0  0  0  0  0  0  0  0  0  0  0
   38.4880   28.5470   42.9830 C   0  0  0  0  0  0  0  0  0  0  0  0
   37.4000   29.1210   42.4760 N   0  0  0  0  0  0  0  0  0  0  0  0
   38.4060   27.3640   43.7530 O   0  0  0  0  0  0  0  0  0  0  0  0
   39.6200   26.6950   43.9750 C   0  0  0  0  0  0  0  0  0  0  0  0
   39.5810   25.5180   43.4940 O   0  0  0  0  0  0  0  0  0  0  0  0
   34.4635   28.7289   40.6906 H   0  0  0  0  0  0  0  0  0  0  0  0
   37.3727   30.4891   35.0868 H   0  0  0  0  0  0  0  0  0  0  0  0
   39.1159   32.8501   37.1852 H   0  0  0  0  0  0  0  0  0  0  0  0
   38.9265   32.2478   35.5166 H   0  0  0  0  0  0  0  0  0  0  0  0
   36.4535   31.8995   41.0338 H   0  0  0  0  0  0  0  0  0  0  0  0
   35.4961   30.6946   41.9556 H   0  0  0  0  0  0  0  0  0  0  0  0
   38.9197   31.7227   40.9425 H   0  0  0  0  0  0  0  0  0  0  0  0
   40.9437   30.5999   41.9237 H   0  0  0  0  0  0  0  0  0  0  0  0
   40.4870   27.1294   44.4942 H   0  0  0  0  0  0  0  0  0  0  0  0
  1 12  1  0
  2  1  1  0
  3  2  2  0
  4  3  1  0
  4 11  2  0
  5  4  1  0
  6  5  2  0
  7  5  1  0
  7  8  1  0
  8 10  2  0
  9  8  1  0
 10 11  1  0
 11  1  1  0
 12 13  1  0
 13 18  1  0
 14 13  2  0
 14 15  1  0
 15 16  2  0
 16 17  1  0
 17 19  1  0
 18 17  2  0
 19 20  1  0
 21 20  2  0
  2 22  1  0
  7 23  1  0
  9 24  1  0
  9 25  1  0
 12 26  1  0
 12 27  1  0
 14 28  1  0
 15 29  1  0
 20 30  1  0
M  ISO  7  22  14  23   9  26   8  27   8  28  14  29  14  30   6
M  END
>  <minimizedAffinity>  (1) 
-5.37886572

>  <minimizedRMSD>  (1) 
1.09077489

$$$$
