
     RDKit          3D

 20 21  0  0  0  0  0  0  0  0999 V2000
   37.9120   28.4720   43.3550 C   0  0  0  0  0  0  0  0  0  0  0  0
   36.9190   27.6510   42.8010 C   0  0  0  0  0  0  0  0  0  0  0  0
   36.2740   28.0940   41.6500 C   0  0  0  0  0  0  0  0  0  0  0  0
   36.6340   29.2930   41.1210 N   0  0  0  0  0  0  0  0  0  0  0  0
   37.5980   30.0580   41.6870 C   0  0  0  0  0  0  0  0  0  0  0  0
   38.2320   29.6520   42.7930 N   0  0  0  0  0  0  0  0  0  0  0  0
   37.9030   31.3260   41.0340 C   0  0  0  0  0  0  0  0  0  0  0  0
   37.0170   31.9160   40.1480 C   0  0  0  0  0  0  0  0  0  0  0  0
   37.2950   33.1130   39.5270 C   0  0  0  0  0  0  0  0  0  0  0  0
   38.4970   33.7210   39.8120 C   0  0  0  0  0  0  0  0  0  0  0  0
   39.3970   33.1520   40.6910 C   0  0  0  0  0  0  0  0  0  0  0  0
   39.0960   31.9520   41.3020 C   0  0  0  0  0  0  0  0  0  0  0  0
   38.4381   28.1458   44.2643 H   0  0  0  0  0  0  0  0  0  0  0  0
   36.6581   26.6869   43.2619 H   0  0  0  0  0  0  0  0  0  0  0  0
   35.4884   27.4858   41.1778 H   0  0  0  0  0  0  0  0  0  0  0  0
   36.0624   31.4131   39.9340 H   0  0  0  0  0  0  0  0  0  0  0  0
   36.5801   33.5687   38.8261 H   0  0  0  0  0  0  0  0  0  0  0  0
   38.7450   34.6783   39.3302 H   0  0  0  0  0  0  0  0  0  0  0  0
   40.3522   33.6544   40.9038 H   0  0  0  0  0  0  0  0  0  0  0  0
   39.8109   31.4969   42.0033 H   0  0  0  0  0  0  0  0  0  0  0  0
  2  1  2  0
  3  2  1  0
  4  3  2  0
  4  5  1  0
  5  6  2  0
  6  1  1  0
  7 12  1  0
  7  5  1  0
  8  7  2  0
  9 10  2  0
  9  8  1  0
 10 11  1  0
 11 12  2  0
  1 13  1  0
  2 14  1  0
  3 15  1  0
  8 16  1  0
  9 17  1  0
 10 18  1  0
 11 19  1  0
 12 20  1  0
M  ISO  8  13  14  14  14  15  14  16  14  17  14  18  14  19  14  20  14
M  END
>  <minimizedAffinity>  (1) 
-4.0559535

>  <minimizedRMSD>  (1) 
2.5215416

$$$$
