
     RDKit          3D

 30 32  0  0  0  0  0  0  0  0999 V2000
   38.3940   31.1800   40.9640 C   0  0  0  0  0  0  0  0  0  0  0  0
   39.3030   32.1890   41.2790 C   0  0  0  0  0  0  0  0  0  0  0  0
   39.1450   33.4470   40.7500 C   0  0  0  0  0  0  0  0  0  0  0  0
   38.0810   33.6830   39.9100 C   0  0  0  0  0  0  0  0  0  0  0  0
   37.1810   32.7000   39.5920 C   0  0  0  0  0  0  0  0  0  0  0  0
   37.3480   31.4510   40.1250 C   0  0  0  0  0  0  0  0  0  0  0  0
   39.2150   27.6300   41.4090 C   0  0  0  0  0  0  0  0  0  0  0  0
   38.7240   27.3830   42.7090 C   0  0  0  0  0  0  0  0  0  0  0  0
   38.1330   28.4300   43.3860 C   0  0  0  0  0  0  0  0  0  0  0  0
   38.0570   29.6280   42.7690 N   0  0  0  0  0  0  0  0  0  0  0  0
   38.5360   29.8410   41.5170 C   0  0  0  0  0  0  0  0  0  0  0  0
   39.1060   28.8460   40.8560 N   0  0  0  0  0  0  0  0  0  0  0  0
   36.3280   30.4990   39.6940 C   0  0  0  0  0  0  0  0  0  0  0  0
   35.3230   29.8650   40.3900 C   0  0  0  0  0  0  0  0  0  0  0  0
   34.4790   29.0060   39.7290 C   0  0  0  0  0  0  0  0  0  0  0  0
   34.6030   28.7520   38.3680 C   0  0  0  0  0  0  0  0  0  0  0  0
   35.6190   29.3860   37.6470 C   0  0  0  0  0  0  0  0  0  0  0  0
   36.4620   30.2480   38.3220 C   0  0  0  0  0  0  0  0  0  0  0  0
   40.1474   31.9777   41.9516 H   0  0  0  0  0  0  0  0  0  0  0  0
   39.8557   34.2505   40.9934 H   0  0  0  0  0  0  0  0  0  0  0  0
   37.9494   34.6879   39.4823 H   0  0  0  0  0  0  0  0  0  0  0  0
   36.3373   32.9117   38.9187 H   0  0  0  0  0  0  0  0  0  0  0  0
   39.6922   26.8159   40.8437 H   0  0  0  0  0  0  0  0  0  0  0  0
   38.8098   26.3871   43.1680 H   0  0  0  0  0  0  0  0  0  0  0  0
   37.7343   28.2920   44.4019 H   0  0  0  0  0  0  0  0  0  0  0  0
   35.1969   30.0452   41.4678 H   0  0  0  0  0  0  0  0  0  0  0  0
   33.6802   28.5036   40.2943 H   0  0  0  0  0  0  0  0  0  0  0  0
   33.9106   28.0610   37.8649 H   0  0  0  0  0  0  0  0  0  0  0  0
   35.7442   29.2033   36.5695 H   0  0  0  0  0  0  0  0  0  0  0  0
   37.2642   30.7535   37.7643 H   0  0  0  0  0  0  0  0  0  0  0  0
  1  2  2  0
  1 11  1  0
  3  2  1  0
  4  3  2  0
  5  4  1  0
  5  6  2  0
  6  1  1  0
  7  8  2  0
  8  9  1  0
 10  9  2  0
 11 10  1  0
 12  7  1  0
 12 11  2  0
 13  6  1  0
 13 14  2  0
 15 14  1  0
 16 15  2  0
 17 18  2  0
 17 16  1  0
 18 13  1  0
  2 19  1  0
  3 20  1  0
  4 21  1  0
  5 22  1  0
  7 23  1  0
  8 24  1  0
  9 25  1  0
 14 26  1  0
 15 27  1  0
 16 28  1  0
 17 29  1  0
 18 30  1  0
M  ISO  8  19  14  20  14  21  14  22  14  23  14  24  14  25  14  26  14
M  ISO  4  27  14  28  14  29  14  30  14
M  END
>  <minimizedAffinity>  (1) 
-5.50117064

>  <minimizedRMSD>  (1) 
4.67390633

$$$$
