
     RDKit          3D

 30 32  0  0  0  0  0  0  0  0999 V2000
   39.3100   33.4090   40.3740 C   0  0  0  0  0  0  0  0  0  0  0  0
   39.0440   34.6620   40.8750 C   0  0  0  0  0  0  0  0  0  0  0  0
   39.7760   35.7500   40.4780 C   0  0  0  0  0  0  0  0  0  0  0  0
   40.7850   35.5790   39.5710 C   0  0  0  0  0  0  0  0  0  0  0  0
   41.0740   34.3420   39.0540 C   0  0  0  0  0  0  0  0  0  0  0  0
   40.3350   33.2610   39.4590 C   0  0  0  0  0  0  0  0  0  0  0  0
   38.2910   30.2450   41.9330 C   0  0  0  0  0  0  0  0  0  0  0  0
   36.9660   30.1250   41.4580 C   0  0  0  0  0  0  0  0  0  0  0  0
   36.4560   31.1070   40.6300 C   0  0  0  0  0  0  0  0  0  0  0  0
   37.2820   32.1330   40.3310 N   0  0  0  0  0  0  0  0  0  0  0  0
   38.5390   32.2380   40.7870 C   0  0  0  0  0  0  0  0  0  0  0  0
   39.0540   31.2960   41.5920 N   0  0  0  0  0  0  0  0  0  0  0  0
   40.6880   32.0080   38.8830 N   0  0  0  0  0  0  0  0  0  0  0  0
   41.7280   31.3500   39.4350 C   0  0  0  0  0  0  0  0  0  0  0  0
   42.1280   30.1320   38.9300 C   0  0  0  0  0  0  0  0  0  0  0  0
   41.4750   29.5560   37.8530 C   0  0  0  0  0  0  0  0  0  0  0  0
   41.8460   28.4470   37.4020 O   0  0  0  0  0  0  0  0  0  0  0  0
   40.4490   30.2560   37.3480 N   0  0  0  0  0  0  0  0  0  0  0  0
   40.0440   31.4420   37.8220 C   0  0  0  0  0  0  0  0  0  0  0  0
   39.0660   32.0880   37.3250 O   0  0  0  0  0  0  0  0  0  0  0  0
   38.2317   34.7925   41.6051 H   0  0  0  0  0  0  0  0  0  0  0  0
   39.5549   36.7483   40.8837 H   0  0  0  0  0  0  0  0  0  0  0  0
   41.3758   36.4497   39.2501 H   0  0  0  0  0  0  0  0  0  0  0  0
   41.8878   34.2191   38.3242 H   0  0  0  0  0  0  0  0  0  0  0  0
   38.7035   29.4664   42.5915 H   0  0  0  0  0  0  0  0  0  0  0  0
   36.3480   29.2609   41.7435 H   0  0  0  0  0  0  0  0  0  0  0  0
   35.4307   31.0557   40.2350 H   0  0  0  0  0  0  0  0  0  0  0  0
   42.2595   31.7880   40.2927 H   0  0  0  0  0  0  0  0  0  0  0  0
   42.9795   29.6088   39.3896 H   0  0  0  0  0  0  0  0  0  0  0  0
   39.9406   29.8573   36.5459 H   0  0  0  0  0  0  0  0  0  0  0  0
  1 11  1  0
  1  2  2  0
  3  2  1  0
  4  3  2  0
  5  6  2  0
  5  4  1  0
  6  1  1  0
  8  7  2  0
  9  8  1  0
 10  9  2  0
 10 11  1  0
 11 12  2  0
 12  7  1  0
 13 14  1  0
 13  6  1  0
 15 14  2  0
 16 15  1  0
 17 16  2  0
 18 19  1  0
 18 16  1  0
 19 13  1  0
 20 19  2  0
  2 21  1  0
  3 22  1  0
  4 23  1  0
  5 24  1  0
  7 25  1  0
  8 26  1  0
  9 27  1  0
 14 28  1  0
 15 29  1  0
 18 30  1  0
M  ISO  8  21  14  22  14  23  14  24  14  25  14  26  14  27  14  28  14
M  ISO  2  29  14  30   9
M  END
>  <minimizedAffinity>  (1) 
-5.06277418

>  <minimizedRMSD>  (1) 
4.09706974

$$$$
