
     RDKit          3D

 31 33  0  0  0  0  0  0  0  0999 V2000
   39.2230   31.0640   40.7080 C   0  0  0  0  0  0  0  0  0  0  0  0
   38.1160   30.5770   41.3850 C   0  0  0  0  0  0  0  0  0  0  0  0
   36.8330   30.8580   40.9580 C   0  0  0  0  0  0  0  0  0  0  0  0
   36.6830   31.6390   39.8380 C   0  0  0  0  0  0  0  0  0  0  0  0
   37.7660   32.1300   39.1550 C   0  0  0  0  0  0  0  0  0  0  0  0
   39.0290   31.8370   39.5970 C   0  0  0  0  0  0  0  0  0  0  0  0
   40.0880   32.3910   38.8230 N   0  0  0  0  0  0  0  0  0  0  0  0
   40.7080   31.8280   37.7920 C   0  0  0  0  0  0  0  0  0  0  0  0
   41.7250   32.5010   37.1390 C   0  0  0  0  0  0  0  0  0  0  0  0
   42.0530   33.7620   37.6070 C   0  0  0  0  0  0  0  0  0  0  0  0
   43.0940   34.4810   36.9580 N   0  0  0  0  0  0  0  0  0  0  0  0
   41.4230   34.3440   38.6610 N   0  0  0  0  0  0  0  0  0  0  0  0
   40.4410   33.6210   39.2430 C   0  0  0  0  0  0  0  0  0  0  0  0
   39.9020   34.2370   40.2210 O   0  0  0  0  0  0  0  0  0  0  0  0
   42.4780   31.2250   42.3930 C   0  0  0  0  0  0  0  0  0  0  0  0
   43.1220   30.0910   41.9030 C   0  0  0  0  0  0  0  0  0  0  0  0
   42.4220   29.2930   41.0020 C   0  0  0  0  0  0  0  0  0  0  0  0
   41.1580   29.6480   40.6430 N   0  0  0  0  0  0  0  0  0  0  0  0
   40.5740   30.7710   41.1530 C   0  0  0  0  0  0  0  0  0  0  0  0
   41.2210   31.5620   42.0240 N   0  0  0  0  0  0  0  0  0  0  0  0
   38.2622   29.9544   42.2800 H   0  0  0  0  0  0  0  0  0  0  0  0
   35.9578   30.4682   41.4984 H   0  0  0  0  0  0  0  0  0  0  0  0
   35.6701   31.8762   39.4805 H   0  0  0  0  0  0  0  0  0  0  0  0
   37.6218   32.7535   38.2603 H   0  0  0  0  0  0  0  0  0  0  0  0
   40.4118   30.8232   37.4563 H   0  0  0  0  0  0  0  0  0  0  0  0
   42.2513   32.0528   36.2833 H   0  0  0  0  0  0  0  0  0  0  0  0
   43.3548   35.4208   37.2892 H   0  0  0  0  0  0  0  0  0  0  0  0
   43.5872   34.0621   36.1567 H   0  0  0  0  0  0  0  0  0  0  0  0
   43.0115   31.8703   43.1064 H   0  0  0  0  0  0  0  0  0  0  0  0
   44.1451   29.8356   42.2162 H   0  0  0  0  0  0  0  0  0  0  0  0
   42.8850   28.3864   40.5852 H   0  0  0  0  0  0  0  0  0  0  0  0
  1 19  1  0
  1  2  2  0
  3  2  1  0
  4  3  2  0
  5  6  2  0
  5  4  1  0
  6  1  1  0
  7 13  1  0
  7  6  1  0
  8  7  1  0
  9 10  1  0
  9  8  2  0
 10 12  2  0
 11 10  1  0
 12 13  1  0
 13 14  2  0
 16 15  2  0
 17 16  1  0
 18 17  2  0
 18 19  1  0
 19 20  2  0
 20 15  1  0
  2 21  1  0
  3 22  1  0
  4 23  1  0
  5 24  1  0
  8 25  1  0
  9 26  1  0
 11 27  1  0
 11 28  1  0
 15 29  1  0
 16 30  1  0
 17 31  1  0
M  ISO  8  21  14  22  14  23  14  24  14  25  14  26  14  29  14  30  14
M  ISO  1  31  14
M  END
>  <minimizedAffinity>  (1) 
-4.92662811

>  <minimizedRMSD>  (1) 
4.84577084

$$$$
