
     RDKit          3D

 31 34  0  0  0  0  0  0  0  0999 V2000
   37.6140   28.8370   40.7900 C   0  0  0  0  0  0  0  0  0  0  0  0
   36.7130   28.1050   41.5640 C   0  0  0  0  0  0  0  0  0  0  0  0
   36.8490   28.0560   42.9390 C   0  0  0  0  0  0  0  0  0  0  0  0
   37.8860   28.7430   43.5260 C   0  0  0  0  0  0  0  0  0  0  0  0
   38.7730   29.4640   42.7600 C   0  0  0  0  0  0  0  0  0  0  0  0
   38.6520   29.5230   41.3950 C   0  0  0  0  0  0  0  0  0  0  0  0
   39.6050   30.2880   40.6610 N   0  0  0  0  0  0  0  0  0  0  0  0
   40.7710   29.9780   40.0370 C   0  0  0  0  0  0  0  0  0  0  0  0
   41.2610   31.1100   39.4980 N   0  0  0  0  0  0  0  0  0  0  0  0
   40.4200   32.1260   39.7740 C   0  0  0  0  0  0  0  0  0  0  0  0
   40.5440   33.4550   39.4090 C   0  0  0  0  0  0  0  0  0  0  0  0
   39.5390   34.2750   39.8250 N   0  0  0  0  0  0  0  0  0  0  0  0
   38.5070   33.7950   40.5430 C   0  0  0  0  0  0  0  0  0  0  0  0
   38.4120   32.5020   40.8830 N   0  0  0  0  0  0  0  0  0  0  0  0
   39.3540   31.6190   40.5170 C   0  0  0  0  0  0  0  0  0  0  0  0
   37.9160   28.0930   37.2080 C   0  0  0  0  0  0  0  0  0  0  0  0
   37.1040   29.0960   36.6320 C   0  0  0  0  0  0  0  0  0  0  0  0
   36.4830   29.9910   37.4850 C   0  0  0  0  0  0  0  0  0  0  0  0
   36.6720   29.8750   38.8300 N   0  0  0  0  0  0  0  0  0  0  0  0
   37.4670   28.8880   39.3340 C   0  0  0  0  0  0  0  0  0  0  0  0
   38.0840   28.0060   38.5440 N   0  0  0  0  0  0  0  0  0  0  0  0
   35.8889   27.5632   41.0769 H   0  0  0  0  0  0  0  0  0  0  0  0
   36.1413   27.4785   43.5519 H   0  0  0  0  0  0  0  0  0  0  0  0
   38.0075   28.7158   44.6189 H   0  0  0  0  0  0  0  0  0  0  0  0
   39.5955   30.0038   43.2521 H   0  0  0  0  0  0  0  0  0  0  0  0
   41.2321   28.9808   39.9820 H   0  0  0  0  0  0  0  0  0  0  0  0
   41.3975   33.8248   38.8219 H   0  0  0  0  0  0  0  0  0  0  0  0
   37.7141   34.4876   40.8618 H   0  0  0  0  0  0  0  0  0  0  0  0
   38.4217   27.3679   36.5534 H   0  0  0  0  0  0  0  0  0  0  0  0
   36.9702   29.1629   35.5422 H   0  0  0  0  0  0  0  0  0  0  0  0
   35.8425   30.7890   37.0814 H   0  0  0  0  0  0  0  0  0  0  0  0
  1  6  1  0
  1  2  2  0
  2  3  1  0
  3  4  2  0
  5  4  1  0
  6  5  2  0
  7  6  1  0
  8  7  1  0
  9 10  1  0
  9  8  2  0
 10 15  2  0
 11 10  1  0
 11 12  2  0
 12 13  1  0
 13 14  2  0
 15  7  1  0
 15 14  1  0
 16 21  2  0
 17 16  1  0
 17 18  2  0
 18 19  1  0
 19 20  2  0
 20  1  1  0
 21 20  1  0
  2 22  1  0
  3 23  1  0
  4 24  1  0
  5 25  1  0
  8 26  1  0
 11 27  1  0
 13 28  1  0
 16 29  1  0
 17 30  1  0
 18 31  1  0
M  ISO  8  22  14  23  14  24  14  25  14  26  14  27  14  28  14  29  14
M  ISO  2  30  14  31  14
M  END
>  <minimizedAffinity>  (1) 
-4.90025234

>  <minimizedRMSD>  (1) 
4.72492647

$$$$
