
     RDKit          3D

 27 28  0  0  0  0  0  0  0  0999 V2000
   37.8810   31.2890   41.0250 C   0  0  0  0  0  0  0  0  0  0  0  0
   37.0340   31.7640   40.0110 C   0  0  0  0  0  0  0  0  0  0  0  0
   37.2620   32.9880   39.4320 C   0  0  0  0  0  0  0  0  0  0  0  0
   38.3440   33.7190   39.8810 C   0  0  0  0  0  0  0  0  0  0  0  0
   39.1560   33.2340   40.8710 C   0  0  0  0  0  0  0  0  0  0  0  0
   38.9720   32.0170   41.4810 C   0  0  0  0  0  0  0  0  0  0  0  0
   37.7800   28.4750   43.4070 C   0  0  0  0  0  0  0  0  0  0  0  0
   36.9690   27.5510   42.7080 C   0  0  0  0  0  0  0  0  0  0  0  0
   36.4810   27.9090   41.4410 C   0  0  0  0  0  0  0  0  0  0  0  0
   36.8000   29.1210   40.9350 N   0  0  0  0  0  0  0  0  0  0  0  0
   37.5890   29.9840   41.6470 C   0  0  0  0  0  0  0  0  0  0  0  0
   38.0600   29.6600   42.8480 N   0  0  0  0  0  0  0  0  0  0  0  0
   39.8890   31.5960   42.4420 N   0  0  0  0  0  0  0  0  0  0  0  0
   41.3010   31.5300   42.1870 C   0  0  0  0  0  0  0  0  0  0  0  0
   41.8740   32.5280   41.6190 N   0  0  0  0  0  0  0  0  0  0  0  0
   42.1820   30.4420   42.5260 N   0  0  0  0  0  0  0  0  0  0  0  0
   41.4510   33.4020   41.3080 H   0  0  0  0  0  0  0  0  0  0  0  0
   36.1827   31.1519   39.6784 H   0  0  0  0  0  0  0  0  0  0  0  0
   36.6054   33.3729   38.6379 H   0  0  0  0  0  0  0  0  0  0  0  0
   38.5562   34.7032   39.4378 H   0  0  0  0  0  0  0  0  0  0  0  0
   40.0041   33.8543   41.1965 H   0  0  0  0  0  0  0  0  0  0  0  0
   38.1775   28.2229   44.4012 H   0  0  0  0  0  0  0  0  0  0  0  0
   36.7256   26.5725   43.1476 H   0  0  0  0  0  0  0  0  0  0  0  0
   35.8489   27.2138   40.8691 H   0  0  0  0  0  0  0  0  0  0  0  0
   39.5407   31.3214   43.3716 H   0  0  0  0  0  0  0  0  0  0  0  0
   43.1842   30.4998   42.2952 H   0  0  0  0  0  0  0  0  0  0  0  0
   41.8098   29.6062   42.9992 H   0  0  0  0  0  0  0  0  0  0  0  0
  1  6  1  0
  1 11  1  0
  2  1  2  0
  3  4  2  0
  3  2  1  0
  4  5  1  0
  5  6  2  0
  6 13  1  0
  8  7  2  0
  9  8  1  0
 10  9  2  0
 10 11  1  0
 11 12  2  0
 12  7  1  0
 14 13  1  0
 14 16  1  0
 15 14  2  0
 17 15  1  0
  2 18  1  0
  3 19  1  0
  4 20  1  0
  5 21  1  0
  7 22  1  0
  8 23  1  0
  9 24  1  0
 13 25  1  0
 16 26  1  0
 16 27  1  0
M  ISO  7  18  14  19  14  20  14  21  14  22  14  23  14  24  14
M  END
>  <minimizedAffinity>  (1) 
-4.75429344

>  <minimizedRMSD>  (1) 
0.369786203

$$$$
