
     RDKit          3D

 27 29  0  0  0  0  0  0  0  0999 V2000
   40.6560   34.1110   39.3670 C   0  0  0  0  0  0  0  0  0  0  0  0
   41.3440   35.2890   39.2000 C   0  0  0  0  0  0  0  0  0  0  0  0
   40.8340   36.4880   39.6500 C   0  0  0  0  0  0  0  0  0  0  0  0
   39.6070   36.4630   40.2730 C   0  0  0  0  0  0  0  0  0  0  0  0
   38.8960   35.3050   40.4560 C   0  0  0  0  0  0  0  0  0  0  0  0
   39.4320   34.1300   39.9970 C   0  0  0  0  0  0  0  0  0  0  0  0
   41.4500   31.1970   37.2820 C   0  0  0  0  0  0  0  0  0  0  0  0
   42.2880   30.4580   38.1240 C   0  0  0  0  0  0  0  0  0  0  0  0
   42.5630   30.9680   39.3780 C   0  0  0  0  0  0  0  0  0  0  0  0
   42.0060   32.1480   39.7200 N   0  0  0  0  0  0  0  0  0  0  0  0
   41.2000   32.8430   38.8890 C   0  0  0  0  0  0  0  0  0  0  0  0
   40.9170   32.3690   37.6630 N   0  0  0  0  0  0  0  0  0  0  0  0
   38.6460   32.9630   40.2160 N   0  0  0  0  0  0  0  0  0  0  0  0
   37.5440   32.8530   39.4200 C   0  0  0  0  0  0  0  0  0  0  0  0
   36.9070   31.6650   39.7730 C   0  0  0  0  0  0  0  0  0  0  0  0
   37.6160   31.0930   40.7470 N   0  0  0  0  0  0  0  0  0  0  0  0
   38.6730   31.8800   41.0170 C   0  0  0  0  0  0  0  0  0  0  0  0
   42.3220   35.2747   38.6967 H   0  0  0  0  0  0  0  0  0  0  0  0
   41.3869   37.4295   39.5162 H   0  0  0  0  0  0  0  0  0  0  0  0
   39.1802   37.4087   40.6383 H   0  0  0  0  0  0  0  0  0  0  0  0
   37.9181   35.3187   40.9595 H   0  0  0  0  0  0  0  0  0  0  0  0
   41.2213   30.8068   36.2793 H   0  0  0  0  0  0  0  0  0  0  0  0
   42.7155   29.4987   37.7970 H   0  0  0  0  0  0  0  0  0  0  0  0
   43.2174   30.4274   40.0776 H   0  0  0  0  0  0  0  0  0  0  0  0
   37.2201   33.5657   38.6472 H   0  0  0  0  0  0  0  0  0  0  0  0
   35.9827   31.2690   39.3271 H   0  0  0  0  0  0  0  0  0  0  0  0
   39.4417   31.6713   41.7756 H   0  0  0  0  0  0  0  0  0  0  0  0
  1  6  1  0
  2  1  2  0
  2  3  1  0
  3  4  2  0
  4  5  1  0
  6 13  1  0
  6  5  2  0
  7 12  2  0
  7  8  1  0
  8  9  2  0
  9 10  1  0
 11  1  1  0
 11 10  2  0
 12 11  1  0
 13 17  1  0
 14 15  2  0
 14 13  1  0
 15 16  1  0
 16 17  2  0
  2 18  1  0
  3 19  1  0
  4 20  1  0
  5 21  1  0
  7 22  1  0
  8 23  1  0
  9 24  1  0
 14 25  1  0
 15 26  1  0
 17 27  1  0
M  ISO  8  18  14  19  14  20  14  21  14  22  14  23  14  24  14  25  14
M  ISO  2  26  14  27  14
M  END
>  <minimizedAffinity>  (1) 
-4.62268591

>  <minimizedRMSD>  (1) 
5.26260376

$$$$
