
     RDKit          3D

 28 30  0  0  0  0  0  0  0  0999 V2000
   36.7750   28.8330   39.9610 C   0  0  0  0  0  0  0  0  0  0  0  0
   35.8090   27.9790   39.4340 C   0  0  0  0  0  0  0  0  0  0  0  0
   35.1590   28.2560   38.2610 C   0  0  0  0  0  0  0  0  0  0  0  0
   35.4940   29.4210   37.6120 C   0  0  0  0  0  0  0  0  0  0  0  0
   36.4520   30.2930   38.1110 C   0  0  0  0  0  0  0  0  0  0  0  0
   37.0960   29.9910   39.2970 C   0  0  0  0  0  0  0  0  0  0  0  0
   37.7680   28.7240   43.5040 C   0  0  0  0  0  0  0  0  0  0  0  0
   38.8520   27.8440   43.4730 C   0  0  0  0  0  0  0  0  0  0  0  0
   39.2130   27.3130   42.2390 C   0  0  0  0  0  0  0  0  0  0  0  0
   38.5120   27.6620   41.1300 N   0  0  0  0  0  0  0  0  0  0  0  0
   37.4580   28.5270   41.2110 C   0  0  0  0  0  0  0  0  0  0  0  0
   37.0880   29.0530   42.3800 N   0  0  0  0  0  0  0  0  0  0  0  0
   38.0880   30.9600   39.7490 C   0  0  0  0  0  0  0  0  0  0  0  0
   39.4120   30.7790   39.3300 C   0  0  0  0  0  0  0  0  0  0  0  0
   40.3690   31.6930   39.7520 C   0  0  0  0  0  0  0  0  0  0  0  0
   40.0250   32.7260   40.5470 N   0  0  0  0  0  0  0  0  0  0  0  0
   38.7530   32.8980   40.9490 C   0  0  0  0  0  0  0  0  0  0  0  0
   37.8190   32.0260   40.5510 N   0  0  0  0  0  0  0  0  0  0  0  0
   35.5609   27.0546   39.9762 H   0  0  0  0  0  0  0  0  0  0  0  0
   34.3987   27.5733   37.8539 H   0  0  0  0  0  0  0  0  0  0  0  0
   34.9871   29.6698   36.6680 H   0  0  0  0  0  0  0  0  0  0  0  0
   36.6970   31.2172   37.5671 H   0  0  0  0  0  0  0  0  0  0  0  0
   37.4589   29.1607   44.4651 H   0  0  0  0  0  0  0  0  0  0  0  0
   39.3997   27.5807   44.3899 H   0  0  0  0  0  0  0  0  0  0  0  0
   40.0601   26.6155   42.1623 H   0  0  0  0  0  0  0  0  0  0  0  0
   39.6874   29.9335   38.6824 H   0  0  0  0  0  0  0  0  0  0  0  0
   41.4155   31.5730   39.4351 H   0  0  0  0  0  0  0  0  0  0  0  0
   38.4837   33.7451   41.5970 H   0  0  0  0  0  0  0  0  0  0  0  0
  1 11  1  0
  2  1  2  0
  3  2  1  0
  4  5  1  0
  4  3  2  0
  5  6  2  0
  6 13  1  0
  6  1  1  0
  8  7  2  0
  9  8  1  0
 10 11  1  0
 10  9  2  0
 11 12  2  0
 12  7  1  0
 13 18  1  0
 14 13  2  0
 14 15  1  0
 15 16  2  0
 16 17  1  0
 18 17  2  0
  2 19  1  0
  3 20  1  0
  4 21  1  0
  5 22  1  0
  7 23  1  0
  8 24  1  0
  9 25  1  0
 14 26  1  0
 15 27  1  0
 17 28  1  0
M  ISO  8  19  14  20  14  21  14  22  14  23  14  24  14  25  14  26  14
M  ISO  2  27  14  28  14
M  END
>  <minimizedAffinity>  (1) 
-4.61474895

>  <minimizedRMSD>  (1) 
3.63084745

$$$$
