
     RDKit          3D

 33 35  0  0  0  0  0  0  0  0999 V2000
   36.7860   28.7260   40.0590 C   0  0  0  0  0  0  0  0  0  0  0  0
   35.8170   27.9490   39.4220 C   0  0  0  0  0  0  0  0  0  0  0  0
   35.2770   28.3850   38.2220 C   0  0  0  0  0  0  0  0  0  0  0  0
   35.7040   29.5690   37.6870 C   0  0  0  0  0  0  0  0  0  0  0  0
   36.6560   30.3320   38.3130 C   0  0  0  0  0  0  0  0  0  0  0  0
   37.2000   29.9090   39.5070 C   0  0  0  0  0  0  0  0  0  0  0  0
   37.4790   28.2800   43.6500 C   0  0  0  0  0  0  0  0  0  0  0  0
   38.5550   27.3950   43.6240 C   0  0  0  0  0  0  0  0  0  0  0  0
   39.0260   26.9660   42.3750 C   0  0  0  0  0  0  0  0  0  0  0  0
   38.4200   27.4250   41.2540 N   0  0  0  0  0  0  0  0  0  0  0  0
   37.3670   28.2930   41.3200 C   0  0  0  0  0  0  0  0  0  0  0  0
   36.9250   28.6960   42.5060 N   0  0  0  0  0  0  0  0  0  0  0  0
   38.1730   30.7780   40.0560 N   0  0  0  0  0  0  0  0  0  0  0  0
   39.6460   30.7420   40.0640 C   0  0  0  0  0  0  0  0  0  0  0  0
   40.0460   31.8620   39.1040 C   0  0  0  0  0  0  0  0  0  0  0  0
   39.1460   32.9220   39.1760 O   0  0  0  0  0  0  0  0  0  0  0  0
   38.6570   33.0740   40.4910 C   0  0  0  0  0  0  0  0  0  0  0  0
   37.6770   31.9500   40.7560 C   0  0  0  0  0  0  0  0  0  0  0  0
   35.4851   26.9998   39.8680 H   0  0  0  0  0  0  0  0  0  0  0  0
   34.5132   27.7851   37.7056 H   0  0  0  0  0  0  0  0  0  0  0  0
   35.2751   29.9162   36.7354 H   0  0  0  0  0  0  0  0  0  0  0  0
   36.9852   31.2803   37.8631 H   0  0  0  0  0  0  0  0  0  0  0  0
   37.0847   28.6370   44.6128 H   0  0  0  0  0  0  0  0  0  0  0  0
   39.0213   27.0432   44.5561 H   0  0  0  0  0  0  0  0  0  0  0  0
   39.8736   26.2682   42.3066 H   0  0  0  0  0  0  0  0  0  0  0  0
   40.0367   30.9342   41.0741 H   0  0  0  0  0  0  0  0  0  0  0  0
   40.0482   29.7628   39.7648 H   0  0  0  0  0  0  0  0  0  0  0  0
   40.0582   31.4688   38.0767 H   0  0  0  0  0  0  0  0  0  0  0  0
   41.0441   32.2280   39.3867 H   0  0  0  0  0  0  0  0  0  0  0  0
   39.4896   33.0207   41.2079 H   0  0  0  0  0  0  0  0  0  0  0  0
   38.1614   34.0494   40.6052 H   0  0  0  0  0  0  0  0  0  0  0  0
   36.6802   32.2215   40.3783 H   0  0  0  0  0  0  0  0  0  0  0  0
   37.5882   31.7537   41.8347 H   0  0  0  0  0  0  0  0  0  0  0  0
  1 11  1  0
  2  1  2  0
  3  2  1  0
  4  3  2  0
  4  5  1  0
  5  6  2  0
  6 13  1  0
  6  1  1  0
  8  7  2  0
  9  8  1  0
 10 11  1  0
 10  9  2  0
 11 12  2  0
 12  7  1  0
 13 14  1  0
 13 18  1  0
 15 16  1  0
 15 14  1  0
 16 17  1  0
 17 18  1  0
  2 19  1  0
  3 20  1  0
  4 21  1  0
  5 22  1  0
  7 23  1  0
  8 24  1  0
  9 25  1  0
 14 26  1  0
 14 27  1  0
 15 28  1  0
 15 29  1  0
 17 30  1  0
 17 31  1  0
 18 32  1  0
 18 33  1  0
M  ISO  8  19  14  20  14  21  14  22  14  23  14  24  14  25  14  26  13
M  ISO  7  27  13  28  13  29  13  30  13  31  13  32  13  33  13
M  END
>  <minimizedAffinity>  (1) 
-4.60689831

>  <minimizedRMSD>  (1) 
3.62629342

$$$$
