
     RDKit          3D

 34 36  0  0  0  0  0  0  0  0999 V2000
   37.5430   30.4130   40.1820 C   0  0  0  0  0  0  0  0  0  0  0  0
   37.4130   31.6900   40.7250 C   0  0  0  0  0  0  0  0  0  0  0  0
   37.3240   32.8090   39.9220 C   0  0  0  0  0  0  0  0  0  0  0  0
   37.3680   32.6250   38.5570 C   0  0  0  0  0  0  0  0  0  0  0  0
   37.4960   31.3590   37.9950 C   0  0  0  0  0  0  0  0  0  0  0  0
   37.5820   30.2720   38.8260 C   0  0  0  0  0  0  0  0  0  0  0  0
   38.8540   27.6110   42.1670 C   0  0  0  0  0  0  0  0  0  0  0  0
   37.6690   27.0470   42.6730 C   0  0  0  0  0  0  0  0  0  0  0  0
   36.4490   27.6410   42.3210 C   0  0  0  0  0  0  0  0  0  0  0  0
   36.4660   28.7290   41.5110 N   0  0  0  0  0  0  0  0  0  0  0  0
   37.6370   29.2490   41.0380 C   0  0  0  0  0  0  0  0  0  0  0  0
   38.8220   28.6940   41.3630 N   0  0  0  0  0  0  0  0  0  0  0  0
   37.7070   29.0230   38.1550 N   0  0  0  0  0  0  0  0  0  0  0  0
   36.7420   28.0220   37.7400 C   0  0  0  0  0  0  0  0  0  0  0  0
   36.6870   28.1270   36.2240 C   0  0  0  0  0  0  0  0  0  0  0  0
   37.9790   28.2700   35.6260 N   0  0  0  0  0  0  0  0  0  0  0  0
   39.0880   27.9350   36.4680 C   0  0  0  0  0  0  0  0  0  0  0  0
   39.0780   28.6490   37.7980 C   0  0  0  0  0  0  0  0  0  0  0  0
   37.3806   31.8087   41.8181 H   0  0  0  0  0  0  0  0  0  0  0  0
   37.2214   33.8141   40.3570 H   0  0  0  0  0  0  0  0  0  0  0  0
   37.3002   33.5011   37.8953 H   0  0  0  0  0  0  0  0  0  0  0  0
   37.5277   31.2322   36.9028 H   0  0  0  0  0  0  0  0  0  0  0  0
   39.8227   27.1617   42.4311 H   0  0  0  0  0  0  0  0  0  0  0  0
   37.6988   26.1634   43.3275 H   0  0  0  0  0  0  0  0  0  0  0  0
   35.4978   27.2334   42.6938 H   0  0  0  0  0  0  0  0  0  0  0  0
   37.0717   27.0181   38.0456 H   0  0  0  0  0  0  0  0  0  0  0  0
   35.7561   28.1852   38.1998 H   0  0  0  0  0  0  0  0  0  0  0  0
   36.2157   27.2161   35.8265 H   0  0  0  0  0  0  0  0  0  0  0  0
   36.1088   29.0297   35.9776 H   0  0  0  0  0  0  0  0  0  0  0  0
   38.0143   27.6599   34.7969 H   0  0  0  0  0  0  0  0  0  0  0  0
   39.0667   26.8513   36.6555 H   0  0  0  0  0  0  0  0  0  0  0  0
   39.9995   28.2519   35.9400 H   0  0  0  0  0  0  0  0  0  0  0  0
   39.4874   27.9833   38.5721 H   0  0  0  0  0  0  0  0  0  0  0  0
   39.6931   29.5580   37.7248 H   0  0  0  0  0  0  0  0  0  0  0  0
  1  2  2  0
  1 11  1  0
  3  2  1  0
  4  3  2  0
  5  4  1  0
  5  6  2  0
  6  1  1  0
  7  8  2  0
  9  8  1  0
 10  9  2  0
 11 12  2  0
 11 10  1  0
 12  7  1  0
 13  6  1  0
 14 13  1  0
 15 14  1  0
 16 15  1  0
 16 17  1  0
 17 18  1  0
 18 13  1  0
  2 19  1  0
  3 20  1  0
  4 21  1  0
  5 22  1  0
  7 23  1  0
  8 24  1  0
  9 25  1  0
 14 26  1  0
 14 27  1  0
 15 28  1  0
 15 29  1  0
 16 30  1  0
 17 31  1  0
 17 32  1  0
 18 33  1  0
 18 34  1  0
M  ISO  8  19  14  20  14  21  14  22  14  23  14  24  14  25  14  26  13
M  ISO  8  27  13  28  13  29  13  30   5  31  13  32  13  33  13  34  13
M  END
>  <minimizedAffinity>  (1) 
-4.53270674

>  <minimizedRMSD>  (1) 
4.25879383

$$$$
