
     RDKit          3D

 27 29  0  0  0  0  0  0  0  0999 V2000
   37.4880   29.2180   41.5600 C   0  0  0  0  0  0  0  0  0  0  0  0
   36.3620   28.4070   41.7040 C   0  0  0  0  0  0  0  0  0  0  0  0
   36.2840   27.5020   42.7510 C   0  0  0  0  0  0  0  0  0  0  0  0
   37.3440   27.4350   43.6330 C   0  0  0  0  0  0  0  0  0  0  0  0
   38.4590   28.2420   43.4880 C   0  0  0  0  0  0  0  0  0  0  0  0
   38.5230   29.1280   42.4530 C   0  0  0  0  0  0  0  0  0  0  0  0
   38.1590   30.7490   38.2940 C   0  0  0  0  0  0  0  0  0  0  0  0
   37.6430   32.0530   38.4800 C   0  0  0  0  0  0  0  0  0  0  0  0
   37.0860   32.3710   39.7060 C   0  0  0  0  0  0  0  0  0  0  0  0
   37.0630   31.4170   40.6680 N   0  0  0  0  0  0  0  0  0  0  0  0
   37.5690   30.1710   40.4540 C   0  0  0  0  0  0  0  0  0  0  0  0
   38.1190   29.8240   39.2720 N   0  0  0  0  0  0  0  0  0  0  0  0
   39.7240   29.9540   42.3480 C   0  0  0  0  0  0  0  0  0  0  0  0
   40.1230   31.2340   42.6700 C   0  0  0  0  0  0  0  0  0  0  0  0
   41.4580   31.3370   42.2670 C   0  0  0  0  0  0  0  0  0  0  0  0
   41.8170   30.1360   41.7250 N   0  0  0  0  0  0  0  0  0  0  0  0
   40.7690   29.3240   41.7820 N   0  0  0  0  0  0  0  0  0  0  0  0
   35.5337   28.4860   40.9845 H   0  0  0  0  0  0  0  0  0  0  0  0
   35.4027   26.8556   42.8756 H   0  0  0  0  0  0  0  0  0  0  0  0
   37.3014   26.7234   44.4708 H   0  0  0  0  0  0  0  0  0  0  0  0
   39.2903   28.1691   44.2047 H   0  0  0  0  0  0  0  0  0  0  0  0
   38.6050   30.4834   37.3242 H   0  0  0  0  0  0  0  0  0  0  0  0
   37.6836   32.7959   37.6698 H   0  0  0  0  0  0  0  0  0  0  0  0
   36.6724   33.3726   39.8949 H   0  0  0  0  0  0  0  0  0  0  0  0
   39.5142   32.0160   43.1474 H   0  0  0  0  0  0  0  0  0  0  0  0
   42.1015   32.2234   42.3681 H   0  0  0  0  0  0  0  0  0  0  0  0
   42.7423   29.9009   41.3384 H   0  0  0  0  0  0  0  0  0  0  0  0
  1  2  2  0
  1  6  1  0
  2  3  1  0
  3  4  2  0
  5  4  1  0
  6  5  2  0
  7  8  2  0
  7 12  1  0
  8  9  1  0
  9 10  2  0
 11 10  1  0
 11  1  1  0
 12 11  2  0
 13  6  1  0
 13 14  1  0
 15 14  2  0
 16 17  1  0
 16 15  1  0
 17 13  2  0
  2 18  1  0
  3 19  1  0
  4 20  1  0
  5 21  1  0
  7 22  1  0
  8 23  1  0
  9 24  1  0
 14 25  1  0
 15 26  1  0
 16 27  1  0
M  ISO  8  18  14  19  14  20  14  21  14  22  14  23  14  24  14  25  14
M  ISO  2  26  14  27   9
M  END
>  <minimizedAffinity>  (1) 
-4.52270603

>  <minimizedRMSD>  (1) 
4.12960911

$$$$
