
     RDKit          3D

 39 42  0  0  0  0  0  0  0  0999 V2000
   37.2820   28.4120   43.4890 C   0  0  0  0  0  0  0  0  0  0  0  0
   37.0010   27.3330   42.6550 C   0  0  0  0  0  0  0  0  0  0  0  0
   37.0020   27.5200   41.2980 C   0  0  0  0  0  0  0  0  0  0  0  0
   37.2810   28.7470   40.8390 N   0  0  0  0  0  0  0  0  0  0  0  0
   37.5580   29.8080   41.6330 C   0  0  0  0  0  0  0  0  0  0  0  0
   37.5450   29.5890   42.9210 N   0  0  0  0  0  0  0  0  0  0  0  0
   37.8480   31.0960   41.0190 C   0  0  0  0  0  0  0  0  0  0  0  0
   36.8640   31.7500   40.2700 C   0  0  0  0  0  0  0  0  0  0  0  0
   37.1360   32.9700   39.6860 C   0  0  0  0  0  0  0  0  0  0  0  0
   38.3700   33.5110   39.8580 C   0  0  0  0  0  0  0  0  0  0  0  0
   39.3280   32.8650   40.5930 C   0  0  0  0  0  0  0  0  0  0  0  0
   39.0730   31.6510   41.1800 C   0  0  0  0  0  0  0  0  0  0  0  0
   40.2010   31.0530   41.9560 C   0  0  0  0  0  0  0  0  0  0  0  0
   41.3860   31.7540   41.8010 F   0  0  0  0  0  0  0  0  0  0  0  0
   40.3650   29.7140   41.7530 F   0  0  0  0  0  0  0  0  0  0  0  0
   39.9250   31.1800   43.3440 F   0  0  0  0  0  0  0  0  0  0  0  0
   36.8160   26.5300   40.2590 C   0  0  0  0  0  0  0  0  0  0  0  0
   36.1090   26.9300   39.1140 C   0  0  0  0  0  0  0  0  0  0  0  0
   35.8290   26.1250   38.0350 C   0  0  0  0  0  0  0  0  0  0  0  0
   36.2590   24.8170   38.0430 C   0  0  0  0  0  0  0  0  0  0  0  0
   36.9550   24.3530   39.1330 C   0  0  0  0  0  0  0  0  0  0  0  0
   37.3830   23.0440   39.2210 C   0  0  0  0  0  0  0  0  0  0  0  0
   38.0590   22.5320   40.3350 C   0  0  0  0  0  0  0  0  0  0  0  0
   38.2790   23.4420   41.3740 C   0  0  0  0  0  0  0  0  0  0  0  0
   37.8470   24.7280   41.2570 C   0  0  0  0  0  0  0  0  0  0  0  0
   37.1900   25.2200   40.1630 C   0  0  0  0  0  0  0  0  0  0  0  0
   37.2868   28.2968   44.5829 H   0  0  0  0  0  0  0  0  0  0  0  0
   36.7810   26.3428   43.0805 H   0  0  0  0  0  0  0  0  0  0  0  0
   35.8720   31.2909   40.1465 H   0  0  0  0  0  0  0  0  0  0  0  0
   36.3704   33.4931   39.0941 H   0  0  0  0  0  0  0  0  0  0  0  0
   38.6035   34.4833   39.3997 H   0  0  0  0  0  0  0  0  0  0  0  0
   40.3188   33.3270   40.7150 H   0  0  0  0  0  0  0  0  0  0  0  0
   35.7508   27.9694   39.0771 H   0  0  0  0  0  0  0  0  0  0  0  0
   35.2682   26.5212   37.1757 H   0  0  0  0  0  0  0  0  0  0  0  0
   36.0487   24.1543   37.1906 H   0  0  0  0  0  0  0  0  0  0  0  0
   37.1833   22.3702   38.3748 H   0  0  0  0  0  0  0  0  0  0  0  0
   38.3941   21.4857   40.3893 H   0  0  0  0  0  0  0  0  0  0  0  0
   38.8014   23.1186   42.2864 H   0  0  0  0  0  0  0  0  0  0  0  0
   38.0385   25.4143   42.0950 H   0  0  0  0  0  0  0  0  0  0  0  0
  2  1  2  0
  3  2  1  0
  4  3  2  0
  4  5  1  0
  5  6  2  0
  6  1  1  0
  7 12  1  0
  7  5  1  0
  8  7  2  0
  9 10  2  0
  9  8  1  0
 10 11  1  0
 11 12  2  0
 12 13  1  0
 13 16  1  0
 14 13  1  0
 15 13  1  0
 17  3  1  0
 18 17  2  0
 19 20  2  0
 19 18  1  0
 20 21  1  0
 21 22  1  0
 21 26  2  0
 22 23  2  0
 23 24  1  0
 25 24  2  0
 26 17  1  0
 26 25  1  0
  1 27  1  0
  2 28  1  0
  8 29  1  0
  9 30  1  0
 10 31  1  0
 11 32  1  0
 18 33  1  0
 19 34  1  0
 20 35  1  0
 22 36  1  0
 23 37  1  0
 24 38  1  0
 25 39  1  0
M  ISO  8  27  14  28  14  29  14  30  14  31  14  32  14  33  14  34  14
M  ISO  5  35  14  36  14  37  14  38  14  39  14
M  END
>  <minimizedAffinity>  (1) 
-6.36981249

>  <minimizedRMSD>  (1) 
1.12469435

$$$$
