
     RDKit          3D

 37 40  0  0  0  0  0  0  0  0999 V2000
   37.1380   28.2440   42.9180 C   0  0  0  0  0  0  0  0  0  0  0  0
   37.2620   27.1850   42.0290 C   0  0  0  0  0  0  0  0  0  0  0  0
   37.5950   27.4860   40.7230 C   0  0  0  0  0  0  0  0  0  0  0  0
   37.7870   28.7730   40.3510 N   0  0  0  0  0  0  0  0  0  0  0  0
   37.6550   29.7860   41.2600 C   0  0  0  0  0  0  0  0  0  0  0  0
   37.3380   29.5100   42.5060 N   0  0  0  0  0  0  0  0  0  0  0  0
   37.7470   26.4790   39.7270 N   0  0  0  0  0  0  0  0  0  0  0  0
   37.8520   25.1550   40.0250 C   0  0  0  0  0  0  0  0  0  0  0  0
   37.9840   24.4530   38.9090 N   0  0  0  0  0  0  0  0  0  0  0  0
   37.9710   25.2780   37.8590 C   0  0  0  0  0  0  0  0  0  0  0  0
   38.0590   25.2360   36.4840 C   0  0  0  0  0  0  0  0  0  0  0  0
   38.1960   24.0770   35.9720 O   0  0  0  0  0  0  0  0  0  0  0  0
   38.0070   26.3120   35.6860 N   0  0  0  0  0  0  0  0  0  0  0  0
   37.8600   27.5420   36.2520 C   0  0  0  0  0  0  0  0  0  0  0  0
   37.8180   28.6020   35.3100 N   0  0  0  0  0  0  0  0  0  0  0  0
   37.7680   27.6540   37.5920 N   0  0  0  0  0  0  0  0  0  0  0  0
   37.8210   26.5620   38.3860 C   0  0  0  0  0  0  0  0  0  0  0  0
   37.8770   31.1530   40.7890 C   0  0  0  0  0  0  0  0  0  0  0  0
   36.9120   31.7910   40.0110 C   0  0  0  0  0  0  0  0  0  0  0  0
   37.1210   33.0820   39.5630 C   0  0  0  0  0  0  0  0  0  0  0  0
   38.2930   33.7050   39.9050 C   0  0  0  0  0  0  0  0  0  0  0  0
   39.2310   33.0730   40.6660 C   0  0  0  0  0  0  0  0  0  0  0  0
   39.0370   31.7980   41.1150 C   0  0  0  0  0  0  0  0  0  0  0  0
   40.1430   31.2230   41.9380 C   0  0  0  0  0  0  0  0  0  0  0  0
   41.2850   32.0110   41.9320 F   0  0  0  0  0  0  0  0  0  0  0  0
   40.4240   29.9140   41.6640 F   0  0  0  0  0  0  0  0  0  0  0  0
   39.7640   31.2100   43.3030 F   0  0  0  0  0  0  0  0  0  0  0  0
   36.8742   28.0471   43.9676 H   0  0  0  0  0  0  0  0  0  0  0  0
   37.1012   26.1460   42.3524 H   0  0  0  0  0  0  0  0  0  0  0  0
   37.8305   24.7314   41.0399 H   0  0  0  0  0  0  0  0  0  0  0  0
   38.0770   26.2103   34.6634 H   0  0  0  0  0  0  0  0  0  0  0  0
   37.7092   29.5740   35.6330 H   0  0  0  0  0  0  0  0  0  0  0  0
   37.8963   28.3996   34.3031 H   0  0  0  0  0  0  0  0  0  0  0  0
   35.9809   31.2653   39.7527 H   0  0  0  0  0  0  0  0  0  0  0  0
   36.3669   33.5955   38.9485 H   0  0  0  0  0  0  0  0  0  0  0  0
   38.4799   34.7325   39.5595 H   0  0  0  0  0  0  0  0  0  0  0  0
   40.1617   33.6000   40.9232 H   0  0  0  0  0  0  0  0  0  0  0  0
  2  1  2  0
  3  2  1  0
  4  3  2  0
  4  5  1  0
  5  6  2  0
  6  1  1  0
  7  8  1  0
  7  3  1  0
  9  8  2  0
 10 17  2  0
 10  9  1  0
 11 10  1  0
 12 11  2  0
 13 14  1  0
 13 11  1  0
 14 16  2  0
 15 14  1  0
 16 17  1  0
 17  7  1  0
 18 23  1  0
 18  5  1  0
 19 18  2  0
 20 21  2  0
 20 19  1  0
 21 22  1  0
 22 23  2  0
 23 24  1  0
 24 27  1  0
 25 24  1  0
 26 24  1  0
  1 28  1  0
  2 29  1  0
  8 30  1  0
 13 31  1  0
 15 32  1  0
 15 33  1  0
 19 34  1  0
 20 35  1  0
 21 36  1  0
 22 37  1  0
M  ISO  8  28  14  29  14  30  14  31   9  34  14  35  14  36  14  37  14
M  END
>  <minimizedAffinity>  (1) 
-6.22585869

>  <minimizedRMSD>  (1) 
0.32129702

$$$$
