
     RDKit          3D

 39 43  0  0  1  0  0  0  0  0999 V2000
   37.1690   28.4930   43.0230 C   0  0  0  0  0  0  0  0  0  0  0  0
   37.1270   27.4530   42.1350 C   0  0  0  0  0  0  0  0  0  0  0  0
   37.3870   27.7540   40.8150 C   0  0  0  0  0  0  0  0  0  0  0  0
   37.6680   29.0240   40.4230 N   0  0  0  0  0  0  0  0  0  0  0  0
   37.6960   30.0250   41.3520 C   0  0  0  0  0  0  0  0  0  0  0  0
   37.4490   29.7090   42.5870 N   0  0  0  0  0  0  0  0  0  0  0  0
   37.2470   26.8810   39.7110 C   0  0  0  0  0  0  0  0  0  0  0  0
   37.1220   26.1060   38.7260 N   0  0  0  0  0  0  0  0  0  0  0  0
   37.0170   25.3470   37.7830 C   0  0  0  0  0  0  0  0  0  0  0  0
   35.9580   25.9570   37.2450 N   0  0  0  0  0  0  0  0  0  0  0  0
   35.4340   27.0670   37.8670 C   0  0  2  0  0  0  0  0  0  0  0  0
   34.2600   27.5890   37.2620 C   0  0  0  0  0  0  0  0  0  0  0  0
   33.6700   28.6280   37.9220 C   0  0  0  0  0  0  0  0  0  0  0  0
   34.1170   29.2070   39.1140 C   0  0  0  0  0  0  0  0  0  0  0  0
   35.2600   28.5550   39.5160 C   0  0  0  0  0  0  0  0  0  0  0  0
   36.0930   27.4760   39.0600 C   0  0  2  0  0  0  0  0  0  0  0  0
   38.0230   31.3790   40.9040 C   0  0  0  0  0  0  0  0  0  0  0  0
   37.0740   32.1070   40.1600 C   0  0  0  0  0  0  0  0  0  0  0  0
   37.3770   33.3750   39.7190 C   0  0  0  0  0  0  0  0  0  0  0  0
   38.6030   33.9020   40.0200 C   0  0  0  0  0  0  0  0  0  0  0  0
   39.5090   33.1840   40.7430 C   0  0  0  0  0  0  0  0  0  0  0  0
   39.2310   31.9190   41.1920 C   0  0  0  0  0  0  0  0  0  0  0  0
   40.3070   31.2470   41.9710 C   0  0  0  0  0  0  0  0  0  0  0  0
   41.5030   31.9530   41.9490 F   0  0  0  0  0  0  0  0  0  0  0  0
   40.5090   29.9310   41.6130 F   0  0  0  0  0  0  0  0  0  0  0  0
   39.9540   31.2140   43.3220 F   0  0  0  0  0  0  0  0  0  0  0  0
   36.9714   28.3186   44.0910 H   0  0  0  0  0  0  0  0  0  0  0  0
   36.8971   26.4271   42.4584 H   0  0  0  0  0  0  0  0  0  0  0  0
   36.1587   26.8557   39.8690 H   0  0  0  0  0  0  0  0  0  0  0  0
   37.5951   24.4623   37.4777 H   0  0  0  0  0  0  0  0  0  0  0  0
   34.8165   26.4179   38.5052 H   0  0  0  0  0  0  0  0  0  0  0  0
   33.8532   27.1831   36.3240 H   0  0  0  0  0  0  0  0  0  0  0  0
   32.7577   29.0493   37.4745 H   0  0  0  0  0  0  0  0  0  0  0  0
   33.6355   30.0435   39.6417 H   0  0  0  0  0  0  0  0  0  0  0  0
   35.6465   28.9809   40.4537 H   0  0  0  0  0  0  0  0  0  0  0  0
   36.0936   31.6633   39.9321 H   0  0  0  0  0  0  0  0  0  0  0  0
   36.6466   33.9542   39.1351 H   0  0  0  0  0  0  0  0  0  0  0  0
   38.8603   34.9145   39.6755 H   0  0  0  0  0  0  0  0  0  0  0  0
   40.4877   33.6311   40.9717 H   0  0  0  0  0  0  0  0  0  0  0  0
  2  1  2  0
  3  2  1  0
  4  3  2  0
  4  5  1  0
  5  6  2  0
  6  1  1  0
  7  3  1  0
  8 16  1  0
  8  7  1  0
  9  8  1  0
 10  9  2  0
 10 11  1  0
 11 12  1  0
 11 16  1  0
 12 13  2  0
 13 14  1  0
 14 15  2  0
 16 15  1  0
 16  7  1  6
 17 22  1  0
 17  5  1  0
 18 17  2  0
 19 20  2  0
 19 18  1  0
 20 21  1  0
 21 22  2  0
 22 23  1  0
 23 26  1  0
 24 23  1  0
 25 23  1  0
  1 27  1  0
  2 28  1  0
  7 29  1  0
  9 30  1  0
 11 31  1  6
 12 32  1  0
 13 33  1  0
 14 34  1  0
 15 35  1  0
 18 36  1  0
 19 37  1  0
 20 38  1  0
 21 39  1  0
M  ISO  8  27  14  28  14  29  13  30  13  31  13  32  13  33  13  34  13
M  ISO  5  35  13  36  14  37  14  38  14  39  14
M  END
>  <minimizedAffinity>  (1) 
-6.05191374

>  <minimizedRMSD>  (1) 
0.826024055

$$$$
