
     RDKit          3D

 33 35  0  0  0  0  0  0  0  0999 V2000
   37.3100   28.1550   43.8800 C   0  0  0  0  0  0  0  0  0  0  0  0
   37.6220   26.9370   43.2940 C   0  0  0  0  0  0  0  0  0  0  0  0
   38.0170   26.9510   41.9810 C   0  0  0  0  0  0  0  0  0  0  0  0
   38.0920   28.1160   41.3030 N   0  0  0  0  0  0  0  0  0  0  0  0
   37.7790   29.3100   41.9030 C   0  0  0  0  0  0  0  0  0  0  0  0
   37.4000   29.2930   43.1670 N   0  0  0  0  0  0  0  0  0  0  0  0
   38.3840   25.8100   41.1830 N   0  0  0  0  0  0  0  0  0  0  0  0
   39.3380   25.7620   40.2390 C   0  0  0  0  0  0  0  0  0  0  0  0
   39.5440   24.5550   39.5720 C   0  0  0  0  0  0  0  0  0  0  0  0
   38.7670   23.4460   39.8970 C   0  0  0  0  0  0  0  0  0  0  0  0
   38.9700   22.3850   39.2890 O   0  0  0  0  0  0  0  0  0  0  0  0
   37.8270   23.5540   40.8510 N   0  0  0  0  0  0  0  0  0  0  0  0
   37.6310   24.7400   41.4990 C   0  0  0  0  0  0  0  0  0  0  0  0
   36.7210   24.6960   42.3650 O   0  0  0  0  0  0  0  0  0  0  0  0
   37.8820   30.5270   41.1140 C   0  0  0  0  0  0  0  0  0  0  0  0
   36.8570   30.8850   40.2480 C   0  0  0  0  0  0  0  0  0  0  0  0
   36.9450   32.0370   39.4970 C   0  0  0  0  0  0  0  0  0  0  0  0
   38.0590   32.8090   39.6240 C   0  0  0  0  0  0  0  0  0  0  0  0
   39.0700   32.4490   40.4820 C   0  0  0  0  0  0  0  0  0  0  0  0
   38.9900   31.3050   41.2340 C   0  0  0  0  0  0  0  0  0  0  0  0
   40.1540   31.0320   42.1220 C   0  0  0  0  0  0  0  0  0  0  0  0
   41.2060   31.9140   41.9280 F   0  0  0  0  0  0  0  0  0  0  0  0
   40.5730   29.7150   42.0960 F   0  0  0  0  0  0  0  0  0  0  0  0
   39.7910   31.2530   43.4720 F   0  0  0  0  0  0  0  0  0  0  0  0
   36.9879   28.1909   44.9312 H   0  0  0  0  0  0  0  0  0  0  0  0
   37.5551   25.9965   43.8606 H   0  0  0  0  0  0  0  0  0  0  0  0
   39.9403   26.6505   39.9986 H   0  0  0  0  0  0  0  0  0  0  0  0
   40.3167   24.4792   38.7927 H   0  0  0  0  0  0  0  0  0  0  0  0
   37.2501   22.7364   41.0953 H   0  0  0  0  0  0  0  0  0  0  0  0
   35.9676   30.2437   40.1609 H   0  0  0  0  0  0  0  0  0  0  0  0
   36.1347   32.3258   38.8115 H   0  0  0  0  0  0  0  0  0  0  0  0
   38.1509   33.7320   39.0327 H   0  0  0  0  0  0  0  0  0  0  0  0
   39.9598   33.0901   40.5673 H   0  0  0  0  0  0  0  0  0  0  0  0
  2  1  2  0
  3  2  1  0
  4  5  1  0
  4  3  2  0
  5  6  2  0
  6  1  1  0
  7 13  1  0
  7  3  1  0
  8  7  1  0
  9 10  1  0
  9  8  2  0
 10 12  1  0
 11 10  2  0
 12 13  1  0
 13 14  2  0
 15 20  1  0
 15  5  1  0
 16 15  2  0
 17 18  2  0
 17 16  1  0
 18 19  1  0
 19 20  2  0
 20 21  1  0
 21 24  1  0
 22 21  1  0
 23 21  1  0
  1 25  1  0
  2 26  1  0
  8 27  1  0
  9 28  1  0
 12 29  1  0
 16 30  1  0
 17 31  1  0
 18 32  1  0
 19 33  1  0
M  ISO  8  25  14  26  14  27  14  28  14  29   9  30  14  31  14  32  14
M  ISO  1  33  14
M  END
>  <minimizedAffinity>  (1) 
-5.83422232

>  <minimizedRMSD>  (1) 
1.30801487

$$$$
