
     RDKit          3D

 34 37  0  0  0  0  0  0  0  0999 V2000
   37.4060   28.1520   43.6600 C   0  0  0  0  0  0  0  0  0  0  0  0
   37.7700   26.9880   42.9790 C   0  0  0  0  0  0  0  0  0  0  0  0
   38.1800   27.1190   41.6770 C   0  0  0  0  0  0  0  0  0  0  0  0
   38.2290   28.3360   41.0760 N   0  0  0  0  0  0  0  0  0  0  0  0
   37.8610   29.4580   41.7810 C   0  0  0  0  0  0  0  0  0  0  0  0
   37.4660   29.3360   43.0390 N   0  0  0  0  0  0  0  0  0  0  0  0
   38.5520   25.9320   40.9790 N   0  0  0  0  0  0  0  0  0  0  0  0
   39.8540   25.7290   40.6960 C   0  0  0  0  0  0  0  0  0  0  0  0
   40.0000   24.5560   40.0350 N   0  0  0  0  0  0  0  0  0  0  0  0
   38.7940   24.0000   39.8900 C   0  0  0  0  0  0  0  0  0  0  0  0
   38.2120   22.8550   39.3400 C   0  0  0  0  0  0  0  0  0  0  0  0
   36.8830   22.6660   39.4120 N   0  0  0  0  0  0  0  0  0  0  0  0
   36.0550   23.5320   39.9950 C   0  0  0  0  0  0  0  0  0  0  0  0
   36.5520   24.6730   40.5530 N   0  0  0  0  0  0  0  0  0  0  0  0
   37.8980   24.8660   40.4820 C   0  0  0  0  0  0  0  0  0  0  0  0
   37.9300   30.7380   41.0980 C   0  0  0  0  0  0  0  0  0  0  0  0
   36.8660   31.1630   40.2870 C   0  0  0  0  0  0  0  0  0  0  0  0
   36.9270   32.3760   39.6370 C   0  0  0  0  0  0  0  0  0  0  0  0
   38.0470   33.1460   39.8030 C   0  0  0  0  0  0  0  0  0  0  0  0
   39.0830   32.7270   40.5940 C   0  0  0  0  0  0  0  0  0  0  0  0
   39.0310   31.5220   41.2450 C   0  0  0  0  0  0  0  0  0  0  0  0
   40.2210   31.1880   42.0720 C   0  0  0  0  0  0  0  0  0  0  0  0
   41.2550   32.1070   41.9520 F   0  0  0  0  0  0  0  0  0  0  0  0
   40.6650   29.8960   41.9270 F   0  0  0  0  0  0  0  0  0  0  0  0
   39.8940   31.2690   43.4440 F   0  0  0  0  0  0  0  0  0  0  0  0
   37.0703   28.0955   44.7060 H   0  0  0  0  0  0  0  0  0  0  0  0
   37.7293   26.0038   43.4685 H   0  0  0  0  0  0  0  0  0  0  0  0
   40.6739   26.4125   40.9617 H   0  0  0  0  0  0  0  0  0  0  0  0
   38.8451   22.1038   38.8451 H   0  0  0  0  0  0  0  0  0  0  0  0
   34.9746   23.3275   40.0261 H   0  0  0  0  0  0  0  0  0  0  0  0
   35.9785   30.5238   40.1699 H   0  0  0  0  0  0  0  0  0  0  0  0
   36.0971   32.7173   39.0008 H   0  0  0  0  0  0  0  0  0  0  0  0
   38.1156   34.1178   39.2921 H   0  0  0  0  0  0  0  0  0  0  0  0
   39.9703   33.3670   40.7087 H   0  0  0  0  0  0  0  0  0  0  0  0
  2  1  2  0
  3  2  1  0
  4  3  2  0
  4  5  1  0
  5  6  2  0
  6  1  1  0
  7  3  1  0
  8  7  1  0
  9  8  2  0
 10  9  1  0
 10 15  2  0
 11 12  2  0
 11 10  1  0
 12 13  1  0
 13 14  2  0
 15 14  1  0
 15  7  1  0
 16 21  1  0
 16  5  1  0
 17 16  2  0
 18 19  2  0
 18 17  1  0
 19 20  1  0
 20 21  2  0
 21 22  1  0
 22 25  1  0
 23 22  1  0
 24 22  1  0
  1 26  1  0
  2 27  1  0
  8 28  1  0
 11 29  1  0
 13 30  1  0
 17 31  1  0
 18 32  1  0
 19 33  1  0
 20 34  1  0
M  ISO  8  26  14  27  14  28  14  29  14  30  14  31  14  32  14  33  14
M  ISO  1  34  14
M  END
>  <minimizedAffinity>  (1) 
-5.83266497

>  <minimizedRMSD>  (1) 
1.05305362

$$$$
