
     RDKit          3D

 30 32  0  0  0  0  0  0  0  0999 V2000
   37.2780   28.1930   43.7220 C   0  0  0  0  0  0  0  0  0  0  0  0
   37.2140   27.0290   42.9780 C   0  0  0  0  0  0  0  0  0  0  0  0
   37.3500   27.1490   41.5990 C   0  0  0  0  0  0  0  0  0  0  0  0
   37.5330   28.3690   41.0490 N   0  0  0  0  0  0  0  0  0  0  0  0
   37.5900   29.4860   41.8210 C   0  0  0  0  0  0  0  0  0  0  0  0
   37.4620   29.3820   43.1270 N   0  0  0  0  0  0  0  0  0  0  0  0
   37.3130   26.0780   40.6650 N   0  0  0  0  0  0  0  0  0  0  0  0
   37.8230   24.8790   40.5460 N   0  0  0  0  0  0  0  0  0  0  0  0
   37.4050   24.3150   39.3830 C   0  0  0  0  0  0  0  0  0  0  0  0
   36.5760   25.2350   38.7350 C   0  0  0  0  0  0  0  0  0  0  0  0
   36.5400   26.3490   39.5820 C   0  0  0  0  0  0  0  0  0  0  0  0
   37.7920   30.7730   41.1470 C   0  0  0  0  0  0  0  0  0  0  0  0
   36.7710   31.3140   40.3590 C   0  0  0  0  0  0  0  0  0  0  0  0
   36.9640   32.5270   39.7250 C   0  0  0  0  0  0  0  0  0  0  0  0
   38.1530   33.1670   39.8870 C   0  0  0  0  0  0  0  0  0  0  0  0
   39.1510   32.6260   40.6650 C   0  0  0  0  0  0  0  0  0  0  0  0
   38.9770   31.4250   41.3010 C   0  0  0  0  0  0  0  0  0  0  0  0
   40.1360   30.9530   42.1100 C   0  0  0  0  0  0  0  0  0  0  0  0
   41.2870   31.6920   41.9030 F   0  0  0  0  0  0  0  0  0  0  0  0
   40.3660   29.5970   42.0090 F   0  0  0  0  0  0  0  0  0  0  0  0
   39.8750   31.1630   43.4740 F   0  0  0  0  0  0  0  0  0  0  0  0
   37.1767   28.1438   44.8162 H   0  0  0  0  0  0  0  0  0  0  0  0
   37.0620   26.0502   43.4563 H   0  0  0  0  0  0  0  0  0  0  0  0
   37.6715   23.3127   39.0165 H   0  0  0  0  0  0  0  0  0  0  0  0
   36.0635   25.1108   37.7697 H   0  0  0  0  0  0  0  0  0  0  0  0
   35.9832   27.2804   39.4018 H   0  0  0  0  0  0  0  0  0  0  0  0
   35.8182   30.7763   40.2442 H   0  0  0  0  0  0  0  0  0  0  0  0
   36.1713   32.9661   39.1015 H   0  0  0  0  0  0  0  0  0  0  0  0
   38.3198   34.1330   39.3880 H   0  0  0  0  0  0  0  0  0  0  0  0
   40.1027   33.1659   40.7779 H   0  0  0  0  0  0  0  0  0  0  0  0
  2  1  2  0
  3  2  1  0
  4  3  2  0
  4  5  1  0
  5  6  2  0
  6  1  1  0
  7  3  1  0
  8  7  1  0
  9  8  2  0
 10  9  1  0
 10 11  2  0
 11  7  1  0
 12 17  1  0
 12  5  1  0
 13 12  2  0
 14 15  2  0
 14 13  1  0
 15 16  1  0
 16 17  2  0
 17 18  1  0
 18 21  1  0
 19 18  1  0
 20 18  1  0
  1 22  1  0
  2 23  1  0
  9 24  1  0
 10 25  1  0
 11 26  1  0
 13 27  1  0
 14 28  1  0
 15 29  1  0
 16 30  1  0
M  ISO  8  22  14  23  14  24  14  25  14  26  14  27  14  28  14  29  14
M  ISO  1  30  14
M  END
>  <minimizedAffinity>  (1) 
-5.3215127

>  <minimizedRMSD>  (1) 
0.85303551

$$$$
