
     RDKit          3D

 29 31  0  0  0  0  0  0  0  0999 V2000
   37.7930   30.7750   41.1200 C   0  0  0  0  0  0  0  0  0  0  0  0
   36.7880   31.3270   40.3290 C   0  0  0  0  0  0  0  0  0  0  0  0
   36.9690   32.5360   39.7070 C   0  0  0  0  0  0  0  0  0  0  0  0
   38.1710   33.1840   39.8890 C   0  0  0  0  0  0  0  0  0  0  0  0
   39.1520   32.6390   40.6660 C   0  0  0  0  0  0  0  0  0  0  0  0
   38.9850   31.4250   41.2960 C   0  0  0  0  0  0  0  0  0  0  0  0
   37.2420   28.1650   43.6640 C   0  0  0  0  0  0  0  0  0  0  0  0
   37.2070   27.0100   42.9010 C   0  0  0  0  0  0  0  0  0  0  0  0
   37.3710   27.1400   41.5390 C   0  0  0  0  0  0  0  0  0  0  0  0
   37.5580   28.3630   40.9940 N   0  0  0  0  0  0  0  0  0  0  0  0
   37.5870   29.4840   41.7770 C   0  0  0  0  0  0  0  0  0  0  0  0
   37.4290   29.3620   43.0840 N   0  0  0  0  0  0  0  0  0  0  0  0
   37.3580   26.0440   40.6320 N   0  0  0  0  0  0  0  0  0  0  0  0
   38.2920   25.0900   40.8000 C   0  0  0  0  0  0  0  0  0  0  0  0
   38.0860   24.1560   39.8290 N   0  0  0  0  0  0  0  0  0  0  0  0
   37.0330   24.5370   39.0760 C   0  0  0  0  0  0  0  0  0  0  0  0
   36.5880   25.7210   39.5880 N   0  0  0  0  0  0  0  0  0  0  0  0
   40.1310   30.9470   42.1100 C   0  0  0  0  0  0  0  0  0  0  0  0
   41.2870   31.6840   41.9020 F   0  0  0  0  0  0  0  0  0  0  0  0
   40.3550   29.5940   41.9970 F   0  0  0  0  0  0  0  0  0  0  0  0
   39.8510   31.1490   43.4800 F   0  0  0  0  0  0  0  0  0  0  0  0
   35.8381   30.7870   40.2017 H   0  0  0  0  0  0  0  0  0  0  0  0
   36.1779   32.9751   39.0814 H   0  0  0  0  0  0  0  0  0  0  0  0
   38.3427   34.1548   39.4010 H   0  0  0  0  0  0  0  0  0  0  0  0
   40.0998   33.1827   40.7924 H   0  0  0  0  0  0  0  0  0  0  0  0
   37.1155   28.1017   44.7549 H   0  0  0  0  0  0  0  0  0  0  0  0
   37.0539   26.0246   43.3652 H   0  0  0  0  0  0  0  0  0  0  0  0
   39.0733   25.0681   41.5740 H   0  0  0  0  0  0  0  0  0  0  0  0
   36.6137   23.9966   38.2145 H   0  0  0  0  0  0  0  0  0  0  0  0
  1  6  1  0
  1 11  1  0
  2  1  2  0
  3  4  2  0
  3  2  1  0
  4  5  1  0
  5  6  2  0
  6 18  1  0
  8  7  2  0
  9  8  1  0
 10  9  2  0
 10 11  1  0
 11 12  2  0
 12  7  1  0
 13 14  1  0
 13  9  1  0
 15 14  2  0
 16 17  2  0
 16 15  1  0
 17 13  1  0
 18 21  1  0
 19 18  1  0
 20 18  1  0
  2 22  1  0
  3 23  1  0
  4 24  1  0
  5 25  1  0
  7 26  1  0
  8 27  1  0
 14 28  1  0
 16 29  1  0
M  ISO  8  22  14  23  14  24  14  25  14  26  14  27  14  28  14  29  14
M  END
>  <minimizedAffinity>  (1) 
-5.24174023

>  <minimizedRMSD>  (1) 
0.786513746

$$$$
