
     RDKit          3D

 30 32  0  0  0  0  0  0  0  0999 V2000
   37.7940   30.7420   41.1240 C   0  0  0  0  0  0  0  0  0  0  0  0
   36.7780   31.2820   40.3170 C   0  0  0  0  0  0  0  0  0  0  0  0
   36.9740   32.4880   39.6750 C   0  0  0  0  0  0  0  0  0  0  0  0
   38.1660   33.1370   39.8440 C   0  0  0  0  0  0  0  0  0  0  0  0
   39.1530   32.6020   40.6370 C   0  0  0  0  0  0  0  0  0  0  0  0
   38.9740   31.4060   41.2780 C   0  0  0  0  0  0  0  0  0  0  0  0
   37.2470   28.1920   43.7210 C   0  0  0  0  0  0  0  0  0  0  0  0
   37.2030   27.0270   42.9720 C   0  0  0  0  0  0  0  0  0  0  0  0
   37.3580   27.1330   41.6120 C   0  0  0  0  0  0  0  0  0  0  0  0
   37.5470   28.3380   41.0450 N   0  0  0  0  0  0  0  0  0  0  0  0
   37.5880   29.4750   41.7960 C   0  0  0  0  0  0  0  0  0  0  0  0
   37.4370   29.3670   43.1020 N   0  0  0  0  0  0  0  0  0  0  0  0
   37.3300   25.9720   40.7280 C   0  0  0  0  0  0  0  0  0  0  0  0
   38.0690   24.8030   40.8030 C   0  0  0  0  0  0  0  0  0  0  0  0
   37.6770   24.0320   39.7490 N   0  0  0  0  0  0  0  0  0  0  0  0
   36.7270   24.6940   39.0370 C   0  0  0  0  0  0  0  0  0  0  0  0
   36.5450   25.8650   39.6630 N   0  0  0  0  0  0  0  0  0  0  0  0
   40.1180   30.9440   42.1000 C   0  0  0  0  0  0  0  0  0  0  0  0
   41.2730   31.6830   41.8850 F   0  0  0  0  0  0  0  0  0  0  0  0
   40.3570   29.5930   42.0190 F   0  0  0  0  0  0  0  0  0  0  0  0
   39.8420   31.1600   43.4720 F   0  0  0  0  0  0  0  0  0  0  0  0
   35.8264   30.7434   40.1970 H   0  0  0  0  0  0  0  0  0  0  0  0
   36.1864   32.9190   39.0394 H   0  0  0  0  0  0  0  0  0  0  0  0
   38.3369   34.0992   39.3390 H   0  0  0  0  0  0  0  0  0  0  0  0
   40.1025   33.1440   40.7585 H   0  0  0  0  0  0  0  0  0  0  0  0
   37.1272   28.1537   44.8138 H   0  0  0  0  0  0  0  0  0  0  0  0
   37.0489   26.0491   43.4515 H   0  0  0  0  0  0  0  0  0  0  0  0
   38.8227   24.5473   41.5623 H   0  0  0  0  0  0  0  0  0  0  0  0
   36.2123   24.3406   38.1313 H   0  0  0  0  0  0  0  0  0  0  0  0
   35.8804   26.5898   39.3566 H   0  0  0  0  0  0  0  0  0  0  0  0
  1  6  1  0
  1 11  1  0
  2  1  2  0
  3  4  2  0
  3  2  1  0
  4  5  1  0
  5  6  2  0
  6 18  1  0
  8  7  2  0
  9  8  1  0
 10  9  2  0
 10 11  1  0
 11 12  2  0
 12  7  1  0
 13 14  2  0
 13  9  1  0
 15 14  1  0
 16 17  1  0
 16 15  2  0
 17 13  1  0
 18 21  1  0
 19 18  1  0
 20 18  1  0
  2 22  1  0
  3 23  1  0
  4 24  1  0
  5 25  1  0
  7 26  1  0
  8 27  1  0
 14 28  1  0
 16 29  1  0
 17 30  1  0
M  ISO  8  22  14  23  14  24  14  25  14  26  14  27  14  28  14  29  14
M  ISO  1  30   9
M  END
>  <minimizedAffinity>  (1) 
-5.01088428

>  <minimizedRMSD>  (1) 
0.867542863

$$$$
