
     RDKit          3D

 44 48  0  0  0  0  0  0  0  0999 V2000
   42.5610   28.9330   39.8750 C   0  0  0  0  0  0  0  0  0  0  0  0
   41.6330   29.9420   39.7070 C   0  0  0  0  0  0  0  0  0  0  0  0
   41.0490   30.4840   40.8300 C   0  0  0  0  0  0  0  0  0  0  0  0
   41.3880   30.0260   42.0530 N   0  0  0  0  0  0  0  0  0  0  0  0
   42.3050   29.0320   42.1960 C   0  0  0  0  0  0  0  0  0  0  0  0
   42.8570   28.5220   41.1070 N   0  0  0  0  0  0  0  0  0  0  0  0
   42.6290   28.5810   43.5440 C   0  0  0  0  0  0  0  0  0  0  0  0
   43.4940   29.3470   44.3380 C   0  0  0  0  0  0  0  0  0  0  0  0
   43.8040   28.9220   45.6160 C   0  0  0  0  0  0  0  0  0  0  0  0
   43.2470   27.7480   46.0720 C   0  0  0  0  0  0  0  0  0  0  0  0
   42.3980   27.0090   45.2760 C   0  0  0  0  0  0  0  0  0  0  0  0
   42.0910   27.4290   44.0100 C   0  0  0  0  0  0  0  0  0  0  0  0
   41.1620   26.5320   43.2620 C   0  0  0  0  0  0  0  0  0  0  0  0
   40.3400   25.7840   44.0920 F   0  0  0  0  0  0  0  0  0  0  0  0
   41.7760   25.7650   42.3150 F   0  0  0  0  0  0  0  0  0  0  0  0
   40.2350   27.3230   42.5230 F   0  0  0  0  0  0  0  0  0  0  0  0
   40.0620   31.5480   40.7670 C   0  0  0  0  0  0  0  0  0  0  0  0
   40.2650   32.9240   40.7200 C   0  0  0  0  0  0  0  0  0  0  0  0
   39.0470   33.5060   40.6680 N   0  0  0  0  0  0  0  0  0  0  0  0
   38.0970   32.5250   40.6820 C   0  0  0  0  0  0  0  0  0  0  0  0
   38.7560   31.3600   40.7420 N   0  0  0  0  0  0  0  0  0  0  0  0
   37.9790   30.1590   40.7680 C   0  0  0  0  0  0  0  0  0  0  0  0
   37.3890   29.6000   39.6430 C   0  0  0  0  0  0  0  0  0  0  0  0
   36.7360   28.4820   40.0110 N   0  0  0  0  0  0  0  0  0  0  0  0
   36.8690   28.2730   41.3450 C   0  0  0  0  0  0  0  0  0  0  0  0
   36.4010   27.2880   42.1980 C   0  0  0  0  0  0  0  0  0  0  0  0
   36.7220   27.3650   43.5370 C   0  0  0  0  0  0  0  0  0  0  0  0
   37.4960   28.4140   43.9870 C   0  0  0  0  0  0  0  0  0  0  0  0
   37.9750   29.4110   43.1470 C   0  0  0  0  0  0  0  0  0  0  0  0
   37.6410   29.3100   41.8250 C   0  0  0  0  0  0  0  0  0  0  0  0
   43.0495   28.4746   39.0025 H   0  0  0  0  0  0  0  0  0  0  0  0
   41.3674   30.3031   38.7025 H   0  0  0  0  0  0  0  0  0  0  0  0
   43.9234   30.2808   43.9461 H   0  0  0  0  0  0  0  0  0  0  0  0
   44.4807   29.5085   46.2548 H   0  0  0  0  0  0  0  0  0  0  0  0
   43.4831   27.3946   47.0866 H   0  0  0  0  0  0  0  0  0  0  0  0
   41.9639   26.0746   45.6613 H   0  0  0  0  0  0  0  0  0  0  0  0
   41.2359   33.4411   40.7244 H   0  0  0  0  0  0  0  0  0  0  0  0
   37.0063   32.6639   40.6503 H   0  0  0  0  0  0  0  0  0  0  0  0
   37.4456   30.0033   38.6212 H   0  0  0  0  0  0  0  0  0  0  0  0
   36.2095   27.8712   39.3702 H   0  0  0  0  0  0  0  0  0  0  0  0
   35.7854   26.4605   41.8153 H   0  0  0  0  0  0  0  0  0  0  0  0
   36.3643   26.5974   44.2391 H   0  0  0  0  0  0  0  0  0  0  0  0
   37.7447   28.4632   45.0574 H   0  0  0  0  0  0  0  0  0  0  0  0
   38.5915   30.2395   43.5259 H   0  0  0  0  0  0  0  0  0  0  0  0
  1  6  2  0
  2  1  1  0
  2  3  2  0
  3  4  1  0
  4  5  2  0
  5  7  1  0
  6  5  1  0
  7 12  1  0
  7  8  2  0
  8  9  1  0
  9 10  2  0
 11 10  1  0
 12 11  2  0
 13 12  1  0
 13 14  1  0
 15 13  1  0
 16 13  1  0
 17  3  1  0
 18 17  2  0
 19 20  2  0
 19 18  1  0
 20 21  1  0
 21 17  1  0
 21 22  1  0
 22 30  1  0
 23 24  1  0
 23 22  2  0
 24 25  1  0
 25 30  2  0
 25 26  1  0
 26 27  2  0
 27 28  1  0
 29 28  2  0
 30 29  1  0
  1 31  1  0
  2 32  1  0
  8 33  1  0
  9 34  1  0
 10 35  1  0
 11 36  1  0
 18 37  1  0
 20 38  1  0
 23 39  1  0
 24 40  1  0
 26 41  1  0
 27 42  1  0
 28 43  1  0
 29 44  1  0
M  ISO  8  31  14  32  14  33  14  34  14  35  14  36  14  37  14  38  14
M  ISO  6  39  14  40   9  41  14  42  14  43  14  44  14
M  END
>  <minimizedAffinity>  (1) 
-6.38040161

>  <minimizedRMSD>  (1) 
6.23069429

$$$$
