
     RDKit          3D

 40 43  0  0  0  0  0  0  0  0999 V2000
   37.3060   28.2360   43.5100 C   0  0  0  0  0  0  0  0  0  0  0  0
   37.3360   27.1060   42.7110 C   0  0  0  0  0  0  0  0  0  0  0  0
   37.5480   27.2760   41.3600 C   0  0  0  0  0  0  0  0  0  0  0  0
   37.7150   28.5070   40.8700 N   0  0  0  0  0  0  0  0  0  0  0  0
   37.6840   29.6090   41.6620 C   0  0  0  0  0  0  0  0  0  0  0  0
   37.4810   29.4400   42.9440 N   0  0  0  0  0  0  0  0  0  0  0  0
   37.8740   30.9120   41.0550 C   0  0  0  0  0  0  0  0  0  0  0  0
   36.8640   31.4660   40.2570 C   0  0  0  0  0  0  0  0  0  0  0  0
   37.0400   32.7130   39.6750 C   0  0  0  0  0  0  0  0  0  0  0  0
   38.2080   33.3730   39.8990 C   0  0  0  0  0  0  0  0  0  0  0  0
   39.1900   32.8280   40.6780 C   0  0  0  0  0  0  0  0  0  0  0  0
   39.0270   31.5940   41.2600 C   0  0  0  0  0  0  0  0  0  0  0  0
   40.1770   31.1240   42.0830 C   0  0  0  0  0  0  0  0  0  0  0  0
   41.2990   31.9230   41.9650 F   0  0  0  0  0  0  0  0  0  0  0  0
   40.4820   29.7900   41.9060 F   0  0  0  0  0  0  0  0  0  0  0  0
   39.8590   31.2220   43.4580 F   0  0  0  0  0  0  0  0  0  0  0  0
   37.5980   26.1540   40.4250 C   0  0  0  0  0  0  0  0  0  0  0  0
   38.0020   24.8490   40.6710 C   0  0  0  0  0  0  0  0  0  0  0  0
   37.8690   24.1810   39.4800 N   0  0  0  0  0  0  0  0  0  0  0  0
   37.4060   25.0400   38.5520 C   0  0  0  0  0  0  0  0  0  0  0  0
   37.2520   26.2320   39.1560 N   0  0  0  0  0  0  0  0  0  0  0  0
   36.7660   27.3170   38.3700 C   0  0  0  0  0  0  0  0  0  0  0  0
   35.4520   27.7690   38.4360 C   0  0  0  0  0  0  0  0  0  0  0  0
   34.9810   28.8210   37.6760 C   0  0  0  0  0  0  0  0  0  0  0  0
   35.8800   29.4470   36.8050 C   0  0  0  0  0  0  0  0  0  0  0  0
   37.2050   29.0100   36.7210 C   0  0  0  0  0  0  0  0  0  0  0  0
   37.6470   27.9470   37.5030 C   0  0  0  0  0  0  0  0  0  0  0  0
   37.1410   28.1482   44.5940 H   0  0  0  0  0  0  0  0  0  0  0  0
   37.1950   26.1035   43.1411 H   0  0  0  0  0  0  0  0  0  0  0  0
   35.9290   30.9106   40.0916 H   0  0  0  0  0  0  0  0  0  0  0  0
   36.2536   33.1574   39.0473 H   0  0  0  0  0  0  0  0  0  0  0  0
   38.3650   34.3627   39.4453 H   0  0  0  0  0  0  0  0  0  0  0  0
   40.1242   33.3853   40.8414 H   0  0  0  0  0  0  0  0  0  0  0  0
   38.3566   24.4347   41.6263 H   0  0  0  0  0  0  0  0  0  0  0  0
   37.1935   24.8100   37.4975 H   0  0  0  0  0  0  0  0  0  0  0  0
   34.7572   27.2657   39.1245 H   0  0  0  0  0  0  0  0  0  0  0  0
   33.9358   29.1554   37.7524 H   0  0  0  0  0  0  0  0  0  0  0  0
   35.5416   30.2884   36.1825 H   0  0  0  0  0  0  0  0  0  0  0  0
   37.9027   29.5093   36.0326 H   0  0  0  0  0  0  0  0  0  0  0  0
   38.6910   27.6076   37.4339 H   0  0  0  0  0  0  0  0  0  0  0  0
  2  1  2  0
  3  2  1  0
  4  3  2  0
  4  5  1  0
  5  6  2  0
  6  1  1  0
  7 12  1  0
  7  5  1  0
  8  7  2  0
  9 10  2  0
  9  8  1  0
 10 11  1  0
 11 12  2  0
 12 13  1  0
 13 16  1  0
 14 13  1  0
 15 13  1  0
 17 18  2  0
 17  3  1  0
 19 18  1  0
 20 21  1  0
 20 19  2  0
 21 17  1  0
 22 23  2  0
 22 21  1  0
 24 23  1  0
 25 24  2  0
 26 25  1  0
 26 27  2  0
 27 22  1  0
  1 28  1  0
  2 29  1  0
  8 30  1  0
  9 31  1  0
 10 32  1  0
 11 33  1  0
 18 34  1  0
 20 35  1  0
 23 36  1  0
 24 37  1  0
 25 38  1  0
 26 39  1  0
 27 40  1  0
M  ISO  8  28  14  29  14  30  14  31  14  32  14  33  14  34  14  35  14
M  ISO  5  36  14  37  14  38  14  39  14  40  14
M  END
>  <minimizedAffinity>  (1) 
-5.81147671

>  <minimizedRMSD>  (1) 
1.09352291

$$$$
