
     RDKit          3D

 37 40  0  0  0  0  0  0  0  0999 V2000
   36.8520   28.4580   42.4870 C   0  0  0  0  0  0  0  0  0  0  0  0
   37.0020   27.4700   41.5250 C   0  0  0  0  0  0  0  0  0  0  0  0
   37.4680   27.8510   40.2810 C   0  0  0  0  0  0  0  0  0  0  0  0
   37.7560   29.1390   40.0430 N   0  0  0  0  0  0  0  0  0  0  0  0
   37.6030   30.1040   40.9990 C   0  0  0  0  0  0  0  0  0  0  0  0
   37.1560   29.7280   42.1880 N   0  0  0  0  0  0  0  0  0  0  0  0
   37.6650   26.8990   39.1930 C   0  0  0  0  0  0  0  0  0  0  0  0
   38.7470   26.0780   38.9560 C   0  0  0  0  0  0  0  0  0  0  0  0
   38.4540   25.3800   37.8220 N   0  0  0  0  0  0  0  0  0  0  0  0
   37.2420   25.7540   37.3770 C   0  0  0  0  0  0  0  0  0  0  0  0
   36.7730   26.6880   38.2330 N   0  0  0  0  0  0  0  0  0  0  0  0
   35.4930   27.2930   38.0370 C   0  0  0  0  0  0  0  0  0  0  0  0
   35.1390   28.5230   38.5970 C   0  0  0  0  0  0  0  0  0  0  0  0
   33.8260   28.7970   38.1960 C   0  0  0  0  0  0  0  0  0  0  0  0
   33.4360   27.7600   37.4290 N   0  0  0  0  0  0  0  0  0  0  0  0
   34.4060   26.8730   37.3310 N   0  0  0  0  0  0  0  0  0  0  0  0
   37.9330   31.4760   40.6720 C   0  0  0  0  0  0  0  0  0  0  0  0
   37.0340   32.2470   39.9320 C   0  0  0  0  0  0  0  0  0  0  0  0
   37.3410   33.5600   39.6130 C   0  0  0  0  0  0  0  0  0  0  0  0
   38.5380   34.0710   40.0440 C   0  0  0  0  0  0  0  0  0  0  0  0
   39.4150   33.2990   40.7750 C   0  0  0  0  0  0  0  0  0  0  0  0
   39.1140   32.0030   41.0880 C   0  0  0  0  0  0  0  0  0  0  0  0
   40.1430   31.2790   41.8800 C   0  0  0  0  0  0  0  0  0  0  0  0
   41.3410   31.9900   41.9810 F   0  0  0  0  0  0  0  0  0  0  0  0
   40.3730   29.9860   41.4620 F   0  0  0  0  0  0  0  0  0  0  0  0
   39.7310   31.1540   43.2190 F   0  0  0  0  0  0  0  0  0  0  0  0
   36.4849   28.1998   43.4913 H   0  0  0  0  0  0  0  0  0  0  0  0
   36.7586   26.4200   41.7446 H   0  0  0  0  0  0  0  0  0  0  0  0
   39.6628   26.0015   39.5605 H   0  0  0  0  0  0  0  0  0  0  0  0
   36.7281   25.3711   36.4830 H   0  0  0  0  0  0  0  0  0  0  0  0
   35.7732   29.1573   39.2337 H   0  0  0  0  0  0  0  0  0  0  0  0
   33.2300   29.6842   38.4559 H   0  0  0  0  0  0  0  0  0  0  0  0
   32.5117   27.6729   36.9829 H   0  0  0  0  0  0  0  0  0  0  0  0
   36.0798   31.8109   39.6015 H   0  0  0  0  0  0  0  0  0  0  0  0
   36.6421   34.1767   39.0288 H   0  0  0  0  0  0  0  0  0  0  0  0
   38.8020   35.1113   39.8031 H   0  0  0  0  0  0  0  0  0  0  0  0
   40.3692   33.7313   41.1107 H   0  0  0  0  0  0  0  0  0  0  0  0
  2  1  2  0
  3  2  1  0
  4  3  2  0
  4  5  1  0
  5  6  2  0
  6  1  1  0
  7  3  1  0
  8  7  2  0
  9  8  1  0
 10  9  2  0
 10 11  1  0
 11  7  1  0
 12 11  1  0
 12 13  1  0
 14 13  2  0
 15 14  1  0
 16 15  1  0
 16 12  2  0
 17  5  1  0
 17 22  1  0
 18 17  2  0
 19 18  1  0
 19 20  2  0
 20 21  1  0
 21 22  2  0
 22 23  1  0
 23 24  1  0
 23 26  1  0
 25 23  1  0
  1 27  1  0
  2 28  1  0
  8 29  1  0
 10 30  1  0
 13 31  1  0
 14 32  1  0
 15 33  1  0
 18 34  1  0
 19 35  1  0
 20 36  1  0
 21 37  1  0
M  ISO  8  27  14  28  14  29  14  30  14  31  14  32  14  33   9  34  14
M  ISO  3  35  14  36  14  37  14
M  END
>  <minimizedAffinity>  (1) 
-5.80109835

>  <minimizedRMSD>  (1) 
1.29071438

$$$$
