
     RDKit          3D

 40 43  0  0  0  0  0  0  0  0999 V2000
   37.3080   28.2220   43.4990 C   0  0  0  0  0  0  0  0  0  0  0  0
   37.3580   27.1030   42.6890 C   0  0  0  0  0  0  0  0  0  0  0  0
   37.5840   27.2730   41.3370 C   0  0  0  0  0  0  0  0  0  0  0  0
   37.7480   28.5100   40.8500 N   0  0  0  0  0  0  0  0  0  0  0  0
   37.6970   29.6090   41.6540 C   0  0  0  0  0  0  0  0  0  0  0  0
   37.4810   29.4270   42.9380 N   0  0  0  0  0  0  0  0  0  0  0  0
   37.8830   30.9150   41.0540 C   0  0  0  0  0  0  0  0  0  0  0  0
   36.8700   31.4750   40.2550 C   0  0  0  0  0  0  0  0  0  0  0  0
   37.0490   32.7210   39.6830 C   0  0  0  0  0  0  0  0  0  0  0  0
   38.2220   33.3890   39.9100 C   0  0  0  0  0  0  0  0  0  0  0  0
   39.2060   32.8320   40.6930 C   0  0  0  0  0  0  0  0  0  0  0  0
   39.0460   31.5980   41.2680 C   0  0  0  0  0  0  0  0  0  0  0  0
   40.1880   31.1160   42.0890 C   0  0  0  0  0  0  0  0  0  0  0  0
   41.3150   31.9230   41.9790 F   0  0  0  0  0  0  0  0  0  0  0  0
   40.4920   29.7890   41.9070 F   0  0  0  0  0  0  0  0  0  0  0  0
   39.8570   31.2260   43.4580 F   0  0  0  0  0  0  0  0  0  0  0  0
   37.6540   26.1630   40.4050 C   0  0  0  0  0  0  0  0  0  0  0  0
   38.0960   24.8610   40.6340 C   0  0  0  0  0  0  0  0  0  0  0  0
   37.9700   24.1970   39.4590 N   0  0  0  0  0  0  0  0  0  0  0  0
   37.4690   25.0410   38.5220 C   0  0  0  0  0  0  0  0  0  0  0  0
   37.2910   26.2290   39.1390 N   0  0  0  0  0  0  0  0  0  0  0  0
   36.7660   27.3120   38.3720 C   0  0  0  0  0  0  0  0  0  0  0  0
   35.4410   27.7330   38.4500 C   0  0  0  0  0  0  0  0  0  0  0  0
   35.0380   28.8060   37.6500 C   0  0  0  0  0  0  0  0  0  0  0  0
   35.9110   29.4530   36.7950 C   0  0  0  0  0  0  0  0  0  0  0  0
   37.2370   29.0140   36.7330 C   0  0  0  0  0  0  0  0  0  0  0  0
   37.6370   27.9570   37.5190 C   0  0  0  0  0  0  0  0  0  0  0  0
   37.1301   28.1257   44.5802 H   0  0  0  0  0  0  0  0  0  0  0  0
   37.2206   26.0972   43.1127 H   0  0  0  0  0  0  0  0  0  0  0  0
   35.9348   30.9214   40.0851 H   0  0  0  0  0  0  0  0  0  0  0  0
   36.2627   33.1676   39.0566 H   0  0  0  0  0  0  0  0  0  0  0  0
   38.3792   34.3811   39.4617 H   0  0  0  0  0  0  0  0  0  0  0  0
   40.1402   33.3879   40.8612 H   0  0  0  0  0  0  0  0  0  0  0  0
   38.4734   24.4522   41.5829 H   0  0  0  0  0  0  0  0  0  0  0  0
   37.2513   24.8047   37.4700 H   0  0  0  0  0  0  0  0  0  0  0  0
   34.7294   27.2338   39.1241 H   0  0  0  0  0  0  0  0  0  0  0  0
   33.9933   29.1464   37.7023 H   0  0  0  0  0  0  0  0  0  0  0  0
   35.5693   30.2958   36.1762 H   0  0  0  0  0  0  0  0  0  0  0  0
   37.9544   29.5090   36.0619 H   0  0  0  0  0  0  0  0  0  0  0  0
   38.6817   27.6169   37.4652 H   0  0  0  0  0  0  0  0  0  0  0  0
  2  1  2  0
  3  2  1  0
  4  3  2  0
  4  5  1  0
  5  6  2  0
  6  1  1  0
  7 12  1  0
  7  5  1  0
  8  7  2  0
  9 10  2  0
  9  8  1  0
 10 11  1  0
 11 12  2  0
 12 13  1  0
 13 16  1  0
 14 13  1  0
 15 13  1  0
 17 18  2  0
 17  3  1  0
 19 18  1  0
 20 21  1  0
 20 19  2  0
 21 17  1  0
 22 23  2  0
 22 21  1  0
 24 23  1  0
 25 24  2  0
 26 25  1  0
 26 27  2  0
 27 22  1  0
  1 28  1  0
  2 29  1  0
  8 30  1  0
  9 31  1  0
 10 32  1  0
 11 33  1  0
 18 34  1  0
 20 35  1  0
 23 36  1  0
 24 37  1  0
 25 38  1  0
 26 39  1  0
 27 40  1  0
M  ISO  8  28  14  29  14  30  14  31  14  32  14  33  14  34  14  35  14
M  ISO  5  36  14  37  14  38  14  39  14  40  14
M  END
>  <minimizedAffinity>  (1) 
-5.79187012

>  <minimizedRMSD>  (1) 
1.06061423

$$$$
