
     RDKit          3D

 39 42  0  0  0  0  0  0  0  0999 V2000
   37.0940   28.3320   43.0500 C   0  0  0  0  0  0  0  0  0  0  0  0
   37.2520   27.2670   42.1820 C   0  0  0  0  0  0  0  0  0  0  0  0
   37.6450   27.5290   40.8830 C   0  0  0  0  0  0  0  0  0  0  0  0
   37.8650   28.7950   40.4950 N   0  0  0  0  0  0  0  0  0  0  0  0
   37.7050   29.8400   41.3630 C   0  0  0  0  0  0  0  0  0  0  0  0
   37.3280   29.5710   42.5980 N   0  0  0  0  0  0  0  0  0  0  0  0
   37.9600   31.1850   40.8750 C   0  0  0  0  0  0  0  0  0  0  0  0
   37.0060   31.8310   40.0820 C   0  0  0  0  0  0  0  0  0  0  0  0
   37.2430   33.1070   39.6170 C   0  0  0  0  0  0  0  0  0  0  0  0
   38.4280   33.7130   39.9530 C   0  0  0  0  0  0  0  0  0  0  0  0
   39.3600   33.0730   40.7310 C   0  0  0  0  0  0  0  0  0  0  0  0
   39.1370   31.8030   41.2010 C   0  0  0  0  0  0  0  0  0  0  0  0
   40.2200   31.2200   42.0310 C   0  0  0  0  0  0  0  0  0  0  0  0
   41.3770   31.9920   42.0200 F   0  0  0  0  0  0  0  0  0  0  0  0
   40.4930   29.9050   41.7470 F   0  0  0  0  0  0  0  0  0  0  0  0
   39.8370   31.2100   43.3880 F   0  0  0  0  0  0  0  0  0  0  0  0
   37.8380   26.4750   39.8970 C   0  0  0  0  0  0  0  0  0  0  0  0
   38.8260   25.4920   39.8580 C   0  0  0  0  0  0  0  0  0  0  0  0
   38.5760   24.7540   38.7490 N   0  0  0  0  0  0  0  0  0  0  0  0
   37.4890   25.2410   38.1200 C   0  0  0  0  0  0  0  0  0  0  0  0
   37.0590   26.2950   38.8470 N   0  0  0  0  0  0  0  0  0  0  0  0
   35.9040   26.9970   38.3870 C   0  0  0  0  0  0  0  0  0  0  0  0
   35.5680   28.3030   38.6890 C   0  0  0  0  0  0  0  0  0  0  0  0
   34.4140   28.8560   38.1710 C   0  0  0  0  0  0  0  0  0  0  0  0
   33.5680   28.1170   37.3380 C   0  0  0  0  0  0  0  0  0  0  0  0
   33.9390   26.7980   37.0550 C   0  0  0  0  0  0  0  0  0  0  0  0
   35.0860   26.2930   37.5860 N   0  0  0  0  0  0  0  0  0  0  0  0
   36.7822   28.1648   44.0915 H   0  0  0  0  0  0  0  0  0  0  0  0
   37.0692   26.2355   42.5175 H   0  0  0  0  0  0  0  0  0  0  0  0
   36.0652   31.3202   39.8290 H   0  0  0  0  0  0  0  0  0  0  0  0
   36.5012   33.6264   38.9925 H   0  0  0  0  0  0  0  0  0  0  0  0
   38.6346   34.7312   39.5917 H   0  0  0  0  0  0  0  0  0  0  0  0
   40.3003   33.5859   40.9817 H   0  0  0  0  0  0  0  0  0  0  0  0
   39.6424   25.3452   40.5804 H   0  0  0  0  0  0  0  0  0  0  0  0
   37.0387   24.8550   37.1936 H   0  0  0  0  0  0  0  0  0  0  0  0
   36.2199   28.9018   39.3420 H   0  0  0  0  0  0  0  0  0  0  0  0
   34.1554   29.8963   38.4178 H   0  0  0  0  0  0  0  0  0  0  0  0
   32.6485   28.5548   36.9223 H   0  0  0  0  0  0  0  0  0  0  0  0
   33.3073   26.1726   36.4070 H   0  0  0  0  0  0  0  0  0  0  0  0
  2  1  2  0
  3  2  1  0
  4  3  2  0
  4  5  1  0
  5  6  2  0
  6  1  1  0
  7 12  1  0
  7  5  1  0
  8  7  2  0
  9 10  2  0
  9  8  1  0
 10 11  1  0
 11 12  2  0
 12 13  1  0
 13 16  1  0
 14 13  1  0
 15 13  1  0
 17  3  1  0
 18 17  2  0
 19 18  1  0
 20 19  2  0
 20 21  1  0
 21 17  1  0
 22 23  2  0
 22 21  1  0
 24 23  1  0
 25 24  2  0
 26 25  1  0
 26 27  2  0
 27 22  1  0
  1 28  1  0
  2 29  1  0
  8 30  1  0
  9 31  1  0
 10 32  1  0
 11 33  1  0
 18 34  1  0
 20 35  1  0
 23 36  1  0
 24 37  1  0
 25 38  1  0
 26 39  1  0
M  ISO  8  28  14  29  14  30  14  31  14  32  14  33  14  34  14  35  14
M  ISO  4  36  14  37  14  38  14  39  14
M  END
>  <minimizedAffinity>  (1) 
-5.76704311

>  <minimizedRMSD>  (1) 
0.785542727

$$$$
