
     RDKit          3D

 38 41  0  0  0  0  0  0  0  0999 V2000
   37.2740   28.2400   43.4760 C   0  0  0  0  0  0  0  0  0  0  0  0
   37.3310   27.1160   42.6690 C   0  0  0  0  0  0  0  0  0  0  0  0
   37.5710   27.2970   41.3260 C   0  0  0  0  0  0  0  0  0  0  0  0
   37.7450   28.5360   40.8340 N   0  0  0  0  0  0  0  0  0  0  0  0
   37.6870   29.6350   41.6400 C   0  0  0  0  0  0  0  0  0  0  0  0
   37.4550   29.4490   42.9210 N   0  0  0  0  0  0  0  0  0  0  0  0
   37.8820   30.9430   41.0450 C   0  0  0  0  0  0  0  0  0  0  0  0
   36.8690   31.5030   40.2510 C   0  0  0  0  0  0  0  0  0  0  0  0
   37.0630   32.7550   39.6850 C   0  0  0  0  0  0  0  0  0  0  0  0
   38.2360   33.4070   39.9180 C   0  0  0  0  0  0  0  0  0  0  0  0
   39.2160   32.8470   40.6950 C   0  0  0  0  0  0  0  0  0  0  0  0
   39.0470   31.6180   41.2620 C   0  0  0  0  0  0  0  0  0  0  0  0
   40.1810   31.1260   42.0790 C   0  0  0  0  0  0  0  0  0  0  0  0
   41.3170   31.9150   41.9680 F   0  0  0  0  0  0  0  0  0  0  0  0
   40.4770   29.7980   41.8960 F   0  0  0  0  0  0  0  0  0  0  0  0
   39.8570   31.2090   43.4620 F   0  0  0  0  0  0  0  0  0  0  0  0
   37.6510   26.1800   40.3880 C   0  0  0  0  0  0  0  0  0  0  0  0
   38.1000   24.8920   40.6130 C   0  0  0  0  0  0  0  0  0  0  0  0
   37.9790   24.2230   39.4330 N   0  0  0  0  0  0  0  0  0  0  0  0
   37.4720   25.0680   38.5050 C   0  0  0  0  0  0  0  0  0  0  0  0
   37.2870   26.2440   39.1210 N   0  0  0  0  0  0  0  0  0  0  0  0
   36.7550   27.3290   38.3630 C   0  0  0  0  0  0  0  0  0  0  0  0
   35.4280   27.7250   38.4510 C   0  0  0  0  0  0  0  0  0  0  0  0
   34.9370   28.7940   37.6930 C   0  0  0  0  0  0  0  0  0  0  0  0
   35.8230   29.4040   36.8830 N   0  0  0  0  0  0  0  0  0  0  0  0
   37.0930   29.0380   36.7860 C   0  0  0  0  0  0  0  0  0  0  0  0
   37.5580   28.0070   37.5190 N   0  0  0  0  0  0  0  0  0  0  0  0
   37.0834   28.1437   44.5551 H   0  0  0  0  0  0  0  0  0  0  0  0
   37.1888   26.1092   43.0887 H   0  0  0  0  0  0  0  0  0  0  0  0
   35.9309   30.9549   40.0792 H   0  0  0  0  0  0  0  0  0  0  0  0
   36.2830   33.2130   39.0590 H   0  0  0  0  0  0  0  0  0  0  0  0
   38.3994   34.4004   39.4747 H   0  0  0  0  0  0  0  0  0  0  0  0
   40.1535   33.3971   40.8641 H   0  0  0  0  0  0  0  0  0  0  0  0
   38.4812   24.4861   41.5616 H   0  0  0  0  0  0  0  0  0  0  0  0
   37.2545   24.8353   37.4521 H   0  0  0  0  0  0  0  0  0  0  0  0
   34.7488   27.1883   39.1297 H   0  0  0  0  0  0  0  0  0  0  0  0
   33.8875   29.1174   37.7553 H   0  0  0  0  0  0  0  0  0  0  0  0
   37.7690   29.5768   36.1058 H   0  0  0  0  0  0  0  0  0  0  0  0
  2  1  2  0
  3  2  1  0
  4  3  2  0
  4  5  1  0
  5  6  2  0
  6  1  1  0
  7 12  1  0
  7  5  1  0
  8  7  2  0
  9 10  2  0
  9  8  1  0
 10 11  1  0
 11 12  2  0
 12 13  1  0
 13 16  1  0
 14 13  1  0
 15 13  1  0
 17 18  2  0
 17  3  1  0
 19 18  1  0
 20 21  1  0
 20 19  2  0
 21 17  1  0
 22 23  2  0
 22 21  1  0
 24 23  1  0
 25 24  2  0
 26 25  1  0
 26 27  2  0
 27 22  1  0
  1 28  1  0
  2 29  1  0
  8 30  1  0
  9 31  1  0
 10 32  1  0
 11 33  1  0
 18 34  1  0
 20 35  1  0
 23 36  1  0
 24 37  1  0
 26 38  1  0
M  ISO  8  28  14  29  14  30  14  31  14  32  14  33  14  34  14  35  14
M  ISO  3  36  14  37  14  38  14
M  END
>  <minimizedAffinity>  (1) 
-5.59740925

>  <minimizedRMSD>  (1) 
1.08425891

$$$$
