
     RDKit          3D

 34 38  0  0  0  0  0  0  0  0999 V2000
   39.1160   32.1780   40.7630 C   0  0  0  0  0  0  0  0  0  0  0  0
   39.0890   30.9450   41.4410 C   0  0  0  0  0  0  0  0  0  0  0  0
   37.8650   30.3160   41.5810 C   0  0  0  0  0  0  0  0  0  0  0  0
   36.7600   30.9030   41.0670 N   0  0  0  0  0  0  0  0  0  0  0  0
   36.8140   32.0810   40.4230 C   0  0  0  0  0  0  0  0  0  0  0  0
   37.9950   32.7320   40.2630 N   0  0  0  0  0  0  0  0  0  0  0  0
   37.7580   29.0720   42.2540 N   0  0  0  0  0  0  0  0  0  0  0  0
   37.9360   28.8200   43.5440 C   0  0  0  0  0  0  0  0  0  0  0  0
   37.7430   27.4930   43.8130 N   0  0  0  0  0  0  0  0  0  0  0  0
   37.4310   26.8870   42.6410 C   0  0  0  0  0  0  0  0  0  0  0  0
   37.1360   25.6110   42.2560 C   0  0  0  0  0  0  0  0  0  0  0  0
   36.8670   25.3530   40.9610 N   0  0  0  0  0  0  0  0  0  0  0  0
   36.8970   26.3590   40.0860 C   0  0  0  0  0  0  0  0  0  0  0  0
   37.1740   27.6230   40.3780 N   0  0  0  0  0  0  0  0  0  0  0  0
   37.4500   27.9060   41.6860 C   0  0  0  0  0  0  0  0  0  0  0  0
   36.6120   26.1120   38.6940 N   0  0  0  0  0  0  0  0  0  0  0  0
   36.1010   24.9430   38.2030 C   0  0  0  0  0  0  0  0  0  0  0  0
   35.9580   25.0440   36.8770 N   0  0  0  0  0  0  0  0  0  0  0  0
   36.3820   26.2870   36.5120 C   0  0  0  0  0  0  0  0  0  0  0  0
   36.4650   26.9440   35.2870 C   0  0  0  0  0  0  0  0  0  0  0  0
   36.9430   28.2110   35.2450 N   0  0  0  0  0  0  0  0  0  0  0  0
   37.3350   28.8380   36.3730 C   0  0  0  0  0  0  0  0  0  0  0  0
   37.2660   28.2250   37.5830 N   0  0  0  0  0  0  0  0  0  0  0  0
   36.7960   26.9610   37.6630 C   0  0  0  0  0  0  0  0  0  0  0  0
   36.0540   26.2920   34.0940 N   0  0  0  0  0  0  0  0  0  0  0  0
   40.0754   32.7015   40.6386 H   0  0  0  0  0  0  0  0  0  0  0  0
   40.0088   30.4973   41.8453 H   0  0  0  0  0  0  0  0  0  0  0  0
   35.8907   32.5233   40.0206 H   0  0  0  0  0  0  0  0  0  0  0  0
   38.2030   29.5767   44.2964 H   0  0  0  0  0  0  0  0  0  0  0  0
   37.1180   24.7989   42.9978 H   0  0  0  0  0  0  0  0  0  0  0  0
   35.8471   24.0577   38.8044 H   0  0  0  0  0  0  0  0  0  0  0  0
   37.7185   29.8671   36.3117 H   0  0  0  0  0  0  0  0  0  0  0  0
   36.1176   26.7828   33.1907 H   0  0  0  0  0  0  0  0  0  0  0  0
   35.6923   25.3283   34.1321 H   0  0  0  0  0  0  0  0  0  0  0  0
  1  2  2  0
  2  3  1  0
  3  7  1  0
  4  3  2  0
  5  4  1  0
  6  5  2  0
  6  1  1  0
  7  8  1  0
  8  9  2  0
 10  9  1  0
 11 10  2  0
 12 11  1  0
 13 14  1  0
 13 12  2  0
 14 15  2  0
 15  7  1  0
 15 10  1  0
 16 13  1  0
 17 16  1  0
 18 17  2  0
 19 18  1  0
 19 24  2  0
 20 19  1  0
 21 20  2  0
 21 22  1  0
 22 23  2  0
 23 24  1  0
 24 16  1  0
 25 20  1  0
  1 26  1  0
  2 27  1  0
  5 28  1  0
  8 29  1  0
 11 30  1  0
 17 31  1  0
 22 32  1  0
 25 33  1  0
 25 34  1  0
M  ISO  7  26  14  27  14  28  14  29  14  30  14  31  14  32  14
M  END
>  <minimizedAffinity>  (1) 
-5.86085415

>  <minimizedRMSD>  (1) 
0.564844966

$$$$
