
     RDKit          3D

 32 35  0  0  0  0  0  0  0  0999 V2000
   39.3260   32.2780   40.9830 C   0  0  0  0  0  0  0  0  0  0  0  0
   39.1980   31.0500   41.6500 C   0  0  0  0  0  0  0  0  0  0  0  0
   37.9640   30.4280   41.5910 C   0  0  0  0  0  0  0  0  0  0  0  0
   36.9490   31.0260   40.8970 N   0  0  0  0  0  0  0  0  0  0  0  0
   37.1210   32.2040   40.2730 C   0  0  0  0  0  0  0  0  0  0  0  0
   38.3170   32.8530   40.3060 N   0  0  0  0  0  0  0  0  0  0  0  0
   37.7320   29.1840   42.2320 N   0  0  0  0  0  0  0  0  0  0  0  0
   37.6950   28.9310   43.5350 C   0  0  0  0  0  0  0  0  0  0  0  0
   37.4440   27.6080   43.7640 N   0  0  0  0  0  0  0  0  0  0  0  0
   37.3220   27.0110   42.5630 C   0  0  0  0  0  0  0  0  0  0  0  0
   37.0740   25.7330   42.1140 C   0  0  0  0  0  0  0  0  0  0  0  0
   37.0150   25.4810   40.7910 N   0  0  0  0  0  0  0  0  0  0  0  0
   37.2010   26.4970   39.9200 C   0  0  0  0  0  0  0  0  0  0  0  0
   37.4420   27.7410   40.3040 N   0  0  0  0  0  0  0  0  0  0  0  0
   37.5070   28.0260   41.6260 C   0  0  0  0  0  0  0  0  0  0  0  0
   37.1330   26.1960   38.5300 N   0  0  0  0  0  0  0  0  0  0  0  0
   37.8030   26.9290   37.6210 C   0  0  0  0  0  0  0  0  0  0  0  0
   37.7940   26.7090   36.2520 C   0  0  0  0  0  0  0  0  0  0  0  0
   37.0180   25.6400   35.8530 C   0  0  0  0  0  0  0  0  0  0  0  0
   36.9280   25.3150   34.4730 N   0  0  0  0  0  0  0  0  0  0  0  0
   36.3290   24.8780   36.7240 N   0  0  0  0  0  0  0  0  0  0  0  0
   36.3970   25.1680   38.0550 C   0  0  0  0  0  0  0  0  0  0  0  0
   35.7460   24.4430   38.8470 O   0  0  0  0  0  0  0  0  0  0  0  0
   40.2969   32.7940   41.0157 H   0  0  0  0  0  0  0  0  0  0  0  0
   40.0416   30.6020   42.1955 H   0  0  0  0  0  0  0  0  0  0  0  0
   36.2790   32.6522   39.7251 H   0  0  0  0  0  0  0  0  0  0  0  0
   37.8459   29.6840   44.3225 H   0  0  0  0  0  0  0  0  0  0  0  0
   36.9238   24.9167   42.8359 H   0  0  0  0  0  0  0  0  0  0  0  0
   38.4059   27.7699   37.9943 H   0  0  0  0  0  0  0  0  0  0  0  0
   38.3579   27.3339   35.5438 H   0  0  0  0  0  0  0  0  0  0  0  0
   36.3506   24.5184   34.1681 H   0  0  0  0  0  0  0  0  0  0  0  0
   37.4401   25.8760   33.7773 H   0  0  0  0  0  0  0  0  0  0  0  0
  1  2  2  0
  3  2  1  0
  3  7  1  0
  4  3  2  0
  5  6  2  0
  5  4  1  0
  6  1  1  0
  7  8  1  0
  8  9  2  0
 10  9  1  0
 11 10  2  0
 12 11  1  0
 13 14  1  0
 13 12  2  0
 14 15  2  0
 15  7  1  0
 15 10  1  0
 16 13  1  0
 17 16  1  0
 18 17  2  0
 19 18  1  0
 19 21  2  0
 20 19  1  0
 21 22  1  0
 22 16  1  0
 22 23  2  0
  1 24  1  0
  2 25  1  0
  5 26  1  0
  8 27  1  0
 11 28  1  0
 17 29  1  0
 18 30  1  0
 20 31  1  0
 20 32  1  0
M  ISO  7  24  14  25  14  26  14  27  14  28  14  29  14  30  14
M  END
>  <minimizedAffinity>  (1) 
-5.58719206

>  <minimizedRMSD>  (1) 
0.0948827043

$$$$
