
     RDKit          3D

 32 36  0  0  0  0  0  0  0  0999 V2000
   39.1400   32.1620   40.8210 C   0  0  0  0  0  0  0  0  0  0  0  0
   39.0770   30.9400   41.5050 C   0  0  0  0  0  0  0  0  0  0  0  0
   37.8650   30.2860   41.6100 C   0  0  0  0  0  0  0  0  0  0  0  0
   36.7730   30.8700   41.0340 N   0  0  0  0  0  0  0  0  0  0  0  0
   36.8500   32.0420   40.3800 C   0  0  0  0  0  0  0  0  0  0  0  0
   38.0270   32.7090   40.2600 N   0  0  0  0  0  0  0  0  0  0  0  0
   37.7270   29.0600   42.2810 N   0  0  0  0  0  0  0  0  0  0  0  0
   37.8430   28.8320   43.5940 C   0  0  0  0  0  0  0  0  0  0  0  0
   37.6380   27.5120   43.8730 N   0  0  0  0  0  0  0  0  0  0  0  0
   37.3840   26.8830   42.7030 C   0  0  0  0  0  0  0  0  0  0  0  0
   37.1040   25.6020   42.2930 C   0  0  0  0  0  0  0  0  0  0  0  0
   36.8990   25.3220   40.9960 N   0  0  0  0  0  0  0  0  0  0  0  0
   36.9740   26.3230   40.1060 C   0  0  0  0  0  0  0  0  0  0  0  0
   37.2380   27.5820   40.4130 N   0  0  0  0  0  0  0  0  0  0  0  0
   37.4480   27.8880   41.7230 C   0  0  0  0  0  0  0  0  0  0  0  0
   36.7430   25.9330   38.7540 N   0  0  0  0  0  0  0  0  0  0  0  0
   36.4070   24.7510   38.1890 C   0  0  0  0  0  0  0  0  0  0  0  0
   36.3130   24.9340   36.8620 N   0  0  0  0  0  0  0  0  0  0  0  0
   36.5860   26.2240   36.5830 C   0  0  0  0  0  0  0  0  0  0  0  0
   36.6140   26.8800   35.3640 C   0  0  0  0  0  0  0  0  0  0  0  0
   36.9270   28.1960   35.3900 N   0  0  0  0  0  0  0  0  0  0  0  0
   37.1960   28.8400   36.5420 C   0  0  0  0  0  0  0  0  0  0  0  0
   37.1660   28.1910   37.7200 N   0  0  0  0  0  0  0  0  0  0  0  0
   36.8610   26.8670   37.7820 C   0  0  0  0  0  0  0  0  0  0  0  0
   40.1031   32.6866   40.7364 H   0  0  0  0  0  0  0  0  0  0  0  0
   39.9832   30.5066   41.9533 H   0  0  0  0  0  0  0  0  0  0  0  0
   35.9406   32.4698   39.9327 H   0  0  0  0  0  0  0  0  0  0  0  0
   38.0720   29.6023   44.3452 H   0  0  0  0  0  0  0  0  0  0  0  0
   37.0470   24.7945   43.0377 H   0  0  0  0  0  0  0  0  0  0  0  0
   36.2398   23.8043   38.7236 H   0  0  0  0  0  0  0  0  0  0  0  0
   36.3929   26.3574   34.4217 H   0  0  0  0  0  0  0  0  0  0  0  0
   37.4437   29.9115   36.5193 H   0  0  0  0  0  0  0  0  0  0  0  0
  1  2  2  0
  2  3  1  0
  3  7  1  0
  4  3  2  0
  5  4  1  0
  6  5  2  0
  6  1  1  0
  7  8  1  0
  8  9  2  0
 10  9  1  0
 11 10  2  0
 12 11  1  0
 13 14  1  0
 13 12  2  0
 14 15  2  0
 15  7  1  0
 15 10  1  0
 16 13  1  0
 17 16  1  0
 18 17  2  0
 19 18  1  0
 19 24  2  0
 20 21  2  0
 20 19  1  0
 21 22  1  0
 22 23  2  0
 23 24  1  0
 24 16  1  0
  1 25  1  0
  2 26  1  0
  5 27  1  0
  8 28  1  0
 11 29  1  0
 17 30  1  0
 20 31  1  0
 22 32  1  0
M  ISO  8  25  14  26  14  27  14  28  14  29  14  30  14  31  14  32  14
M  END
>  <minimizedAffinity>  (1) 
-5.50902605

>  <minimizedRMSD>  (1) 
0.389599383

$$$$
