
     RDKit          3D

 35 39  0  0  0  0  0  0  0  0999 V2000
   39.1330   32.1470   40.8260 C   0  0  0  0  0  0  0  0  0  0  0  0
   39.0870   30.9230   41.5260 C   0  0  0  0  0  0  0  0  0  0  0  0
   37.8430   30.2850   41.6020 C   0  0  0  0  0  0  0  0  0  0  0  0
   36.7820   30.8660   41.0130 N   0  0  0  0  0  0  0  0  0  0  0  0
   36.8700   32.0350   40.3570 C   0  0  0  0  0  0  0  0  0  0  0  0
   38.0350   32.6930   40.2510 N   0  0  0  0  0  0  0  0  0  0  0  0
   37.7060   29.0640   42.2810 N   0  0  0  0  0  0  0  0  0  0  0  0
   37.8170   28.8310   43.5950 C   0  0  0  0  0  0  0  0  0  0  0  0
   37.6180   27.5080   43.8720 N   0  0  0  0  0  0  0  0  0  0  0  0
   37.3730   26.8760   42.6990 C   0  0  0  0  0  0  0  0  0  0  0  0
   37.1110   25.5980   42.3020 C   0  0  0  0  0  0  0  0  0  0  0  0
   36.9180   25.3230   41.0060 N   0  0  0  0  0  0  0  0  0  0  0  0
   36.9860   26.3190   40.0880 C   0  0  0  0  0  0  0  0  0  0  0  0
   37.2380   27.5670   40.4420 N   0  0  0  0  0  0  0  0  0  0  0  0
   37.4370   27.8720   41.7380 C   0  0  0  0  0  0  0  0  0  0  0  0
   36.7670   25.7490   38.7490 C   0  0  0  0  0  0  0  0  0  0  0  0
   37.4380   24.7010   38.2620 N   0  0  0  0  0  0  0  0  0  0  0  0
   37.2940   24.1540   37.0490 C   0  0  0  0  0  0  0  0  0  0  0  0
   36.4010   24.6600   36.1850 N   0  0  0  0  0  0  0  0  0  0  0  0
   35.6660   25.7170   36.5650 C   0  0  0  0  0  0  0  0  0  0  0  0
   34.7680   26.2200   35.6780 C   0  0  0  0  0  0  0  0  0  0  0  0
   33.9910   27.2980   36.0070 C   0  0  0  0  0  0  0  0  0  0  0  0
   34.1550   27.8580   37.2800 C   0  0  0  0  0  0  0  0  0  0  0  0
   35.0830   27.2960   38.1240 C   0  0  0  0  0  0  0  0  0  0  0  0
   35.8750   26.2130   37.8130 C   0  0  0  0  0  0  0  0  0  0  0  0
   40.0939   32.6762   40.7444 H   0  0  0  0  0  0  0  0  0  0  0  0
   39.9857   30.4905   41.9900 H   0  0  0  0  0  0  0  0  0  0  0  0
   35.9671   32.4625   39.8965 H   0  0  0  0  0  0  0  0  0  0  0  0
   38.0384   29.6005   44.3492 H   0  0  0  0  0  0  0  0  0  0  0  0
   37.0581   24.7914   43.0481 H   0  0  0  0  0  0  0  0  0  0  0  0
   37.9085   23.2886   36.7601 H   0  0  0  0  0  0  0  0  0  0  0  0
   34.6643   25.7565   34.6858 H   0  0  0  0  0  0  0  0  0  0  0  0
   33.2616   27.7109   35.2946 H   0  0  0  0  0  0  0  0  0  0  0  0
   33.5567   28.7252   37.5963 H   0  0  0  0  0  0  0  0  0  0  0  0
   35.2019   27.7443   39.1214 H   0  0  0  0  0  0  0  0  0  0  0  0
  1  2  2  0
  2  3  1  0
  3  7  1  0
  4  3  2  0
  5  4  1  0
  6  5  2  0
  6  1  1  0
  7  8  1  0
  8  9  2  0
 10  9  1  0
 11 10  2  0
 12 11  1  0
 13 14  1  0
 13 12  2  0
 14 15  2  0
 15  7  1  0
 15 10  1  0
 16 13  1  0
 17 16  2  0
 18 17  1  0
 19 20  1  0
 19 18  2  0
 20 25  2  0
 21 22  2  0
 21 20  1  0
 22 23  1  0
 23 24  2  0
 25 24  1  0
 25 16  1  0
  1 26  1  0
  2 27  1  0
  5 28  1  0
  8 29  1  0
 11 30  1  0
 18 31  1  0
 21 32  1  0
 22 33  1  0
 23 34  1  0
 24 35  1  0
M  ISO  8  26  14  27  14  28  14  29  14  30  14  31  14  32  14  33  14
M  ISO  2  34  14  35  14
M  END
>  <minimizedAffinity>  (1) 
-5.41152763

>  <minimizedRMSD>  (1) 
1.55843484

$$$$
