
     RDKit          3D

 37 40  0  0  0  0  0  0  0  0999 V2000
   39.2360   32.2260   40.8630 C   0  0  0  0  0  0  0  0  0  0  0  0
   39.1510   31.0030   41.5430 C   0  0  0  0  0  0  0  0  0  0  0  0
   37.8990   30.3740   41.5790 C   0  0  0  0  0  0  0  0  0  0  0  0
   36.8570   30.9790   40.9620 N   0  0  0  0  0  0  0  0  0  0  0  0
   36.9840   32.1600   40.3180 C   0  0  0  0  0  0  0  0  0  0  0  0
   38.1640   32.7970   40.2590 N   0  0  0  0  0  0  0  0  0  0  0  0
   37.7280   29.1490   42.2380 N   0  0  0  0  0  0  0  0  0  0  0  0
   37.7960   28.8910   43.5440 C   0  0  0  0  0  0  0  0  0  0  0  0
   37.5720   27.5670   43.7930 N   0  0  0  0  0  0  0  0  0  0  0  0
   37.3550   26.9630   42.6180 C   0  0  0  0  0  0  0  0  0  0  0  0
   37.0820   25.6890   42.2030 C   0  0  0  0  0  0  0  0  0  0  0  0
   36.9150   25.4280   40.8830 N   0  0  0  0  0  0  0  0  0  0  0  0
   37.0260   26.4380   40.0010 C   0  0  0  0  0  0  0  0  0  0  0  0
   37.2880   27.6920   40.3370 N   0  0  0  0  0  0  0  0  0  0  0  0
   37.4570   27.9670   41.6550 C   0  0  0  0  0  0  0  0  0  0  0  0
   36.8140   25.9670   38.5920 C   0  0  0  0  0  0  0  0  0  0  0  0
   36.3330   27.1120   37.7720 C   0  0  0  0  0  0  0  0  0  0  0  0
   34.8290   27.0760   37.7030 C   0  0  0  0  0  0  0  0  0  0  0  0
   34.4490   25.8590   36.8670 C   0  0  0  0  0  0  0  0  0  0  0  0
   35.0730   24.5950   37.4070 C   0  0  0  0  0  0  0  0  0  0  0  0
   35.8160   24.8350   38.7000 C   0  0  0  0  0  0  0  0  0  0  0  0
   40.2069   32.7411   40.8176 H   0  0  0  0  0  0  0  0  0  0  0  0
   40.0308   30.5554   42.0284 H   0  0  0  0  0  0  0  0  0  0  0  0
   36.1040   32.6078   39.8331 H   0  0  0  0  0  0  0  0  0  0  0  0
   38.0047   29.6442   44.3181 H   0  0  0  0  0  0  0  0  0  0  0  0
   36.9979   24.8764   42.9396 H   0  0  0  0  0  0  0  0  0  0  0  0
   37.7255   25.6041   38.0945 H   0  0  0  0  0  0  0  0  0  0  0  0
   36.6574   28.0565   38.2332 H   0  0  0  0  0  0  0  0  0  0  0  0
   36.7508   27.0403   36.7570 H   0  0  0  0  0  0  0  0  0  0  0  0
   34.4067   26.9859   38.7147 H   0  0  0  0  0  0  0  0  0  0  0  0
   34.4349   27.9992   37.2532 H   0  0  0  0  0  0  0  0  0  0  0  0
   34.7940   26.0140   35.8341 H   0  0  0  0  0  0  0  0  0  0  0  0
   33.3555   25.7450   36.9039 H   0  0  0  0  0  0  0  0  0  0  0  0
   34.2783   23.8559   37.5866 H   0  0  0  0  0  0  0  0  0  0  0  0
   35.7968   24.2304   36.6633 H   0  0  0  0  0  0  0  0  0  0  0  0
   36.3537   23.9153   38.9740 H   0  0  0  0  0  0  0  0  0  0  0  0
   35.0758   25.1132   39.4647 H   0  0  0  0  0  0  0  0  0  0  0  0
  1  2  2  0
  2  3  1  0
  3  7  1  0
  4  3  2  0
  5  4  1  0
  6  5  2  0
  6  1  1  0
  7  8  1  0
  8  9  2  0
 10  9  1  0
 11 10  2  0
 12 11  1  0
 13 14  1  0
 13 12  2  0
 14 15  2  0
 15  7  1  0
 15 10  1  0
 16 21  1  0
 16 13  1  0
 17 16  1  0
 18 17  1  0
 19 20  1  0
 19 18  1  0
 20 21  1  0
  1 22  1  0
  2 23  1  0
  5 24  1  0
  8 25  1  0
 11 26  1  0
 16 27  1  0
 17 28  1  0
 17 29  1  0
 18 30  1  0
 18 31  1  0
 19 32  1  0
 19 33  1  0
 20 34  1  0
 20 35  1  0
 21 36  1  0
 21 37  1  0
M  ISO  8  22  14  23  14  24  14  25  14  26  14  27  13  28  13  29  13
M  ISO  8  30  13  31  13  32  13  33  13  34  13  35  13  36  13  37  13
M  END
>  <minimizedAffinity>  (1) 
-5.21793842

>  <minimizedRMSD>  (1) 
0.687391222

$$$$
