
     RDKit          3D

 24 26  0  0  0  0  0  0  0  0999 V2000
   39.0990   32.1500   40.8230 C   0  0  0  0  0  0  0  0  0  0  0  0
   39.0500   30.9300   41.5190 C   0  0  0  0  0  0  0  0  0  0  0  0
   37.8180   30.2870   41.5900 C   0  0  0  0  0  0  0  0  0  0  0  0
   36.7380   30.8520   40.9970 N   0  0  0  0  0  0  0  0  0  0  0  0
   36.8310   32.0240   40.3390 C   0  0  0  0  0  0  0  0  0  0  0  0
   38.0020   32.6870   40.2420 N   0  0  0  0  0  0  0  0  0  0  0  0
   37.6980   29.0500   42.2780 N   0  0  0  0  0  0  0  0  0  0  0  0
   37.8210   28.8110   43.5730 C   0  0  0  0  0  0  0  0  0  0  0  0
   37.6340   27.4860   43.8460 N   0  0  0  0  0  0  0  0  0  0  0  0
   37.3860   26.8720   42.6880 C   0  0  0  0  0  0  0  0  0  0  0  0
   37.1210   25.5840   42.2870 C   0  0  0  0  0  0  0  0  0  0  0  0
   36.9080   25.3050   40.9710 N   0  0  0  0  0  0  0  0  0  0  0  0
   36.9640   26.3080   40.0840 C   0  0  0  0  0  0  0  0  0  0  0  0
   37.2140   27.5680   40.4060 N   0  0  0  0  0  0  0  0  0  0  0  0
   37.4300   27.8730   41.7090 C   0  0  0  0  0  0  0  0  0  0  0  0
   36.7240   25.9480   38.6600 C   0  0  0  0  0  0  0  0  0  0  0  0
   36.4490   27.0700   37.9060 F   0  0  0  0  0  0  0  0  0  0  0  0
   35.5530   25.1770   38.6620 F   0  0  0  0  0  0  0  0  0  0  0  0
   37.7580   25.1970   38.1500 F   0  0  0  0  0  0  0  0  0  0  0  0
   40.0579   32.6839   40.7486 H   0  0  0  0  0  0  0  0  0  0  0  0
   39.9480   30.5014   41.9880 H   0  0  0  0  0  0  0  0  0  0  0  0
   35.9317   32.4500   39.8702 H   0  0  0  0  0  0  0  0  0  0  0  0
   38.0443   29.5776   44.3296 H   0  0  0  0  0  0  0  0  0  0  0  0
   37.0808   24.7756   43.0319 H   0  0  0  0  0  0  0  0  0  0  0  0
  1  2  2  0
  2  3  1  0
  3  7  1  0
  4  3  2  0
  5  4  1  0
  6  5  2  0
  6  1  1  0
  7  8  1  0
  8  9  2  0
 10  9  1  0
 11 10  2  0
 12 11  1  0
 13 14  1  0
 13 12  2  0
 14 15  2  0
 15  7  1  0
 15 10  1  0
 16 18  1  0
 16 13  1  0
 17 16  1  0
 19 16  1  0
  1 20  1  0
  2 21  1  0
  5 22  1  0
  8 23  1  0
 11 24  1  0
M  ISO  5  20  14  21  14  22  14  23  14  24  14
M  END
>  <minimizedAffinity>  (1) 
-4.72526217

>  <minimizedRMSD>  (1) 
0.327742398

$$$$
