
     RDKit          3D

 24 26  0  0  0  0  0  0  0  0999 V2000
   39.1010   32.1350   40.8340 C   0  0  0  0  0  0  0  0  0  0  0  0
   39.0450   30.9170   41.5340 C   0  0  0  0  0  0  0  0  0  0  0  0
   37.8100   30.2710   41.5980 C   0  0  0  0  0  0  0  0  0  0  0  0
   36.7340   30.8370   40.9920 N   0  0  0  0  0  0  0  0  0  0  0  0
   36.8250   32.0050   40.3320 C   0  0  0  0  0  0  0  0  0  0  0  0
   38.0060   32.6730   40.2410 N   0  0  0  0  0  0  0  0  0  0  0  0
   37.6740   29.0420   42.2830 N   0  0  0  0  0  0  0  0  0  0  0  0
   37.7680   28.8140   43.5880 C   0  0  0  0  0  0  0  0  0  0  0  0
   37.5760   27.4950   43.8670 N   0  0  0  0  0  0  0  0  0  0  0  0
   37.3510   26.8570   42.6940 C   0  0  0  0  0  0  0  0  0  0  0  0
   37.0970   25.5730   42.2950 C   0  0  0  0  0  0  0  0  0  0  0  0
   36.9170   25.2900   40.9800 N   0  0  0  0  0  0  0  0  0  0  0  0
   36.9930   26.2840   40.0980 C   0  0  0  0  0  0  0  0  0  0  0  0
   37.2360   27.5530   40.4050 N   0  0  0  0  0  0  0  0  0  0  0  0
   37.4210   27.8550   41.7320 C   0  0  0  0  0  0  0  0  0  0  0  0
   36.7990   26.0000   38.6390 C   0  0  0  0  0  0  0  0  0  0  0  0
   40.0611   32.6674   40.7652 H   0  0  0  0  0  0  0  0  0  0  0  0
   39.9391   30.4904   42.0121 H   0  0  0  0  0  0  0  0  0  0  0  0
   35.9276   32.4280   39.8569 H   0  0  0  0  0  0  0  0  0  0  0  0
   37.9735   29.5874   44.3428 H   0  0  0  0  0  0  0  0  0  0  0  0
   37.0385   24.7679   43.0423 H   0  0  0  0  0  0  0  0  0  0  0  0
   36.1822   25.0970   38.5201 H   0  0  0  0  0  0  0  0  0  0  0  0
   36.2946   26.8539   38.1631 H   0  0  0  0  0  0  0  0  0  0  0  0
   37.7779   25.8407   38.1631 H   0  0  0  0  0  0  0  0  0  0  0  0
  1  2  2  0
  2  3  1  0
  3  7  1  0
  4  3  2  0
  5  4  1  0
  6  5  2  0
  6  1  1  0
  7  8  1  0
  8  9  2  0
 10  9  1  0
 11 10  2  0
 12 11  1  0
 13 14  1  0
 13 12  2  0
 14 15  2  0
 15  7  1  0
 15 10  1  0
 16 13  1  0
  1 17  1  0
  2 18  1  0
  5 19  1  0
  8 20  1  0
 11 21  1  0
 16 22  1  0
 16 23  1  0
 16 24  1  0
M  ISO  8  17  14  18  14  19  14  20  14  21  14  22   8  23   8  24   8
M  END
>  <minimizedAffinity>  (1) 
-4.56216669

>  <minimizedRMSD>  (1) 
0.219996586

$$$$
