
     RDKit          3D

 27 29  0  0  0  0  0  0  0  0999 V2000
   39.0150   32.1210   40.9430 C   0  0  0  0  0  0  0  0  0  0  0  0
   38.9480   30.8920   41.6360 C   0  0  0  0  0  0  0  0  0  0  0  0
   37.7180   30.2220   41.6360 C   0  0  0  0  0  0  0  0  0  0  0  0
   36.6740   30.7760   40.9840 N   0  0  0  0  0  0  0  0  0  0  0  0
   36.7840   31.9510   40.3360 C   0  0  0  0  0  0  0  0  0  0  0  0
   37.9440   32.6310   40.3080 N   0  0  0  0  0  0  0  0  0  0  0  0
   37.5790   28.9930   42.3060 N   0  0  0  0  0  0  0  0  0  0  0  0
   37.6280   28.7410   43.6110 C   0  0  0  0  0  0  0  0  0  0  0  0
   37.4480   27.4120   43.8710 N   0  0  0  0  0  0  0  0  0  0  0  0
   37.2800   26.7960   42.6850 C   0  0  0  0  0  0  0  0  0  0  0  0
   37.0620   25.5040   42.2710 C   0  0  0  0  0  0  0  0  0  0  0  0
   36.9350   25.2290   40.9630 N   0  0  0  0  0  0  0  0  0  0  0  0
   37.0250   26.2330   40.0670 C   0  0  0  0  0  0  0  0  0  0  0  0
   37.2340   27.5030   40.4000 N   0  0  0  0  0  0  0  0  0  0  0  0
   37.3650   27.8000   41.7210 C   0  0  0  0  0  0  0  0  0  0  0  0
   36.8720   25.8350   38.6400 C   0  0  0  0  0  0  0  0  0  0  0  0
   35.7260   24.9040   38.4200 C   0  0  0  0  0  0  0  0  0  0  0  0
   39.9655   32.6744   40.9220 H   0  0  0  0  0  0  0  0  0  0  0  0
   39.8256   30.4782   42.1543 H   0  0  0  0  0  0  0  0  0  0  0  0
   35.9058   32.3639   39.8181 H   0  0  0  0  0  0  0  0  0  0  0  0
   37.7927   29.5064   44.3837 H   0  0  0  0  0  0  0  0  0  0  0  0
   36.9915   24.6941   43.0120 H   0  0  0  0  0  0  0  0  0  0  0  0
   36.7097   26.7410   38.0377 H   0  0  0  0  0  0  0  0  0  0  0  0
   37.7901   25.3071   38.3426 H   0  0  0  0  0  0  0  0  0  0  0  0
   35.3259   24.5790   39.3917 H   0  0  0  0  0  0  0  0  0  0  0  0
   34.9375   25.4206   37.8531 H   0  0  0  0  0  0  0  0  0  0  0  0
   36.0701   24.0264   37.8531 H   0  0  0  0  0  0  0  0  0  0  0  0
  1  2  2  0
  3  2  1  0
  3  7  1  0
  4  3  2  0
  5  4  1  0
  6  5  2  0
  6  1  1  0
  7  8  1  0
  8  9  2  0
 10  9  1  0
 11 10  2  0
 12 11  1  0
 13 14  1  0
 13 12  2  0
 14 15  2  0
 15  7  1  0
 15 10  1  0
 16 13  1  0
 17 16  1  0
  1 18  1  0
  2 19  1  0
  5 20  1  0
  8 21  1  0
 11 22  1  0
 16 23  1  0
 16 24  1  0
 17 25  1  0
 17 26  1  0
 17 27  1  0
M  ISO  8  18  14  19  14  20  14  21  14  22  14  23   8  24   8  25   8
M  ISO  2  26   8  27   8
M  END
>  <minimizedAffinity>  (1) 
-4.56214952

>  <minimizedRMSD>  (1) 
0.290151238

$$$$
