
     RDKit          3D

 22 24  0  0  0  0  0  0  0  0999 V2000
   39.0130   32.1100   40.9460 C   0  0  0  0  0  0  0  0  0  0  0  0
   38.9380   30.8940   41.6360 C   0  0  0  0  0  0  0  0  0  0  0  0
   37.7290   30.2150   41.6410 C   0  0  0  0  0  0  0  0  0  0  0  0
   36.6810   30.7680   40.9740 N   0  0  0  0  0  0  0  0  0  0  0  0
   36.7810   31.9320   40.3210 C   0  0  0  0  0  0  0  0  0  0  0  0
   37.9380   32.6230   40.2930 N   0  0  0  0  0  0  0  0  0  0  0  0
   37.5810   28.9830   42.3180 N   0  0  0  0  0  0  0  0  0  0  0  0
   37.6130   28.7350   43.6110 C   0  0  0  0  0  0  0  0  0  0  0  0
   37.4280   27.4080   43.8650 N   0  0  0  0  0  0  0  0  0  0  0  0
   37.2730   26.7870   42.6920 C   0  0  0  0  0  0  0  0  0  0  0  0
   37.0590   25.4980   42.2760 C   0  0  0  0  0  0  0  0  0  0  0  0
   36.9470   25.2250   40.9470 N   0  0  0  0  0  0  0  0  0  0  0  0
   37.0490   26.2250   40.0740 C   0  0  0  0  0  0  0  0  0  0  0  0
   37.2560   27.4940   40.4020 N   0  0  0  0  0  0  0  0  0  0  0  0
   37.3740   27.8020   41.7360 C   0  0  0  0  0  0  0  0  0  0  0  0
   36.8860   25.7440   38.3620 S   0  0  0  0  0  0  0  0  0  0  0  0
   39.9641   32.6625   40.9324 H   0  0  0  0  0  0  0  0  0  0  0  0
   39.8154   30.4878   42.1605 H   0  0  0  0  0  0  0  0  0  0  0  0
   35.9011   32.3329   39.7965 H   0  0  0  0  0  0  0  0  0  0  0  0
   37.7689   29.4997   44.3862 H   0  0  0  0  0  0  0  0  0  0  0  0
   36.9780   24.6866   43.0143 H   0  0  0  0  0  0  0  0  0  0  0  0
   36.4469   24.4482   38.2915 H   0  0  0  0  0  0  0  0  0  0  0  0
  1  2  2  0
  2  3  1  0
  3  7  1  0
  4  3  2  0
  5  4  1  0
  6  5  2  0
  6  1  1  0
  7  8  1  0
  8  9  2  0
 10  9  1  0
 11 10  2  0
 12 11  1  0
 13 14  1  0
 13 12  2  0
 14 15  2  0
 15  7  1  0
 15 10  1  0
 16 13  1  0
  1 17  1  0
  2 18  1  0
  5 19  1  0
  8 20  1  0
 11 21  1  0
 16 22  1  0
M  ISO  6  17  14  18  14  19  14  20  14  21  14  22  11
M  END
>  <minimizedAffinity>  (1) 
-4.52084684

>  <minimizedRMSD>  (1) 
0.265167952

$$$$
