
     RDKit          3D

 41 46  0  0  1  0  0  0  0  0999 V2000
   38.3210   31.5370   40.7540 C   0  0  0  0  0  0  0  0  0  0  0  0
   38.8190   30.3730   41.3710 C   0  0  0  0  0  0  0  0  0  0  0  0
   37.8650   29.4230   41.7680 C   0  0  0  0  0  0  0  0  0  0  0  0
   36.5690   29.6610   41.5480 N   0  0  0  0  0  0  0  0  0  0  0  0
   36.1400   30.7920   40.9530 C   0  0  0  0  0  0  0  0  0  0  0  0
   37.0160   31.7440   40.5480 N   0  0  0  0  0  0  0  0  0  0  0  0
   38.3000   28.2190   42.3930 N   0  0  0  0  0  0  0  0  0  0  0  0
   38.8790   28.0490   43.5560 C   0  0  0  0  0  0  0  0  0  0  0  0
   39.1550   26.7340   43.7940 N   0  0  0  0  0  0  0  0  0  0  0  0
   38.7290   26.0430   42.7270 C   0  0  0  0  0  0  0  0  0  0  0  0
   38.7130   24.7250   42.3470 C   0  0  0  0  0  0  0  0  0  0  0  0
   38.1860   24.3600   41.1490 N   0  0  0  0  0  0  0  0  0  0  0  0
   37.6870   25.3140   40.3530 C   0  0  0  0  0  0  0  0  0  0  0  0
   37.6720   26.6100   40.6640 N   0  0  0  0  0  0  0  0  0  0  0  0
   38.1900   26.9960   41.8510 C   0  0  0  0  0  0  0  0  0  0  0  0
   37.1380   24.8670   39.0310 C   0  0  1  0  0  0  0  0  0  0  0  0
   35.7220   24.2640   39.0380 C   0  0  0  0  0  0  0  0  0  0  0  0
   36.0460   25.5640   38.3750 C   0  0  2  0  0  0  0  0  0  0  0  0
   35.9890   25.6780   36.9130 N   0  0  0  0  0  0  0  0  0  0  0  0
   36.1570   24.6430   36.0710 C   0  0  0  0  0  0  0  0  0  0  0  0
   36.0360   25.1400   34.8060 N   0  0  0  0  0  0  0  0  0  0  0  0
   35.7970   26.4730   34.9140 C   0  0  0  0  0  0  0  0  0  0  0  0
   35.5940   27.4770   33.9980 C   0  0  0  0  0  0  0  0  0  0  0  0
   35.3770   28.7310   34.4190 N   0  0  0  0  0  0  0  0  0  0  0  0
   35.3530   29.0470   35.7240 C   0  0  0  0  0  0  0  0  0  0  0  0
   35.5470   28.1010   36.6670 N   0  0  0  0  0  0  0  0  0  0  0  0
   35.7660   26.8300   36.2510 C   0  0  0  0  0  0  0  0  0  0  0  0
   35.6120   27.1910   32.6040 N   0  0  0  0  0  0  0  0  0  0  0  0
   39.0350   32.3077   40.4281 H   0  0  0  0  0  0  0  0  0  0  0  0
   39.8958   30.2170   41.5328 H   0  0  0  0  0  0  0  0  0  0  0  0
   35.0624   30.9448   40.7936 H   0  0  0  0  0  0  0  0  0  0  0  0
   39.1137   28.8657   44.2545 H   0  0  0  0  0  0  0  0  0  0  0  0
   39.1297   23.9583   43.0168 H   0  0  0  0  0  0  0  0  0  0  0  0
   38.1430   24.5698   38.6968 H   0  0  0  0  0  0  0  0  0  0  0  0
   35.4924   23.3727   38.4356 H   0  0  0  0  0  0  0  0  0  0  0  0
   35.0101   23.9179   39.8018 H   0  0  0  0  0  0  0  0  0  0  0  0
   35.6472   26.5859   38.4561 H   0  0  0  0  0  0  0  0  0  0  0  0
   36.3540   23.5970   36.3486 H   0  0  0  0  0  0  0  0  0  0  0  0
   35.1732   30.0888   36.0279 H   0  0  0  0  0  0  0  0  0  0  0  0
   35.7785   26.2283   32.2779 H   0  0  0  0  0  0  0  0  0  0  0  0
   35.4585   27.9467   31.9212 H   0  0  0  0  0  0  0  0  0  0  0  0
  1  2  2  0
  2  3  1  0
  3  7  1  0
  4  3  2  0
  5  4  1  0
  6  1  1  0
  6  5  2  0
  7  8  1  0
  8  9  2  0
 10  9  1  0
 11 10  2  0
 12 11  1  0
 13 14  1  0
 13 12  2  0
 14 15  2  0
 15  7  1  0
 15 10  1  0
 16 17  1  0
 16 13  1  0
 18 16  1  0
 18 17  1  0
 19 18  1  0
 20 19  1  0
 21 22  1  0
 21 20  2  0
 22 27  2  0
 23 24  2  0
 23 22  1  0
 24 25  1  0
 25 26  2  0
 27 26  1  0
 27 19  1  0
 28 23  1  0
  1 29  1  0
  2 30  1  0
  5 31  1  0
  8 32  1  0
 11 33  1  0
 16 34  1  6
 17 35  1  0
 17 36  1  0
 18 37  1  1
 20 38  1  0
 25 39  1  0
 28 40  1  0
 28 41  1  0
M  ISO  8  29  14  30  14  31  14  32  14  33  14  34  13  35  13  36  13
M  ISO  3  37  13  38  14  39  14
M  END
>  <minimizedAffinity>  (1) 
-5.42231989

>  <minimizedRMSD>  (1) 
2.14282584

$$$$
