
     RDKit          3D

 43 47  0  0  1  0  0  0  0  0999 V2000
   39.1140   32.1900   40.9130 C   0  0  0  0  0  0  0  0  0  0  0  0
   39.0590   30.9470   41.5670 C   0  0  0  0  0  0  0  0  0  0  0  0
   37.8260   30.2970   41.6180 C   0  0  0  0  0  0  0  0  0  0  0  0
   36.7750   30.8850   41.0470 N   0  0  0  0  0  0  0  0  0  0  0  0
   36.8540   32.0720   40.4280 C   0  0  0  0  0  0  0  0  0  0  0  0
   38.0200   32.7270   40.3570 N   0  0  0  0  0  0  0  0  0  0  0  0
   37.7070   29.0350   42.2590 N   0  0  0  0  0  0  0  0  0  0  0  0
   37.8450   28.7390   43.5370 C   0  0  0  0  0  0  0  0  0  0  0  0
   37.6620   27.4040   43.7550 N   0  0  0  0  0  0  0  0  0  0  0  0
   37.3970   26.8370   42.5670 C   0  0  0  0  0  0  0  0  0  0  0  0
   37.1290   25.5670   42.1070 C   0  0  0  0  0  0  0  0  0  0  0  0
   36.9070   25.3430   40.8060 N   0  0  0  0  0  0  0  0  0  0  0  0
   36.9470   26.3760   39.9470 C   0  0  0  0  0  0  0  0  0  0  0  0
   37.2010   27.6270   40.3340 N   0  0  0  0  0  0  0  0  0  0  0  0
   37.4300   27.8790   41.6430 C   0  0  0  0  0  0  0  0  0  0  0  0
   36.7170   26.0710   38.5020 C   0  0  1  0  0  0  0  0  0  0  0  0
   35.5080   25.1760   38.1750 C   0  0  0  0  0  0  0  0  0  0  0  0
   35.5770   26.6040   37.7790 C   0  0  2  0  0  0  0  0  0  0  0  0
   35.6660   26.9740   36.3670 N   0  0  0  0  0  0  0  0  0  0  0  0
   36.8950   27.7210   36.2410 C   0  0  0  0  0  0  0  0  0  0  0  0
   36.9480   28.6700   35.0950 C   0  0  0  0  0  0  0  0  0  0  0  0
   35.7060   29.4900   34.9340 C   0  0  0  0  0  0  0  0  0  0  0  0
   34.5550   28.5270   34.7940 C   0  0  0  0  0  0  0  0  0  0  0  0
   34.4800   27.7110   36.0540 C   0  0  0  0  0  0  0  0  0  0  0  0
   40.0705   32.7303   40.8569 H   0  0  0  0  0  0  0  0  0  0  0  0
   39.9564   30.5027   42.0223 H   0  0  0  0  0  0  0  0  0  0  0  0
   35.9533   32.5115   39.9746 H   0  0  0  0  0  0  0  0  0  0  0  0
   38.0771   29.4718   44.3238 H   0  0  0  0  0  0  0  0  0  0  0  0
   37.0970   24.7271   42.8166 H   0  0  0  0  0  0  0  0  0  0  0  0
   37.7994   26.0787   38.3063 H   0  0  0  0  0  0  0  0  0  0  0  0
   35.5906   24.3830   37.4171 H   0  0  0  0  0  0  0  0  0  0  0  0
   34.8117   24.5441   38.7458 H   0  0  0  0  0  0  0  0  0  0  0  0
   34.9283   27.4774   37.9416 H   0  0  0  0  0  0  0  0  0  0  0  0
   37.0387   28.2976   37.1667 H   0  0  0  0  0  0  0  0  0  0  0  0
   37.6851   26.9780   36.0575 H   0  0  0  0  0  0  0  0  0  0  0  0
   37.7971   29.3524   35.2483 H   0  0  0  0  0  0  0  0  0  0  0  0
   37.0544   28.0656   34.1821 H   0  0  0  0  0  0  0  0  0  0  0  0
   35.5584   30.1288   35.8172 H   0  0  0  0  0  0  0  0  0  0  0  0
   35.7795   30.1435   34.0522 H   0  0  0  0  0  0  0  0  0  0  0  0
   33.6169   29.0837   34.6528 H   0  0  0  0  0  0  0  0  0  0  0  0
   34.7060   27.8732   33.9223 H   0  0  0  0  0  0  0  0  0  0  0  0
   34.2712   28.3935   36.8910 H   0  0  0  0  0  0  0  0  0  0  0  0
   33.6878   26.9654   35.8915 H   0  0  0  0  0  0  0  0  0  0  0  0
  1  2  2  0
  2  3  1  0
  3  7  1  0
  4  3  2  0
  5  4  1  0
  6  5  2  0
  6  1  1  0
  7  8  1  0
  8  9  2  0
 10  9  1  0
 11 10  2  0
 12 11  1  0
 13 14  1  0
 13 12  2  0
 14 15  2  0
 15  7  1  0
 15 10  1  0
 16 13  1  0
 17 16  1  0
 18 17  1  0
 18 16  1  0
 19 18  1  0
 20 19  1  0
 21 20  1  0
 22 21  1  0
 23 22  1  0
 23 24  1  0
 24 19  1  0
  1 25  1  0
  2 26  1  0
  5 27  1  0
  8 28  1  0
 11 29  1  0
 16 30  1  6
 17 31  1  0
 17 32  1  0
 18 33  1  1
 20 34  1  0
 20 35  1  0
 21 36  1  0
 21 37  1  0
 22 38  1  0
 22 39  1  0
 23 40  1  0
 23 41  1  0
 24 42  1  0
 24 43  1  0
M  ISO  8  25  14  26  14  27  14  28  14  29  14  30  13  31  13  32  13
M  ISO  8  33  13  34  13  35  13  36  13  37  13  38  13  39  13  40  13
M  ISO  3  41  13  42  13  43  13
M  END
>  <minimizedAffinity>  (1) 
-5.39638472

>  <minimizedRMSD>  (1) 
1.44920337

$$$$
