
     RDKit          3D

 41 45  0  0  1  0  0  0  0  0999 V2000
   39.1070   32.1810   40.9140 C   0  0  0  0  0  0  0  0  0  0  0  0
   39.0550   30.9430   41.5800 C   0  0  0  0  0  0  0  0  0  0  0  0
   37.8110   30.2950   41.6250 C   0  0  0  0  0  0  0  0  0  0  0  0
   36.7560   30.8730   41.0440 N   0  0  0  0  0  0  0  0  0  0  0  0
   36.8520   32.0640   40.4150 C   0  0  0  0  0  0  0  0  0  0  0  0
   38.0250   32.7250   40.3450 N   0  0  0  0  0  0  0  0  0  0  0  0
   37.6950   29.0330   42.2800 N   0  0  0  0  0  0  0  0  0  0  0  0
   37.8290   28.7470   43.5530 C   0  0  0  0  0  0  0  0  0  0  0  0
   37.6510   27.4050   43.7620 N   0  0  0  0  0  0  0  0  0  0  0  0
   37.3970   26.8370   42.5790 C   0  0  0  0  0  0  0  0  0  0  0  0
   37.1420   25.5630   42.1350 C   0  0  0  0  0  0  0  0  0  0  0  0
   36.9260   25.3350   40.8230 N   0  0  0  0  0  0  0  0  0  0  0  0
   36.9640   26.3720   39.9680 C   0  0  0  0  0  0  0  0  0  0  0  0
   37.2060   27.6240   40.3390 N   0  0  0  0  0  0  0  0  0  0  0  0
   37.4280   27.8830   41.6520 C   0  0  0  0  0  0  0  0  0  0  0  0
   36.7360   26.0640   38.5200 C   0  0  1  0  0  0  0  0  0  0  0  0
   35.5100   25.1970   38.1820 C   0  0  0  0  0  0  0  0  0  0  0  0
   35.6150   26.6280   37.7900 C   0  0  2  0  0  0  0  0  0  0  0  0
   35.6740   27.0180   36.4030 N   0  0  0  0  0  0  0  0  0  0  0  0
   34.7760   28.1440   36.1780 C   0  0  0  0  0  0  0  0  0  0  0  0
   34.7160   28.5480   34.7460 C   0  0  0  0  0  0  0  0  0  0  0  0
   35.9740   28.4790   34.1920 O   0  0  0  0  0  0  0  0  0  0  0  0
   37.0020   28.6190   35.1300 C   0  0  0  0  0  0  0  0  0  0  0  0
   37.0160   27.5050   36.1330 C   0  0  0  0  0  0  0  0  0  0  0  0
   40.0656   32.7178   40.8594 H   0  0  0  0  0  0  0  0  0  0  0  0
   39.9494   30.5025   42.0447 H   0  0  0  0  0  0  0  0  0  0  0  0
   35.9565   32.5031   39.9511 H   0  0  0  0  0  0  0  0  0  0  0  0
   38.0527   29.4809   44.3412 H   0  0  0  0  0  0  0  0  0  0  0  0
   37.1138   24.7274   42.8498 H   0  0  0  0  0  0  0  0  0  0  0  0
   37.8197   26.0404   38.3331 H   0  0  0  0  0  0  0  0  0  0  0  0
   35.5802   24.4045   37.4224 H   0  0  0  0  0  0  0  0  0  0  0  0
   34.7955   24.5792   38.7457 H   0  0  0  0  0  0  0  0  0  0  0  0
   34.9987   27.5246   37.9523 H   0  0  0  0  0  0  0  0  0  0  0  0
   33.7654   27.8606   36.5072 H   0  0  0  0  0  0  0  0  0  0  0  0
   35.1628   28.9997   36.7509 H   0  0  0  0  0  0  0  0  0  0  0  0
   34.0397   27.8714   34.2031 H   0  0  0  0  0  0  0  0  0  0  0  0
   34.3420   29.5799   34.6737 H   0  0  0  0  0  0  0  0  0  0  0  0
   37.9655   28.6287   34.5994 H   0  0  0  0  0  0  0  0  0  0  0  0
   36.8327   29.5592   35.6753 H   0  0  0  0  0  0  0  0  0  0  0  0
   37.6248   26.6773   35.7402 H   0  0  0  0  0  0  0  0  0  0  0  0
   37.4401   27.8900   37.0721 H   0  0  0  0  0  0  0  0  0  0  0  0
  1  2  2  0
  2  3  1  0
  3  7  1  0
  4  3  2  0
  5  4  1  0
  6  5  2  0
  6  1  1  0
  7  8  1  0
  8  9  2  0
 10  9  1  0
 11 10  2  0
 12 11  1  0
 13 14  1  0
 13 12  2  0
 14 15  2  0
 15  7  1  0
 15 10  1  0
 16 13  1  0
 17 16  1  0
 18 17  1  0
 18 16  1  0
 19 18  1  0
 20 19  1  0
 21 20  1  0
 22 21  1  0
 22 23  1  0
 23 24  1  0
 24 19  1  0
  1 25  1  0
  2 26  1  0
  5 27  1  0
  8 28  1  0
 11 29  1  0
 16 30  1  6
 17 31  1  0
 17 32  1  0
 18 33  1  1
 20 34  1  0
 20 35  1  0
 21 36  1  0
 21 37  1  0
 23 38  1  0
 23 39  1  0
 24 40  1  0
 24 41  1  0
M  ISO  8  25  14  26  14  27  14  28  14  29  14  30  13  31  13  32  13
M  ISO  8  33  13  34  13  35  13  36  13  37  13  38  13  39  13  40  13
M  ISO  1  41  13
M  END
>  <minimizedAffinity>  (1) 
-5.30649185

>  <minimizedRMSD>  (1) 
1.40478122

$$$$
