
     RDKit          3D

 40 44  0  0  1  0  0  0  0  0999 V2000
   38.9650   32.1070   40.9200 C   0  0  0  0  0  0  0  0  0  0  0  0
   38.9150   30.8920   41.6260 C   0  0  0  0  0  0  0  0  0  0  0  0
   37.6850   30.2130   41.6280 C   0  0  0  0  0  0  0  0  0  0  0  0
   36.6490   30.7430   40.9760 N   0  0  0  0  0  0  0  0  0  0  0  0
   36.7430   31.9120   40.3110 C   0  0  0  0  0  0  0  0  0  0  0  0
   37.9000   32.6030   40.2780 N   0  0  0  0  0  0  0  0  0  0  0  0
   37.5650   28.9760   42.3130 N   0  0  0  0  0  0  0  0  0  0  0  0
   37.6390   28.7320   43.5990 C   0  0  0  0  0  0  0  0  0  0  0  0
   37.4850   27.4090   43.8700 N   0  0  0  0  0  0  0  0  0  0  0  0
   37.3030   26.7810   42.6890 C   0  0  0  0  0  0  0  0  0  0  0  0
   37.0990   25.4770   42.2740 C   0  0  0  0  0  0  0  0  0  0  0  0
   36.9580   25.1980   40.9680 N   0  0  0  0  0  0  0  0  0  0  0  0
   37.0160   26.2050   40.0780 C   0  0  0  0  0  0  0  0  0  0  0  0
   37.2090   27.4770   40.4180 N   0  0  0  0  0  0  0  0  0  0  0  0
   37.3570   27.7910   41.7240 C   0  0  0  0  0  0  0  0  0  0  0  0
   36.8760   25.8370   38.6330 C   0  0  1  0  0  0  0  0  0  0  0  0
   35.5560   25.1600   38.2210 C   0  0  0  0  0  0  0  0  0  0  0  0
   35.9350   26.5170   37.7600 C   0  0  2  0  0  0  0  0  0  0  0  0
   36.1990   26.8600   36.4040 N   0  0  0  0  0  0  0  0  0  0  0  0
   37.6230   26.7060   36.0840 C   0  0  0  0  0  0  0  0  0  0  0  0
   38.1150   28.1380   35.9780 C   0  0  0  0  0  0  0  0  0  0  0  0
   36.9610   28.7110   35.1460 C   0  0  0  0  0  0  0  0  0  0  0  0
   35.7880   28.1400   35.9560 C   0  0  0  0  0  0  0  0  0  0  0  0
   39.9105   32.6686   40.8943 H   0  0  0  0  0  0  0  0  0  0  0  0
   39.7955   30.4928   42.1508 H   0  0  0  0  0  0  0  0  0  0  0  0
   35.8610   32.3085   39.7867 H   0  0  0  0  0  0  0  0  0  0  0  0
   37.8054   29.5037   44.3651 H   0  0  0  0  0  0  0  0  0  0  0  0
   37.0522   24.6664   43.0161 H   0  0  0  0  0  0  0  0  0  0  0  0
   37.9534   25.6278   38.5596 H   0  0  0  0  0  0  0  0  0  0  0  0
   35.5599   24.3123   37.5200 H   0  0  0  0  0  0  0  0  0  0  0  0
   34.6985   24.7111   38.7437 H   0  0  0  0  0  0  0  0  0  0  0  0
   35.4390   27.4982   37.7949 H   0  0  0  0  0  0  0  0  0  0  0  0
   38.1505   26.1665   36.8845 H   0  0  0  0  0  0  0  0  0  0  0  0
   37.7973   26.1225   35.1679 H   0  0  0  0  0  0  0  0  0  0  0  0
   38.1973   28.6223   36.9622 H   0  0  0  0  0  0  0  0  0  0  0  0
   39.1216   28.2681   35.5539 H   0  0  0  0  0  0  0  0  0  0  0  0
   36.9708   28.3371   34.1115 H   0  0  0  0  0  0  0  0  0  0  0  0
   36.9636   29.8032   35.0156 H   0  0  0  0  0  0  0  0  0  0  0  0
   35.5657   28.7907   36.8146 H   0  0  0  0  0  0  0  0  0  0  0  0
   34.8750   28.0756   35.3459 H   0  0  0  0  0  0  0  0  0  0  0  0
  1  2  2  0
  2  3  1  0
  3  7  1  0
  4  3  2  0
  5  4  1  0
  6  5  2  0
  6  1  1  0
  7  8  1  0
  8  9  2  0
 10  9  1  0
 11 10  2  0
 12 11  1  0
 13 14  1  0
 13 12  2  0
 14 15  2  0
 15  7  1  0
 15 10  1  0
 16 13  1  0
 17 16  1  0
 18 17  1  0
 18 16  1  0
 19 20  1  0
 19 18  1  0
 21 20  1  0
 22 23  1  0
 22 21  1  0
 23 19  1  0
  1 24  1  0
  2 25  1  0
  5 26  1  0
  8 27  1  0
 11 28  1  0
 16 29  1  6
 17 30  1  0
 17 31  1  0
 18 32  1  1
 20 33  1  0
 20 34  1  0
 21 35  1  0
 21 36  1  0
 22 37  1  0
 22 38  1  0
 23 39  1  0
 23 40  1  0
M  ISO  8  24  14  25  14  26  14  27  14  28  14  29  13  30  13  31  13
M  ISO  8  32  13  33  13  34  13  35  13  36  13  37  13  38  13  39  13
M  ISO  1  40  13
M  END
>  <minimizedAffinity>  (1) 
-5.30382395

>  <minimizedRMSD>  (1) 
0.602224469

$$$$
