
     RDKit          3D

 40 43  0  0  1  0  0  0  0  0999 V2000
   39.0220   32.1160   40.9720 C   0  0  0  0  0  0  0  0  0  0  0  0
   38.9460   30.8990   41.6740 C   0  0  0  0  0  0  0  0  0  0  0  0
   37.7160   30.2290   41.6400 C   0  0  0  0  0  0  0  0  0  0  0  0
   36.7080   30.7740   40.9590 N   0  0  0  0  0  0  0  0  0  0  0  0
   36.8150   31.9360   40.3000 C   0  0  0  0  0  0  0  0  0  0  0  0
   37.9820   32.6230   40.3000 N   0  0  0  0  0  0  0  0  0  0  0  0
   37.5680   28.9880   42.3220 N   0  0  0  0  0  0  0  0  0  0  0  0
   37.6080   28.7460   43.6100 C   0  0  0  0  0  0  0  0  0  0  0  0
   37.4360   27.4200   43.8640 N   0  0  0  0  0  0  0  0  0  0  0  0
   37.2820   26.7980   42.6820 C   0  0  0  0  0  0  0  0  0  0  0  0
   37.0820   25.5080   42.2620 C   0  0  0  0  0  0  0  0  0  0  0  0
   36.9710   25.2240   40.9420 N   0  0  0  0  0  0  0  0  0  0  0  0
   37.0600   26.2290   40.0610 C   0  0  0  0  0  0  0  0  0  0  0  0
   37.2540   27.5010   40.4070 N   0  0  0  0  0  0  0  0  0  0  0  0
   37.3680   27.8020   41.7210 C   0  0  0  0  0  0  0  0  0  0  0  0
   36.9580   25.8660   38.6110 C   0  0  1  0  0  0  0  0  0  0  0  0
   35.5490   25.9340   37.9870 C   0  0  0  0  0  0  0  0  0  0  0  0
   36.6580   26.8530   37.5910 C   0  0  2  0  0  0  0  0  0  0  0  0
   37.2330   26.8420   36.2150 C   0  0  0  0  0  0  0  0  0  0  0  0
   36.2170   26.3910   35.1720 C   0  0  0  0  0  0  0  0  0  0  0  0
   38.4480   25.9500   36.1770 C   0  0  0  0  0  0  0  0  0  0  0  0
   37.6780   28.2220   35.7760 C   0  0  0  0  0  0  0  0  0  0  0  0
   39.9716   32.6712   40.9758 H   0  0  0  0  0  0  0  0  0  0  0  0
   39.8093   30.4938   42.2222 H   0  0  0  0  0  0  0  0  0  0  0  0
   35.9473   32.3352   39.7543 H   0  0  0  0  0  0  0  0  0  0  0  0
   37.7604   29.5134   44.3832 H   0  0  0  0  0  0  0  0  0  0  0  0
   37.0112   24.6977   43.0025 H   0  0  0  0  0  0  0  0  0  0  0  0
   37.7642   25.1253   38.7181 H   0  0  0  0  0  0  0  0  0  0  0  0
   35.2044   25.1470   37.3001 H   0  0  0  0  0  0  0  0  0  0  0  0
   34.5197   26.0447   38.3588 H   0  0  0  0  0  0  0  0  0  0  0  0
   36.7838   27.9451   37.5528 H   0  0  0  0  0  0  0  0  0  0  0  0
   35.3240   25.9946   35.6774 H   0  0  0  0  0  0  0  0  0  0  0  0
   35.9325   27.2474   34.5430 H   0  0  0  0  0  0  0  0  0  0  0  0
   36.6613   25.6056   34.5430 H   0  0  0  0  0  0  0  0  0  0  0  0
   38.7645   25.7176   37.2045 H   0  0  0  0  0  0  0  0  0  0  0  0
   38.2014   25.0168   35.6494 H   0  0  0  0  0  0  0  0  0  0  0  0
   39.2645   26.4648   35.6494 H   0  0  0  0  0  0  0  0  0  0  0  0
   37.8779   28.8420   36.6623 H   0  0  0  0  0  0  0  0  0  0  0  0
   38.5944   28.1373   35.1735 H   0  0  0  0  0  0  0  0  0  0  0  0
   36.8848   28.6886   35.1735 H   0  0  0  0  0  0  0  0  0  0  0  0
  1  2  2  0
  3  2  1  0
  3  7  1  0
  4  3  2  0
  5  4  1  0
  6  5  2  0
  6  1  1  0
  7  8  1  0
  8  9  2  0
 10  9  1  0
 11 10  2  0
 12 11  1  0
 13 14  1  0
 13 12  2  0
 14 15  2  0
 15  7  1  0
 15 10  1  0
 16 13  1  0
 17 16  1  0
 18 17  1  0
 18 16  1  0
 19 18  1  0
 20 19  1  0
 21 19  1  0
 22 19  1  0
  1 23  1  0
  2 24  1  0
  5 25  1  0
  8 26  1  0
 11 27  1  0
 16 28  1  6
 17 29  1  0
 17 30  1  0
 18 31  1  1
 20 32  1  0
 20 33  1  0
 20 34  1  0
 21 35  1  0
 21 36  1  0
 21 37  1  0
 22 38  1  0
 22 39  1  0
 22 40  1  0
M  ISO  8  23  14  24  14  25  14  26  14  27  14  28  13  29  13  30  13
M  ISO  8  31  13  32   8  33   8  34   8  35   8  36   8  37   8  38   8
M  ISO  2  39   8  40   8
M  END
>  <minimizedAffinity>  (1) 
-5.1446681

>  <minimizedRMSD>  (1) 
0.131504774

$$$$
