
     RDKit          3D

 35 39  0  0  1  0  0  0  0  0999 V2000
   39.0730   32.1710   40.8370 C   0  0  0  0  0  0  0  0  0  0  0  0
   39.0610   30.9430   41.5240 C   0  0  0  0  0  0  0  0  0  0  0  0
   37.8140   30.3000   41.6030 C   0  0  0  0  0  0  0  0  0  0  0  0
   36.7470   30.8690   41.0400 N   0  0  0  0  0  0  0  0  0  0  0  0
   36.8040   32.0420   40.3940 C   0  0  0  0  0  0  0  0  0  0  0  0
   37.9820   32.7120   40.2840 N   0  0  0  0  0  0  0  0  0  0  0  0
   37.7180   29.0480   42.2760 N   0  0  0  0  0  0  0  0  0  0  0  0
   37.8820   28.7740   43.5470 C   0  0  0  0  0  0  0  0  0  0  0  0
   37.7150   27.4380   43.7940 N   0  0  0  0  0  0  0  0  0  0  0  0
   37.4340   26.8510   42.6270 C   0  0  0  0  0  0  0  0  0  0  0  0
   37.1720   25.5700   42.2040 C   0  0  0  0  0  0  0  0  0  0  0  0
   36.9260   25.3180   40.9080 N   0  0  0  0  0  0  0  0  0  0  0  0
   36.9400   26.3380   40.0330 C   0  0  0  0  0  0  0  0  0  0  0  0
   37.1870   27.6010   40.3760 N   0  0  0  0  0  0  0  0  0  0  0  0
   37.4390   27.8750   41.6830 C   0  0  0  0  0  0  0  0  0  0  0  0
   36.6840   26.0050   38.5960 C   0  0  1  0  0  0  0  0  0  0  0  0
   35.5990   24.9570   38.3120 C   0  0  0  0  0  0  0  0  0  0  0  0
   35.4490   26.3830   37.9300 C   0  0  2  0  0  0  0  0  0  0  0  0
   35.6100   26.7970   36.5350 N   0  0  0  0  0  0  0  0  0  0  0  0
   36.1200   28.0060   36.1720 C   0  0  0  0  0  0  0  0  0  0  0  0
   36.1170   28.0320   34.7960 C   0  0  0  0  0  0  0  0  0  0  0  0
   35.6170   26.8680   34.3310 N   0  0  0  0  0  0  0  0  0  0  0  0
   35.3070   26.1090   35.3970 C   0  0  0  0  0  0  0  0  0  0  0  0
   40.0265   32.7126   40.7505 H   0  0  0  0  0  0  0  0  0  0  0  0
   39.9699   30.5137   41.9708 H   0  0  0  0  0  0  0  0  0  0  0  0
   35.8913   32.4656   39.9497 H   0  0  0  0  0  0  0  0  0  0  0  0
   38.1230   29.5219   44.3168 H   0  0  0  0  0  0  0  0  0  0  0  0
   37.1637   24.7454   42.9319 H   0  0  0  0  0  0  0  0  0  0  0  0
   37.7459   26.1584   38.3535 H   0  0  0  0  0  0  0  0  0  0  0  0
   35.7560   24.1878   37.5415 H   0  0  0  0  0  0  0  0  0  0  0  0
   35.0239   24.2313   38.9058 H   0  0  0  0  0  0  0  0  0  0  0  0
   34.6363   27.1017   38.1116 H   0  0  0  0  0  0  0  0  0  0  0  0
   36.4660   28.8041   36.8453 H   0  0  0  0  0  0  0  0  0  0  0  0
   36.4668   28.8690   34.1738 H   0  0  0  0  0  0  0  0  0  0  0  0
   34.8783   25.0968   35.3575 H   0  0  0  0  0  0  0  0  0  0  0  0
  1  2  2  0
  2  3  1  0
  3  7  1  0
  4  3  2  0
  5  4  1  0
  6  5  2  0
  6  1  1  0
  7  8  1  0
  8  9  2  0
 10  9  1  0
 11 10  2  0
 12 11  1  0
 13 14  1  0
 13 12  2  0
 14 15  2  0
 15  7  1  0
 15 10  1  0
 16 13  1  0
 17 16  1  0
 18 17  1  0
 18 16  1  0
 19 18  1  0
 20 19  1  0
 21 20  2  0
 22 21  1  0
 22 23  2  0
 23 19  1  0
  1 24  1  0
  2 25  1  0
  5 26  1  0
  8 27  1  0
 11 28  1  0
 16 29  1  6
 17 30  1  0
 17 31  1  0
 18 32  1  1
 20 33  1  0
 21 34  1  0
 23 35  1  0
M  ISO  8  24  14  25  14  26  14  27  14  28  14  29  13  30  13  31  13
M  ISO  4  32  13  33  14  34  14  35  14
M  END
>  <minimizedAffinity>  (1) 
-4.98589039

>  <minimizedRMSD>  (1) 
1.14162207

$$$$
