
     RDKit          3D

 31 34  0  0  1  0  0  0  0  0999 V2000
   39.2930   32.2890   40.8970 C   0  0  0  0  0  0  0  0  0  0  0  0
   39.1900   31.0580   41.5700 C   0  0  0  0  0  0  0  0  0  0  0  0
   37.9550   30.4350   41.5780 C   0  0  0  0  0  0  0  0  0  0  0  0
   36.9630   31.0560   40.9430 N   0  0  0  0  0  0  0  0  0  0  0  0
   37.0550   32.2200   40.3040 C   0  0  0  0  0  0  0  0  0  0  0  0
   38.2540   32.8600   40.2770 N   0  0  0  0  0  0  0  0  0  0  0  0
   37.7720   29.1980   42.2300 N   0  0  0  0  0  0  0  0  0  0  0  0
   37.8500   28.9250   43.5180 C   0  0  0  0  0  0  0  0  0  0  0  0
   37.6130   27.6020   43.7600 N   0  0  0  0  0  0  0  0  0  0  0  0
   37.3760   27.0140   42.5670 C   0  0  0  0  0  0  0  0  0  0  0  0
   37.0820   25.7460   42.1250 C   0  0  0  0  0  0  0  0  0  0  0  0
   36.9020   25.5090   40.8140 N   0  0  0  0  0  0  0  0  0  0  0  0
   37.0140   26.5240   39.9470 C   0  0  0  0  0  0  0  0  0  0  0  0
   37.2940   27.7580   40.3250 N   0  0  0  0  0  0  0  0  0  0  0  0
   37.4830   28.0390   41.6300 C   0  0  0  0  0  0  0  0  0  0  0  0
   36.8220   26.2150   38.5090 C   0  0  1  0  0  0  0  0  0  0  0  0
   35.4250   25.7700   38.0510 C   0  0  0  0  0  0  0  0  0  0  0  0
   36.0610   27.0450   37.5970 C   0  0  1  0  0  0  0  0  0  0  0  0
   35.3110   28.2440   38.0310 C   0  0  0  0  0  0  0  0  0  0  0  0
   34.0770   28.4110   38.2030 O   0  0  0  0  0  0  0  0  0  0  0  0
   35.9160   29.4560   38.3370 O   0  0  0  0  0  0  0  0  0  0  0  0
   40.2658   32.8022   40.8798 H   0  0  0  0  0  0  0  0  0  0  0  0
   40.0593   30.6075   42.0713 H   0  0  0  0  0  0  0  0  0  0  0  0
   36.1763   32.6564   39.8065 H   0  0  0  0  0  0  0  0  0  0  0  0
   38.0768   29.6676   44.2972 H   0  0  0  0  0  0  0  0  0  0  0  0
   36.9936   24.9213   42.8475 H   0  0  0  0  0  0  0  0  0  0  0  0
   37.8510   25.8276   38.4760 H   0  0  0  0  0  0  0  0  0  0  0  0
   35.3086   24.9260   37.3552 H   0  0  0  0  0  0  0  0  0  0  0  0
   34.4827   25.4824   38.5402 H   0  0  0  0  0  0  0  0  0  0  0  0
   36.3739   27.5177   36.6543 H   0  0  0  0  0  0  0  0  0  0  0  0
   35.3640   30.2266   38.6227 H   0  0  0  0  0  0  0  0  0  0  0  0
  1  2  2  0
  2  3  1  0
  3  7  1  0
  4  3  2  0
  5  4  1  0
  6  5  2  0
  6  1  1  0
  7  8  1  0
  8  9  2  0
 10  9  1  0
 11 10  2  0
 12 11  1  0
 13 14  1  0
 13 12  2  0
 14 15  2  0
 15  7  1  0
 15 10  1  0
 16 13  1  0
 17 16  1  0
 18 19  1  0
 18 17  1  0
 18 16  1  0
 19 20  2  0
 19 21  1  0
  1 22  1  0
  2 23  1  0
  5 24  1  0
  8 25  1  0
 11 26  1  0
 16 27  1  6
 17 28  1  0
 17 29  1  0
 18 30  1  6
 21 31  1  0
M  ISO  8  22  14  23  14  24  14  25  14  26  14  27  13  28  13  29  13
M  ISO  2  30  13  31   3
M  END
>  <minimizedAffinity>  (1) 
-4.94837379

>  <minimizedRMSD>  (1) 
0.574043632

$$$$
