
     RDKit          3D

 29 32  0  0  1  0  0  0  0  0999 V2000
   39.0180   32.1060   40.9590 C   0  0  0  0  0  0  0  0  0  0  0  0
   38.9430   30.8910   41.6750 C   0  0  0  0  0  0  0  0  0  0  0  0
   37.7090   30.2280   41.6420 C   0  0  0  0  0  0  0  0  0  0  0  0
   36.6950   30.7600   40.9560 N   0  0  0  0  0  0  0  0  0  0  0  0
   36.8140   31.9230   40.2870 C   0  0  0  0  0  0  0  0  0  0  0  0
   37.9780   32.6090   40.2830 N   0  0  0  0  0  0  0  0  0  0  0  0
   37.5620   28.9900   42.3370 N   0  0  0  0  0  0  0  0  0  0  0  0
   37.5990   28.7550   43.6250 C   0  0  0  0  0  0  0  0  0  0  0  0
   37.4280   27.4170   43.8790 N   0  0  0  0  0  0  0  0  0  0  0  0
   37.2800   26.7980   42.7040 C   0  0  0  0  0  0  0  0  0  0  0  0
   37.0840   25.4970   42.2830 C   0  0  0  0  0  0  0  0  0  0  0  0
   36.9800   25.2170   40.9810 N   0  0  0  0  0  0  0  0  0  0  0  0
   37.0680   26.2190   40.0840 C   0  0  0  0  0  0  0  0  0  0  0  0
   37.2570   27.4950   40.4190 N   0  0  0  0  0  0  0  0  0  0  0  0
   37.3670   27.8000   41.7390 C   0  0  0  0  0  0  0  0  0  0  0  0
   36.9660   25.8490   38.6430 C   0  0  1  0  0  0  0  0  0  0  0  0
   35.5560   25.8920   38.0220 C   0  0  0  0  0  0  0  0  0  0  0  0
   36.6540   26.8170   37.6100 C   0  0  2  0  0  0  0  0  0  0  0  0
   37.3320   26.6740   35.9480 S   0  0  0  0  0  0  0  0  0  0  0  0
   39.9680   32.6605   40.9568 H   0  0  0  0  0  0  0  0  0  0  0  0
   39.8046   30.4879   42.2274 H   0  0  0  0  0  0  0  0  0  0  0  0
   35.9496   32.3207   39.7350 H   0  0  0  0  0  0  0  0  0  0  0  0
   37.7468   29.5243   44.3972 H   0  0  0  0  0  0  0  0  0  0  0  0
   37.0132   24.6871   43.0240 H   0  0  0  0  0  0  0  0  0  0  0  0
   37.7836   25.1222   38.7579 H   0  0  0  0  0  0  0  0  0  0  0  0
   35.2186   25.0911   37.3477 H   0  0  0  0  0  0  0  0  0  0  0  0
   34.5263   25.9968   38.3945 H   0  0  0  0  0  0  0  0  0  0  0  0
   36.7686   27.9098   37.5577 H   0  0  0  0  0  0  0  0  0  0  0  0
   38.6705   26.3917   36.0235 H   0  0  0  0  0  0  0  0  0  0  0  0
  1  2  2  0
  3  2  1  0
  3  7  1  0
  4  3  2  0
  5  4  1  0
  6  5  2  0
  6  1  1  0
  7  8  1  0
  8  9  2  0
 10  9  1  0
 11 10  2  0
 12 11  1  0
 13 14  1  0
 13 12  2  0
 14 15  2  0
 15  7  1  0
 15 10  1  0
 16 13  1  0
 17 16  1  0
 18 17  1  0
 18 16  1  0
 19 18  1  0
  1 20  1  0
  2 21  1  0
  5 22  1  0
  8 23  1  0
 11 24  1  0
 16 25  1  6
 17 26  1  0
 17 27  1  0
 18 28  1  1
 19 29  1  0
M  ISO  8  20  14  21  14  22  14  23  14  24  14  25  13  26  13  27  13
M  ISO  2  28  13  29  11
M  END
>  <minimizedAffinity>  (1) 
-4.79961777

>  <minimizedRMSD>  (1) 
0.0180390235

$$$$
