
     RDKit          3D

 30 33  0  0  1  0  0  0  0  0999 V2000
   39.0420   32.1100   40.9700 C   0  0  0  0  0  0  0  0  0  0  0  0
   38.9550   30.8890   41.6620 C   0  0  0  0  0  0  0  0  0  0  0  0
   37.7130   30.2290   41.6330 C   0  0  0  0  0  0  0  0  0  0  0  0
   36.6920   30.7780   40.9650 N   0  0  0  0  0  0  0  0  0  0  0  0
   36.8290   31.9560   40.3170 C   0  0  0  0  0  0  0  0  0  0  0  0
   37.9990   32.6310   40.3130 N   0  0  0  0  0  0  0  0  0  0  0  0
   37.5610   28.9870   42.3080 N   0  0  0  0  0  0  0  0  0  0  0  0
   37.6030   28.7370   43.5950 C   0  0  0  0  0  0  0  0  0  0  0  0
   37.4240   27.3970   43.8290 N   0  0  0  0  0  0  0  0  0  0  0  0
   37.2650   26.7880   42.6400 C   0  0  0  0  0  0  0  0  0  0  0  0
   37.0590   25.5070   42.2220 C   0  0  0  0  0  0  0  0  0  0  0  0
   36.9430   25.2380   40.9050 N   0  0  0  0  0  0  0  0  0  0  0  0
   37.0340   26.2480   40.0230 C   0  0  0  0  0  0  0  0  0  0  0  0
   37.2340   27.5170   40.3780 N   0  0  0  0  0  0  0  0  0  0  0  0
   37.3550   27.8130   41.7080 C   0  0  0  0  0  0  0  0  0  0  0  0
   36.9180   25.9020   38.5760 C   0  0  1  0  0  0  0  0  0  0  0  0
   35.5400   26.0970   37.9190 C   0  0  0  0  0  0  0  0  0  0  0  0
   36.7270   26.9080   37.5510 C   0  0  2  0  0  0  0  0  0  0  0  0
   37.3470   26.7960   36.2640 N   0  0  0  0  0  0  0  0  0  0  0  0
   39.9979   32.6543   40.9687 H   0  0  0  0  0  0  0  0  0  0  0  0
   39.8175   30.4696   42.2007 H   0  0  0  0  0  0  0  0  0  0  0  0
   35.9660   32.3757   39.7793 H   0  0  0  0  0  0  0  0  0  0  0  0
   37.7597   29.4950   44.3766 H   0  0  0  0  0  0  0  0  0  0  0  0
   36.9874   24.6928   42.9582 H   0  0  0  0  0  0  0  0  0  0  0  0
   37.6497   25.0906   38.7029 H   0  0  0  0  0  0  0  0  0  0  0  0
   35.1424   25.3433   37.2234 H   0  0  0  0  0  0  0  0  0  0  0  0
   34.5165   26.3006   38.2669 H   0  0  0  0  0  0  0  0  0  0  0  0
   36.9201   27.9899   37.5040 H   0  0  0  0  0  0  0  0  0  0  0  0
   38.3539   26.6141   36.3826 H   0  0  0  0  0  0  0  0  0  0  0  0
   36.9169   26.0191   35.7421 H   0  0  0  0  0  0  0  0  0  0  0  0
  1  2  2  0
  3  2  1  0
  3  7  1  0
  4  3  2  0
  5  4  1  0
  6  5  2  0
  6  1  1  0
  7  8  1  0
  8  9  2  0
 10  9  1  0
 11 10  2  0
 12 11  1  0
 13 14  1  0
 13 12  2  0
 14 15  2  0
 15  7  1  0
 15 10  1  0
 16 13  1  0
 17 16  1  0
 18 17  1  0
 18 16  1  0
 19 18  1  0
  1 20  1  0
  2 21  1  0
  5 22  1  0
  8 23  1  0
 11 24  1  0
 16 25  1  6
 17 26  1  0
 17 27  1  0
 18 28  1  1
 19 29  1  0
 19 30  1  0
M  ISO  8  20  14  21  14  22  14  23  14  24  14  25  13  26  13  27  13
M  ISO  3  28  13  29   5  30   5
M  END
>  <minimizedAffinity>  (1) 
-4.78029346

>  <minimizedRMSD>  (1) 
0.0737636462

$$$$
