
     RDKit          3D

 31 34  0  0  0  0  0  0  0  0999 V2000
   37.4900   30.2230   41.1210 N   0  0  0  0  0  0  0  0  0  0  0  0
   37.3730   29.6600   42.3230 N   0  0  0  0  0  0  0  0  0  0  0  0
   36.9170   28.4080   42.2100 C   0  0  0  0  0  0  0  0  0  0  0  0
   36.7450   28.1910   40.8670 C   0  0  0  0  0  0  0  0  0  0  0  0
   37.1100   29.3480   40.1840 C   0  0  0  0  0  0  0  0  0  0  0  0
   37.0180   29.3940   38.7470 C   0  0  0  0  0  0  0  0  0  0  0  0
   38.1380   29.5780   37.9940 C   0  0  0  0  0  0  0  0  0  0  0  0
   37.8380   29.5770   36.6620 N   0  0  0  0  0  0  0  0  0  0  0  0
   36.4930   29.3900   36.5270 C   0  0  0  0  0  0  0  0  0  0  0  0
   35.6190   29.2970   35.4530 C   0  0  0  0  0  0  0  0  0  0  0  0
   34.2810   29.0980   35.6660 C   0  0  0  0  0  0  0  0  0  0  0  0
   33.7850   28.9860   36.9480 C   0  0  0  0  0  0  0  0  0  0  0  0
   34.6960   29.0860   37.9700 C   0  0  0  0  0  0  0  0  0  0  0  0
   36.0420   29.2840   37.8160 C   0  0  0  0  0  0  0  0  0  0  0  0
   37.9680   31.5320   40.7570 C   0  0  0  0  0  0  0  0  0  0  0  0
   39.3060   31.9840   40.9950 C   0  0  0  0  0  0  0  0  0  0  0  0
   39.5960   33.2800   40.5470 C   0  0  0  0  0  0  0  0  0  0  0  0
   38.6200   34.0020   39.9350 N   0  0  0  0  0  0  0  0  0  0  0  0
   37.3800   33.5220   39.7400 C   0  0  0  0  0  0  0  0  0  0  0  0
   37.0370   32.2900   40.1450 N   0  0  0  0  0  0  0  0  0  0  0  0
   36.7203   27.6979   43.0268 H   0  0  0  0  0  0  0  0  0  0  0  0
   36.3805   27.2606   40.4072 H   0  0  0  0  0  0  0  0  0  0  0  0
   39.1500   29.7099   38.4045 H   0  0  0  0  0  0  0  0  0  0  0  0
   38.5111   29.6968   35.8916 H   0  0  0  0  0  0  0  0  0  0  0  0
   36.0029   29.3835   34.4258 H   0  0  0  0  0  0  0  0  0  0  0  0
   33.5965   29.0269   34.8079 H   0  0  0  0  0  0  0  0  0  0  0  0
   32.7142   28.8248   37.1416 H   0  0  0  0  0  0  0  0  0  0  0  0
   34.3130   28.9999   38.9976 H   0  0  0  0  0  0  0  0  0  0  0  0
   40.0566   31.3554   41.4964 H   0  0  0  0  0  0  0  0  0  0  0  0
   40.5997   33.7072   40.6886 H   0  0  0  0  0  0  0  0  0  0  0  0
   36.6310   34.1522   39.2381 H   0  0  0  0  0  0  0  0  0  0  0  0
  1  2  1  0
  3  2  2  0
  4  3  1  0
  5  4  2  0
  5  1  1  0
  6  5  1  0
  7  6  2  0
  8  7  1  0
  9  8  1  0
  9 14  2  0
 10 11  2  0
 10  9  1  0
 11 12  1  0
 12 13  2  0
 14 13  1  0
 14  6  1  0
 15 16  2  0
 15  1  1  0
 17 16  1  0
 18 17  2  0
 19 18  1  0
 19 20  2  0
 20 15  1  0
  3 21  1  0
  4 22  1  0
  7 23  1  0
  8 24  1  0
 10 25  1  0
 11 26  1  0
 12 27  1  0
 13 28  1  0
 16 29  1  0
 17 30  1  0
 19 31  1  0
M  ISO  8  21  14  22  14  23  14  24   9  25  14  26  14  27  14  28  14
M  ISO  3  29  14  30  14  31  14
M  END
>  <minimizedAffinity>  (1) 
-5.24026203

>  <minimizedRMSD>  (1) 
2.91155386

$$$$
