
     RDKit          3D

 26 28  0  0  0  0  0  0  0  0999 V2000
   37.6170   29.5090   41.9390 N   0  0  0  0  0  0  0  0  0  0  0  0
   38.0050   29.3070   43.1860 N   0  0  0  0  0  0  0  0  0  0  0  0
   37.3830   28.2480   43.7200 C   0  0  0  0  0  0  0  0  0  0  0  0
   36.5480   27.7510   42.7480 C   0  0  0  0  0  0  0  0  0  0  0  0
   36.7090   28.5650   41.6220 C   0  0  0  0  0  0  0  0  0  0  0  0
   37.9830   30.4870   40.9680 C   0  0  0  0  0  0  0  0  0  0  0  0
   39.0840   30.3490   40.0750 C   0  0  0  0  0  0  0  0  0  0  0  0
   39.3110   31.4040   39.1760 C   0  0  0  0  0  0  0  0  0  0  0  0
   38.4680   32.4770   39.2170 N   0  0  0  0  0  0  0  0  0  0  0  0
   37.4480   32.5550   40.0790 C   0  0  0  0  0  0  0  0  0  0  0  0
   37.2060   31.5690   40.9470 N   0  0  0  0  0  0  0  0  0  0  0  0
   35.9950   28.3850   40.3380 C   0  0  0  0  0  0  0  0  0  0  0  0
   34.8520   29.1180   40.0990 C   0  0  0  0  0  0  0  0  0  0  0  0
   34.1910   28.9470   38.9020 C   0  0  0  0  0  0  0  0  0  0  0  0
   34.6860   28.0470   37.9690 C   0  0  0  0  0  0  0  0  0  0  0  0
   35.8470   27.3250   38.2520 C   0  0  0  0  0  0  0  0  0  0  0  0
   36.4590   27.5240   39.4320 N   0  0  0  0  0  0  0  0  0  0  0  0
   37.5147   27.8529   44.7381 H   0  0  0  0  0  0  0  0  0  0  0  0
   35.8814   26.8806   42.8382 H   0  0  0  0  0  0  0  0  0  0  0  0
   39.7272   29.4568   40.0888 H   0  0  0  0  0  0  0  0  0  0  0  0
   40.1445   31.3667   38.4591 H   0  0  0  0  0  0  0  0  0  0  0  0
   36.7995   33.4435   40.0729 H   0  0  0  0  0  0  0  0  0  0  0  0
   34.4743   29.8269   40.8506 H   0  0  0  0  0  0  0  0  0  0  0  0
   33.2770   29.5202   38.6875 H   0  0  0  0  0  0  0  0  0  0  0  0
   34.1659   27.9030   37.0105 H   0  0  0  0  0  0  0  0  0  0  0  0
   36.2528   26.6075   37.5237 H   0  0  0  0  0  0  0  0  0  0  0  0
  1  2  1  0
  2  3  2  0
  4  3  1  0
  5  1  1  0
  5  4  2  0
  6  1  1  0
  7  6  2  0
  8  9  2  0
  8  7  1  0
  9 10  1  0
 10 11  2  0
 11  6  1  0
 12  5  1  0
 13 12  2  0
 14 13  1  0
 15 16  1  0
 15 14  2  0
 16 17  2  0
 17 12  1  0
  3 18  1  0
  4 19  1  0
  7 20  1  0
  8 21  1  0
 10 22  1  0
 13 23  1  0
 14 24  1  0
 15 25  1  0
 16 26  1  0
M  ISO  8  18  14  19  14  20  14  21  14  22  14  23  14  24  14  25  14
M  ISO  1  26  14
M  END
>  <minimizedAffinity>  (1) 
-4.74580765

>  <minimizedRMSD>  (1) 
4.55897236

$$$$
