
     RDKit          3D

 31 33  0  0  1  0  0  0  0  0999 V2000
   36.9280   30.4310   40.2020 N   0  0  0  0  0  0  0  0  0  0  0  0
   35.7900   30.2370   39.5840 N   0  0  0  0  0  0  0  0  0  0  0  0
   35.1210   29.1980   40.1040 C   0  0  0  0  0  0  0  0  0  0  0  0
   35.9010   28.6880   41.1400 C   0  0  0  0  0  0  0  0  0  0  0  0
   37.0410   29.4910   41.1770 C   0  0  0  0  0  0  0  0  0  0  0  0
   37.9840   31.3790   40.0420 C   0  0  0  0  0  0  0  0  0  0  0  0
   38.0820   32.6130   40.7010 C   0  0  0  0  0  0  0  0  0  0  0  0
   39.1800   33.4140   40.4260 C   0  0  0  0  0  0  0  0  0  0  0  0
   40.1140   32.9540   39.5210 N   0  0  0  0  0  0  0  0  0  0  0  0
   39.9860   31.7730   38.9130 C   0  0  0  0  0  0  0  0  0  0  0  0
   38.9270   30.9770   39.1640 N   0  0  0  0  0  0  0  0  0  0  0  0
   38.1230   29.2310   42.1870 C   0  0  1  0  0  0  0  0  0  0  0  0
   37.5790   28.7860   43.5000 C   0  0  0  0  0  0  0  0  0  0  0  0
   38.1090   27.5130   44.0570 C   0  0  0  0  0  0  0  0  0  0  0  0
   39.4520   27.0820   43.6220 C   0  0  0  0  0  0  0  0  0  0  0  0
   40.1000   27.8940   42.5420 C   0  0  0  0  0  0  0  0  0  0  0  0
   39.0470   28.2350   41.5340 C   0  0  0  0  0  0  0  0  0  0  0  0
   34.1418   28.8198   39.7751 H   0  0  0  0  0  0  0  0  0  0  0  0
   35.6671   27.8328   41.7911 H   0  0  0  0  0  0  0  0  0  0  0  0
   37.3103   32.9361   41.4152 H   0  0  0  0  0  0  0  0  0  0  0  0
   39.3030   34.3908   40.9167 H   0  0  0  0  0  0  0  0  0  0  0  0
   40.7545   31.4446   38.1977 H   0  0  0  0  0  0  0  0  0  0  0  0
   38.6732   30.1472   42.4475 H   0  0  0  0  0  0  0  0  0  0  0  0
   37.7883   29.5803   44.2317 H   0  0  0  0  0  0  0  0  0  0  0  0
   36.5120   28.5931   43.3151 H   0  0  0  0  0  0  0  0  0  0  0  0
   37.5210   26.9139   44.7679 H   0  0  0  0  0  0  0  0  0  0  0  0
   39.9517   26.2093   44.0678 H   0  0  0  0  0  0  0  0  0  0  0  0
   40.5224   28.8157   42.9687 H   0  0  0  0  0  0  0  0  0  0  0  0
   40.9152   27.3260   42.0700 H   0  0  0  0  0  0  0  0  0  0  0  0
   38.4887   27.3310   41.2494 H   0  0  0  0  0  0  0  0  0  0  0  0
   39.4961   28.6537   40.6213 H   0  0  0  0  0  0  0  0  0  0  0  0
  1  5  1  0
  2  3  2  0
  2  1  1  0
  3  4  1  0
  4  5  2  0
  6  1  1  0
  6  7  2  0
  8  7  1  0
  9  8  2  0
 10 11  2  0
 10  9  1  0
 11  6  1  0
 12  5  1  0
 12 13  1  0
 13 14  1  0
 15 14  2  0
 16 15  1  0
 17 12  1  0
 17 16  1  0
  3 18  1  0
  4 19  1  0
  7 20  1  0
  8 21  1  0
 10 22  1  0
 12 23  1  1
 13 24  1  0
 13 25  1  0
 14 26  1  0
 15 27  1  0
 16 28  1  0
 16 29  1  0
 17 30  1  0
 17 31  1  0
M  ISO  8  18  14  19  14  20  14  21  14  22  14  23  13  24  13  25  13
M  ISO  6  26  13  27  13  28  13  29  13  30  13  31  13
M  END
>  <minimizedAffinity>  (1) 
-4.66075182

>  <minimizedRMSD>  (1) 
5.27602768

$$$$
