
     RDKit          3D

 25 27  0  0  0  0  0  0  0  0999 V2000
   37.6640   29.4820   41.9610 N   0  0  0  0  0  0  0  0  0  0  0  0
   38.0340   29.2920   43.2080 N   0  0  0  0  0  0  0  0  0  0  0  0
   37.3870   28.2580   43.7530 C   0  0  0  0  0  0  0  0  0  0  0  0
   36.5500   27.7530   42.7930 C   0  0  0  0  0  0  0  0  0  0  0  0
   36.7270   28.5360   41.6470 C   0  0  0  0  0  0  0  0  0  0  0  0
   38.0410   30.4440   40.9640 C   0  0  0  0  0  0  0  0  0  0  0  0
   39.1000   30.3010   40.0660 C   0  0  0  0  0  0  0  0  0  0  0  0
   39.3020   31.3440   39.1630 C   0  0  0  0  0  0  0  0  0  0  0  0
   38.4750   32.4220   39.2050 N   0  0  0  0  0  0  0  0  0  0  0  0
   37.4540   32.5320   40.0910 C   0  0  0  0  0  0  0  0  0  0  0  0
   37.2420   31.5330   40.9730 N   0  0  0  0  0  0  0  0  0  0  0  0
   36.0290   28.3570   40.3690 C   0  0  0  0  0  0  0  0  0  0  0  0
   34.8950   29.1030   40.1240 C   0  0  0  0  0  0  0  0  0  0  0  0
   34.2860   28.8870   38.9040 C   0  0  0  0  0  0  0  0  0  0  0  0
   34.7140   28.0160   37.9510 N   0  0  0  0  0  0  0  0  0  0  0  0
   35.8400   27.3160   38.2660 C   0  0  0  0  0  0  0  0  0  0  0  0
   36.4790   27.4830   39.4410 N   0  0  0  0  0  0  0  0  0  0  0  0
   37.5043   27.8824   44.7802 H   0  0  0  0  0  0  0  0  0  0  0  0
   35.8691   26.8960   42.9023 H   0  0  0  0  0  0  0  0  0  0  0  0
   39.7437   29.4090   40.0705 H   0  0  0  0  0  0  0  0  0  0  0  0
   40.1185   31.2952   38.4275 H   0  0  0  0  0  0  0  0  0  0  0  0
   36.8082   33.4225   40.0906 H   0  0  0  0  0  0  0  0  0  0  0  0
   34.5007   29.8246   40.8547 H   0  0  0  0  0  0  0  0  0  0  0  0
   33.3783   29.4682   38.6842 H   0  0  0  0  0  0  0  0  0  0  0  0
   36.2394   26.5930   37.5396 H   0  0  0  0  0  0  0  0  0  0  0  0
  1  2  1  0
  2  3  2  0
  4  3  1  0
  5  1  1  0
  5  4  2  0
  6 11  1  0
  6  1  1  0
  7  6  2  0
  8  9  2  0
  8  7  1  0
  9 10  1  0
 10 11  2  0
 12  5  1  0
 13 12  2  0
 14 13  1  0
 15 16  1  0
 15 14  2  0
 16 17  2  0
 17 12  1  0
  3 18  1  0
  4 19  1  0
  7 20  1  0
  8 21  1  0
 10 22  1  0
 13 23  1  0
 14 24  1  0
 16 25  1  0
M  ISO  8  18  14  19  14  20  14  21  14  22  14  23  14  24  14  25  14
M  END
>  <minimizedAffinity>  (1) 
-4.50542641

>  <minimizedRMSD>  (1) 
4.4866538

$$$$
