
     RDKit          3D

 29 31  0  0  0  0  0  0  0  0999 V2000
   39.4550   31.6340   41.5190 N   0  0  0  0  0  0  0  0  0  0  0  0
   39.6320   31.1620   42.7350 N   0  0  0  0  0  0  0  0  0  0  0  0
   39.1570   29.9100   42.8340 C   0  0  0  0  0  0  0  0  0  0  0  0
   38.6510   29.5740   41.6030 C   0  0  0  0  0  0  0  0  0  0  0  0
   38.8470   30.6800   40.7730 C   0  0  0  0  0  0  0  0  0  0  0  0
   39.7700   32.8930   40.9080 C   0  0  0  0  0  0  0  0  0  0  0  0
   41.0350   33.2620   40.4230 C   0  0  0  0  0  0  0  0  0  0  0  0
   41.1480   34.5380   39.8570 C   0  0  0  0  0  0  0  0  0  0  0  0
   40.0440   35.3340   39.8120 N   0  0  0  0  0  0  0  0  0  0  0  0
   38.8540   34.9480   40.2860 C   0  0  0  0  0  0  0  0  0  0  0  0
   38.7090   33.7220   40.8380 N   0  0  0  0  0  0  0  0  0  0  0  0
   38.4090   30.6040   39.4230 N   0  0  0  0  0  0  0  0  0  0  0  0
   39.3550   30.7300   38.3300 C   0  0  0  0  0  0  0  0  0  0  0  0
   38.6340   31.5680   37.2800 C   0  0  0  0  0  0  0  0  0  0  0  0
   37.5820   30.7300   36.7840 N   0  0  0  0  0  0  0  0  0  0  0  0
   36.6160   30.3410   37.7540 C   0  0  0  0  0  0  0  0  0  0  0  0
   37.0150   30.4000   39.1760 C   0  0  0  0  0  0  0  0  0  0  0  0
   39.1707   29.2741   43.7315 H   0  0  0  0  0  0  0  0  0  0  0  0
   38.1820   28.6188   41.3243 H   0  0  0  0  0  0  0  0  0  0  0  0
   41.8966   32.5810   40.4847 H   0  0  0  0  0  0  0  0  0  0  0  0
   42.1100   34.8905   39.4565 H   0  0  0  0  0  0  0  0  0  0  0  0
   37.9921   35.6289   40.2266 H   0  0  0  0  0  0  0  0  0  0  0  0
   40.2708   31.2373   38.6676 H   0  0  0  0  0  0  0  0  0  0  0  0
   39.6648   29.7507   37.9362 H   0  0  0  0  0  0  0  0  0  0  0  0
   38.2186   32.4800   37.7336 H   0  0  0  0  0  0  0  0  0  0  0  0
   39.3127   31.8923   36.4774 H   0  0  0  0  0  0  0  0  0  0  0  0
   37.5292   30.4318   35.7995 H   0  0  0  0  0  0  0  0  0  0  0  0
   35.6103   30.0089   37.4567 H   0  0  0  0  0  0  0  0  0  0  0  0
   36.2859   30.2937   39.9928 H   0  0  0  0  0  0  0  0  0  0  0  0
  1  2  1  0
  2  3  2  0
  4  3  1  0
  5  1  1  0
  5  4  2  0
  6  1  1  0
  7  6  2  0
  8  7  1  0
  9  8  2  0
  9 10  1  0
 10 11  2  0
 11  6  1  0
 12  5  1  0
 13 12  1  0
 14 13  1  0
 15 14  1  0
 15 16  1  0
 16 17  2  0
 17 12  1  0
  3 18  1  0
  4 19  1  0
  7 20  1  0
  8 21  1  0
 10 22  1  0
 13 23  1  0
 13 24  1  0
 14 25  1  0
 14 26  1  0
 15 27  1  0
 16 28  1  0
 17 29  1  0
M  ISO  8  18  14  19  14  20  14  21  14  22  14  23  13  24  13  25  13
M  ISO  3  26  13  28  13  29  13
M  END
>  <minimizedAffinity>  (1) 
-4.23722982

>  <minimizedRMSD>  (1) 
2.47588086

$$$$
