
     RDKit          3D

 18 19  0  0  0  0  0  0  0  0999 V2000
   38.8920   33.4590   40.2030 C   0  0  0  0  0  0  0  0  0  0  0  0
   40.2700   33.3250   40.4350 C   0  0  0  0  0  0  0  0  0  0  0  0
   41.0260   34.4990   40.4930 C   0  0  0  0  0  0  0  0  0  0  0  0
   40.3910   35.6880   40.3240 N   0  0  0  0  0  0  0  0  0  0  0  0
   39.0600   35.7860   40.1020 C   0  0  0  0  0  0  0  0  0  0  0  0
   38.3220   34.6620   40.0450 N   0  0  0  0  0  0  0  0  0  0  0  0
   37.9600   32.3800   40.1120 N   0  0  0  0  0  0  0  0  0  0  0  0
   37.4160   31.5710   40.9840 N   0  0  0  0  0  0  0  0  0  0  0  0
   36.5780   30.7030   40.3830 C   0  0  0  0  0  0  0  0  0  0  0  0
   36.5900   30.9790   39.0380 C   0  0  0  0  0  0  0  0  0  0  0  0
   37.4700   32.0450   38.8800 C   0  0  0  0  0  0  0  0  0  0  0  0
   37.7550   32.6220   37.6290 O   0  0  0  0  0  0  0  0  0  0  0  0
   40.7354   32.3369   40.5657 H   0  0  0  0  0  0  0  0  0  0  0  0
   42.1108   34.4611   40.6715 H   0  0  0  0  0  0  0  0  0  0  0  0
   38.5876   36.7706   39.9699 H   0  0  0  0  0  0  0  0  0  0  0  0
   35.9911   29.9164   40.8798 H   0  0  0  0  0  0  0  0  0  0  0  0
   36.0218   30.4642   38.2492 H   0  0  0  0  0  0  0  0  0  0  0  0
   38.3888   33.3799   37.5663 H   0  0  0  0  0  0  0  0  0  0  0  0
  1  2  2  0
  2  3  1  0
  4  3  2  0
  5  4  1  0
  6  5  2  0
  6  1  1  0
  7  1  1  0
  7  8  1  0
  9  8  2  0
 10  9  1  0
 11 10  2  0
 11  7  1  0
 12 11  1  0
  2 13  1  0
  3 14  1  0
  5 15  1  0
  9 16  1  0
 10 17  1  0
 12 18  1  0
M  ISO  6  13  14  14  14  15  14  16  14  17  14  18   3
M  END
>  <minimizedAffinity>  (1) 
-3.84243202

>  <minimizedRMSD>  (1) 
0.624537826

$$$$
