
     RDKit          3D

 34 36  0  0  1  0  0  0  0  0999 V2000
   36.5030   27.0760   39.8280 C   0  0  0  0  0  0  0  0  0  0  0  0
   36.0220   26.5280   38.6410 C   0  0  0  0  0  0  0  0  0  0  0  0
   36.1820   25.1740   38.8230 C   0  0  0  0  0  0  0  0  0  0  0  0
   36.7200   24.9020   40.0290 N   0  0  0  0  0  0  0  0  0  0  0  0
   36.9110   26.0770   40.6300 N   0  0  0  0  0  0  0  0  0  0  0  0
   36.5960   29.0530   41.3820 C   0  0  0  0  0  0  0  0  0  0  0  0
   36.5390   28.5000   40.1200 C   0  0  0  0  0  0  0  0  0  0  0  0
   36.5220   29.3810   39.0340 C   0  0  0  0  0  0  0  0  0  0  0  0
   36.5620   30.7330   39.2460 N   0  0  0  0  0  0  0  0  0  0  0  0
   36.6210   31.1950   40.5490 C   0  0  0  0  0  0  0  0  0  0  0  0
   36.6370   30.3570   41.6140 N   0  0  0  0  0  0  0  0  0  0  0  0
   36.9590   23.5750   40.4800 C   0  0  2  0  0  0  0  0  0  0  0  0
   37.6630   23.5360   41.7240 N   0  0  0  0  0  0  0  0  0  0  0  0
   38.9710   24.0460   41.9070 C   0  0  0  0  0  0  0  0  0  0  0  0
   39.6140   24.4070   40.8590 N   0  0  0  0  0  0  0  0  0  0  0  0
   39.5400   24.1290   43.1910 N   0  0  0  0  0  0  0  0  0  0  0  0
   40.5830   24.7710   40.9370 H   0  0  0  0  0  0  0  0  0  0  0  0
   37.4790   22.7020   39.4170 C   0  0  0  0  0  0  0  0  0  0  0  0
   36.6790   21.5780   39.1710 C   0  0  0  0  0  0  0  0  0  0  0  0
   37.2370   20.8440   38.1910 N   0  0  0  0  0  0  0  0  0  0  0  0
   38.3610   21.4820   37.8220 C   0  0  0  0  0  0  0  0  0  0  0  0
   38.5060   22.5900   38.5530 N   0  0  0  0  0  0  0  0  0  0  0  0
   35.6117   27.0533   37.7660 H   0  0  0  0  0  0  0  0  0  0  0  0
   35.9064   24.4111   38.0800 H   0  0  0  0  0  0  0  0  0  0  0  0
   36.6081   28.3723   42.2460 H   0  0  0  0  0  0  0  0  0  0  0  0
   36.4764   28.9871   38.0080 H   0  0  0  0  0  0  0  0  0  0  0  0
   36.6561   32.2800   40.7266 H   0  0  0  0  0  0  0  0  0  0  0  0
   35.9850   23.1261   40.7244 H   0  0  0  0  0  0  0  0  0  0  0  0
   37.1905   23.1117   42.5350 H   0  0  0  0  0  0  0  0  0  0  0  0
   40.4927   24.5022   43.3090 H   0  0  0  0  0  0  0  0  0  0  0  0
   39.0039   23.8165   44.0131 H   0  0  0  0  0  0  0  0  0  0  0  0
   35.7434   21.3344   39.6958 H   0  0  0  0  0  0  0  0  0  0  0  0
   39.0547   21.1435   37.0383 H   0  0  0  0  0  0  0  0  0  0  0  0
   39.2855   23.2580   38.4688 H   0  0  0  0  0  0  0  0  0  0  0  0
  1  7  1  0
  1  5  2  0
  2  3  2  0
  2  1  1  0
  3  4  1  0
  4 12  1  0
  4  5  1  0
  6 11  2  0
  7  6  1  0
  8  9  1  0
  8  7  2  0
  9 10  2  0
 10 11  1  0
 12 13  1  0
 13 14  1  0
 14 16  1  0
 15 17  1  0
 15 14  2  0
 18 12  1  0
 19 18  2  0
 20 19  1  0
 21 20  2  0
 21 22  1  0
 22 18  1  0
  2 23  1  0
  3 24  1  0
  6 25  1  0
  8 26  1  0
 10 27  1  0
 12 28  1  1
 13 29  1  0
 16 30  1  0
 16 31  1  0
 19 32  1  0
 21 33  1  0
 22 34  1  0
M  ISO  8  23  14  24  14  25  14  26  14  27  14  28   8  32  14  33  14
M  ISO  1  34   9
M  END
>  <minimizedAffinity>  (1) 
-4.25086546

>  <minimizedRMSD>  (1) 
1.24120569

$$$$
