
     RDKit          3D

 20 21  0  0  0  0  0  0  0  0999 V2000
   38.5280   33.0300   40.1490 C   0  0  0  0  0  0  0  0  0  0  0  0
   39.9070   32.8530   40.3360 C   0  0  0  0  0  0  0  0  0  0  0  0
   40.7080   33.9890   40.3970 C   0  0  0  0  0  0  0  0  0  0  0  0
   40.1130   35.2090   40.2710 N   0  0  0  0  0  0  0  0  0  0  0  0
   38.7950   35.3490   40.0930 C   0  0  0  0  0  0  0  0  0  0  0  0
   37.9980   34.2620   40.0310 N   0  0  0  0  0  0  0  0  0  0  0  0
   37.5680   31.9910   40.0640 N   0  0  0  0  0  0  0  0  0  0  0  0
   36.8030   31.3910   40.9630 N   0  0  0  0  0  0  0  0  0  0  0  0
   36.0410   30.4490   40.3910 C   0  0  0  0  0  0  0  0  0  0  0  0
   36.3290   30.4390   39.0480 C   0  0  0  0  0  0  0  0  0  0  0  0
   37.2930   31.4200   38.8680 C   0  0  0  0  0  0  0  0  0  0  0  0
   37.8680   31.7160   37.5170 C   0  0  0  0  0  0  0  0  0  0  0  0
   40.3417   31.8470   40.4315 H   0  0  0  0  0  0  0  0  0  0  0  0
   41.7950   33.9047   40.5433 H   0  0  0  0  0  0  0  0  0  0  0  0
   38.3589   36.3543   39.9968 H   0  0  0  0  0  0  0  0  0  0  0  0
   35.3156   29.8006   40.9043 H   0  0  0  0  0  0  0  0  0  0  0  0
   35.8880   29.7897   38.2774 H   0  0  0  0  0  0  0  0  0  0  0  0
   38.8405   32.2166   37.6341 H   0  0  0  0  0  0  0  0  0  0  0  0
   38.0040   30.7758   36.9624 H   0  0  0  0  0  0  0  0  0  0  0  0
   37.1818   32.3729   36.9624 H   0  0  0  0  0  0  0  0  0  0  0  0
  1  2  2  0
  2  3  1  0
  4  3  2  0
  5  4  1  0
  6  5  2  0
  6  1  1  0
  7  1  1  0
  7  8  1  0
  9  8  2  0
 10  9  1  0
 11 10  2  0
 11  7  1  0
 12 11  1  0
  2 13  1  0
  3 14  1  0
  5 15  1  0
  9 16  1  0
 10 17  1  0
 12 18  1  0
 12 19  1  0
 12 20  1  0
M  ISO  8  13  14  14  14  15  14  16  14  17  14  18   8  19   8  20   8
M  END
>  <minimizedAffinity>  (1) 
-3.81370473

>  <minimizedRMSD>  (1) 
0.0642942414

$$$$
