
     RDKit          3D

 34 37  0  0  0  0  0  0  0  0999 V2000
   37.7200   30.0130   39.7370 C   0  0  0  0  0  0  0  0  0  0  0  0
   38.8070   29.1320   39.8000 C   0  0  0  0  0  0  0  0  0  0  0  0
   40.0620   29.6820   39.9940 C   0  0  0  0  0  0  0  0  0  0  0  0
   40.1730   31.0260   40.1130 N   0  0  0  0  0  0  0  0  0  0  0  0
   39.1060   31.8550   40.0490 C   0  0  0  0  0  0  0  0  0  0  0  0
   37.8750   31.3480   39.8610 N   0  0  0  0  0  0  0  0  0  0  0  0
   39.2820   33.2660   40.1810 N   0  0  0  0  0  0  0  0  0  0  0  0
   38.3450   34.2180   40.0000 C   0  0  0  0  0  0  0  0  0  0  0  0
   38.9000   35.4440   40.2170 N   0  0  0  0  0  0  0  0  0  0  0  0
   40.1910   35.2210   40.5340 C   0  0  0  0  0  0  0  0  0  0  0  0
   41.1510   36.1930   40.8400 C   0  0  0  0  0  0  0  0  0  0  0  0
   40.8650   37.4180   40.8410 O   0  0  0  0  0  0  0  0  0  0  0  0
   42.3790   35.6910   41.1210 N   0  0  0  0  0  0  0  0  0  0  0  0
   42.6320   34.3680   41.1060 C   0  0  0  0  0  0  0  0  0  0  0  0
   43.9240   33.8580   41.4040 N   0  0  0  0  0  0  0  0  0  0  0  0
   41.6950   33.4490   40.8100 N   0  0  0  0  0  0  0  0  0  0  0  0
   40.4540   33.8640   40.5180 C   0  0  0  0  0  0  0  0  0  0  0  0
   36.3540   29.6270   39.5420 N   0  0  0  0  0  0  0  0  0  0  0  0
   35.3750   29.3450   40.3460 N   0  0  0  0  0  0  0  0  0  0  0  0
   34.2510   29.0310   39.6690 C   0  0  0  0  0  0  0  0  0  0  0  0
   34.5440   29.1230   38.3240 C   0  0  0  0  0  0  0  0  0  0  0  0
   35.8820   29.5020   38.2620 C   0  0  0  0  0  0  0  0  0  0  0  0
   36.5840   29.7070   36.9800 C   0  0  0  0  0  0  0  0  0  0  0  0
   35.7560   29.6400   35.8850 F   0  0  0  0  0  0  0  0  0  0  0  0
   37.6610   28.8530   36.8330 F   0  0  0  0  0  0  0  0  0  0  0  0
   37.1160   31.0070   36.9520 F   0  0  0  0  0  0  0  0  0  0  0  0
   38.6686   28.0454   39.6992 H   0  0  0  0  0  0  0  0  0  0  0  0
   40.9528   29.0391   40.0505 H   0  0  0  0  0  0  0  0  0  0  0  0
   37.2969   34.0344   39.7210 H   0  0  0  0  0  0  0  0  0  0  0  0
   43.1426   36.3421   41.3533 H   0  0  0  0  0  0  0  0  0  0  0  0
   44.0934   32.8422   41.3862 H   0  0  0  0  0  0  0  0  0  0  0  0
   44.6913   34.5040   41.6379 H   0  0  0  0  0  0  0  0  0  0  0  0
   33.2813   28.7533   40.1078 H   0  0  0  0  0  0  0  0  0  0  0  0
   33.8643   28.9364   37.4795 H   0  0  0  0  0  0  0  0  0  0  0  0
  1  2  2  0
  1  6  1  0
  2  3  1  0
  3  4  2  0
  5  4  1  0
  5  7  1  0
  6  5  2  0
  7 17  1  0
  8  7  1  0
  8  9  2  0
  9 10  1  0
 10 11  1  0
 11 12  2  0
 11 13  1  0
 14 13  1  0
 14 15  1  0
 16 14  2  0
 17 10  2  0
 17 16  1  0
 18  1  1  0
 18 19  1  0
 20 19  2  0
 21 20  1  0
 22 21  2  0
 22 18  1  0
 23 22  1  0
 24 23  1  0
 25 23  1  0
 26 23  1  0
  2 27  1  0
  3 28  1  0
  8 29  1  0
 13 30  1  0
 15 31  1  0
 15 32  1  0
 20 33  1  0
 21 34  1  0
M  ISO  6  27  14  28  14  29  14  30   9  33  14  34  14
M  END
>  <minimizedAffinity>  (1) 
-6.31624126

>  <minimizedRMSD>  (1) 
3.32072258

$$$$
