
     RDKit          3D

 34 37  0  0  0  0  0  0  0  0999 V2000
   39.4230   30.7220   39.9330 C   0  0  0  0  0  0  0  0  0  0  0  0
   40.2450   30.1230   38.9940 C   0  0  0  0  0  0  0  0  0  0  0  0
   41.1950   30.9010   38.3720 C   0  0  0  0  0  0  0  0  0  0  0  0
   41.2780   32.2010   38.7060 N   0  0  0  0  0  0  0  0  0  0  0  0
   40.4820   32.7910   39.6160 C   0  0  0  0  0  0  0  0  0  0  0  0
   39.5710   32.0180   40.2040 N   0  0  0  0  0  0  0  0  0  0  0  0
   40.4570   34.1800   40.0750 C   0  0  0  0  0  0  0  0  0  0  0  0
   39.4580   35.0430   39.7200 N   0  0  0  0  0  0  0  0  0  0  0  0
   39.4030   36.3160   40.1180 C   0  0  0  0  0  0  0  0  0  0  0  0
   40.3290   36.8660   40.9090 N   0  0  0  0  0  0  0  0  0  0  0  0
   41.3530   36.0950   41.3120 C   0  0  0  0  0  0  0  0  0  0  0  0
   42.3090   36.6270   42.1170 C   0  0  0  0  0  0  0  0  0  0  0  0
   43.3850   35.8800   42.5630 C   0  0  0  0  0  0  0  0  0  0  0  0
   43.4190   34.5640   42.1340 C   0  0  0  0  0  0  0  0  0  0  0  0
   42.4440   34.0510   41.3240 C   0  0  0  0  0  0  0  0  0  0  0  0
   41.3780   34.7950   40.8840 C   0  0  0  0  0  0  0  0  0  0  0  0
   38.3830   30.0830   40.6810 N   0  0  0  0  0  0  0  0  0  0  0  0
   38.2960   29.5820   41.8740 N   0  0  0  0  0  0  0  0  0  0  0  0
   37.0910   29.0880   42.1330 C   0  0  0  0  0  0  0  0  0  0  0  0
   36.3180   29.2850   41.0040 C   0  0  0  0  0  0  0  0  0  0  0  0
   37.1600   29.9150   40.1040 C   0  0  0  0  0  0  0  0  0  0  0  0
   36.7020   30.3050   38.7510 C   0  0  0  0  0  0  0  0  0  0  0  0
   35.3890   29.9940   38.4970 F   0  0  0  0  0  0  0  0  0  0  0  0
   37.5210   29.7980   37.7480 F   0  0  0  0  0  0  0  0  0  0  0  0
   36.7710   31.7070   38.6280 F   0  0  0  0  0  0  0  0  0  0  0  0
   40.1419   29.0550   38.7516 H   0  0  0  0  0  0  0  0  0  0  0  0
   41.8708   30.4693   37.6190 H   0  0  0  0  0  0  0  0  0  0  0  0
   38.5606   36.9379   39.7809 H   0  0  0  0  0  0  0  0  0  0  0  0
   42.2256   37.6804   42.4227 H   0  0  0  0  0  0  0  0  0  0  0  0
   44.1624   36.3039   43.2156 H   0  0  0  0  0  0  0  0  0  0  0  0
   44.2493   33.9163   42.4520 H   0  0  0  0  0  0  0  0  0  0  0  0
   42.5171   32.9986   41.0122 H   0  0  0  0  0  0  0  0  0  0  0  0
   36.7683   28.6113   43.0703 H   0  0  0  0  0  0  0  0  0  0  0  0
   35.2654   29.0031   40.8539 H   0  0  0  0  0  0  0  0  0  0  0  0
  1  6  1  0
  1 17  1  0
  2  1  2  0
  3  4  2  0
  3  2  1  0
  4  5  1  0
  5  7  1  0
  5  6  2  0
  7 16  1  0
  8  7  2  0
  8  9  1  0
  9 10  2  0
 10 11  1  0
 11 12  1  0
 12 13  2  0
 14 13  1  0
 15 14  2  0
 16 11  2  0
 16 15  1  0
 17 18  1  0
 18 19  2  0
 20 19  1  0
 21 17  1  0
 21 20  2  0
 22 21  1  0
 23 22  1  0
 24 22  1  0
 25 22  1  0
  2 26  1  0
  3 27  1  0
  9 28  1  0
 12 29  1  0
 13 30  1  0
 14 31  1  0
 15 32  1  0
 19 33  1  0
 20 34  1  0
M  ISO  8  26  14  27  14  28  14  29  14  30  14  31  14  32  14  33  14
M  ISO  1  34  14
M  END
>  <minimizedAffinity>  (1) 
-5.97425604

>  <minimizedRMSD>  (1) 
3.40362382

$$$$
