
     RDKit          3D

 26 28  0  0  0  0  0  0  0  0999 V2000
   39.5490   31.3760   40.4070 C   0  0  0  0  0  0  0  0  0  0  0  0
   40.1210   30.9060   39.2310 C   0  0  0  0  0  0  0  0  0  0  0  0
   40.6860   31.8190   38.3610 C   0  0  0  0  0  0  0  0  0  0  0  0
   40.6510   33.1240   38.7040 N   0  0  0  0  0  0  0  0  0  0  0  0
   40.0940   33.5730   39.8500 C   0  0  0  0  0  0  0  0  0  0  0  0
   39.5340   32.6940   40.7150 N   0  0  0  0  0  0  0  0  0  0  0  0
   40.1120   34.9720   40.1150 N   0  0  0  0  0  0  0  0  0  0  0  0
   41.2140   35.5060   40.6710 C   0  0  0  0  0  0  0  0  0  0  0  0
   41.0310   36.8460   40.8410 N   0  0  0  0  0  0  0  0  0  0  0  0
   39.7790   37.1220   40.3710 C   0  0  0  0  0  0  0  0  0  0  0  0
   39.2390   35.9630   39.9330 N   0  0  0  0  0  0  0  0  0  0  0  0
   38.9240   30.5740   41.4120 N   0  0  0  0  0  0  0  0  0  0  0  0
   39.3500   29.9960   42.5000 N   0  0  0  0  0  0  0  0  0  0  0  0
   38.3620   29.3360   43.1310 C   0  0  0  0  0  0  0  0  0  0  0  0
   37.2160   29.5100   42.3800 C   0  0  0  0  0  0  0  0  0  0  0  0
   37.6010   30.2940   41.3050 C   0  0  0  0  0  0  0  0  0  0  0  0
   36.6280   30.7050   40.2530 C   0  0  0  0  0  0  0  0  0  0  0  0
   35.3420   30.3200   40.5070 F   0  0  0  0  0  0  0  0  0  0  0  0
   37.0200   30.2950   38.9940 F   0  0  0  0  0  0  0  0  0  0  0  0
   36.5870   32.1080   40.1980 F   0  0  0  0  0  0  0  0  0  0  0  0
   40.1240   29.8310   38.9978 H   0  0  0  0  0  0  0  0  0  0  0  0
   41.1497   31.4925   37.4185 H   0  0  0  0  0  0  0  0  0  0  0  0
   42.1215   34.9484   40.9457 H   0  0  0  0  0  0  0  0  0  0  0  0
   39.2965   38.1103   40.3522 H   0  0  0  0  0  0  0  0  0  0  0  0
   38.4502   28.7658   44.0676 H   0  0  0  0  0  0  0  0  0  0  0  0
   36.2126   29.1114   42.5905 H   0  0  0  0  0  0  0  0  0  0  0  0
  1  6  1  0
  1 12  1  0
  2  1  2  0
  3  4  2  0
  3  2  1  0
  4  5  1  0
  5  7  1  0
  5  6  2  0
  7  8  1  0
  8  9  2  0
 10  9  1  0
 11  7  1  0
 11 10  2  0
 12 13  1  0
 13 14  2  0
 15 14  1  0
 16 12  1  0
 16 15  2  0
 17 18  1  0
 17 16  1  0
 19 17  1  0
 20 17  1  0
  2 21  1  0
  3 22  1  0
  8 23  1  0
 10 24  1  0
 14 25  1  0
 15 26  1  0
M  ISO  6  21  14  22  14  23  14  24  14  25  14  26  14
M  END
>  <minimizedAffinity>  (1) 
-5.46329737

>  <minimizedRMSD>  (1) 
2.84943223

$$$$
