
     RDKit          3D

 27 29  0  0  0  0  0  0  0  0999 V2000
   39.0500   31.3310   40.3960 C   0  0  0  0  0  0  0  0  0  0  0  0
   40.2590   30.6450   40.4410 C   0  0  0  0  0  0  0  0  0  0  0  0
   41.4410   31.3710   40.4210 C   0  0  0  0  0  0  0  0  0  0  0  0
   41.3530   32.7150   40.3570 N   0  0  0  0  0  0  0  0  0  0  0  0
   40.1730   33.3750   40.3130 C   0  0  0  0  0  0  0  0  0  0  0  0
   39.0190   32.6850   40.3320 N   0  0  0  0  0  0  0  0  0  0  0  0
   37.7480   30.7440   40.4080 N   0  0  0  0  0  0  0  0  0  0  0  0
   36.9700   30.3140   41.3530 N   0  0  0  0  0  0  0  0  0  0  0  0
   35.8110   29.8340   40.8690 C   0  0  0  0  0  0  0  0  0  0  0  0
   35.8650   29.9730   39.4980 C   0  0  0  0  0  0  0  0  0  0  0  0
   37.0980   30.5490   39.2340 C   0  0  0  0  0  0  0  0  0  0  0  0
   37.5420   30.8650   37.8560 C   0  0  0  0  0  0  0  0  0  0  0  0
   36.7140   30.3900   36.8760 F   0  0  0  0  0  0  0  0  0  0  0  0
   38.8490   30.4520   37.6130 F   0  0  0  0  0  0  0  0  0  0  0  0
   37.5520   32.2590   37.6810 F   0  0  0  0  0  0  0  0  0  0  0  0
   40.1330   34.8510   40.2430 C   0  0  0  0  0  0  0  0  0  0  0  0
   39.1330   35.7900   40.0790 C   0  0  0  0  0  0  0  0  0  0  0  0
   39.7830   37.0080   40.1060 C   0  0  0  0  0  0  0  0  0  0  0  0
   41.1100   36.7980   40.2780 N   0  0  0  0  0  0  0  0  0  0  0  0
   41.3290   35.4910   40.3630 N   0  0  0  0  0  0  0  0  0  0  0  0
   40.2777   29.5463   40.4916 H   0  0  0  0  0  0  0  0  0  0  0  0
   42.4180   30.8668   40.4562 H   0  0  0  0  0  0  0  0  0  0  0  0
   34.9803   29.4120   41.4536 H   0  0  0  0  0  0  0  0  0  0  0  0
   35.0930   29.6873   38.7683 H   0  0  0  0  0  0  0  0  0  0  0  0
   38.0554   35.6074   39.9543 H   0  0  0  0  0  0  0  0  0  0  0  0
   39.3004   37.9912   40.0041 H   0  0  0  0  0  0  0  0  0  0  0  0
   41.8309   37.5316   40.3337 H   0  0  0  0  0  0  0  0  0  0  0  0
  1  7  1  0
  1  2  2  0
  3  2  1  0
  4  3  2  0
  5  6  2  0
  5  4  1  0
  6  1  1  0
  7  8  1  0
  9  8  2  0
 10  9  1  0
 11 10  2  0
 11  7  1  0
 12 11  1  0
 13 12  1  0
 14 12  1  0
 15 12  1  0
 16  5  1  0
 16 20  2  0
 17 18  2  0
 17 16  1  0
 18 19  1  0
 19 20  1  0
  2 21  1  0
  3 22  1  0
  9 23  1  0
 10 24  1  0
 17 25  1  0
 18 26  1  0
 19 27  1  0
M  ISO  7  21  14  22  14  23  14  24  14  25  14  26  14  27   9
M  END
>  <minimizedAffinity>  (1) 
-5.20349693

>  <minimizedRMSD>  (1) 
1.83548379

$$$$
