
     RDKit          3D

 28 30  0  0  0  0  0  0  0  0999 V2000
   39.5950   32.2240   40.0750 C   0  0  0  0  0  0  0  0  0  0  0  0
   39.4970   31.7540   41.3950 C   0  0  0  0  0  0  0  0  0  0  0  0
   38.5550   30.7700   41.6660 C   0  0  0  0  0  0  0  0  0  0  0  0
   37.7820   30.3190   40.6310 N   0  0  0  0  0  0  0  0  0  0  0  0
   37.9080   30.7950   39.3810 C   0  0  0  0  0  0  0  0  0  0  0  0
   38.8030   31.7440   39.0830 N   0  0  0  0  0  0  0  0  0  0  0  0
   40.5030   33.2250   39.6320 N   0  0  0  0  0  0  0  0  0  0  0  0
   41.6900   33.2020   39.1010 N   0  0  0  0  0  0  0  0  0  0  0  0
   42.1530   34.4350   38.8490 C   0  0  0  0  0  0  0  0  0  0  0  0
   41.1740   35.3240   39.2550 C   0  0  0  0  0  0  0  0  0  0  0  0
   40.1440   34.5420   39.7450 C   0  0  0  0  0  0  0  0  0  0  0  0
   38.9010   35.1320   40.2790 C   0  0  0  0  0  0  0  0  0  0  0  0
   38.7380   36.4650   39.9810 F   0  0  0  0  0  0  0  0  0  0  0  0
   38.7540   34.9160   41.6330 F   0  0  0  0  0  0  0  0  0  0  0  0
   37.8000   34.5020   39.6730 F   0  0  0  0  0  0  0  0  0  0  0  0
   37.0370   30.2520   38.3430 C   0  0  0  0  0  0  0  0  0  0  0  0
   37.3810   30.2970   37.0080 C   0  0  0  0  0  0  0  0  0  0  0  0
   36.5370   29.7720   36.0240 C   0  0  0  0  0  0  0  0  0  0  0  0
   35.3580   29.2080   36.3910 N   0  0  0  0  0  0  0  0  0  0  0  0
   35.0390   29.1720   37.6970 C   0  0  0  0  0  0  0  0  0  0  0  0
   35.8660   29.6860   38.6420 N   0  0  0  0  0  0  0  0  0  0  0  0
   40.1457   32.1526   42.1889 H   0  0  0  0  0  0  0  0  0  0  0  0
   38.4341   30.3656   42.6818 H   0  0  0  0  0  0  0  0  0  0  0  0
   43.1260   34.6908   38.4042 H   0  0  0  0  0  0  0  0  0  0  0  0
   41.2077   36.4221   39.1997 H   0  0  0  0  0  0  0  0  0  0  0  0
   38.3367   30.7542   36.7118 H   0  0  0  0  0  0  0  0  0  0  0  0
   36.8257   29.8157   34.9634 H   0  0  0  0  0  0  0  0  0  0  0  0
   34.0869   28.7159   38.0059 H   0  0  0  0  0  0  0  0  0  0  0  0
  1  2  2  0
  2  3  1  0
  4  3  2  0
  5  4  1  0
  6  5  2  0
  6  1  1  0
  7 11  1  0
  7  1  1  0
  8  7  1  0
  9  8  2  0
  9 10  1  0
 10 11  2  0
 11 12  1  0
 12 14  1  0
 13 12  1  0
 15 12  1  0
 16 21  1  0
 16  5  1  0
 17 16  2  0
 18 19  2  0
 18 17  1  0
 19 20  1  0
 20 21  2  0
  2 22  1  0
  3 23  1  0
  9 24  1  0
 10 25  1  0
 17 26  1  0
 18 27  1  0
 20 28  1  0
M  ISO  7  22  14  23  14  24  14  25  14  26  14  27  14  28  14
M  END
>  <minimizedAffinity>  (1) 
-5.11298943

>  <minimizedRMSD>  (1) 
6.12644672

$$$$
