
     RDKit          3D

 34 36  0  0  1  0  0  0  0  0999 V2000
   36.7020   23.7040   39.6040 C   0  0  2  0  0  0  0  0  0  0  0  0
   37.1770   23.5310   40.9410 N   0  0  0  0  0  0  0  0  0  0  0  0
   38.4990   23.7950   41.3520 C   0  0  0  0  0  0  0  0  0  0  0  0
   39.3490   24.0550   40.4270 N   0  0  0  0  0  0  0  0  0  0  0  0
   38.8730   23.7560   42.7040 N   0  0  0  0  0  0  0  0  0  0  0  0
   40.3490   24.2360   40.6590 H   0  0  0  0  0  0  0  0  0  0  0  0
   36.2550   27.2760   39.3460 C   0  0  0  0  0  0  0  0  0  0  0  0
   35.6310   26.8470   38.1670 C   0  0  0  0  0  0  0  0  0  0  0  0
   35.7780   25.4810   38.2090 C   0  0  0  0  0  0  0  0  0  0  0  0
   36.4400   25.1060   39.3250 N   0  0  0  0  0  0  0  0  0  0  0  0
   36.7210   26.2020   40.0010 N   0  0  0  0  0  0  0  0  0  0  0  0
   36.2210   29.1070   41.0440 C   0  0  0  0  0  0  0  0  0  0  0  0
   36.3500   28.6600   39.7460 C   0  0  0  0  0  0  0  0  0  0  0  0
   36.5820   29.6160   38.7560 C   0  0  0  0  0  0  0  0  0  0  0  0
   36.6680   30.9320   39.1180 N   0  0  0  0  0  0  0  0  0  0  0  0
   36.5320   31.3200   40.4180 C   0  0  0  0  0  0  0  0  0  0  0  0
   36.3040   30.3830   41.4000 N   0  0  0  0  0  0  0  0  0  0  0  0
   35.4080   22.9410   39.4060 C   0  0  0  0  0  0  0  0  0  0  0  0
   35.1300   22.0000   38.4360 C   0  0  0  0  0  0  0  0  0  0  0  0
   33.8340   21.5470   38.6080 C   0  0  0  0  0  0  0  0  0  0  0  0
   33.3700   22.2280   39.6750 N   0  0  0  0  0  0  0  0  0  0  0  0
   34.2780   23.0570   40.1640 N   0  0  0  0  0  0  0  0  0  0  0  0
   37.4805   23.3268   38.9245 H   0  0  0  0  0  0  0  0  0  0  0  0
   36.5106   23.1917   41.6493 H   0  0  0  0  0  0  0  0  0  0  0  0
   39.8469   23.9534   42.9748 H   0  0  0  0  0  0  0  0  0  0  0  0
   38.1736   23.5299   43.4255 H   0  0  0  0  0  0  0  0  0  0  0  0
   35.1412   27.4569   37.3936 H   0  0  0  0  0  0  0  0  0  0  0  0
   35.4073   24.7882   37.4392 H   0  0  0  0  0  0  0  0  0  0  0  0
   36.0383   28.3613   41.8318 H   0  0  0  0  0  0  0  0  0  0  0  0
   36.6937   29.3164   37.7035 H   0  0  0  0  0  0  0  0  0  0  0  0
   36.6047   32.3852   40.6828 H   0  0  0  0  0  0  0  0  0  0  0  0
   35.8258   21.6644   37.6529 H   0  0  0  0  0  0  0  0  0  0  0  0
   33.2999   20.7966   38.0067 H   0  0  0  0  0  0  0  0  0  0  0  0
   32.4224   22.1164   40.0630 H   0  0  0  0  0  0  0  0  0  0  0  0
  1  2  1  0
  2  3  1  0
  3  5  1  0
  4  6  1  0
  4  3  2  0
  7 13  1  0
  7 11  2  0
  8  9  2  0
  8  7  1  0
  9 10  1  0
 10  1  1  0
 10 11  1  0
 12 17  2  0
 13 12  1  0
 14 15  1  0
 14 13  2  0
 15 16  2  0
 16 17  1  0
 18  1  1  0
 18 22  2  0
 19 20  2  0
 19 18  1  0
 20 21  1  0
 21 22  1  0
  1 23  1  6
  2 24  1  0
  5 25  1  0
  5 26  1  0
  8 27  1  0
  9 28  1  0
 12 29  1  0
 14 30  1  0
 16 31  1  0
 19 32  1  0
 20 33  1  0
 21 34  1  0
M  ISO  8  23   8  27  14  28  14  29  14  30  14  31  14  32  14  33  14
M  ISO  1  34   9
M  END
>  <minimizedAffinity>  (1) 
-4.11734295

>  <minimizedRMSD>  (1) 
0.700483084

$$$$
