
     RDKit          3D

 26 28  0  0  0  0  0  0  0  0999 V2000
   38.7050   30.8180   40.3280 C   0  0  0  0  0  0  0  0  0  0  0  0
   39.9070   30.1240   40.3900 C   0  0  0  0  0  0  0  0  0  0  0  0
   41.0880   30.8410   40.4210 C   0  0  0  0  0  0  0  0  0  0  0  0
   41.0140   32.1830   40.3870 N   0  0  0  0  0  0  0  0  0  0  0  0
   39.8380   32.8570   40.3260 C   0  0  0  0  0  0  0  0  0  0  0  0
   38.6750   32.1710   40.2960 N   0  0  0  0  0  0  0  0  0  0  0  0
   37.3990   30.2330   40.2900 N   0  0  0  0  0  0  0  0  0  0  0  0
   36.5930   29.7580   41.1870 N   0  0  0  0  0  0  0  0  0  0  0  0
   35.4520   29.3100   40.6650 C   0  0  0  0  0  0  0  0  0  0  0  0
   35.5320   29.5180   39.2930 C   0  0  0  0  0  0  0  0  0  0  0  0
   36.7710   30.1020   39.0910 C   0  0  0  0  0  0  0  0  0  0  0  0
   37.2430   30.4860   37.7290 C   0  0  0  0  0  0  0  0  0  0  0  0
   36.4030   30.0880   36.7170 F   0  0  0  0  0  0  0  0  0  0  0  0
   38.5370   30.0560   37.4890 F   0  0  0  0  0  0  0  0  0  0  0  0
   37.2850   31.8790   37.6390 F   0  0  0  0  0  0  0  0  0  0  0  0
   39.8040   34.3350   40.2910 C   0  0  0  0  0  0  0  0  0  0  0  0
   41.0720   34.8880   40.6320 C   0  0  0  0  0  0  0  0  0  0  0  0
   40.8400   36.7180   40.5360 S   0  0  0  0  0  0  0  0  0  0  0  0
   39.0260   36.4210   40.0400 C   0  0  0  0  0  0  0  0  0  0  0  0
   38.9410   35.3030   40.0350 N   0  0  0  0  0  0  0  0  0  0  0  0
   39.9184   29.0243   40.4140 H   0  0  0  0  0  0  0  0  0  0  0  0
   42.0601   30.3287   40.4720 H   0  0  0  0  0  0  0  0  0  0  0  0
   34.6100   28.8624   41.2134 H   0  0  0  0  0  0  0  0  0  0  0  0
   34.7756   29.2721   38.5331 H   0  0  0  0  0  0  0  0  0  0  0  0
   41.9905   34.3430   40.8955 H   0  0  0  0  0  0  0  0  0  0  0  0
   38.2492   37.1661   39.8132 H   0  0  0  0  0  0  0  0  0  0  0  0
  1  2  2  0
  2  3  1  0
  4  3  2  0
  5  4  1  0
  6  5  2  0
  6  1  1  0
  7  1  1  0
  7  8  1  0
  9  8  2  0
 10  9  1  0
 11 10  2  0
 11  7  1  0
 12 11  1  0
 13 12  1  0
 14 12  1  0
 15 12  1  0
 16  5  1  0
 16 17  2  0
 18 17  1  0
 19 18  1  0
 20 19  2  0
 20 16  1  0
  2 21  1  0
  3 22  1  0
  9 23  1  0
 10 24  1  0
 17 25  1  0
 19 26  1  0
M  ISO  6  21  14  22  14  23  14  24  14  25  14  26  14
M  END
>  <minimizedAffinity>  (1) 
-4.71843958

>  <minimizedRMSD>  (1) 
1.99553311

$$$$
