
     RDKit          3D

 22 23  0  0  0  0  0  0  0  0999 V2000
   37.4260   31.2270   40.3150 N   0  0  0  0  0  0  0  0  0  0  0  0
   36.6230   30.7340   41.2170 N   0  0  0  0  0  0  0  0  0  0  0  0
   35.6810   29.9410   40.6880 C   0  0  0  0  0  0  0  0  0  0  0  0
   35.9010   29.9250   39.3220 C   0  0  0  0  0  0  0  0  0  0  0  0
   37.0050   30.7420   39.1140 C   0  0  0  0  0  0  0  0  0  0  0  0
   38.5520   32.0950   40.3580 C   0  0  0  0  0  0  0  0  0  0  0  0
   39.8700   31.6960   40.5310 C   0  0  0  0  0  0  0  0  0  0  0  0
   40.8550   32.6810   40.5500 C   0  0  0  0  0  0  0  0  0  0  0  0
   40.4600   33.9730   40.3960 N   0  0  0  0  0  0  0  0  0  0  0  0
   39.1770   34.3370   40.2290 C   0  0  0  0  0  0  0  0  0  0  0  0
   38.2130   33.4010   40.2080 N   0  0  0  0  0  0  0  0  0  0  0  0
   38.8910   35.7610   40.0740 C   0  0  0  0  0  0  0  0  0  0  0  0
   39.8670   36.5330   39.8860 O   0  0  0  0  0  0  0  0  0  0  0  0
   37.5610   30.9850   37.7600 C   0  0  0  0  0  0  0  0  0  0  0  0
   36.8690   30.3460   36.7660 F   0  0  0  0  0  0  0  0  0  0  0  0
   38.9000   30.7010   37.6890 F   0  0  0  0  0  0  0  0  0  0  0  0
   37.4270   32.3550   37.4610 F   0  0  0  0  0  0  0  0  0  0  0  0
   34.8883   29.4074   41.2329 H   0  0  0  0  0  0  0  0  0  0  0  0
   35.3232   29.3800   38.5610 H   0  0  0  0  0  0  0  0  0  0  0  0
   40.1292   30.6336   40.6496 H   0  0  0  0  0  0  0  0  0  0  0  0
   41.9156   32.4225   40.6849 H   0  0  0  0  0  0  0  0  0  0  0  0
   37.8610   36.1443   40.1199 H   0  0  0  0  0  0  0  0  0  0  0  0
  1  6  1  0
  1  2  1  0
  3  2  2  0
  4  3  1  0
  5  4  2  0
  5  1  1  0
  6  7  2  0
  7  8  1  0
  9  8  2  0
 10  9  1  0
 11 10  2  0
 11  6  1  0
 12 10  1  0
 13 12  2  0
 14  5  1  0
 15 14  1  0
 16 14  1  0
 17 14  1  0
  3 18  1  0
  4 19  1  0
  7 20  1  0
  8 21  1  0
 12 22  1  0
M  ISO  5  18  14  19  14  20  14  21  14  22   6
M  END
>  <minimizedAffinity>  (1) 
-4.43512821

>  <minimizedRMSD>  (1) 
0.558528841

$$$$
