
     RDKit          3D

 40 44  0  0  0  0  0  0  0  0999 V2000
   40.8430   31.2930   40.3980 N   0  0  0  0  0  0  0  0  0  0  0  0
   40.8180   30.2180   41.1210 N   0  0  0  0  0  0  0  0  0  0  0  0
   39.6290   29.6030   41.0660 C   0  0  0  0  0  0  0  0  0  0  0  0
   38.8330   30.3550   40.2330 C   0  0  0  0  0  0  0  0  0  0  0  0
   39.6210   31.4210   39.8210 C   0  0  0  0  0  0  0  0  0  0  0  0
   41.8430   32.2840   40.1210 C   0  0  0  0  0  0  0  0  0  0  0  0
   42.6540   32.3280   38.9870 C   0  0  0  0  0  0  0  0  0  0  0  0
   43.5660   33.3470   38.8720 C   0  0  0  0  0  0  0  0  0  0  0  0
   43.6280   34.2510   39.8650 N   0  0  0  0  0  0  0  0  0  0  0  0
   42.8440   34.2130   40.9680 C   0  0  0  0  0  0  0  0  0  0  0  0
   41.9360   33.2080   41.0930 N   0  0  0  0  0  0  0  0  0  0  0  0
   42.9940   35.2210   41.9570 N   0  0  0  0  0  0  0  0  0  0  0  0
   43.9680   35.0620   42.8810 C   0  0  0  0  0  0  0  0  0  0  0  0
   43.9510   36.1230   43.7310 N   0  0  0  0  0  0  0  0  0  0  0  0
   42.9410   36.9370   43.3050 C   0  0  0  0  0  0  0  0  0  0  0  0
   42.3730   36.3670   42.2230 N   0  0  0  0  0  0  0  0  0  0  0  0
   37.4830   30.0370   39.9100 N   0  0  0  0  0  0  0  0  0  0  0  0
   36.3680   30.1000   40.6910 C   0  0  0  0  0  0  0  0  0  0  0  0
   35.2800   29.7150   40.0190 N   0  0  0  0  0  0  0  0  0  0  0  0
   35.6690   29.3850   38.7640 C   0  0  0  0  0  0  0  0  0  0  0  0
   34.9800   28.9310   37.6610 C   0  0  0  0  0  0  0  0  0  0  0  0
   33.7230   28.7470   37.7230 O   0  0  0  0  0  0  0  0  0  0  0  0
   35.6970   28.6960   36.5380 N   0  0  0  0  0  0  0  0  0  0  0  0
   37.0270   28.8890   36.4700 C   0  0  0  0  0  0  0  0  0  0  0  0
   37.5870   28.5850   35.2010 N   0  0  0  0  0  0  0  0  0  0  0  0
   37.7130   29.3400   37.5590 N   0  0  0  0  0  0  0  0  0  0  0  0
   37.0510   29.5920   38.7080 C   0  0  0  0  0  0  0  0  0  0  0  0
   39.1110   32.4670   38.9020 C   0  0  0  0  0  0  0  0  0  0  0  0
   37.7520   32.6170   38.9260 F   0  0  0  0  0  0  0  0  0  0  0  0
   39.5700   32.2940   37.6110 F   0  0  0  0  0  0  0  0  0  0  0  0
   39.6090   33.7220   39.3160 F   0  0  0  0  0  0  0  0  0  0  0  0
   39.3444   28.6764   41.5860 H   0  0  0  0  0  0  0  0  0  0  0  0
   42.5645   31.5626   38.2020 H   0  0  0  0  0  0  0  0  0  0  0  0
   44.2256   33.4217   37.9948 H   0  0  0  0  0  0  0  0  0  0  0  0
   44.6627   34.2109   42.9362 H   0  0  0  0  0  0  0  0  0  0  0  0
   42.6428   37.8910   43.7642 H   0  0  0  0  0  0  0  0  0  0  0  0
   36.3646   30.4265   41.7414 H   0  0  0  0  0  0  0  0  0  0  0  0
   35.2043   28.3552   35.7002 H   0  0  0  0  0  0  0  0  0  0  0  0
   38.5985   28.6990   35.0438 H   0  0  0  0  0  0  0  0  0  0  0  0
   36.9817   28.2505   34.4377 H   0  0  0  0  0  0  0  0  0  0  0  0
  1  2  1  0
  3  2  2  0
  4  3  1  0
  5  4  2  0
  5  1  1  0
  6  1  1  0
  6 11  1  0
  7  6  2  0
  8  7  1  0
  8  9  2  0
  9 10  1  0
 10 11  2  0
 10 12  1  0
 12 16  1  0
 12 13  1  0
 13 14  2  0
 15 14  1  0
 16 15  2  0
 17  4  1  0
 17 18  1  0
 19 18  2  0
 20 19  1  0
 21 22  2  0
 21 20  1  0
 23 21  1  0
 24 23  1  0
 24 26  2  0
 25 24  1  0
 26 27  1  0
 27 20  2  0
 27 17  1  0
 28 29  1  0
 28 31  1  0
 28  5  1  0
 30 28  1  0
  3 32  1  0
  7 33  1  0
  8 34  1  0
 13 35  1  0
 15 36  1  0
 18 37  1  0
 23 38  1  0
 25 39  1  0
 25 40  1  0
M  ISO  7  32  14  33  14  34  14  35  14  36  14  37  14  38   9
M  END
>  <minimizedAffinity>  (1) 
-6.71470499

>  <minimizedRMSD>  (1) 
3.75872612

$$$$
