
     RDKit          3D

 34 37  0  0  0  0  0  0  0  0999 V2000
   41.2340   31.1010   41.2740 N   0  0  0  0  0  0  0  0  0  0  0  0
   41.7790   30.0640   41.8560 N   0  0  0  0  0  0  0  0  0  0  0  0
   40.8480   29.2080   42.2870 C   0  0  0  0  0  0  0  0  0  0  0  0
   39.6030   29.7430   41.9480 C   0  0  0  0  0  0  0  0  0  0  0  0
   39.8930   30.9270   41.3190 C   0  0  0  0  0  0  0  0  0  0  0  0
   41.7660   32.2750   40.6610 C   0  0  0  0  0  0  0  0  0  0  0  0
   41.9350   32.4950   39.3070 C   0  0  0  0  0  0  0  0  0  0  0  0
   42.4650   33.6860   38.8750 C   0  0  0  0  0  0  0  0  0  0  0  0
   42.7960   34.5940   39.8170 N   0  0  0  0  0  0  0  0  0  0  0  0
   42.6370   34.3910   41.1350 C   0  0  0  0  0  0  0  0  0  0  0  0
   42.1170   33.2220   41.5750 N   0  0  0  0  0  0  0  0  0  0  0  0
   43.0230   35.4220   42.0440 N   0  0  0  0  0  0  0  0  0  0  0  0
   44.3080   35.5050   42.4260 C   0  0  0  0  0  0  0  0  0  0  0  0
   44.4630   36.5440   43.2850 N   0  0  0  0  0  0  0  0  0  0  0  0
   43.2310   37.1090   43.4310 C   0  0  0  0  0  0  0  0  0  0  0  0
   42.3700   36.4000   42.6590 N   0  0  0  0  0  0  0  0  0  0  0  0
   38.5040   28.8980   42.3810 C   0  0  0  0  0  0  0  0  0  0  0  0
   37.8990   27.9590   41.5750 C   0  0  0  0  0  0  0  0  0  0  0  0
   36.9010   27.0980   41.9770 C   0  0  0  0  0  0  0  0  0  0  0  0
   36.4950   27.1970   43.2790 N   0  0  0  0  0  0  0  0  0  0  0  0
   37.0830   28.1080   44.0680 C   0  0  0  0  0  0  0  0  0  0  0  0
   38.0460   28.9270   43.6440 N   0  0  0  0  0  0  0  0  0  0  0  0
   38.8110   31.8120   40.8350 C   0  0  0  0  0  0  0  0  0  0  0  0
   37.5510   31.4810   41.2470 F   0  0  0  0  0  0  0  0  0  0  0  0
   38.8580   32.0020   39.4650 F   0  0  0  0  0  0  0  0  0  0  0  0
   39.0010   33.1110   41.3690 F   0  0  0  0  0  0  0  0  0  0  0  0
   41.0285   28.2581   42.8115 H   0  0  0  0  0  0  0  0  0  0  0  0
   41.6469   31.7212   38.5802 H   0  0  0  0  0  0  0  0  0  0  0  0
   42.6137   33.8915   37.8047 H   0  0  0  0  0  0  0  0  0  0  0  0
   45.1126   34.8328   42.0931 H   0  0  0  0  0  0  0  0  0  0  0  0
   42.9816   37.9778   44.0579 H   0  0  0  0  0  0  0  0  0  0  0  0
   38.2384   27.8913   40.5309 H   0  0  0  0  0  0  0  0  0  0  0  0
   36.4538   26.3684   41.2859 H   0  0  0  0  0  0  0  0  0  0  0  0
   36.7551   28.1833   45.1153 H   0  0  0  0  0  0  0  0  0  0  0  0
  1  5  1  0
  1  2  1  0
  2  3  2  0
  4  3  1  0
  4 17  1  0
  5  4  2  0
  6  1  1  0
  6 11  1  0
  7  6  2  0
  8  7  1  0
  8  9  2  0
  9 10  1  0
 10 11  2  0
 10 12  1  0
 12 13  1  0
 12 16  1  0
 13 14  2  0
 14 15  1  0
 16 15  2  0
 17 22  2  0
 18 19  2  0
 18 17  1  0
 19 20  1  0
 20 21  2  0
 22 21  1  0
 23 24  1  0
 23  5  1  0
 23 26  1  0
 25 23  1  0
  3 27  1  0
  7 28  1  0
  8 29  1  0
 13 30  1  0
 15 31  1  0
 18 32  1  0
 19 33  1  0
 21 34  1  0
M  ISO  8  27  14  28  14  29  14  30  14  31  14  32  14  33  14  34  14
M  END
>  <minimizedAffinity>  (1) 
-5.91090202

>  <minimizedRMSD>  (1) 
2.94398832

$$$$
