
     RDKit          3D

 38 41  0  0  0  0  0  0  0  0999 V2000
   38.6390   32.4180   39.7830 N   0  0  0  0  0  0  0  0  0  0  0  0
   38.5110   33.4850   40.5160 N   0  0  0  0  0  0  0  0  0  0  0  0
   39.5840   34.2900   40.4280 C   0  0  0  0  0  0  0  0  0  0  0  0
   40.4630   33.6810   39.5670 C   0  0  0  0  0  0  0  0  0  0  0  0
   39.8520   32.5020   39.1700 C   0  0  0  0  0  0  0  0  0  0  0  0
   37.8090   31.2770   39.5300 C   0  0  0  0  0  0  0  0  0  0  0  0
   36.9120   31.1390   38.4840 C   0  0  0  0  0  0  0  0  0  0  0  0
   36.1910   29.9690   38.3880 C   0  0  0  0  0  0  0  0  0  0  0  0
   36.4040   29.0200   39.3260 N   0  0  0  0  0  0  0  0  0  0  0  0
   37.2720   29.1490   40.3390 C   0  0  0  0  0  0  0  0  0  0  0  0
   37.9960   30.2960   40.4560 N   0  0  0  0  0  0  0  0  0  0  0  0
   37.4130   28.0830   41.2660 N   0  0  0  0  0  0  0  0  0  0  0  0
   36.5520   28.0040   42.2920 C   0  0  0  0  0  0  0  0  0  0  0  0
   36.8490   26.9250   43.0620 N   0  0  0  0  0  0  0  0  0  0  0  0
   37.9340   26.3300   42.4720 C   0  0  0  0  0  0  0  0  0  0  0  0
   38.2610   27.0580   41.3730 N   0  0  0  0  0  0  0  0  0  0  0  0
   41.7300   34.2210   39.2080 N   0  0  0  0  0  0  0  0  0  0  0  0
   42.3110   34.8630   38.0190 C   0  0  0  0  0  0  0  0  0  0  0  0
   43.4880   33.9410   37.7350 C   0  0  0  0  0  0  0  0  0  0  0  0
   44.0460   33.7710   39.1470 C   0  0  0  0  0  0  0  0  0  0  0  0
   42.9260   34.2700   40.0610 C   0  0  0  0  0  0  0  0  0  0  0  0
   40.5010   31.5580   38.2280 C   0  0  0  0  0  0  0  0  0  0  0  0
   40.6900   32.0570   36.9760 F   0  0  0  0  0  0  0  0  0  0  0  0
   39.8180   30.3490   38.1540 F   0  0  0  0  0  0  0  0  0  0  0  0
   41.7730   31.2410   38.7030 F   0  0  0  0  0  0  0  0  0  0  0  0
   39.7294   35.2499   40.9452 H   0  0  0  0  0  0  0  0  0  0  0  0
   36.7783   31.9447   37.7471 H   0  0  0  0  0  0  0  0  0  0  0  0
   35.4664   29.8127   37.5752 H   0  0  0  0  0  0  0  0  0  0  0  0
   35.7283   28.7081   42.4814 H   0  0  0  0  0  0  0  0  0  0  0  0
   38.4482   25.4242   42.8257 H   0  0  0  0  0  0  0  0  0  0  0  0
   41.5992   34.8790   37.1805 H   0  0  0  0  0  0  0  0  0  0  0  0
   42.5868   35.9180   38.1633 H   0  0  0  0  0  0  0  0  0  0  0  0
   43.1601   32.9816   37.3084 H   0  0  0  0  0  0  0  0  0  0  0  0
   44.2080   34.3260   36.9979 H   0  0  0  0  0  0  0  0  0  0  0  0
   44.2733   32.7143   39.3511 H   0  0  0  0  0  0  0  0  0  0  0  0
   44.9859   34.3228   39.2958 H   0  0  0  0  0  0  0  0  0  0  0  0
   43.1245   35.2978   40.3990 H   0  0  0  0  0  0  0  0  0  0  0  0
   42.8219   33.6668   40.9749 H   0  0  0  0  0  0  0  0  0  0  0  0
  1  2  1  0
  3  2  2  0
  4  3  1  0
  5  4  2  0
  5  1  1  0
  6  1  1  0
  6 11  1  0
  7  6  2  0
  8  7  1  0
  8  9  2  0
  9 10  1  0
 10 11  2  0
 10 12  1  0
 12 16  1  0
 12 13  1  0
 13 14  2  0
 15 14  1  0
 16 15  2  0
 17  4  1  0
 17 21  1  0
 18 17  1  0
 19 18  1  0
 19 20  1  0
 20 21  1  0
 22 25  1  0
 22  5  1  0
 23 22  1  0
 24 22  1  0
  3 26  1  0
  7 27  1  0
  8 28  1  0
 13 29  1  0
 15 30  1  0
 18 31  1  0
 18 32  1  0
 19 33  1  0
 19 34  1  0
 20 35  1  0
 20 36  1  0
 21 37  1  0
 21 38  1  0
M  ISO  8  26  14  27  14  28  14  29  14  30  14  31  13  32  13  33  13
M  ISO  5  34  13  35  13  36  13  37  13  38  13
M  END
>  <minimizedAffinity>  (1) 
-5.4828167

>  <minimizedRMSD>  (1) 
7.42309856

$$$$
