
     RDKit          3D

 41 44  0  0  0  0  0  0  0  0999 V2000
   41.0550   29.7350   40.0960 N   0  0  0  0  0  0  0  0  0  0  0  0
   41.9530   29.1830   40.8690 N   0  0  0  0  0  0  0  0  0  0  0  0
   41.4540   28.1160   41.5250 C   0  0  0  0  0  0  0  0  0  0  0  0
   40.1260   27.9930   41.1250 C   0  0  0  0  0  0  0  0  0  0  0  0
   39.9220   29.0220   40.2360 C   0  0  0  0  0  0  0  0  0  0  0  0
   41.0700   30.8560   39.2160 C   0  0  0  0  0  0  0  0  0  0  0  0
   41.3170   30.8260   37.8550 C   0  0  0  0  0  0  0  0  0  0  0  0
   41.2950   32.0000   37.1430 C   0  0  0  0  0  0  0  0  0  0  0  0
   41.0270   33.1430   37.8290 N   0  0  0  0  0  0  0  0  0  0  0  0
   40.7880   33.1760   39.1470 C   0  0  0  0  0  0  0  0  0  0  0  0
   40.8060   32.0260   39.8600 N   0  0  0  0  0  0  0  0  0  0  0  0
   40.5180   34.4320   39.7600 N   0  0  0  0  0  0  0  0  0  0  0  0
   41.5580   35.2000   40.1330 C   0  0  0  0  0  0  0  0  0  0  0  0
   41.0880   36.3550   40.6970 N   0  0  0  0  0  0  0  0  0  0  0  0
   39.7260   36.2660   40.6560 C   0  0  0  0  0  0  0  0  0  0  0  0
   39.3960   35.0870   40.0830 N   0  0  0  0  0  0  0  0  0  0  0  0
   39.3860   26.9270   41.6970 N   0  0  0  0  0  0  0  0  0  0  0  0
   38.7080   25.7630   41.2200 C   0  0  0  0  0  0  0  0  0  0  0  0
   39.0970   24.4650   41.8240 C   0  0  0  0  0  0  0  0  0  0  0  0
   39.5270   24.4750   43.2440 C   0  0  0  0  0  0  0  0  0  0  0  0
   39.9640   25.8110   43.7830 C   0  0  0  0  0  0  0  0  0  0  0  0
   39.2220   26.9580   43.1370 C   0  0  0  0  0  0  0  0  0  0  0  0
   38.5960   29.1990   39.5960 C   0  0  0  0  0  0  0  0  0  0  0  0
   37.5650   28.5480   40.1820 F   0  0  0  0  0  0  0  0  0  0  0  0
   38.6310   28.9000   38.2360 F   0  0  0  0  0  0  0  0  0  0  0  0
   38.2460   30.5700   39.6300 F   0  0  0  0  0  0  0  0  0  0  0  0
   41.9902   27.4701   42.2359 H   0  0  0  0  0  0  0  0  0  0  0  0
   41.5286   29.8725   37.3490 H   0  0  0  0  0  0  0  0  0  0  0  0
   41.4867   32.0152   36.0599 H   0  0  0  0  0  0  0  0  0  0  0  0
   42.6192   34.9403   40.0048 H   0  0  0  0  0  0  0  0  0  0  0  0
   39.0191   37.0234   41.0256 H   0  0  0  0  0  0  0  0  0  0  0  0
   37.6329   25.9060   41.4035 H   0  0  0  0  0  0  0  0  0  0  0  0
   38.9892   25.6816   40.1597 H   0  0  0  0  0  0  0  0  0  0  0  0
   38.2305   23.7919   41.7462 H   0  0  0  0  0  0  0  0  0  0  0  0
   39.9882   24.1488   41.2621 H   0  0  0  0  0  0  0  0  0  0  0  0
   38.6830   24.1233   43.8555 H   0  0  0  0  0  0  0  0  0  0  0  0
   40.4139   23.8262   43.2939 H   0  0  0  0  0  0  0  0  0  0  0  0
   39.7772   25.8339   44.8668 H   0  0  0  0  0  0  0  0  0  0  0  0
   41.0340   25.9320   43.5583 H   0  0  0  0  0  0  0  0  0  0  0  0
   39.6173   27.9083   43.5252 H   0  0  0  0  0  0  0  0  0  0  0  0
   38.1517   26.8653   43.3735 H   0  0  0  0  0  0  0  0  0  0  0  0
  1  5  1  0
  1  2  1  0
  2  3  2  0
  4  3  1  0
  4 17  1  0
  5  4  2  0
  6 11  1  0
  6  1  1  0
  7  6  2  0
  8  9  2  0
  8  7  1  0
  9 10  1  0
 10 12  1  0
 10 11  2  0
 12 16  1  0
 12 13  1  0
 13 14  2  0
 15 14  1  0
 16 15  2  0
 17 22  1  0
 18 17  1  0
 18 19  1  0
 19 20  1  0
 20 21  1  0
 22 21  1  0
 23 26  1  0
 23 24  1  0
 23  5  1  0
 25 23  1  0
  3 27  1  0
  7 28  1  0
  8 29  1  0
 13 30  1  0
 15 31  1  0
 18 32  1  0
 18 33  1  0
 19 34  1  0
 19 35  1  0
 20 36  1  0
 20 37  1  0
 21 38  1  0
 21 39  1  0
 22 40  1  0
 22 41  1  0
M  ISO  8  27  14  28  14  29  14  30  14  31  14  32  13  33  13  34  13
M  ISO  7  35  13  36  13  37  13  38  13  39  13  40  13  41  13
M  END
>  <minimizedAffinity>  (1) 
-5.36753273

>  <minimizedRMSD>  (1) 
2.92774749

$$$$
