
     RDKit          3D

 24 25  0  0  0  0  0  0  0  0999 V2000
   35.7060   30.0100   40.6250 C   0  0  0  0  0  0  0  0  0  0  0  0
   36.4090   30.5500   39.4950 N   0  0  0  0  0  0  0  0  0  0  0  0
   36.4850   29.9120   38.2910 C   0  0  0  0  0  0  0  0  0  0  0  0
   37.1930   30.5180   37.2510 C   0  0  0  0  0  0  0  0  0  0  0  0
   37.8170   31.7550   37.4220 C   0  0  0  0  0  0  0  0  0  0  0  0
   38.5020   32.2560   36.2790 N   0  0  0  0  0  0  0  0  0  0  0  0
   37.7350   32.3880   38.6280 N   0  0  0  0  0  0  0  0  0  0  0  0
   37.0290   31.7190   39.5700 C   0  0  0  0  0  0  0  0  0  0  0  0
   36.9700   32.3310   40.6810 O   0  0  0  0  0  0  0  0  0  0  0  0
   38.1200   28.6770   43.1190 C   0  0  0  0  0  0  0  0  0  0  0  0
   38.0990   27.3100   42.8420 C   0  0  0  0  0  0  0  0  0  0  0  0
   37.2690   26.8580   41.8180 C   0  0  0  0  0  0  0  0  0  0  0  0
   36.5200   27.7740   41.1360 N   0  0  0  0  0  0  0  0  0  0  0  0
   36.5680   29.0930   41.4350 C   0  0  0  0  0  0  0  0  0  0  0  0
   37.3650   29.5330   42.4200 N   0  0  0  0  0  0  0  0  0  0  0  0
   34.8313   29.4489   40.2642 H   0  0  0  0  0  0  0  0  0  0  0  0
   35.4025   30.8485   41.2690 H   0  0  0  0  0  0  0  0  0  0  0  0
   35.9971   28.9374   38.1423 H   0  0  0  0  0  0  0  0  0  0  0  0
   37.2604   30.0104   36.2774 H   0  0  0  0  0  0  0  0  0  0  0  0
   38.9875   33.1632   36.3262 H   0  0  0  0  0  0  0  0  0  0  0  0
   38.5121   31.7113   35.4049 H   0  0  0  0  0  0  0  0  0  0  0  0
   38.7665   29.0570   43.9237 H   0  0  0  0  0  0  0  0  0  0  0  0
   38.7209   26.6077   43.4165 H   0  0  0  0  0  0  0  0  0  0  0  0
   37.2183   25.7887   41.5650 H   0  0  0  0  0  0  0  0  0  0  0  0
  1 14  1  0
  2  8  1  0
  2  1  1  0
  3  2  1  0
  4  5  1  0
  4  3  2  0
  5  7  2  0
  6  5  1  0
  7  8  1  0
  8  9  2  0
 11 10  2  0
 12 11  1  0
 13 14  1  0
 13 12  2  0
 14 15  2  0
 15 10  1  0
  1 16  1  0
  1 17  1  0
  3 18  1  0
  4 19  1  0
  6 20  1  0
  6 21  1  0
 10 22  1  0
 11 23  1  0
 12 24  1  0
M  ISO  7  16   8  17   8  18  14  19  14  22  14  23  14  24  14
M  END
>  <minimizedAffinity>  (1) 
-4.64523935

>  <minimizedRMSD>  (1) 
1.88905835

$$$$
