
     RDKit          3D

 23 24  0  0  0  0  0  0  0  0999 V2000
   35.6310   29.5270   40.6240 C   0  0  0  0  0  0  0  0  0  0  0  0
   38.1120   28.9250   43.3250 C   0  0  0  0  0  0  0  0  0  0  0  0
   38.2190   27.5310   43.3050 C   0  0  0  0  0  0  0  0  0  0  0  0
   37.4530   26.8110   42.3830 C   0  0  0  0  0  0  0  0  0  0  0  0
   36.6370   27.5060   41.5430 N   0  0  0  0  0  0  0  0  0  0  0  0
   36.5570   28.8500   41.5880 C   0  0  0  0  0  0  0  0  0  0  0  0
   37.2840   29.5440   42.4650 N   0  0  0  0  0  0  0  0  0  0  0  0
   36.3470   30.3190   39.5950 C   0  0  0  0  0  0  0  0  0  0  0  0
   36.5460   29.6920   38.3650 C   0  0  0  0  0  0  0  0  0  0  0  0
   37.2110   30.3600   37.3340 C   0  0  0  0  0  0  0  0  0  0  0  0
   37.6710   31.6510   37.5510 C   0  0  0  0  0  0  0  0  0  0  0  0
   37.4690   32.2700   38.7860 C   0  0  0  0  0  0  0  0  0  0  0  0
   36.8160   31.6120   39.7940 C   0  0  0  0  0  0  0  0  0  0  0  0
   35.0277   28.7586   40.1185 H   0  0  0  0  0  0  0  0  0  0  0  0
   35.0060   30.2243   41.2012 H   0  0  0  0  0  0  0  0  0  0  0  0
   38.7033   29.5135   44.0420 H   0  0  0  0  0  0  0  0  0  0  0  0
   38.8930   27.0106   44.0014 H   0  0  0  0  0  0  0  0  0  0  0  0
   37.5080   25.7133   42.3375 H   0  0  0  0  0  0  0  0  0  0  0  0
   36.1779   28.6676   38.2063 H   0  0  0  0  0  0  0  0  0  0  0  0
   37.3680   29.8688   36.3624 H   0  0  0  0  0  0  0  0  0  0  0  0
   38.1963   32.1883   36.7477 H   0  0  0  0  0  0  0  0  0  0  0  0
   37.8370   33.2935   38.9506 H   0  0  0  0  0  0  0  0  0  0  0  0
   36.6623   32.1082   40.7636 H   0  0  0  0  0  0  0  0  0  0  0  0
  1  6  1  0
  3  2  2  0
  4  3  1  0
  5  6  1  0
  5  4  2  0
  6  7  2  0
  7  2  1  0
  8 13  1  0
  8  1  1  0
  9  8  2  0
 10 11  2  0
 10  9  1  0
 11 12  1  0
 12 13  2  0
  1 14  1  0
  1 15  1  0
  2 16  1  0
  3 17  1  0
  4 18  1  0
  9 19  1  0
 10 20  1  0
 11 21  1  0
 12 22  1  0
 13 23  1  0
M  ISO  8  14   8  15   8  16  14  17  14  18  14  19  14  20  14  21  14
M  ISO  2  22  14  23  14
M  END
>  <minimizedAffinity>  (1) 
-4.3756237

>  <minimizedRMSD>  (1) 
1.6323998

$$$$
