
     RDKit          3D

 21 22  0  0  0  0  0  0  0  0999 V2000
   35.5940   29.4170   40.6130 C   0  0  0  0  0  0  0  0  0  0  0  0
   38.0910   28.9440   43.3250 C   0  0  0  0  0  0  0  0  0  0  0  0
   38.2470   27.5580   43.3430 C   0  0  0  0  0  0  0  0  0  0  0  0
   37.4980   26.7990   42.4300 C   0  0  0  0  0  0  0  0  0  0  0  0
   36.6610   27.4380   41.5740 N   0  0  0  0  0  0  0  0  0  0  0  0
   36.5400   28.7940   41.5920 C   0  0  0  0  0  0  0  0  0  0  0  0
   37.2520   29.5140   42.4590 N   0  0  0  0  0  0  0  0  0  0  0  0
   36.2870   30.3010   39.6660 C   0  0  0  0  0  0  0  0  0  0  0  0
   36.6020   29.7860   38.4040 C   0  0  0  0  0  0  0  0  0  0  0  0
   37.2540   30.4920   37.3980 C   0  0  0  0  0  0  0  0  0  0  0  0
   37.5870   31.7720   37.7160 N   0  0  0  0  0  0  0  0  0  0  0  0
   37.2910   32.2870   38.9260 C   0  0  0  0  0  0  0  0  0  0  0  0
   36.6590   31.5710   39.8740 N   0  0  0  0  0  0  0  0  0  0  0  0
   35.0890   28.6186   40.0495 H   0  0  0  0  0  0  0  0  0  0  0  0
   34.8705   30.0235   41.1776 H   0  0  0  0  0  0  0  0  0  0  0  0
   38.6619   29.5690   44.0274 H   0  0  0  0  0  0  0  0  0  0  0  0
   38.9360   27.0744   44.0511 H   0  0  0  0  0  0  0  0  0  0  0  0
   37.5882   25.7029   42.4088 H   0  0  0  0  0  0  0  0  0  0  0  0
   36.3129   28.7462   38.1914 H   0  0  0  0  0  0  0  0  0  0  0  0
   37.4832   30.0480   36.4180 H   0  0  0  0  0  0  0  0  0  0  0  0
   37.5754   33.3266   39.1457 H   0  0  0  0  0  0  0  0  0  0  0  0
  1  6  1  0
  2  3  2  0
  4  3  1  0
  5  6  1  0
  5  4  2  0
  6  7  2  0
  7  2  1  0
  8 13  1  0
  8  1  1  0
  9  8  2  0
 10 11  2  0
 10  9  1  0
 11 12  1  0
 12 13  2  0
  1 14  1  0
  1 15  1  0
  2 16  1  0
  3 17  1  0
  4 18  1  0
  9 19  1  0
 10 20  1  0
 12 21  1  0
M  ISO  8  14   8  15   8  16  14  17  14  18  14  19  14  20  14  21  14
M  END
>  <minimizedAffinity>  (1) 
-3.98190331

>  <minimizedRMSD>  (1) 
1.57800341

$$$$
