
     RDKit          3D

 28 29  0  0  0  0  0  0  0  0999 V2000
   36.8400   30.6040   41.1430 C   0  0  0  0  0  0  0  0  0  0  0  0
   37.5920   27.9130   43.5890 C   0  0  0  0  0  0  0  0  0  0  0  0
   37.4070   26.7660   42.7940 C   0  0  0  0  0  0  0  0  0  0  0  0
   37.0360   26.9130   41.4620 C   0  0  0  0  0  0  0  0  0  0  0  0
   36.8640   28.1790   40.9750 N   0  0  0  0  0  0  0  0  0  0  0  0
   37.0510   29.2600   41.7670 C   0  0  0  0  0  0  0  0  0  0  0  0
   37.4100   29.1210   43.0540 N   0  0  0  0  0  0  0  0  0  0  0  0
   37.9190   31.0030   40.2780 N   0  0  0  0  0  0  0  0  0  0  0  0
   39.0310   31.5790   40.9520 C   0  0  0  0  0  0  0  0  0  0  0  0
   39.0900   33.0600   41.0100 C   0  0  0  0  0  0  0  0  0  0  0  0
   38.4220   33.8000   39.8970 C   0  0  0  0  0  0  0  0  0  0  0  0
   37.0960   33.1200   39.5740 C   0  0  0  0  0  0  0  0  0  0  0  0
   37.4890   31.7110   39.1110 C   0  0  0  0  0  0  0  0  0  0  0  0
   35.9119   30.5739   40.5532 H   0  0  0  0  0  0  0  0  0  0  0  0
   36.7868   31.3390   41.9597 H   0  0  0  0  0  0  0  0  0  0  0  0
   37.8848   27.8135   44.6446 H   0  0  0  0  0  0  0  0  0  0  0  0
   37.5545   25.7636   43.2222 H   0  0  0  0  0  0  0  0  0  0  0  0
   36.8850   26.0345   40.8175 H   0  0  0  0  0  0  0  0  0  0  0  0
   39.0210   31.2065   41.9870 H   0  0  0  0  0  0  0  0  0  0  0  0
   39.9092   31.2811   40.3604 H   0  0  0  0  0  0  0  0  0  0  0  0
   38.6177   33.3762   41.9518 H   0  0  0  0  0  0  0  0  0  0  0  0
   40.1576   33.3114   40.9259 H   0  0  0  0  0  0  0  0  0  0  0  0
   38.2379   34.8401   40.2040 H   0  0  0  0  0  0  0  0  0  0  0  0
   39.0685   33.7952   39.0070 H   0  0  0  0  0  0  0  0  0  0  0  0
   36.4563   33.0713   40.4676 H   0  0  0  0  0  0  0  0  0  0  0  0
   36.5213   33.6656   38.8111 H   0  0  0  0  0  0  0  0  0  0  0  0
   36.6238   31.2053   38.6574 H   0  0  0  0  0  0  0  0  0  0  0  0
   38.2861   31.7498   38.3540 H   0  0  0  0  0  0  0  0  0  0  0  0
  1  6  1  0
  3  2  2  0
  4  3  1  0
  5  4  2  0
  5  6  1  0
  6  7  2  0
  7  2  1  0
  8  9  1  0
  8  1  1  0
  9 10  1  0
 11 10  1  0
 12 11  1  0
 13 12  1  0
 13  8  1  0
  1 14  1  0
  1 15  1  0
  2 16  1  0
  3 17  1  0
  4 18  1  0
  9 19  1  0
  9 20  1  0
 10 21  1  0
 10 22  1  0
 11 23  1  0
 11 24  1  0
 12 25  1  0
 12 26  1  0
 13 27  1  0
 13 28  1  0
M  ISO  8  14   8  15   8  16  14  17  14  18  14  19  13  20  13  21  13
M  ISO  7  22  13  23  13  24  13  25  13  26  13  27  13  28  13
M  END
>  <minimizedAffinity>  (1) 
-3.88555121

>  <minimizedRMSD>  (1) 
2.79991102

$$$$
