
     RDKit          3D

 20 21  0  0  0  0  0  0  0  0999 V2000
   38.5320   28.8390   43.1190 C   0  0  0  0  0  0  0  0  0  0  0  0
   37.8730   27.6090   43.1220 C   0  0  0  0  0  0  0  0  0  0  0  0
   36.7010   27.5020   42.3690 C   0  0  0  0  0  0  0  0  0  0  0  0
   36.2580   28.5990   41.6690 N   0  0  0  0  0  0  0  0  0  0  0  0
   36.9420   29.7730   41.7040 C   0  0  0  0  0  0  0  0  0  0  0  0
   38.0680   29.8900   42.4220 N   0  0  0  0  0  0  0  0  0  0  0  0
   36.3680   30.9120   40.8990 C   0  0  0  0  0  0  0  0  0  0  0  0
   37.4560   31.4550   40.0390 C   0  0  0  0  0  0  0  0  0  0  0  0
   37.2010   32.1130   38.7410 C   0  0  0  0  0  0  0  0  0  0  0  0
   37.4600   32.9820   39.9240 C   0  0  0  0  0  0  0  0  0  0  0  0
   39.4571   28.9514   43.7035 H   0  0  0  0  0  0  0  0  0  0  0  0
   38.2619   26.7551   43.6961 H   0  0  0  0  0  0  0  0  0  0  0  0
   36.1418   26.5553   42.3368 H   0  0  0  0  0  0  0  0  0  0  0  0
   35.5415   30.5474   40.2713 H   0  0  0  0  0  0  0  0  0  0  0  0
   35.9777   31.6953   41.5655 H   0  0  0  0  0  0  0  0  0  0  0  0
   38.1372   30.6396   40.3236 H   0  0  0  0  0  0  0  0  0  0  0  0
   36.1930   32.0779   38.3020 H   0  0  0  0  0  0  0  0  0  0  0  0
   37.6492   32.0299   37.7399 H   0  0  0  0  0  0  0  0  0  0  0  0
   38.4038   33.5412   40.0047 H   0  0  0  0  0  0  0  0  0  0  0  0
   36.9337   33.8095   40.4222 H   0  0  0  0  0  0  0  0  0  0  0  0
  1  2  2  0
  3  2  1  0
  4  5  1  0
  4  3  2  0
  5  6  2  0
  6  1  1  0
  7  5  1  0
  8  7  1  0
  9 10  1  0
  9  8  1  0
 10  8  1  0
  1 11  1  0
  2 12  1  0
  3 13  1  0
  7 14  1  0
  7 15  1  0
  8 16  1  0
  9 17  1  0
  9 18  1  0
 10 19  1  0
 10 20  1  0
M  ISO  8  11  14  12  14  13  14  14   8  15   8  16  13  17  13  18  13
M  ISO  2  19  13  20  13
M  END
>  <minimizedAffinity>  (1) 
-3.51605535

>  <minimizedRMSD>  (1) 
2.37005663

$$$$
