
     RDKit          3D

 37 40  0  0  0  0  0  0  0  0999 V2000
   36.9160   28.9010   42.0710 N   0  0  0  0  0  0  0  0  0  0  0  0
   35.8830   28.7190   41.2160 C   0  0  0  0  0  0  0  0  0  0  0  0
   35.7850   29.6460   40.2090 C   0  0  0  0  0  0  0  0  0  0  0  0
   36.6550   30.7140   40.0310 C   0  0  0  0  0  0  0  0  0  0  0  0
   36.5300   31.5390   39.0970 O   0  0  0  0  0  0  0  0  0  0  0  0
   37.6590   30.7920   40.9560 N   0  0  0  0  0  0  0  0  0  0  0  0
   37.7800   29.9060   41.9480 C   0  0  0  0  0  0  0  0  0  0  0  0
   38.7530   30.0660   42.7640 O   0  0  0  0  0  0  0  0  0  0  0  0
   38.5480   31.8940   40.7650 C   0  0  0  0  0  0  0  0  0  0  0  0
   37.9530   32.9990   40.2490 N   0  0  0  0  0  0  0  0  0  0  0  0
   38.6780   34.1280   40.0140 C   0  0  0  0  0  0  0  0  0  0  0  0
   40.0110   34.1260   40.3040 N   0  0  0  0  0  0  0  0  0  0  0  0
   40.5960   33.0270   40.8150 C   0  0  0  0  0  0  0  0  0  0  0  0
   41.9530   33.0070   41.1180 C   0  0  0  0  0  0  0  0  0  0  0  0
   42.5170   31.8570   41.6420 C   0  0  0  0  0  0  0  0  0  0  0  0
   41.7630   30.7220   41.8740 C   0  0  0  0  0  0  0  0  0  0  0  0
   40.4130   30.7270   41.5790 C   0  0  0  0  0  0  0  0  0  0  0  0
   39.8760   31.8730   41.0620 C   0  0  0  0  0  0  0  0  0  0  0  0
   37.1300   27.9870   43.1800 C   0  0  0  0  0  0  0  0  0  0  0  0
   39.5940   25.4470   42.0510 C   0  0  0  0  0  0  0  0  0  0  0  0
   38.7710   24.3290   41.8240 C   0  0  0  0  0  0  0  0  0  0  0  0
   37.4090   24.4490   42.0550 C   0  0  0  0  0  0  0  0  0  0  0  0
   36.9350   25.6340   42.4860 N   0  0  0  0  0  0  0  0  0  0  0  0
   37.7410   26.7040   42.6990 C   0  0  0  0  0  0  0  0  0  0  0  0
   39.0350   26.5720   42.4750 N   0  0  0  0  0  0  0  0  0  0  0  0
   35.1718   27.8864   41.3209 H   0  0  0  0  0  0  0  0  0  0  0  0
   34.9585   29.5354   39.4916 H   0  0  0  0  0  0  0  0  0  0  0  0
   38.1971   35.0255   39.5977 H   0  0  0  0  0  0  0  0  0  0  0  0
   42.5733   33.8983   40.9426 H   0  0  0  0  0  0  0  0  0  0  0  0
   43.5910   31.8459   41.8795 H   0  0  0  0  0  0  0  0  0  0  0  0
   42.2348   29.8201   42.2910 H   0  0  0  0  0  0  0  0  0  0  0  0
   39.7904   29.8373   41.7545 H   0  0  0  0  0  0  0  0  0  0  0  0
   37.8051   28.4570   43.9103 H   0  0  0  0  0  0  0  0  0  0  0  0
   36.1593   27.7635   43.6466 H   0  0  0  0  0  0  0  0  0  0  0  0
   40.6791   25.3891   41.8802 H   0  0  0  0  0  0  0  0  0  0  0  0
   39.1990   23.3793   41.4706 H   0  0  0  0  0  0  0  0  0  0  0  0
   36.7323   23.5975   41.8904 H   0  0  0  0  0  0  0  0  0  0  0  0
  1 19  1  0
  2  1  1  0
  3  2  2  0
  4  3  1  0
  4  6  1  0
  5  4  2  0
  6  7  1  0
  7  1  1  0
  7  8  2  0
  9  6  1  0
  9 18  1  0
 10  9  2  0
 11 10  1  0
 11 12  2  0
 12 13  1  0
 13 18  2  0
 13 14  1  0
 14 15  2  0
 15 16  1  0
 17 16  2  0
 18 17  1  0
 20 25  2  0
 21 20  1  0
 21 22  2  0
 22 23  1  0
 23 24  2  0
 24 19  1  0
 25 24  1  0
  2 26  1  0
  3 27  1  0
 11 28  1  0
 14 29  1  0
 15 30  1  0
 16 31  1  0
 17 32  1  0
 19 33  1  0
 19 34  1  0
 20 35  1  0
 21 36  1  0
 22 37  1  0
M  ISO  8  26  14  27  14  28  14  29  14  30  14  31  14  32  14  33   8
M  ISO  4  34   8  35  14  36  14  37  14
M  END
>  <minimizedAffinity>  (1) 
-6.214993

>  <minimizedRMSD>  (1) 
1.03705716

$$$$
