
     RDKit          3D

 34 37  0  0  0  0  0  0  0  0999 V2000
   38.0620   30.3600   41.8610 N   0  0  0  0  0  0  0  0  0  0  0  0
   36.7700   30.3800   41.4350 C   0  0  0  0  0  0  0  0  0  0  0  0
   36.4820   31.3240   40.4830 C   0  0  0  0  0  0  0  0  0  0  0  0
   37.3840   32.2230   39.9430 C   0  0  0  0  0  0  0  0  0  0  0  0
   37.0600   33.0600   39.0770 O   0  0  0  0  0  0  0  0  0  0  0  0
   38.6500   32.1130   40.4430 N   0  0  0  0  0  0  0  0  0  0  0  0
   38.9800   31.2040   41.3780 C   0  0  0  0  0  0  0  0  0  0  0  0
   40.1910   31.1780   41.7840 O   0  0  0  0  0  0  0  0  0  0  0  0
   41.9030   33.3210   37.3440 N   0  0  0  0  0  0  0  0  0  0  0  0
   41.4180   32.0780   37.0710 C   0  0  0  0  0  0  0  0  0  0  0  0
   40.4720   31.7820   38.0090 N   0  0  0  0  0  0  0  0  0  0  0  0
   40.4210   32.8520   38.8120 C   0  0  0  0  0  0  0  0  0  0  0  0
   39.6100   33.0250   39.9120 C   0  0  0  0  0  0  0  0  0  0  0  0
   39.7120   34.1970   40.6020 N   0  0  0  0  0  0  0  0  0  0  0  0
   40.5750   35.1750   40.2370 C   0  0  0  0  0  0  0  0  0  0  0  0
   41.3590   34.9710   39.1470 N   0  0  0  0  0  0  0  0  0  0  0  0
   41.2970   33.8480   38.4440 C   0  0  0  0  0  0  0  0  0  0  0  0
   38.5010   29.4100   42.8690 C   0  0  0  0  0  0  0  0  0  0  0  0
   39.0850   26.2510   41.0150 C   0  0  0  0  0  0  0  0  0  0  0  0
   38.0600   25.4290   41.4980 C   0  0  0  0  0  0  0  0  0  0  0  0
   37.1890   25.9580   42.4420 C   0  0  0  0  0  0  0  0  0  0  0  0
   37.3700   27.2290   42.8470 N   0  0  0  0  0  0  0  0  0  0  0  0
   38.3720   28.0120   42.3650 C   0  0  0  0  0  0  0  0  0  0  0  0
   39.1910   27.4950   41.4690 N   0  0  0  0  0  0  0  0  0  0  0  0
   36.0101   29.6878   41.8266 H   0  0  0  0  0  0  0  0  0  0  0  0
   35.4455   31.3703   40.1177 H   0  0  0  0  0  0  0  0  0  0  0  0
   42.6304   33.7984   36.7927 H   0  0  0  0  0  0  0  0  0  0  0  0
   41.7330   31.4279   36.2415 H   0  0  0  0  0  0  0  0  0  0  0  0
   40.6393   36.1120   40.8097 H   0  0  0  0  0  0  0  0  0  0  0  0
   39.5538   29.6085   43.1186 H   0  0  0  0  0  0  0  0  0  0  0  0
   37.8698   29.5243   43.7626 H   0  0  0  0  0  0  0  0  0  0  0  0
   39.7959   25.8705   40.2667 H   0  0  0  0  0  0  0  0  0  0  0  0
   37.9476   24.3948   41.1406 H   0  0  0  0  0  0  0  0  0  0  0  0
   36.3679   25.3506   42.8504 H   0  0  0  0  0  0  0  0  0  0  0  0
  1 18  1  0
  2  1  1  0
  3  2  2  0
  4  6  1  0
  4  3  1  0
  5  4  2  0
  6  7  1  0
  7  8  2  0
  7  1  1  0
  9 17  1  0
 10  9  1  0
 10 11  2  0
 11 12  1  0
 12 13  1  0
 13  6  1  0
 13 14  2  0
 15 14  1  0
 16 15  2  0
 17 12  2  0
 17 16  1  0
 19 24  2  0
 19 20  1  0
 20 21  2  0
 21 22  1  0
 23 22  2  0
 23 18  1  0
 24 23  1  0
  2 25  1  0
  3 26  1  0
  9 27  1  0
 10 28  1  0
 15 29  1  0
 18 30  1  0
 18 31  1  0
 19 32  1  0
 20 33  1  0
 21 34  1  0
M  ISO  8  25  14  26  14  27   9  28  14  29  14  30   8  31   8  32  14
M  ISO  2  33  14  34  14
M  END
>  <minimizedAffinity>  (1) 
-6.03930616

>  <minimizedRMSD>  (1) 
2.63575053

$$$$
