
     RDKit          3D

 39 42  0  0  0  0  0  0  0  0999 V2000
   36.8890   29.0310   41.8010 N   0  0  0  0  0  0  0  0  0  0  0  0
   35.9150   28.6950   40.9340 C   0  0  0  0  0  0  0  0  0  0  0  0
   35.8770   29.4340   39.7800 C   0  0  0  0  0  0  0  0  0  0  0  0
   36.7360   30.4630   39.4550 C   0  0  0  0  0  0  0  0  0  0  0  0
   36.6540   31.1030   38.3870 O   0  0  0  0  0  0  0  0  0  0  0  0
   37.6800   30.7150   40.4050 N   0  0  0  0  0  0  0  0  0  0  0  0
   37.7620   30.0220   41.5530 C   0  0  0  0  0  0  0  0  0  0  0  0
   38.6770   30.3260   42.3850 O   0  0  0  0  0  0  0  0  0  0  0  0
   38.6310   31.7680   40.1740 C   0  0  0  0  0  0  0  0  0  0  0  0
   38.1520   32.9860   40.6150 C   0  0  0  0  0  0  0  0  0  0  0  0
   38.9610   34.1120   40.4620 C   0  0  0  0  0  0  0  0  0  0  0  0
   40.2220   33.9810   39.8720 C   0  0  0  0  0  0  0  0  0  0  0  0
   40.6650   32.7260   39.4410 C   0  0  0  0  0  0  0  0  0  0  0  0
   41.9120   32.5600   38.8520 C   0  0  0  0  0  0  0  0  0  0  0  0
   42.3180   31.3010   38.4350 C   0  0  0  0  0  0  0  0  0  0  0  0
   41.4760   30.2170   38.6120 C   0  0  0  0  0  0  0  0  0  0  0  0
   40.2190   30.3340   39.1960 C   0  0  0  0  0  0  0  0  0  0  0  0
   39.8710   31.6060   39.5880 C   0  0  0  0  0  0  0  0  0  0  0  0
   37.0510   28.3330   43.0680 C   0  0  0  0  0  0  0  0  0  0  0  0
   39.6340   25.6740   42.9030 C   0  0  0  0  0  0  0  0  0  0  0  0
   38.8910   24.5740   42.4510 C   0  0  0  0  0  0  0  0  0  0  0  0
   37.5350   24.7490   42.2110 C   0  0  0  0  0  0  0  0  0  0  0  0
   36.9910   25.9620   42.4220 N   0  0  0  0  0  0  0  0  0  0  0  0
   37.7210   27.0220   42.8590 C   0  0  0  0  0  0  0  0  0  0  0  0
   39.0160   26.8350   43.0820 N   0  0  0  0  0  0  0  0  0  0  0  0
   35.1999   27.8843   41.1375 H   0  0  0  0  0  0  0  0  0  0  0  0
   35.0932   29.1846   39.0496 H   0  0  0  0  0  0  0  0  0  0  0  0
   37.1564   33.0662   41.0758 H   0  0  0  0  0  0  0  0  0  0  0  0
   38.6092   35.0968   40.8033 H   0  0  0  0  0  0  0  0  0  0  0  0
   40.8654   34.8644   39.7468 H   0  0  0  0  0  0  0  0  0  0  0  0
   42.5767   33.4259   38.7165 H   0  0  0  0  0  0  0  0  0  0  0  0
   43.3038   31.1649   37.9662 H   0  0  0  0  0  0  0  0  0  0  0  0
   41.8138   29.2248   38.2780 H   0  0  0  0  0  0  0  0  0  0  0  0
   39.5509   29.4712   39.3345 H   0  0  0  0  0  0  0  0  0  0  0  0
   37.6625   28.9482   43.7445 H   0  0  0  0  0  0  0  0  0  0  0  0
   36.0578   28.1586   43.5074 H   0  0  0  0  0  0  0  0  0  0  0  0
   40.7107   25.5764   43.1058 H   0  0  0  0  0  0  0  0  0  0  0  0
   39.3706   23.5971   42.2907 H   0  0  0  0  0  0  0  0  0  0  0  0
   36.9165   23.9119   41.8550 H   0  0  0  0  0  0  0  0  0  0  0  0
  1 19  1  0
  2  1  1  0
  3  2  2  0
  4  3  1  0
  4  6  1  0
  5  4  2  0
  6  7  1  0
  7  1  1  0
  7  8  2  0
  9  6  1  0
  9 10  2  0
 11 10  1  0
 12 11  2  0
 13 18  2  0
 13 12  1  0
 14 13  1  0
 15 16  1  0
 15 14  2  0
 16 17  2  0
 17 18  1  0
 18  9  1  0
 20 25  2  0
 21 20  1  0
 22 23  1  0
 22 21  2  0
 23 24  2  0
 24 19  1  0
 24 25  1  0
  2 26  1  0
  3 27  1  0
 10 28  1  0
 11 29  1  0
 12 30  1  0
 14 31  1  0
 15 32  1  0
 16 33  1  0
 17 34  1  0
 19 35  1  0
 19 36  1  0
 20 37  1  0
 21 38  1  0
 22 39  1  0
M  ISO  8  26  14  27  14  28  14  29  14  30  14  31  14  32  14  33  14
M  ISO  6  34  14  35   8  36   8  37  14  38  14  39  14
M  END
>  <minimizedAffinity>  (1) 
-5.74970818

>  <minimizedRMSD>  (1) 
2.19845629

$$$$
