
     RDKit          3D

 31 33  0  0  0  0  0  0  0  0999 V2000
   37.0830   28.9410   42.2180 N   0  0  0  0  0  0  0  0  0  0  0  0
   36.0510   28.5520   41.4360 C   0  0  0  0  0  0  0  0  0  0  0  0
   35.8990   29.2330   40.2460 C   0  0  0  0  0  0  0  0  0  0  0  0
   36.7350   30.2640   39.8360 C   0  0  0  0  0  0  0  0  0  0  0  0
   36.5480   30.8460   38.7420 O   0  0  0  0  0  0  0  0  0  0  0  0
   37.7320   30.5690   40.6940 N   0  0  0  0  0  0  0  0  0  0  0  0
   37.9080   29.9270   41.8610 C   0  0  0  0  0  0  0  0  0  0  0  0
   38.8810   30.2910   42.6010 O   0  0  0  0  0  0  0  0  0  0  0  0
   38.5920   31.6280   40.2760 C   0  0  0  0  0  0  0  0  0  0  0  0
   39.7760   31.5850   39.5540 C   0  0  0  0  0  0  0  0  0  0  0  0
   40.4150   32.7770   39.2840 C   0  0  0  0  0  0  0  0  0  0  0  0
   39.9290   33.9510   39.6930 N   0  0  0  0  0  0  0  0  0  0  0  0
   38.7770   33.9820   40.3950 C   0  0  0  0  0  0  0  0  0  0  0  0
   38.1240   32.8450   40.6790 N   0  0  0  0  0  0  0  0  0  0  0  0
   37.3440   28.2970   43.4980 C   0  0  0  0  0  0  0  0  0  0  0  0
   40.1380   25.8600   43.7010 C   0  0  0  0  0  0  0  0  0  0  0  0
   39.6620   24.7970   42.9210 C   0  0  0  0  0  0  0  0  0  0  0  0
   38.4060   24.9260   42.3410 C   0  0  0  0  0  0  0  0  0  0  0  0
   37.6980   26.0600   42.5510 N   0  0  0  0  0  0  0  0  0  0  0  0
   38.1830   27.0750   43.3120 C   0  0  0  0  0  0  0  0  0  0  0  0
   39.3770   26.9490   43.8600 N   0  0  0  0  0  0  0  0  0  0  0  0
   35.3715   27.7391   41.7317 H   0  0  0  0  0  0  0  0  0  0  0  0
   35.0692   28.9434   39.5845 H   0  0  0  0  0  0  0  0  0  0  0  0
   40.1929   30.6280   39.2070 H   0  0  0  0  0  0  0  0  0  0  0  0
   41.3552   32.7597   38.7133 H   0  0  0  0  0  0  0  0  0  0  0  0
   38.3708   34.9455   40.7365 H   0  0  0  0  0  0  0  0  0  0  0  0
   37.8734   29.0020   44.1558 H   0  0  0  0  0  0  0  0  0  0  0  0
   36.3846   28.0025   43.9483 H   0  0  0  0  0  0  0  0  0  0  0  0
   41.1275   25.7995   44.1777 H   0  0  0  0  0  0  0  0  0  0  0  0
   40.2643   23.8886   42.7726 H   0  0  0  0  0  0  0  0  0  0  0  0
   37.9929   24.1176   41.7198 H   0  0  0  0  0  0  0  0  0  0  0  0
  1 15  1  0
  2  1  1  0
  3  2  2  0
  4  3  1  0
  4  6  1  0
  5  4  2  0
  6  7  1  0
  7  1  1  0
  7  8  2  0
  9 14  1  0
  9  6  1  0
 10  9  2  0
 11 10  1  0
 11 12  2  0
 12 13  1  0
 13 14  2  0
 16 21  2  0
 17 16  1  0
 18 19  1  0
 18 17  2  0
 19 20  2  0
 20 15  1  0
 20 21  1  0
  2 22  1  0
  3 23  1  0
 10 24  1  0
 11 25  1  0
 13 26  1  0
 15 27  1  0
 15 28  1  0
 16 29  1  0
 17 30  1  0
 18 31  1  0
M  ISO  8  22  14  23  14  24  14  25  14  26  14  27   8  28   8  29  14
M  ISO  2  30  14  31  14
M  END
>  <minimizedAffinity>  (1) 
-5.45342207

>  <minimizedRMSD>  (1) 
1.67373037

$$$$
