
     RDKit          3D

 30 32  0  0  0  0  0  0  0  0999 V2000
   37.8340   30.3330   41.7200 N   0  0  0  0  0  0  0  0  0  0  0  0
   36.6990   30.1160   41.0150 C   0  0  0  0  0  0  0  0  0  0  0  0
   36.4500   31.0190   40.0030 C   0  0  0  0  0  0  0  0  0  0  0  0
   37.2550   32.0880   39.6760 C   0  0  0  0  0  0  0  0  0  0  0  0
   36.9660   32.8640   38.7450 O   0  0  0  0  0  0  0  0  0  0  0  0
   38.3510   32.1920   40.4510 N   0  0  0  0  0  0  0  0  0  0  0  0
   38.6640   31.3600   41.4510 C   0  0  0  0  0  0  0  0  0  0  0  0
   39.7200   31.5510   42.1170 O   0  0  0  0  0  0  0  0  0  0  0  0
   39.2550   33.2820   40.1850 C   0  0  0  0  0  0  0  0  0  0  0  0
   39.0860   34.5800   40.6970 C   0  0  0  0  0  0  0  0  0  0  0  0
   40.0250   35.5140   40.3590 C   0  0  0  0  0  0  0  0  0  0  0  0
   41.1010   35.1590   39.5370 C   0  0  0  0  0  0  0  0  0  0  0  0
   40.7330   33.3320   39.2190 S   0  0  0  0  0  0  0  0  0  0  0  0
   38.2130   29.4520   42.8160 C   0  0  0  0  0  0  0  0  0  0  0  0
   39.2740   26.3030   41.1540 C   0  0  0  0  0  0  0  0  0  0  0  0
   38.2660   25.4090   41.5520 C   0  0  0  0  0  0  0  0  0  0  0  0
   37.2490   25.8890   42.3740 C   0  0  0  0  0  0  0  0  0  0  0  0
   37.2790   27.1860   42.7490 N   0  0  0  0  0  0  0  0  0  0  0  0
   38.2640   28.0310   42.3500 C   0  0  0  0  0  0  0  0  0  0  0  0
   39.2230   27.5680   41.5720 N   0  0  0  0  0  0  0  0  0  0  0  0
   36.0220   29.2772   41.2342 H   0  0  0  0  0  0  0  0  0  0  0  0
   35.5354   30.8741   39.4093 H   0  0  0  0  0  0  0  0  0  0  0  0
   38.2329   34.8338   41.3433 H   0  0  0  0  0  0  0  0  0  0  0  0
   39.9351   36.5446   40.7329 H   0  0  0  0  0  0  0  0  0  0  0  0
   41.9357   35.7766   39.1739 H   0  0  0  0  0  0  0  0  0  0  0  0
   39.2044   29.7461   43.1911 H   0  0  0  0  0  0  0  0  0  0  0  0
   37.4646   29.5378   43.6176 H   0  0  0  0  0  0  0  0  0  0  0  0
   40.0951   25.9635   40.5055 H   0  0  0  0  0  0  0  0  0  0  0  0
   38.2795   24.3592   41.2237 H   0  0  0  0  0  0  0  0  0  0  0  0
   36.4386   25.2256   42.7105 H   0  0  0  0  0  0  0  0  0  0  0  0
  1 14  1  0
  2  1  1  0
  3  2  2  0
  4  3  1  0
  4  6  1  0
  5  4  2  0
  6  7  1  0
  7  1  1  0
  7  8  2  0
  9  6  1  0
  9 10  2  0
 11 10  1  0
 12 11  2  0
 13 12  1  0
 13  9  1  0
 15 16  2  0
 15 20  1  0
 16 17  1  0
 17 18  2  0
 19 18  1  0
 19 14  1  0
 20 19  2  0
  2 21  1  0
  3 22  1  0
 10 23  1  0
 11 24  1  0
 12 25  1  0
 14 26  1  0
 14 27  1  0
 15 28  1  0
 16 29  1  0
 17 30  1  0
M  ISO  8  21  14  22  14  23  14  24  14  25  14  26   8  27   8  28  14
M  ISO  2  29  14  30  14
M  END
>  <minimizedAffinity>  (1) 
-5.21411562

>  <minimizedRMSD>  (1) 
2.3066566

$$$$
