
     RDKit          3D

 35 37  0  0  1  0  0  0  0  0999 V2000
   36.9090   28.9560   42.0500 N   0  0  0  0  0  0  0  0  0  0  0  0
   35.9210   28.7400   41.1390 C   0  0  0  0  0  0  0  0  0  0  0  0
   35.9620   29.5450   40.0270 C   0  0  0  0  0  0  0  0  0  0  0  0
   36.9160   30.5280   39.7890 C   0  0  0  0  0  0  0  0  0  0  0  0
   36.8740   31.2150   38.7480 O   0  0  0  0  0  0  0  0  0  0  0  0
   37.8410   30.6450   40.7640 N   0  0  0  0  0  0  0  0  0  0  0  0
   37.8430   29.8840   41.8650 C   0  0  0  0  0  0  0  0  0  0  0  0
   38.7670   30.0790   42.7260 O   0  0  0  0  0  0  0  0  0  0  0  0
   39.5910   31.5870   39.3720 N   0  0  0  0  0  0  0  0  0  0  0  0
   40.0540   32.9060   39.0730 C   0  0  0  0  0  0  0  0  0  0  0  0
   39.4940   33.8530   40.1190 C   0  0  0  0  0  0  0  0  0  0  0  0
   38.3340   33.0570   40.6860 C   0  0  0  0  0  0  0  0  0  0  0  0
   38.8690   31.6440   40.5950 C   0  0  1  0  0  0  0  0  0  0  0  0
   36.9740   28.1690   43.2640 C   0  0  0  0  0  0  0  0  0  0  0  0
   39.6150   25.5630   43.2080 C   0  0  0  0  0  0  0  0  0  0  0  0
   38.9730   24.5040   42.5660 C   0  0  0  0  0  0  0  0  0  0  0  0
   37.6580   24.6880   42.1630 C   0  0  0  0  0  0  0  0  0  0  0  0
   37.0460   25.8730   42.4010 N   0  0  0  0  0  0  0  0  0  0  0  0
   37.7030   26.8900   43.0320 C   0  0  0  0  0  0  0  0  0  0  0  0
   38.9540   26.7010   43.4090 N   0  0  0  0  0  0  0  0  0  0  0  0
   35.1443   27.9745   41.2833 H   0  0  0  0  0  0  0  0  0  0  0  0
   35.1803   29.4010   39.2666 H   0  0  0  0  0  0  0  0  0  0  0  0
   40.3931   30.9481   39.4686 H   0  0  0  0  0  0  0  0  0  0  0  0
   41.1534   32.9298   39.0995 H   0  0  0  0  0  0  0  0  0  0  0  0
   39.7202   33.2077   38.0692 H   0  0  0  0  0  0  0  0  0  0  0  0
   40.2410   34.0766   40.8949 H   0  0  0  0  0  0  0  0  0  0  0  0
   39.2004   34.8329   39.7146 H   0  0  0  0  0  0  0  0  0  0  0  0
   38.1222   33.3408   41.7274 H   0  0  0  0  0  0  0  0  0  0  0  0
   37.3814   33.2121   40.1582 H   0  0  0  0  0  0  0  0  0  0  0  0
   39.5471   31.3992   41.4258 H   0  0  0  0  0  0  0  0  0  0  0  0
   37.4983   28.7465   44.0396 H   0  0  0  0  0  0  0  0  0  0  0  0
   35.9485   27.9349   43.5856 H   0  0  0  0  0  0  0  0  0  0  0  0
   40.6570   25.4589   43.5448 H   0  0  0  0  0  0  0  0  0  0  0  0
   39.4934   23.5520   42.3847 H   0  0  0  0  0  0  0  0  0  0  0  0
   37.1162   23.8773   41.6538 H   0  0  0  0  0  0  0  0  0  0  0  0
  1 14  1  0
  2  1  1  0
  3  2  2  0
  4  3  1  0
  4  6  1  0
  5  4  2  0
  6  7  1  0
  7  1  1  0
  7  8  2  0
  9 13  1  0
 10  9  1  0
 10 11  1  0
 11 12  1  0
 13 12  1  0
 13  6  1  0
 15 20  2  0
 16 15  1  0
 17 18  1  0
 17 16  2  0
 18 19  2  0
 19 14  1  0
 19 20  1  0
  2 21  1  0
  3 22  1  0
  9 23  1  0
 10 24  1  0
 10 25  1  0
 11 26  1  0
 11 27  1  0
 12 28  1  0
 12 29  1  0
 13 30  1  1
 14 31  1  0
 14 32  1  0
 15 33  1  0
 16 34  1  0
 17 35  1  0
M  ISO  8  21  14  22  14  23   5  24  13  25  13  26  13  27  13  28  13
M  ISO  7  29  13  30  13  31   8  32   8  33  14  34  14  35  14
M  END
>  <minimizedAffinity>  (1) 
-5.11111641

>  <minimizedRMSD>  (1) 
1.63841081

$$$$
