
     RDKit          3D

 35 36  0  0  0  0  0  0  0  0999 V2000
   36.9940   28.8480   42.2100 N   0  0  0  0  0  0  0  0  0  0  0  0
   35.9850   28.4990   41.3870 C   0  0  0  0  0  0  0  0  0  0  0  0
   35.8870   29.2230   40.2280 C   0  0  0  0  0  0  0  0  0  0  0  0
   36.7330   30.2450   39.8770 C   0  0  0  0  0  0  0  0  0  0  0  0
   36.6060   30.8880   38.8030 O   0  0  0  0  0  0  0  0  0  0  0  0
   37.7200   30.5110   40.7860 N   0  0  0  0  0  0  0  0  0  0  0  0
   37.8460   29.8280   41.9240 C   0  0  0  0  0  0  0  0  0  0  0  0
   38.8010   30.1590   42.7060 O   0  0  0  0  0  0  0  0  0  0  0  0
   38.6620   31.5710   40.4970 C   0  0  0  0  0  0  0  0  0  0  0  0
   39.4370   31.4220   39.2260 C   0  0  0  0  0  0  0  0  0  0  0  0
   37.9610   32.9220   40.3860 C   0  0  0  0  0  0  0  0  0  0  0  0
   39.6930   31.6710   41.6040 C   0  0  0  0  0  0  0  0  0  0  0  0
   37.2110   28.1630   43.4840 C   0  0  0  0  0  0  0  0  0  0  0  0
   40.0700   25.8120   43.6920 C   0  0  0  0  0  0  0  0  0  0  0  0
   39.6260   24.7450   42.8950 C   0  0  0  0  0  0  0  0  0  0  0  0
   38.3730   24.8390   42.3040 C   0  0  0  0  0  0  0  0  0  0  0  0
   37.6390   25.9490   42.5220 N   0  0  0  0  0  0  0  0  0  0  0  0
   38.0850   26.9680   43.2940 C   0  0  0  0  0  0  0  0  0  0  0  0
   39.2790   26.8670   43.8510 N   0  0  0  0  0  0  0  0  0  0  0  0
   35.2856   27.6856   41.6302 H   0  0  0  0  0  0  0  0  0  0  0  0
   35.0749   28.9677   39.5313 H   0  0  0  0  0  0  0  0  0  0  0  0
   40.4922   31.2191   39.4616 H   0  0  0  0  0  0  0  0  0  0  0  0
   39.0248   30.5867   38.6410 H   0  0  0  0  0  0  0  0  0  0  0  0
   39.3639   32.3506   38.6410 H   0  0  0  0  0  0  0  0  0  0  0  0
   37.7578   33.3136   41.3937 H   0  0  0  0  0  0  0  0  0  0  0  0
   38.6072   33.6268   39.8422 H   0  0  0  0  0  0  0  0  0  0  0  0
   37.0127   32.7995   39.8422 H   0  0  0  0  0  0  0  0  0  0  0  0
   39.1886   31.6221   42.5803 H   0  0  0  0  0  0  0  0  0  0  0  0
   40.4059   30.8378   41.5174 H   0  0  0  0  0  0  0  0  0  0  0  0
   40.2325   32.6257   41.5174 H   0  0  0  0  0  0  0  0  0  0  0  0
   37.6933   28.8555   44.1896 H   0  0  0  0  0  0  0  0  0  0  0  0
   36.2392   27.8331   43.8801 H   0  0  0  0  0  0  0  0  0  0  0  0
   41.0567   25.7749   44.1768 H   0  0  0  0  0  0  0  0  0  0  0  0
   40.2555   23.8559   42.7424 H   0  0  0  0  0  0  0  0  0  0  0  0
   37.9875   24.0256   41.6717 H   0  0  0  0  0  0  0  0  0  0  0  0
  1 13  1  0
  2  1  1  0
  3  2  2  0
  4  3  1  0
  4  6  1  0
  5  4  2  0
  6  7  1  0
  7  1  1  0
  7  8  2  0
  9  6  1  0
  9 12  1  0
 10  9  1  0
 11  9  1  0
 14 19  2  0
 15 14  1  0
 16 17  1  0
 16 15  2  0
 17 18  2  0
 18 13  1  0
 18 19  1  0
  2 20  1  0
  3 21  1  0
 10 22  1  0
 10 23  1  0
 10 24  1  0
 11 25  1  0
 11 26  1  0
 11 27  1  0
 12 28  1  0
 12 29  1  0
 12 30  1  0
 13 31  1  0
 13 32  1  0
 14 33  1  0
 15 34  1  0
 16 35  1  0
M  ISO  8  20  14  21  14  22   8  23   8  24   8  25   8  26   8  27   8
M  ISO  8  28   8  29   8  30   8  31   8  32   8  33  14  34  14  35  14
M  END
>  <minimizedAffinity>  (1) 
-4.9848671

>  <minimizedRMSD>  (1) 
1.39521527

$$$$
