
     RDKit          3D

 30 32  0  0  0  0  0  0  0  0999 V2000
   36.8870   28.8450   42.0620 N   0  0  0  0  0  0  0  0  0  0  0  0
   35.9000   28.7280   41.1500 C   0  0  0  0  0  0  0  0  0  0  0  0
   35.8690   29.7110   40.1940 C   0  0  0  0  0  0  0  0  0  0  0  0
   36.7620   30.7750   40.1200 C   0  0  0  0  0  0  0  0  0  0  0  0
   36.6970   31.6480   39.2300 O   0  0  0  0  0  0  0  0  0  0  0  0
   37.7100   30.7970   41.0780 N   0  0  0  0  0  0  0  0  0  0  0  0
   37.7820   29.8520   42.0420 C   0  0  0  0  0  0  0  0  0  0  0  0
   38.7080   29.9350   42.9220 O   0  0  0  0  0  0  0  0  0  0  0  0
   37.0400   27.8750   43.1340 C   0  0  0  0  0  0  0  0  0  0  0  0
   39.4570   25.3590   41.8540 C   0  0  0  0  0  0  0  0  0  0  0  0
   38.6290   24.2540   41.6460 C   0  0  0  0  0  0  0  0  0  0  0  0
   37.2760   24.3580   41.9340 C   0  0  0  0  0  0  0  0  0  0  0  0
   36.8200   25.5350   42.4080 N   0  0  0  0  0  0  0  0  0  0  0  0
   37.6360   26.6100   42.6070 C   0  0  0  0  0  0  0  0  0  0  0  0
   38.9190   26.4900   42.3270 N   0  0  0  0  0  0  0  0  0  0  0  0
   38.6520   31.9000   41.0180 C   0  0  0  0  0  0  0  0  0  0  0  0
   40.0930   31.5190   40.5660 C   0  0  0  0  0  0  0  0  0  0  0  0
   39.2190   32.3880   39.7490 C   0  0  0  0  0  0  0  0  0  0  0  0
   35.1723   27.9034   41.1715 H   0  0  0  0  0  0  0  0  0  0  0  0
   35.0800   29.6538   39.4296 H   0  0  0  0  0  0  0  0  0  0  0  0
   37.6999   28.2918   43.9091 H   0  0  0  0  0  0  0  0  0  0  0  0
   36.0505   27.6540   43.5608 H   0  0  0  0  0  0  0  0  0  0  0  0
   40.5330   25.3012   41.6330 H   0  0  0  0  0  0  0  0  0  0  0  0
   39.0447   23.3122   41.2584 H   0  0  0  0  0  0  0  0  0  0  0  0
   36.5964   23.5068   41.7805 H   0  0  0  0  0  0  0  0  0  0  0  0
   38.1528   32.4082   41.8562 H   0  0  0  0  0  0  0  0  0  0  0  0
   40.9673   31.9401   41.0840 H   0  0  0  0  0  0  0  0  0  0  0  0
   40.6486   30.5833   40.4053 H   0  0  0  0  0  0  0  0  0  0  0  0
   39.4658   33.4547   39.6432 H   0  0  0  0  0  0  0  0  0  0  0  0
   38.8777   32.3477   38.7041 H   0  0  0  0  0  0  0  0  0  0  0  0
  1  9  1  0
  2  1  1  0
  3  2  2  0
  4  3  1  0
  4  6  1  0
  5  4  2  0
  6  7  1  0
  7  1  1  0
  7  8  2  0
 10 15  2  0
 11 10  1  0
 11 12  2  0
 12 13  1  0
 13 14  2  0
 14  9  1  0
 15 14  1  0
 16  6  1  0
 17 16  1  0
 18 17  1  0
 18 16  1  0
  2 19  1  0
  3 20  1  0
  9 21  1  0
  9 22  1  0
 10 23  1  0
 11 24  1  0
 12 25  1  0
 16 26  1  0
 17 27  1  0
 17 28  1  0
 18 29  1  0
 18 30  1  0
M  ISO  8  19  14  20  14  21   8  22   8  23  14  24  14  25  14  26  13
M  ISO  4  27  13  28  13  29  13  30  13
M  END
>  <minimizedAffinity>  (1) 
-4.5091939

>  <minimizedRMSD>  (1) 
1.01510167

$$$$
