
     RDKit          3D

 48 52  0  0  0  0  0  0  0  0999 V2000
   37.5380   30.0590   41.7670 N   0  0  0  0  0  0  0  0  0  0  0  0
   36.3650   29.9560   41.1140 C   0  0  0  0  0  0  0  0  0  0  0  0
   36.2910   30.6100   39.9070 C   0  0  0  0  0  0  0  0  0  0  0  0
   37.2930   31.3370   39.3320 C   0  0  0  0  0  0  0  0  0  0  0  0
   37.1960   31.9130   38.2440 O   0  0  0  0  0  0  0  0  0  0  0  0
   38.4430   31.3840   40.0640 N   0  0  0  0  0  0  0  0  0  0  0  0
   38.5740   30.7610   41.2580 C   0  0  0  0  0  0  0  0  0  0  0  0
   39.6850   30.8590   41.8740 O   0  0  0  0  0  0  0  0  0  0  0  0
   39.5610   32.1230   39.5510 C   0  0  0  0  0  0  0  0  0  0  0  0
   40.6490   31.7660   38.8070 C   0  0  0  0  0  0  0  0  0  0  0  0
   41.4200   32.8560   38.5850 N   0  0  0  0  0  0  0  0  0  0  0  0
   40.8260   33.9160   39.1880 C   0  0  0  0  0  0  0  0  0  0  0  0
   41.1690   35.2410   39.2820 C   0  0  0  0  0  0  0  0  0  0  0  0
   40.3880   36.1620   39.9670 C   0  0  0  0  0  0  0  0  0  0  0  0
   39.2160   35.7410   40.5840 C   0  0  0  0  0  0  0  0  0  0  0  0
   38.8970   34.4040   40.4740 C   0  0  0  0  0  0  0  0  0  0  0  0
   39.6680   33.4810   39.7950 C   0  0  0  0  0  0  0  0  0  0  0  0
   37.7610   29.4240   43.0450 C   0  0  0  0  0  0  0  0  0  0  0  0
   40.2520   26.6940   43.2630 C   0  0  0  0  0  0  0  0  0  0  0  0
   39.6570   25.6830   42.4910 C   0  0  0  0  0  0  0  0  0  0  0  0
   38.4270   25.9390   41.9120 C   0  0  0  0  0  0  0  0  0  0  0  0
   37.8680   27.1490   42.1220 N   0  0  0  0  0  0  0  0  0  0  0  0
   38.4550   28.1110   42.8670 C   0  0  0  0  0  0  0  0  0  0  0  0
   39.6330   27.8560   43.4170 N   0  0  0  0  0  0  0  0  0  0  0  0
   37.8010   24.9260   41.1230 N   0  0  0  0  0  0  0  0  0  0  0  0
   38.2150   23.6590   41.3110 C   0  0  0  0  0  0  0  0  0  0  0  0
   37.5980   22.6970   40.5400 C   0  0  0  0  0  0  0  0  0  0  0  0
   36.6260   23.1130   39.6570 C   0  0  0  0  0  0  0  0  0  0  0  0
   35.9820   22.1330   38.8550 N   0  0  0  0  0  0  0  0  0  0  0  0
   36.2550   24.3990   39.5150 N   0  0  0  0  0  0  0  0  0  0  0  0
   36.8550   25.3600   40.2690 C   0  0  0  0  0  0  0  0  0  0  0  0
   36.5520   26.5690   40.1800 O   0  0  0  0  0  0  0  0  0  0  0  0
   35.5182   29.3839   41.5211 H   0  0  0  0  0  0  0  0  0  0  0  0
   35.3412   30.5414   39.3564 H   0  0  0  0  0  0  0  0  0  0  0  0
   40.8652   30.7502   38.4444 H   0  0  0  0  0  0  0  0  0  0  0  0
   42.3015   32.8769   38.0526 H   0  0  0  0  0  0  0  0  0  0  0  0
   42.0947   35.5855   38.7979 H   0  0  0  0  0  0  0  0  0  0  0  0
   40.6945   37.2170   40.0210 H   0  0  0  0  0  0  0  0  0  0  0  0
   38.5722   36.4424   41.1350 H   0  0  0  0  0  0  0  0  0  0  0  0
   37.9731   34.0515   40.9559 H   0  0  0  0  0  0  0  0  0  0  0  0
   38.3838   30.0801   43.6708 H   0  0  0  0  0  0  0  0  0  0  0  0
   36.7884   29.2482   43.5280 H   0  0  0  0  0  0  0  0  0  0  0  0
   41.2289   26.5221   43.7385 H   0  0  0  0  0  0  0  0  0  0  0  0
   40.1560   24.7128   42.3504 H   0  0  0  0  0  0  0  0  0  0  0  0
   39.0006   23.4058   42.0381 H   0  0  0  0  0  0  0  0  0  0  0  0
   37.8721   21.6352   40.6268 H   0  0  0  0  0  0  0  0  0  0  0  0
   35.2513   22.4143   38.1858 H   0  0  0  0  0  0  0  0  0  0  0  0
   36.2458   21.1412   38.9428 H   0  0  0  0  0  0  0  0  0  0  0  0
  1 18  1  0
  2  1  1  0
  3  2  2  0
  4  3  1  0
  4  6  1  0
  5  4  2  0
  6  7  1  0
  7  1  1  0
  7  8  2  0
  9 17  1  0
  9  6  1  0
 10  9  2  0
 11 10  1  0
 11 12  1  0
 12 13  2  0
 12 17  1  0
 13 14  1  0
 14 15  2  0
 16 15  1  0
 17 16  2  0
 19 24  2  0
 20 19  1  0
 21 22  1  0
 21 20  2  0
 22 23  2  0
 23 18  1  0
 23 24  1  0
 25 26  1  0
 25 21  1  0
 27 26  2  0
 28 27  1  0
 29 28  1  0
 30 28  2  0
 30 31  1  0
 31 25  1  0
 32 31  2  0
  2 33  1  0
  3 34  1  0
 10 35  1  0
 11 36  1  0
 13 37  1  0
 14 38  1  0
 15 39  1  0
 16 40  1  0
 18 41  1  0
 18 42  1  0
 19 43  1  0
 20 44  1  0
 26 45  1  0
 27 46  1  0
 29 47  1  0
 29 48  1  0
M  ISO  8  33  14  34  14  35  14  36   9  37  14  38  14  39  14  40  14
M  ISO  6  41   8  42   8  43  14  44  14  45  14  46  14
M  END
>  <minimizedAffinity>  (1) 
-7.22655392

>  <minimizedRMSD>  (1) 
1.64988434

$$$$
