
     RDKit          3D

 51 56  0  0  0  0  0  0  0  0999 V2000
   37.3570   29.6780   41.7880 N   0  0  0  0  0  0  0  0  0  0  0  0
   36.2440   29.5000   41.0490 C   0  0  0  0  0  0  0  0  0  0  0  0
   36.2430   30.0870   39.8080 C   0  0  0  0  0  0  0  0  0  0  0  0
   37.2810   30.8250   39.2880 C   0  0  0  0  0  0  0  0  0  0  0  0
   37.2520   31.3430   38.1630 O   0  0  0  0  0  0  0  0  0  0  0  0
   38.3540   30.9460   40.1080 N   0  0  0  0  0  0  0  0  0  0  0  0
   38.3960   30.3870   41.3330 C   0  0  0  0  0  0  0  0  0  0  0  0
   39.4500   30.5540   42.0350 O   0  0  0  0  0  0  0  0  0  0  0  0
   39.4900   31.6990   39.6540 C   0  0  0  0  0  0  0  0  0  0  0  0
   40.6550   31.3430   39.0160 C   0  0  0  0  0  0  0  0  0  0  0  0
   41.4060   32.4410   38.8050 N   0  0  0  0  0  0  0  0  0  0  0  0
   40.7280   33.5120   39.3070 C   0  0  0  0  0  0  0  0  0  0  0  0
   41.0250   34.8490   39.3610 C   0  0  0  0  0  0  0  0  0  0  0  0
   40.1740   35.7720   39.9260 C   0  0  0  0  0  0  0  0  0  0  0  0
   38.9590   35.3520   40.4710 C   0  0  0  0  0  0  0  0  0  0  0  0
   38.6920   33.9970   40.4000 C   0  0  0  0  0  0  0  0  0  0  0  0
   39.5390   33.0690   39.8360 C   0  0  0  0  0  0  0  0  0  0  0  0
   37.4840   29.1130   43.1130 C   0  0  0  0  0  0  0  0  0  0  0  0
   39.8110   26.3160   43.8000 C   0  0  0  0  0  0  0  0  0  0  0  0
   39.3770   25.3520   42.8980 C   0  0  0  0  0  0  0  0  0  0  0  0
   38.3100   25.6480   42.0690 C   0  0  0  0  0  0  0  0  0  0  0  0
   37.7490   26.8630   42.1840 N   0  0  0  0  0  0  0  0  0  0  0  0
   38.1780   27.7930   43.0650 C   0  0  0  0  0  0  0  0  0  0  0  0
   39.2070   27.4920   43.8560 N   0  0  0  0  0  0  0  0  0  0  0  0
   37.8270   24.6580   41.1080 C   0  0  0  0  0  0  0  0  0  0  0  0
   36.5630   24.1020   41.1000 C   0  0  0  0  0  0  0  0  0  0  0  0
   36.5170   23.2390   40.0600 N   0  0  0  0  0  0  0  0  0  0  0  0
   37.7120   23.2590   39.4440 C   0  0  0  0  0  0  0  0  0  0  0  0
   38.2080   22.5840   38.3450 C   0  0  0  0  0  0  0  0  0  0  0  0
   39.4900   22.7490   37.8620 C   0  0  0  0  0  0  0  0  0  0  0  0
   40.3520   23.6410   38.4980 C   0  0  0  0  0  0  0  0  0  0  0  0
   39.8570   24.3170   39.5970 C   0  0  0  0  0  0  0  0  0  0  0  0
   38.5760   24.1430   40.0710 C   0  0  0  0  0  0  0  0  0  0  0  0
   35.3866   28.9184   41.4186 H   0  0  0  0  0  0  0  0  0  0  0  0
   35.3466   29.9578   39.1837 H   0  0  0  0  0  0  0  0  0  0  0  0
   40.9310   30.3193   38.7231 H   0  0  0  0  0  0  0  0  0  0  0  0
   42.3279   32.4669   38.3463 H   0  0  0  0  0  0  0  0  0  0  0  0
   41.9785   35.1974   38.9373 H   0  0  0  0  0  0  0  0  0  0  0  0
   40.4502   36.8365   39.9480 H   0  0  0  0  0  0  0  0  0  0  0  0
   38.2535   36.0595   40.9312 H   0  0  0  0  0  0  0  0  0  0  0  0
   37.7417   33.6371   40.8212 H   0  0  0  0  0  0  0  0  0  0  0  0
   38.0642   29.8021   43.7442 H   0  0  0  0  0  0  0  0  0  0  0  0
   36.4769   28.9655   43.5300 H   0  0  0  0  0  0  0  0  0  0  0  0
   40.6578   26.1011   44.4684 H   0  0  0  0  0  0  0  0  0  0  0  0
   39.8729   24.3716   42.8443 H   0  0  0  0  0  0  0  0  0  0  0  0
   35.7480   24.3199   41.8059 H   0  0  0  0  0  0  0  0  0  0  0  0
   35.7064   22.6653   39.7868 H   0  0  0  0  0  0  0  0  0  0  0  0
   37.5444   21.8762   37.8267 H   0  0  0  0  0  0  0  0  0  0  0  0
   39.8288   22.1816   36.9827 H   0  0  0  0  0  0  0  0  0  0  0  0
   41.3803   23.7997   38.1410 H   0  0  0  0  0  0  0  0  0  0  0  0
   40.5169   25.0269   40.1172 H   0  0  0  0  0  0  0  0  0  0  0  0
  1 18  1  0
  2  1  1  0
  3  2  2  0
  4  3  1  0
  4  6  1  0
  5  4  2  0
  6  7  1  0
  7  1  1  0
  7  8  2  0
  9 17  1  0
  9  6  1  0
 10  9  2  0
 11 10  1  0
 11 12  1  0
 12 13  2  0
 12 17  1  0
 13 14  1  0
 14 15  2  0
 16 15  1  0
 17 16  2  0
 19 24  2  0
 20 19  1  0
 21 22  1  0
 21 20  2  0
 22 23  2  0
 23 18  1  0
 23 24  1  0
 25 21  1  0
 26 25  2  0
 27 26  1  0
 28 27  1  0
 28 33  2  0
 29 28  1  0
 30 29  2  0
 30 31  1  0
 31 32  2  0
 32 33  1  0
 33 25  1  0
  2 34  1  0
  3 35  1  0
 10 36  1  0
 11 37  1  0
 13 38  1  0
 14 39  1  0
 15 40  1  0
 16 41  1  0
 18 42  1  0
 18 43  1  0
 19 44  1  0
 20 45  1  0
 26 46  1  0
 27 47  1  0
 29 48  1  0
 30 49  1  0
 31 50  1  0
 32 51  1  0
M  ISO  8  34  14  35  14  36  14  37   9  38  14  39  14  40  14  41  14
M  ISO  8  42   8  43   8  44  14  45  14  46  14  47   9  48  14  49  14
M  ISO  2  50  14  51  14
M  END
>  <minimizedAffinity>  (1) 
-7.22415733

>  <minimizedRMSD>  (1) 
2.01316667

$$$$
