
     RDKit          3D

 11 11  0  0  0  0  0  0  0  0999 V2000
   38.3810   29.0230   43.3140 C   0  0  0  0  0  0  0  0  0  0  0  0
   37.8400   27.7730   43.6560 C   0  0  0  0  0  0  0  0  0  0  0  0
   36.7380   27.3040   42.9390 C   0  0  0  0  0  0  0  0  0  0  0  0
   36.2390   28.0890   41.9370 N   0  0  0  0  0  0  0  0  0  0  0  0
   36.7810   29.2860   41.6320 C   0  0  0  0  0  0  0  0  0  0  0  0
   37.8380   29.7450   42.3140 N   0  0  0  0  0  0  0  0  0  0  0  0
   36.0700   30.2610   40.3030 S   0  0  0  0  0  0  0  0  0  0  0  0
   39.2500   29.4137   43.8637 H   0  0  0  0  0  0  0  0  0  0  0  0
   38.2752   27.1764   44.4713 H   0  0  0  0  0  0  0  0  0  0  0  0
   36.2837   26.3300   43.1736 H   0  0  0  0  0  0  0  0  0  0  0  0
   35.3257   31.2817   40.8332 H   0  0  0  0  0  0  0  0  0  0  0  0
  1  2  2  0
  3  2  1  0
  4  3  2  0
  5  4  1  0
  5  6  2  0
  6  1  1  0
  7  5  1  0
  1  8  1  0
  2  9  1  0
  3 10  1  0
  7 11  1  0
M  ISO  4   8  14   9  14  10  14  11  11
M  END
>  <minimizedAffinity>  (1) 
-2.63906217

>  <minimizedRMSD>  (1) 
0.240956888

$$$$
