
     RDKit          3D

 45 49  0  0  0  0  0  0  0  0999 V2000
   37.3690   29.7010   41.7910 N   0  0  0  0  0  0  0  0  0  0  0  0
   36.2310   29.5480   41.0680 C   0  0  0  0  0  0  0  0  0  0  0  0
   36.2200   30.1570   39.8340 C   0  0  0  0  0  0  0  0  0  0  0  0
   37.2550   30.8930   39.2970 C   0  0  0  0  0  0  0  0  0  0  0  0
   37.2080   31.4250   38.1850 O   0  0  0  0  0  0  0  0  0  0  0  0
   38.3480   30.9840   40.1040 N   0  0  0  0  0  0  0  0  0  0  0  0
   38.4110   30.4080   41.3190 C   0  0  0  0  0  0  0  0  0  0  0  0
   39.4810   30.5470   42.0080 O   0  0  0  0  0  0  0  0  0  0  0  0
   39.4850   31.7310   39.6370 C   0  0  0  0  0  0  0  0  0  0  0  0
   40.6310   31.3680   38.9790 C   0  0  0  0  0  0  0  0  0  0  0  0
   41.3880   32.4660   38.7670 N   0  0  0  0  0  0  0  0  0  0  0  0
   40.7220   33.5390   39.2930 C   0  0  0  0  0  0  0  0  0  0  0  0
   41.0340   34.8640   39.3500 C   0  0  0  0  0  0  0  0  0  0  0  0
   40.1940   35.8010   39.9440 C   0  0  0  0  0  0  0  0  0  0  0  0
   38.9900   35.3740   40.5010 C   0  0  0  0  0  0  0  0  0  0  0  0
   38.7070   34.0340   40.4250 C   0  0  0  0  0  0  0  0  0  0  0  0
   39.5410   33.1000   39.8350 C   0  0  0  0  0  0  0  0  0  0  0  0
   37.5030   29.1080   43.1030 C   0  0  0  0  0  0  0  0  0  0  0  0
   39.9800   26.3940   43.6040 C   0  0  0  0  0  0  0  0  0  0  0  0
   39.4530   25.3710   42.7920 C   0  0  0  0  0  0  0  0  0  0  0  0
   38.2860   25.6210   42.1010 C   0  0  0  0  0  0  0  0  0  0  0  0
   37.7110   26.8190   42.2340 N   0  0  0  0  0  0  0  0  0  0  0  0
   38.2220   27.8030   43.0200 C   0  0  0  0  0  0  0  0  0  0  0  0
   39.3390   27.5600   43.6800 N   0  0  0  0  0  0  0  0  0  0  0  0
   37.6970   24.5980   41.2450 C   0  0  0  0  0  0  0  0  0  0  0  0
   38.3420   23.3890   41.0930 C   0  0  0  0  0  0  0  0  0  0  0  0
   37.7290   22.4690   40.2690 C   0  0  0  0  0  0  0  0  0  0  0  0
   36.5770   22.6810   39.6300 N   0  0  0  0  0  0  0  0  0  0  0  0
   35.9790   23.8890   39.8140 C   0  0  0  0  0  0  0  0  0  0  0  0
   36.5330   24.8370   40.6110 N   0  0  0  0  0  0  0  0  0  0  0  0
   35.3717   28.9736   41.4444 H   0  0  0  0  0  0  0  0  0  0  0  0
   35.3101   30.0476   39.2256 H   0  0  0  0  0  0  0  0  0  0  0  0
   40.8927   30.3446   38.6722 H   0  0  0  0  0  0  0  0  0  0  0  0
   42.3027   32.4911   38.2941 H   0  0  0  0  0  0  0  0  0  0  0  0
   41.9832   35.2051   38.9111 H   0  0  0  0  0  0  0  0  0  0  0  0
   40.4763   36.8637   39.9735 H   0  0  0  0  0  0  0  0  0  0  0  0
   38.2969   36.0807   40.9807 H   0  0  0  0  0  0  0  0  0  0  0  0
   37.7602   33.6803   40.8591 H   0  0  0  0  0  0  0  0  0  0  0  0
   38.0693   29.7918   43.7524 H   0  0  0  0  0  0  0  0  0  0  0  0
   36.4989   28.9333   43.5169 H   0  0  0  0  0  0  0  0  0  0  0  0
   40.9099   26.2325   44.1689 H   0  0  0  0  0  0  0  0  0  0  0  0
   39.9592   24.3977   42.7111 H   0  0  0  0  0  0  0  0  0  0  0  0
   39.2929   23.1705   41.6009 H   0  0  0  0  0  0  0  0  0  0  0  0
   38.2223   21.4958   40.1292 H   0  0  0  0  0  0  0  0  0  0  0  0
   35.0267   24.1016   39.3061 H   0  0  0  0  0  0  0  0  0  0  0  0
  1 18  1  0
  2  1  1  0
  3  2  2  0
  4  3  1  0
  4  6  1  0
  5  4  2  0
  6  7  1  0
  7  1  1  0
  7  8  2  0
  9 17  1  0
  9  6  1  0
 10  9  2  0
 11 10  1  0
 11 12  1  0
 12 13  2  0
 12 17  1  0
 13 14  1  0
 14 15  2  0
 16 15  1  0
 17 16  2  0
 19 24  2  0
 20 19  1  0
 21 22  1  0
 21 20  2  0
 22 23  2  0
 23 18  1  0
 23 24  1  0
 25 21  1  0
 26 25  2  0
 27 26  1  0
 28 29  1  0
 28 27  2  0
 29 30  2  0
 30 25  1  0
  2 31  1  0
  3 32  1  0
 10 33  1  0
 11 34  1  0
 13 35  1  0
 14 36  1  0
 15 37  1  0
 16 38  1  0
 18 39  1  0
 18 40  1  0
 19 41  1  0
 20 42  1  0
 26 43  1  0
 27 44  1  0
 29 45  1  0
M  ISO  8  31  14  32  14  33  14  34   9  35  14  36  14  37  14  38  14
M  ISO  7  39   8  40   8  41  14  42  14  43  14  44  14  45  14
M  END
>  <minimizedAffinity>  (1) 
-6.98684311

>  <minimizedRMSD>  (1) 
1.43305743

$$$$
