
     RDKit          3D

 44 48  0  0  0  0  0  0  0  0999 V2000
   37.6460   30.0770   41.9560 N   0  0  0  0  0  0  0  0  0  0  0  0
   36.4180   30.0520   41.4260 C   0  0  0  0  0  0  0  0  0  0  0  0
   36.2610   30.7460   40.2460 C   0  0  0  0  0  0  0  0  0  0  0  0
   37.2510   31.4390   39.5990 C   0  0  0  0  0  0  0  0  0  0  0  0
   37.0710   32.0520   38.5350 O   0  0  0  0  0  0  0  0  0  0  0  0
   38.4640   31.4040   40.2170 N   0  0  0  0  0  0  0  0  0  0  0  0
   38.6690   30.7350   41.3810 C   0  0  0  0  0  0  0  0  0  0  0  0
   39.8300   30.7600   41.8810 O   0  0  0  0  0  0  0  0  0  0  0  0
   39.5660   32.0990   39.6170 C   0  0  0  0  0  0  0  0  0  0  0  0
   40.5880   31.6990   38.8070 C   0  0  0  0  0  0  0  0  0  0  0  0
   41.3730   32.7600   38.5160 N   0  0  0  0  0  0  0  0  0  0  0  0
   40.8440   33.8580   39.1500 C   0  0  0  0  0  0  0  0  0  0  0  0
   41.2370   35.1700   39.1910 C   0  0  0  0  0  0  0  0  0  0  0  0
   40.5400   36.1120   39.9040 C   0  0  0  0  0  0  0  0  0  0  0  0
   39.3880   35.7440   40.6190 C   0  0  0  0  0  0  0  0  0  0  0  0
   39.0290   34.4130   40.5480 C   0  0  0  0  0  0  0  0  0  0  0  0
   39.7270   33.4510   39.8300 C   0  0  0  0  0  0  0  0  0  0  0  0
   37.9560   29.3870   43.2030 C   0  0  0  0  0  0  0  0  0  0  0  0
   39.7380   26.1290   43.2630 C   0  0  0  0  0  0  0  0  0  0  0  0
   38.9470   25.3630   42.4050 C   0  0  0  0  0  0  0  0  0  0  0  0
   37.8370   25.9400   41.8230 C   0  0  0  0  0  0  0  0  0  0  0  0
   37.5560   27.2300   42.1050 N   0  0  0  0  0  0  0  0  0  0  0  0
   38.3310   27.9630   42.9380 C   0  0  0  0  0  0  0  0  0  0  0  0
   39.3940   27.3960   43.4910 N   0  0  0  0  0  0  0  0  0  0  0  0
   37.0460   25.1380   40.9530 N   0  0  0  0  0  0  0  0  0  0  0  0
   36.4440   23.9530   41.0350 N   0  0  0  0  0  0  0  0  0  0  0  0
   35.8180   23.6650   39.8980 C   0  0  0  0  0  0  0  0  0  0  0  0
   36.0220   24.7320   39.0170 C   0  0  0  0  0  0  0  0  0  0  0  0
   36.8010   25.6440   39.7140 C   0  0  0  0  0  0  0  0  0  0  0  0
   35.5864   29.5117   41.9019 H   0  0  0  0  0  0  0  0  0  0  0  0
   35.2615   30.7437   39.7866 H   0  0  0  0  0  0  0  0  0  0  0  0
   40.7484   30.6722   38.4466 H   0  0  0  0  0  0  0  0  0  0  0  0
   42.2165   32.7476   37.9250 H   0  0  0  0  0  0  0  0  0  0  0  0
   42.1364   35.4764   38.6368 H   0  0  0  0  0  0  0  0  0  0  0  0
   40.8835   37.1569   39.9160 H   0  0  0  0  0  0  0  0  0  0  0  0
   38.8062   36.4737   41.2013 H   0  0  0  0  0  0  0  0  0  0  0  0
   38.1307   34.0933   41.0964 H   0  0  0  0  0  0  0  0  0  0  0  0
   38.7960   29.8958   43.6985 H   0  0  0  0  0  0  0  0  0  0  0  0
   37.0658   29.4049   43.8489 H   0  0  0  0  0  0  0  0  0  0  0  0
   40.6282   25.6950   43.7417 H   0  0  0  0  0  0  0  0  0  0  0  0
   39.2049   24.3143   42.1959 H   0  0  0  0  0  0  0  0  0  0  0  0
   35.2427   22.7513   39.6878 H   0  0  0  0  0  0  0  0  0  0  0  0
   35.6443   24.8278   37.9883 H   0  0  0  0  0  0  0  0  0  0  0  0
   37.1593   26.6108   39.3306 H   0  0  0  0  0  0  0  0  0  0  0  0
  1 18  1  0
  2  1  1  0
  3  2  2  0
  4  6  1  0
  4  3  1  0
  5  4  2  0
  6  7  1  0
  7  8  2  0
  7  1  1  0
  9 17  1  0
  9  6  1  0
 10  9  2  0
 11 10  1  0
 11 12  1  0
 12 13  2  0
 12 17  1  0
 13 14  1  0
 14 15  2  0
 16 15  1  0
 17 16  2  0
 19 24  2  0
 20 19  1  0
 21 22  1  0
 21 20  2  0
 22 23  2  0
 23 18  1  0
 23 24  1  0
 25 26  1  0
 25 21  1  0
 27 26  2  0
 28 29  2  0
 28 27  1  0
 29 25  1  0
  2 30  1  0
  3 31  1  0
 10 32  1  0
 11 33  1  0
 13 34  1  0
 14 35  1  0
 15 36  1  0
 16 37  1  0
 18 38  1  0
 18 39  1  0
 19 40  1  0
 20 41  1  0
 27 42  1  0
 28 43  1  0
 29 44  1  0
M  ISO  8  30  14  31  14  32  14  33   9  34  14  35  14  36  14  37  14
M  ISO  7  38   8  39   8  40  14  41  14  42  14  43  14  44  14
M  END
>  <minimizedAffinity>  (1) 
-6.92904472

>  <minimizedRMSD>  (1) 
1.05206549

$$$$
