
     RDKit          3D

 44 48  0  0  0  0  0  0  0  0999 V2000
   37.3870   29.8840   41.7770 N   0  0  0  0  0  0  0  0  0  0  0  0
   36.2340   29.7580   41.0870 C   0  0  0  0  0  0  0  0  0  0  0  0
   36.2070   30.3720   39.8520 C   0  0  0  0  0  0  0  0  0  0  0  0
   37.2440   31.0790   39.2950 C   0  0  0  0  0  0  0  0  0  0  0  0
   37.1880   31.6170   38.1860 O   0  0  0  0  0  0  0  0  0  0  0  0
   38.3530   31.1440   40.0720 N   0  0  0  0  0  0  0  0  0  0  0  0
   38.4280   30.5610   41.2850 C   0  0  0  0  0  0  0  0  0  0  0  0
   39.5160   30.6760   41.9420 O   0  0  0  0  0  0  0  0  0  0  0  0
   39.5020   31.8640   39.5820 C   0  0  0  0  0  0  0  0  0  0  0  0
   40.6290   31.4790   38.8980 C   0  0  0  0  0  0  0  0  0  0  0  0
   41.4060   32.5520   38.6770 N   0  0  0  0  0  0  0  0  0  0  0  0
   40.7930   33.6330   39.2120 C   0  0  0  0  0  0  0  0  0  0  0  0
   41.1320   34.9620   39.2770 C   0  0  0  0  0  0  0  0  0  0  0  0
   40.3360   35.9070   39.8860 C   0  0  0  0  0  0  0  0  0  0  0  0
   39.1180   35.5220   40.4760 C   0  0  0  0  0  0  0  0  0  0  0  0
   38.8110   34.1800   40.3920 C   0  0  0  0  0  0  0  0  0  0  0  0
   39.5980   33.2320   39.7860 C   0  0  0  0  0  0  0  0  0  0  0  0
   37.5450   29.2890   43.0830 C   0  0  0  0  0  0  0  0  0  0  0  0
   39.8690   26.4020   43.2530 C   0  0  0  0  0  0  0  0  0  0  0  0
   39.0800   25.3680   42.7490 C   0  0  0  0  0  0  0  0  0  0  0  0
   37.7870   25.6420   42.3580 C   0  0  0  0  0  0  0  0  0  0  0  0
   37.3290   26.9100   42.4790 N   0  0  0  0  0  0  0  0  0  0  0  0
   38.1100   27.9120   42.9740 C   0  0  0  0  0  0  0  0  0  0  0  0
   39.3530   27.6290   43.3450 N   0  0  0  0  0  0  0  0  0  0  0  0
   36.8640   24.5970   41.8030 C   0  0  0  0  0  0  0  0  0  0  0  0
   36.5880   24.5330   40.3610 C   0  0  0  0  0  0  0  0  0  0  0  0
   37.4360   23.4750   41.0160 C   0  0  0  0  0  0  0  0  0  0  0  0
   35.3718   29.2018   41.4836 H   0  0  0  0  0  0  0  0  0  0  0  0
   35.2798   30.2885   39.2661 H   0  0  0  0  0  0  0  0  0  0  0  0
   40.8595   30.4514   38.5805 H   0  0  0  0  0  0  0  0  0  0  0  0
   42.3112   32.5519   38.1856 H   0  0  0  0  0  0  0  0  0  0  0  0
   42.0802   35.2860   38.8232 H   0  0  0  0  0  0  0  0  0  0  0  0
   40.6519   36.9604   39.9110 H   0  0  0  0  0  0  0  0  0  0  0  0
   38.4535   36.2447   40.9722 H   0  0  0  0  0  0  0  0  0  0  0  0
   37.8659   33.8444   40.8438 H   0  0  0  0  0  0  0  0  0  0  0  0
   38.2254   29.9114   43.6828 H   0  0  0  0  0  0  0  0  0  0  0  0
   36.5576   29.2276   43.5639 H   0  0  0  0  0  0  0  0  0  0  0  0
   40.9041   26.2082   43.5708 H   0  0  0  0  0  0  0  0  0  0  0  0
   39.4840   24.3483   42.6648 H   0  0  0  0  0  0  0  0  0  0  0  0
   36.2278   24.6774   42.6968 H   0  0  0  0  0  0  0  0  0  0  0  0
   37.0484   25.2635   39.6796 H   0  0  0  0  0  0  0  0  0  0  0  0
   35.6789   24.5291   39.7417 H   0  0  0  0  0  0  0  0  0  0  0  0
   37.0461   22.4544   41.1439 H   0  0  0  0  0  0  0  0  0  0  0  0
   38.4435   23.0649   40.8526 H   0  0  0  0  0  0  0  0  0  0  0  0
  1 18  1  0
  2  1  1  0
  3  2  2  0
  4  3  1  0
  4  6  1  0
  5  4  2  0
  6  7  1  0
  7  1  1  0
  7  8  2  0
  9 17  1  0
  9  6  1  0
 10  9  2  0
 11 10  1  0
 11 12  1  0
 12 13  2  0
 12 17  1  0
 13 14  1  0
 14 15  2  0
 16 15  1  0
 17 16  2  0
 19 24  2  0
 20 19  1  0
 21 22  1  0
 21 20  2  0
 22 23  2  0
 23 18  1  0
 23 24  1  0
 25 21  1  0
 26 27  1  0
 26 25  1  0
 27 25  1  0
  2 28  1  0
  3 29  1  0
 10 30  1  0
 11 31  1  0
 13 32  1  0
 14 33  1  0
 15 34  1  0
 16 35  1  0
 18 36  1  0
 18 37  1  0
 19 38  1  0
 20 39  1  0
 25 40  1  0
 26 41  1  0
 26 42  1  0
 27 43  1  0
 27 44  1  0
M  ISO  8  28  14  29  14  30  14  31   9  32  14  33  14  34  14  35  14
M  ISO  8  36   8  37   8  38  14  39  14  40  13  41  13  42  13  43  13
M  ISO  1  44  13
M  END
>  <minimizedAffinity>  (1) 
-6.92742538

>  <minimizedRMSD>  (1) 
0.61120218

$$$$
