
     RDKit          3D

 26 28  0  0  0  0  0  0  0  0999 V2000
   38.5450   27.1360   43.1210 C   0  0  0  0  0  0  0  0  0  0  0  0
   39.6680   27.0100   43.8420 N   0  0  0  0  0  0  0  0  0  0  0  0
   40.4190   25.8630   43.8690 C   0  0  0  0  0  0  0  0  0  0  0  0
   40.0780   24.7710   43.1690 N   0  0  0  0  0  0  0  0  0  0  0  0
   38.9820   24.8170   42.4330 C   0  0  0  0  0  0  0  0  0  0  0  0
   38.6140   23.7040   41.7100 C   0  0  0  0  0  0  0  0  0  0  0  0
   37.4780   23.6990   40.9320 C   0  0  0  0  0  0  0  0  0  0  0  0
   36.7240   24.8680   40.9120 C   0  0  0  0  0  0  0  0  0  0  0  0
   37.1260   25.9500   41.6440 C   0  0  0  0  0  0  0  0  0  0  0  0
   38.2550   25.9830   42.4290 C   0  0  0  0  0  0  0  0  0  0  0  0
   37.7930   28.3850   43.1330 C   0  0  0  0  0  0  0  0  0  0  0  0
   37.1500   28.2950   44.2360 O   0  0  0  0  0  0  0  0  0  0  0  0
   38.7510   31.4150   41.2150 C   0  0  0  0  0  0  0  0  0  0  0  0
   38.8020   30.3000   42.0490 C   0  0  0  0  0  0  0  0  0  0  0  0
   37.6480   29.5220   42.2940 C   0  0  0  0  0  0  0  0  0  0  0  0
   36.5130   29.9280   41.6740 N   0  0  0  0  0  0  0  0  0  0  0  0
   36.4990   31.0250   40.8630 C   0  0  0  0  0  0  0  0  0  0  0  0
   37.5870   31.7580   40.6320 N   0  0  0  0  0  0  0  0  0  0  0  0
   41.3303   25.8377   44.4845 H   0  0  0  0  0  0  0  0  0  0  0  0
   39.2403   22.8008   41.7550 H   0  0  0  0  0  0  0  0  0  0  0  0
   37.1805   22.8121   40.3533 H   0  0  0  0  0  0  0  0  0  0  0  0
   35.8061   24.9214   40.3082 H   0  0  0  0  0  0  0  0  0  0  0  0
   36.5041   26.8564   41.6025 H   0  0  0  0  0  0  0  0  0  0  0  0
   39.6571   32.0119   41.0339 H   0  0  0  0  0  0  0  0  0  0  0  0
   39.7544   30.0213   42.5236 H   0  0  0  0  0  0  0  0  0  0  0  0
   35.5534   31.3152   40.3816 H   0  0  0  0  0  0  0  0  0  0  0  0
  1 11  1  0
  1  2  2  0
  2  3  1  0
  4  3  2  0
  5  4  1  0
  6  5  2  0
  7  6  1  0
  8  7  2  0
  8  9  1  0
  9 10  2  0
 10  5  1  0
 10  1  1  0
 11 12  2  0
 13 14  2  0
 14 15  1  0
 15 11  1  0
 16 15  2  0
 17 16  1  0
 18 17  2  0
 18 13  1  0
  3 19  1  0
  6 20  1  0
  7 21  1  0
  8 22  1  0
  9 23  1  0
 13 24  1  0
 14 25  1  0
 17 26  1  0
M  ISO  8  19  14  20  14  21  14  22  14  23  14  24  14  25  14  26  14
M  END
>  <minimizedAffinity>  (1) 
-5.42447996

>  <minimizedRMSD>  (1) 
1.36194861

$$$$
