
     RDKit          3D

 22 23  0  0  0  0  0  0  0  0999 V2000
   37.6580   28.3630   43.4240 C   0  0  0  0  0  0  0  0  0  0  0  0
   36.9830   28.4060   44.4870 O   0  0  0  0  0  0  0  0  0  0  0  0
   39.1540   31.2270   41.6010 C   0  0  0  0  0  0  0  0  0  0  0  0
   38.9900   30.1370   42.4620 C   0  0  0  0  0  0  0  0  0  0  0  0
   37.7710   29.4750   42.5250 C   0  0  0  0  0  0  0  0  0  0  0  0
   36.7690   29.9270   41.7290 N   0  0  0  0  0  0  0  0  0  0  0  0
   36.9510   30.9790   40.9080 C   0  0  0  0  0  0  0  0  0  0  0  0
   38.1100   31.6260   40.8330 N   0  0  0  0  0  0  0  0  0  0  0  0
   38.2930   27.0450   43.2490 C   0  0  0  0  0  0  0  0  0  0  0  0
   37.7060   26.0710   42.4690 C   0  0  0  0  0  0  0  0  0  0  0  0
   38.2910   24.8130   42.2790 C   0  0  0  0  0  0  0  0  0  0  0  0
   39.4950   24.5670   42.9060 C   0  0  0  0  0  0  0  0  0  0  0  0
   40.1430   25.5130   43.7110 C   0  0  0  0  0  0  0  0  0  0  0  0
   39.4940   26.7180   43.8390 C   0  0  0  0  0  0  0  0  0  0  0  0
   40.1180   31.7541   41.5475 H   0  0  0  0  0  0  0  0  0  0  0  0
   39.8287   29.8034   43.0907 H   0  0  0  0  0  0  0  0  0  0  0  0
   36.1132   31.3139   40.2788 H   0  0  0  0  0  0  0  0  0  0  0  0
   36.7455   26.2897   41.9794 H   0  0  0  0  0  0  0  0  0  0  0  0
   37.8080   24.0486   41.6525 H   0  0  0  0  0  0  0  0  0  0  0  0
   39.9677   23.5834   42.7676 H   0  0  0  0  0  0  0  0  0  0  0  0
   41.1034   25.3061   44.2057 H   0  0  0  0  0  0  0  0  0  0  0  0
   39.9737   27.4850   44.4647 H   0  0  0  0  0  0  0  0  0  0  0  0
  1  2  2  0
  3  4  2  0
  4  5  1  0
  5  1  1  0
  6  5  2  0
  7  6  1  0
  8  7  2  0
  8  3  1  0
  9  1  1  0
  9 14  1  0
 10  9  2  0
 11 10  1  0
 11 12  2  0
 12 13  1  0
 13 14  2  0
  3 15  1  0
  4 16  1  0
  7 17  1  0
 10 18  1  0
 11 19  1  0
 12 20  1  0
 13 21  1  0
 14 22  1  0
M  ISO  8  15  14  16  14  17  14  18  14  19  14  20  14  21  14  22  14
M  END
>  <minimizedAffinity>  (1) 
-4.8221283

>  <minimizedRMSD>  (1) 
1.05171955

$$$$
