
     RDKit          3D

 27 28  0  0  0  0  0  0  0  0999 V2000
   39.3950   31.0740   42.0010 C   0  0  0  0  0  0  0  0  0  0  0  0
   39.1030   29.8910   42.7260 C   0  0  0  0  0  0  0  0  0  0  0  0
   37.8600   29.3100   42.5310 C   0  0  0  0  0  0  0  0  0  0  0  0
   36.9760   29.8760   41.6740 N   0  0  0  0  0  0  0  0  0  0  0  0
   37.2950   31.0060   41.0020 C   0  0  0  0  0  0  0  0  0  0  0  0
   38.4810   31.6160   41.1460 N   0  0  0  0  0  0  0  0  0  0  0  0
   37.6120   28.1080   43.2910 C   0  0  0  0  0  0  0  0  0  0  0  0
   37.0600   28.0890   44.4260 O   0  0  0  0  0  0  0  0  0  0  0  0
   38.0460   26.8860   42.6550 N   0  0  0  0  0  0  0  0  0  0  0  0
   39.3330   26.2970   42.8010 C   0  0  0  0  0  0  0  0  0  0  0  0
   39.3100   24.8020   42.9850 C   0  0  0  0  0  0  0  0  0  0  0  0
   38.4260   24.1780   41.9120 C   0  0  0  0  0  0  0  0  0  0  0  0
   37.0200   24.7230   42.1990 C   0  0  0  0  0  0  0  0  0  0  0  0
   37.1000   26.1950   41.7950 C   0  0  0  0  0  0  0  0  0  0  0  0
   40.3726   31.5616   42.1299 H   0  0  0  0  0  0  0  0  0  0  0  0
   39.8361   29.4506   43.4178 H   0  0  0  0  0  0  0  0  0  0  0  0
   36.5555   31.4400   40.3130 H   0  0  0  0  0  0  0  0  0  0  0  0
   39.9210   26.5247   41.8997 H   0  0  0  0  0  0  0  0  0  0  0  0
   39.7733   26.7215   43.7153 H   0  0  0  0  0  0  0  0  0  0  0  0
   40.3319   24.4048   42.8964 H   0  0  0  0  0  0  0  0  0  0  0  0
   38.9102   24.5585   43.9804 H   0  0  0  0  0  0  0  0  0  0  0  0
   38.4396   23.0807   41.9882 H   0  0  0  0  0  0  0  0  0  0  0  0
   38.7682   24.4245   40.8961 H   0  0  0  0  0  0  0  0  0  0  0  0
   36.2660   24.1937   41.5979 H   0  0  0  0  0  0  0  0  0  0  0  0
   36.7222   24.5895   43.2495 H   0  0  0  0  0  0  0  0  0  0  0  0
   37.4334   26.2700   40.7494 H   0  0  0  0  0  0  0  0  0  0  0  0
   36.1071   26.6568   41.8990 H   0  0  0  0  0  0  0  0  0  0  0  0
  1  2  2  0
  3  2  1  0
  3  7  1  0
  4  3  2  0
  5  6  2  0
  5  4  1  0
  6  1  1  0
  7  8  2  0
  9 10  1  0
  9  7  1  0
 10 11  1  0
 12 13  1  0
 12 11  1  0
 14 13  1  0
 14  9  1  0
  1 15  1  0
  2 16  1  0
  5 17  1  0
 10 18  1  0
 10 19  1  0
 11 20  1  0
 11 21  1  0
 12 22  1  0
 12 23  1  0
 13 24  1  0
 13 25  1  0
 14 26  1  0
 14 27  1  0
M  ISO  8  15  14  16  14  17  14  18  13  19  13  20  13  21  13  22  13
M  ISO  5  23  13  24  13  25  13  26  13  27  13
M  END
>  <minimizedAffinity>  (1) 
-4.57154655

>  <minimizedRMSD>  (1) 
0.817033529

$$$$
