
     RDKit          3D

 25 26  0  0  0  0  0  0  0  0999 V2000
   39.1170   30.9420   41.7940 C   0  0  0  0  0  0  0  0  0  0  0  0
   38.9920   29.8780   42.6970 C   0  0  0  0  0  0  0  0  0  0  0  0
   37.7880   29.1870   42.7260 C   0  0  0  0  0  0  0  0  0  0  0  0
   36.7880   29.5720   41.8780 N   0  0  0  0  0  0  0  0  0  0  0  0
   36.9620   30.6130   41.0210 C   0  0  0  0  0  0  0  0  0  0  0  0
   38.1170   31.3020   40.9700 N   0  0  0  0  0  0  0  0  0  0  0  0
   37.6780   28.0970   43.6590 C   0  0  0  0  0  0  0  0  0  0  0  0
   36.9150   28.1140   44.6600 O   0  0  0  0  0  0  0  0  0  0  0  0
   38.5040   26.9680   43.3780 N   0  0  0  0  0  0  0  0  0  0  0  0
   39.7380   26.5160   44.0220 C   0  0  0  0  0  0  0  0  0  0  0  0
   40.6490   25.9360   42.9610 C   0  0  0  0  0  0  0  0  0  0  0  0
   40.1210   24.6990   42.6120 O   0  0  0  0  0  0  0  0  0  0  0  0
   38.7600   24.7000   42.4630 C   0  0  0  0  0  0  0  0  0  0  0  0
   38.1480   26.0630   42.3010 C   0  0  0  0  0  0  0  0  0  0  0  0
   40.0637   31.5010   41.7579 H   0  0  0  0  0  0  0  0  0  0  0  0
   39.8221   29.5987   43.3625 H   0  0  0  0  0  0  0  0  0  0  0  0
   36.1373   30.8996   40.3519 H   0  0  0  0  0  0  0  0  0  0  0  0
   40.2339   27.3668   44.5121 H   0  0  0  0  0  0  0  0  0  0  0  0
   39.5095   25.7530   44.7807 H   0  0  0  0  0  0  0  0  0  0  0  0
   40.6767   26.5975   42.0826 H   0  0  0  0  0  0  0  0  0  0  0  0
   41.6780   25.8346   43.3363 H   0  0  0  0  0  0  0  0  0  0  0  0
   38.5123   24.1048   41.5717 H   0  0  0  0  0  0  0  0  0  0  0  0
   38.3450   24.2810   43.3916 H   0  0  0  0  0  0  0  0  0  0  0  0
   38.4948   26.4938   41.3501 H   0  0  0  0  0  0  0  0  0  0  0  0
   37.0549   25.9406   42.3173 H   0  0  0  0  0  0  0  0  0  0  0  0
  1  2  2  0
  2  3  1  0
  3  7  1  0
  4  3  2  0
  5  4  1  0
  6  5  2  0
  6  1  1  0
  7  8  2  0
  9  7  1  0
  9 10  1  0
 11 10  1  0
 12 11  1  0
 13 12  1  0
 14 13  1  0
 14  9  1  0
  1 15  1  0
  2 16  1  0
  5 17  1  0
 10 18  1  0
 10 19  1  0
 11 20  1  0
 11 21  1  0
 13 22  1  0
 13 23  1  0
 14 24  1  0
 14 25  1  0
M  ISO  8  15  14  16  14  17  14  18  13  19  13  20  13  21  13  22  13
M  ISO  3  23  13  24  13  25  13
M  END
>  <minimizedAffinity>  (1) 
-4.293293

>  <minimizedRMSD>  (1) 
0.868665099

$$$$
