
     RDKit          3D

 19 20  0  0  0  0  0  0  0  0999 V2000
   39.2200   31.0940   41.7880 C   0  0  0  0  0  0  0  0  0  0  0  0
   39.0530   30.0130   42.6670 C   0  0  0  0  0  0  0  0  0  0  0  0
   37.8260   29.3460   42.6580 C   0  0  0  0  0  0  0  0  0  0  0  0
   36.8490   29.7610   41.8110 N   0  0  0  0  0  0  0  0  0  0  0  0
   37.0670   30.8150   40.9830 C   0  0  0  0  0  0  0  0  0  0  0  0
   38.2190   31.4850   40.9520 N   0  0  0  0  0  0  0  0  0  0  0  0
   37.7020   28.2450   43.5740 C   0  0  0  0  0  0  0  0  0  0  0  0
   36.9780   28.2560   44.6020 O   0  0  0  0  0  0  0  0  0  0  0  0
   38.4550   26.9920   43.3400 C   0  0  0  0  0  0  0  0  0  0  0  0
   39.6260   26.6260   43.9720 C   0  0  0  0  0  0  0  0  0  0  0  0
   39.9770   25.3830   43.4500 C   0  0  0  0  0  0  0  0  0  0  0  0
   38.9950   25.0700   42.5310 C   0  0  0  0  0  0  0  0  0  0  0  0
   38.0990   26.0440   42.4820 O   0  0  0  0  0  0  0  0  0  0  0  0
   40.1774   31.6355   41.7741 H   0  0  0  0  0  0  0  0  0  0  0  0
   39.8633   29.7007   43.3421 H   0  0  0  0  0  0  0  0  0  0  0  0
   36.2573   31.1298   40.3082 H   0  0  0  0  0  0  0  0  0  0  0  0
   40.1724   27.2003   44.7346 H   0  0  0  0  0  0  0  0  0  0  0  0
   40.8552   24.7761   43.7152 H   0  0  0  0  0  0  0  0  0  0  0  0
   38.9619   24.1495   41.9297 H   0  0  0  0  0  0  0  0  0  0  0  0
  1  2  2  0
  3  2  1  0
  3  7  1  0
  4  3  2  0
  5  4  1  0
  6  5  2  0
  6  1  1  0
  7  8  2  0
  9  7  1  0
  9 10  2  0
 11 10  1  0
 12 11  2  0
 13 12  1  0
 13  9  1  0
  1 14  1  0
  2 15  1  0
  5 16  1  0
 10 17  1  0
 11 18  1  0
 12 19  1  0
M  ISO  6  14  14  15  14  16  14  17  14  18  14  19  14
M  END
>  <minimizedAffinity>  (1) 
-4.17870569

>  <minimizedRMSD>  (1) 
0.755634665

$$$$
