
     RDKit          3D

 29 30  0  0  1  0  0  0  0  0999 V2000
   38.1040   28.6350   43.2510 C   0  0  0  0  0  0  0  0  0  0  0  0
   37.2330   28.5560   44.1530 O   0  0  0  0  0  0  0  0  0  0  0  0
   38.9840   27.5150   43.0360 N   0  0  0  0  0  0  0  0  0  0  0  0
   40.3550   27.5350   43.4720 C   0  0  0  0  0  0  0  0  0  0  0  0
   40.8840   26.2200   43.9490 C   0  0  0  0  0  0  0  0  0  0  0  0
   40.5420   25.1420   43.0590 N   0  0  0  0  0  0  0  0  0  0  0  0
   39.1230   25.0500   42.8180 C   0  0  0  0  0  0  0  0  0  0  0  0
   38.4970   26.3300   42.3660 C   0  0  1  0  0  0  0  0  0  0  0  0
   39.6270   31.6510   41.7310 C   0  0  0  0  0  0  0  0  0  0  0  0
   39.4480   30.5270   42.5340 C   0  0  0  0  0  0  0  0  0  0  0  0
   38.2710   29.7980   42.4070 C   0  0  0  0  0  0  0  0  0  0  0  0
   37.3540   30.2220   41.5020 N   0  0  0  0  0  0  0  0  0  0  0  0
   37.5570   31.3150   40.7360 C   0  0  0  0  0  0  0  0  0  0  0  0
   38.6750   32.0350   40.8350 N   0  0  0  0  0  0  0  0  0  0  0  0
   37.0130   26.1830   42.3960 C   0  0  0  0  0  0  0  0  0  0  0  0
   36.5630   24.9710   41.9690 F   0  0  0  0  0  0  0  0  0  0  0  0
   36.5200   27.1100   41.4670 F   0  0  0  0  0  0  0  0  0  0  0  0
   36.4800   26.5840   43.6060 F   0  0  0  0  0  0  0  0  0  0  0  0
   40.9770   27.8675   42.6279 H   0  0  0  0  0  0  0  0  0  0  0  0
   40.3937   28.2145   44.3361 H   0  0  0  0  0  0  0  0  0  0  0  0
   41.9796   26.2845   44.0228 H   0  0  0  0  0  0  0  0  0  0  0  0
   40.4289   26.0076   44.9277 H   0  0  0  0  0  0  0  0  0  0  0  0
   41.0202   25.2928   42.1593 H   0  0  0  0  0  0  0  0  0  0  0  0
   38.9529   24.2892   42.0419 H   0  0  0  0  0  0  0  0  0  0  0  0
   38.6542   24.7891   43.7783 H   0  0  0  0  0  0  0  0  0  0  0  0
   38.8132   26.5086   41.3277 H   0  0  0  0  0  0  0  0  0  0  0  0
   40.5525   32.2385   41.8217 H   0  0  0  0  0  0  0  0  0  0  0  0
   40.2220   30.2224   43.2538 H   0  0  0  0  0  0  0  0  0  0  0  0
   36.7837   31.6181   40.0148 H   0  0  0  0  0  0  0  0  0  0  0  0
  1  2  2  0
  3  1  1  0
  3  4  1  0
  4  5  1  0
  6  5  1  0
  7  6  1  0
  8 15  1  0
  8  7  1  0
  8  3  1  0
  9 10  2  0
 11 10  1  0
 11  1  1  0
 12 11  2  0
 13 14  2  0
 13 12  1  0
 14  9  1  0
 15 18  1  0
 16 15  1  0
 17 15  1  0
  4 19  1  0
  4 20  1  0
  5 21  1  0
  5 22  1  0
  6 23  1  0
  7 24  1  0
  7 25  1  0
  8 26  1  6
  9 27  1  0
 10 28  1  0
 13 29  1  0
M  ISO  8  19  13  20  13  21  13  22  13  23   5  24  13  25  13  26  13
M  ISO  3  27  14  28  14  29  14
M  END
>  <minimizedAffinity>  (1) 
-5.23254585

>  <minimizedRMSD>  (1) 
1.34031606

$$$$
