
     RDKit          3D

 29 30  0  0  1  0  0  0  0  0999 V2000
   37.4440   27.8410   43.2670 C   0  0  0  0  0  0  0  0  0  0  0  0
   36.6850   27.8090   44.2710 O   0  0  0  0  0  0  0  0  0  0  0  0
   38.0100   26.6020   42.7730 N   0  0  0  0  0  0  0  0  0  0  0  0
   39.3980   26.2800   43.0200 C   0  0  0  0  0  0  0  0  0  0  0  0
   39.6450   24.8190   43.2360 C   0  0  0  0  0  0  0  0  0  0  0  0
   38.9550   23.9710   42.3180 N   0  0  0  0  0  0  0  0  0  0  0  0
   37.5490   24.2400   42.2250 C   0  0  0  0  0  0  0  0  0  0  0  0
   37.2040   25.6760   42.0320 C   0  0  2  0  0  0  0  0  0  0  0  0
   39.3380   30.8360   42.1660 C   0  0  0  0  0  0  0  0  0  0  0  0
   39.0070   29.6580   42.8330 C   0  0  0  0  0  0  0  0  0  0  0  0
   37.7880   29.0740   42.5680 C   0  0  0  0  0  0  0  0  0  0  0  0
   36.9440   29.6650   41.6620 N   0  0  0  0  0  0  0  0  0  0  0  0
   37.3070   30.8020   41.0430 C   0  0  0  0  0  0  0  0  0  0  0  0
   38.4930   31.3980   41.2810 N   0  0  0  0  0  0  0  0  0  0  0  0
   37.1970   25.9930   40.5750 C   0  0  0  0  0  0  0  0  0  0  0  0
   36.3550   26.7760   40.0170 O   0  0  0  0  0  0  0  0  0  0  0  0
   38.1600   25.4090   39.7680 O   0  0  0  0  0  0  0  0  0  0  0  0
   39.9908   26.6086   42.1536 H   0  0  0  0  0  0  0  0  0  0  0  0
   39.6892   26.7969   43.9463 H   0  0  0  0  0  0  0  0  0  0  0  0
   40.7243   24.6321   43.1351 H   0  0  0  0  0  0  0  0  0  0  0  0
   39.2650   24.5772   44.2395 H   0  0  0  0  0  0  0  0  0  0  0  0
   39.3719   24.0959   41.3844 H   0  0  0  0  0  0  0  0  0  0  0  0
   37.1468   23.6729   41.3725 H   0  0  0  0  0  0  0  0  0  0  0  0
   37.1099   23.9405   43.1881 H   0  0  0  0  0  0  0  0  0  0  0  0
   36.1972   25.8110   42.4541 H   0  0  0  0  0  0  0  0  0  0  0  0
   40.3075   31.3156   42.3662 H   0  0  0  0  0  0  0  0  0  0  0  0
   39.7031   29.2051   43.5544 H   0  0  0  0  0  0  0  0  0  0  0  0
   36.6155   31.2600   40.3204 H   0  0  0  0  0  0  0  0  0  0  0  0
   38.1767   25.6034   38.7974 H   0  0  0  0  0  0  0  0  0  0  0  0
  1  2  2  0
  3  4  1  0
  3  1  1  0
  4  5  1  0
  6  5  1  0
  7  6  1  0
  8  7  1  0
  8  3  1  0
  9 10  2  0
 11 10  1  0
 11  1  1  0
 12 11  2  0
 13 14  2  0
 13 12  1  0
 14  9  1  0
 15  8  1  0
 16 15  2  0
 17 15  1  0
  4 18  1  0
  4 19  1  0
  5 20  1  0
  5 21  1  0
  6 22  1  0
  7 23  1  0
  7 24  1  0
  8 25  1  1
  9 26  1  0
 10 27  1  0
 13 28  1  0
 17 29  1  0
M  ISO  8  18  13  19  13  20  13  21  13  22   5  23  13  24  13  25  13
M  ISO  4  26  14  27  14  28  14  29   3
M  END
>  <minimizedAffinity>  (1) 
-4.78018713

>  <minimizedRMSD>  (1) 
0.0857546329

$$$$
