
     RDKit          3D

 32 33  0  0  1  0  0  0  0  0999 V2000
   37.9280   28.2470   43.2580 C   0  0  0  0  0  0  0  0  0  0  0  0
   37.0400   28.0450   44.1380 O   0  0  0  0  0  0  0  0  0  0  0  0
   38.9330   27.2340   43.0470 N   0  0  0  0  0  0  0  0  0  0  0  0
   40.2840   27.3910   43.5100 C   0  0  0  0  0  0  0  0  0  0  0  0
   40.9180   26.1090   43.9670 C   0  0  0  0  0  0  0  0  0  0  0  0
   40.7230   25.0600   43.0140 N   0  0  0  0  0  0  0  0  0  0  0  0
   39.3280   24.8000   42.7300 C   0  0  0  0  0  0  0  0  0  0  0  0
   38.5800   26.0130   42.3450 C   0  0  1  0  0  0  0  0  0  0  0  0
   39.2290   31.3590   41.7310 C   0  0  0  0  0  0  0  0  0  0  0  0
   39.1570   30.1940   42.5040 C   0  0  0  0  0  0  0  0  0  0  0  0
   37.9840   29.4460   42.4530 C   0  0  0  0  0  0  0  0  0  0  0  0
   36.9750   29.8870   41.6570 N   0  0  0  0  0  0  0  0  0  0  0  0
   37.0900   31.0040   40.9390 C   0  0  0  0  0  0  0  0  0  0  0  0
   38.2030   31.7560   40.9580 N   0  0  0  0  0  0  0  0  0  0  0  0
   37.0800   25.7370   42.4890 C   0  0  0  0  0  0  0  0  0  0  0  0
   36.7600   24.4400   41.7690 C   0  0  0  0  0  0  0  0  0  0  0  0
   40.8873   27.8030   42.6876 H   0  0  0  0  0  0  0  0  0  0  0  0
   40.2494   28.0612   44.3816 H   0  0  0  0  0  0  0  0  0  0  0  0
   41.9972   26.2724   44.1032 H   0  0  0  0  0  0  0  0  0  0  0  0
   40.4456   25.8081   44.9137 H   0  0  0  0  0  0  0  0  0  0  0  0
   41.1922   25.3241   42.1359 H   0  0  0  0  0  0  0  0  0  0  0  0
   39.2678   24.0749   41.9050 H   0  0  0  0  0  0  0  0  0  0  0  0
   38.8719   24.4123   43.6529 H   0  0  0  0  0  0  0  0  0  0  0  0
   38.8654   26.2133   41.3017 H   0  0  0  0  0  0  0  0  0  0  0  0
   40.1472   31.9642   41.7567 H   0  0  0  0  0  0  0  0  0  0  0  0
   40.0025   29.8789   43.1332 H   0  0  0  0  0  0  0  0  0  0  0  0
   36.2452   31.3207   40.3097 H   0  0  0  0  0  0  0  0  0  0  0  0
   36.8198   25.6447   43.5538 H   0  0  0  0  0  0  0  0  0  0  0  0
   36.5001   26.5640   42.0533 H   0  0  0  0  0  0  0  0  0  0  0  0
   36.5648   23.6489   42.5080 H   0  0  0  0  0  0  0  0  0  0  0  0
   35.8696   24.5806   41.1386 H   0  0  0  0  0  0  0  0  0  0  0  0
   37.6136   24.1503   41.1386 H   0  0  0  0  0  0  0  0  0  0  0  0
  1  2  2  0
  3  1  1  0
  3  4  1  0
  4  5  1  0
  6  5  1  0
  7  6  1  0
  8 15  1  0
  8  7  1  0
  8  3  1  0
  9 10  2  0
 11 10  1  0
 11  1  1  0
 12 11  2  0
 13 14  2  0
 13 12  1  0
 14  9  1  0
 16 15  1  0
  4 17  1  0
  4 18  1  0
  5 19  1  0
  5 20  1  0
  6 21  1  0
  7 22  1  0
  7 23  1  0
  8 24  1  6
  9 25  1  0
 10 26  1  0
 13 27  1  0
 15 28  1  0
 15 29  1  0
 16 30  1  0
 16 31  1  0
 16 32  1  0
M  ISO  8  17  13  18  13  19  13  20  13  21   5  22  13  23  13  24  13
M  ISO  8  25  14  26  14  27  14  28   8  29   8  30   8  31   8  32   8
M  END
>  <minimizedAffinity>  (1) 
-4.77644539

>  <minimizedRMSD>  (1) 
1.27722204

$$$$
