
     RDKit          3D

 38 40  0  0  1  0  0  0  0  0999 V2000
   38.7260   27.9660   43.0290 C   0  0  0  0  0  0  0  0  0  0  0  0
   37.6170   28.2310   43.5320 O   0  0  0  0  0  0  0  0  0  0  0  0
   38.9890   26.6310   42.5980 N   0  0  0  0  0  0  0  0  0  0  0  0
   39.8600   25.7570   43.3790 C   0  0  0  0  0  0  0  0  0  0  0  0
   39.4750   24.3140   43.3440 C   0  0  0  0  0  0  0  0  0  0  0  0
   39.0850   23.8550   42.0510 N   0  0  0  0  0  0  0  0  0  0  0  0
   38.0510   24.6660   41.4320 C   0  0  0  0  0  0  0  0  0  0  0  0
   38.4240   26.0980   41.3980 C   0  0  1  0  0  0  0  0  0  0  0  0
   42.0750   29.5300   42.6650 C   0  0  0  0  0  0  0  0  0  0  0  0
   41.0870   28.5580   42.8280 C   0  0  0  0  0  0  0  0  0  0  0  0
   39.7740   28.9640   42.8590 C   0  0  0  0  0  0  0  0  0  0  0  0
   39.5070   30.3060   42.7280 N   0  0  0  0  0  0  0  0  0  0  0  0
   40.4850   31.2050   42.5720 C   0  0  0  0  0  0  0  0  0  0  0  0
   41.7730   30.8370   42.5390 N   0  0  0  0  0  0  0  0  0  0  0  0
   37.4340   26.9640   40.8340 N   0  0  0  0  0  0  0  0  0  0  0  0
   36.5940   27.5590   41.8950 C   0  0  0  0  0  0  0  0  0  0  0  0
   35.8510   28.6820   41.1790 C   0  0  0  0  0  0  0  0  0  0  0  0
   36.7600   28.9810   40.0050 C   0  0  0  0  0  0  0  0  0  0  0  0
   38.0140   28.1810   40.2760 C   0  0  0  0  0  0  0  0  0  0  0  0
   40.8832   25.8501   42.9860 H   0  0  0  0  0  0  0  0  0  0  0  0
   39.7730   26.0806   44.4267 H   0  0  0  0  0  0  0  0  0  0  0  0
   40.3358   23.7168   43.6793 H   0  0  0  0  0  0  0  0  0  0  0  0
   38.6016   24.1986   44.0026 H   0  0  0  0  0  0  0  0  0  0  0  0
   39.9138   23.8622   41.4395 H   0  0  0  0  0  0  0  0  0  0  0  0
   37.8917   24.3148   40.4018 H   0  0  0  0  0  0  0  0  0  0  0  0
   37.1331   24.5653   42.0298 H   0  0  0  0  0  0  0  0  0  0  0  0
   39.2604   26.0819   40.6838 H   0  0  0  0  0  0  0  0  0  0  0  0
   43.1302   29.2203   42.6386 H   0  0  0  0  0  0  0  0  0  0  0  0
   41.3518   27.4951   42.9290 H   0  0  0  0  0  0  0  0  0  0  0  0
   40.2264   32.2692   42.4686 H   0  0  0  0  0  0  0  0  0  0  0  0
   35.8892   26.8177   42.2996 H   0  0  0  0  0  0  0  0  0  0  0  0
   37.1809   27.9156   42.7543 H   0  0  0  0  0  0  0  0  0  0  0  0
   34.8593   28.3488   40.8390 H   0  0  0  0  0  0  0  0  0  0  0  0
   35.6579   29.5566   41.8176 H   0  0  0  0  0  0  0  0  0  0  0  0
   36.9888   30.0558   39.9556 H   0  0  0  0  0  0  0  0  0  0  0  0
   36.2974   28.7159   39.0428 H   0  0  0  0  0  0  0  0  0  0  0  0
   38.5743   27.9776   39.3515 H   0  0  0  0  0  0  0  0  0  0  0  0
   38.7466   28.6811   40.9266 H   0  0  0  0  0  0  0  0  0  0  0  0
  1  2  2  0
  3  1  1  0
  3  4  1  0
  5  4  1  0
  6  5  1  0
  7  6  1  0
  8  7  1  0
  8  3  1  0
  9 10  2  0
 10 11  1  0
 11  1  1  0
 12 11  2  0
 13 12  1  0
 14 13  2  0
 14  9  1  0
 15  8  1  0
 15 16  1  0
 17 16  1  0
 18 19  1  0
 18 17  1  0
 19 15  1  0
  4 20  1  0
  4 21  1  0
  5 22  1  0
  5 23  1  0
  6 24  1  0
  7 25  1  0
  7 26  1  0
  8 27  1  6
  9 28  1  0
 10 29  1  0
 13 30  1  0
 16 31  1  0
 16 32  1  0
 17 33  1  0
 17 34  1  0
 18 35  1  0
 18 36  1  0
 19 37  1  0
 19 38  1  0
M  ISO  8  20  13  21  13  22  13  23  13  24   5  25  13  26  13  27  13
M  ISO  8  28  14  29  14  30  14  31  13  32  13  33  13  34  13  35  13
M  ISO  3  36  13  37  13  38  13
M  END
>  <minimizedAffinity>  (1) 
-4.53147173

>  <minimizedRMSD>  (1) 
2.33550692

$$$$
