
     RDKit          3D

 46 49  0  0  1  0  0  0  0  0999 V2000
   37.6140   28.0040   43.3190 C   0  0  0  0  0  0  0  0  0  0  0  0
   36.9090   27.9760   44.3840 O   0  0  0  0  0  0  0  0  0  0  0  0
   38.0800   26.7500   42.8250 N   0  0  0  0  0  0  0  0  0  0  0  0
   39.4300   26.3610   43.1200 C   0  0  0  0  0  0  0  0  0  0  0  0
   39.7100   24.9040   43.1710 C   0  0  0  0  0  0  0  0  0  0  0  0
   38.9330   24.0880   42.3080 N   0  0  0  0  0  0  0  0  0  0  0  0
   37.5790   24.3870   42.3220 C   0  0  0  0  0  0  0  0  0  0  0  0
   37.2810   25.8550   42.0940 C   0  0  2  0  0  0  0  0  0  0  0  0
   37.0120   26.1120   40.7070 C   0  0  0  0  0  0  0  0  0  0  0  0
   36.4150   27.3290   40.2940 C   0  0  0  0  0  0  0  0  0  0  0  0
   36.1040   27.6880   39.0150 C   0  0  0  0  0  0  0  0  0  0  0  0
   36.4240   26.7420   38.0360 C   0  0  0  0  0  0  0  0  0  0  0  0
   37.0170   25.5100   38.3700 C   0  0  0  0  0  0  0  0  0  0  0  0
   37.2770   25.2500   39.7030 C   0  0  0  0  0  0  0  0  0  0  0  0
   37.5840   23.8540   39.5280 C   0  0  0  0  0  0  0  0  0  0  0  0
   36.9210   22.7150   39.8460 C   0  0  0  0  0  0  0  0  0  0  0  0
   37.4200   21.4450   39.6850 C   0  0  0  0  0  0  0  0  0  0  0  0
   38.6770   21.2300   39.1720 C   0  0  0  0  0  0  0  0  0  0  0  0
   39.4170   22.3330   38.8280 C   0  0  0  0  0  0  0  0  0  0  0  0
   38.8600   23.5430   39.0140 C   0  0  0  0  0  0  0  0  0  0  0  0
   39.5610   30.8430   42.0300 C   0  0  0  0  0  0  0  0  0  0  0  0
   39.2280   29.6850   42.7090 C   0  0  0  0  0  0  0  0  0  0  0  0
   37.9540   29.2130   42.6030 C   0  0  0  0  0  0  0  0  0  0  0  0
   37.0890   29.9020   41.8430 N   0  0  0  0  0  0  0  0  0  0  0  0
   37.4200   31.0210   41.1910 C   0  0  0  0  0  0  0  0  0  0  0  0
   38.6550   31.4990   41.2770 N   0  0  0  0  0  0  0  0  0  0  0  0
   40.0789   26.7979   42.3466 H   0  0  0  0  0  0  0  0  0  0  0  0
   39.6189   26.7266   44.1401 H   0  0  0  0  0  0  0  0  0  0  0  0
   40.7684   24.7559   42.9107 H   0  0  0  0  0  0  0  0  0  0  0  0
   39.4475   24.5884   44.1915 H   0  0  0  0  0  0  0  0  0  0  0  0
   39.0515   23.1062   42.5960 H   0  0  0  0  0  0  0  0  0  0  0  0
   37.0858   23.8046   41.5298 H   0  0  0  0  0  0  0  0  0  0  0  0
   37.2022   24.1325   43.3236 H   0  0  0  0  0  0  0  0  0  0  0  0
   36.3273   26.1071   42.5808 H   0  0  0  0  0  0  0  0  0  0  0  0
   36.1786   28.0573   41.0838 H   0  0  0  0  0  0  0  0  0  0  0  0
   35.6350   28.6527   38.7713 H   0  0  0  0  0  0  0  0  0  0  0  0
   36.2073   26.9658   36.9810 H   0  0  0  0  0  0  0  0  0  0  0  0
   37.2669   24.7739   37.5917 H   0  0  0  0  0  0  0  0  0  0  0  0
   35.9084   22.8150   40.2639 H   0  0  0  0  0  0  0  0  0  0  0  0
   36.8008   20.5825   39.9726 H   0  0  0  0  0  0  0  0  0  0  0  0
   39.0744   20.2126   39.0422 H   0  0  0  0  0  0  0  0  0  0  0  0
   40.4311   22.2312   38.4142 H   0  0  0  0  0  0  0  0  0  0  0  0
   39.4819   24.4039   38.7273 H   0  0  0  0  0  0  0  0  0  0  0  0
   40.5853   31.2367   42.1058 H   0  0  0  0  0  0  0  0  0  0  0  0
   39.9745   29.1571   43.3206 H   0  0  0  0  0  0  0  0  0  0  0  0
   36.6684   31.5458   40.5830 H   0  0  0  0  0  0  0  0  0  0  0  0
  1  2  2  0
  3  4  1  0
  3  1  1  0
  4  5  1  0
  6  7  1  0
  6  5  1  0
  8  7  1  0
  8  3  1  0
  9  8  1  0
 10  9  2  0
 11 10  1  0
 12 13  1  0
 12 11  2  0
 13 14  2  0
 14  9  1  0
 15 14  1  0
 15 16  2  0
 17 16  1  0
 18 17  2  0
 19 20  2  0
 19 18  1  0
 20 15  1  0
 21 22  2  0
 23 22  1  0
 23  1  1  0
 24 23  2  0
 25 26  2  0
 25 24  1  0
 26 21  1  0
  4 27  1  0
  4 28  1  0
  5 29  1  0
  5 30  1  0
  6 31  1  0
  7 32  1  0
  7 33  1  0
  8 34  1  1
 10 35  1  0
 11 36  1  0
 12 37  1  0
 13 38  1  0
 16 39  1  0
 17 40  1  0
 18 41  1  0
 19 42  1  0
 20 43  1  0
 21 44  1  0
 22 45  1  0
 25 46  1  0
M  ISO  8  27  13  28  13  29  13  30  13  31   5  32  13  33  13  34  13
M  ISO  8  35  14  36  14  37  14  38  14  39  14  40  14  41  14  42  14
M  ISO  4  43  14  44  14  45  14  46  14
M  END
>  <minimizedAffinity>  (1) 
-6.16085625

>  <minimizedRMSD>  (1) 
3.29195762

$$$$
