
     RDKit          3D

 46 49  0  0  1  0  0  0  0  0999 V2000
   37.6560   28.0410   43.3330 C   0  0  0  0  0  0  0  0  0  0  0  0
   36.9920   28.0440   44.4150 O   0  0  0  0  0  0  0  0  0  0  0  0
   38.0690   26.7710   42.8360 N   0  0  0  0  0  0  0  0  0  0  0  0
   39.4300   26.3440   43.0620 C   0  0  0  0  0  0  0  0  0  0  0  0
   39.6400   24.8790   43.1600 C   0  0  0  0  0  0  0  0  0  0  0  0
   38.8140   24.0670   42.3350 N   0  0  0  0  0  0  0  0  0  0  0  0
   37.4660   24.4250   42.3830 C   0  0  0  0  0  0  0  0  0  0  0  0
   37.2080   25.8970   42.1420 C   0  0  2  0  0  0  0  0  0  0  0  0
   36.9290   26.1470   40.7530 C   0  0  0  0  0  0  0  0  0  0  0  0
   36.3610   27.3820   40.3430 C   0  0  0  0  0  0  0  0  0  0  0  0
   36.0440   27.7420   39.0640 C   0  0  0  0  0  0  0  0  0  0  0  0
   36.3260   26.7760   38.0840 C   0  0  0  0  0  0  0  0  0  0  0  0
   36.8860   25.5270   38.4180 C   0  0  0  0  0  0  0  0  0  0  0  0
   37.1540   25.2720   39.7500 C   0  0  0  0  0  0  0  0  0  0  0  0
   37.3920   23.9130   39.5520 N   0  0  0  0  0  0  0  0  0  0  0  0
   36.7570   22.7840   39.4950 C   0  0  0  0  0  0  0  0  0  0  0  0
   37.2070   21.5140   39.3460 C   0  0  0  0  0  0  0  0  0  0  0  0
   38.5670   21.3180   39.2310 C   0  0  0  0  0  0  0  0  0  0  0  0
   38.9260   20.1240   39.0940 O   0  0  0  0  0  0  0  0  0  0  0  0
   39.3320   22.4380   39.2830 N   0  0  0  0  0  0  0  0  0  0  0  0
   38.7540   23.6590   39.4360 C   0  0  0  0  0  0  0  0  0  0  0  0
   39.7590   24.4410   39.4490 O   0  0  0  0  0  0  0  0  0  0  0  0
   39.6370   30.8290   41.9810 C   0  0  0  0  0  0  0  0  0  0  0  0
   39.2990   29.6850   42.6890 C   0  0  0  0  0  0  0  0  0  0  0  0
   38.0100   29.2350   42.5930 C   0  0  0  0  0  0  0  0  0  0  0  0
   37.1510   29.9230   41.8260 N   0  0  0  0  0  0  0  0  0  0  0  0
   37.4910   31.0270   41.1490 C   0  0  0  0  0  0  0  0  0  0  0  0
   38.7340   31.4880   41.2200 N   0  0  0  0  0  0  0  0  0  0  0  0
   40.0435   26.7177   42.2290 H   0  0  0  0  0  0  0  0  0  0  0  0
   39.7115   26.7521   44.0439 H   0  0  0  0  0  0  0  0  0  0  0  0
   40.6869   24.6720   42.8931 H   0  0  0  0  0  0  0  0  0  0  0  0
   39.3734   24.6132   44.1936 H   0  0  0  0  0  0  0  0  0  0  0  0
   38.9039   23.0886   42.6441 H   0  0  0  0  0  0  0  0  0  0  0  0
   36.9284   23.8499   41.6148 H   0  0  0  0  0  0  0  0  0  0  0  0
   37.1156   24.2045   43.4021 H   0  0  0  0  0  0  0  0  0  0  0  0
   36.2710   26.1819   42.6428 H   0  0  0  0  0  0  0  0  0  0  0  0
   36.1563   28.1207   41.1320 H   0  0  0  0  0  0  0  0  0  0  0  0
   35.5999   28.7181   38.8191 H   0  0  0  0  0  0  0  0  0  0  0  0
   36.1042   27.0001   37.0301 H   0  0  0  0  0  0  0  0  0  0  0  0
   37.1033   24.7777   37.6426 H   0  0  0  0  0  0  0  0  0  0  0  0
   35.6640   22.8719   39.5827 H   0  0  0  0  0  0  0  0  0  0  0  0
   36.5080   20.6651   39.3177 H   0  0  0  0  0  0  0  0  0  0  0  0
   40.3563   22.3624   39.2061 H   0  0  0  0  0  0  0  0  0  0  0  0
   40.6671   31.2103   42.0402 H   0  0  0  0  0  0  0  0  0  0  0  0
   40.0413   29.1577   43.3062 H   0  0  0  0  0  0  0  0  0  0  0  0
   36.7427   31.5505   40.5358 H   0  0  0  0  0  0  0  0  0  0  0  0
  1  2  2  0
  3  4  1  0
  3  1  1  0
  4  5  1  0
  6  7  1  0
  6  5  1  0
  8  7  1  0
  8  3  1  0
  9  8  1  0
 10  9  2  0
 11 10  1  0
 12 13  1  0
 12 11  2  0
 13 14  2  0
 14  9  1  0
 15 14  1  0
 16 15  1  0
 17 16  2  0
 18 20  1  0
 18 17  1  0
 19 18  2  0
 20 21  1  0
 21 22  2  0
 21 15  1  0
 23 24  2  0
 25 24  1  0
 25  1  1  0
 26 25  2  0
 27 28  2  0
 27 26  1  0
 28 23  1  0
  4 29  1  0
  4 30  1  0
  5 31  1  0
  5 32  1  0
  6 33  1  0
  7 34  1  0
  7 35  1  0
  8 36  1  1
 10 37  1  0
 11 38  1  0
 12 39  1  0
 13 40  1  0
 16 41  1  0
 17 42  1  0
 20 43  1  0
 23 44  1  0
 24 45  1  0
 27 46  1  0
M  ISO  8  29  13  30  13  31  13  32  13  33   5  34  13  35  13  36  13
M  ISO  8  37  14  38  14  39  14  40  14  41  14  42  14  43   9  44  14
M  ISO  2  45  14  46  14
M  END
>  <minimizedAffinity>  (1) 
-6.07949066

>  <minimizedRMSD>  (1) 
3.87970543

$$$$
