
     RDKit          3D

 49 52  0  0  1  0  0  0  0  0999 V2000
   39.3270   28.0330   42.3110 C   0  0  2  0  0  0  0  0  0  0  0  0
   40.4390   27.0050   42.1490 C   0  0  2  0  0  0  0  0  0  0  0  0
   40.0660   25.8040   41.4210 C   0  0  0  0  0  0  0  0  0  0  0  0
   40.4110   24.5760   42.2370 C   0  0  0  0  0  0  0  0  0  0  0  0
   41.2670   25.0720   43.3680 C   0  0  0  0  0  0  0  0  0  0  0  0
   40.8040   26.4970   43.5350 C   0  0  1  0  0  0  0  0  0  0  0  0
   41.8330   27.4000   44.0880 C   0  0  0  0  0  0  0  0  0  0  0  0
   42.2830   28.5110   43.4060 C   0  0  0  0  0  0  0  0  0  0  0  0
   43.2430   29.3240   43.9580 C   0  0  0  0  0  0  0  0  0  0  0  0
   43.8080   29.0860   45.2030 C   0  0  0  0  0  0  0  0  0  0  0  0
   43.3250   27.9570   45.8490 C   0  0  0  0  0  0  0  0  0  0  0  0
   42.3960   27.1890   45.2910 N   0  0  0  0  0  0  0  0  0  0  0  0
   38.1200   27.3950   42.7440 N   0  0  0  0  0  0  0  0  0  0  0  0
   37.1630   28.0750   43.5350 C   0  0  0  0  0  0  0  0  0  0  0  0
   37.4400   29.2700   43.9420 N   0  0  0  0  0  0  0  0  0  0  0  0
   35.9500   27.4700   43.8620 N   0  0  0  0  0  0  0  0  0  0  0  0
   36.7570   29.8100   44.5090 H   0  0  0  0  0  0  0  0  0  0  0  0
   38.5480   29.1680   38.9640 C   0  0  0  0  0  0  0  0  0  0  0  0
   39.2930   30.2430   39.4350 C   0  0  0  0  0  0  0  0  0  0  0  0
   39.6260   29.8810   40.7120 C   0  0  0  0  0  0  0  0  0  0  0  0
   39.1130   28.6540   41.0020 N   0  0  0  0  0  0  0  0  0  0  0  0
   38.4600   28.2290   39.9330 N   0  0  0  0  0  0  0  0  0  0  0  0
   38.1290   28.0220   36.7600 C   0  0  0  0  0  0  0  0  0  0  0  0
   37.9650   29.0840   37.6340 C   0  0  0  0  0  0  0  0  0  0  0  0
   37.1870   30.1340   37.2050 C   0  0  0  0  0  0  0  0  0  0  0  0
   36.6020   30.1280   35.9640 N   0  0  0  0  0  0  0  0  0  0  0  0
   36.8120   29.0320   35.1460 C   0  0  0  0  0  0  0  0  0  0  0  0
   37.5890   27.9710   35.5620 N   0  0  0  0  0  0  0  0  0  0  0  0
   39.6062   28.7846   43.0641 H   0  0  0  0  0  0  0  0  0  0  0  0
   41.2366   27.5237   41.5970 H   0  0  0  0  0  0  0  0  0  0  0  0
   38.9838   25.8185   41.2243 H   0  0  0  0  0  0  0  0  0  0  0  0
   40.6175   25.7723   40.4698 H   0  0  0  0  0  0  0  0  0  0  0  0
   39.4968   24.1035   42.6256 H   0  0  0  0  0  0  0  0  0  0  0  0
   40.9320   23.8184   41.6332 H   0  0  0  0  0  0  0  0  0  0  0  0
   41.0915   24.4882   44.2836 H   0  0  0  0  0  0  0  0  0  0  0  0
   42.3454   24.9842   43.1698 H   0  0  0  0  0  0  0  0  0  0  0  0
   39.9650   26.4965   44.2463 H   0  0  0  0  0  0  0  0  0  0  0  0
   41.8707   28.7476   42.4140 H   0  0  0  0  0  0  0  0  0  0  0  0
   43.5788   30.2027   43.3878 H   0  0  0  0  0  0  0  0  0  0  0  0
   44.5764   29.7393   45.6421 H   0  0  0  0  0  0  0  0  0  0  0  0
   43.7187   27.6931   46.8416 H   0  0  0  0  0  0  0  0  0  0  0  0
   37.9439   26.4170   42.4731 H   0  0  0  0  0  0  0  0  0  0  0  0
   35.2615   27.9748   44.4382 H   0  0  0  0  0  0  0  0  0  0  0  0
   35.7424   26.5183   43.5273 H   0  0  0  0  0  0  0  0  0  0  0  0
   39.5544   31.1702   38.9040 H   0  0  0  0  0  0  0  0  0  0  0  0
   40.2223   30.4934   41.4044 H   0  0  0  0  0  0  0  0  0  0  0  0
   38.7465   27.1724   37.0868 H   0  0  0  0  0  0  0  0  0  0  0  0
   37.0307   30.9959   37.8703 H   0  0  0  0  0  0  0  0  0  0  0  0
   36.3516   29.0064   34.1473 H   0  0  0  0  0  0  0  0  0  0  0  0
  1 13  1  0
  2  1  1  0
  2  6  1  0
  3  2  1  0
  3  4  1  0
  4  5  1  0
  5  6  1  0
  6  7  1  0
  7 12  2  0
  8  9  2  0
  8  7  1  0
  9 10  1  0
 10 11  2  0
 12 11  1  0
 13 14  1  0
 14 16  1  0
 14 15  2  0
 15 17  1  0
 18 19  1  0
 18 22  2  0
 19 20  2  0
 20 21  1  0
 21  1  1  0
 22 21  1  0
 23 24  2  0
 24 18  1  0
 25 24  1  0
 26 25  2  0
 27 28  2  0
 27 26  1  0
 28 23  1  0
  1 29  1  1
  2 30  1  6
  3 31  1  0
  3 32  1  0
  4 33  1  0
  4 34  1  0
  5 35  1  0
  5 36  1  0
  6 37  1  1
  8 38  1  0
  9 39  1  0
 10 40  1  0
 11 41  1  0
 13 42  1  0
 16 43  1  0
 16 44  1  0
 19 45  1  0
 20 46  1  0
 23 47  1  0
 25 48  1  0
 27 49  1  0
M  ISO  8  29   8  30  13  31  13  32  13  33  13  34  13  35  13  36  13
M  ISO  8  37  13  38  14  39  14  40  14  41  14  45  14  46  14  47  14
M  ISO  2  48  14  49  14
M  END
>  <minimizedAffinity>  (1) 
-5.47278643

>  <minimizedRMSD>  (1) 
0.746127844

$$$$
