
     RDKit          3D

 50 54  0  0  1  0  0  0  0  0999 V2000
   37.5100   27.9470   43.1310 C   0  0  0  0  0  0  0  0  0  0  0  0
   37.1890   27.9680   44.3610 O   0  0  0  0  0  0  0  0  0  0  0  0
   38.4690   26.9730   42.7350 N   0  0  0  0  0  0  0  0  0  0  0  0
   39.8420   27.3810   42.5540 C   0  0  0  0  0  0  0  0  0  0  0  0
   40.8660   26.3390   42.8120 C   0  0  0  0  0  0  0  0  0  0  0  0
   40.5190   25.0150   42.4250 N   0  0  0  0  0  0  0  0  0  0  0  0
   39.2540   24.6400   42.8940 C   0  0  0  0  0  0  0  0  0  0  0  0
   38.1540   25.6160   42.5300 C   0  0  2  0  0  0  0  0  0  0  0  0
   37.5150   25.2280   41.3020 C   0  0  0  0  0  0  0  0  0  0  0  0
   36.6280   24.1110   41.2800 C   0  0  0  0  0  0  0  0  0  0  0  0
   35.9560   23.6390   40.1850 C   0  0  0  0  0  0  0  0  0  0  0  0
   36.1810   24.3450   38.9950 C   0  0  0  0  0  0  0  0  0  0  0  0
   37.0490   25.4560   38.9440 C   0  0  0  0  0  0  0  0  0  0  0  0
   37.6850   25.8400   40.1070 C   0  0  0  0  0  0  0  0  0  0  0  0
   38.6070   26.7610   39.5070 C   0  0  0  0  0  0  0  0  0  0  0  0
   38.9030   27.9880   39.0730 C   0  0  0  0  0  0  0  0  0  0  0  0
   40.0560   28.2030   38.4570 N   0  0  0  0  0  0  0  0  0  0  0  0
   40.6880   27.0220   38.4170 C   0  0  0  0  0  0  0  0  0  0  0  0
   41.9030   26.7580   37.8490 C   0  0  0  0  0  0  0  0  0  0  0  0
   42.3250   25.4510   37.9040 C   0  0  0  0  0  0  0  0  0  0  0  0
   41.5880   24.4570   38.4870 C   0  0  0  0  0  0  0  0  0  0  0  0
   40.3890   24.8340   39.0240 C   0  0  0  0  0  0  0  0  0  0  0  0
   39.8150   26.1220   39.0530 C   0  0  0  0  0  0  0  0  0  0  0  0
   37.0490   30.9180   41.0210 C   0  0  0  0  0  0  0  0  0  0  0  0
   37.5700   30.0550   41.9720 C   0  0  0  0  0  0  0  0  0  0  0  0
   36.9640   28.8450   42.1330 C   0  0  0  0  0  0  0  0  0  0  0  0
   35.9030   28.5650   41.3650 N   0  0  0  0  0  0  0  0  0  0  0  0
   35.4060   29.4000   40.4510 C   0  0  0  0  0  0  0  0  0  0  0  0
   35.9740   30.5820   40.2700 N   0  0  0  0  0  0  0  0  0  0  0  0
   39.9591   27.7186   41.5137 H   0  0  0  0  0  0  0  0  0  0  0  0
   40.0208   28.1665   43.3030 H   0  0  0  0  0  0  0  0  0  0  0  0
   41.7783   26.6211   42.2660 H   0  0  0  0  0  0  0  0  0  0  0  0
   40.9875   26.3065   43.9048 H   0  0  0  0  0  0  0  0  0  0  0  0
   40.5213   24.9589   41.3965 H   0  0  0  0  0  0  0  0  0  0  0  0
   39.0024   23.6583   42.4663 H   0  0  0  0  0  0  0  0  0  0  0  0
   39.3126   24.6177   43.9922 H   0  0  0  0  0  0  0  0  0  0  0  0
   37.3493   25.5370   43.2758 H   0  0  0  0  0  0  0  0  0  0  0  0
   36.4695   23.5802   42.2304 H   0  0  0  0  0  0  0  0  0  0  0  0
   35.2868   22.7674   40.2352 H   0  0  0  0  0  0  0  0  0  0  0  0
   35.6672   24.0243   38.0768 H   0  0  0  0  0  0  0  0  0  0  0  0
   37.2143   26.0012   38.0030 H   0  0  0  0  0  0  0  0  0  0  0  0
   38.1943   28.8152   39.2258 H   0  0  0  0  0  0  0  0  0  0  0  0
   40.3985   29.0996   38.0832 H   0  0  0  0  0  0  0  0  0  0  0  0
   42.5077   27.5455   37.3756 H   0  0  0  0  0  0  0  0  0  0  0  0
   43.2977   25.1932   37.4598 H   0  0  0  0  0  0  0  0  0  0  0  0
   41.9397   23.4153   38.5216 H   0  0  0  0  0  0  0  0  0  0  0  0
   39.7980   24.0329   39.4919 H   0  0  0  0  0  0  0  0  0  0  0  0
   37.5208   31.9006   40.8727 H   0  0  0  0  0  0  0  0  0  0  0  0
   38.4441   30.3374   42.5771 H   0  0  0  0  0  0  0  0  0  0  0  0
   34.5306   29.1085   39.8521 H   0  0  0  0  0  0  0  0  0  0  0  0
  1  2  2  0
  3  1  1  0
  4  3  1  0
  4  5  1  0
  6  5  1  0
  6  7  1  0
  8  3  1  0
  8  7  1  0
  9  8  1  0
 10  9  2  0
 11 10  1  0
 12 11  2  0
 13 12  1  0
 13 14  2  0
 14  9  1  0
 15 14  1  0
 16 15  2  0
 17 16  1  0
 18 17  1  0
 18 23  2  0
 19 20  2  0
 19 18  1  0
 20 21  1  0
 21 22  2  0
 22 23  1  0
 23 15  1  0
 24 25  2  0
 25 26  1  0
 26  1  1  0
 27 26  2  0
 28 27  1  0
 29 28  2  0
 29 24  1  0
  4 30  1  0
  4 31  1  0
  5 32  1  0
  5 33  1  0
  6 34  1  0
  7 35  1  0
  7 36  1  0
  8 37  1  1
 10 38  1  0
 11 39  1  0
 12 40  1  0
 13 41  1  0
 16 42  1  0
 17 43  1  0
 19 44  1  0
 20 45  1  0
 21 46  1  0
 22 47  1  0
 24 48  1  0
 25 49  1  0
 28 50  1  0
M  ISO  8  30  13  31  13  32  13  33  13  34   5  35  13  36  13  37  13
M  ISO  8  38  14  39  14  40  14  41  14  42  14  43   9  44  14  45  14
M  ISO  5  46  14  47  14  48  14  49  14  50  14
M  END
>  <minimizedAffinity>  (1) 
-5.92365885

>  <minimizedRMSD>  (1) 
2.8770864

$$$$
