
     RDKit          3D

 41 44  0  0  1  0  0  0  0  0999 V2000
   37.6560   28.0620   43.3920 C   0  0  0  0  0  0  0  0  0  0  0  0
   36.9680   28.0720   44.4680 O   0  0  0  0  0  0  0  0  0  0  0  0
   38.1060   26.7850   42.9410 N   0  0  0  0  0  0  0  0  0  0  0  0
   39.4480   26.4050   43.2480 C   0  0  0  0  0  0  0  0  0  0  0  0
   39.7470   24.9510   43.3180 C   0  0  0  0  0  0  0  0  0  0  0  0
   38.9950   24.1140   42.4520 N   0  0  0  0  0  0  0  0  0  0  0  0
   37.6160   24.4080   42.5170 C   0  0  0  0  0  0  0  0  0  0  0  0
   37.2940   25.8650   42.2580 C   0  0  2  0  0  0  0  0  0  0  0  0
   37.0150   26.0770   40.8560 C   0  0  0  0  0  0  0  0  0  0  0  0
   36.4100   27.2820   40.4200 C   0  0  0  0  0  0  0  0  0  0  0  0
   36.0930   27.6110   39.1370 C   0  0  0  0  0  0  0  0  0  0  0  0
   36.4160   26.6460   38.1810 C   0  0  0  0  0  0  0  0  0  0  0  0
   37.0130   25.4350   38.5370 C   0  0  0  0  0  0  0  0  0  0  0  0
   37.2850   25.1910   39.8740 C   0  0  0  0  0  0  0  0  0  0  0  0
   37.6880   23.8170   39.7530 C   0  0  0  0  0  0  0  0  0  0  0  0
   38.9180   23.5030   39.3290 N   0  0  0  0  0  0  0  0  0  0  0  0
   39.1100   22.2310   39.2990 O   0  0  0  0  0  0  0  0  0  0  0  0
   38.0250   21.6110   39.7000 C   0  0  0  0  0  0  0  0  0  0  0  0
   37.1570   22.6230   39.9750 N   0  0  0  0  0  0  0  0  0  0  0  0
   39.6090   30.8300   41.9630 C   0  0  0  0  0  0  0  0  0  0  0  0
   39.2680   29.7070   42.6920 C   0  0  0  0  0  0  0  0  0  0  0  0
   37.9860   29.2410   42.6350 C   0  0  0  0  0  0  0  0  0  0  0  0
   37.1170   29.9110   41.8630 N   0  0  0  0  0  0  0  0  0  0  0  0
   37.4580   31.0000   41.1580 C   0  0  0  0  0  0  0  0  0  0  0  0
   38.7010   31.4670   41.2010 N   0  0  0  0  0  0  0  0  0  0  0  0
   40.0991   26.8391   42.4749 H   0  0  0  0  0  0  0  0  0  0  0  0
   39.6198   26.7774   44.2687 H   0  0  0  0  0  0  0  0  0  0  0  0
   40.8113   24.8152   43.0754 H   0  0  0  0  0  0  0  0  0  0  0  0
   39.4720   24.6427   44.3375 H   0  0  0  0  0  0  0  0  0  0  0  0
   39.1411   23.1318   42.7257 H   0  0  0  0  0  0  0  0  0  0  0  0
   37.0944   23.7976   41.7651 H   0  0  0  0  0  0  0  0  0  0  0  0
   37.2858   24.1818   43.5416 H   0  0  0  0  0  0  0  0  0  0  0  0
   36.3458   26.1192   42.7542 H   0  0  0  0  0  0  0  0  0  0  0  0
   36.1728   28.0257   41.1950 H   0  0  0  0  0  0  0  0  0  0  0  0
   35.6173   28.5671   38.8732 H   0  0  0  0  0  0  0  0  0  0  0  0
   36.1948   26.8445   37.1219 H   0  0  0  0  0  0  0  0  0  0  0  0
   37.2631   24.6876   37.7697 H   0  0  0  0  0  0  0  0  0  0  0  0
   37.8565   20.5279   39.7922 H   0  0  0  0  0  0  0  0  0  0  0  0
   40.6404   31.2099   42.0062 H   0  0  0  0  0  0  0  0  0  0  0  0
   40.0198   29.1949   43.3104 H   0  0  0  0  0  0  0  0  0  0  0  0
   36.7037   31.5096   40.5404 H   0  0  0  0  0  0  0  0  0  0  0  0
  1  2  2  0
  3  4  1  0
  3  1  1  0
  4  5  1  0
  6  7  1  0
  6  5  1  0
  8  7  1  0
  8  3  1  0
  9  8  1  0
 10  9  2  0
 11 10  1  0
 12 13  1  0
 12 11  2  0
 13 14  2  0
 14  9  1  0
 15 14  1  0
 15 19  1  0
 16 15  2  0
 17 16  1  0
 17 18  1  0
 18 19  2  0
 20 21  2  0
 22 21  1  0
 22  1  1  0
 23 22  2  0
 24 25  2  0
 24 23  1  0
 25 20  1  0
  4 26  1  0
  4 27  1  0
  5 28  1  0
  5 29  1  0
  6 30  1  0
  7 31  1  0
  7 32  1  0
  8 33  1  1
 10 34  1  0
 11 35  1  0
 12 36  1  0
 13 37  1  0
 18 38  1  0
 20 39  1  0
 21 40  1  0
 24 41  1  0
M  ISO  8  26  13  27  13  28  13  29  13  30   5  31  13  32  13  33  13
M  ISO  8  34  14  35  14  36  14  37  14  38  14  39  14  40  14  41  14
M  END
>  <minimizedAffinity>  (1) 
-5.90928698

>  <minimizedRMSD>  (1) 
2.86407065

$$$$
