
     RDKit          3D

 47 50  0  0  1  0  0  0  0  0999 V2000
   37.4910   27.9130   43.1990 C   0  0  0  0  0  0  0  0  0  0  0  0
   37.1310   27.9230   44.4170 O   0  0  0  0  0  0  0  0  0  0  0  0
   38.4590   26.9400   42.8200 N   0  0  0  0  0  0  0  0  0  0  0  0
   39.8390   27.3410   42.6750 C   0  0  0  0  0  0  0  0  0  0  0  0
   40.8480   26.2930   42.9750 C   0  0  0  0  0  0  0  0  0  0  0  0
   40.5060   24.9710   42.5790 N   0  0  0  0  0  0  0  0  0  0  0  0
   39.2220   24.5990   42.9810 C   0  0  0  0  0  0  0  0  0  0  0  0
   38.1420   25.5850   42.5880 C   0  0  2  0  0  0  0  0  0  0  0  0
   37.5380   25.2080   41.3410 C   0  0  0  0  0  0  0  0  0  0  0  0
   36.6490   24.1040   41.2750 C   0  0  0  0  0  0  0  0  0  0  0  0
   36.0120   23.6400   40.1600 C   0  0  0  0  0  0  0  0  0  0  0  0
   36.2780   24.3480   38.9810 C   0  0  0  0  0  0  0  0  0  0  0  0
   37.1550   25.4560   38.9710 C   0  0  0  0  0  0  0  0  0  0  0  0
   37.7500   25.8250   40.1630 C   0  0  0  0  0  0  0  0  0  0  0  0
   38.6540   26.6990   39.5750 N   0  0  0  0  0  0  0  0  0  0  0  0
   38.8210   27.9000   39.1180 C   0  0  0  0  0  0  0  0  0  0  0  0
   39.8830   28.4820   38.5040 C   0  0  0  0  0  0  0  0  0  0  0  0
   41.0280   27.7560   38.2780 C   0  0  0  0  0  0  0  0  0  0  0  0
   42.0440   28.5040   37.6310 N   0  0  0  0  0  0  0  0  0  0  0  0
   40.9690   26.4720   38.7150 N   0  0  0  0  0  0  0  0  0  0  0  0
   39.8390   25.9970   39.3220 C   0  0  0  0  0  0  0  0  0  0  0  0
   40.2390   24.7940   39.5360 O   0  0  0  0  0  0  0  0  0  0  0  0
   37.1270   30.8920   41.0750 C   0  0  0  0  0  0  0  0  0  0  0  0
   37.6160   30.0210   42.0350 C   0  0  0  0  0  0  0  0  0  0  0  0
   36.9780   28.8210   42.1930 C   0  0  0  0  0  0  0  0  0  0  0  0
   35.9190   28.5590   41.4120 N   0  0  0  0  0  0  0  0  0  0  0  0
   35.4560   29.4090   40.4880 C   0  0  0  0  0  0  0  0  0  0  0  0
   36.0540   30.5790   40.3120 N   0  0  0  0  0  0  0  0  0  0  0  0
   39.9890   27.6671   41.6352 H   0  0  0  0  0  0  0  0  0  0  0  0
   40.0007   28.1353   43.4186 H   0  0  0  0  0  0  0  0  0  0  0  0
   41.7818   26.5675   42.4625 H   0  0  0  0  0  0  0  0  0  0  0  0
   40.9301   26.2637   44.0715 H   0  0  0  0  0  0  0  0  0  0  0  0
   40.5592   24.9113   41.5521 H   0  0  0  0  0  0  0  0  0  0  0  0
   38.9850   23.6267   42.5244 H   0  0  0  0  0  0  0  0  0  0  0  0
   39.2321   24.5605   44.0803 H   0  0  0  0  0  0  0  0  0  0  0  0
   37.3096   25.5097   43.3032 H   0  0  0  0  0  0  0  0  0  0  0  0
   36.4536   23.5686   42.2159 H   0  0  0  0  0  0  0  0  0  0  0  0
   35.3375   22.7715   40.1858 H   0  0  0  0  0  0  0  0  0  0  0  0
   35.7944   24.0351   38.0439 H   0  0  0  0  0  0  0  0  0  0  0  0
   37.3583   26.0087   38.0419 H   0  0  0  0  0  0  0  0  0  0  0  0
   37.9527   28.5622   39.2503 H   0  0  0  0  0  0  0  0  0  0  0  0
   39.8271   29.5340   38.1876 H   0  0  0  0  0  0  0  0  0  0  0  0
   42.9478   28.0619   37.4106 H   0  0  0  0  0  0  0  0  0  0  0  0
   41.8782   29.4895   37.3814 H   0  0  0  0  0  0  0  0  0  0  0  0
   37.6235   31.8627   40.9292 H   0  0  0  0  0  0  0  0  0  0  0  0
   38.4887   30.2856   42.6501 H   0  0  0  0  0  0  0  0  0  0  0  0
   34.5825   29.1379   39.8768 H   0  0  0  0  0  0  0  0  0  0  0  0
  1  2  2  0
  3  1  1  0
  4  3  1  0
  4  5  1  0
  6  5  1  0
  6  7  1  0
  8  3  1  0
  8  7  1  0
  9  8  1  0
 10  9  2  0
 11 10  1  0
 12 11  2  0
 13 12  1  0
 13 14  2  0
 14  9  1  0
 15 14  1  0
 16 15  1  0
 17 16  2  0
 18 17  1  0
 18 20  2  0
 19 18  1  0
 20 21  1  0
 21 22  2  0
 21 15  1  0
 23 24  2  0
 24 25  1  0
 25  1  1  0
 26 25  2  0
 27 26  1  0
 28 27  2  0
 28 23  1  0
  4 29  1  0
  4 30  1  0
  5 31  1  0
  5 32  1  0
  6 33  1  0
  7 34  1  0
  7 35  1  0
  8 36  1  1
 10 37  1  0
 11 38  1  0
 12 39  1  0
 13 40  1  0
 16 41  1  0
 17 42  1  0
 19 43  1  0
 19 44  1  0
 23 45  1  0
 24 46  1  0
 27 47  1  0
M  ISO  8  29  13  30  13  31  13  32  13  33   5  34  13  35  13  36  13
M  ISO  8  37  14  38  14  39  14  40  14  41  14  42  14  45  14  46  14
M  ISO  1  47  14
M  END
>  <minimizedAffinity>  (1) 
-5.79195929

>  <minimizedRMSD>  (1) 
2.20203066

$$$$
