
     RDKit          3D

 39 41  0  0  1  0  0  0  0  0999 V2000
   38.0480   28.2370   43.3830 C   0  0  0  0  0  0  0  0  0  0  0  0
   37.2680   28.0310   44.3660 O   0  0  0  0  0  0  0  0  0  0  0  0
   39.0270   27.2350   43.1150 N   0  0  0  0  0  0  0  0  0  0  0  0
   40.3430   27.4100   43.6060 C   0  0  0  0  0  0  0  0  0  0  0  0
   41.1670   26.1910   43.8440 C   0  0  0  0  0  0  0  0  0  0  0  0
   40.8250   25.0370   43.1150 N   0  0  0  0  0  0  0  0  0  0  0  0
   39.4930   24.8190   42.9220 C   0  0  0  0  0  0  0  0  0  0  0  0
   38.7710   26.0540   42.4150 C   0  0  2  0  0  0  0  0  0  0  0  0
   38.5850   26.0100   41.0160 C   0  0  0  0  0  0  0  0  0  0  0  0
   39.3650   26.8240   40.1600 C   0  0  0  0  0  0  0  0  0  0  0  0
   39.3160   26.8460   38.8030 C   0  0  0  0  0  0  0  0  0  0  0  0
   38.4030   25.9610   38.2500 C   0  0  0  0  0  0  0  0  0  0  0  0
   37.5910   25.1230   39.0530 C   0  0  0  0  0  0  0  0  0  0  0  0
   37.6980   25.1800   40.4170 C   0  0  0  0  0  0  0  0  0  0  0  0
   36.5850   24.3140   40.9080 C   0  0  0  0  0  0  0  0  0  0  0  0
   35.9350   23.5440   40.0020 F   0  0  0  0  0  0  0  0  0  0  0  0
   37.2590   22.9670   41.2320 F   0  0  0  0  0  0  0  0  0  0  0  0
   36.3040   24.3460   42.2000 F   0  0  0  0  0  0  0  0  0  0  0  0
   39.0940   31.3000   41.6560 C   0  0  0  0  0  0  0  0  0  0  0  0
   39.1340   30.1920   42.4800 C   0  0  0  0  0  0  0  0  0  0  0  0
   37.9950   29.4030   42.5420 C   0  0  0  0  0  0  0  0  0  0  0  0
   36.9350   29.7650   41.8040 N   0  0  0  0  0  0  0  0  0  0  0  0
   36.9260   30.8490   41.0140 C   0  0  0  0  0  0  0  0  0  0  0  0
   38.0000   31.6220   40.9340 N   0  0  0  0  0  0  0  0  0  0  0  0
   40.8835   28.0338   42.8789 H   0  0  0  0  0  0  0  0  0  0  0  0
   40.2082   27.8508   44.6047 H   0  0  0  0  0  0  0  0  0  0  0  0
   42.2095   26.4419   43.5985 H   0  0  0  0  0  0  0  0  0  0  0  0
   40.9895   25.9270   44.8970 H   0  0  0  0  0  0  0  0  0  0  0  0
   41.2693   25.1076   42.1884 H   0  0  0  0  0  0  0  0  0  0  0  0
   39.3705   24.0112   42.1855 H   0  0  0  0  0  0  0  0  0  0  0  0
   39.0535   24.5494   43.8937 H   0  0  0  0  0  0  0  0  0  0  0  0
   37.7159   26.0524   42.7262 H   0  0  0  0  0  0  0  0  0  0  0  0
   40.0814   27.5059   40.6414 H   0  0  0  0  0  0  0  0  0  0  0  0
   39.9473   27.5098   38.1940 H   0  0  0  0  0  0  0  0  0  0  0  0
   38.3064   25.9081   37.1555 H   0  0  0  0  0  0  0  0  0  0  0  0
   36.8778   24.4297   38.5831 H   0  0  0  0  0  0  0  0  0  0  0  0
   39.9844   31.9420   41.5858 H   0  0  0  0  0  0  0  0  0  0  0  0
   40.0332   29.9453   43.0636 H   0  0  0  0  0  0  0  0  0  0  0  0
   36.0262   31.0969   40.4318 H   0  0  0  0  0  0  0  0  0  0  0  0
  1  2  2  0
  3  1  1  0
  3  4  1  0
  4  5  1  0
  6  5  1  0
  7  6  1  0
  8  7  1  0
  8  3  1  0
  9  8  1  0
 10  9  2  0
 11 10  1  0
 12 11  2  0
 12 13  1  0
 13 14  2  0
 14 15  1  0
 14  9  1  0
 15 17  1  0
 15 18  1  0
 16 15  1  0
 19 20  2  0
 20 21  1  0
 21  1  1  0
 22 21  2  0
 23 22  1  0
 24 23  2  0
 24 19  1  0
  4 25  1  0
  4 26  1  0
  5 27  1  0
  5 28  1  0
  6 29  1  0
  7 30  1  0
  7 31  1  0
  8 32  1  1
 10 33  1  0
 11 34  1  0
 12 35  1  0
 13 36  1  0
 19 37  1  0
 20 38  1  0
 23 39  1  0
M  ISO  8  25  13  26  13  27  13  28  13  29   5  30  13  31  13  32  13
M  ISO  7  33  14  34  14  35  14  36  14  37  14  38  14  39  14
M  END
>  <minimizedAffinity>  (1) 
-5.70662642

>  <minimizedRMSD>  (1) 
2.69452119

$$$$
