
     RDKit          3D

 45 47  0  0  1  0  0  0  0  0999 V2000
   37.5830   28.3030   43.2880 C   0  0  0  0  0  0  0  0  0  0  0  0
   37.1650   28.3870   44.4810 O   0  0  0  0  0  0  0  0  0  0  0  0
   38.6760   27.4190   43.0510 N   0  0  0  0  0  0  0  0  0  0  0  0
   40.0000   27.9210   43.0010 C   0  0  0  0  0  0  0  0  0  0  0  0
   41.1070   27.0210   43.3890 C   0  0  0  0  0  0  0  0  0  0  0  0
   40.9010   25.6400   43.1220 N   0  0  0  0  0  0  0  0  0  0  0  0
   39.6520   25.1930   43.5010 C   0  0  0  0  0  0  0  0  0  0  0  0
   38.5340   26.0340   42.9020 C   0  0  2  0  0  0  0  0  0  0  0  0
   38.0060   25.4370   41.7370 C   0  0  0  0  0  0  0  0  0  0  0  0
   36.9340   24.5070   41.8160 C   0  0  0  0  0  0  0  0  0  0  0  0
   36.3540   23.8830   40.7380 C   0  0  0  0  0  0  0  0  0  0  0  0
   36.8810   24.2200   39.4950 C   0  0  0  0  0  0  0  0  0  0  0  0
   37.9460   25.1360   39.3620 C   0  0  0  0  0  0  0  0  0  0  0  0
   38.4770   25.7060   40.4940 C   0  0  0  0  0  0  0  0  0  0  0  0
   39.6790   26.3760   39.9510 C   0  0  0  0  0  0  0  0  0  0  0  0
   40.9880   25.8200   40.5010 C   0  0  0  0  0  0  0  0  0  0  0  0
   39.7390   27.8240   40.4280 C   0  0  0  0  0  0  0  0  0  0  0  0
   35.4370   29.0990   40.4170 C   0  0  0  0  0  0  0  0  0  0  0  0
   36.0280   28.4040   41.4520 C   0  0  0  0  0  0  0  0  0  0  0  0
   37.0200   29.0400   42.1900 C   0  0  0  0  0  0  0  0  0  0  0  0
   37.3510   30.2920   41.8560 N   0  0  0  0  0  0  0  0  0  0  0  0
   36.7530   30.9420   40.8360 C   0  0  0  0  0  0  0  0  0  0  0  0
   35.8020   30.3580   40.1180 N   0  0  0  0  0  0  0  0  0  0  0  0
   40.1880   28.2405   41.9654 H   0  0  0  0  0  0  0  0  0  0  0  0
   40.0175   28.7155   43.7615 H   0  0  0  0  0  0  0  0  0  0  0  0
   42.0083   27.3397   42.8448 H   0  0  0  0  0  0  0  0  0  0  0  0
   41.1930   27.1055   44.4824 H   0  0  0  0  0  0  0  0  0  0  0  0
   41.0119   25.4822   42.1102 H   0  0  0  0  0  0  0  0  0  0  0  0
   39.5313   24.1525   43.1653 H   0  0  0  0  0  0  0  0  0  0  0  0
   39.5835   25.2710   44.5961 H   0  0  0  0  0  0  0  0  0  0  0  0
   37.6349   26.0076   43.5352 H   0  0  0  0  0  0  0  0  0  0  0  0
   36.5392   24.2691   42.8148 H   0  0  0  0  0  0  0  0  0  0  0  0
   35.5282   23.1650   40.8501 H   0  0  0  0  0  0  0  0  0  0  0  0
   36.4556   23.7596   38.5911 H   0  0  0  0  0  0  0  0  0  0  0  0
   38.3446   25.3896   38.3686 H   0  0  0  0  0  0  0  0  0  0  0  0
   39.5898   26.2385   38.8633 H   0  0  0  0  0  0  0  0  0  0  0  0
   40.9585   25.8325   41.6005 H   0  0  0  0  0  0  0  0  0  0  0  0
   41.1238   24.7865   40.1496 H   0  0  0  0  0  0  0  0  0  0  0  0
   41.8260   26.4398   40.1496 H   0  0  0  0  0  0  0  0  0  0  0  0
   39.7400   27.8480   41.5277 H   0  0  0  0  0  0  0  0  0  0  0  0
   40.6575   28.2968   40.0501 H   0  0  0  0  0  0  0  0  0  0  0  0
   38.8628   28.3712   40.0501 H   0  0  0  0  0  0  0  0  0  0  0  0
   34.6495   28.6121   39.8231 H   0  0  0  0  0  0  0  0  0  0  0  0
   35.7224   27.3738   41.6871 H   0  0  0  0  0  0  0  0  0  0  0  0
   37.0583   31.9712   40.5961 H   0  0  0  0  0  0  0  0  0  0  0  0
  1  2  2  0
  3  1  1  0
  4  3  1  0
  4  5  1  0
  6  5  1  0
  6  7  1  0
  8  3  1  0
  8  7  1  0
  9 10  2  0
  9  8  1  0
 11 10  1  0
 12 11  2  0
 13 12  1  0
 13 14  2  0
 14  9  1  0
 15 17  1  0
 15 14  1  0
 15 16  1  0
 18 19  2  0
 19 20  1  0
 20  1  1  0
 21 20  2  0
 22 21  1  0
 23 18  1  0
 23 22  2  0
  4 24  1  0
  4 25  1  0
  5 26  1  0
  5 27  1  0
  6 28  1  0
  7 29  1  0
  7 30  1  0
  8 31  1  1
 10 32  1  0
 11 33  1  0
 12 34  1  0
 13 35  1  0
 15 36  1  0
 16 37  1  0
 16 38  1  0
 16 39  1  0
 17 40  1  0
 17 41  1  0
 17 42  1  0
 18 43  1  0
 19 44  1  0
 22 45  1  0
M  ISO  8  24  13  25  13  26  13  27  13  28   5  29  13  30  13  31  13
M  ISO  8  32  14  33  14  34  14  35  14  36   8  37   8  38   8  39   8
M  ISO  6  40   8  41   8  42   8  43  14  44  14  45  14
M  END
>  <minimizedAffinity>  (1) 
-5.6414113

>  <minimizedRMSD>  (1) 
2.18597031

$$$$
