
     RDKit          3D

 48 51  0  0  1  0  0  0  0  0999 V2000
   39.3450   28.1060   42.3440 C   0  0  2  0  0  0  0  0  0  0  0  0
   40.5070   27.1270   42.2350 C   0  0  2  0  0  0  0  0  0  0  0  0
   40.2300   25.9280   41.4640 C   0  0  0  0  0  0  0  0  0  0  0  0
   40.5700   24.6970   42.2790 C   0  0  0  0  0  0  0  0  0  0  0  0
   41.3270   25.2050   43.4740 C   0  0  0  0  0  0  0  0  0  0  0  0
   40.7940   26.6060   43.6330 C   0  0  1  0  0  0  0  0  0  0  0  0
   41.8830   27.4430   44.2000 C   0  0  0  0  0  0  0  0  0  0  0  0
   42.4260   28.5370   43.5620 C   0  0  0  0  0  0  0  0  0  0  0  0
   43.4380   29.2810   44.1340 C   0  0  0  0  0  0  0  0  0  0  0  0
   43.8760   28.9000   45.3420 N   0  0  0  0  0  0  0  0  0  0  0  0
   43.3620   27.8310   45.9940 C   0  0  0  0  0  0  0  0  0  0  0  0
   42.3750   27.1230   45.4100 N   0  0  0  0  0  0  0  0  0  0  0  0
   38.1490   27.4210   42.7430 N   0  0  0  0  0  0  0  0  0  0  0  0
   37.1580   28.0610   43.5260 C   0  0  0  0  0  0  0  0  0  0  0  0
   37.3880   29.2580   43.9540 N   0  0  0  0  0  0  0  0  0  0  0  0
   35.9580   27.4060   43.8220 N   0  0  0  0  0  0  0  0  0  0  0  0
   36.6740   29.7640   44.5150 H   0  0  0  0  0  0  0  0  0  0  0  0
   38.5900   29.1620   38.9640 C   0  0  0  0  0  0  0  0  0  0  0  0
   39.3990   30.2240   39.3990 C   0  0  0  0  0  0  0  0  0  0  0  0
   39.7230   29.8870   40.6840 C   0  0  0  0  0  0  0  0  0  0  0  0
   39.1560   28.7020   41.0190 N   0  0  0  0  0  0  0  0  0  0  0  0
   38.4710   28.2720   39.9670 N   0  0  0  0  0  0  0  0  0  0  0  0
   38.1490   28.0030   36.7810 C   0  0  0  0  0  0  0  0  0  0  0  0
   37.9970   29.0700   37.6450 C   0  0  0  0  0  0  0  0  0  0  0  0
   37.2220   30.1300   37.2150 C   0  0  0  0  0  0  0  0  0  0  0  0
   36.6300   30.1100   35.9790 N   0  0  0  0  0  0  0  0  0  0  0  0
   36.8270   29.0030   35.1650 C   0  0  0  0  0  0  0  0  0  0  0  0
   37.6000   27.9420   35.5860 N   0  0  0  0  0  0  0  0  0  0  0  0
   39.5609   28.8770   43.0983 H   0  0  0  0  0  0  0  0  0  0  0  0
   41.3188   27.6853   41.7458 H   0  0  0  0  0  0  0  0  0  0  0  0
   39.1631   25.9049   41.1973 H   0  0  0  0  0  0  0  0  0  0  0  0
   40.8430   25.9367   40.5507 H   0  0  0  0  0  0  0  0  0  0  0  0
   39.6523   24.1801   42.5962 H   0  0  0  0  0  0  0  0  0  0  0  0
   41.1606   23.9728   41.6986 H   0  0  0  0  0  0  0  0  0  0  0  0
   41.1153   24.5965   44.3656 H   0  0  0  0  0  0  0  0  0  0  0  0
   42.4190   25.1651   43.3481 H   0  0  0  0  0  0  0  0  0  0  0  0
   39.9005   26.6291   44.2742 H   0  0  0  0  0  0  0  0  0  0  0  0
   42.0432   28.8247   42.5717 H   0  0  0  0  0  0  0  0  0  0  0  0
   43.8682   30.1524   43.6187 H   0  0  0  0  0  0  0  0  0  0  0  0
   43.7439   27.5446   46.9850 H   0  0  0  0  0  0  0  0  0  0  0  0
   38.0083   26.4426   42.4536 H   0  0  0  0  0  0  0  0  0  0  0  0
   35.2411   27.8771   44.3921 H   0  0  0  0  0  0  0  0  0  0  0  0
   35.7912   26.4526   43.4698 H   0  0  0  0  0  0  0  0  0  0  0  0
   39.7019   31.1195   38.8365 H   0  0  0  0  0  0  0  0  0  0  0  0
   40.3544   30.4918   41.3515 H   0  0  0  0  0  0  0  0  0  0  0  0
   38.7654   27.1538   37.1111 H   0  0  0  0  0  0  0  0  0  0  0  0
   37.0784   31.0002   37.8724 H   0  0  0  0  0  0  0  0  0  0  0  0
   36.3596   28.9719   34.1697 H   0  0  0  0  0  0  0  0  0  0  0  0
  1 13  1  0
  2  1  1  0
  2  6  1  0
  3  2  1  0
  3  4  1  0
  4  5  1  0
  5  6  1  0
  6  7  1  0
  7 12  2  0
  8  9  2  0
  8  7  1  0
  9 10  1  0
 10 11  2  0
 12 11  1  0
 13 14  1  0
 14 16  1  0
 14 15  2  0
 15 17  1  0
 18 19  1  0
 18 22  2  0
 19 20  2  0
 20 21  1  0
 21  1  1  0
 22 21  1  0
 23 24  2  0
 24 18  1  0
 25 24  1  0
 26 25  2  0
 27 28  2  0
 27 26  1  0
 28 23  1  0
  1 29  1  1
  2 30  1  6
  3 31  1  0
  3 32  1  0
  4 33  1  0
  4 34  1  0
  5 35  1  0
  5 36  1  0
  6 37  1  1
  8 38  1  0
  9 39  1  0
 11 40  1  0
 13 41  1  0
 16 42  1  0
 16 43  1  0
 19 44  1  0
 20 45  1  0
 23 46  1  0
 25 47  1  0
 27 48  1  0
M  ISO  8  29   8  30  13  31  13  32  13  33  13  34  13  35  13  36  13
M  ISO  8  37  13  38  14  39  14  40  14  44  14  45  14  46  14  47  14
M  ISO  1  48  14
M  END
>  <minimizedAffinity>  (1) 
-5.39428473

>  <minimizedRMSD>  (1) 
0.729462028

$$$$
