
     RDKit          3D

 50 53  0  0  1  0  0  0  0  0999 V2000
   37.5070   27.8030   43.1910 C   0  0  0  0  0  0  0  0  0  0  0  0
   36.6350   27.7310   44.1090 O   0  0  0  0  0  0  0  0  0  0  0  0
   38.1210   26.5850   42.7730 N   0  0  0  0  0  0  0  0  0  0  0  0
   39.4290   26.2470   43.2690 C   0  0  0  0  0  0  0  0  0  0  0  0
   39.7180   24.7960   43.4010 C   0  0  0  0  0  0  0  0  0  0  0  0
   39.1420   23.9470   42.4110 N   0  0  0  0  0  0  0  0  0  0  0  0
   37.7960   24.2110   42.1780 C   0  0  0  0  0  0  0  0  0  0  0  0
   37.5080   25.6720   41.8950 C   0  0  2  0  0  0  0  0  0  0  0  0
   37.4660   25.9230   40.4890 C   0  0  0  0  0  0  0  0  0  0  0  0
   36.3430   25.5420   39.7110 C   0  0  0  0  0  0  0  0  0  0  0  0
   36.2130   25.7380   38.3590 C   0  0  0  0  0  0  0  0  0  0  0  0
   37.2920   26.3740   37.7270 C   0  0  0  0  0  0  0  0  0  0  0  0
   38.4380   26.7730   38.4460 C   0  0  0  0  0  0  0  0  0  0  0  0
   38.4600   26.5120   39.8110 C   0  0  0  0  0  0  0  0  0  0  0  0
   39.8090   26.8080   39.9430 N   0  0  0  0  0  0  0  0  0  0  0  0
   41.1060   26.3930   40.3580 C   0  0  0  0  0  0  0  0  0  0  0  0
   41.5990   27.3660   41.4350 C   0  0  0  0  0  0  0  0  0  0  0  0
   42.2080   28.4730   40.7400 N   0  0  0  0  0  0  0  0  0  0  0  0
   41.4160   28.6440   39.5250 C   0  0  0  0  0  0  0  0  0  0  0  0
   39.9980   28.2340   39.6450 C   0  0  0  0  0  0  0  0  0  0  0  0
   39.4640   30.8020   42.3610 C   0  0  0  0  0  0  0  0  0  0  0  0
   39.0740   29.6250   42.9680 C   0  0  0  0  0  0  0  0  0  0  0  0
   37.9080   29.0410   42.5490 C   0  0  0  0  0  0  0  0  0  0  0  0
   37.2160   29.6480   41.5760 N   0  0  0  0  0  0  0  0  0  0  0  0
   37.6080   30.7910   40.9980 C   0  0  0  0  0  0  0  0  0  0  0  0
   38.7310   31.3740   41.3840 N   0  0  0  0  0  0  0  0  0  0  0  0
   40.1718   26.6773   42.5812 H   0  0  0  0  0  0  0  0  0  0  0  0
   39.4743   26.6535   44.2901 H   0  0  0  0  0  0  0  0  0  0  0  0
   40.8096   24.6661   43.3606 H   0  0  0  0  0  0  0  0  0  0  0  0
   39.2606   24.4901   44.3535 H   0  0  0  0  0  0  0  0  0  0  0  0
   39.6582   24.0756   41.5290 H   0  0  0  0  0  0  0  0  0  0  0  0
   37.4694   23.6173   41.3115 H   0  0  0  0  0  0  0  0  0  0  0  0
   37.2500   23.9447   43.0950 H   0  0  0  0  0  0  0  0  0  0  0  0
   36.4774   25.9130   42.1947 H   0  0  0  0  0  0  0  0  0  0  0  0
   35.5093   25.0499   40.2333 H   0  0  0  0  0  0  0  0  0  0  0  0
   35.3185   25.4165   37.8053 H   0  0  0  0  0  0  0  0  0  0  0  0
   37.2431   26.5661   36.6450 H   0  0  0  0  0  0  0  0  0  0  0  0
   39.2815   27.2714   37.9459 H   0  0  0  0  0  0  0  0  0  0  0  0
   41.0567   25.3746   40.7708 H   0  0  0  0  0  0  0  0  0  0  0  0
   41.7966   26.3925   39.5018 H   0  0  0  0  0  0  0  0  0  0  0  0
   40.7536   27.7186   42.0440 H   0  0  0  0  0  0  0  0  0  0  0  0
   42.3160   26.8791   42.1124 H   0  0  0  0  0  0  0  0  0  0  0  0
   42.1728   29.3254   41.3172 H   0  0  0  0  0  0  0  0  0  0  0  0
   41.8792   28.0446   38.7274 H   0  0  0  0  0  0  0  0  0  0  0  0
   41.4092   29.7226   39.3091 H   0  0  0  0  0  0  0  0  0  0  0  0
   39.5362   28.8200   40.4533 H   0  0  0  0  0  0  0  0  0  0  0  0
   39.5307   28.4181   38.6664 H   0  0  0  0  0  0  0  0  0  0  0  0
   40.3977   31.2863   42.6829 H   0  0  0  0  0  0  0  0  0  0  0  0
   39.6814   29.1699   43.7642 H   0  0  0  0  0  0  0  0  0  0  0  0
   36.9970   31.2442   40.2035 H   0  0  0  0  0  0  0  0  0  0  0  0
  1  2  2  0
  3  1  1  0
  3  4  1  0
  4  5  1  0
  6  5  1  0
  7  6  1  0
  8  7  1  0
  8  3  1  0
  9  8  1  0
 10  9  2  0
 11 10  1  0
 12 11  2  0
 12 13  1  0
 13 14  2  0
 14 15  1  0
 14  9  1  0
 15 16  1  0
 16 17  1  0
 18 17  1  0
 19 20  1  0
 19 18  1  0
 20 15  1  0
 21 22  2  0
 23 22  1  0
 23  1  1  0
 24 23  2  0
 25 26  2  0
 25 24  1  0
 26 21  1  0
  4 27  1  0
  4 28  1  0
  5 29  1  0
  5 30  1  0
  6 31  1  0
  7 32  1  0
  7 33  1  0
  8 34  1  1
 10 35  1  0
 11 36  1  0
 12 37  1  0
 13 38  1  0
 16 39  1  0
 16 40  1  0
 17 41  1  0
 17 42  1  0
 18 43  1  0
 19 44  1  0
 19 45  1  0
 20 46  1  0
 20 47  1  0
 21 48  1  0
 22 49  1  0
 25 50  1  0
M  ISO  8  27  13  28  13  29  13  30  13  31   5  32  13  33  13  34  13
M  ISO  8  35  14  36  14  37  14  38  14  39  13  40  13  41  13  42  13
M  ISO  8  43   5  44  13  45  13  46  13  47  13  48  14  49  14  50  14
M  END
>  <minimizedAffinity>  (1) 
-5.38249826

>  <minimizedRMSD>  (1) 
0.593373656

$$$$
