
     RDKit          3D

 38 40  0  0  1  0  0  0  0  0999 V2000
   37.4970   27.8020   43.1960 C   0  0  0  0  0  0  0  0  0  0  0  0
   36.6310   27.7290   44.1200 O   0  0  0  0  0  0  0  0  0  0  0  0
   38.0950   26.5710   42.7880 N   0  0  0  0  0  0  0  0  0  0  0  0
   39.4130   26.2490   43.2910 C   0  0  0  0  0  0  0  0  0  0  0  0
   39.7190   24.8020   43.4080 C   0  0  0  0  0  0  0  0  0  0  0  0
   39.1830   23.9620   42.3920 N   0  0  0  0  0  0  0  0  0  0  0  0
   37.8100   24.2030   42.1950 C   0  0  0  0  0  0  0  0  0  0  0  0
   37.4420   25.6530   41.9360 C   0  0  2  0  0  0  0  0  0  0  0  0
   37.4360   25.9160   40.5160 C   0  0  0  0  0  0  0  0  0  0  0  0
   36.3410   25.5280   39.7120 C   0  0  0  0  0  0  0  0  0  0  0  0
   36.2610   25.7150   38.3430 C   0  0  0  0  0  0  0  0  0  0  0  0
   37.3460   26.3320   37.7280 C   0  0  0  0  0  0  0  0  0  0  0  0
   38.4560   26.7350   38.4620 C   0  0  0  0  0  0  0  0  0  0  0  0
   38.4660   26.5120   39.8240 C   0  0  0  0  0  0  0  0  0  0  0  0
   39.7290   26.9450   40.2210 N   0  0  0  0  0  0  0  0  0  0  0  0
   39.4790   30.8010   42.3870 C   0  0  0  0  0  0  0  0  0  0  0  0
   39.0600   29.6280   42.9940 C   0  0  0  0  0  0  0  0  0  0  0  0
   37.8930   29.0340   42.5610 C   0  0  0  0  0  0  0  0  0  0  0  0
   37.2090   29.6240   41.5650 N   0  0  0  0  0  0  0  0  0  0  0  0
   37.6410   30.7670   40.9920 C   0  0  0  0  0  0  0  0  0  0  0  0
   38.7620   31.3630   41.3860 N   0  0  0  0  0  0  0  0  0  0  0  0
   40.1532   26.6975   42.6121 H   0  0  0  0  0  0  0  0  0  0  0  0
   39.4497   26.6479   44.3155 H   0  0  0  0  0  0  0  0  0  0  0  0
   40.8130   24.6883   43.3949 H   0  0  0  0  0  0  0  0  0  0  0  0
   39.2407   24.4748   44.3430 H   0  0  0  0  0  0  0  0  0  0  0  0
   39.6843   24.1415   41.5103 H   0  0  0  0  0  0  0  0  0  0  0  0
   37.4800   23.6079   41.3307 H   0  0  0  0  0  0  0  0  0  0  0  0
   37.3116   23.9233   43.1349 H   0  0  0  0  0  0  0  0  0  0  0  0
   36.4027   25.8355   42.2468 H   0  0  0  0  0  0  0  0  0  0  0  0
   35.4896   25.0416   40.2106 H   0  0  0  0  0  0  0  0  0  0  0  0
   35.3809   25.3910   37.7681 H   0  0  0  0  0  0  0  0  0  0  0  0
   37.3252   26.5040   36.6417 H   0  0  0  0  0  0  0  0  0  0  0  0
   39.3092   27.2219   37.9670 H   0  0  0  0  0  0  0  0  0  0  0  0
   40.0048   26.8889   41.2118 H   0  0  0  0  0  0  0  0  0  0  0  0
   40.3871   27.3213   39.5238 H   0  0  0  0  0  0  0  0  0  0  0  0
   40.4087   31.2829   42.7238 H   0  0  0  0  0  0  0  0  0  0  0  0
   39.6482   29.1782   43.8075 H   0  0  0  0  0  0  0  0  0  0  0  0
   37.0513   31.2163   40.1794 H   0  0  0  0  0  0  0  0  0  0  0  0
  1  2  2  0
  3  1  1  0
  3  4  1  0
  4  5  1  0
  6  5  1  0
  7  6  1  0
  8  7  1  0
  8  3  1  0
  9  8  1  0
 10  9  2  0
 11 10  1  0
 12 11  2  0
 12 13  1  0
 13 14  2  0
 14 15  1  0
 14  9  1  0
 16 17  2  0
 18 17  1  0
 18  1  1  0
 19 18  2  0
 20 21  2  0
 20 19  1  0
 21 16  1  0
  4 22  1  0
  4 23  1  0
  5 24  1  0
  5 25  1  0
  6 26  1  0
  7 27  1  0
  7 28  1  0
  8 29  1  1
 10 30  1  0
 11 31  1  0
 12 32  1  0
 13 33  1  0
 15 34  1  0
 15 35  1  0
 16 36  1  0
 17 37  1  0
 20 38  1  0
M  ISO  8  22  13  23  13  24  13  25  13  26   5  27  13  28  13  29  13
M  ISO  7  30  14  31  14  32  14  33  14  36  14  37  14  38  14
M  END
>  <minimizedAffinity>  (1) 
-5.20387411

>  <minimizedRMSD>  (1) 
0.314381361

$$$$
