
     RDKit          3D

 26 28  0  0  0  0  0  0  0  0999 V2000
   40.3310   31.0300   38.8660 C   0  0  0  0  0  0  0  0  0  0  0  0
   40.3500   30.0180   37.8550 C   0  0  0  0  0  0  0  0  0  0  0  0
   39.4690   28.5880   38.6720 S   0  0  0  0  0  0  0  0  0  0  0  0
   39.2450   29.6360   40.2220 C   0  0  0  0  0  0  0  0  0  0  0  0
   39.7310   30.6270   39.9650 N   0  0  0  0  0  0  0  0  0  0  0  0
   38.5810   29.1900   41.4380 N   0  0  0  0  0  0  0  0  0  0  0  0
   39.1290   28.1250   42.0180 C   0  0  0  0  0  0  0  0  0  0  0  0
   38.5110   27.6730   43.1900 C   0  0  0  0  0  0  0  0  0  0  0  0
   37.3830   28.3170   43.7070 C   0  0  0  0  0  0  0  0  0  0  0  0
   36.7940   27.9590   44.7430 O   0  0  0  0  0  0  0  0  0  0  0  0
   36.9110   29.4000   43.0240 N   0  0  0  0  0  0  0  0  0  0  0  0
   37.5090   29.8350   41.8920 C   0  0  0  0  0  0  0  0  0  0  0  0
   37.0280   30.8450   41.3010 O   0  0  0  0  0  0  0  0  0  0  0  0
   40.8020   33.3710   39.5030 C   0  0  0  0  0  0  0  0  0  0  0  0
   40.9440   32.3300   38.5930 C   0  0  0  0  0  0  0  0  0  0  0  0
   41.6830   32.5700   37.4310 C   0  0  0  0  0  0  0  0  0  0  0  0
   42.2190   33.8080   37.2590 N   0  0  0  0  0  0  0  0  0  0  0  0
   42.0580   34.7960   38.1690 C   0  0  0  0  0  0  0  0  0  0  0  0
   41.3560   34.5660   39.2740 N   0  0  0  0  0  0  0  0  0  0  0  0
   40.7788   30.0695   36.8433 H   0  0  0  0  0  0  0  0  0  0  0  0
   40.0170   27.6281   41.6003 H   0  0  0  0  0  0  0  0  0  0  0  0
   38.9200   26.7960   43.7131 H   0  0  0  0  0  0  0  0  0  0  0  0
   36.0813   29.8968   43.3784 H   0  0  0  0  0  0  0  0  0  0  0  0
   40.2251   33.2092   40.4255 H   0  0  0  0  0  0  0  0  0  0  0  0
   41.8267   31.7810   36.6781 H   0  0  0  0  0  0  0  0  0  0  0  0
   42.5061   35.7854   37.9952 H   0  0  0  0  0  0  0  0  0  0  0  0
  1  5  1  0
  2  3  1  0
  2  1  2  0
  3  4  1  0
  4  6  1  0
  5  4  2  0
  6 12  1  0
  6  7  1  0
  7  8  2  0
  8  9  1  0
  9 10  2  0
 11  9  1  0
 12 11  1  0
 13 12  2  0
 15  1  1  0
 15 14  2  0
 16 15  1  0
 17 16  2  0
 17 18  1  0
 18 19  2  0
 19 14  1  0
  2 20  1  0
  7 21  1  0
  8 22  1  0
 11 23  1  0
 14 24  1  0
 16 25  1  0
 18 26  1  0
M  ISO  7  20  14  21  14  22  14  23   9  24  14  25  14  26  14
M  END
>  <minimizedAffinity>  (1) 
-5.43489838

>  <minimizedRMSD>  (1) 
5.53966904

$$$$
