
     RDKit          3D

 29 31  0  0  0  0  0  0  0  0999 V2000
   38.1560   31.8840   39.5770 C   0  0  0  0  0  0  0  0  0  0  0  0
   37.3140   31.9370   38.4060 C   0  0  0  0  0  0  0  0  0  0  0  0
   36.5270   30.2450   38.3590 S   0  0  0  0  0  0  0  0  0  0  0  0
   37.4820   29.7880   39.9260 C   0  0  0  0  0  0  0  0  0  0  0  0
   38.0790   30.7190   40.1750 N   0  0  0  0  0  0  0  0  0  0  0  0
   37.3870   28.4940   40.5760 N   0  0  0  0  0  0  0  0  0  0  0  0
   37.4960   27.4220   39.7800 C   0  0  0  0  0  0  0  0  0  0  0  0
   37.4000   26.1990   40.4400 C   0  0  0  0  0  0  0  0  0  0  0  0
   37.5050   24.9350   39.6730 C   0  0  0  0  0  0  0  0  0  0  0  0
   37.2090   26.1890   41.8000 C   0  0  0  0  0  0  0  0  0  0  0  0
   37.1200   25.0900   42.4050 O   0  0  0  0  0  0  0  0  0  0  0  0
   37.1110   27.3040   42.5200 N   0  0  0  0  0  0  0  0  0  0  0  0
   37.2000   28.4780   41.9090 C   0  0  0  0  0  0  0  0  0  0  0  0
   37.1130   29.5620   42.5490 O   0  0  0  0  0  0  0  0  0  0  0  0
   40.3210   32.9400   40.0970 C   0  0  0  0  0  0  0  0  0  0  0  0
   38.9460   33.0520   39.9410 C   0  0  0  0  0  0  0  0  0  0  0  0
   38.3610   34.3060   40.1430 C   0  0  0  0  0  0  0  0  0  0  0  0
   39.1580   35.3600   40.4830 N   0  0  0  0  0  0  0  0  0  0  0  0
   40.5120   35.1900   40.6230 C   0  0  0  0  0  0  0  0  0  0  0  0
   41.0790   33.9850   40.4300 N   0  0  0  0  0  0  0  0  0  0  0  0
   37.1703   32.7747   37.7077 H   0  0  0  0  0  0  0  0  0  0  0  0
   37.6489   27.5011   38.6935 H   0  0  0  0  0  0  0  0  0  0  0  0
   37.5754   24.0875   40.3707 H   0  0  0  0  0  0  0  0  0  0  0  0
   36.6137   24.8154   39.0395 H   0  0  0  0  0  0  0  0  0  0  0  0
   38.4038   24.9641   39.0395 H   0  0  0  0  0  0  0  0  0  0  0  0
   36.9678   27.2559   43.5389 H   0  0  0  0  0  0  0  0  0  0  0  0
   40.7985   31.9614   39.9414 H   0  0  0  0  0  0  0  0  0  0  0  0
   37.2752   34.4406   40.0296 H   0  0  0  0  0  0  0  0  0  0  0  0
   41.1420   36.0493   40.8964 H   0  0  0  0  0  0  0  0  0  0  0  0
  1 16  1  0
  1  5  1  0
  2  1  2  0
  3  2  1  0
  3  4  1  0
  4  5  2  0
  4  6  1  0
  6 13  1  0
  7  8  2  0
  7  6  1  0
  8 10  1  0
  9  8  1  0
 10 11  2  0
 10 12  1  0
 13 12  1  0
 13 14  2  0
 15 20  2  0
 16 15  1  0
 16 17  2  0
 17 18  1  0
 18 19  2  0
 20 19  1  0
  2 21  1  0
  7 22  1  0
  9 23  1  0
  9 24  1  0
  9 25  1  0
 12 26  1  0
 15 27  1  0
 17 28  1  0
 19 29  1  0
M  ISO  8  21  14  22  14  23   8  24   8  25   8  26   9  27  14  28  14
M  ISO  1  29  14
M  END
>  <minimizedAffinity>  (1) 
-5.35031796

>  <minimizedRMSD>  (1) 
6.06125546

$$$$
