
     RDKit          3D

 27 30  0  0  0  0  0  0  0  0999 V2000
   38.9830   32.1960   39.4890 C   0  0  0  0  0  0  0  0  0  0  0  0
   37.6450   32.4880   39.0390 C   0  0  0  0  0  0  0  0  0  0  0  0
   36.5970   31.2820   39.9800 S   0  0  0  0  0  0  0  0  0  0  0  0
   38.1600   30.6060   40.8070 C   0  0  0  0  0  0  0  0  0  0  0  0
   39.0110   31.2100   40.3810 N   0  0  0  0  0  0  0  0  0  0  0  0
   38.2300   29.5160   41.7970 N   0  0  0  0  0  0  0  0  0  0  0  0
   38.6730   29.4660   43.0670 C   0  0  0  0  0  0  0  0  0  0  0  0
   38.4830   28.1930   43.4630 N   0  0  0  0  0  0  0  0  0  0  0  0
   37.9390   27.4720   42.4710 C   0  0  0  0  0  0  0  0  0  0  0  0
   37.5750   26.1490   42.4210 C   0  0  0  0  0  0  0  0  0  0  0  0
   37.0420   25.6890   41.2670 N   0  0  0  0  0  0  0  0  0  0  0  0
   36.8690   26.4780   40.2110 C   0  0  0  0  0  0  0  0  0  0  0  0
   37.2330   27.7700   40.2840 N   0  0  0  0  0  0  0  0  0  0  0  0
   37.7710   28.3200   41.3840 C   0  0  0  0  0  0  0  0  0  0  0  0
   40.5170   34.1350   39.5630 C   0  0  0  0  0  0  0  0  0  0  0  0
   40.1130   32.9510   38.9620 C   0  0  0  0  0  0  0  0  0  0  0  0
   40.8180   32.5060   37.8420 C   0  0  0  0  0  0  0  0  0  0  0  0
   41.8720   33.2470   37.3870 N   0  0  0  0  0  0  0  0  0  0  0  0
   42.2210   34.4100   38.0280 C   0  0  0  0  0  0  0  0  0  0  0  0
   41.5500   34.8440   39.1020 N   0  0  0  0  0  0  0  0  0  0  0  0
   37.3223   33.2463   38.3104 H   0  0  0  0  0  0  0  0  0  0  0  0
   39.0999   30.2906   43.6567 H   0  0  0  0  0  0  0  0  0  0  0  0
   37.7122   25.4872   43.2888 H   0  0  0  0  0  0  0  0  0  0  0  0
   36.4315   26.0768   39.2849 H   0  0  0  0  0  0  0  0  0  0  0  0
   39.9701   34.4999   40.4449 H   0  0  0  0  0  0  0  0  0  0  0  0
   40.5296   31.5739   37.3341 H   0  0  0  0  0  0  0  0  0  0  0  0
   43.0706   34.9980   37.6507 H   0  0  0  0  0  0  0  0  0  0  0  0
  1  5  1  0
  2  1  2  0
  2  3  1  0
  3  4  1  0
  4  6  1  0
  5  4  2  0
  6  7  1  0
  7  8  2  0
  9  8  1  0
 10  9  2  0
 11 10  1  0
 12 13  1  0
 12 11  2  0
 13 14  2  0
 14  6  1  0
 14  9  1  0
 16  1  1  0
 16 15  2  0
 17 16  1  0
 18 17  2  0
 18 19  1  0
 19 20  2  0
 20 15  1  0
  2 21  1  0
  7 22  1  0
 10 23  1  0
 12 24  1  0
 15 25  1  0
 17 26  1  0
 19 27  1  0
M  ISO  7  21  14  22  14  23  14  24  14  25  14  26  14  27  14
M  END
>  <minimizedAffinity>  (1) 
-5.23382711

>  <minimizedRMSD>  (1) 
6.088099

$$$$
