
     RDKit          3D

 29 32  0  0  0  0  0  0  0  0999 V2000
   41.1180   30.7810   38.5070 C   0  0  0  0  0  0  0  0  0  0  0  0
   41.2780   29.6050   37.7110 C   0  0  0  0  0  0  0  0  0  0  0  0
   40.1640   28.3600   38.4970 S   0  0  0  0  0  0  0  0  0  0  0  0
   39.6590   29.6680   39.7940 C   0  0  0  0  0  0  0  0  0  0  0  0
   40.2600   30.5940   39.5000 N   0  0  0  0  0  0  0  0  0  0  0  0
   38.7210   29.5310   40.9140 N   0  0  0  0  0  0  0  0  0  0  0  0
   37.6400   30.3150   41.0760 C   0  0  0  0  0  0  0  0  0  0  0  0
   36.9860   29.9310   42.2020 N   0  0  0  0  0  0  0  0  0  0  0  0
   37.6860   28.9190   42.7040 C   0  0  0  0  0  0  0  0  0  0  0  0
   37.4910   28.1370   43.8410 C   0  0  0  0  0  0  0  0  0  0  0  0
   38.3850   27.1440   44.1210 N   0  0  0  0  0  0  0  0  0  0  0  0
   39.4480   26.9110   43.3160 C   0  0  0  0  0  0  0  0  0  0  0  0
   39.6520   27.6640   42.2050 N   0  0  0  0  0  0  0  0  0  0  0  0
   38.7870   28.6400   41.9160 C   0  0  0  0  0  0  0  0  0  0  0  0
   41.2790   33.2280   38.2930 C   0  0  0  0  0  0  0  0  0  0  0  0
   41.8650   31.9770   38.1740 C   0  0  0  0  0  0  0  0  0  0  0  0
   43.1890   31.9280   37.7300 C   0  0  0  0  0  0  0  0  0  0  0  0
   43.8200   33.1110   37.4430 N   0  0  0  0  0  0  0  0  0  0  0  0
   43.1960   34.3020   37.5790 C   0  0  0  0  0  0  0  0  0  0  0  0
   41.9160   34.3610   38.0080 N   0  0  0  0  0  0  0  0  0  0  0  0
   36.3900   28.3270   44.7350 N   0  0  0  0  0  0  0  0  0  0  0  0
   41.9206   29.4715   36.8282 H   0  0  0  0  0  0  0  0  0  0  0  0
   37.3359   31.1329   40.4062 H   0  0  0  0  0  0  0  0  0  0  0  0
   40.1531   26.1040   43.5644 H   0  0  0  0  0  0  0  0  0  0  0  0
   40.2368   33.2867   38.6399 H   0  0  0  0  0  0  0  0  0  0  0  0
   43.7108   30.9666   37.6139 H   0  0  0  0  0  0  0  0  0  0  0  0
   43.7343   35.2307   37.3386 H   0  0  0  0  0  0  0  0  0  0  0  0
   36.2888   27.7228   45.5630 H   0  0  0  0  0  0  0  0  0  0  0  0
   35.6987   29.0679   44.5505 H   0  0  0  0  0  0  0  0  0  0  0  0
  1  5  1  0
  2  3  1  0
  2  1  2  0
  3  4  1  0
  4  6  1  0
  5  4  2  0
  6  7  1  0
  6 14  1  0
  7  8  2  0
  8  9  1  0
  9 10  2  0
 10 11  1  0
 10 21  1  0
 12 11  2  0
 13 12  1  0
 14 13  2  0
 14  9  1  0
 16 15  2  0
 16  1  1  0
 17 16  1  0
 18 19  1  0
 18 17  2  0
 19 20  2  0
 20 15  1  0
  2 22  1  0
  7 23  1  0
 12 24  1  0
 15 25  1  0
 17 26  1  0
 19 27  1  0
 21 28  1  0
 21 29  1  0
M  ISO  6  22  14  23  14  24  14  25  14  26  14  27  14
M  END
>  <minimizedAffinity>  (1) 
-5.12178564

>  <minimizedRMSD>  (1) 
6.04523849

$$$$
