
     RDKit          3D

 26 28  0  0  0  0  0  0  0  0999 V2000
   39.7390   31.4270   39.8470 C   0  0  0  0  0  0  0  0  0  0  0  0
   40.5070   30.7600   38.8410 C   0  0  0  0  0  0  0  0  0  0  0  0
   40.1730   28.9640   39.1490 S   0  0  0  0  0  0  0  0  0  0  0  0
   39.0520   29.4470   40.5880 C   0  0  0  0  0  0  0  0  0  0  0  0
   39.0930   30.5840   40.6060 N   0  0  0  0  0  0  0  0  0  0  0  0
   38.6850   33.5770   40.4320 C   0  0  0  0  0  0  0  0  0  0  0  0
   39.7680   32.8870   39.9070 C   0  0  0  0  0  0  0  0  0  0  0  0
   40.8590   33.6360   39.4540 C   0  0  0  0  0  0  0  0  0  0  0  0
   40.7960   34.9960   39.5550 N   0  0  0  0  0  0  0  0  0  0  0  0
   39.7030   35.6210   40.0810 C   0  0  0  0  0  0  0  0  0  0  0  0
   38.6560   34.9110   40.5150 N   0  0  0  0  0  0  0  0  0  0  0  0
   38.3490   28.4070   41.4080 C   0  0  0  0  0  0  0  0  0  0  0  0
   38.7700   27.1210   41.3210 C   0  0  0  0  0  0  0  0  0  0  0  0
   38.1010   26.1890   42.0880 C   0  0  0  0  0  0  0  0  0  0  0  0
   37.0480   26.5650   42.9050 C   0  0  0  0  0  0  0  0  0  0  0  0
   36.6170   27.8630   42.9960 C   0  0  0  0  0  0  0  0  0  0  0  0
   37.3040   28.7910   42.2150 C   0  0  0  0  0  0  0  0  0  0  0  0
   41.1461   31.2085   38.0661 H   0  0  0  0  0  0  0  0  0  0  0  0
   37.8177   33.0051   40.7935 H   0  0  0  0  0  0  0  0  0  0  0  0
   41.7446   33.1421   39.0275 H   0  0  0  0  0  0  0  0  0  0  0  0
   39.6829   36.7187   40.1487 H   0  0  0  0  0  0  0  0  0  0  0  0
   39.6074   26.8335   40.6682 H   0  0  0  0  0  0  0  0  0  0  0  0
   38.4083   25.1335   42.0499 H   0  0  0  0  0  0  0  0  0  0  0  0
   36.5391   25.7943   43.5025 H   0  0  0  0  0  0  0  0  0  0  0  0
   35.7792   28.1548   43.6463 H   0  0  0  0  0  0  0  0  0  0  0  0
   37.0049   29.8491   42.2448 H   0  0  0  0  0  0  0  0  0  0  0  0
  1  7  1  0
  1  5  1  0
  2  3  1  0
  2  1  2  0
  3  4  1  0
  4  5  2  0
  4 12  1  0
  6 11  2  0
  7  6  1  0
  8  9  1  0
  8  7  2  0
  9 10  2  0
 10 11  1  0
 12 17  1  0
 13 12  2  0
 13 14  1  0
 14 15  2  0
 15 16  1  0
 17 16  2  0
  2 18  1  0
  6 19  1  0
  8 20  1  0
 10 21  1  0
 13 22  1  0
 14 23  1  0
 15 24  1  0
 16 25  1  0
 17 26  1  0
M  ISO  8  18  14  19  14  20  14  21  14  22  14  23  14  24  14  25  14
M  ISO  1  26  14
M  END
>  <minimizedAffinity>  (1) 
-4.59334993

>  <minimizedRMSD>  (1) 
5.2535305

$$$$
