
     RDKit          3D

 23 25  0  0  0  0  0  0  0  0999 V2000
   38.0770   30.2390   40.4220 C   0  0  0  0  0  0  0  0  0  0  0  0
   37.8870   29.9780   39.0270 C   0  0  0  0  0  0  0  0  0  0  0  0
   38.5090   31.5350   38.2050 S   0  0  0  0  0  0  0  0  0  0  0  0
   38.9070   32.2390   39.9130 C   0  0  0  0  0  0  0  0  0  0  0  0
   38.5950   31.4190   40.6280 N   0  0  0  0  0  0  0  0  0  0  0  0
   37.8670   29.4500   42.7570 C   0  0  0  0  0  0  0  0  0  0  0  0
   37.6950   29.2210   41.3990 C   0  0  0  0  0  0  0  0  0  0  0  0
   37.1480   27.9940   41.0150 C   0  0  0  0  0  0  0  0  0  0  0  0
   36.8150   27.0940   41.9810 N   0  0  0  0  0  0  0  0  0  0  0  0
   37.0040   27.3680   43.2970 C   0  0  0  0  0  0  0  0  0  0  0  0
   37.5300   28.5460   43.6720 N   0  0  0  0  0  0  0  0  0  0  0  0
   39.5030   33.5970   40.1350 C   0  0  0  0  0  0  0  0  0  0  0  0
   40.6050   34.1780   39.5750 C   0  0  0  0  0  0  0  0  0  0  0  0
   40.6870   35.4330   40.1440 C   0  0  0  0  0  0  0  0  0  0  0  0
   39.6610   35.5550   41.0020 N   0  0  0  0  0  0  0  0  0  0  0  0
   38.9450   34.4550   41.0020 N   0  0  0  0  0  0  0  0  0  0  0  0
   37.4734   29.0757   38.5528 H   0  0  0  0  0  0  0  0  0  0  0  0
   38.2950   30.4083   43.0863 H   0  0  0  0  0  0  0  0  0  0  0  0
   36.9893   27.7594   39.9521 H   0  0  0  0  0  0  0  0  0  0  0  0
   36.7259   26.6240   44.0580 H   0  0  0  0  0  0  0  0  0  0  0  0
   41.2834   33.7389   38.8287 H   0  0  0  0  0  0  0  0  0  0  0  0
   41.4527   36.1941   39.9332 H   0  0  0  0  0  0  0  0  0  0  0  0
   39.4651   36.3882   41.5750 H   0  0  0  0  0  0  0  0  0  0  0  0
  1  5  1  0
  1  7  1  0
  2  1  2  0
  3  2  1  0
  3  4  1  0
  4 12  1  0
  4  5  2  0
  6 11  2  0
  7  6  1  0
  8  7  2  0
  8  9  1  0
  9 10  2  0
 10 11  1  0
 12 16  2  0
 13 12  1  0
 13 14  2  0
 14 15  1  0
 16 15  1  0
  2 17  1  0
  6 18  1  0
  8 19  1  0
 10 20  1  0
 13 21  1  0
 14 22  1  0
 15 23  1  0
M  ISO  7  17  14  18  14  19  14  20  14  21  14  22  14  23   9
M  END
>  <minimizedAffinity>  (1) 
-4.40795231

>  <minimizedRMSD>  (1) 
6.62873507

$$$$
