
     RDKit          3D

 28 29  0  0  0  0  0  0  0  0999 V2000
   37.5700   28.1160   40.6640 C   0  0  0  0  0  0  0  0  0  0  0  0
   36.6280   27.0870   40.3000 C   0  0  0  0  0  0  0  0  0  0  0  0
   37.3080   25.5670   41.1330 S   0  0  0  0  0  0  0  0  0  0  0  0
   38.7300   26.6030   41.8130 C   0  0  0  0  0  0  0  0  0  0  0  0
   38.5300   27.6400   41.4200 N   0  0  0  0  0  0  0  0  0  0  0  0
   37.2070   30.5210   41.1020 C   0  0  0  0  0  0  0  0  0  0  0  0
   37.3770   29.4830   40.1860 C   0  0  0  0  0  0  0  0  0  0  0  0
   37.3640   29.7840   38.8200 C   0  0  0  0  0  0  0  0  0  0  0  0
   37.1840   31.0930   38.4630 N   0  0  0  0  0  0  0  0  0  0  0  0
   37.0220   32.0660   39.4000 C   0  0  0  0  0  0  0  0  0  0  0  0
   37.0340   31.7840   40.6980 N   0  0  0  0  0  0  0  0  0  0  0  0
   39.7500   25.8830   42.6700 C   0  0  0  0  0  0  0  0  0  0  0  0
   39.8330   26.5880   43.9970 C   0  0  0  0  0  0  0  0  0  0  0  0
   39.3100   24.4730   42.8700 C   0  0  0  0  0  0  0  0  0  0  0  0
   41.1160   25.9480   42.0390 C   0  0  0  0  0  0  0  0  0  0  0  0
   35.7245   27.1781   39.6792 H   0  0  0  0  0  0  0  0  0  0  0  0
   37.2154   30.2961   42.1787 H   0  0  0  0  0  0  0  0  0  0  0  0
   37.4936   28.9982   38.0612 H   0  0  0  0  0  0  0  0  0  0  0  0
   36.8782   33.1074   39.0761 H   0  0  0  0  0  0  0  0  0  0  0  0
   39.7463   25.8516   44.8095 H   0  0  0  0  0  0  0  0  0  0  0  0
   40.7987   27.1089   44.0757 H   0  0  0  0  0  0  0  0  0  0  0  0
   39.0147   27.3189   44.0757 H   0  0  0  0  0  0  0  0  0  0  0  0
   39.2432   24.2590   43.9469 H   0  0  0  0  0  0  0  0  0  0  0  0
   38.3237   24.3273   42.4053 H   0  0  0  0  0  0  0  0  0  0  0  0
   40.0384   23.7922   42.4053 H   0  0  0  0  0  0  0  0  0  0  0  0
   41.8826   25.9845   42.8271 H   0  0  0  0  0  0  0  0  0  0  0  0
   41.2742   25.0564   41.4145 H   0  0  0  0  0  0  0  0  0  0  0  0
   41.1889   26.8506   41.4145 H   0  0  0  0  0  0  0  0  0  0  0  0
  1  5  1  0
  2  1  2  0
  2  3  1  0
  3  4  1  0
  4 12  1  0
  5  4  2  0
  7  1  1  0
  7  6  2  0
  8  7  1  0
  9  8  2  0
  9 10  1  0
 10 11  2  0
 11  6  1  0
 12 14  1  0
 12 13  1  0
 15 12  1  0
  2 16  1  0
  6 17  1  0
  8 18  1  0
 10 19  1  0
 13 20  1  0
 13 21  1  0
 13 22  1  0
 14 23  1  0
 14 24  1  0
 14 25  1  0
 15 26  1  0
 15 27  1  0
 15 28  1  0
M  ISO  8  16  14  17  14  18  14  19  14  20   8  21   8  22   8  23   8
M  ISO  5  24   8  25   8  26   8  27   8  28   8
M  END
>  <minimizedAffinity>  (1) 
-3.79130363

>  <minimizedRMSD>  (1) 
2.20175505

$$$$
