
     RDKit          3D

 32 34  0  0  0  0  0  0  0  0999 V2000
   41.8790   29.2350   38.5500 C   0  0  0  0  0  0  0  0  0  0  0  0
   42.3240   28.2390   39.4730 C   0  0  0  0  0  0  0  0  0  0  0  0
   40.8390   27.9340   40.5430 S   0  0  0  0  0  0  0  0  0  0  0  0
   39.8750   29.2310   39.5280 C   0  0  0  0  0  0  0  0  0  0  0  0
   40.6390   29.5750   38.7640 N   0  0  0  0  0  0  0  0  0  0  0  0
   42.5430   29.5120   36.2000 C   0  0  0  0  0  0  0  0  0  0  0  0
   42.8110   29.7170   37.5470 C   0  0  0  0  0  0  0  0  0  0  0  0
   43.9920   30.3940   37.8620 C   0  0  0  0  0  0  0  0  0  0  0  0
   44.8090   30.8120   36.8470 N   0  0  0  0  0  0  0  0  0  0  0  0
   44.4850   30.5770   35.5410 C   0  0  0  0  0  0  0  0  0  0  0  0
   43.3610   29.9320   35.2290 N   0  0  0  0  0  0  0  0  0  0  0  0
   38.4430   29.6010   39.8000 C   0  0  0  0  0  0  0  0  0  0  0  0
   38.0240   29.0170   41.0960 C   0  0  0  0  0  0  0  0  0  0  0  0
   37.1100   29.9090   41.9000 C   0  0  0  0  0  0  0  0  0  0  0  0
   36.2240   30.7790   41.0680 C   0  0  0  0  0  0  0  0  0  0  0  0
   36.8590   31.4130   39.8810 C   0  0  0  0  0  0  0  0  0  0  0  0
   38.3620   31.1010   39.8700 C   0  0  0  0  0  0  0  0  0  0  0  0
   43.3145   27.7645   39.5347 H   0  0  0  0  0  0  0  0  0  0  0  0
   41.6203   28.9826   35.9203 H   0  0  0  0  0  0  0  0  0  0  0  0
   44.2611   30.5881   38.9108 H   0  0  0  0  0  0  0  0  0  0  0  0
   45.1564   30.9225   34.7411 H   0  0  0  0  0  0  0  0  0  0  0  0
   37.7836   29.2182   39.0071 H   0  0  0  0  0  0  0  0  0  0  0  0
   37.4982   28.0717   40.8964 H   0  0  0  0  0  0  0  0  0  0  0  0
   38.9371   28.8736   41.6925 H   0  0  0  0  0  0  0  0  0  0  0  0
   36.4742   29.2724   42.5329 H   0  0  0  0  0  0  0  0  0  0  0  0
   37.7549   30.5798   42.4867 H   0  0  0  0  0  0  0  0  0  0  0  0
   35.3856   30.1624   40.7118 H   0  0  0  0  0  0  0  0  0  0  0  0
   35.9254   31.6104   41.7235 H   0  0  0  0  0  0  0  0  0  0  0  0
   36.3968   31.0179   38.9643 H   0  0  0  0  0  0  0  0  0  0  0  0
   36.7133   32.5023   39.9282 H   0  0  0  0  0  0  0  0  0  0  0  0
   38.8415   31.4725   40.7877 H   0  0  0  0  0  0  0  0  0  0  0  0
   38.8800   31.5843   39.0285 H   0  0  0  0  0  0  0  0  0  0  0  0
  1  5  1  0
  1  2  2  0
  2  3  1  0
  4 12  1  0
  4  3  1  0
  5  4  2  0
  6  7  2  0
  7  8  1  0
  7  1  1  0
  9  8  2  0
 10  9  1  0
 11 10  2  0
 11  6  1  0
 12 17  1  0
 12 13  1  0
 13 14  1  0
 15 14  1  0
 16 15  1  0
 17 16  1  0
  2 18  1  0
  6 19  1  0
  8 20  1  0
 10 21  1  0
 12 22  1  0
 13 23  1  0
 13 24  1  0
 14 25  1  0
 14 26  1  0
 15 27  1  0
 15 28  1  0
 16 29  1  0
 16 30  1  0
 17 31  1  0
 17 32  1  0
M  ISO  8  18  14  19  14  20  14  21  14  22  13  23  13  24  13  25  13
M  ISO  7  26  13  27  13  28  13  29  13  30  13  31  13  32  13
M  END
>  <minimizedAffinity>  (1) 
-3.45699835

>  <minimizedRMSD>  (1) 
7.08689213

$$$$
