
     RDKit          3D

 37 41  0  0  0  0  0  0  0  0999 V2000
   38.6810   30.0670   41.5390 C   0  0  0  0  0  0  0  0  0  0  0  0
   37.5660   29.2150   41.2730 C   0  0  0  0  0  0  0  0  0  0  0  0
   38.0340   27.6170   42.1150 S   0  0  0  0  0  0  0  0  0  0  0  0
   39.6580   28.4050   42.6710 C   0  0  0  0  0  0  0  0  0  0  0  0
   39.5690   29.4350   42.2390 N   0  0  0  0  0  0  0  0  0  0  0  0
   39.8440   32.2010   41.0930 C   0  0  0  0  0  0  0  0  0  0  0  0
   38.6950   31.4370   41.0350 C   0  0  0  0  0  0  0  0  0  0  0  0
   37.5540   32.0190   40.4780 C   0  0  0  0  0  0  0  0  0  0  0  0
   37.6290   33.3010   40.0250 N   0  0  0  0  0  0  0  0  0  0  0  0
   38.7710   34.0060   40.1040 C   0  0  0  0  0  0  0  0  0  0  0  0
   39.8700   33.4510   40.6380 N   0  0  0  0  0  0  0  0  0  0  0  0
   40.6770   27.6960   43.4680 C   0  0  0  0  0  0  0  0  0  0  0  0
   40.5500   26.4250   43.8320 N   0  0  0  0  0  0  0  0  0  0  0  0
   41.5870   26.0590   44.5210 O   0  0  0  0  0  0  0  0  0  0  0  0
   42.3870   27.0940   44.6040 C   0  0  0  0  0  0  0  0  0  0  0  0
   41.8380   28.1260   43.9530 N   0  0  0  0  0  0  0  0  0  0  0  0
   43.6320   26.9340   45.3360 C   0  0  0  0  0  0  0  0  0  0  0  0
   44.7630   26.4850   44.6950 C   0  0  0  0  0  0  0  0  0  0  0  0
   45.9890   26.3090   45.3350 C   0  0  0  0  0  0  0  0  0  0  0  0
   46.1220   26.5860   46.6770 C   0  0  0  0  0  0  0  0  0  0  0  0
   45.0120   27.0390   47.3550 C   0  0  0  0  0  0  0  0  0  0  0  0
   45.1310   27.3200   48.7010 C   0  0  0  0  0  0  0  0  0  0  0  0
   44.0620   27.7750   49.4360 C   0  0  0  0  0  0  0  0  0  0  0  0
   42.8530   27.9390   48.7630 C   0  0  0  0  0  0  0  0  0  0  0  0
   42.7890   27.6440   47.4220 C   0  0  0  0  0  0  0  0  0  0  0  0
   43.8340   27.1900   46.6630 C   0  0  0  0  0  0  0  0  0  0  0  0
   36.6511   29.4455   40.7075 H   0  0  0  0  0  0  0  0  0  0  0  0
   40.7577   31.7666   41.5248 H   0  0  0  0  0  0  0  0  0  0  0  0
   36.6135   31.4530   40.4067 H   0  0  0  0  0  0  0  0  0  0  0  0
   38.8046   35.0400   39.7301 H   0  0  0  0  0  0  0  0  0  0  0  0
   44.6968   26.2527   43.6218 H   0  0  0  0  0  0  0  0  0  0  0  0
   46.8562   25.9463   44.7637 H   0  0  0  0  0  0  0  0  0  0  0  0
   47.0846   26.4498   47.1916 H   0  0  0  0  0  0  0  0  0  0  0  0
   46.1025   27.1768   49.1966 H   0  0  0  0  0  0  0  0  0  0  0  0
   44.1570   27.9998   50.5086 H   0  0  0  0  0  0  0  0  0  0  0  0
   41.9619   28.2997   49.2976 H   0  0  0  0  0  0  0  0  0  0  0  0
   41.8210   27.7839   46.9186 H   0  0  0  0  0  0  0  0  0  0  0  0
  1  5  1  0
  2  1  2  0
  2  3  1  0
  3  4  1  0
  4 12  1  0
  5  4  2  0
  7  6  2  0
  7  1  1  0
  8  7  1  0
  9 10  1  0
  9  8  2  0
 10 11  2  0
 11  6  1  0
 12 13  2  0
 12 16  1  0
 13 14  1  0
 14 15  1  0
 15 17  1  0
 16 15  2  0
 17 26  2  0
 18 19  2  0
 18 17  1  0
 19 20  1  0
 20 21  2  0
 21 22  1  0
 22 23  2  0
 24 23  1  0
 25 24  2  0
 26 21  1  0
 26 25  1  0
  2 27  1  0
  6 28  1  0
  8 29  1  0
 10 30  1  0
 18 31  1  0
 19 32  1  0
 20 33  1  0
 22 34  1  0
 23 35  1  0
 24 36  1  0
 25 37  1  0
M  ISO  8  27  14  28  14  29  14  30  14  31  14  32  14  33  14  34  14
M  ISO  3  35  14  36  14  37  14
M  END
>  <minimizedAffinity>  (1) 
-6.47274685

>  <minimizedRMSD>  (1) 
1.6303066

$$$$
