
     RDKit          3D

 35 39  0  0  0  0  0  0  0  0999 V2000
   40.1540   27.7770   43.3130 C   0  0  0  0  0  0  0  0  0  0  0  0
   39.9530   26.5620   43.8050 N   0  0  0  0  0  0  0  0  0  0  0  0
   41.0460   26.1130   44.3380 O   0  0  0  0  0  0  0  0  0  0  0  0
   41.9750   27.0500   44.1920 C   0  0  0  0  0  0  0  0  0  0  0  0
   41.4270   28.0860   43.5570 N   0  0  0  0  0  0  0  0  0  0  0  0
   43.2990   26.7710   44.7170 C   0  0  0  0  0  0  0  0  0  0  0  0
   44.2680   26.1930   43.9940 N   0  0  0  0  0  0  0  0  0  0  0  0
   45.5040   25.9130   44.4290 C   0  0  0  0  0  0  0  0  0  0  0  0
   45.8730   26.2130   45.6880 N   0  0  0  0  0  0  0  0  0  0  0  0
   44.9720   26.8050   46.5190 C   0  0  0  0  0  0  0  0  0  0  0  0
   45.3350   27.1120   47.7950 C   0  0  0  0  0  0  0  0  0  0  0  0
   44.4580   27.7070   48.6560 C   0  0  0  0  0  0  0  0  0  0  0  0
   43.1750   27.9830   48.1670 C   0  0  0  0  0  0  0  0  0  0  0  0
   42.8640   27.6540   46.8790 C   0  0  0  0  0  0  0  0  0  0  0  0
   43.7260   27.0560   45.9910 C   0  0  0  0  0  0  0  0  0  0  0  0
   38.1400   30.2720   41.5770 C   0  0  0  0  0  0  0  0  0  0  0  0
   36.9150   29.5370   41.5250 C   0  0  0  0  0  0  0  0  0  0  0  0
   37.3180   27.9290   42.3670 S   0  0  0  0  0  0  0  0  0  0  0  0
   39.0990   28.5580   42.6390 C   0  0  0  0  0  0  0  0  0  0  0  0
   39.0820   29.5910   42.1720 N   0  0  0  0  0  0  0  0  0  0  0  0
   39.3370   32.4070   41.2060 C   0  0  0  0  0  0  0  0  0  0  0  0
   38.2150   31.6130   41.0010 C   0  0  0  0  0  0  0  0  0  0  0  0
   37.1600   32.1320   40.2280 C   0  0  0  0  0  0  0  0  0  0  0  0
   37.3040   33.3840   39.7290 N   0  0  0  0  0  0  0  0  0  0  0  0
   38.4150   34.1270   39.9520 C   0  0  0  0  0  0  0  0  0  0  0  0
   39.4190   33.6370   40.6850 N   0  0  0  0  0  0  0  0  0  0  0  0
   46.2244   25.4331   43.7502 H   0  0  0  0  0  0  0  0  0  0  0  0
   46.3531   26.8764   48.1384 H   0  0  0  0  0  0  0  0  0  0  0  0
   44.7463   27.9583   49.6874 H   0  0  0  0  0  0  0  0  0  0  0  0
   42.4249   28.4604   48.8146 H   0  0  0  0  0  0  0  0  0  0  0  0
   41.8481   27.8846   46.5257 H   0  0  0  0  0  0  0  0  0  0  0  0
   35.9555   29.8504   41.0878 H   0  0  0  0  0  0  0  0  0  0  0  0
   40.1721   32.0178   41.8069 H   0  0  0  0  0  0  0  0  0  0  0  0
   36.2512   31.5429   40.0356 H   0  0  0  0  0  0  0  0  0  0  0  0
   38.4908   35.1389   39.5274 H   0  0  0  0  0  0  0  0  0  0  0  0
  1  5  1  0
  1  2  2  0
  2  3  1  0
  4  3  1  0
  4  6  1  0
  5  4  2  0
  6 15  2  0
  7  8  2  0
  7  6  1  0
  8  9  1  0
  9 10  2  0
 10 11  1  0
 11 12  2  0
 13 12  1  0
 14 13  2  0
 15 10  1  0
 15 14  1  0
 16 20  1  0
 17 16  2  0
 17 18  1  0
 18 19  1  0
 19  1  1  0
 20 19  2  0
 22 21  2  0
 22 16  1  0
 23 22  1  0
 24 25  1  0
 24 23  2  0
 25 26  2  0
 26 21  1  0
  8 27  1  0
 11 28  1  0
 12 29  1  0
 13 30  1  0
 14 31  1  0
 17 32  1  0
 21 33  1  0
 23 34  1  0
 25 35  1  0
M  ISO  8  27  14  28  14  29  14  30  14  31  14  32  14  33  14  34  14
M  ISO  1  35  14
M  END
>  <minimizedAffinity>  (1) 
-6.41348314

>  <minimizedRMSD>  (1) 
1.09307492

$$$$
