
     RDKit          3D

 35 39  0  0  0  0  0  0  0  0999 V2000
   37.9890   30.3110   41.5180 C   0  0  0  0  0  0  0  0  0  0  0  0
   36.7320   29.6420   41.4460 C   0  0  0  0  0  0  0  0  0  0  0  0
   37.0460   28.0060   42.2660 S   0  0  0  0  0  0  0  0  0  0  0  0
   38.8390   28.5210   42.5640 C   0  0  0  0  0  0  0  0  0  0  0  0
   38.8510   29.5470   42.1110 N   0  0  0  0  0  0  0  0  0  0  0  0
   39.2950   32.3750   41.2150 C   0  0  0  0  0  0  0  0  0  0  0  0
   38.1330   31.6520   40.9630 C   0  0  0  0  0  0  0  0  0  0  0  0
   37.1380   32.2310   40.1840 C   0  0  0  0  0  0  0  0  0  0  0  0
   37.3520   33.4880   39.7050 N   0  0  0  0  0  0  0  0  0  0  0  0
   38.4960   34.1730   39.9670 C   0  0  0  0  0  0  0  0  0  0  0  0
   39.4570   33.6110   40.7190 N   0  0  0  0  0  0  0  0  0  0  0  0
   39.8450   27.6670   43.2410 C   0  0  0  0  0  0  0  0  0  0  0  0
   39.5520   26.4440   43.6740 N   0  0  0  0  0  0  0  0  0  0  0  0
   40.5970   25.9010   44.2300 O   0  0  0  0  0  0  0  0  0  0  0  0
   41.5660   26.8050   44.1410 C   0  0  0  0  0  0  0  0  0  0  0  0
   41.1450   27.9460   43.5220 N   0  0  0  0  0  0  0  0  0  0  0  0
   42.9290   26.6330   44.6340 C   0  0  0  0  0  0  0  0  0  0  0  0
   44.0110   26.0350   44.0190 C   0  0  0  0  0  0  0  0  0  0  0  0
   45.1020   26.0800   44.8160 N   0  0  0  0  0  0  0  0  0  0  0  0
   44.7470   26.7110   45.9680 C   0  0  0  0  0  0  0  0  0  0  0  0
   45.5500   26.9760   47.0620 C   0  0  0  0  0  0  0  0  0  0  0  0
   44.9580   27.6340   48.1220 C   0  0  0  0  0  0  0  0  0  0  0  0
   43.6230   27.9950   48.0570 C   0  0  0  0  0  0  0  0  0  0  0  0
   42.8420   27.7110   46.9370 C   0  0  0  0  0  0  0  0  0  0  0  0
   43.4150   27.0480   45.8540 C   0  0  0  0  0  0  0  0  0  0  0  0
   35.7932   30.0100   41.0063 H   0  0  0  0  0  0  0  0  0  0  0  0
   40.0907   31.9275   41.8286 H   0  0  0  0  0  0  0  0  0  0  0  0
   36.2062   31.6906   39.9612 H   0  0  0  0  0  0  0  0  0  0  0  0
   38.6351   35.1869   39.5637 H   0  0  0  0  0  0  0  0  0  0  0  0
   43.9883   25.5832   43.0163 H   0  0  0  0  0  0  0  0  0  0  0  0
   46.0344   25.7042   44.5915 H   0  0  0  0  0  0  0  0  0  0  0  0
   46.6084   26.6774   47.0868 H   0  0  0  0  0  0  0  0  0  0  0  0
   45.5481   27.8717   49.0194 H   0  0  0  0  0  0  0  0  0  0  0  0
   43.1670   28.5189   48.9100 H   0  0  0  0  0  0  0  0  0  0  0  0
   41.7832   28.0078   46.9090 H   0  0  0  0  0  0  0  0  0  0  0  0
  1  5  1  0
  2  1  2  0
  2  3  1  0
  3  4  1  0
  4 12  1  0
  5  4  2  0
  7  6  2  0
  7  1  1  0
  8  7  1  0
  9 10  1  0
  9  8  2  0
 10 11  2  0
 11  6  1  0
 12 16  1  0
 12 13  2  0
 13 14  1  0
 15 14  1  0
 15 17  1  0
 16 15  2  0
 17 25  1  0
 18 17  2  0
 18 19  1  0
 19 20  1  0
 20 21  2  0
 21 22  1  0
 23 22  2  0
 24 23  1  0
 25 20  1  0
 25 24  2  0
  2 26  1  0
  6 27  1  0
  8 28  1  0
 10 29  1  0
 18 30  1  0
 19 31  1  0
 21 32  1  0
 22 33  1  0
 23 34  1  0
 24 35  1  0
M  ISO  8  26  14  27  14  28  14  29  14  30  14  31   9  32  14  33  14
M  ISO  2  34  14  35  14
M  END
>  <minimizedAffinity>  (1) 
-6.34085369

>  <minimizedRMSD>  (1) 
0.890690923

$$$$
