
     RDKit          3D

 34 37  0  0  0  0  0  0  0  0999 V2000
   38.5930   33.4550   40.2790 C   0  0  0  0  0  0  0  0  0  0  0  0
   37.4340   33.4160   39.4510 C   0  0  0  0  0  0  0  0  0  0  0  0
   36.7830   31.6910   39.6870 S   0  0  0  0  0  0  0  0  0  0  0  0
   38.2190   31.3290   40.8780 C   0  0  0  0  0  0  0  0  0  0  0  0
   38.7850   32.3170   40.8840 N   0  0  0  0  0  0  0  0  0  0  0  0
   38.4390   30.0410   41.5670 C   0  0  0  0  0  0  0  0  0  0  0  0
   38.9270   29.9890   42.8130 N   0  0  0  0  0  0  0  0  0  0  0  0
   39.0320   28.7580   43.2040 O   0  0  0  0  0  0  0  0  0  0  0  0
   38.6060   28.0080   42.2000 C   0  0  0  0  0  0  0  0  0  0  0  0
   38.2240   28.7890   41.1480 N   0  0  0  0  0  0  0  0  0  0  0  0
   38.5410   26.5690   42.1780 N   0  0  0  0  0  0  0  0  0  0  0  0
   39.4910   25.7600   42.9530 C   0  0  0  0  0  0  0  0  0  0  0  0
   39.3070   24.3200   42.4990 C   0  0  0  0  0  0  0  0  0  0  0  0
   37.9900   23.9300   42.6670 O   0  0  0  0  0  0  0  0  0  0  0  0
   37.0850   24.5940   41.8750 C   0  0  0  0  0  0  0  0  0  0  0  0
   37.5200   25.9330   41.3800 C   0  0  0  0  0  0  0  0  0  0  0  0
   40.7210   34.6150   40.7690 C   0  0  0  0  0  0  0  0  0  0  0  0
   39.3960   34.6700   40.3630 C   0  0  0  0  0  0  0  0  0  0  0  0
   38.8590   35.9270   40.0380 C   0  0  0  0  0  0  0  0  0  0  0  0
   39.6680   37.0180   40.1410 N   0  0  0  0  0  0  0  0  0  0  0  0
   40.9500   36.9160   40.5410 C   0  0  0  0  0  0  0  0  0  0  0  0
   41.4680   35.7260   40.8500 N   0  0  0  0  0  0  0  0  0  0  0  0
   37.0217   34.2177   38.8207 H   0  0  0  0  0  0  0  0  0  0  0  0
   40.5211   26.0915   42.7557 H   0  0  0  0  0  0  0  0  0  0  0  0
   39.3097   25.8616   44.0332 H   0  0  0  0  0  0  0  0  0  0  0  0
   39.9588   23.6649   43.0957 H   0  0  0  0  0  0  0  0  0  0  0  0
   39.5707   24.2433   41.4338 H   0  0  0  0  0  0  0  0  0  0  0  0
   36.8740   23.9621   40.9997 H   0  0  0  0  0  0  0  0  0  0  0  0
   36.2078   24.7798   42.5122 H   0  0  0  0  0  0  0  0  0  0  0  0
   37.9101   25.8106   40.3588 H   0  0  0  0  0  0  0  0  0  0  0  0
   36.6355   26.5850   41.4303 H   0  0  0  0  0  0  0  0  0  0  0  0
   41.1669   33.6436   41.0290 H   0  0  0  0  0  0  0  0  0  0  0  0
   37.8140   36.0273   39.7094 H   0  0  0  0  0  0  0  0  0  0  0  0
   41.5737   37.8192   40.6134 H   0  0  0  0  0  0  0  0  0  0  0  0
  1 18  1  0
  1  5  1  0
  2  3  1  0
  2  1  2  0
  3  4  1  0
  4  5  2  0
  4  6  1  0
  6  7  2  0
  7  8  1  0
  9  8  1  0
 10  6  1  0
 10  9  2  0
 11  9  1  0
 11 12  1  0
 13 14  1  0
 13 12  1  0
 15 14  1  0
 16 15  1  0
 16 11  1  0
 17 22  2  0
 18 17  1  0
 19 20  1  0
 19 18  2  0
 20 21  2  0
 21 22  1  0
  2 23  1  0
 12 24  1  0
 12 25  1  0
 13 26  1  0
 13 27  1  0
 15 28  1  0
 15 29  1  0
 16 30  1  0
 16 31  1  0
 17 32  1  0
 19 33  1  0
 21 34  1  0
M  ISO  8  23  14  24  13  25  13  26  13  27  13  28  13  29  13  30  13
M  ISO  4  31  13  32  14  33  14  34  14
M  END
>  <minimizedAffinity>  (1) 
-5.92424345

>  <minimizedRMSD>  (1) 
4.42104673

$$$$
