
     RDKit          3D

 28 31  0  0  0  0  0  0  0  0999 V2000
   37.7240   30.4200   41.3250 C   0  0  0  0  0  0  0  0  0  0  0  0
   36.4530   29.8030   41.1390 C   0  0  0  0  0  0  0  0  0  0  0  0
   36.6690   28.1310   41.9210 S   0  0  0  0  0  0  0  0  0  0  0  0
   38.4550   28.5800   42.3600 C   0  0  0  0  0  0  0  0  0  0  0  0
   38.5430   29.6250   41.9490 N   0  0  0  0  0  0  0  0  0  0  0  0
   39.3840   27.6800   43.0660 C   0  0  0  0  0  0  0  0  0  0  0  0
   39.0600   26.4380   43.4160 N   0  0  0  0  0  0  0  0  0  0  0  0
   40.0590   25.8710   44.0220 O   0  0  0  0  0  0  0  0  0  0  0  0
   41.0360   26.7460   44.0680 C   0  0  0  0  0  0  0  0  0  0  0  0
   40.6570   27.9020   43.4770 N   0  0  0  0  0  0  0  0  0  0  0  0
   42.3790   26.7260   44.5980 N   0  0  0  0  0  0  0  0  0  0  0  0
   42.8620   27.2680   45.7300 C   0  0  0  0  0  0  0  0  0  0  0  0
   44.2140   26.9910   45.8250 C   0  0  0  0  0  0  0  0  0  0  0  0
   44.5350   26.2690   44.7200 N   0  0  0  0  0  0  0  0  0  0  0  0
   43.4150   26.1040   43.9650 C   0  0  0  0  0  0  0  0  0  0  0  0
   39.1060   32.4650   41.1780 C   0  0  0  0  0  0  0  0  0  0  0  0
   37.9590   31.7780   40.8350 C   0  0  0  0  0  0  0  0  0  0  0  0
   37.0400   32.4270   40.0080 C   0  0  0  0  0  0  0  0  0  0  0  0
   37.3150   33.6880   39.5840 N   0  0  0  0  0  0  0  0  0  0  0  0
   38.4550   34.3210   39.9480 C   0  0  0  0  0  0  0  0  0  0  0  0
   39.3340   33.7090   40.7340 N   0  0  0  0  0  0  0  0  0  0  0  0
   35.5588   30.2170   40.6500 H   0  0  0  0  0  0  0  0  0  0  0  0
   42.2754   27.8405   46.4636 H   0  0  0  0  0  0  0  0  0  0  0  0
   44.8940   27.2950   46.6344 H   0  0  0  0  0  0  0  0  0  0  0  0
   43.3553   25.5626   43.0093 H   0  0  0  0  0  0  0  0  0  0  0  0
   39.8487   31.9814   41.8295 H   0  0  0  0  0  0  0  0  0  0  0  0
   36.1090   31.9256   39.7049 H   0  0  0  0  0  0  0  0  0  0  0  0
   38.6536   35.3429   39.5927 H   0  0  0  0  0  0  0  0  0  0  0  0
  1  5  1  0
  2  1  2  0
  2  3  1  0
  3  4  1  0
  4  6  1  0
  5  4  2  0
  6  7  2  0
  6 10  1  0
  7  8  1  0
  8  9  1  0
  9 11  1  0
 10  9  2  0
 11 12  1  0
 12 13  2  0
 14 13  1  0
 15 11  1  0
 15 14  2  0
 17 16  2  0
 17  1  1  0
 18 17  1  0
 19 20  1  0
 19 18  2  0
 20 21  2  0
 21 16  1  0
  2 22  1  0
 12 23  1  0
 13 24  1  0
 15 25  1  0
 16 26  1  0
 18 27  1  0
 20 28  1  0
M  ISO  7  22  14  23  14  24  14  25  14  26  14  27  14  28  14
M  END
>  <minimizedAffinity>  (1) 
-5.49046755

>  <minimizedRMSD>  (1) 
0.159605771

$$$$
