
     RDKit          3D

 31 34  0  0  0  0  0  0  0  0999 V2000
   37.8110   30.3020   41.3520 C   0  0  0  0  0  0  0  0  0  0  0  0
   36.5870   29.5860   41.1840 C   0  0  0  0  0  0  0  0  0  0  0  0
   36.9230   27.9530   42.0010 S   0  0  0  0  0  0  0  0  0  0  0  0
   38.6850   28.5470   42.4250 C   0  0  0  0  0  0  0  0  0  0  0  0
   38.6860   29.5840   41.9890 N   0  0  0  0  0  0  0  0  0  0  0  0
   38.9650   32.4800   41.2370 C   0  0  0  0  0  0  0  0  0  0  0  0
   37.9260   31.6640   40.8230 C   0  0  0  0  0  0  0  0  0  0  0  0
   37.0090   32.1720   39.9010 C   0  0  0  0  0  0  0  0  0  0  0  0
   37.1950   33.4500   39.4630 N   0  0  0  0  0  0  0  0  0  0  0  0
   38.2190   34.2150   39.8900 C   0  0  0  0  0  0  0  0  0  0  0  0
   39.0980   33.7300   40.7720 N   0  0  0  0  0  0  0  0  0  0  0  0
   39.6830   27.7340   43.1510 C   0  0  0  0  0  0  0  0  0  0  0  0
   39.4200   26.4980   43.5740 N   0  0  0  0  0  0  0  0  0  0  0  0
   40.4780   26.0160   44.1800 O   0  0  0  0  0  0  0  0  0  0  0  0
   41.4050   26.9410   44.1420 C   0  0  0  0  0  0  0  0  0  0  0  0
   40.9400   28.0380   43.5000 N   0  0  0  0  0  0  0  0  0  0  0  0
   42.7350   26.8150   44.7010 C   0  0  0  0  0  0  0  0  0  0  0  0
   42.9590   27.2600   45.9810 C   0  0  0  0  0  0  0  0  0  0  0  0
   44.2280   27.1450   46.5290 C   0  0  0  0  0  0  0  0  0  0  0  0
   45.2260   26.5790   45.7490 C   0  0  0  0  0  0  0  0  0  0  0  0
   45.0350   26.1240   44.4630 C   0  0  0  0  0  0  0  0  0  0  0  0
   43.7720   26.2620   43.9780 C   0  0  0  0  0  0  0  0  0  0  0  0
   35.6643   29.9221   40.6883 H   0  0  0  0  0  0  0  0  0  0  0  0
   39.6964   32.0945   41.9625 H   0  0  0  0  0  0  0  0  0  0  0  0
   36.1666   31.5632   39.5407 H   0  0  0  0  0  0  0  0  0  0  0  0
   38.3316   35.2416   39.5114 H   0  0  0  0  0  0  0  0  0  0  0  0
   42.1397   27.7034   46.5660 H   0  0  0  0  0  0  0  0  0  0  0  0
   44.4369   27.4922   47.5516 H   0  0  0  0  0  0  0  0  0  0  0  0
   46.2320   26.4880   46.1845 H   0  0  0  0  0  0  0  0  0  0  0  0
   45.8477   25.6798   43.8695 H   0  0  0  0  0  0  0  0  0  0  0  0
   43.5662   25.9143   42.9549 H   0  0  0  0  0  0  0  0  0  0  0  0
  1  5  1  0
  2  1  2  0
  2  3  1  0
  3  4  1  0
  4 12  1  0
  5  4  2  0
  7  6  2  0
  7  1  1  0
  8  7  1  0
  9 10  1  0
  9  8  2  0
 10 11  2  0
 11  6  1  0
 12 16  1  0
 12 13  2  0
 13 14  1  0
 15 14  1  0
 15 17  1  0
 16 15  2  0
 17 18  2  0
 18 19  1  0
 20 19  2  0
 21 20  1  0
 22 21  2  0
 22 17  1  0
  2 23  1  0
  6 24  1  0
  8 25  1  0
 10 26  1  0
 18 27  1  0
 19 28  1  0
 20 29  1  0
 21 30  1  0
 22 31  1  0
M  ISO  8  23  14  24  14  25  14  26  14  27  14  28  14  29  14  30  14
M  ISO  1  31  14
M  END
>  <minimizedAffinity>  (1) 
-5.44129705

>  <minimizedRMSD>  (1) 
0.568280995

$$$$
