
     RDKit          3D

 27 29  0  0  0  0  0  0  0  0999 V2000
   38.3450   32.3340   40.6780 C   0  0  0  0  0  0  0  0  0  0  0  0
   37.0320   32.2650   40.1300 C   0  0  0  0  0  0  0  0  0  0  0  0
   36.3630   30.6590   40.7720 S   0  0  0  0  0  0  0  0  0  0  0  0
   37.9980   30.3640   41.6800 C   0  0  0  0  0  0  0  0  0  0  0  0
   38.5800   31.2840   41.4010 N   0  0  0  0  0  0  0  0  0  0  0  0
   40.5780   33.2980   40.2350 C   0  0  0  0  0  0  0  0  0  0  0  0
   39.2140   33.4750   40.3980 C   0  0  0  0  0  0  0  0  0  0  0  0
   38.6770   34.7720   40.2880 C   0  0  0  0  0  0  0  0  0  0  0  0
   39.5450   35.7900   40.0250 N   0  0  0  0  0  0  0  0  0  0  0  0
   40.8660   35.5810   39.8720 C   0  0  0  0  0  0  0  0  0  0  0  0
   41.3770   34.3410   39.9770 N   0  0  0  0  0  0  0  0  0  0  0  0
   38.2960   29.1730   42.5120 C   0  0  0  0  0  0  0  0  0  0  0  0
   37.3930   28.6990   43.3920 N   0  0  0  0  0  0  0  0  0  0  0  0
   37.8920   27.6550   43.9930 O   0  0  0  0  0  0  0  0  0  0  0  0
   39.1040   27.4670   43.5000 C   0  0  0  0  0  0  0  0  0  0  0  0
   39.4010   28.4050   42.5580 N   0  0  0  0  0  0  0  0  0  0  0  0
   39.9800   26.3590   43.9510 C   0  0  0  0  0  0  0  0  0  0  0  0
   41.3440   26.9530   44.2100 C   0  0  0  0  0  0  0  0  0  0  0  0
   36.5310   32.9951   39.4773 H   0  0  0  0  0  0  0  0  0  0  0  0
   41.0095   32.2896   40.3184 H   0  0  0  0  0  0  0  0  0  0  0  0
   37.5994   34.9567   40.4095 H   0  0  0  0  0  0  0  0  0  0  0  0
   41.5323   36.4301   39.6596 H   0  0  0  0  0  0  0  0  0  0  0  0
   39.5806   25.9131   44.8738 H   0  0  0  0  0  0  0  0  0  0  0  0
   40.0346   25.5667   43.1899 H   0  0  0  0  0  0  0  0  0  0  0  0
   41.5121   27.0262   45.2946 H   0  0  0  0  0  0  0  0  0  0  0  0
   42.1153   26.3093   43.7620 H   0  0  0  0  0  0  0  0  0  0  0  0
   41.3981   27.9562   43.7620 H   0  0  0  0  0  0  0  0  0  0  0  0
  1  5  1  0
  2  1  2  0
  2  3  1  0
  3  4  1  0
  4 12  1  0
  5  4  2  0
  6  7  2  0
  7  1  1  0
  8  7  1  0
  9  8  2  0
 10 11  2  0
 10  9  1  0
 11  6  1  0
 12 16  1  0
 12 13  2  0
 13 14  1  0
 15 17  1  0
 15 14  1  0
 16 15  2  0
 17 18  1  0
  2 19  1  0
  6 20  1  0
  8 21  1  0
 10 22  1  0
 17 23  1  0
 17 24  1  0
 18 25  1  0
 18 26  1  0
 18 27  1  0
M  ISO  8  19  14  20  14  21  14  22  14  23   8  24   8  25   8  26   8
M  ISO  1  27   8
M  END
>  <minimizedAffinity>  (1) 
-5.36158991

>  <minimizedRMSD>  (1) 
2.39002848

$$$$
