
     RDKit          3D

 27 30  0  0  0  0  0  0  0  0999 V2000
   38.6340   33.1320   40.3430 C   0  0  0  0  0  0  0  0  0  0  0  0
   37.2980   32.9670   39.8670 C   0  0  0  0  0  0  0  0  0  0  0  0
   36.8370   31.2650   40.4730 S   0  0  0  0  0  0  0  0  0  0  0  0
   38.5470   31.0960   41.2620 C   0  0  0  0  0  0  0  0  0  0  0  0
   39.0190   32.0790   40.9960 N   0  0  0  0  0  0  0  0  0  0  0  0
   40.6780   34.3270   39.6280 C   0  0  0  0  0  0  0  0  0  0  0  0
   39.3630   34.3720   40.0640 C   0  0  0  0  0  0  0  0  0  0  0  0
   38.7460   35.6270   40.2310 C   0  0  0  0  0  0  0  0  0  0  0  0
   39.4850   36.7400   39.9510 N   0  0  0  0  0  0  0  0  0  0  0  0
   40.7760   36.6440   39.5250 C   0  0  0  0  0  0  0  0  0  0  0  0
   41.3560   35.4510   39.3690 N   0  0  0  0  0  0  0  0  0  0  0  0
   38.9970   29.9010   42.0080 C   0  0  0  0  0  0  0  0  0  0  0  0
   38.1810   29.2110   42.7990 N   0  0  0  0  0  0  0  0  0  0  0  0
   38.8190   28.2140   43.3340 O   0  0  0  0  0  0  0  0  0  0  0  0
   40.0710   28.2620   42.8810 C   0  0  0  0  0  0  0  0  0  0  0  0
   40.2010   29.3210   42.0410 N   0  0  0  0  0  0  0  0  0  0  0  0
   41.1210   27.2850   43.2630 C   0  0  0  0  0  0  0  0  0  0  0  0
   41.4960   26.2890   42.3610 C   0  0  0  0  0  0  0  0  0  0  0  0
   42.8150   25.3940   43.3710 S   0  0  0  0  0  0  0  0  0  0  0  0
   42.5760   26.5750   44.8220 C   0  0  0  0  0  0  0  0  0  0  0  0
   41.7290   27.3070   44.4230 N   0  0  0  0  0  0  0  0  0  0  0  0
   36.6884   33.6730   39.2840 H   0  0  0  0  0  0  0  0  0  0  0  0
   41.1713   33.3531   39.4930 H   0  0  0  0  0  0  0  0  0  0  0  0
   37.7044   35.7075   40.5752 H   0  0  0  0  0  0  0  0  0  0  0  0
   41.3465   37.5589   39.3073 H   0  0  0  0  0  0  0  0  0  0  0  0
   41.1264   26.0831   41.3456 H   0  0  0  0  0  0  0  0  0  0  0  0
   43.0913   26.5840   45.7938 H   0  0  0  0  0  0  0  0  0  0  0  0
  1  5  1  0
  2  1  2  0
  2  3  1  0
  3  4  1  0
  4 12  1  0
  5  4  2  0
  6  7  2  0
  7  8  1  0
  7  1  1  0
  9  8  2  0
 10  9  1  0
 11 10  2  0
 11  6  1  0
 12 16  1  0
 12 13  2  0
 13 14  1  0
 15 17  1  0
 15 14  1  0
 16 15  2  0
 17 21  1  0
 18 17  2  0
 18 19  1  0
 19 20  1  0
 21 20  2  0
  2 22  1  0
  6 23  1  0
  8 24  1  0
 10 25  1  0
 18 26  1  0
 20 27  1  0
M  ISO  6  22  14  23  14  24  14  25  14  26  14  27  14
M  END
>  <minimizedAffinity>  (1) 
-5.31529856

>  <minimizedRMSD>  (1) 
2.88194656

$$$$
