
     RDKit          3D

 24 26  0  0  0  0  0  0  0  0999 V2000
   37.7000   30.6520   41.2330 C   0  0  0  0  0  0  0  0  0  0  0  0
   36.4490   30.0030   41.0200 C   0  0  0  0  0  0  0  0  0  0  0  0
   36.6640   28.3300   41.7920 S   0  0  0  0  0  0  0  0  0  0  0  0
   38.4380   28.8130   42.2750 C   0  0  0  0  0  0  0  0  0  0  0  0
   38.5150   29.8660   41.8710 N   0  0  0  0  0  0  0  0  0  0  0  0
   39.0480   32.7220   41.1520 C   0  0  0  0  0  0  0  0  0  0  0  0
   37.9130   32.0130   40.7540 C   0  0  0  0  0  0  0  0  0  0  0  0
   37.0120   32.6380   39.9020 C   0  0  0  0  0  0  0  0  0  0  0  0
   37.2720   33.9080   39.4930 N   0  0  0  0  0  0  0  0  0  0  0  0
   38.3800   34.5670   39.8970 C   0  0  0  0  0  0  0  0  0  0  0  0
   39.2490   33.9720   40.7160 N   0  0  0  0  0  0  0  0  0  0  0  0
   39.3800   27.9330   43.0000 C   0  0  0  0  0  0  0  0  0  0  0  0
   38.9590   26.8360   43.6280 N   0  0  0  0  0  0  0  0  0  0  0  0
   39.9660   26.2300   44.1900 O   0  0  0  0  0  0  0  0  0  0  0  0
   41.0310   26.9520   43.9120 C   0  0  0  0  0  0  0  0  0  0  0  0
   40.7190   28.0370   43.1650 N   0  0  0  0  0  0  0  0  0  0  0  0
   42.4190   26.6360   44.3530 C   0  0  0  0  0  0  0  0  0  0  0  0
   42.4850   26.7820   45.7260 F   0  0  0  0  0  0  0  0  0  0  0  0
   42.7390   25.3410   43.9440 F   0  0  0  0  0  0  0  0  0  0  0  0
   43.3130   27.5450   43.7920 F   0  0  0  0  0  0  0  0  0  0  0  0
   35.5585   30.4032   40.5131 H   0  0  0  0  0  0  0  0  0  0  0  0
   39.7795   32.2522   41.8259 H   0  0  0  0  0  0  0  0  0  0  0  0
   36.1050   32.1152   39.5644 H   0  0  0  0  0  0  0  0  0  0  0  0
   38.5657   35.5944   39.5506 H   0  0  0  0  0  0  0  0  0  0  0  0
  1  5  1  0
  2  1  2  0
  2  3  1  0
  3  4  1  0
  4 12  1  0
  5  4  2  0
  7  6  2  0
  7  1  1  0
  8  7  1  0
  9 10  1  0
  9  8  2  0
 10 11  2  0
 11  6  1  0
 12 16  1  0
 12 13  2  0
 13 14  1  0
 15 14  1  0
 15 17  1  0
 16 15  2  0
 17 18  1  0
 19 17  1  0
 20 17  1  0
  2 21  1  0
  6 22  1  0
  8 23  1  0
 10 24  1  0
M  ISO  4  21  14  22  14  23  14  24  14
M  END
>  <minimizedAffinity>  (1) 
-5.05705023

>  <minimizedRMSD>  (1) 
0.636006057

$$$$
