
     RDKit          3D

 24 26  0  0  0  0  0  0  0  0999 V2000
   37.6600   30.6070   41.2020 C   0  0  0  0  0  0  0  0  0  0  0  0
   36.4030   29.9960   40.9260 C   0  0  0  0  0  0  0  0  0  0  0  0
   36.5790   28.3100   41.6800 S   0  0  0  0  0  0  0  0  0  0  0  0
   38.3440   28.7470   42.2370 C   0  0  0  0  0  0  0  0  0  0  0  0
   38.4440   29.7980   41.8530 N   0  0  0  0  0  0  0  0  0  0  0  0
   39.0760   32.6450   41.1590 C   0  0  0  0  0  0  0  0  0  0  0  0
   37.9180   31.9770   40.7550 C   0  0  0  0  0  0  0  0  0  0  0  0
   37.0300   32.6540   39.9230 C   0  0  0  0  0  0  0  0  0  0  0  0
   37.3270   33.9220   39.5450 N   0  0  0  0  0  0  0  0  0  0  0  0
   38.4610   34.5380   39.9580 C   0  0  0  0  0  0  0  0  0  0  0  0
   39.3160   33.8940   40.7560 N   0  0  0  0  0  0  0  0  0  0  0  0
   39.2320   27.8260   42.9780 C   0  0  0  0  0  0  0  0  0  0  0  0
   38.8040   26.6390   43.4420 N   0  0  0  0  0  0  0  0  0  0  0  0
   39.7990   26.0440   44.0520 O   0  0  0  0  0  0  0  0  0  0  0  0
   40.8390   26.8380   43.9760 C   0  0  0  0  0  0  0  0  0  0  0  0
   40.5270   27.9730   43.3070 N   0  0  0  0  0  0  0  0  0  0  0  0
   42.2050   26.6110   44.5150 C   0  0  0  0  0  0  0  0  0  0  0  0
   35.5383   30.4206   40.3950 H   0  0  0  0  0  0  0  0  0  0  0  0
   39.7971   32.1365   41.8158 H   0  0  0  0  0  0  0  0  0  0  0  0
   36.1046   32.1691   39.5787 H   0  0  0  0  0  0  0  0  0  0  0  0
   38.6769   35.5675   39.6362 H   0  0  0  0  0  0  0  0  0  0  0  0
   42.1710   26.6167   45.6145 H   0  0  0  0  0  0  0  0  0  0  0  0
   42.5804   25.6382   44.1648 H   0  0  0  0  0  0  0  0  0  0  0  0
   42.8749   27.4101   44.1648 H   0  0  0  0  0  0  0  0  0  0  0  0
  1  5  1  0
  2  1  2  0
  2  3  1  0
  3  4  1  0
  4 12  1  0
  5  4  2  0
  7  6  2  0
  7  1  1  0
  8  7  1  0
  9  8  2  0
  9 10  1  0
 10 11  2  0
 11  6  1  0
 12 16  1  0
 12 13  2  0
 13 14  1  0
 15 14  1  0
 15 17  1  0
 16 15  2  0
  2 18  1  0
  6 19  1  0
  8 20  1  0
 10 21  1  0
 17 22  1  0
 17 23  1  0
 17 24  1  0
M  ISO  7  18  14  19  14  20  14  21  14  22   8  23   8  24   8
M  END
>  <minimizedAffinity>  (1) 
-4.7231698

>  <minimizedRMSD>  (1) 
0.286355585

$$$$
