
     RDKit          3D

 23 25  0  0  0  0  0  0  0  0999 V2000
   37.7450   30.4410   41.3210 C   0  0  0  0  0  0  0  0  0  0  0  0
   36.4740   29.8240   41.1470 C   0  0  0  0  0  0  0  0  0  0  0  0
   36.6710   28.1520   41.9200 S   0  0  0  0  0  0  0  0  0  0  0  0
   38.4610   28.5800   42.3500 C   0  0  0  0  0  0  0  0  0  0  0  0
   38.5350   29.6190   41.9370 N   0  0  0  0  0  0  0  0  0  0  0  0
   39.1480   32.4610   41.1840 C   0  0  0  0  0  0  0  0  0  0  0  0
   37.9780   31.7910   40.8310 C   0  0  0  0  0  0  0  0  0  0  0  0
   37.0560   32.4400   40.0100 C   0  0  0  0  0  0  0  0  0  0  0  0
   37.3390   33.7010   39.5910 N   0  0  0  0  0  0  0  0  0  0  0  0
   38.4830   34.3230   39.9520 C   0  0  0  0  0  0  0  0  0  0  0  0
   39.3780   33.7040   40.7430 N   0  0  0  0  0  0  0  0  0  0  0  0
   39.3940   27.6700   43.0520 C   0  0  0  0  0  0  0  0  0  0  0  0
   39.0170   26.4550   43.4590 N   0  0  0  0  0  0  0  0  0  0  0  0
   40.0120   25.8550   44.0460 O   0  0  0  0  0  0  0  0  0  0  0  0
   41.0240   26.6910   44.0120 C   0  0  0  0  0  0  0  0  0  0  0  0
   40.6840   27.8540   43.3940 N   0  0  0  0  0  0  0  0  0  0  0  0
   42.3180   26.4250   44.5510 N   0  0  0  0  0  0  0  0  0  0  0  0
   35.5794   30.2440   40.6640 H   0  0  0  0  0  0  0  0  0  0  0  0
   39.8878   31.9650   41.8296 H   0  0  0  0  0  0  0  0  0  0  0  0
   36.1221   31.9428   39.7090 H   0  0  0  0  0  0  0  0  0  0  0  0
   38.6842   35.3442   39.5961 H   0  0  0  0  0  0  0  0  0  0  0  0
   43.0602   27.1360   44.4834 H   0  0  0  0  0  0  0  0  0  0  0  0
   42.5100   25.5220   45.0077 H   0  0  0  0  0  0  0  0  0  0  0  0
  1  5  1  0
  2  1  2  0
  2  3  1  0
  3  4  1  0
  4 12  1  0
  5  4  2  0
  7  6  2  0
  7  1  1  0
  8  7  1  0
  9 10  1  0
  9  8  2  0
 10 11  2  0
 11  6  1  0
 12 16  1  0
 12 13  2  0
 13 14  1  0
 15 14  1  0
 15 17  1  0
 16 15  2  0
  2 18  1  0
  6 19  1  0
  8 20  1  0
 10 21  1  0
 17 22  1  0
 17 23  1  0
M  ISO  4  18  14  19  14  20  14  21  14
M  END
>  <minimizedAffinity>  (1) 
-4.64534378

>  <minimizedRMSD>  (1) 
0.102926373

$$$$
