
     RDKit          3D

 22 24  0  0  0  0  0  0  0  0999 V2000
   37.7420   30.3780   41.3250 C   0  0  0  0  0  0  0  0  0  0  0  0
   36.4530   29.7930   41.1450 C   0  0  0  0  0  0  0  0  0  0  0  0
   36.6180   28.1090   41.9040 S   0  0  0  0  0  0  0  0  0  0  0  0
   38.4180   28.4990   42.3350 C   0  0  0  0  0  0  0  0  0  0  0  0
   38.5230   29.5420   41.9340 N   0  0  0  0  0  0  0  0  0  0  0  0
   39.1960   32.3680   41.1930 C   0  0  0  0  0  0  0  0  0  0  0  0
   38.0060   31.7280   40.8480 C   0  0  0  0  0  0  0  0  0  0  0  0
   37.0770   32.4090   40.0380 C   0  0  0  0  0  0  0  0  0  0  0  0
   37.3960   33.6640   39.6330 N   0  0  0  0  0  0  0  0  0  0  0  0
   38.5720   34.2530   39.9940 C   0  0  0  0  0  0  0  0  0  0  0  0
   39.4560   33.6090   40.7640 N   0  0  0  0  0  0  0  0  0  0  0  0
   39.3330   27.5600   43.0310 C   0  0  0  0  0  0  0  0  0  0  0  0
   38.9510   26.3090   43.3310 N   0  0  0  0  0  0  0  0  0  0  0  0
   39.9180   25.6920   43.9310 O   0  0  0  0  0  0  0  0  0  0  0  0
   40.9260   26.5540   44.0150 C   0  0  0  0  0  0  0  0  0  0  0  0
   40.6010   27.7560   43.4560 N   0  0  0  0  0  0  0  0  0  0  0  0
   42.2110   26.4030   44.5710 O   0  0  0  0  0  0  0  0  0  0  0  0
   35.5675   30.2375   40.6672 H   0  0  0  0  0  0  0  0  0  0  0  0
   39.9298   31.8467   41.8253 H   0  0  0  0  0  0  0  0  0  0  0  0
   36.1264   31.9401   39.7440 H   0  0  0  0  0  0  0  0  0  0  0  0
   38.7967   35.2723   39.6469 H   0  0  0  0  0  0  0  0  0  0  0  0
   42.8513   27.1578   44.5499 H   0  0  0  0  0  0  0  0  0  0  0  0
  1  5  1  0
  2  1  2  0
  2  3  1  0
  3  4  1  0
  4 12  1  0
  5  4  2  0
  7  6  2  0
  7  1  1  0
  8  7  1  0
  9 10  1  0
  9  8  2  0
 10 11  2  0
 11  6  1  0
 12 13  2  0
 12 16  1  0
 13 14  1  0
 14 15  1  0
 15 17  1  0
 16 15  2  0
  2 18  1  0
  6 19  1  0
  8 20  1  0
 10 21  1  0
 17 22  1  0
M  ISO  5  18  14  19  14  20  14  21  14  22   3
M  END
>  <minimizedAffinity>  (1) 
-4.64180326

>  <minimizedRMSD>  (1) 
0.0543318614

$$$$
