
     RDKit          3D

 29 32  0  0  0  0  0  0  0  0999 V2000
   37.9490   30.3140   41.4860 C   0  0  0  0  0  0  0  0  0  0  0  0
   36.7120   29.6330   41.3910 C   0  0  0  0  0  0  0  0  0  0  0  0
   37.0440   28.0160   42.2130 S   0  0  0  0  0  0  0  0  0  0  0  0
   38.8240   28.5390   42.5510 C   0  0  0  0  0  0  0  0  0  0  0  0
   38.8010   29.5540   42.0950 N   0  0  0  0  0  0  0  0  0  0  0  0
   39.2490   32.4000   41.2080 C   0  0  0  0  0  0  0  0  0  0  0  0
   38.1000   31.6590   40.9410 C   0  0  0  0  0  0  0  0  0  0  0  0
   37.1000   32.2250   40.1440 C   0  0  0  0  0  0  0  0  0  0  0  0
   37.3180   33.4830   39.6750 N   0  0  0  0  0  0  0  0  0  0  0  0
   38.4680   34.1760   39.9640 C   0  0  0  0  0  0  0  0  0  0  0  0
   39.4070   33.6270   40.7200 N   0  0  0  0  0  0  0  0  0  0  0  0
   39.8190   27.6990   43.2420 C   0  0  0  0  0  0  0  0  0  0  0  0
   39.5370   26.4420   43.6190 N   0  0  0  0  0  0  0  0  0  0  0  0
   40.5930   25.9310   44.2060 O   0  0  0  0  0  0  0  0  0  0  0  0
   41.5350   26.8770   44.1910 C   0  0  0  0  0  0  0  0  0  0  0  0
   41.0910   28.0100   43.5930 N   0  0  0  0  0  0  0  0  0  0  0  0
   43.2220   26.8230   44.8360 S   0  0  0  0  0  0  0  0  0  0  0  0
   43.8020   29.6160   47.5670 N   0  0  0  0  0  0  0  0  0  0  0  0
   43.9100   29.1500   46.3130 N   0  0  0  0  0  0  0  0  0  0  0  0
   43.3650   27.9200   46.2380 C   0  0  0  0  0  0  0  0  0  0  0  0
   42.9010   27.6100   47.4950 C   0  0  0  0  0  0  0  0  0  0  0  0
   43.1770   28.6780   48.3280 C   0  0  0  0  0  0  0  0  0  0  0  0
   35.7748   29.9848   40.9350 H   0  0  0  0  0  0  0  0  0  0  0  0
   40.0403   31.9621   41.8341 H   0  0  0  0  0  0  0  0  0  0  0  0
   36.1766   31.6763   39.9065 H   0  0  0  0  0  0  0  0  0  0  0  0
   38.6099   35.1915   39.5659 H   0  0  0  0  0  0  0  0  0  0  0  0
   44.1369   30.5320   47.8981 H   0  0  0  0  0  0  0  0  0  0  0  0
   42.3984   26.6759   47.7864 H   0  0  0  0  0  0  0  0  0  0  0  0
   42.9375   28.7544   49.3989 H   0  0  0  0  0  0  0  0  0  0  0  0
  1  5  1  0
  2  1  2  0
  2  3  1  0
  3  4  1  0
  4 12  1  0
  5  4  2  0
  7  6  2  0
  7  1  1  0
  8  7  1  0
  9 10  1  0
  9  8  2  0
 10 11  2  0
 11  6  1  0
 12 16  1  0
 12 13  2  0
 13 14  1  0
 15 14  1  0
 15 17  1  0
 16 15  2  0
 17 20  1  0
 18 22  1  0
 19 18  1  0
 20 19  2  0
 20 21  1  0
 21 22  2  0
  2 23  1  0
  6 24  1  0
  8 25  1  0
 10 26  1  0
 18 27  1  0
 21 28  1  0
 22 29  1  0
M  ISO  7  23  14  24  14  25  14  26  14  27   9  28  14  29  14
M  END
>  <minimizedAffinity>  (1) 
-5.51286745

>  <minimizedRMSD>  (1) 
0.890539229

$$$$
