
     RDKit          3D

 37 40  0  0  0  0  0  0  0  0999 V2000
   37.9570   30.5170   41.3900 C   0  0  0  0  0  0  0  0  0  0  0  0
   36.6770   29.9200   41.3010 C   0  0  0  0  0  0  0  0  0  0  0  0
   36.9100   28.2630   42.0720 S   0  0  0  0  0  0  0  0  0  0  0  0
   38.7290   28.6650   42.3890 C   0  0  0  0  0  0  0  0  0  0  0  0
   38.7960   29.7020   41.9640 N   0  0  0  0  0  0  0  0  0  0  0  0
   39.3990   32.5160   41.1290 C   0  0  0  0  0  0  0  0  0  0  0  0
   38.1950   31.8690   40.8770 C   0  0  0  0  0  0  0  0  0  0  0  0
   37.2040   32.5240   40.1240 C   0  0  0  0  0  0  0  0  0  0  0  0
   37.5060   33.7780   39.6840 N   0  0  0  0  0  0  0  0  0  0  0  0
   38.6970   34.3750   39.9530 C   0  0  0  0  0  0  0  0  0  0  0  0
   39.6220   33.7470   40.6650 N   0  0  0  0  0  0  0  0  0  0  0  0
   39.6840   27.7450   43.0380 C   0  0  0  0  0  0  0  0  0  0  0  0
   39.2650   26.7850   43.8990 N   0  0  0  0  0  0  0  0  0  0  0  0
   40.3110   26.1180   44.3210 O   0  0  0  0  0  0  0  0  0  0  0  0
   41.3680   26.6530   43.7340 C   0  0  0  0  0  0  0  0  0  0  0  0
   41.0240   27.6800   42.9180 N   0  0  0  0  0  0  0  0  0  0  0  0
   43.0970   26.2000   43.8890 S   0  0  0  0  0  0  0  0  0  0  0  0
   44.7110   26.3560   47.6670 N   0  0  0  0  0  0  0  0  0  0  0  0
   45.6800   27.0320   46.8200 C   0  0  0  0  0  0  0  0  0  0  0  0
   45.2090   26.8310   45.4090 C   0  0  0  0  0  0  0  0  0  0  0  0
   43.8310   27.3230   45.1320 C   0  0  0  0  0  0  0  0  0  0  0  0
   42.9250   27.4050   46.3100 C   0  0  0  0  0  0  0  0  0  0  0  0
   43.5250   27.1530   47.6470 C   0  0  0  0  0  0  0  0  0  0  0  0
   35.7580   30.3457   40.8719 H   0  0  0  0  0  0  0  0  0  0  0  0
   40.1768   32.0075   41.7176 H   0  0  0  0  0  0  0  0  0  0  0  0
   36.2368   32.0494   39.9021 H   0  0  0  0  0  0  0  0  0  0  0  0
   38.8952   35.3892   39.5762 H   0  0  0  0  0  0  0  0  0  0  0  0
   44.5128   25.4146   47.2989 H   0  0  0  0  0  0  0  0  0  0  0  0
   45.7161   28.1045   47.0616 H   0  0  0  0  0  0  0  0  0  0  0  0
   46.6932   26.6298   46.9673 H   0  0  0  0  0  0  0  0  0  0  0  0
   45.9021   27.3605   44.7387 H   0  0  0  0  0  0  0  0  0  0  0  0
   45.1877   25.7438   45.2427 H   0  0  0  0  0  0  0  0  0  0  0  0
   43.9300   28.3618   44.7841 H   0  0  0  0  0  0  0  0  0  0  0  0
   42.4937   28.4168   46.3261 H   0  0  0  0  0  0  0  0  0  0  0  0
   42.1990   26.5911   46.1668 H   0  0  0  0  0  0  0  0  0  0  0  0
   43.7684   28.1279   48.0946 H   0  0  0  0  0  0  0  0  0  0  0  0
   42.7724   26.5743   48.2027 H   0  0  0  0  0  0  0  0  0  0  0  0
  1  5  1  0
  2  1  2  0
  2  3  1  0
  3  4  1  0
  4 12  1  0
  5  4  2  0
  7  6  2  0
  7  1  1  0
  8  7  1  0
  9 10  1  0
  9  8  2  0
 10 11  2  0
 11  6  1  0
 12 13  2  0
 13 14  1  0
 15 17  1  0
 15 14  1  0
 16 12  1  0
 16 15  2  0
 17 21  1  0
 19 18  1  0
 20 19  1  0
 21 20  1  0
 21 22  1  0
 22 23  1  0
 23 18  1  0
  2 24  1  0
  6 25  1  0
  8 26  1  0
 10 27  1  0
 18 28  1  0
 19 29  1  0
 19 30  1  0
 20 31  1  0
 20 32  1  0
 21 33  1  0
 22 34  1  0
 22 35  1  0
 23 36  1  0
 23 37  1  0
M  ISO  8  24  14  25  14  26  14  27  14  28   5  29  13  30  13  31  13
M  ISO  6  32  13  33  13  34  13  35  13  36  13  37  13
M  END
>  <minimizedAffinity>  (1) 
-5.46750402

>  <minimizedRMSD>  (1) 
1.20956707

$$$$
