
     RDKit          3D

 28 31  0  0  0  0  0  0  0  0999 V2000
   37.7360   30.6200   41.2730 C   0  0  0  0  0  0  0  0  0  0  0  0
   36.4830   29.9940   41.0460 C   0  0  0  0  0  0  0  0  0  0  0  0
   36.7020   28.3300   41.8220 S   0  0  0  0  0  0  0  0  0  0  0  0
   38.4650   28.7790   42.3220 C   0  0  0  0  0  0  0  0  0  0  0  0
   38.5240   29.8140   41.9150 N   0  0  0  0  0  0  0  0  0  0  0  0
   39.1220   32.6710   41.1700 C   0  0  0  0  0  0  0  0  0  0  0  0
   37.9850   31.9920   40.8010 C   0  0  0  0  0  0  0  0  0  0  0  0
   37.0540   32.6150   39.9650 C   0  0  0  0  0  0  0  0  0  0  0  0
   37.3380   33.8820   39.5600 N   0  0  0  0  0  0  0  0  0  0  0  0
   38.4820   34.5220   39.9510 C   0  0  0  0  0  0  0  0  0  0  0  0
   39.3570   33.9070   40.7500 N   0  0  0  0  0  0  0  0  0  0  0  0
   39.3760   27.8810   43.0500 C   0  0  0  0  0  0  0  0  0  0  0  0
   38.9350   26.7740   43.6650 N   0  0  0  0  0  0  0  0  0  0  0  0
   39.9560   26.1730   44.2270 O   0  0  0  0  0  0  0  0  0  0  0  0
   41.0300   26.9040   43.9630 C   0  0  0  0  0  0  0  0  0  0  0  0
   40.6960   27.9740   43.2310 N   0  0  0  0  0  0  0  0  0  0  0  0
   42.7090   26.5740   44.4740 S   0  0  0  0  0  0  0  0  0  0  0  0
   43.1610   27.6610   45.8190 C   0  0  0  0  0  0  0  0  0  0  0  0
   43.8680   28.7550   45.5730 C   0  0  0  0  0  0  0  0  0  0  0  0
   44.0910   29.5430   47.2080 S   0  0  0  0  0  0  0  0  0  0  0  0
   43.0910   28.1130   48.0070 C   0  0  0  0  0  0  0  0  0  0  0  0
   42.8630   27.5020   47.0840 N   0  0  0  0  0  0  0  0  0  0  0  0
   35.5980   30.3994   40.5338 H   0  0  0  0  0  0  0  0  0  0  0  0
   39.8530   32.1784   41.8281 H   0  0  0  0  0  0  0  0  0  0  0  0
   36.1329   32.1035   39.6488 H   0  0  0  0  0  0  0  0  0  0  0  0
   38.6817   35.5472   39.6058 H   0  0  0  0  0  0  0  0  0  0  0  0
   44.2387   29.1103   44.6002 H   0  0  0  0  0  0  0  0  0  0  0  0
   42.8187   27.9386   49.0584 H   0  0  0  0  0  0  0  0  0  0  0  0
  1  5  1  0
  2  1  2  0
  2  3  1  0
  3  4  1  0
  4 12  1  0
  5  4  2  0
  7  6  2  0
  7  1  1  0
  8  7  1  0
  9 10  1  0
  9  8  2  0
 10 11  2  0
 11  6  1  0
 12 16  1  0
 12 13  2  0
 13 14  1  0
 15 14  1  0
 15 17  1  0
 16 15  2  0
 17 18  1  0
 18 22  1  0
 19 18  2  0
 19 20  1  0
 20 21  1  0
 22 21  2  0
  2 23  1  0
  6 24  1  0
  8 25  1  0
 10 26  1  0
 19 27  1  0
 21 28  1  0
M  ISO  6  23  14  24  14  25  14  26  14  27  14  28  14
M  END
>  <minimizedAffinity>  (1) 
-5.4368329

>  <minimizedRMSD>  (1) 
1.5190258

$$$$
