
     RDKit          3D

 39 43  0  0  1  0  0  0  0  0999 V2000
   39.3490   28.0910   42.9990 C   0  0  0  0  0  0  0  0  0  0  0  0
   38.8220   26.9670   43.5250 N   0  0  0  0  0  0  0  0  0  0  0  0
   39.7570   26.3150   44.1520 O   0  0  0  0  0  0  0  0  0  0  0  0
   40.8760   27.0380   44.0160 C   0  0  0  0  0  0  0  0  0  0  0  0
   40.6610   28.1720   43.2920 N   0  0  0  0  0  0  0  0  0  0  0  0
   37.9230   30.9210   41.1420 C   0  0  0  0  0  0  0  0  0  0  0  0
   36.6870   30.3300   40.8440 C   0  0  0  0  0  0  0  0  0  0  0  0
   36.7490   28.6580   41.5950 S   0  0  0  0  0  0  0  0  0  0  0  0
   38.5130   29.0270   42.2250 C   0  0  0  0  0  0  0  0  0  0  0  0
   38.6220   30.0720   41.8230 N   0  0  0  0  0  0  0  0  0  0  0  0
   39.5140   32.7890   40.9130 C   0  0  0  0  0  0  0  0  0  0  0  0
   38.2490   32.2730   40.7010 C   0  0  0  0  0  0  0  0  0  0  0  0
   37.2690   33.0580   40.0520 C   0  0  0  0  0  0  0  0  0  0  0  0
   37.6580   34.3070   39.6700 N   0  0  0  0  0  0  0  0  0  0  0  0
   38.9270   34.7760   39.9020 C   0  0  0  0  0  0  0  0  0  0  0  0
   39.8250   34.0200   40.5130 N   0  0  0  0  0  0  0  0  0  0  0  0
   42.5370   26.7050   44.6430 S   0  0  0  0  0  0  0  0  0  0  0  0
   43.6330   27.8220   43.7280 C   0  0  2  0  0  0  0  0  0  0  0  0
   45.0860   27.8440   43.9390 C   0  0  0  0  0  0  0  0  0  0  0  0
   44.1960   29.0000   44.4060 C   0  0  2  0  0  0  0  0  0  0  0  0
   44.0700   29.2680   45.8390 C   0  0  0  0  0  0  0  0  0  0  0  0
   43.4170   28.3450   46.6520 C   0  0  0  0  0  0  0  0  0  0  0  0
   43.2860   28.5860   48.0190 C   0  0  0  0  0  0  0  0  0  0  0  0
   43.7880   29.7310   48.6170 C   0  0  0  0  0  0  0  0  0  0  0  0
   44.4440   30.6630   47.8100 C   0  0  0  0  0  0  0  0  0  0  0  0
   44.5560   30.3940   46.4640 C   0  0  0  0  0  0  0  0  0  0  0  0
   35.8551   30.7755   40.2787 H   0  0  0  0  0  0  0  0  0  0  0  0
   40.2733   32.1744   41.4187 H   0  0  0  0  0  0  0  0  0  0  0  0
   36.2518   32.6827   39.8661 H   0  0  0  0  0  0  0  0  0  0  0  0
   39.2003   35.7906   39.5767 H   0  0  0  0  0  0  0  0  0  0  0  0
   43.0138   27.6611   42.8332 H   0  0  0  0  0  0  0  0  0  0  0  0
   45.5489   27.1696   44.6745 H   0  0  0  0  0  0  0  0  0  0  0  0
   45.9744   27.7462   43.2978 H   0  0  0  0  0  0  0  0  0  0  0  0
   44.1074   30.0834   44.2374 H   0  0  0  0  0  0  0  0  0  0  0  0
   43.0038   27.4240   46.2149 H   0  0  0  0  0  0  0  0  0  0  0  0
   42.7674   27.8433   48.6431 H   0  0  0  0  0  0  0  0  0  0  0  0
   43.6729   29.9010   49.6977 H   0  0  0  0  0  0  0  0  0  0  0  0
   44.8600   31.5870   48.2379 H   0  0  0  0  0  0  0  0  0  0  0  0
   45.0742   31.1368   45.8398 H   0  0  0  0  0  0  0  0  0  0  0  0
  1  5  1  0
  1  2  2  0
  2  3  1  0
  4  3  1  0
  4 17  1  0
  5  4  2  0
  6 10  1  0
  7  6  2  0
  7  8  1  0
  8  9  1  0
  9  1  1  0
 10  9  2  0
 12 11  2  0
 12  6  1  0
 13 12  1  0
 14 15  1  0
 14 13  2  0
 15 16  2  0
 16 11  1  0
 18 19  1  0
 18 20  1  0
 18 17  1  0
 19 20  1  0
 20 21  1  0
 21 26  1  0
 21 22  2  0
 22 23  1  0
 23 24  2  0
 25 24  1  0
 26 25  2  0
  7 27  1  0
 11 28  1  0
 13 29  1  0
 15 30  1  0
 18 31  1  6
 19 32  1  0
 19 33  1  0
 20 34  1  6
 22 35  1  0
 23 36  1  0
 24 37  1  0
 25 38  1  0
 26 39  1  0
M  ISO  8  27  14  28  14  29  14  30  14  31  13  32  13  33  13  34  13
M  ISO  5  35  14  36  14  37  14  38  14  39  14
M  END
>  <minimizedAffinity>  (1) 
-6.13653088

>  <minimizedRMSD>  (1) 
3.00939775

$$$$
