
     RDKit          3D

 39 43  0  0  1  0  0  0  0  0999 V2000
   39.2050   27.8530   42.9520 C   0  0  0  0  0  0  0  0  0  0  0  0
   38.7410   26.6720   43.4220 N   0  0  0  0  0  0  0  0  0  0  0  0
   39.7090   26.0540   44.0330 O   0  0  0  0  0  0  0  0  0  0  0  0
   40.7830   26.8520   43.9430 C   0  0  0  0  0  0  0  0  0  0  0  0
   40.5050   28.0000   43.2660 N   0  0  0  0  0  0  0  0  0  0  0  0
   37.6470   30.6560   41.1700 C   0  0  0  0  0  0  0  0  0  0  0  0
   36.4140   30.0350   40.8990 C   0  0  0  0  0  0  0  0  0  0  0  0
   36.5480   28.3580   41.6300 S   0  0  0  0  0  0  0  0  0  0  0  0
   38.3180   28.7680   42.2110 C   0  0  0  0  0  0  0  0  0  0  0  0
   38.3780   29.8140   41.8160 N   0  0  0  0  0  0  0  0  0  0  0  0
   39.0580   32.6730   41.1480 C   0  0  0  0  0  0  0  0  0  0  0  0
   37.9110   32.0210   40.7340 C   0  0  0  0  0  0  0  0  0  0  0  0
   36.9830   32.6810   39.8810 C   0  0  0  0  0  0  0  0  0  0  0  0
   37.3220   33.9560   39.5320 N   0  0  0  0  0  0  0  0  0  0  0  0
   38.4660   34.5660   39.9630 C   0  0  0  0  0  0  0  0  0  0  0  0
   39.3130   33.9230   40.7600 N   0  0  0  0  0  0  0  0  0  0  0  0
   42.4600   26.6040   44.5760 S   0  0  0  0  0  0  0  0  0  0  0  0
   43.5600   27.0660   43.1890 C   0  0  2  0  0  0  0  0  0  0  0  0
   45.0140   27.0660   43.3050 C   0  0  0  0  0  0  0  0  0  0  0  0
   44.2140   28.3550   43.1280 C   0  0  2  0  0  0  0  0  0  0  0  0
   44.2490   29.3870   44.1010 N   0  0  0  0  0  0  0  0  0  0  0  0
   45.0560   29.3350   45.2040 C   0  0  0  0  0  0  0  0  0  0  0  0
   45.1370   30.2960   46.1810 C   0  0  0  0  0  0  0  0  0  0  0  0
   44.3620   31.4160   46.0790 C   0  0  0  0  0  0  0  0  0  0  0  0
   44.3810   32.3230   46.9190 O   0  0  0  0  0  0  0  0  0  0  0  0
   43.5560   31.5010   45.0060 N   0  0  0  0  0  0  0  0  0  0  0  0
   43.5270   30.5220   44.0890 C   0  0  0  0  0  0  0  0  0  0  0  0
   42.7340   30.7190   43.1340 O   0  0  0  0  0  0  0  0  0  0  0  0
   35.5539   30.4633   40.3635 H   0  0  0  0  0  0  0  0  0  0  0  0
   39.7698   32.1534   41.8064 H   0  0  0  0  0  0  0  0  0  0  0  0
   36.0594   32.1986   39.5285 H   0  0  0  0  0  0  0  0  0  0  0  0
   38.6875   35.5964   39.6481 H   0  0  0  0  0  0  0  0  0  0  0  0
   42.8570   26.5365   42.5292 H   0  0  0  0  0  0  0  0  0  0  0  0
   45.4947   26.8380   44.2678 H   0  0  0  0  0  0  0  0  0  0  0  0
   45.8482   26.5759   42.7816 H   0  0  0  0  0  0  0  0  0  0  0  0
   44.1335   29.1960   42.4236 H   0  0  0  0  0  0  0  0  0  0  0  0
   45.6950   28.4469   45.3181 H   0  0  0  0  0  0  0  0  0  0  0  0
   45.8176   30.1656   47.0353 H   0  0  0  0  0  0  0  0  0  0  0  0
   42.9535   32.3278   44.8866 H   0  0  0  0  0  0  0  0  0  0  0  0
  1  5  1  0
  1  2  2  0
  2  3  1  0
  4  3  1  0
  4 17  1  0
  5  4  2  0
  6 10  1  0
  7  6  2  0
  7  8  1  0
  8  9  1  0
  9  1  1  0
 10  9  2  0
 12 11  2  0
 12  6  1  0
 13 12  1  0
 14 13  2  0
 14 15  1  0
 15 16  2  0
 16 11  1  0
 18 19  1  0
 18 17  1  0
 20 18  1  0
 20 19  1  0
 20 21  1  0
 21 22  1  0
 22 23  2  0
 24 23  1  0
 24 25  2  0
 26 24  1  0
 27 21  1  0
 27 26  1  0
 28 27  2  0
  7 29  1  0
 11 30  1  0
 13 31  1  0
 15 32  1  0
 18 33  1  6
 19 34  1  0
 19 35  1  0
 20 36  1  6
 22 37  1  0
 23 38  1  0
 26 39  1  0
M  ISO  8  29  14  30  14  31  14  32  14  33  13  34  13  35  13  36  13
M  ISO  3  37  14  38  14  39   9
M  END
>  <minimizedAffinity>  (1) 
-5.66332483

>  <minimizedRMSD>  (1) 
2.49967146

$$$$
