
     RDKit          3D

 43 48  0  0  1  0  0  0  0  0999 V2000
   44.8260   27.9520   43.5040 S   0  0  0  0  0  0  0  0  0  0  0  0
   43.3050   26.9980   43.7630 C   0  0  2  0  0  0  0  0  0  0  0  0
   43.2350   25.5660   43.4340 C   0  0  0  0  0  0  0  0  0  0  0  0
   42.4400   26.6290   42.6300 C   0  0  1  0  0  0  0  0  0  0  0  0
   41.0130   26.6560   42.8880 N   0  0  0  0  0  0  0  0  0  0  0  0
   40.2030   25.6230   43.0820 C   0  0  0  0  0  0  0  0  0  0  0  0
   38.9180   25.9950   43.2980 N   0  0  0  0  0  0  0  0  0  0  0  0
   38.9150   27.3570   43.2370 C   0  0  0  0  0  0  0  0  0  0  0  0
   37.9110   28.3240   43.3740 C   0  0  0  0  0  0  0  0  0  0  0  0
   36.7810   27.8600   43.6000 O   0  0  0  0  0  0  0  0  0  0  0  0
   38.2720   29.5950   43.2510 N   0  0  0  0  0  0  0  0  0  0  0  0
   39.5390   29.9760   43.0040 C   0  0  0  0  0  0  0  0  0  0  0  0
   39.7210   31.3990   42.9060 N   0  0  0  0  0  0  0  0  0  0  0  0
   40.5410   29.0620   42.8640 N   0  0  0  0  0  0  0  0  0  0  0  0
   40.2130   27.7560   42.9830 C   0  0  0  0  0  0  0  0  0  0  0  0
   43.5080   31.4160   42.4800 C   0  0  0  0  0  0  0  0  0  0  0  0
   43.8950   31.7240   43.7320 N   0  0  0  0  0  0  0  0  0  0  0  0
   44.3940   30.6580   44.2920 O   0  0  0  0  0  0  0  0  0  0  0  0
   44.3150   29.6770   43.3800 C   0  0  0  0  0  0  0  0  0  0  0  0
   43.7620   30.1240   42.2310 N   0  0  0  0  0  0  0  0  0  0  0  0
   41.2850   33.5250   40.4810 C   0  0  0  0  0  0  0  0  0  0  0  0
   42.2620   34.4310   39.9780 C   0  0  0  0  0  0  0  0  0  0  0  0
   43.8410   33.8250   40.7250 S   0  0  0  0  0  0  0  0  0  0  0  0
   42.8980   32.4410   41.5960 C   0  0  0  0  0  0  0  0  0  0  0  0
   41.8550   32.6600   41.2390 N   0  0  0  0  0  0  0  0  0  0  0  0
   39.1740   32.6290   39.6090 C   0  0  0  0  0  0  0  0  0  0  0  0
   39.8880   33.6800   40.1100 C   0  0  0  0  0  0  0  0  0  0  0  0
   39.2290   34.9350   40.2590 C   0  0  0  0  0  0  0  0  0  0  0  0
   37.9290   35.0010   39.8910 N   0  0  0  0  0  0  0  0  0  0  0  0
   37.2660   33.8950   39.3900 C   0  0  0  0  0  0  0  0  0  0  0  0
   37.8970   32.7190   39.2550 N   0  0  0  0  0  0  0  0  0  0  0  0
   43.1391   27.5674   44.6894 H   0  0  0  0  0  0  0  0  0  0  0  0
   44.0986   25.0582   42.9797 H   0  0  0  0  0  0  0  0  0  0  0  0
   42.9880   24.6432   43.9794 H   0  0  0  0  0  0  0  0  0  0  0  0
   42.3566   26.9284   41.5748 H   0  0  0  0  0  0  0  0  0  0  0  0
   40.5390   24.5757   43.0689 H   0  0  0  0  0  0  0  0  0  0  0  0
   37.5499   30.3229   43.3490 H   0  0  0  0  0  0  0  0  0  0  0  0
   40.6566   31.7868   42.7187 H   0  0  0  0  0  0  0  0  0  0  0  0
   38.9157   32.0305   43.0231 H   0  0  0  0  0  0  0  0  0  0  0  0
   42.1126   35.2880   39.3048 H   0  0  0  0  0  0  0  0  0  0  0  0
   39.6816   31.6601   39.4929 H   0  0  0  0  0  0  0  0  0  0  0  0
   39.7563   35.8144   40.6572 H   0  0  0  0  0  0  0  0  0  0  0  0
   36.2087   33.9810   39.0989 H   0  0  0  0  0  0  0  0  0  0  0  0
  1  2  1  0
  3  2  1  0
  4  5  1  0
  4  3  1  0
  4  2  1  0
  5 15  1  0
  5  6  1  0
  6  7  2  0
  8  7  1  0
  8  9  1  0
  9 10  2  0
 11  9  1  0
 12 11  1  0
 13 12  1  0
 14 15  1  0
 14 12  2  0
 15  8  2  0
 16 17  2  0
 17 18  1  0
 19  1  1  0
 19 18  1  0
 20 16  1  0
 20 19  2  0
 21 25  1  0
 22 21  2  0
 22 23  1  0
 23 24  1  0
 24 16  1  0
 25 24  2  0
 26 27  2  0
 27 28  1  0
 27 21  1  0
 29 28  2  0
 30 29  1  0
 31 30  2  0
 31 26  1  0
  2 32  1  1
  3 33  1  0
  3 34  1  0
  4 35  1  6
  6 36  1  0
 11 37  1  0
 13 38  1  0
 13 39  1  0
 22 40  1  0
 26 41  1  0
 28 42  1  0
 30 43  1  0
M  ISO  8  32  13  33  13  34  13  35  13  36  14  37   9  40  14  41  14
M  ISO  2  42  14  43  14
M  END
>  <minimizedAffinity>  (1) 
-5.64084721

>  <minimizedRMSD>  (1) 
6.31292439

$$$$
