
     RDKit          3D

 42 46  0  0  1  0  0  0  0  0999 V2000
   39.2470   27.8580   42.9800 C   0  0  0  0  0  0  0  0  0  0  0  0
   38.8180   26.6650   43.4310 N   0  0  0  0  0  0  0  0  0  0  0  0
   39.7950   26.0650   44.0470 O   0  0  0  0  0  0  0  0  0  0  0  0
   40.8450   26.8890   43.9820 C   0  0  0  0  0  0  0  0  0  0  0  0
   40.5450   28.0360   43.3150 N   0  0  0  0  0  0  0  0  0  0  0  0
   37.6620   30.6240   41.1980 C   0  0  0  0  0  0  0  0  0  0  0  0
   36.4070   30.0050   40.9260 C   0  0  0  0  0  0  0  0  0  0  0  0
   36.5990   28.3290   41.6870 S   0  0  0  0  0  0  0  0  0  0  0  0
   38.3510   28.7620   42.2410 C   0  0  0  0  0  0  0  0  0  0  0  0
   38.4070   29.8000   41.8420 N   0  0  0  0  0  0  0  0  0  0  0  0
   39.0350   32.6650   41.1460 C   0  0  0  0  0  0  0  0  0  0  0  0
   37.9120   31.9870   40.7500 C   0  0  0  0  0  0  0  0  0  0  0  0
   36.9880   32.6380   39.8880 C   0  0  0  0  0  0  0  0  0  0  0  0
   37.2880   33.9130   39.5090 N   0  0  0  0  0  0  0  0  0  0  0  0
   38.4270   34.5420   39.9360 C   0  0  0  0  0  0  0  0  0  0  0  0
   39.2810   33.9110   40.7460 N   0  0  0  0  0  0  0  0  0  0  0  0
   42.5120   26.6690   44.6340 S   0  0  0  0  0  0  0  0  0  0  0  0
   43.4660   28.0990   44.0640 C   0  0  2  0  0  0  0  0  0  0  0  0
   44.9060   28.0250   43.8000 C   0  0  0  0  0  0  0  0  0  0  0  0
   44.3100   28.8690   44.9690 C   0  0  2  0  0  0  0  0  0  0  0  0
   44.6130   28.4870   46.2910 N   0  0  0  0  0  0  0  0  0  0  0  0
   43.6240   28.8120   47.2680 C   0  0  0  0  0  0  0  0  0  0  0  0
   43.9270   29.9070   48.2190 C   0  0  0  0  0  0  0  0  0  0  0  0
   45.2610   29.9440   48.6260 O   0  0  0  0  0  0  0  0  0  0  0  0
   46.0380   30.0350   47.4400 C   0  0  0  0  0  0  0  0  0  0  0  0
   45.9130   28.6930   46.7940 C   0  0  0  0  0  0  0  0  0  0  0  0
   35.5384   30.4211   40.3946 H   0  0  0  0  0  0  0  0  0  0  0  0
   39.7534   32.1660   41.8130 H   0  0  0  0  0  0  0  0  0  0  0  0
   36.0724   32.1359   39.5423 H   0  0  0  0  0  0  0  0  0  0  0  0
   38.6394   35.5711   39.6105 H   0  0  0  0  0  0  0  0  0  0  0  0
   42.6028   28.3591   43.4337 H   0  0  0  0  0  0  0  0  0  0  0  0
   45.4636   27.1001   44.0089 H   0  0  0  0  0  0  0  0  0  0  0  0
   45.5647   28.2166   42.9401 H   0  0  0  0  0  0  0  0  0  0  0  0
   44.2960   29.9159   45.3064 H   0  0  0  0  0  0  0  0  0  0  0  0
   42.7077   29.0911   46.7272 H   0  0  0  0  0  0  0  0  0  0  0  0
   43.5485   27.9121   47.8961 H   0  0  0  0  0  0  0  0  0  0  0  0
   43.6852   30.8645   47.7345 H   0  0  0  0  0  0  0  0  0  0  0  0
   43.3213   29.7272   49.1195 H   0  0  0  0  0  0  0  0  0  0  0  0
   45.6442   30.8209   46.7788 H   0  0  0  0  0  0  0  0  0  0  0  0
   47.0854   30.2972   47.6504 H   0  0  0  0  0  0  0  0  0  0  0  0
   46.1369   27.9146   47.5383 H   0  0  0  0  0  0  0  0  0  0  0  0
   46.6223   28.6438   45.9547 H   0  0  0  0  0  0  0  0  0  0  0  0
  1  5  1  0
  1  2  2  0
  2  3  1  0
  4  3  1  0
  4 17  1  0
  5  4  2  0
  6 10  1  0
  7  6  2  0
  7  8  1  0
  8  9  1  0
  9  1  1  0
 10  9  2  0
 12 11  2  0
 12  6  1  0
 13 12  1  0
 14 13  2  0
 14 15  1  0
 15 16  2  0
 16 11  1  0
 18 17  1  0
 18 20  1  0
 19 18  1  0
 19 20  1  0
 20 21  1  0
 21 26  1  0
 21 22  1  0
 22 23  1  0
 23 24  1  0
 25 24  1  0
 26 25  1  0
  7 27  1  0
 11 28  1  0
 13 29  1  0
 15 30  1  0
 18 31  1  6
 19 32  1  0
 19 33  1  0
 20 34  1  6
 22 35  1  0
 22 36  1  0
 23 37  1  0
 23 38  1  0
 25 39  1  0
 25 40  1  0
 26 41  1  0
 26 42  1  0
M  ISO  8  27  14  28  14  29  14  30  14  31  13  32  13  33  13  34  13
M  ISO  8  35  13  36  13  37  13  38  13  39  13  40  13  41  13  42  13
M  END
>  <minimizedAffinity>  (1) 
-5.62256718

>  <minimizedRMSD>  (1) 
2.77429056

$$$$
