
     RDKit          3D

 43 47  0  0  1  0  0  0  0  0999 V2000
   39.1790   27.8730   42.9850 C   0  0  0  0  0  0  0  0  0  0  0  0
   38.7130   26.7060   43.4670 N   0  0  0  0  0  0  0  0  0  0  0  0
   39.6840   26.0890   44.0750 O   0  0  0  0  0  0  0  0  0  0  0  0
   40.7560   26.8700   43.9740 C   0  0  0  0  0  0  0  0  0  0  0  0
   40.4810   28.0120   43.2910 N   0  0  0  0  0  0  0  0  0  0  0  0
   37.6370   30.6620   41.1540 C   0  0  0  0  0  0  0  0  0  0  0  0
   36.4280   30.0220   40.8570 C   0  0  0  0  0  0  0  0  0  0  0  0
   36.5460   28.3520   41.5980 S   0  0  0  0  0  0  0  0  0  0  0  0
   38.2960   28.7830   42.2280 C   0  0  0  0  0  0  0  0  0  0  0  0
   38.3700   29.8350   41.8320 N   0  0  0  0  0  0  0  0  0  0  0  0
   39.0510   32.6740   41.1430 C   0  0  0  0  0  0  0  0  0  0  0  0
   37.9030   32.0240   40.7250 C   0  0  0  0  0  0  0  0  0  0  0  0
   36.9910   32.6940   39.8810 C   0  0  0  0  0  0  0  0  0  0  0  0
   37.3140   33.9670   39.5250 N   0  0  0  0  0  0  0  0  0  0  0  0
   38.4570   34.5760   39.9580 C   0  0  0  0  0  0  0  0  0  0  0  0
   39.3080   33.9240   40.7590 N   0  0  0  0  0  0  0  0  0  0  0  0
   42.4410   26.6290   44.5900 S   0  0  0  0  0  0  0  0  0  0  0  0
   43.2640   25.5780   43.3290 C   0  0  2  0  0  0  0  0  0  0  0  0
   44.7410   25.4930   43.3440 C   0  0  0  0  0  0  0  0  0  0  0  0
   43.9500   26.2070   42.2100 C   0  0  1  0  0  0  0  0  0  0  0  0
   44.1510   25.6490   40.9300 N   0  0  0  0  0  0  0  0  0  0  0  0
   43.0250   25.0490   40.2830 C   0  0  0  0  0  0  0  0  0  0  0  0
   42.2690   26.0110   39.3950 C   0  0  0  0  0  0  0  0  0  0  0  0
   43.2040   26.7370   38.5280 N   0  0  0  0  0  0  0  0  0  0  0  0
   44.1260   27.4340   39.3680 C   0  0  0  0  0  0  0  0  0  0  0  0
   45.0020   26.3840   40.0570 C   0  0  0  0  0  0  0  0  0  0  0  0
   35.5799   30.4377   40.2933 H   0  0  0  0  0  0  0  0  0  0  0  0
   39.7610   32.1518   41.8012 H   0  0  0  0  0  0  0  0  0  0  0  0
   36.0670   32.2119   39.5293 H   0  0  0  0  0  0  0  0  0  0  0  0
   38.6793   35.6074   39.6469 H   0  0  0  0  0  0  0  0  0  0  0  0
   42.4584   24.8311   43.3858 H   0  0  0  0  0  0  0  0  0  0  0  0
   45.3257   26.0778   44.0693 H   0  0  0  0  0  0  0  0  0  0  0  0
   45.4892   24.6889   43.4050 H   0  0  0  0  0  0  0  0  0  0  0  0
   43.8116   27.1989   41.7550 H   0  0  0  0  0  0  0  0  0  0  0  0
   43.3812   24.2102   39.6670 H   0  0  0  0  0  0  0  0  0  0  0  0
   42.3328   24.7168   41.0707 H   0  0  0  0  0  0  0  0  0  0  0  0
   41.5571   25.4490   38.7726 H   0  0  0  0  0  0  0  0  0  0  0  0
   41.7271   26.7323   40.0244 H   0  0  0  0  0  0  0  0  0  0  0  0
   42.6885   27.4081   37.9408 H   0  0  0  0  0  0  0  0  0  0  0  0
   44.7513   28.1068   38.7628 H   0  0  0  0  0  0  0  0  0  0  0  0
   43.5904   28.0417   40.1122 H   0  0  0  0  0  0  0  0  0  0  0  0
   45.4481   25.7125   39.3086 H   0  0  0  0  0  0  0  0  0  0  0  0
   45.8240   26.8583   40.6131 H   0  0  0  0  0  0  0  0  0  0  0  0
  1  5  1  0
  1  2  2  0
  2  3  1  0
  4  3  1  0
  4 17  1  0
  5  4  2  0
  6 10  1  0
  7  6  2  0
  7  8  1  0
  8  9  1  0
  9  1  1  0
 10  9  2  0
 12 11  2  0
 12  6  1  0
 13 12  1  0
 14 13  2  0
 14 15  1  0
 15 16  2  0
 16 11  1  0
 18 19  1  0
 18 17  1  0
 20 18  1  0
 20 19  1  0
 21 20  1  0
 22 21  1  0
 23 22  1  0
 24 25  1  0
 24 23  1  0
 25 26  1  0
 26 21  1  0
  7 27  1  0
 11 28  1  0
 13 29  1  0
 15 30  1  0
 18 31  1  6
 19 32  1  0
 19 33  1  0
 20 34  1  6
 22 35  1  0
 22 36  1  0
 23 37  1  0
 23 38  1  0
 24 39  1  0
 25 40  1  0
 25 41  1  0
 26 42  1  0
 26 43  1  0
M  ISO  8  27  14  28  14  29  14  30  14  31  13  32  13  33  13  34  13
M  ISO  8  35  13  36  13  37  13  38  13  39   5  40  13  41  13  42  13
M  ISO  1  43  13
M  END
>  <minimizedAffinity>  (1) 
-4.81262493

>  <minimizedRMSD>  (1) 
0.295030266

$$$$
