
     RDKit          3D

 30 33  0  0  1  0  0  0  0  0999 V2000
   37.6430   30.6520   41.1670 C   0  0  0  0  0  0  0  0  0  0  0  0
   36.4200   30.0120   40.8990 C   0  0  0  0  0  0  0  0  0  0  0  0
   36.5750   28.3370   41.6400 S   0  0  0  0  0  0  0  0  0  0  0  0
   38.3380   28.7780   42.2210 C   0  0  0  0  0  0  0  0  0  0  0  0
   38.3880   29.8170   41.8240 N   0  0  0  0  0  0  0  0  0  0  0  0
   39.0350   32.6810   41.1380 C   0  0  0  0  0  0  0  0  0  0  0  0
   37.9010   32.0150   40.7290 C   0  0  0  0  0  0  0  0  0  0  0  0
   36.9860   32.6640   39.8810 C   0  0  0  0  0  0  0  0  0  0  0  0
   37.2960   33.9420   39.5120 N   0  0  0  0  0  0  0  0  0  0  0  0
   38.4400   34.5630   39.9470 C   0  0  0  0  0  0  0  0  0  0  0  0
   39.2980   33.9240   40.7560 N   0  0  0  0  0  0  0  0  0  0  0  0
   39.2410   27.8790   42.9700 C   0  0  0  0  0  0  0  0  0  0  0  0
   38.7870   26.6930   43.4370 N   0  0  0  0  0  0  0  0  0  0  0  0
   39.7580   26.0870   44.0550 O   0  0  0  0  0  0  0  0  0  0  0  0
   40.8190   26.8990   43.9740 C   0  0  0  0  0  0  0  0  0  0  0  0
   40.5300   28.0430   43.2930 N   0  0  0  0  0  0  0  0  0  0  0  0
   42.4900   26.6680   44.6220 S   0  0  0  0  0  0  0  0  0  0  0  0
   43.3080   25.5270   43.4490 C   0  0  2  0  0  0  0  0  0  0  0  0
   44.7860   25.4630   43.3840 C   0  0  0  0  0  0  0  0  0  0  0  0
   43.9300   26.0520   42.2220 C   0  0  2  0  0  0  0  0  0  0  0  0
   44.1110   27.8230   41.9450 S   0  0  0  0  0  0  0  0  0  0  0  0
   35.5546   30.4257   40.3605 H   0  0  0  0  0  0  0  0  0  0  0  0
   39.7449   32.1662   41.8022 H   0  0  0  0  0  0  0  0  0  0  0  0
   36.0680   32.1680   39.5328 H   0  0  0  0  0  0  0  0  0  0  0  0
   38.6551   35.5939   39.6293 H   0  0  0  0  0  0  0  0  0  0  0  0
   42.5273   24.7755   43.6383 H   0  0  0  0  0  0  0  0  0  0  0  0
   45.3992   26.1248   44.0133 H   0  0  0  0  0  0  0  0  0  0  0  0
   45.5479   24.6758   43.4836 H   0  0  0  0  0  0  0  0  0  0  0  0
   43.7593   25.8653   41.1515 H   0  0  0  0  0  0  0  0  0  0  0  0
   44.1771   28.4695   43.1511 H   0  0  0  0  0  0  0  0  0  0  0  0
  1  5  1  0
  2  1  2  0
  2  3  1  0
  3  4  1  0
  4 12  1  0
  5  4  2  0
  7  6  2  0
  7  1  1  0
  8  7  1  0
  9  8  2  0
  9 10  1  0
 10 11  2  0
 11  6  1  0
 12 16  1  0
 12 13  2  0
 13 14  1  0
 15 14  1  0
 15 17  1  0
 16 15  2  0
 18 17  1  0
 19 18  1  0
 20 19  1  0
 20 18  1  0
 21 20  1  0
  2 22  1  0
  6 23  1  0
  8 24  1  0
 10 25  1  0
 18 26  1  6
 19 27  1  0
 19 28  1  0
 20 29  1  6
 21 30  1  0
M  ISO  8  22  14  23  14  24  14  25  14  26  13  27  13  28  13  29  13
M  ISO  1  30  11
M  END
>  <minimizedAffinity>  (1) 
-4.73746347

>  <minimizedRMSD>  (1) 
0.0228186827

$$$$
