
     RDKit          3D

 32 35  0  0  1  0  0  0  0  0999 V2000
   39.2160   27.8610   42.9750 C   0  0  0  0  0  0  0  0  0  0  0  0
   38.7840   26.6730   43.4200 N   0  0  0  0  0  0  0  0  0  0  0  0
   39.7530   26.0640   44.0370 O   0  0  0  0  0  0  0  0  0  0  0  0
   40.8040   26.8780   43.9780 C   0  0  0  0  0  0  0  0  0  0  0  0
   40.4940   28.0150   43.3190 N   0  0  0  0  0  0  0  0  0  0  0  0
   37.6410   30.6420   41.1780 C   0  0  0  0  0  0  0  0  0  0  0  0
   36.4190   30.0120   40.8980 C   0  0  0  0  0  0  0  0  0  0  0  0
   36.5750   28.3390   41.6370 S   0  0  0  0  0  0  0  0  0  0  0  0
   38.3340   28.7750   42.2300 C   0  0  0  0  0  0  0  0  0  0  0  0
   38.3930   29.8200   41.8360 N   0  0  0  0  0  0  0  0  0  0  0  0
   39.0520   32.6660   41.1510 C   0  0  0  0  0  0  0  0  0  0  0  0
   37.9030   32.0170   40.7360 C   0  0  0  0  0  0  0  0  0  0  0  0
   36.9800   32.6710   39.8830 C   0  0  0  0  0  0  0  0  0  0  0  0
   37.3240   33.9340   39.5330 N   0  0  0  0  0  0  0  0  0  0  0  0
   38.4620   34.5550   39.9540 C   0  0  0  0  0  0  0  0  0  0  0  0
   39.3020   33.9170   40.7500 N   0  0  0  0  0  0  0  0  0  0  0  0
   42.4870   26.6660   44.6320 S   0  0  0  0  0  0  0  0  0  0  0  0
   43.3210   25.5520   43.4620 C   0  0  2  0  0  0  0  0  0  0  0  0
   44.7760   25.4400   43.4180 C   0  0  0  0  0  0  0  0  0  0  0  0
   43.9290   26.0360   42.2320 C   0  0  2  0  0  0  0  0  0  0  0  0
   44.2820   27.4730   41.9620 C   0  0  0  0  0  0  0  0  0  0  0  0
   44.8930   28.0330   43.0480 F   0  0  0  0  0  0  0  0  0  0  0  0
   43.1430   28.2100   41.6300 F   0  0  0  0  0  0  0  0  0  0  0  0
   45.1290   27.5950   40.8470 F   0  0  0  0  0  0  0  0  0  0  0  0
   35.5576   30.4287   40.3554 H   0  0  0  0  0  0  0  0  0  0  0  0
   39.7630   32.1509   41.8136 H   0  0  0  0  0  0  0  0  0  0  0  0
   36.0550   32.1903   39.5318 H   0  0  0  0  0  0  0  0  0  0  0  0
   38.6805   35.5839   39.6322 H   0  0  0  0  0  0  0  0  0  0  0  0
   42.5198   24.8238   43.6565 H   0  0  0  0  0  0  0  0  0  0  0  0
   45.4048   26.0953   44.0386 H   0  0  0  0  0  0  0  0  0  0  0  0
   45.5145   24.6339   43.5399 H   0  0  0  0  0  0  0  0  0  0  0  0
   43.6659   25.8549   41.1794 H   0  0  0  0  0  0  0  0  0  0  0  0
  1  5  1  0
  1  2  2  0
  2  3  1  0
  4  3  1  0
  4 17  1  0
  5  4  2  0
  6 10  1  0
  7  6  2  0
  7  8  1  0
  8  9  1  0
  9  1  1  0
 10  9  2  0
 12 11  2  0
 12  6  1  0
 13 12  1  0
 14 13  2  0
 14 15  1  0
 15 16  2  0
 16 11  1  0
 18 17  1  0
 19 18  1  0
 20 19  1  0
 20 18  1  0
 21 20  1  0
 21 22  1  0
 23 21  1  0
 24 21  1  0
  7 25  1  0
 11 26  1  0
 13 27  1  0
 15 28  1  0
 18 29  1  6
 19 30  1  0
 19 31  1  0
 20 32  1  6
M  ISO  8  25  14  26  14  27  14  28  14  29  13  30  13  31  13  32  13
M  END
>  <minimizedAffinity>  (1) 
-4.69457769

>  <minimizedRMSD>  (1) 
0.454987019

$$$$
