
     RDKit          3D

 11 11  0  0  0  0  0  0  0  0999 V2000
   37.9430   29.8600   42.0410 C   0  0  0  0  0  0  0  0  0  0  0  0
   37.6160   28.5260   42.3270 C   0  0  0  0  0  0  0  0  0  0  0  0
   36.4190   28.0110   41.7920 C   0  0  0  0  0  0  0  0  0  0  0  0
   35.6470   28.8440   41.0260 N   0  0  0  0  0  0  0  0  0  0  0  0
   36.0060   30.1180   40.7830 C   0  0  0  0  0  0  0  0  0  0  0  0
   37.1390   30.6380   41.2770 N   0  0  0  0  0  0  0  0  0  0  0  0
   38.6890   27.5010   43.3420 S   0  0  0  0  0  0  0  0  0  0  0  0
   38.8735   30.2840   42.4464 H   0  0  0  0  0  0  0  0  0  0  0  0
   36.1135   26.9718   41.9834 H   0  0  0  0  0  0  0  0  0  0  0  0
   35.3528   30.7494   40.1628 H   0  0  0  0  0  0  0  0  0  0  0  0
   38.4342   27.7444   44.6659 H   0  0  0  0  0  0  0  0  0  0  0  0
  1  2  2  0
  2  7  1  0
  3  2  1  0
  4  3  2  0
  5  4  1  0
  5  6  2  0
  6  1  1  0
  1  8  1  0
  3  9  1  0
  5 10  1  0
  7 11  1  0
M  ISO  4   8  14   9  14  10  14  11  11
M  END
>  <minimizedAffinity>  (1) 
-2.35212231

>  <minimizedRMSD>  (1) 
1.47397387

$$$$
