
     RDKit          3D

 41 43  0  0  1  0  0  0  0  0999 V2000
   39.3090   28.2000   42.2510 C   0  0  2  0  0  0  0  0  0  0  0  0
   40.5050   27.2580   42.2110 C   0  0  2  0  0  0  0  0  0  0  0  0
   40.1870   25.8700   41.9250 C   0  0  0  0  0  0  0  0  0  0  0  0
   40.7740   24.9730   42.9940 C   0  0  0  0  0  0  0  0  0  0  0  0
   41.7080   25.8470   43.7840 C   0  0  0  0  0  0  0  0  0  0  0  0
   41.0980   27.2170   43.6120 C   0  0  1  0  0  0  0  0  0  0  0  0
   42.0490   28.2310   43.7560 O   0  0  0  0  0  0  0  0  0  0  0  0
   38.1250   27.4890   42.6350 N   0  0  0  0  0  0  0  0  0  0  0  0
   37.1520   28.0750   43.4800 C   0  0  0  0  0  0  0  0  0  0  0  0
   37.3930   29.2420   43.9800 N   0  0  0  0  0  0  0  0  0  0  0  0
   35.9600   27.4010   43.7620 N   0  0  0  0  0  0  0  0  0  0  0  0
   36.6920   29.7100   44.5880 H   0  0  0  0  0  0  0  0  0  0  0  0
   38.5890   29.1490   38.8320 C   0  0  0  0  0  0  0  0  0  0  0  0
   39.4650   30.1840   39.2170 C   0  0  0  0  0  0  0  0  0  0  0  0
   39.7800   29.8830   40.5140 C   0  0  0  0  0  0  0  0  0  0  0  0
   39.1440   28.7470   40.9020 N   0  0  0  0  0  0  0  0  0  0  0  0
   38.4290   28.3170   39.8720 N   0  0  0  0  0  0  0  0  0  0  0  0
   38.1240   27.9550   36.6770 C   0  0  0  0  0  0  0  0  0  0  0  0
   37.9830   29.0390   37.5200 C   0  0  0  0  0  0  0  0  0  0  0  0
   37.2070   30.0900   37.0770 C   0  0  0  0  0  0  0  0  0  0  0  0
   36.6050   30.0550   35.8550 N   0  0  0  0  0  0  0  0  0  0  0  0
   36.7920   28.9270   35.0520 C   0  0  0  0  0  0  0  0  0  0  0  0
   37.5650   27.8730   35.4890 N   0  0  0  0  0  0  0  0  0  0  0  0
   39.4748   29.0017   42.9857 H   0  0  0  0  0  0  0  0  0  0  0  0
   41.1578   27.6447   41.4145 H   0  0  0  0  0  0  0  0  0  0  0  0
   39.0945   25.7437   41.9032 H   0  0  0  0  0  0  0  0  0  0  0  0
   40.6141   25.5956   40.9491 H   0  0  0  0  0  0  0  0  0  0  0  0
   39.9787   24.5761   43.6420 H   0  0  0  0  0  0  0  0  0  0  0  0
   41.2952   24.1074   42.5592 H   0  0  0  0  0  0  0  0  0  0  0  0
   41.7286   25.5512   44.8433 H   0  0  0  0  0  0  0  0  0  0  0  0
   42.7537   25.7874   43.4479 H   0  0  0  0  0  0  0  0  0  0  0  0
   40.3344   27.3875   44.3852 H   0  0  0  0  0  0  0  0  0  0  0  0
   42.2078   28.4003   44.7184 H   0  0  0  0  0  0  0  0  0  0  0  0
   37.9789   26.5302   42.2883 H   0  0  0  0  0  0  0  0  0  0  0  0
   35.2569   27.8339   44.3777 H   0  0  0  0  0  0  0  0  0  0  0  0
   35.7850   26.4716   43.3540 H   0  0  0  0  0  0  0  0  0  0  0  0
   39.8142   31.0357   38.6147 H   0  0  0  0  0  0  0  0  0  0  0  0
   40.4522   30.4761   41.1515 H   0  0  0  0  0  0  0  0  0  0  0  0
   38.7400   27.1101   37.0187 H   0  0  0  0  0  0  0  0  0  0  0  0
   37.0719   30.9713   37.7212 H   0  0  0  0  0  0  0  0  0  0  0  0
   36.3174   28.8797   34.0608 H   0  0  0  0  0  0  0  0  0  0  0  0
  1  8  1  0
  2  1  1  0
  2  6  1  0
  3  2  1  0
  3  4  1  0
  4  5  1  0
  6  7  1  0
  6  5  1  0
  8  9  1  0
  9 11  1  0
  9 10  2  0
 10 12  1  0
 13 14  1  0
 13 17  2  0
 14 15  2  0
 15 16  1  0
 16  1  1  0
 17 16  1  0
 18 19  2  0
 19 13  1  0
 20 19  1  0
 21 20  2  0
 22 23  2  0
 22 21  1  0
 23 18  1  0
  1 24  1  1
  2 25  1  6
  3 26  1  0
  3 27  1  0
  4 28  1  0
  4 29  1  0
  5 30  1  0
  5 31  1  0
  6 32  1  1
  7 33  1  0
  8 34  1  0
 11 35  1  0
 11 36  1  0
 14 37  1  0
 15 38  1  0
 18 39  1  0
 20 40  1  0
 22 41  1  0
M  ISO  8  24   8  25  13  26  13  27  13  28  13  29  13  30  13  31  13
M  ISO  7  32  13  33   3  37  14  38  14  39  14  40  14  41  14
M  END
>  <minimizedAffinity>  (1) 
-4.74846077

>  <minimizedRMSD>  (1) 
0.0679419041

$$$$
