
     RDKit          3D

 21 22  0  0  0  0  0  0  0  0999 V2000
   39.0060   30.6620   39.3400 C   0  0  0  0  0  0  0  0  0  0  0  0
   38.7210   31.4260   40.4820 C   0  0  0  0  0  0  0  0  0  0  0  0
   37.7400   32.4210   40.4020 C   0  0  0  0  0  0  0  0  0  0  0  0
   37.1040   32.5990   39.2020 N   0  0  0  0  0  0  0  0  0  0  0  0
   37.4210   31.8320   38.1310 C   0  0  0  0  0  0  0  0  0  0  0  0
   38.3520   30.8710   38.1650 N   0  0  0  0  0  0  0  0  0  0  0  0
   39.5860   31.1480   42.0250 S   0  0  0  0  0  0  0  0  0  0  0  0
   39.1330   29.5800   42.7050 C   0  0  0  0  0  0  0  0  0  0  0  0
   37.8730   29.2080   43.1090 C   0  0  0  0  0  0  0  0  0  0  0  0
   37.7110   27.9370   43.6170 C   0  0  0  0  0  0  0  0  0  0  0  0
   38.7240   27.0110   43.7500 C   0  0  0  0  0  0  0  0  0  0  0  0
   40.0000   27.3990   43.3370 C   0  0  0  0  0  0  0  0  0  0  0  0
   40.1680   28.6760   42.8260 C   0  0  0  0  0  0  0  0  0  0  0  0
   39.7747   29.8772   39.3957 H   0  0  0  0  0  0  0  0  0  0  0  0
   37.4877   33.0405   41.2752 H   0  0  0  0  0  0  0  0  0  0  0  0
   36.8863   32.0080   37.1860 H   0  0  0  0  0  0  0  0  0  0  0  0
   37.0226   29.9012   43.0296 H   0  0  0  0  0  0  0  0  0  0  0  0
   36.7020   27.6403   43.9392 H   0  0  0  0  0  0  0  0  0  0  0  0
   38.5349   26.0095   44.1638 H   0  0  0  0  0  0  0  0  0  0  0  0
   40.8518   26.7074   43.4154 H   0  0  0  0  0  0  0  0  0  0  0  0
   41.1733   28.9831   42.5018 H   0  0  0  0  0  0  0  0  0  0  0  0
  1  2  2  0
  2  7  1  0
  3  2  1  0
  4  3  2  0
  5  6  2  0
  5  4  1  0
  6  1  1  0
  7  8  1  0
  8 13  1  0
  8  9  2  0
  9 10  1  0
 10 11  2  0
 12 11  1  0
 13 12  2  0
  1 14  1  0
  3 15  1  0
  5 16  1  0
  9 17  1  0
 10 18  1  0
 11 19  1  0
 12 20  1  0
 13 21  1  0
M  ISO  8  14  14  15  14  16  14  17  14  18  14  19  14  20  14  21  14
M  END
>  <minimizedAffinity>  (1) 
-3.95034337

>  <minimizedRMSD>  (1) 
3.95089269

$$$$
