
     RDKit          3D

 18 19  0  0  0  0  0  0  0  0999 V2000
   39.2470   31.5950   40.8640 C   0  0  0  0  0  0  0  0  0  0  0  0
   38.0940   31.0060   40.3080 C   0  0  0  0  0  0  0  0  0  0  0  0
   37.1100   31.8470   39.7800 C   0  0  0  0  0  0  0  0  0  0  0  0
   37.3200   33.2030   39.8300 N   0  0  0  0  0  0  0  0  0  0  0  0
   38.4490   33.7160   40.3760 C   0  0  0  0  0  0  0  0  0  0  0  0
   39.4060   32.9460   40.8890 N   0  0  0  0  0  0  0  0  0  0  0  0
   37.8940   29.2140   40.2800 S   0  0  0  0  0  0  0  0  0  0  0  0
   37.3910   28.7200   41.9230 C   0  0  0  0  0  0  0  0  0  0  0  0
   36.6940   27.5330   42.1670 C   0  0  0  0  0  0  0  0  0  0  0  0
   36.4940   27.5170   43.5510 C   0  0  0  0  0  0  0  0  0  0  0  0
   37.0430   28.6380   44.0990 N   0  0  0  0  0  0  0  0  0  0  0  0
   37.5730   29.3440   43.1190 N   0  0  0  0  0  0  0  0  0  0  0  0
   40.0328   30.9509   41.2855 H   0  0  0  0  0  0  0  0  0  0  0  0
   36.1922   31.4336   39.3364 H   0  0  0  0  0  0  0  0  0  0  0  0
   38.5794   34.8081   40.3961 H   0  0  0  0  0  0  0  0  0  0  0  0
   36.3738   26.7788   41.4331 H   0  0  0  0  0  0  0  0  0  0  0  0
   35.9751   26.7242   44.1098 H   0  0  0  0  0  0  0  0  0  0  0  0
   37.0438   28.8885   45.0981 H   0  0  0  0  0  0  0  0  0  0  0  0
  1  6  2  0
  2  1  1  0
  3  4  1  0
  3  2  2  0
  4  5  2  0
  5  6  1  0
  7  2  1  0
  7  8  1  0
  8  9  1  0
  8 12  2  0
  9 10  2  0
 10 11  1  0
 12 11  1  0
  1 13  1  0
  3 14  1  0
  5 15  1  0
  9 16  1  0
 10 17  1  0
 11 18  1  0
M  ISO  6  13  14  14  14  15  14  16  14  17  14  18   9
M  END
>  <minimizedAffinity>  (1) 
-3.89306045

>  <minimizedRMSD>  (1) 
4.10056543

$$$$
