
     RDKit          3D

 18 19  0  0  0  0  0  0  0  0999 V2000
   36.6590   30.2670   38.6360 C   0  0  0  0  0  0  0  0  0  0  0  0
   36.3730   30.2260   40.0010 C   0  0  0  0  0  0  0  0  0  0  0  0
   36.6260   31.3780   40.7730 C   0  0  0  0  0  0  0  0  0  0  0  0
   37.1440   32.4760   40.1180 N   0  0  0  0  0  0  0  0  0  0  0  0
   37.4010   32.4620   38.8030 C   0  0  0  0  0  0  0  0  0  0  0  0
   37.1700   31.3730   38.0370 N   0  0  0  0  0  0  0  0  0  0  0  0
   35.7000   28.7660   40.7870 S   0  0  0  0  0  0  0  0  0  0  0  0
   36.8250   28.2690   42.0710 C   0  0  0  0  0  0  0  0  0  0  0  0
   36.6130   27.5900   43.2440 C   0  0  0  0  0  0  0  0  0  0  0  0
   37.8340   27.4630   43.8800 C   0  0  0  0  0  0  0  0  0  0  0  0
   38.7480   28.0860   43.0380 C   0  0  0  0  0  0  0  0  0  0  0  0
   38.1120   28.5540   41.9700 O   0  0  0  0  0  0  0  0  0  0  0  0
   36.4640   29.3735   38.0248 H   0  0  0  0  0  0  0  0  0  0  0  0
   36.4189   31.4005   41.8531 H   0  0  0  0  0  0  0  0  0  0  0  0
   37.8134   33.3663   38.3317 H   0  0  0  0  0  0  0  0  0  0  0  0
   35.6467   27.2146   43.6119 H   0  0  0  0  0  0  0  0  0  0  0  0
   38.0382   26.9744   44.8442 H   0  0  0  0  0  0  0  0  0  0  0  0
   39.8279   28.1770   43.2265 H   0  0  0  0  0  0  0  0  0  0  0  0
  1  2  2  0
  2  3  1  0
  2  7  1  0
  4  3  2  0
  5  4  1  0
  6  1  1  0
  6  5  2  0
  7  8  1  0
  8  9  2  0
  9 10  1  0
 11 10  2  0
 12  8  1  0
 12 11  1  0
  1 13  1  0
  3 14  1  0
  5 15  1  0
  9 16  1  0
 10 17  1  0
 11 18  1  0
M  ISO  6  13  14  14  14  15  14  16  14  17  14  18  14
M  END
>  <minimizedAffinity>  (1) 
-3.79518175

>  <minimizedRMSD>  (1) 
3.84433651

$$$$
