
     RDKit          3D

 16 17  0  0  0  0  0  0  0  0999 V2000
   37.5320   29.8180   42.0280 C   0  0  0  0  0  0  0  0  0  0  0  0
   36.6600   28.7340   41.9480 C   0  0  0  0  0  0  0  0  0  0  0  0
   35.6510   28.7390   40.9660 C   0  0  0  0  0  0  0  0  0  0  0  0
   35.5990   29.8260   40.1470 N   0  0  0  0  0  0  0  0  0  0  0  0
   36.4530   30.8470   40.2540 C   0  0  0  0  0  0  0  0  0  0  0  0
   37.4170   30.8610   41.1800 N   0  0  0  0  0  0  0  0  0  0  0  0
   36.8050   27.3360   43.0750 S   0  0  0  0  0  0  0  0  0  0  0  0
   37.3980   25.8920   42.2350 C   0  0  0  0  0  0  0  0  0  0  0  0
   38.5300   25.8320   41.5130 N   0  0  0  0  0  0  0  0  0  0  0  0
   38.6910   24.6370   41.0220 O   0  0  0  0  0  0  0  0  0  0  0  0
   37.6780   23.8950   41.4070 C   0  0  0  0  0  0  0  0  0  0  0  0
   36.8500   24.6550   42.1690 N   0  0  0  0  0  0  0  0  0  0  0  0
   38.3236   29.8234   42.7917 H   0  0  0  0  0  0  0  0  0  0  0  0
   34.9397   27.9060   40.8652 H   0  0  0  0  0  0  0  0  0  0  0  0
   36.3609   31.6978   39.5629 H   0  0  0  0  0  0  0  0  0  0  0  0
   37.5258   22.8353   41.1544 H   0  0  0  0  0  0  0  0  0  0  0  0
  2  1  2  0
  2  7  1  0
  3  2  1  0
  4  5  1  0
  4  3  2  0
  5  6  2  0
  6  1  1  0
  8  7  1  0
  9  8  2  0
 10 11  1  0
 10  9  1  0
 11 12  2  0
 12  8  1  0
  1 13  1  0
  3 14  1  0
  5 15  1  0
 11 16  1  0
M  ISO  4  13  14  14  14  15  14  16  14
M  END
>  <minimizedAffinity>  (1) 
-3.32753706

>  <minimizedRMSD>  (1) 
2.25260568

$$$$
