
     RDKit          3D

 18 19  0  0  0  0  0  0  0  0999 V2000
   37.6160   29.7380   41.9820 C   0  0  0  0  0  0  0  0  0  0  0  0
   36.7880   28.6230   41.8560 C   0  0  0  0  0  0  0  0  0  0  0  0
   35.6980   28.7080   40.9600 C   0  0  0  0  0  0  0  0  0  0  0  0
   35.5250   29.8820   40.2710 N   0  0  0  0  0  0  0  0  0  0  0  0
   36.3520   30.9210   40.4320 C   0  0  0  0  0  0  0  0  0  0  0  0
   37.4040   30.8810   41.2760 N   0  0  0  0  0  0  0  0  0  0  0  0
   37.0800   27.1280   42.7900 S   0  0  0  0  0  0  0  0  0  0  0  0
   37.6630   25.7810   41.7330 C   0  0  0  0  0  0  0  0  0  0  0  0
   36.8100   24.5190   41.8410 C   0  0  0  0  0  0  0  0  0  0  0  0
   38.2270   24.5510   42.3240 C   0  0  0  0  0  0  0  0  0  0  0  0
   38.4688   29.6916   42.6753 H   0  0  0  0  0  0  0  0  0  0  0  0
   35.0108   27.8606   40.8196 H   0  0  0  0  0  0  0  0  0  0  0  0
   36.1680   31.8401   39.8563 H   0  0  0  0  0  0  0  0  0  0  0  0
   38.0331   26.4595   40.9502 H   0  0  0  0  0  0  0  0  0  0  0  0
   35.9799   24.4710   42.5611 H   0  0  0  0  0  0  0  0  0  0  0  0
   36.2310   23.8983   41.1414 H   0  0  0  0  0  0  0  0  0  0  0  0
   39.0011   23.9902   41.7797 H   0  0  0  0  0  0  0  0  0  0  0  0
   38.7172   24.3141   43.2798 H   0  0  0  0  0  0  0  0  0  0  0  0
  2  1  2  0
  2  7  1  0
  3  2  1  0
  4  5  1  0
  4  3  2  0
  5  6  2  0
  6  1  1  0
  8  9  1  0
  8 10  1  0
  8  7  1  0
  9 10  1  0
  1 11  1  0
  3 12  1  0
  5 13  1  0
  8 14  1  0
  9 15  1  0
  9 16  1  0
 10 17  1  0
 10 18  1  0
M  ISO  8  11  14  12  14  13  14  14  13  15  13  16  13  17  13  18  13
M  END
>  <minimizedAffinity>  (1) 
-3.16853452

>  <minimizedRMSD>  (1) 
2.13266301

$$$$
