
     RDKit          3D

 17 17  0  0  0  0  0  0  0  0999 V2000
   37.5670   29.9550   42.0600 C   0  0  0  0  0  0  0  0  0  0  0  0
   37.1240   28.6370   42.2810 C   0  0  0  0  0  0  0  0  0  0  0  0
   36.0390   28.1800   41.5190 C   0  0  0  0  0  0  0  0  0  0  0  0
   35.4650   29.0190   40.6060 N   0  0  0  0  0  0  0  0  0  0  0  0
   35.9390   30.2780   40.4400 C   0  0  0  0  0  0  0  0  0  0  0  0
   36.9760   30.7730   41.1400 N   0  0  0  0  0  0  0  0  0  0  0  0
   37.9370   27.6100   43.5000 S   0  0  0  0  0  0  0  0  0  0  0  0
   39.7240   27.7030   43.1990 C   0  0  0  0  0  0  0  0  0  0  0  0
   40.3610   26.5530   43.9890 C   0  0  0  0  0  0  0  0  0  0  0  0
   38.4153   30.3376   42.6465 H   0  0  0  0  0  0  0  0  0  0  0  0
   35.6546   27.1583   41.6547 H   0  0  0  0  0  0  0  0  0  0  0  0
   35.4522   30.9266   39.6968 H   0  0  0  0  0  0  0  0  0  0  0  0
   39.9347   27.5886   42.1254 H   0  0  0  0  0  0  0  0  0  0  0  0
   40.1299   28.6750   43.5158 H   0  0  0  0  0  0  0  0  0  0  0  0
   40.2544   26.7454   45.0668 H   0  0  0  0  0  0  0  0  0  0  0  0
   39.8570   25.6092   43.7334 H   0  0  0  0  0  0  0  0  0  0  0  0
   41.4284   26.4796   43.7334 H   0  0  0  0  0  0  0  0  0  0  0  0
  1  2  2  0
  2  7  1  0
  3  2  1  0
  4  3  2  0
  5  4  1  0
  5  6  2  0
  6  1  1  0
  8  7  1  0
  8  9  1  0
  1 10  1  0
  3 11  1  0
  5 12  1  0
  8 13  1  0
  8 14  1  0
  9 15  1  0
  9 16  1  0
  9 17  1  0
M  ISO  8  10  14  11  14  12  14  13   8  14   8  15   8  16   8  17   8
M  END
>  <minimizedAffinity>  (1) 
-2.80020404

>  <minimizedRMSD>  (1) 
0.799467742

$$$$
