
     RDKit          3D

 31 34  0  0  0  0  0  0  0  0999 V2000
   38.1320   29.4240   39.2930 C   0  0  0  0  0  0  0  0  0  0  0  0
   39.2580   28.6520   38.8310 C   0  0  0  0  0  0  0  0  0  0  0  0
   40.5900   29.9720   38.8720 S   0  0  0  0  0  0  0  0  0  0  0  0
   39.3640   31.2690   39.4940 C   0  0  0  0  0  0  0  0  0  0  0  0
   38.3910   30.6850   39.5640 N   0  0  0  0  0  0  0  0  0  0  0  0
   39.5400   32.7140   39.8320 N   0  0  0  0  0  0  0  0  0  0  0  0
   38.7830   33.2950   40.7750 C   0  0  0  0  0  0  0  0  0  0  0  0
   39.2160   34.5450   40.7950 N   0  0  0  0  0  0  0  0  0  0  0  0
   40.2010   34.7200   39.8970 C   0  0  0  0  0  0  0  0  0  0  0  0
   40.9400   35.8520   39.5770 C   0  0  0  0  0  0  0  0  0  0  0  0
   40.7900   36.9710   40.1180 O   0  0  0  0  0  0  0  0  0  0  0  0
   41.8740   35.6680   38.6010 N   0  0  0  0  0  0  0  0  0  0  0  0
   42.0980   34.4880   37.9670 C   0  0  0  0  0  0  0  0  0  0  0  0
   43.1300   34.5040   36.9670 N   0  0  0  0  0  0  0  0  0  0  0  0
   41.3530   33.3970   38.3070 N   0  0  0  0  0  0  0  0  0  0  0  0
   40.4220   33.5160   39.2560 C   0  0  0  0  0  0  0  0  0  0  0  0
   36.5730   28.5240   39.4210 S   0  0  0  0  0  0  0  0  0  0  0  0
   36.6920   25.7730   39.9930 C   0  0  0  0  0  0  0  0  0  0  0  0
   36.7710   27.0950   40.4840 C   0  0  0  0  0  0  0  0  0  0  0  0
   37.0170   27.2430   41.8700 C   0  0  0  0  0  0  0  0  0  0  0  0
   37.1590   26.1350   42.6390 N   0  0  0  0  0  0  0  0  0  0  0  0
   37.0710   24.8920   42.0960 C   0  0  0  0  0  0  0  0  0  0  0  0
   36.8390   24.6980   40.7870 N   0  0  0  0  0  0  0  0  0  0  0  0
   39.3187   27.5933   38.5385 H   0  0  0  0  0  0  0  0  0  0  0  0
   37.9901   32.8399   41.3867 H   0  0  0  0  0  0  0  0  0  0  0  0
   42.4480   36.4779   38.3262 H   0  0  0  0  0  0  0  0  0  0  0  0
   43.6454   35.3744   36.7727 H   0  0  0  0  0  0  0  0  0  0  0  0
   43.3543   33.6451   36.4446 H   0  0  0  0  0  0  0  0  0  0  0  0
   36.5031   25.6171   38.9206 H   0  0  0  0  0  0  0  0  0  0  0  0
   37.0921   28.2448   42.3181 H   0  0  0  0  0  0  0  0  0  0  0  0
   37.1938   24.0160   42.7499 H   0  0  0  0  0  0  0  0  0  0  0  0
  1 17  1  0
  1  5  1  0
  2  3  1  0
  2  1  2  0
  3  4  1  0
  4  5  2  0
  4  6  1  0
  6  7  1  0
  7  8  2  0
  9  8  1  0
 10  9  1  0
 10 11  2  0
 12 10  1  0
 13 15  2  0
 13 12  1  0
 14 13  1  0
 15 16  1  0
 16  6  1  0
 16  9  2  0
 17 19  1  0
 18 19  2  0
 18 23  1  0
 19 20  1  0
 20 21  2  0
 22 21  1  0
 23 22  2  0
  2 24  1  0
  7 25  1  0
 12 26  1  0
 14 27  1  0
 14 28  1  0
 18 29  1  0
 20 30  1  0
 22 31  1  0
M  ISO  6  24  14  25  14  26   9  29  14  30  14  31  14
M  END
>  <minimizedAffinity>  (1) 
-6.53286314

>  <minimizedRMSD>  (1) 
2.711689

$$$$
