
     RDKit          3D

 31 34  0  0  0  0  0  0  0  0999 V2000
   41.5670   32.3830   38.8030 C   0  0  0  0  0  0  0  0  0  0  0  0
   42.0850   32.9050   37.5720 C   0  0  0  0  0  0  0  0  0  0  0  0
   42.4140   34.6750   38.1080 S   0  0  0  0  0  0  0  0  0  0  0  0
   41.8000   34.3430   39.8360 C   0  0  0  0  0  0  0  0  0  0  0  0
   41.5050   33.2450   39.7990 N   0  0  0  0  0  0  0  0  0  0  0  0
   41.7500   35.3410   40.9200 C   0  0  0  0  0  0  0  0  0  0  0  0
   40.6930   36.1350   41.2300 C   0  0  0  0  0  0  0  0  0  0  0  0
   41.0710   36.8900   42.2780 N   0  0  0  0  0  0  0  0  0  0  0  0
   42.3310   36.6200   42.6640 C   0  0  0  0  0  0  0  0  0  0  0  0
   43.1250   37.1360   43.6740 C   0  0  0  0  0  0  0  0  0  0  0  0
   44.4210   36.6610   43.8500 C   0  0  0  0  0  0  0  0  0  0  0  0
   44.8630   35.6690   42.9850 C   0  0  0  0  0  0  0  0  0  0  0  0
   44.0440   35.1850   41.9980 C   0  0  0  0  0  0  0  0  0  0  0  0
   42.7770   35.6330   41.8060 C   0  0  0  0  0  0  0  0  0  0  0  0
   41.0930   30.6410   38.7790 S   0  0  0  0  0  0  0  0  0  0  0  0
   38.5960   31.5260   37.8280 C   0  0  0  0  0  0  0  0  0  0  0  0
   39.4950   30.4370   38.0130 C   0  0  0  0  0  0  0  0  0  0  0  0
   39.0730   29.1730   37.5590 C   0  0  0  0  0  0  0  0  0  0  0  0
   37.8550   29.0400   36.9760 N   0  0  0  0  0  0  0  0  0  0  0  0
   37.0420   30.1200   36.8290 C   0  0  0  0  0  0  0  0  0  0  0  0
   37.3880   31.3560   37.2420 N   0  0  0  0  0  0  0  0  0  0  0  0
   42.2431   32.4139   36.6005 H   0  0  0  0  0  0  0  0  0  0  0  0
   39.7171   36.1569   40.7229 H   0  0  0  0  0  0  0  0  0  0  0  0
   40.4673   37.5911   42.7307 H   0  0  0  0  0  0  0  0  0  0  0  0
   42.7316   37.9208   44.3368 H   0  0  0  0  0  0  0  0  0  0  0  0
   45.0708   37.0565   44.6445 H   0  0  0  0  0  0  0  0  0  0  0  0
   45.8813   35.2671   43.0928 H   0  0  0  0  0  0  0  0  0  0  0  0
   44.4304   34.3991   41.3324 H   0  0  0  0  0  0  0  0  0  0  0  0
   38.8905   32.5293   38.1696 H   0  0  0  0  0  0  0  0  0  0  0  0
   39.7278   28.2970   37.6764 H   0  0  0  0  0  0  0  0  0  0  0  0
   36.0604   29.9793   36.3529 H   0  0  0  0  0  0  0  0  0  0  0  0
  1  5  1  0
  2  3  1  0
  2  1  2  0
  3  4  1  0
  4  6  1  0
  5  4  2  0
  6  7  2  0
  6 14  1  0
  7  8  1  0
  8  9  1  0
  9 10  2  0
 10 11  1  0
 12 11  2  0
 13 12  1  0
 14 13  2  0
 14  9  1  0
 15  1  1  0
 16 17  2  0
 17 15  1  0
 18 17  1  0
 19 18  2  0
 20 19  1  0
 20 21  2  0
 21 16  1  0
  2 22  1  0
  7 23  1  0
  8 24  1  0
 10 25  1  0
 11 26  1  0
 12 27  1  0
 13 28  1  0
 16 29  1  0
 18 30  1  0
 20 31  1  0
M  ISO  8  22  14  23  14  24   9  25  14  26  14  27  14  28  14  29  14
M  ISO  2  30  14  31  14
M  END
>  <minimizedAffinity>  (1) 
-5.8143239

>  <minimizedRMSD>  (1) 
5.16917276

$$$$
