
     RDKit          3D

 33 36  0  0  0  0  0  0  0  0999 V2000
   37.2670   31.3630   40.0100 C   0  0  0  0  0  0  0  0  0  0  0  0
   37.6270   31.0020   38.6850 C   0  0  0  0  0  0  0  0  0  0  0  0
   38.8210   32.4000   38.3200 S   0  0  0  0  0  0  0  0  0  0  0  0
   38.5890   33.1730   40.0130 C   0  0  0  0  0  0  0  0  0  0  0  0
   37.8490   32.4420   40.4510 N   0  0  0  0  0  0  0  0  0  0  0  0
   39.3730   34.3710   40.2120 C   0  0  0  0  0  0  0  0  0  0  0  0
   38.9380   35.6640   39.9740 C   0  0  0  0  0  0  0  0  0  0  0  0
   39.7080   36.7980   40.1730 C   0  0  0  0  0  0  0  0  0  0  0  0
   40.9950   36.6350   40.6380 C   0  0  0  0  0  0  0  0  0  0  0  0
   41.5000   35.3790   40.8980 C   0  0  0  0  0  0  0  0  0  0  0  0
   42.7930   35.2580   41.3630 C   0  0  0  0  0  0  0  0  0  0  0  0
   43.3160   33.9870   41.6300 C   0  0  0  0  0  0  0  0  0  0  0  0
   42.4660   32.9110   41.4000 C   0  0  0  0  0  0  0  0  0  0  0  0
   41.1770   33.0650   40.9340 C   0  0  0  0  0  0  0  0  0  0  0  0
   40.6660   34.3080   40.6730 C   0  0  0  0  0  0  0  0  0  0  0  0
   36.0880   30.2730   40.8420 S   0  0  0  0  0  0  0  0  0  0  0  0
   36.4290   27.8330   42.2140 C   0  0  0  0  0  0  0  0  0  0  0  0
   36.9500   29.1200   41.9050 C   0  0  0  0  0  0  0  0  0  0  0  0
   38.1940   29.4590   42.4760 C   0  0  0  0  0  0  0  0  0  0  0  0
   38.8270   28.5560   43.2830 N   0  0  0  0  0  0  0  0  0  0  0  0
   38.2780   27.3520   43.5360 C   0  0  0  0  0  0  0  0  0  0  0  0
   37.1000   26.9820   43.0170 N   0  0  0  0  0  0  0  0  0  0  0  0
   37.3028   30.1564   38.0606 H   0  0  0  0  0  0  0  0  0  0  0  0
   37.9118   35.7996   39.6018 H   0  0  0  0  0  0  0  0  0  0  0  0
   39.3039   37.7999   39.9658 H   0  0  0  0  0  0  0  0  0  0  0  0
   41.6279   37.5192   40.8039 H   0  0  0  0  0  0  0  0  0  0  0  0
   43.4096   36.1548   41.5231 H   0  0  0  0  0  0  0  0  0  0  0  0
   44.3421   33.8475   42.0010 H   0  0  0  0  0  0  0  0  0  0  0  0
   42.8370   31.8945   41.5979 H   0  0  0  0  0  0  0  0  0  0  0  0
   40.5504   32.1760   40.7696 H   0  0  0  0  0  0  0  0  0  0  0  0
   35.4613   27.5262   41.7904 H   0  0  0  0  0  0  0  0  0  0  0  0
   38.6498   30.4395   42.2740 H   0  0  0  0  0  0  0  0  0  0  0  0
   38.8150   26.6496   44.1904 H   0  0  0  0  0  0  0  0  0  0  0  0
  1  5  1  0
  1 16  1  0
  2  1  2  0
  3  2  1  0
  3  4  1  0
  4  6  1  0
  4  5  2  0
  6 15  2  0
  7  8  2  0
  7  6  1  0
  8  9  1  0
  9 10  2  0
 10 11  1  0
 11 12  2  0
 13 12  1  0
 14 13  2  0
 15 10  1  0
 15 14  1  0
 16 18  1  0
 17 22  2  0
 18 17  1  0
 18 19  2  0
 19 20  1  0
 20 21  2  0
 22 21  1  0
  2 23  1  0
  7 24  1  0
  8 25  1  0
  9 26  1  0
 11 27  1  0
 12 28  1  0
 13 29  1  0
 14 30  1  0
 17 31  1  0
 19 32  1  0
 21 33  1  0
M  ISO  8  23  14  24  14  25  14  26  14  27  14  28  14  29  14  30  14
M  ISO  3  31  14  32  14  33  14
M  END
>  <minimizedAffinity>  (1) 
-5.81158686

>  <minimizedRMSD>  (1) 
0.831939042

$$$$
