
     RDKit          3D

 24 25  0  0  0  0  0  0  0  0999 V2000
   37.6840   31.8550   40.2760 C   0  0  0  0  0  0  0  0  0  0  0  0
   38.7470   31.1800   39.6160 C   0  0  0  0  0  0  0  0  0  0  0  0
   39.8090   32.6440   39.1540 S   0  0  0  0  0  0  0  0  0  0  0  0
   38.5980   33.8540   39.9460 C   0  0  0  0  0  0  0  0  0  0  0  0
   37.7890   33.1570   40.3370 N   0  0  0  0  0  0  0  0  0  0  0  0
   38.9760   35.2520   39.8640 N   0  0  0  0  0  0  0  0  0  0  0  0
   40.3180   35.5060   40.1780 C   0  0  0  0  0  0  0  0  0  0  0  0
   40.9430   34.7750   41.0220 N   0  0  0  0  0  0  0  0  0  0  0  0
   41.0330   36.5960   39.5640 N   0  0  0  0  0  0  0  0  0  0  0  0
   40.5670   33.9720   41.5340 H   0  0  0  0  0  0  0  0  0  0  0  0
   36.3510   30.8060   40.9320 S   0  0  0  0  0  0  0  0  0  0  0  0
   36.5050   28.1130   41.7150 C   0  0  0  0  0  0  0  0  0  0  0  0
   37.0180   29.4230   41.8200 C   0  0  0  0  0  0  0  0  0  0  0  0
   38.1180   29.5930   42.6860 C   0  0  0  0  0  0  0  0  0  0  0  0
   38.6230   28.5220   43.3640 N   0  0  0  0  0  0  0  0  0  0  0  0
   38.0740   27.2880   43.2120 C   0  0  0  0  0  0  0  0  0  0  0  0
   37.0230   27.0770   42.3960 N   0  0  0  0  0  0  0  0  0  0  0  0
   38.8995   30.1064   39.4312 H   0  0  0  0  0  0  0  0  0  0  0  0
   38.3143   35.9950   39.5976 H   0  0  0  0  0  0  0  0  0  0  0  0
   42.0191   36.7671   39.8074 H   0  0  0  0  0  0  0  0  0  0  0  0
   40.5580   37.2040   38.8817 H   0  0  0  0  0  0  0  0  0  0  0  0
   35.6477   27.9327   41.0498 H   0  0  0  0  0  0  0  0  0  0  0  0
   38.5685   30.5882   42.8148 H   0  0  0  0  0  0  0  0  0  0  0  0
   38.4986   26.4400   43.7694 H   0  0  0  0  0  0  0  0  0  0  0  0
  1  5  1  0
  1 11  1  0
  2  1  2  0
  3  2  1  0
  3  4  1  0
  4  5  2  0
  6  4  1  0
  6  7  1  0
  7  8  2  0
  8 10  1  0
  9  7  1  0
 11 13  1  0
 12 13  2  0
 12 17  1  0
 13 14  1  0
 14 15  2  0
 16 15  1  0
 17 16  2  0
  2 18  1  0
  6 19  1  0
  9 20  1  0
  9 21  1  0
 12 22  1  0
 14 23  1  0
 16 24  1  0
M  ISO  4  18  14  22  14  23  14  24  14
M  END
>  <minimizedAffinity>  (1) 
-5.42161083

>  <minimizedRMSD>  (1) 
0.513942719

$$$$
