
     RDKit          3D

 24 26  0  0  0  0  0  0  0  0999 V2000
   37.9100   31.6760   40.0660 C   0  0  0  0  0  0  0  0  0  0  0  0
   38.6010   30.8880   39.1010 C   0  0  0  0  0  0  0  0  0  0  0  0
   39.9280   32.1080   38.5840 S   0  0  0  0  0  0  0  0  0  0  0  0
   39.2670   33.4170   39.7760 C   0  0  0  0  0  0  0  0  0  0  0  0
   38.3850   32.8830   40.2570 N   0  0  0  0  0  0  0  0  0  0  0  0
   39.7410   34.7980   40.0540 N   0  0  0  0  0  0  0  0  0  0  0  0
   40.9970   35.0440   40.3890 C   0  0  0  0  0  0  0  0  0  0  0  0
   41.0050   36.4040   40.5500 C   0  0  0  0  0  0  0  0  0  0  0  0
   39.7710   36.9210   40.3090 N   0  0  0  0  0  0  0  0  0  0  0  0
   38.9830   35.8910   39.9970 C   0  0  0  0  0  0  0  0  0  0  0  0
   36.4950   30.8720   40.8650 S   0  0  0  0  0  0  0  0  0  0  0  0
   36.3860   28.2050   41.7750 C   0  0  0  0  0  0  0  0  0  0  0  0
   37.0490   29.4660   41.8260 C   0  0  0  0  0  0  0  0  0  0  0  0
   38.1750   29.5620   42.6770 C   0  0  0  0  0  0  0  0  0  0  0  0
   38.5600   28.4690   43.3880 N   0  0  0  0  0  0  0  0  0  0  0  0
   37.8820   27.2970   43.2920 C   0  0  0  0  0  0  0  0  0  0  0  0
   36.8140   27.1560   42.5040 N   0  0  0  0  0  0  0  0  0  0  0  0
   38.4109   29.8603   38.7581 H   0  0  0  0  0  0  0  0  0  0  0  0
   41.8280   34.3332   40.5085 H   0  0  0  0  0  0  0  0  0  0  0  0
   41.8874   36.9958   40.8348 H   0  0  0  0  0  0  0  0  0  0  0  0
   37.9139   35.9360   39.7420 H   0  0  0  0  0  0  0  0  0  0  0  0
   35.5057   28.0859   41.1262 H   0  0  0  0  0  0  0  0  0  0  0  0
   38.7310   30.5073   42.7622 H   0  0  0  0  0  0  0  0  0  0  0  0
   38.2241   26.4348   43.8833 H   0  0  0  0  0  0  0  0  0  0  0  0
  1  5  1  0
  1 11  1  0
  2  1  2  0
  3  2  1  0
  3  4  1  0
  4  6  1  0
  4  5  2  0
  6  7  1  0
  7  8  2  0
  9  8  1  0
 10  6  1  0
 10  9  2  0
 11 13  1  0
 12 13  2  0
 12 17  1  0
 13 14  1  0
 14 15  2  0
 16 15  1  0
 17 16  2  0
  2 18  1  0
  7 19  1  0
  8 20  1  0
 10 21  1  0
 12 22  1  0
 14 23  1  0
 16 24  1  0
M  ISO  7  18  14  19  14  20  14  21  14  22  14  23  14  24  14
M  END
>  <minimizedAffinity>  (1) 
-5.07654047

>  <minimizedRMSD>  (1) 
0.511939526

$$$$
