
     RDKit          3D

 29 31  0  0  0  0  0  0  0  0999 V2000
   37.6740   31.3970   40.1040 C   0  0  0  0  0  0  0  0  0  0  0  0
   38.0710   30.7800   38.8620 C   0  0  0  0  0  0  0  0  0  0  0  0
   39.3560   32.0200   38.2870 S   0  0  0  0  0  0  0  0  0  0  0  0
   39.0900   33.0920   39.8190 C   0  0  0  0  0  0  0  0  0  0  0  0
   38.2920   32.5180   40.3870 N   0  0  0  0  0  0  0  0  0  0  0  0
   39.7360   34.3680   40.2260 N   0  0  0  0  0  0  0  0  0  0  0  0
   39.2190   35.5870   40.7490 C   0  0  0  0  0  0  0  0  0  0  0  0
   39.9850   36.6750   39.9880 C   0  0  0  0  0  0  0  0  0  0  0  0
   41.1520   35.9270   39.3540 C   0  0  0  0  0  0  0  0  0  0  0  0
   41.1360   34.6180   40.1540 C   0  0  0  0  0  0  0  0  0  0  0  0
   36.4070   30.5050   41.0320 S   0  0  0  0  0  0  0  0  0  0  0  0
   36.5020   27.9500   42.1930 C   0  0  0  0  0  0  0  0  0  0  0  0
   37.1550   29.1920   41.9940 C   0  0  0  0  0  0  0  0  0  0  0  0
   38.4290   29.3560   42.5870 C   0  0  0  0  0  0  0  0  0  0  0  0
   38.9530   28.3290   43.3080 N   0  0  0  0  0  0  0  0  0  0  0  0
   38.2810   27.1640   43.4640 C   0  0  0  0  0  0  0  0  0  0  0  0
   37.0690   26.9580   42.9210 N   0  0  0  0  0  0  0  0  0  0  0  0
   37.7212   29.8507   38.3887 H   0  0  0  0  0  0  0  0  0  0  0  0
   38.1382   35.6657   40.5601 H   0  0  0  0  0  0  0  0  0  0  0  0
   39.3450   35.6659   41.8389 H   0  0  0  0  0  0  0  0  0  0  0  0
   39.3493   37.1343   39.2167 H   0  0  0  0  0  0  0  0  0  0  0  0
   40.3129   37.4978   40.6403 H   0  0  0  0  0  0  0  0  0  0  0  0
   40.9810   35.7468   38.2824 H   0  0  0  0  0  0  0  0  0  0  0  0
   42.1091   36.4678   39.3918 H   0  0  0  0  0  0  0  0  0  0  0  0
   41.6646   33.8124   39.6233 H   0  0  0  0  0  0  0  0  0  0  0  0
   41.6400   34.6740   41.1301 H   0  0  0  0  0  0  0  0  0  0  0  0
   35.5104   27.7874   41.7454 H   0  0  0  0  0  0  0  0  0  0  0  0
   38.9856   30.2972   42.4670 H   0  0  0  0  0  0  0  0  0  0  0  0
   38.7425   26.3591   44.0550 H   0  0  0  0  0  0  0  0  0  0  0  0
  1  5  1  0
  1 11  1  0
  2  1  2  0
  3  2  1  0
  3  4  1  0
  4  6  1  0
  4  5  2  0
  6  7  1  0
  8  7  1  0
  9  8  1  0
  9 10  1  0
 10  6  1  0
 11 13  1  0
 12 17  2  0
 13 12  1  0
 13 14  2  0
 14 15  1  0
 15 16  2  0
 17 16  1  0
  2 18  1  0
  7 19  1  0
  7 20  1  0
  8 21  1  0
  8 22  1  0
  9 23  1  0
  9 24  1  0
 10 25  1  0
 10 26  1  0
 12 27  1  0
 14 28  1  0
 16 29  1  0
M  ISO  8  18  14  19  13  20  13  21  13  22  13  23  13  24  13  25  13
M  ISO  4  26  13  27  14  28  14  29  14
M  END
>  <minimizedAffinity>  (1) 
-4.99316835

>  <minimizedRMSD>  (1) 
0.738798022

$$$$
