
     RDKit          3D

 23 25  0  0  0  0  0  0  0  0999 V2000
   37.7410   31.7050   40.1950 C   0  0  0  0  0  0  0  0  0  0  0  0
   38.4550   31.0610   39.1500 C   0  0  0  0  0  0  0  0  0  0  0  0
   39.7110   32.4020   38.7750 S   0  0  0  0  0  0  0  0  0  0  0  0
   39.0100   33.5290   40.0930 C   0  0  0  0  0  0  0  0  0  0  0  0
   38.1630   32.9010   40.5080 N   0  0  0  0  0  0  0  0  0  0  0  0
   39.6640   34.8750   40.2810 C   0  0  0  0  0  0  0  0  0  0  0  0
   40.9870   35.0830   40.7520 C   0  0  0  0  0  0  0  0  0  0  0  0
   41.1160   36.8820   40.7340 S   0  0  0  0  0  0  0  0  0  0  0  0
   39.3580   37.0850   40.0890 C   0  0  0  0  0  0  0  0  0  0  0  0
   38.8950   35.8760   39.9650 N   0  0  0  0  0  0  0  0  0  0  0  0
   36.3760   30.7500   40.9080 S   0  0  0  0  0  0  0  0  0  0  0  0
   36.3910   28.1100   41.8950 C   0  0  0  0  0  0  0  0  0  0  0  0
   37.0110   29.3830   41.8760 C   0  0  0  0  0  0  0  0  0  0  0  0
   38.1730   29.5320   42.6690 C   0  0  0  0  0  0  0  0  0  0  0  0
   38.6250   28.4730   43.3890 N   0  0  0  0  0  0  0  0  0  0  0  0
   37.9740   27.2800   43.3550 C   0  0  0  0  0  0  0  0  0  0  0  0
   36.8660   27.0860   42.6190 N   0  0  0  0  0  0  0  0  0  0  0  0
   38.3133   30.0695   38.6953 H   0  0  0  0  0  0  0  0  0  0  0  0
   41.7397   34.3386   41.0510 H   0  0  0  0  0  0  0  0  0  0  0  0
   38.8343   38.0260   39.8649 H   0  0  0  0  0  0  0  0  0  0  0  0
   35.4841   27.9550   41.2922 H   0  0  0  0  0  0  0  0  0  0  0  0
   38.7043   30.4946   42.7020 H   0  0  0  0  0  0  0  0  0  0  0  0
   38.3680   26.4436   43.9510 H   0  0  0  0  0  0  0  0  0  0  0  0
  1  5  1  0
  1 11  1  0
  2  1  2  0
  3  2  1  0
  3  4  1  0
  4  6  1  0
  4  5  2  0
  6  7  2  0
  8  7  1  0
  9  8  1  0
 10  9  2  0
 10  6  1  0
 11 13  1  0
 12 17  2  0
 13 12  1  0
 13 14  2  0
 14 15  1  0
 16 15  2  0
 17 16  1  0
  2 18  1  0
  7 19  1  0
  9 20  1  0
 12 21  1  0
 14 22  1  0
 16 23  1  0
M  ISO  6  18  14  19  14  20  14  21  14  22  14  23  14
M  END
>  <minimizedAffinity>  (1) 
-4.78129101

>  <minimizedRMSD>  (1) 
0.233770967

$$$$
