
     RDKit          3D

 23 24  0  0  0  0  0  0  0  0999 V2000
   36.3650   30.7930   40.8130 S   0  0  0  0  0  0  0  0  0  0  0  0
   36.4390   28.1410   41.7540 C   0  0  0  0  0  0  0  0  0  0  0  0
   37.0020   29.4410   41.7740 C   0  0  0  0  0  0  0  0  0  0  0  0
   38.1090   29.6310   42.6040 C   0  0  0  0  0  0  0  0  0  0  0  0
   38.5970   28.5880   43.3450 N   0  0  0  0  0  0  0  0  0  0  0  0
   38.0080   27.3630   43.2780 C   0  0  0  0  0  0  0  0  0  0  0  0
   36.9540   27.1510   42.4980 N   0  0  0  0  0  0  0  0  0  0  0  0
   37.6930   31.8900   40.2690 C   0  0  0  0  0  0  0  0  0  0  0  0
   38.7150   31.2680   39.4990 C   0  0  0  0  0  0  0  0  0  0  0  0
   39.8300   32.7430   39.1750 S   0  0  0  0  0  0  0  0  0  0  0  0
   38.6710   33.8850   40.1550 C   0  0  0  0  0  0  0  0  0  0  0  0
   37.8480   33.1730   40.4840 N   0  0  0  0  0  0  0  0  0  0  0  0
   39.0380   35.3130   40.2770 C   0  0  0  0  0  0  0  0  0  0  0  0
   40.4670   35.4300   39.8390 C   0  0  0  0  0  0  0  0  0  0  0  0
   35.5646   27.9402   41.1175 H   0  0  0  0  0  0  0  0  0  0  0  0
   38.5891   30.6190   42.6625 H   0  0  0  0  0  0  0  0  0  0  0  0
   38.4113   26.5350   43.8795 H   0  0  0  0  0  0  0  0  0  0  0  0
   38.8216   30.2198   39.1831 H   0  0  0  0  0  0  0  0  0  0  0  0
   38.3923   35.9267   39.6317 H   0  0  0  0  0  0  0  0  0  0  0  0
   38.9110   35.6670   41.3107 H   0  0  0  0  0  0  0  0  0  0  0  0
   41.1185   35.4833   40.7237 H   0  0  0  0  0  0  0  0  0  0  0  0
   40.7388   34.5511   39.2360 H   0  0  0  0  0  0  0  0  0  0  0  0
   40.5922   36.3414   39.2360 H   0  0  0  0  0  0  0  0  0  0  0  0
  1  3  1  0
  2  3  2  0
  2  7  1  0
  3  4  1  0
  4  5  2  0
  6  5  1  0
  7  6  2  0
  8 12  1  0
  8  1  1  0
  9  8  2  0
 10  9  1  0
 10 11  1  0
 11 13  1  0
 11 12  2  0
 14 13  1  0
  2 15  1  0
  4 16  1  0
  6 17  1  0
  9 18  1  0
 13 19  1  0
 13 20  1  0
 14 21  1  0
 14 22  1  0
 14 23  1  0
M  ISO  8  15  14  16  14  17  14  18  14  19   8  20   8  21   8  22   8
M  ISO  1  23   8
M  END
>  <minimizedAffinity>  (1) 
-4.23078251

>  <minimizedRMSD>  (1) 
0.562846959

$$$$
