
     RDKit          3D

 18 19  0  0  0  0  0  0  0  0999 V2000
   36.4230   28.2080   41.7460 C   0  0  0  0  0  0  0  0  0  0  0  0
   37.0340   29.4730   41.7770 C   0  0  0  0  0  0  0  0  0  0  0  0
   38.1400   29.6040   42.6190 C   0  0  0  0  0  0  0  0  0  0  0  0
   38.5610   28.5390   43.3470 N   0  0  0  0  0  0  0  0  0  0  0  0
   37.9270   27.3380   43.2750 C   0  0  0  0  0  0  0  0  0  0  0  0
   36.8710   27.1760   42.4840 N   0  0  0  0  0  0  0  0  0  0  0  0
   36.4510   30.8460   40.8140 S   0  0  0  0  0  0  0  0  0  0  0  0
   37.8180   31.9050   40.3080 C   0  0  0  0  0  0  0  0  0  0  0  0
   38.7340   31.3000   39.4130 C   0  0  0  0  0  0  0  0  0  0  0  0
   39.9500   32.6970   39.1530 S   0  0  0  0  0  0  0  0  0  0  0  0
   38.9490   33.8220   40.3280 C   0  0  0  0  0  0  0  0  0  0  0  0
   38.0900   33.1480   40.6440 N   0  0  0  0  0  0  0  0  0  0  0  0
   39.1640   35.1880   40.7550 O   0  0  0  0  0  0  0  0  0  0  0  0
   35.5485   28.0562   41.0962 H   0  0  0  0  0  0  0  0  0  0  0  0
   38.6678   30.5663   42.6919 H   0  0  0  0  0  0  0  0  0  0  0  0
   38.2915   26.4926   43.8770 H   0  0  0  0  0  0  0  0  0  0  0  0
   38.7310   30.2857   38.9872 H   0  0  0  0  0  0  0  0  0  0  0  0
   38.5280   35.6169   41.3808 H   0  0  0  0  0  0  0  0  0  0  0  0
  1  2  2  0
  1  6  1  0
  2  3  1  0
  3  4  2  0
  5  4  1  0
  6  5  2  0
  7  2  1  0
  8 12  1  0
  8  7  1  0
  9  8  2  0
 10  9  1  0
 10 11  1  0
 11 12  2  0
 11 13  1  0
  1 14  1  0
  3 15  1  0
  5 16  1  0
  9 17  1  0
 13 18  1  0
M  ISO  5  14  14  15  14  16  14  17  14  18   3
M  END
>  <minimizedAffinity>  (1) 
-3.9003582

>  <minimizedRMSD>  (1) 
0.14628014

$$$$
