
     RDKit          3D

 34 37  0  0  0  0  0  0  0  0999 V2000
   38.6130   31.6190   39.5940 C   0  0  0  0  0  0  0  0  0  0  0  0
   38.9640   30.5320   38.7590 C   0  0  0  0  0  0  0  0  0  0  0  0
   40.4710   31.1950   37.8910 S   0  0  0  0  0  0  0  0  0  0  0  0
   40.3040   32.8460   38.8680 C   0  0  0  0  0  0  0  0  0  0  0  0
   39.3930   32.6630   39.5040 N   0  0  0  0  0  0  0  0  0  0  0  0
   37.1580   31.3710   40.6300 S   0  0  0  0  0  0  0  0  0  0  0  0
   36.4530   28.8530   41.6230 C   0  0  0  0  0  0  0  0  0  0  0  0
   37.3530   29.9330   41.6500 C   0  0  0  0  0  0  0  0  0  0  0  0
   38.4340   29.8290   42.5350 C   0  0  0  0  0  0  0  0  0  0  0  0
   38.5590   28.7170   43.3050 N   0  0  0  0  0  0  0  0  0  0  0  0
   37.6600   27.7010   43.2400 C   0  0  0  0  0  0  0  0  0  0  0  0
   36.6150   27.7710   42.4040 N   0  0  0  0  0  0  0  0  0  0  0  0
   41.1420   34.0420   38.8050 O   0  0  0  0  0  0  0  0  0  0  0  0
   42.1190   34.0510   39.7910 C   0  0  0  0  0  0  0  0  0  0  0  0
   43.0760   33.0320   39.7360 C   0  0  0  0  0  0  0  0  0  0  0  0
   44.1010   32.9440   40.6730 C   0  0  0  0  0  0  0  0  0  0  0  0
   44.2040   33.8730   41.6980 C   0  0  0  0  0  0  0  0  0  0  0  0
   43.2570   34.8750   41.7480 C   0  0  0  0  0  0  0  0  0  0  0  0
   43.3000   35.8360   42.7600 C   0  0  0  0  0  0  0  0  0  0  0  0
   42.3270   36.8400   42.8030 C   0  0  0  0  0  0  0  0  0  0  0  0
   41.3020   36.9160   41.8560 C   0  0  0  0  0  0  0  0  0  0  0  0
   41.2890   35.9570   40.8760 C   0  0  0  0  0  0  0  0  0  0  0  0
   42.2410   34.9600   40.8200 C   0  0  0  0  0  0  0  0  0  0  0  0
   38.4749   29.5527   38.6512 H   0  0  0  0  0  0  0  0  0  0  0  0
   35.5901   28.8948   40.9421 H   0  0  0  0  0  0  0  0  0  0  0  0
   39.1741   30.6397   42.6056 H   0  0  0  0  0  0  0  0  0  0  0  0
   37.7906   26.8145   43.8780 H   0  0  0  0  0  0  0  0  0  0  0  0
   43.0168   32.2826   38.9330 H   0  0  0  0  0  0  0  0  0  0  0  0
   44.8369   32.1297   40.6002 H   0  0  0  0  0  0  0  0  0  0  0  0
   45.0108   33.8130   42.4433 H   0  0  0  0  0  0  0  0  0  0  0  0
   44.0950   35.8037   43.5196 H   0  0  0  0  0  0  0  0  0  0  0  0
   42.3698   37.5914   43.6053 H   0  0  0  0  0  0  0  0  0  0  0  0
   40.5405   37.7089   41.8950 H   0  0  0  0  0  0  0  0  0  0  0  0
   40.4972   35.9833   40.1129 H   0  0  0  0  0  0  0  0  0  0  0  0
  1  6  1  0
  2  1  2  0
  3  2  1  0
  3  4  1  0
  4  5  2  0
  5  1  1  0
  6  8  1  0
  7  8  2  0
  7 12  1  0
  8  9  1  0
  9 10  2  0
 11 10  1  0
 12 11  2  0
 13  4  1  0
 13 14  1  0
 14 23  1  0
 15 14  2  0
 15 16  1  0
 16 17  2  0
 17 18  1  0
 18 19  2  0
 19 20  1  0
 21 20  2  0
 22 21  1  0
 23 22  2  0
 23 18  1  0
  2 24  1  0
  7 25  1  0
  9 26  1  0
 11 27  1  0
 15 28  1  0
 16 29  1  0
 17 30  1  0
 19 31  1  0
 20 32  1  0
 21 33  1  0
 22 34  1  0
M  ISO  8  24  14  25  14  26  14  27  14  28  14  29  14  30  14  31  14
M  ISO  3  32  14  33  14  34  14
M  END
>  <minimizedAffinity>  (1) 
-5.72401714

>  <minimizedRMSD>  (1) 
2.24061346

$$$$
