
     RDKit          3D

 16 17  0  0  0  0  0  0  0  0999 V2000
   39.2870   32.1490   40.8950 C   0  0  0  0  0  0  0  0  0  0  0  0
   39.0580   30.9680   41.6210 C   0  0  0  0  0  0  0  0  0  0  0  0
   37.7720   30.4300   41.5840 C   0  0  0  0  0  0  0  0  0  0  0  0
   36.8100   31.0810   40.8470 N   0  0  0  0  0  0  0  0  0  0  0  0
   37.0790   32.2100   40.1690 C   0  0  0  0  0  0  0  0  0  0  0  0
   38.3090   32.7450   40.1890 N   0  0  0  0  0  0  0  0  0  0  0  0
   37.4080   29.2400   42.2740 N   0  0  0  0  0  0  0  0  0  0  0  0
   36.5870   28.2210   41.9830 C   0  0  0  0  0  0  0  0  0  0  0  0
   36.5770   27.3130   42.9750 N   0  0  0  0  0  0  0  0  0  0  0  0
   37.4220   27.7950   43.9050 C   0  0  0  0  0  0  0  0  0  0  0  0
   37.9280   28.9840   43.4630 N   0  0  0  0  0  0  0  0  0  0  0  0
   40.2913   32.5976   40.9041 H   0  0  0  0  0  0  0  0  0  0  0  0
   39.8623   30.4863   42.1965 H   0  0  0  0  0  0  0  0  0  0  0  0
   36.2818   32.7007   39.5914 H   0  0  0  0  0  0  0  0  0  0  0  0
   35.9999   28.1385   41.0565 H   0  0  0  0  0  0  0  0  0  0  0  0
   37.6649   27.3113   44.8626 H   0  0  0  0  0  0  0  0  0  0  0  0
  1  2  2  0
  3  2  1  0
  3  7  1  0
  4  3  2  0
  5  6  2  0
  5  4  1  0
  6  1  1  0
  7 11  1  0
  8  7  1  0
  8  9  2  0
  9 10  1  0
 11 10  2  0
  1 12  1  0
  2 13  1  0
  5 14  1  0
  8 15  1  0
 10 16  1  0
M  ISO  5  12  14  13  14  14  14  15  14  16  14
M  END
>  <minimizedAffinity>  (1) 
-3.68165183

>  <minimizedRMSD>  (1) 
3.62112713

$$$$
