
     RDKit          3D

 28 30  0  0  0  0  0  0  0  0999 V2000
   36.4800   30.5160   39.6300 C   0  0  0  0  0  0  0  0  0  0  0  0
   36.9610   30.1480   38.3660 C   0  0  0  0  0  0  0  0  0  0  0  0
   37.7150   31.7580   37.8030 S   0  0  0  0  0  0  0  0  0  0  0  0
   37.2130   32.6180   39.4310 C   0  0  0  0  0  0  0  0  0  0  0  0
   36.7050   31.7610   39.9590 N   0  0  0  0  0  0  0  0  0  0  0  0
   35.6460   29.2150   40.5630 S   0  0  0  0  0  0  0  0  0  0  0  0
   36.9080   27.1020   41.8980 C   0  0  0  0  0  0  0  0  0  0  0  0
   36.7440   28.4870   41.7470 C   0  0  0  0  0  0  0  0  0  0  0  0
   37.5080   29.2870   42.5990 C   0  0  0  0  0  0  0  0  0  0  0  0
   38.3480   28.7090   43.5030 N   0  0  0  0  0  0  0  0  0  0  0  0
   38.4590   27.3520   43.5960 C   0  0  0  0  0  0  0  0  0  0  0  0
   37.7440   26.5620   42.8000 N   0  0  0  0  0  0  0  0  0  0  0  0
   37.4210   33.9700   39.8640 O   0  0  0  0  0  0  0  0  0  0  0  0
   38.7680   34.3290   40.0690 C   0  0  0  0  0  0  0  0  0  0  0  0
   38.9790   35.7080   40.0310 C   0  0  0  0  0  0  0  0  0  0  0  0
   40.2510   36.2270   40.2140 C   0  0  0  0  0  0  0  0  0  0  0  0
   41.3020   35.3350   40.4370 C   0  0  0  0  0  0  0  0  0  0  0  0
   41.0860   33.9700   40.4740 C   0  0  0  0  0  0  0  0  0  0  0  0
   39.8280   33.4690   40.2910 C   0  0  0  0  0  0  0  0  0  0  0  0
   36.9083   29.1783   37.8493 H   0  0  0  0  0  0  0  0  0  0  0  0
   36.3270   26.4294   41.2499 H   0  0  0  0  0  0  0  0  0  0  0  0
   37.4319   30.3828   42.5405 H   0  0  0  0  0  0  0  0  0  0  0  0
   39.1440   26.9089   44.3338 H   0  0  0  0  0  0  0  0  0  0  0  0
   38.1313   36.3866   39.8549 H   0  0  0  0  0  0  0  0  0  0  0  0
   40.4279   37.3123   40.1844 H   0  0  0  0  0  0  0  0  0  0  0  0
   42.3196   35.7253   40.5858 H   0  0  0  0  0  0  0  0  0  0  0  0
   41.9288   33.2857   40.6512 H   0  0  0  0  0  0  0  0  0  0  0  0
   39.6585   32.3825   40.3202 H   0  0  0  0  0  0  0  0  0  0  0  0
  1  5  1  0
  1  6  1  0
  2  1  2  0
  3  2  1  0
  3  4  1  0
  4 13  1  0
  4  5  2  0
  6  8  1  0
  7 12  2  0
  8  7  1  0
  8  9  2  0
  9 10  1  0
 10 11  2  0
 12 11  1  0
 13 14  1  0
 14 19  1  0
 15 14  2  0
 15 16  1  0
 16 17  2  0
 17 18  1  0
 19 18  2  0
  2 20  1  0
  7 21  1  0
  9 22  1  0
 11 23  1  0
 15 24  1  0
 16 25  1  0
 17 26  1  0
 18 27  1  0
 19 28  1  0
M  ISO  8  20  14  21  14  22  14  23  14  24  14  25  14  26  14  27  14
M  ISO  1  28  14
M  END
>  <minimizedAffinity>  (1) 
-5.36473894

>  <minimizedRMSD>  (1) 
2.1018219

$$$$
