
     RDKit          3D

 34 36  0  0  0  0  0  0  0  0999 V2000
   36.3890   30.4030   39.5390 C   0  0  0  0  0  0  0  0  0  0  0  0
   36.6750   30.0050   38.2270 C   0  0  0  0  0  0  0  0  0  0  0  0
   37.5010   31.5610   37.5800 S   0  0  0  0  0  0  0  0  0  0  0  0
   37.2720   32.4210   39.2610 C   0  0  0  0  0  0  0  0  0  0  0  0
   36.7570   31.6150   39.8550 N   0  0  0  0  0  0  0  0  0  0  0  0
   35.5570   29.1640   40.5680 S   0  0  0  0  0  0  0  0  0  0  0  0
   36.8750   27.0830   41.9000 C   0  0  0  0  0  0  0  0  0  0  0  0
   36.6910   28.4660   41.7500 C   0  0  0  0  0  0  0  0  0  0  0  0
   37.4460   29.2860   42.5810 C   0  0  0  0  0  0  0  0  0  0  0  0
   38.3110   28.7350   43.4820 N   0  0  0  0  0  0  0  0  0  0  0  0
   38.4450   27.3870   43.5810 C   0  0  0  0  0  0  0  0  0  0  0  0
   37.7410   26.5710   42.8040 N   0  0  0  0  0  0  0  0  0  0  0  0
   37.6420   33.7390   39.6950 O   0  0  0  0  0  0  0  0  0  0  0  0
   38.8190   33.9060   40.4620 C   0  0  0  0  0  0  0  0  0  0  0  0
   40.0220   33.3120   39.7680 C   0  0  0  0  0  0  0  0  0  0  0  0
   41.2580   33.7420   40.5650 C   0  0  0  0  0  0  0  0  0  0  0  0
   41.5030   35.1910   40.1680 C   0  0  0  0  0  0  0  0  0  0  0  0
   40.1550   35.8680   39.8760 C   0  0  0  0  0  0  0  0  0  0  0  0
   39.0980   35.3280   40.8090 C   0  0  0  0  0  0  0  0  0  0  0  0
   36.4727   29.0504   37.7193 H   0  0  0  0  0  0  0  0  0  0  0  0
   36.2982   26.3954   41.2640 H   0  0  0  0  0  0  0  0  0  0  0  0
   37.3463   30.3793   42.5124 H   0  0  0  0  0  0  0  0  0  0  0  0
   39.1467   26.9647   44.3153 H   0  0  0  0  0  0  0  0  0  0  0  0
   38.6336   33.3646   41.4014 H   0  0  0  0  0  0  0  0  0  0  0  0
   39.9455   32.2148   39.7527 H   0  0  0  0  0  0  0  0  0  0  0  0
   40.0859   33.6609   38.7268 H   0  0  0  0  0  0  0  0  0  0  0  0
   41.0666   33.6649   41.6455 H   0  0  0  0  0  0  0  0  0  0  0  0
   42.1281   33.1039   40.3513 H   0  0  0  0  0  0  0  0  0  0  0  0
   42.0090   35.7176   40.9906 H   0  0  0  0  0  0  0  0  0  0  0  0
   42.1374   35.2267   39.2701 H   0  0  0  0  0  0  0  0  0  0  0  0
   40.2522   36.9537   40.0237 H   0  0  0  0  0  0  0  0  0  0  0  0
   39.8620   35.6598   38.8364 H   0  0  0  0  0  0  0  0  0  0  0  0
   38.1769   35.9200   40.7036 H   0  0  0  0  0  0  0  0  0  0  0  0
   39.4541   35.3921   41.8478 H   0  0  0  0  0  0  0  0  0  0  0  0
  1  5  1  0
  1  6  1  0
  2  1  2  0
  3  2  1  0
  3  4  1  0
  4 13  1  0
  4  5  2  0
  6  8  1  0
  7 12  2  0
  8  7  1  0
  8  9  2  0
  9 10  1  0
 10 11  2  0
 12 11  1  0
 13 14  1  0
 14 19  1  0
 15 14  1  0
 15 16  1  0
 17 16  1  0
 18 17  1  0
 18 19  1  0
  2 20  1  0
  7 21  1  0
  9 22  1  0
 11 23  1  0
 14 24  1  0
 15 25  1  0
 15 26  1  0
 16 27  1  0
 16 28  1  0
 17 29  1  0
 17 30  1  0
 18 31  1  0
 18 32  1  0
 19 33  1  0
 19 34  1  0
M  ISO  8  20  14  21  14  22  14  23  14  24  13  25  13  26  13  27  13
M  ISO  7  28  13  29  13  30  13  31  13  32  13  33  13  34  13
M  END
>  <minimizedAffinity>  (1) 
-5.19130325

>  <minimizedRMSD>  (1) 
2.24183631

$$$$
