
     RDKit          3D

 25 27  0  0  0  0  0  0  0  0999 V2000
   36.5030   30.5490   39.6420 C   0  0  0  0  0  0  0  0  0  0  0  0
   37.0230   30.1340   38.4090 C   0  0  0  0  0  0  0  0  0  0  0  0
   37.7560   31.7220   37.7580 S   0  0  0  0  0  0  0  0  0  0  0  0
   37.1910   32.6460   39.3380 C   0  0  0  0  0  0  0  0  0  0  0  0
   36.6920   31.8140   39.9050 N   0  0  0  0  0  0  0  0  0  0  0  0
   35.6930   29.2530   40.5920 S   0  0  0  0  0  0  0  0  0  0  0  0
   36.9230   27.1340   41.9400 C   0  0  0  0  0  0  0  0  0  0  0  0
   36.8100   28.5120   41.7470 C   0  0  0  0  0  0  0  0  0  0  0  0
   37.6460   29.2960   42.5370 C   0  0  0  0  0  0  0  0  0  0  0  0
   38.4940   28.7080   43.4150 N   0  0  0  0  0  0  0  0  0  0  0  0
   38.5620   27.3660   43.5590 C   0  0  0  0  0  0  0  0  0  0  0  0
   37.7750   26.5860   42.8210 N   0  0  0  0  0  0  0  0  0  0  0  0
   37.3260   34.0190   39.7600 O   0  0  0  0  0  0  0  0  0  0  0  0
   38.5950   34.4340   40.0100 C   0  0  0  0  0  0  0  0  0  0  0  0
   39.0720   35.7500   40.0600 C   0  0  0  0  0  0  0  0  0  0  0  0
   40.3990   35.9280   40.3310 C   0  0  0  0  0  0  0  0  0  0  0  0
   41.2560   34.8420   40.5530 C   0  0  0  0  0  0  0  0  0  0  0  0
   40.0640   33.3900   40.3580 S   0  0  0  0  0  0  0  0  0  0  0  0
   37.0042   29.1360   37.9468 H   0  0  0  0  0  0  0  0  0  0  0  0
   36.2845   26.4665   41.3427 H   0  0  0  0  0  0  0  0  0  0  0  0
   37.6182   30.3921   42.4485 H   0  0  0  0  0  0  0  0  0  0  0  0
   39.2627   26.9212   44.2809 H   0  0  0  0  0  0  0  0  0  0  0  0
   38.4040   36.6068   39.8877 H   0  0  0  0  0  0  0  0  0  0  0  0
   40.8049   36.9494   40.3761 H   0  0  0  0  0  0  0  0  0  0  0  0
   42.3324   34.8365   40.7797 H   0  0  0  0  0  0  0  0  0  0  0  0
  1  5  1  0
  1  6  1  0
  2  1  2  0
  3  2  1  0
  3  4  1  0
  4 13  1  0
  4  5  2  0
  6  8  1  0
  7 12  2  0
  8  7  1  0
  8  9  2  0
  9 10  1  0
 10 11  2  0
 12 11  1  0
 13 14  1  0
 14 15  2  0
 14 18  1  0
 15 16  1  0
 16 17  2  0
 18 17  1  0
  2 19  1  0
  7 20  1  0
  9 21  1  0
 11 22  1  0
 15 23  1  0
 16 24  1  0
 17 25  1  0
M  ISO  7  19  14  20  14  21  14  22  14  23  14  24  14  25  14
M  END
>  <minimizedAffinity>  (1) 
-5.03982592

>  <minimizedRMSD>  (1) 
1.96735632

$$$$
