
     RDKit          3D

 31 33  0  0  0  0  0  0  0  0999 V2000
   36.4440   30.4580   39.5720 C   0  0  0  0  0  0  0  0  0  0  0  0
   36.9270   29.9730   38.3410 C   0  0  0  0  0  0  0  0  0  0  0  0
   37.6700   31.5380   37.6120 S   0  0  0  0  0  0  0  0  0  0  0  0
   37.1530   32.5190   39.1580 C   0  0  0  0  0  0  0  0  0  0  0  0
   36.6520   31.7300   39.7850 N   0  0  0  0  0  0  0  0  0  0  0  0
   35.6310   29.2410   40.6250 S   0  0  0  0  0  0  0  0  0  0  0  0
   36.9320   27.1310   41.9500 C   0  0  0  0  0  0  0  0  0  0  0  0
   36.8050   28.5260   41.7640 C   0  0  0  0  0  0  0  0  0  0  0  0
   37.6570   29.3420   42.5290 C   0  0  0  0  0  0  0  0  0  0  0  0
   38.5320   28.7600   43.3820 N   0  0  0  0  0  0  0  0  0  0  0  0
   38.6130   27.4110   43.5210 C   0  0  0  0  0  0  0  0  0  0  0  0
   37.8230   26.6110   42.8140 N   0  0  0  0  0  0  0  0  0  0  0  0
   37.3440   33.9270   39.4740 O   0  0  0  0  0  0  0  0  0  0  0  0
   38.5470   34.1040   40.2380 C   0  0  0  0  0  0  0  0  0  0  0  0
   39.0190   35.5180   40.2740 C   0  0  0  0  0  0  0  0  0  0  0  0
   40.4840   35.3810   40.6380 C   0  0  0  0  0  0  0  0  0  0  0  0
   40.8880   33.9570   40.2790 C   0  0  0  0  0  0  0  0  0  0  0  0
   39.6850   33.3700   39.5610 C   0  0  0  0  0  0  0  0  0  0  0  0
   36.8818   28.9572   37.9214 H   0  0  0  0  0  0  0  0  0  0  0  0
   36.2858   26.4526   41.3736 H   0  0  0  0  0  0  0  0  0  0  0  0
   37.6131   30.4371   42.4356 H   0  0  0  0  0  0  0  0  0  0  0  0
   39.3388   26.9778   44.2249 H   0  0  0  0  0  0  0  0  0  0  0  0
   38.3031   33.7441   41.2484 H   0  0  0  0  0  0  0  0  0  0  0  0
   38.8992   35.9996   39.2923 H   0  0  0  0  0  0  0  0  0  0  0  0
   38.4544   36.1449   40.9798 H   0  0  0  0  0  0  0  0  0  0  0  0
   41.0865   36.1024   40.0665 H   0  0  0  0  0  0  0  0  0  0  0  0
   40.6488   35.5836   41.7065 H   0  0  0  0  0  0  0  0  0  0  0  0
   41.7675   33.9606   39.6183 H   0  0  0  0  0  0  0  0  0  0  0  0
   41.1617   33.3709   41.1687 H   0  0  0  0  0  0  0  0  0  0  0  0
   39.6132   32.2836   39.7179 H   0  0  0  0  0  0  0  0  0  0  0  0
   39.7107   33.4897   38.4678 H   0  0  0  0  0  0  0  0  0  0  0  0
  1  5  1  0
  1  6  1  0
  2  1  2  0
  3  2  1  0
  3  4  1  0
  4 13  1  0
  4  5  2  0
  6  8  1  0
  7 12  2  0
  8  7  1  0
  8  9  2  0
  9 10  1  0
 10 11  2  0
 12 11  1  0
 13 14  1  0
 14 15  1  0
 15 16  1  0
 17 16  1  0
 18 14  1  0
 18 17  1  0
  2 19  1  0
  7 20  1  0
  9 21  1  0
 11 22  1  0
 14 23  1  0
 15 24  1  0
 15 25  1  0
 16 26  1  0
 16 27  1  0
 17 28  1  0
 17 29  1  0
 18 30  1  0
 18 31  1  0
M  ISO  8  19  14  20  14  21  14  22  14  23  13  24  13  25  13  26  13
M  ISO  5  27  13  28  13  29  13  30  13  31  13
M  END
>  <minimizedAffinity>  (1) 
-4.95060253

>  <minimizedRMSD>  (1) 
2.01865959

$$$$
