
     RDKit          3D

 20 21  0  0  0  0  0  0  0  0999 V2000
   36.4150   30.7570   40.8110 S   0  0  0  0  0  0  0  0  0  0  0  0
   36.4170   28.1560   41.8760 C   0  0  0  0  0  0  0  0  0  0  0  0
   37.0310   29.4240   41.8240 C   0  0  0  0  0  0  0  0  0  0  0  0
   38.1710   29.5870   42.6240 C   0  0  0  0  0  0  0  0  0  0  0  0
   38.6060   28.5520   43.3770 N   0  0  0  0  0  0  0  0  0  0  0  0
   37.9720   27.3570   43.3850 C   0  0  0  0  0  0  0  0  0  0  0  0
   36.8930   27.1650   42.6430 N   0  0  0  0  0  0  0  0  0  0  0  0
   37.7720   31.8510   40.3240 C   0  0  0  0  0  0  0  0  0  0  0  0
   38.6740   31.3280   39.3840 C   0  0  0  0  0  0  0  0  0  0  0  0
   39.8560   32.7590   39.1960 S   0  0  0  0  0  0  0  0  0  0  0  0
   38.8640   33.7950   40.4620 C   0  0  0  0  0  0  0  0  0  0  0  0
   38.0440   33.0660   40.7200 N   0  0  0  0  0  0  0  0  0  0  0  0
   39.0540   35.1350   40.9800 O   0  0  0  0  0  0  0  0  0  0  0  0
   39.4620   36.0490   40.0310 C   0  0  0  0  0  0  0  0  0  0  0  0
   39.4940   37.2930   40.0190 O   0  0  0  0  0  0  0  0  0  0  0  0
   35.5187   27.9740   41.2678 H   0  0  0  0  0  0  0  0  0  0  0  0
   38.7062   30.5479   42.6387 H   0  0  0  0  0  0  0  0  0  0  0  0
   38.3559   26.5392   44.0126 H   0  0  0  0  0  0  0  0  0  0  0  0
   38.6817   30.3438   38.8928 H   0  0  0  0  0  0  0  0  0  0  0  0
   39.8314   35.5881   39.1031 H   0  0  0  0  0  0  0  0  0  0  0  0
  1  3  1  0
  2  7  2  0
  3  2  1  0
  3  4  2  0
  4  5  1  0
  5  6  2  0
  7  6  1  0
  8 12  1  0
  8  1  1  0
  9  8  2  0
 10  9  1  0
 10 11  1  0
 11 12  2  0
 11 13  1  0
 14 13  1  0
 15 14  2  0
  2 16  1  0
  4 17  1  0
  6 18  1  0
  9 19  1  0
 14 20  1  0
M  ISO  5  16  14  17  14  18  14  19  14  20   6
M  END
>  <minimizedAffinity>  (1) 
-4.28690052

>  <minimizedRMSD>  (1) 
0.907356441

$$$$
