
     RDKit          3D

 38 42  0  0  1  0  0  0  0  0999 V2000
   40.2910   35.5780   40.2850 C   0  0  1  0  0  0  0  0  0  0  0  0
   40.4310   37.0880   40.2220 C   0  0  0  0  0  0  0  0  0  0  0  0
   40.5780   36.3300   41.5480 C   0  0  2  0  0  0  0  0  0  0  0  0
   41.9420   36.2170   42.0350 N   0  0  0  0  0  0  0  0  0  0  0  0
   42.4280   36.9780   43.0380 C   0  0  0  0  0  0  0  0  0  0  0  0
   43.7140   36.6610   43.2790 N   0  0  0  0  0  0  0  0  0  0  0  0
   44.0840   35.6800   42.4280 C   0  0  0  0  0  0  0  0  0  0  0  0
   45.2500   34.9500   42.1880 C   0  0  0  0  0  0  0  0  0  0  0  0
   45.2310   34.0180   41.2160 N   0  0  0  0  0  0  0  0  0  0  0  0
   44.1400   33.7690   40.4740 C   0  0  0  0  0  0  0  0  0  0  0  0
   43.0090   34.4860   40.7160 N   0  0  0  0  0  0  0  0  0  0  0  0
   42.9720   35.4290   41.6740 C   0  0  0  0  0  0  0  0  0  0  0  0
   46.4020   35.2310   42.9900 N   0  0  0  0  0  0  0  0  0  0  0  0
   38.9390   35.1220   40.1360 O   0  0  0  0  0  0  0  0  0  0  0  0
   37.7060   31.7620   40.1960 C   0  0  0  0  0  0  0  0  0  0  0  0
   38.6400   31.0880   39.3780 C   0  0  0  0  0  0  0  0  0  0  0  0
   39.7380   32.5090   38.9510 S   0  0  0  0  0  0  0  0  0  0  0  0
   38.6890   33.7440   39.9850 C   0  0  0  0  0  0  0  0  0  0  0  0
   37.9100   33.0460   40.3640 N   0  0  0  0  0  0  0  0  0  0  0  0
   36.3530   30.7570   40.9000 S   0  0  0  0  0  0  0  0  0  0  0  0
   36.4550   28.1040   41.7770 C   0  0  0  0  0  0  0  0  0  0  0  0
   37.0150   29.4080   41.8270 C   0  0  0  0  0  0  0  0  0  0  0  0
   38.1220   29.5820   42.6460 C   0  0  0  0  0  0  0  0  0  0  0  0
   38.6190   28.5270   43.3540 N   0  0  0  0  0  0  0  0  0  0  0  0
   38.0410   27.2940   43.2710 C   0  0  0  0  0  0  0  0  0  0  0  0
   36.9850   27.0810   42.5030 N   0  0  0  0  0  0  0  0  0  0  0  0
   40.7675   34.7248   39.7800 H   0  0  0  0  0  0  0  0  0  0  0  0
   41.3112   37.5427   39.7440 H   0  0  0  0  0  0  0  0  0  0  0  0
   39.8097   37.9194   39.8578 H   0  0  0  0  0  0  0  0  0  0  0  0
   40.1070   36.3921   42.5401 H   0  0  0  0  0  0  0  0  0  0  0  0
   41.8563   37.7458   43.5799 H   0  0  0  0  0  0  0  0  0  0  0  0
   44.1600   33.0011   39.6866 H   0  0  0  0  0  0  0  0  0  0  0  0
   47.2764   34.7088   42.8362 H   0  0  0  0  0  0  0  0  0  0  0  0
   46.3565   35.9554   43.7208 H   0  0  0  0  0  0  0  0  0  0  0  0
   38.6963   30.0298   39.0829 H   0  0  0  0  0  0  0  0  0  0  0  0
   35.5775   27.9169   41.1406 H   0  0  0  0  0  0  0  0  0  0  0  0
   38.5985   30.5703   42.7242 H   0  0  0  0  0  0  0  0  0  0  0  0
   38.4610   26.4610   43.8538 H   0  0  0  0  0  0  0  0  0  0  0  0
  1  3  1  0
  2  1  1  0
  2  3  1  0
  3  4  1  0
  4  5  1  0
  5  6  2  0
  7  6  1  0
  8  7  2  0
  8 13  1  0
  9  8  1  0
 10 11  1  0
 10  9  2  0
 11 12  2  0
 12  4  1  0
 12  7  1  0
 14  1  1  0
 15 19  1  0
 15 20  1  0
 16 15  2  0
 17 16  1  0
 17 18  1  0
 18 14  1  0
 18 19  2  0
 20 22  1  0
 21 22  2  0
 21 26  1  0
 22 23  1  0
 23 24  2  0
 25 24  1  0
 26 25  2  0
  1 27  1  6
  2 28  1  0
  2 29  1  0
  3 30  1  1
  5 31  1  0
 10 32  1  0
 13 33  1  0
 13 34  1  0
 16 35  1  0
 21 36  1  0
 23 37  1  0
 25 38  1  0
M  ISO  8  27  13  28  13  29  13  30  13  31  14  32  14  35  14  36  14
M  ISO  2  37  14  38  14
M  END
>  <minimizedAffinity>  (1) 
-6.77355385

>  <minimizedRMSD>  (1) 
2.7810812

$$$$
