
     RDKit          3D

 39 43  0  0  1  0  0  0  0  0999 V2000
   38.9020   35.1540   40.0500 O   0  0  0  0  0  0  0  0  0  0  0  0
   40.2450   35.6250   40.2100 C   0  0  1  0  0  0  0  0  0  0  0  0
   40.3640   37.1380   40.1660 C   0  0  0  0  0  0  0  0  0  0  0  0
   40.5170   36.3660   41.4820 C   0  0  2  0  0  0  0  0  0  0  0  0
   41.9010   36.2710   42.0700 C   0  0  0  0  0  0  0  0  0  0  0  0
   42.5150   37.0490   43.0510 C   0  0  0  0  0  0  0  0  0  0  0  0
   43.7620   36.5240   43.1970 N   0  0  0  0  0  0  0  0  0  0  0  0
   43.9150   35.4890   42.3620 C   0  0  0  0  0  0  0  0  0  0  0  0
   44.9740   34.6310   42.1250 C   0  0  0  0  0  0  0  0  0  0  0  0
   44.9110   33.6090   41.1960 C   0  0  0  0  0  0  0  0  0  0  0  0
   43.7520   33.4070   40.4570 C   0  0  0  0  0  0  0  0  0  0  0  0
   42.7010   34.2690   40.7020 C   0  0  0  0  0  0  0  0  0  0  0  0
   42.7590   35.2940   41.6300 C   0  0  0  0  0  0  0  0  0  0  0  0
   37.7040   31.7860   40.2040 C   0  0  0  0  0  0  0  0  0  0  0  0
   38.6430   31.0950   39.4090 C   0  0  0  0  0  0  0  0  0  0  0  0
   39.7330   32.5100   38.9410 S   0  0  0  0  0  0  0  0  0  0  0  0
   38.6720   33.7680   39.9350 C   0  0  0  0  0  0  0  0  0  0  0  0
   37.9110   33.0600   40.3210 N   0  0  0  0  0  0  0  0  0  0  0  0
   36.3550   30.7900   40.9270 S   0  0  0  0  0  0  0  0  0  0  0  0
   36.4740   28.1230   41.7820 C   0  0  0  0  0  0  0  0  0  0  0  0
   37.0200   29.4290   41.8330 C   0  0  0  0  0  0  0  0  0  0  0  0
   38.1280   29.5860   42.6510 C   0  0  0  0  0  0  0  0  0  0  0  0
   38.6270   28.5270   43.3450 N   0  0  0  0  0  0  0  0  0  0  0  0
   38.0520   27.2920   43.2510 C   0  0  0  0  0  0  0  0  0  0  0  0
   36.9980   27.0970   42.4850 N   0  0  0  0  0  0  0  0  0  0  0  0
   40.7351   34.7842   39.6973 H   0  0  0  0  0  0  0  0  0  0  0  0
   41.2393   37.6109   39.6968 H   0  0  0  0  0  0  0  0  0  0  0  0
   39.7323   37.9652   39.8099 H   0  0  0  0  0  0  0  0  0  0  0  0
   40.0385   36.4070   42.4716 H   0  0  0  0  0  0  0  0  0  0  0  0
   42.0835   37.9044   43.5914 H   0  0  0  0  0  0  0  0  0  0  0  0
   44.4789   36.8703   43.8505 H   0  0  0  0  0  0  0  0  0  0  0  0
   45.9028   34.7673   42.6983 H   0  0  0  0  0  0  0  0  0  0  0  0
   45.7811   32.9539   41.0415 H   0  0  0  0  0  0  0  0  0  0  0  0
   43.6752   32.6002   39.7133 H   0  0  0  0  0  0  0  0  0  0  0  0
   41.7708   34.1340   40.1306 H   0  0  0  0  0  0  0  0  0  0  0  0
   38.7068   30.0288   39.1459 H   0  0  0  0  0  0  0  0  0  0  0  0
   35.5938   27.9389   41.1485 H   0  0  0  0  0  0  0  0  0  0  0  0
   38.6068   30.5724   42.7397 H   0  0  0  0  0  0  0  0  0  0  0  0
   38.4734   26.4509   43.8210 H   0  0  0  0  0  0  0  0  0  0  0  0
  1  2  1  0
  2  4  1  0
  3  2  1  0
  3  4  1  0
  4  5  1  0
  5  6  2  0
  6  7  1  0
  8  7  1  0
  9  8  2  0
 10  9  1  0
 11 12  1  0
 11 10  2  0
 12 13  2  0
 13  5  1  0
 13  8  1  0
 14 18  1  0
 14 19  1  0
 15 14  2  0
 16 15  1  0
 16 17  1  0
 17  1  1  0
 17 18  2  0
 19 21  1  0
 20 21  2  0
 20 25  1  0
 21 22  1  0
 22 23  2  0
 24 23  1  0
 25 24  2  0
  2 26  1  6
  3 27  1  0
  3 28  1  0
  4 29  1  1
  6 30  1  0
  7 31  1  0
  9 32  1  0
 10 33  1  0
 11 34  1  0
 12 35  1  0
 15 36  1  0
 20 37  1  0
 22 38  1  0
 24 39  1  0
M  ISO  8  26  13  27  13  28  13  29  13  30  14  31   9  32  14  33  14
M  ISO  6  34  14  35  14  36  14  37  14  38  14  39  14
M  END
>  <minimizedAffinity>  (1) 
-6.46091223

>  <minimizedRMSD>  (1) 
2.49333715

$$$$
