
     RDKit          3D

 35 38  0  0  1  0  0  0  0  0999 V2000
   37.6870   31.7280   40.1910 C   0  0  0  0  0  0  0  0  0  0  0  0
   38.5700   31.0320   39.3370 C   0  0  0  0  0  0  0  0  0  0  0  0
   39.6840   32.4250   38.8590 S   0  0  0  0  0  0  0  0  0  0  0  0
   38.7070   33.6870   39.9320 C   0  0  0  0  0  0  0  0  0  0  0  0
   37.9420   32.9910   40.3310 N   0  0  0  0  0  0  0  0  0  0  0  0
   36.3410   30.7550   40.9480 S   0  0  0  0  0  0  0  0  0  0  0  0
   36.4550   28.0850   41.7970 C   0  0  0  0  0  0  0  0  0  0  0  0
   37.0090   29.3950   41.8540 C   0  0  0  0  0  0  0  0  0  0  0  0
   38.1220   29.5580   42.6700 C   0  0  0  0  0  0  0  0  0  0  0  0
   38.6240   28.4980   43.3610 N   0  0  0  0  0  0  0  0  0  0  0  0
   38.0480   27.2610   43.2660 C   0  0  0  0  0  0  0  0  0  0  0  0
   36.9840   27.0600   42.4990 N   0  0  0  0  0  0  0  0  0  0  0  0
   38.9810   35.0640   40.0800 O   0  0  0  0  0  0  0  0  0  0  0  0
   40.3420   35.4800   40.2540 C   0  0  1  0  0  0  0  0  0  0  0  0
   40.5930   36.9300   39.8920 C   0  0  0  0  0  0  0  0  0  0  0  0
   40.5860   36.4670   41.3530 C   0  0  2  0  0  0  0  0  0  0  0  0
   41.8940   36.3020   42.0300 C   0  0  0  0  0  0  0  0  0  0  0  0
   42.3440   37.0570   43.0710 C   0  0  0  0  0  0  0  0  0  0  0  0
   43.5820   36.8550   43.6660 C   0  0  0  0  0  0  0  0  0  0  0  0
   44.4170   35.8530   43.2090 C   0  0  0  0  0  0  0  0  0  0  0  0
   44.0000   35.0620   42.1540 C   0  0  0  0  0  0  0  0  0  0  0  0
   42.7740   35.3010   41.6030 C   0  0  0  0  0  0  0  0  0  0  0  0
   38.5888   29.9722   39.0430 H   0  0  0  0  0  0  0  0  0  0  0  0
   35.5734   27.9030   41.1649 H   0  0  0  0  0  0  0  0  0  0  0  0
   38.5983   30.5456   42.7577 H   0  0  0  0  0  0  0  0  0  0  0  0
   38.4731   26.4203   43.8339 H   0  0  0  0  0  0  0  0  0  0  0  0
   40.7938   34.5147   39.9819 H   0  0  0  0  0  0  0  0  0  0  0  0
   41.5367   37.2244   39.4095 H   0  0  0  0  0  0  0  0  0  0  0  0
   40.0612   37.6966   39.3093 H   0  0  0  0  0  0  0  0  0  0  0  0
   40.0559   36.8099   42.2538 H   0  0  0  0  0  0  0  0  0  0  0  0
   41.6992   37.8606   43.4563 H   0  0  0  0  0  0  0  0  0  0  0  0
   43.8991   37.4941   44.5033 H   0  0  0  0  0  0  0  0  0  0  0  0
   45.3984   35.6872   43.6773 H   0  0  0  0  0  0  0  0  0  0  0  0
   44.6425   34.2574   41.7670 H   0  0  0  0  0  0  0  0  0  0  0  0
   42.4558   34.6627   40.7655 H   0  0  0  0  0  0  0  0  0  0  0  0
  1  5  1  0
  1  6  1  0
  2  1  2  0
  3  2  1  0
  3  4  1  0
  4 13  1  0
  4  5  2  0
  6  8  1  0
  7  8  2  0
  7 12  1  0
  8  9  1  0
  9 10  2  0
 11 10  1  0
 12 11  2  0
 13 14  1  0
 14 16  1  0
 15 14  1  0
 15 16  1  0
 16 17  1  0
 17 18  2  0
 18 19  1  0
 20 19  2  0
 21 20  1  0
 22 17  1  0
 22 21  2  0
  2 23  1  0
  7 24  1  0
  9 25  1  0
 11 26  1  0
 14 27  1  6
 15 28  1  0
 15 29  1  0
 16 30  1  1
 18 31  1  0
 19 32  1  0
 20 33  1  0
 21 34  1  0
 22 35  1  0
M  ISO  8  23  14  24  14  25  14  26  14  27  13  28  13  29  13  30  13
M  ISO  5  31  14  32  14  33  14  34  14  35  14
M  END
>  <minimizedAffinity>  (1) 
-6.35554457

>  <minimizedRMSD>  (1) 
1.88839006

$$$$
