
     RDKit          3D

 32 35  0  0  1  0  0  0  0  0999 V2000
   37.6910   31.7470   40.1920 C   0  0  0  0  0  0  0  0  0  0  0  0
   38.5810   31.0520   39.3460 C   0  0  0  0  0  0  0  0  0  0  0  0
   39.6920   32.4510   38.8760 S   0  0  0  0  0  0  0  0  0  0  0  0
   38.7030   33.7100   39.9410 C   0  0  0  0  0  0  0  0  0  0  0  0
   37.9300   33.0180   40.3410 N   0  0  0  0  0  0  0  0  0  0  0  0
   36.3420   30.7740   40.9440 S   0  0  0  0  0  0  0  0  0  0  0  0
   36.4530   28.1040   41.7900 C   0  0  0  0  0  0  0  0  0  0  0  0
   37.0070   29.4100   41.8450 C   0  0  0  0  0  0  0  0  0  0  0  0
   38.1260   29.5660   42.6620 C   0  0  0  0  0  0  0  0  0  0  0  0
   38.6240   28.5000   43.3510 N   0  0  0  0  0  0  0  0  0  0  0  0
   38.0420   27.2750   43.2520 C   0  0  0  0  0  0  0  0  0  0  0  0
   36.9840   27.0730   42.4940 N   0  0  0  0  0  0  0  0  0  0  0  0
   38.9750   35.0860   40.0850 O   0  0  0  0  0  0  0  0  0  0  0  0
   40.3350   35.5130   40.2380 C   0  0  1  0  0  0  0  0  0  0  0  0
   40.5340   37.0030   40.0380 C   0  0  0  0  0  0  0  0  0  0  0  0
   40.6060   36.3740   41.4320 C   0  0  2  0  0  0  0  0  0  0  0  0
   41.9130   36.2600   42.0480 N   0  0  0  0  0  0  0  0  0  0  0  0
   42.7830   35.3060   41.6720 C   0  0  0  0  0  0  0  0  0  0  0  0
   43.9400   35.4220   42.4120 C   0  0  0  0  0  0  0  0  0  0  0  0
   43.7580   36.4740   43.2550 N   0  0  0  0  0  0  0  0  0  0  0  0
   42.5140   36.9880   43.0310 C   0  0  0  0  0  0  0  0  0  0  0  0
   38.6059   29.9920   39.0533 H   0  0  0  0  0  0  0  0  0  0  0  0
   35.5697   27.9232   41.1598 H   0  0  0  0  0  0  0  0  0  0  0  0
   38.6079   30.5508   42.7509 H   0  0  0  0  0  0  0  0  0  0  0  0
   38.4650   26.4324   43.8187 H   0  0  0  0  0  0  0  0  0  0  0  0
   40.7961   34.6001   39.8329 H   0  0  0  0  0  0  0  0  0  0  0  0
   41.4469   37.3790   39.5529 H   0  0  0  0  0  0  0  0  0  0  0  0
   39.9574   37.8162   39.5729 H   0  0  0  0  0  0  0  0  0  0  0  0
   40.1017   36.5559   42.3925 H   0  0  0  0  0  0  0  0  0  0  0  0
   42.5996   34.5501   40.8942 H   0  0  0  0  0  0  0  0  0  0  0  0
   44.8356   34.7878   42.3358 H   0  0  0  0  0  0  0  0  0  0  0  0
   42.0703   37.8467   43.5562 H   0  0  0  0  0  0  0  0  0  0  0  0
  1  5  1  0
  1  6  1  0
  2  1  2  0
  3  2  1  0
  3  4  1  0
  4 13  1  0
  4  5  2  0
  6  8  1  0
  7  8  2  0
  7 12  1  0
  8  9  1  0
  9 10  2  0
 11 10  1  0
 12 11  2  0
 13 14  1  0
 14 16  1  0
 15 14  1  0
 15 16  1  0
 16 17  1  0
 17 21  1  0
 18 17  1  0
 18 19  2  0
 19 20  1  0
 21 20  2  0
  2 22  1  0
  7 23  1  0
  9 24  1  0
 11 25  1  0
 14 26  1  6
 15 27  1  0
 15 28  1  0
 16 29  1  1
 18 30  1  0
 19 31  1  0
 21 32  1  0
M  ISO  8  22  14  23  14  24  14  25  14  26  13  27  13  28  13  29  13
M  ISO  3  30  14  31  14  32  14
M  END
>  <minimizedAffinity>  (1) 
-5.79510212

>  <minimizedRMSD>  (1) 
1.72028327

$$$$
