
     RDKit          3D

 36 39  0  0  1  0  0  0  0  0999 V2000
   39.7440   32.0490   40.7070 O   0  0  0  0  0  0  0  0  0  0  0  0
   40.5980   31.7660   39.5940 C   0  0  1  0  0  0  0  0  0  0  0  0
   40.3310   32.6250   38.3760 C   0  0  0  0  0  0  0  0  0  0  0  0
   41.5620   32.8390   39.2070 C   0  0  1  0  0  0  0  0  0  0  0  0
   41.7250   33.9560   40.0830 N   0  0  0  0  0  0  0  0  0  0  0  0
   40.8630   34.9820   39.8170 C   0  0  0  0  0  0  0  0  0  0  0  0
   40.8930   36.1400   40.5790 C   0  0  0  0  0  0  0  0  0  0  0  0
   41.8020   36.2870   41.6320 C   0  0  0  0  0  0  0  0  0  0  0  0
   41.8800   37.4500   42.4470 N   0  0  0  0  0  0  0  0  0  0  0  0
   42.6160   35.2360   41.8320 N   0  0  0  0  0  0  0  0  0  0  0  0
   42.5760   34.1160   41.0850 C   0  0  0  0  0  0  0  0  0  0  0  0
   43.3460   33.1530   41.2930 O   0  0  0  0  0  0  0  0  0  0  0  0
   37.5950   29.5770   42.1610 C   0  0  0  0  0  0  0  0  0  0  0  0
   36.5240   29.5370   41.2420 C   0  0  0  0  0  0  0  0  0  0  0  0
   37.1200   30.8000   40.0340 S   0  0  0  0  0  0  0  0  0  0  0  0
   38.7250   31.1320   41.0390 C   0  0  0  0  0  0  0  0  0  0  0  0
   38.5640   30.4180   41.8780 N   0  0  0  0  0  0  0  0  0  0  0  0
   37.4910   28.4690   43.6080 S   0  0  0  0  0  0  0  0  0  0  0  0
   37.9120   25.9680   42.4020 C   0  0  0  0  0  0  0  0  0  0  0  0
   38.3770   26.9770   43.2920 C   0  0  0  0  0  0  0  0  0  0  0  0
   39.5900   26.7260   43.9170 C   0  0  0  0  0  0  0  0  0  0  0  0
   40.2630   25.5660   43.6620 N   0  0  0  0  0  0  0  0  0  0  0  0
   39.7600   24.6380   42.7970 C   0  0  0  0  0  0  0  0  0  0  0  0
   38.6050   24.8380   42.1790 N   0  0  0  0  0  0  0  0  0  0  0  0
   40.6906   30.6897   39.8014 H   0  0  0  0  0  0  0  0  0  0  0  0
   39.5191   33.3670   38.3914 H   0  0  0  0  0  0  0  0  0  0  0  0
   40.1305   32.4313   37.3119 H   0  0  0  0  0  0  0  0  0  0  0  0
   42.6310   32.9017   38.9552 H   0  0  0  0  0  0  0  0  0  0  0  0
   40.1404   34.8888   38.9929 H   0  0  0  0  0  0  0  0  0  0  0  0
   40.1910   36.9559   40.3519 H   0  0  0  0  0  0  0  0  0  0  0  0
   42.5715   37.4996   43.2088 H   0  0  0  0  0  0  0  0  0  0  0  0
   41.2450   38.2426   42.2754 H   0  0  0  0  0  0  0  0  0  0  0  0
   35.6054   28.9319   41.2448 H   0  0  0  0  0  0  0  0  0  0  0  0
   36.9553   26.1178   41.8802 H   0  0  0  0  0  0  0  0  0  0  0  0
   40.0097   27.4622   44.6184 H   0  0  0  0  0  0  0  0  0  0  0  0
   40.3214   23.7107   42.6101 H   0  0  0  0  0  0  0  0  0  0  0  0
  1 16  1  0
  2  1  1  0
  3  4  1  0
  3  2  1  0
  4  2  1  0
  4  5  1  0
  5 11  1  0
  6  5  1  0
  6  7  2  0
  7  8  1  0
  8 10  2  0
  8  9  1  0
 11 12  2  0
 11 10  1  0
 13 18  1  0
 14 13  2  0
 15 16  1  0
 15 14  1  0
 16 17  2  0
 17 13  1  0
 19 20  2  0
 20 18  1  0
 20 21  1  0
 22 21  2  0
 23 22  1  0
 24 19  1  0
 24 23  2  0
  2 25  1  6
  3 26  1  0
  3 27  1  0
  4 28  1  6
  6 29  1  0
  7 30  1  0
  9 31  1  0
  9 32  1  0
 14 33  1  0
 19 34  1  0
 21 35  1  0
 23 36  1  0
M  ISO  8  25  13  26  13  27  13  28  13  29  14  30  14  33  14  34  14
M  ISO  2  35  14  36  14
M  END
>  <minimizedAffinity>  (1) 
-5.6860528

>  <minimizedRMSD>  (1) 
4.5607152

$$$$
