
     RDKit          3D

 41 44  0  0  1  0  0  0  0  0999 V2000
   37.5230   31.6540   40.1700 C   0  0  0  0  0  0  0  0  0  0  0  0
   38.4700   31.0200   39.3370 C   0  0  0  0  0  0  0  0  0  0  0  0
   39.4950   32.4880   38.8820 S   0  0  0  0  0  0  0  0  0  0  0  0
   38.4100   33.6780   39.9320 C   0  0  0  0  0  0  0  0  0  0  0  0
   37.6710   32.9500   40.3300 N   0  0  0  0  0  0  0  0  0  0  0  0
   36.2290   30.5950   40.9060 S   0  0  0  0  0  0  0  0  0  0  0  0
   36.4430   28.0030   41.9510 C   0  0  0  0  0  0  0  0  0  0  0  0
   36.9720   29.3230   41.8790 C   0  0  0  0  0  0  0  0  0  0  0  0
   38.1190   29.5720   42.6220 C   0  0  0  0  0  0  0  0  0  0  0  0
   38.6780   28.5760   43.3680 N   0  0  0  0  0  0  0  0  0  0  0  0
   38.1270   27.3280   43.3980 C   0  0  0  0  0  0  0  0  0  0  0  0
   37.0320   27.0460   42.7050 N   0  0  0  0  0  0  0  0  0  0  0  0
   38.5890   35.0720   40.0810 O   0  0  0  0  0  0  0  0  0  0  0  0
   39.8960   35.6250   39.8600 C   0  0  1  0  0  0  0  0  0  0  0  0
   40.0480   37.0380   40.3930 C   0  0  0  0  0  0  0  0  0  0  0  0
   40.7310   35.8560   41.0790 C   0  0  2  0  0  0  0  0  0  0  0  0
   42.2270   35.7130   40.9850 C   0  0  0  0  0  0  0  0  0  0  0  0
   42.8940   35.8570   42.3350 C   0  0  0  0  0  0  0  0  0  0  0  0
   44.0490   34.8640   42.4570 C   0  0  0  0  0  0  0  0  0  0  0  0
   43.4390   33.4810   42.3990 C   0  0  0  0  0  0  0  0  0  0  0  0
   42.8150   33.2540   41.0500 C   0  0  0  0  0  0  0  0  0  0  0  0
   42.7050   34.5060   40.2500 C   0  0  0  0  0  0  0  0  0  0  0  0
   38.5685   29.9640   39.0451 H   0  0  0  0  0  0  0  0  0  0  0  0
   35.5353   27.7556   41.3810 H   0  0  0  0  0  0  0  0  0  0  0  0
   38.5765   30.5723   42.6088 H   0  0  0  0  0  0  0  0  0  0  0  0
   38.5989   26.5429   44.0070 H   0  0  0  0  0  0  0  0  0  0  0  0
   40.0786   35.1166   38.9018 H   0  0  0  0  0  0  0  0  0  0  0  0
   40.6456   37.7770   39.8391 H   0  0  0  0  0  0  0  0  0  0  0  0
   39.3597   37.8366   40.7067 H   0  0  0  0  0  0  0  0  0  0  0  0
   40.7401   35.4517   42.1020 H   0  0  0  0  0  0  0  0  0  0  0  0
   42.5436   36.5570   40.3546 H   0  0  0  0  0  0  0  0  0  0  0  0
   43.2813   36.8809   42.4424 H   0  0  0  0  0  0  0  0  0  0  0  0
   42.1568   35.6516   43.1252 H   0  0  0  0  0  0  0  0  0  0  0  0
   44.7569   35.0016   41.6264 H   0  0  0  0  0  0  0  0  0  0  0  0
   44.6030   35.0138   43.3954 H   0  0  0  0  0  0  0  0  0  0  0  0
   44.2233   32.7288   42.5695 H   0  0  0  0  0  0  0  0  0  0  0  0
   42.6651   33.3933   43.1758 H   0  0  0  0  0  0  0  0  0  0  0  0
   43.4324   32.5336   40.4933 H   0  0  0  0  0  0  0  0  0  0  0  0
   41.7959   32.8741   41.2147 H   0  0  0  0  0  0  0  0  0  0  0  0
   42.0047   34.3164   39.4232 H   0  0  0  0  0  0  0  0  0  0  0  0
   43.7298   34.7423   39.9274 H   0  0  0  0  0  0  0  0  0  0  0  0
  1  5  1  0
  1  6  1  0
  2  1  2  0
  3  2  1  0
  3  4  1  0
  4 13  1  0
  4  5  2  0
  6  8  1  0
  7 12  2  0
  8  7  1  0
  8  9  2  0
  9 10  1  0
 10 11  2  0
 12 11  1  0
 14 13  1  0
 14 15  1  0
 14 16  1  0
 15 16  1  0
 17 16  1  0
 17 18  1  0
 18 19  1  0
 20 19  1  0
 21 20  1  0
 22 17  1  0
 22 21  1  0
  2 23  1  0
  7 24  1  0
  9 25  1  0
 11 26  1  0
 14 27  1  6
 15 28  1  0
 15 29  1  0
 16 30  1  1
 17 31  1  0
 18 32  1  0
 18 33  1  0
 19 34  1  0
 19 35  1  0
 20 36  1  0
 20 37  1  0
 21 38  1  0
 21 39  1  0
 22 40  1  0
 22 41  1  0
M  ISO  8  23  14  24  14  25  14  26  14  27  13  28  13  29  13  30  13
M  ISO  8  31  13  32  13  33  13  34  13  35  13  36  13  37  13  38  13
M  ISO  3  39  13  40  13  41  13
M  END
>  <minimizedAffinity>  (1) 
-5.47893476

>  <minimizedRMSD>  (1) 
1.93862319

$$$$
