
     RDKit          3D

 32 35  0  0  1  0  0  0  0  0999 V2000
   37.1580   29.2520   41.6240 C   0  0  0  0  0  0  0  0  0  0  0  0
   35.9020   28.8630   41.1100 C   0  0  0  0  0  0  0  0  0  0  0  0
   35.9690   29.7100   39.4710 S   0  0  0  0  0  0  0  0  0  0  0  0
   37.7140   30.4340   39.8220 C   0  0  0  0  0  0  0  0  0  0  0  0
   37.8690   30.0090   40.8360 N   0  0  0  0  0  0  0  0  0  0  0  0
   37.5930   28.6530   43.2920 S   0  0  0  0  0  0  0  0  0  0  0  0
   37.8070   25.9920   42.4300 C   0  0  0  0  0  0  0  0  0  0  0  0
   38.3600   27.0660   43.1800 C   0  0  0  0  0  0  0  0  0  0  0  0
   39.5580   26.8010   43.8360 C   0  0  0  0  0  0  0  0  0  0  0  0
   40.1370   25.5680   43.7390 N   0  0  0  0  0  0  0  0  0  0  0  0
   39.5490   24.5840   43.0000 C   0  0  0  0  0  0  0  0  0  0  0  0
   38.4230   24.7790   42.3630 N   0  0  0  0  0  0  0  0  0  0  0  0
   38.4840   31.2580   38.9690 O   0  0  0  0  0  0  0  0  0  0  0  0
   39.9000   31.0190   38.8840 C   0  0  1  0  0  0  0  0  0  0  0  0
   40.5460   31.6820   37.6840 C   0  0  0  0  0  0  0  0  0  0  0  0
   40.7700   32.2180   39.1060 C   0  0  1  0  0  0  0  0  0  0  0  0
   40.2130   33.4320   39.5370 C   0  0  0  0  0  0  0  0  0  0  0  0
   39.0770   33.9480   40.0950 C   0  0  0  0  0  0  0  0  0  0  0  0
   38.9330   35.2750   40.3750 C   0  0  0  0  0  0  0  0  0  0  0  0
   40.0650   36.1330   40.0440 C   0  0  0  0  0  0  0  0  0  0  0  0
   41.2960   34.9450   39.3340 S   0  0  0  0  0  0  0  0  0  0  0  0
   35.1140   28.2381   41.5557 H   0  0  0  0  0  0  0  0  0  0  0  0
   36.8600   26.1442   41.8915 H   0  0  0  0  0  0  0  0  0  0  0  0
   40.0405   27.5875   44.4349 H   0  0  0  0  0  0  0  0  0  0  0  0
   40.0349   23.5991   42.9378 H   0  0  0  0  0  0  0  0  0  0  0  0
   39.8836   30.0036   39.3067 H   0  0  0  0  0  0  0  0  0  0  0  0
   41.3636   31.1786   37.1472 H   0  0  0  0  0  0  0  0  0  0  0  0
   40.1881   32.1042   36.7334 H   0  0  0  0  0  0  0  0  0  0  0  0
   41.6593   32.4431   39.7130 H   0  0  0  0  0  0  0  0  0  0  0  0
   38.2459   33.2659   40.3275 H   0  0  0  0  0  0  0  0  0  0  0  0
   38.0134   35.6762   40.8258 H   0  0  0  0  0  0  0  0  0  0  0  0
   40.1636   37.2198   40.1822 H   0  0  0  0  0  0  0  0  0  0  0  0
  1  6  1  0
  2  1  2  0
  3  4  1  0
  3  2  1  0
  4  5  2  0
  5  1  1  0
  7  8  2  0
  8  6  1  0
  8  9  1  0
 10  9  2  0
 11 10  1  0
 12  7  1  0
 12 11  2  0
 13  4  1  0
 14 13  1  0
 14 16  1  0
 15 14  1  0
 15 16  1  0
 16 17  1  0
 17 18  2  0
 18 19  1  0
 20 19  2  0
 21 17  1  0
 21 20  1  0
  2 22  1  0
  7 23  1  0
  9 24  1  0
 11 25  1  0
 14 26  1  1
 15 27  1  0
 15 28  1  0
 16 29  1  1
 18 30  1  0
 19 31  1  0
 20 32  1  0
M  ISO  8  22  14  23  14  24  14  25  14  26  13  27  13  28  13  29  13
M  ISO  3  30  14  31  14  32  14
M  END
>  <minimizedAffinity>  (1) 
-5.07606888

>  <minimizedRMSD>  (1) 
3.89951086

$$$$
