
     RDKit          3D

 17 18  0  0  0  0  0  0  0  0999 V2000
   38.6570   29.6190   42.5590 C   0  0  0  0  0  0  0  0  0  0  0  0
   39.7970   28.8180   42.7520 C   0  0  0  0  0  0  0  0  0  0  0  0
   39.6220   27.5900   43.3910 C   0  0  0  0  0  0  0  0  0  0  0  0
   38.3740   27.2320   43.7910 N   0  0  0  0  0  0  0  0  0  0  0  0
   37.3060   28.0290   43.5860 C   0  0  0  0  0  0  0  0  0  0  0  0
   37.4500   29.2140   42.9740 N   0  0  0  0  0  0  0  0  0  0  0  0
   40.8070   26.8600   43.5420 N   0  0  0  0  0  0  0  0  0  0  0  0
   41.7390   27.2070   44.4280 N   0  0  0  0  0  0  0  0  0  0  0  0
   42.7720   26.3190   44.3490 C   0  0  0  0  0  0  0  0  0  0  0  0
   42.4660   25.3890   43.3800 C   0  0  0  0  0  0  0  0  0  0  0  0
   41.2150   25.7480   42.8780 C   0  0  0  0  0  0  0  0  0  0  0  0
   38.7586   30.5936   42.0592 H   0  0  0  0  0  0  0  0  0  0  0  0
   40.7898   29.1475   42.4118 H   0  0  0  0  0  0  0  0  0  0  0  0
   36.3101   27.7054   43.9228 H   0  0  0  0  0  0  0  0  0  0  0  0
   43.6902   26.3418   44.9543 H   0  0  0  0  0  0  0  0  0  0  0  0
   43.0838   24.5350   43.0654 H   0  0  0  0  0  0  0  0  0  0  0  0
   40.6589   25.2244   42.0864 H   0  0  0  0  0  0  0  0  0  0  0  0
  1  2  2  0
  1  6  1  0
  2  3  1  0
  3  7  1  0
  3  4  2  0
  5  4  1  0
  6  5  2  0
  7  8  1  0
  9  8  2  0
 10  9  1  0
 11 10  2  0
 11  7  1  0
  1 12  1  0
  2 13  1  0
  5 14  1  0
  9 15  1  0
 10 16  1  0
 11 17  1  0
M  ISO  6  12  14  13  14  14  14  15  14  16  14  17  14
M  END
>  <minimizedAffinity>  (1) 
-3.42028141

>  <minimizedRMSD>  (1) 
4.73652124

$$$$
