
     RDKit          3D

 38 42  0  0  1  0  0  0  0  0999 V2000
   42.3860   30.9260   41.3500 C   0  0  1  0  0  0  0  0  0  0  0  0
   41.7020   31.1390   39.9900 C   0  0  0  0  0  0  0  0  0  0  0  0
   42.4450   32.2630   40.7100 C   0  0  1  0  0  0  0  0  0  0  0  0
   41.7170   33.3550   41.2930 N   0  0  0  0  0  0  0  0  0  0  0  0
   37.3000   33.7120   40.0750 N   0  0  0  0  0  0  0  0  0  0  0  0
   37.5610   32.4600   40.4930 C   0  0  0  0  0  0  0  0  0  0  0  0
   38.8630   32.4470   40.8280 N   0  0  0  0  0  0  0  0  0  0  0  0
   39.3800   33.6910   40.6090 C   0  0  0  0  0  0  0  0  0  0  0  0
   40.6760   34.1860   40.7990 C   0  0  0  0  0  0  0  0  0  0  0  0
   40.8240   35.4780   40.4730 N   0  0  0  0  0  0  0  0  0  0  0  0
   39.9030   36.3020   40.0080 C   0  0  0  0  0  0  0  0  0  0  0  0
   38.6580   35.7880   39.8360 N   0  0  0  0  0  0  0  0  0  0  0  0
   38.3850   34.5050   40.1280 C   0  0  0  0  0  0  0  0  0  0  0  0
   41.3790   30.7430   42.3760 O   0  0  0  0  0  0  0  0  0  0  0  0
   39.4150   27.8110   42.9750 C   0  0  0  0  0  0  0  0  0  0  0  0
   40.4250   26.8070   42.9930 C   0  0  0  0  0  0  0  0  0  0  0  0
   41.8800   27.8810   42.6930 S   0  0  0  0  0  0  0  0  0  0  0  0
   40.8170   29.4930   42.6020 C   0  0  0  0  0  0  0  0  0  0  0  0
   39.8250   29.0490   42.7690 N   0  0  0  0  0  0  0  0  0  0  0  0
   37.6740   27.2860   43.2270 S   0  0  0  0  0  0  0  0  0  0  0  0
   36.9220   26.7070   40.5970 C   0  0  0  0  0  0  0  0  0  0  0  0
   37.1710   26.2380   41.9140 C   0  0  0  0  0  0  0  0  0  0  0  0
   36.9960   24.8890   42.1210 C   0  0  0  0  0  0  0  0  0  0  0  0
   36.6010   24.0760   41.0920 N   0  0  0  0  0  0  0  0  0  0  0  0
   36.3750   24.5840   39.8410 C   0  0  0  0  0  0  0  0  0  0  0  0
   36.5360   25.8720   39.6160 N   0  0  0  0  0  0  0  0  0  0  0  0
   43.1647   30.2793   41.7805 H   0  0  0  0  0  0  0  0  0  0  0  0
   40.6046   31.1562   39.9165 H   0  0  0  0  0  0  0  0  0  0  0  0
   41.7530   30.6673   38.9976 H   0  0  0  0  0  0  0  0  0  0  0  0
   43.2547   32.9501   40.4231 H   0  0  0  0  0  0  0  0  0  0  0  0
   42.0055   33.5792   42.2560 H   0  0  0  0  0  0  0  0  0  0  0  0
   36.3744   34.0273   39.7512 H   0  0  0  0  0  0  0  0  0  0  0  0
   36.8539   31.6192   40.5491 H   0  0  0  0  0  0  0  0  0  0  0  0
   40.1326   37.3515   39.7719 H   0  0  0  0  0  0  0  0  0  0  0  0
   40.3538   25.7194   43.1415 H   0  0  0  0  0  0  0  0  0  0  0  0
   37.0476   27.7769   40.3743 H   0  0  0  0  0  0  0  0  0  0  0  0
   37.1743   24.4611   43.1185 H   0  0  0  0  0  0  0  0  0  0  0  0
   36.0594   23.9176   39.0247 H   0  0  0  0  0  0  0  0  0  0  0  0
  1 14  1  0
  2  3  1  0
  2  1  1  0
  3  4  1  0
  3  1  1  0
  5 13  1  0
  5  6  1  0
  6  7  2  0
  8  9  2  0
  8  7  1  0
  9  4  1  0
 10  9  1  0
 11 10  2  0
 12 11  1  0
 12 13  2  0
 13  8  1  0
 14 18  1  0
 15 16  2  0
 15 20  1  0
 17 16  1  0
 18 17  1  0
 18 19  2  0
 19 15  1  0
 21 22  2  0
 22 23  1  0
 22 20  1  0
 24 23  2  0
 25 24  1  0
 26 25  2  0
 26 21  1  0
  1 27  1  6
  2 28  1  0
  2 29  1  0
  3 30  1  6
  4 31  1  0
  5 32  1  0
  6 33  1  0
 11 34  1  0
 16 35  1  0
 21 36  1  0
 23 37  1  0
 25 38  1  0
M  ISO  8  27  13  28  13  29  13  30  13  32   9  33  14  34  14  35  14
M  ISO  3  36  14  37  14  38  14
M  END
>  <minimizedAffinity>  (1) 
-5.5400691

>  <minimizedRMSD>  (1) 
4.69795275

$$$$
