
     RDKit          3D

 45 49  0  0  1  0  0  0  0  0999 V2000
   37.6070   33.2290   40.5200 C   0  0  1  0  0  0  0  0  0  0  0  0
   38.8220   32.2990   40.7560 C   0  0  0  0  0  0  0  0  0  0  0  0
   38.9290   33.8460   40.6800 C   0  0  1  0  0  0  0  0  0  0  0  0
   39.6720   34.2570   39.5350 N   0  0  0  0  0  0  0  0  0  0  0  0
   40.7970   35.1310   39.4540 C   0  0  0  0  0  0  0  0  0  0  0  0
   41.0220   36.3370   39.5400 O   0  0  0  0  0  0  0  0  0  0  0  0
   42.1790   34.6200   39.1860 C   0  0  0  0  0  0  0  0  0  0  0  0
   42.3920   34.3840   37.8630 C   0  0  0  0  0  0  0  0  0  0  0  0
   43.6690   33.9150   37.5320 C   0  0  0  0  0  0  0  0  0  0  0  0
   44.6710   33.6950   38.4810 C   0  0  0  0  0  0  0  0  0  0  0  0
   44.3440   33.9690   39.8040 C   0  0  0  0  0  0  0  0  0  0  0  0
   45.3420   33.7500   40.7470 C   0  0  0  0  0  0  0  0  0  0  0  0
   44.9750   34.0340   42.0660 C   0  0  0  0  0  0  0  0  0  0  0  0
   43.7390   34.4980   42.4540 C   0  0  0  0  0  0  0  0  0  0  0  0
   42.7770   34.7040   41.4970 C   0  0  0  0  0  0  0  0  0  0  0  0
   43.1060   34.4320   40.1880 C   0  0  0  0  0  0  0  0  0  0  0  0
   37.1360   32.9980   39.1710 O   0  0  0  0  0  0  0  0  0  0  0  0
   36.5640   29.5900   38.2250 C   0  0  0  0  0  0  0  0  0  0  0  0
   37.2960   29.5380   37.0400 C   0  0  0  0  0  0  0  0  0  0  0  0
   37.9040   31.2820   37.0190 S   0  0  0  0  0  0  0  0  0  0  0  0
   37.0090   31.7260   38.6760 C   0  0  0  0  0  0  0  0  0  0  0  0
   36.5890   30.7410   38.8070 N   0  0  0  0  0  0  0  0  0  0  0  0
   35.7150   28.0670   38.7680 S   0  0  0  0  0  0  0  0  0  0  0  0
   37.0090   26.2910   40.5400 C   0  0  0  0  0  0  0  0  0  0  0  0
   36.3540   27.5470   40.3230 C   0  0  0  0  0  0  0  0  0  0  0  0
   36.2440   28.3630   41.4180 C   0  0  0  0  0  0  0  0  0  0  0  0
   36.7460   27.9640   42.6350 N   0  0  0  0  0  0  0  0  0  0  0  0
   37.3670   26.7400   42.7760 C   0  0  0  0  0  0  0  0  0  0  0  0
   37.4840   25.9330   41.7280 N   0  0  0  0  0  0  0  0  0  0  0  0
   36.6443   33.4696   40.9946 H   0  0  0  0  0  0  0  0  0  0  0  0
   38.9481   31.7760   41.7154 H   0  0  0  0  0  0  0  0  0  0  0  0
   39.2817   31.4414   40.2431 H   0  0  0  0  0  0  0  0  0  0  0  0
   39.2601   34.6792   41.3174 H   0  0  0  0  0  0  0  0  0  0  0  0
   39.3507   33.8672   38.6374 H   0  0  0  0  0  0  0  0  0  0  0  0
   41.6131   34.5505   37.1043 H   0  0  0  0  0  0  0  0  0  0  0  0
   43.8942   33.7100   36.4750 H   0  0  0  0  0  0  0  0  0  0  0  0
   45.6666   33.3243   38.1959 H   0  0  0  0  0  0  0  0  0  0  0  0
   46.3426   33.3819   40.4764 H   0  0  0  0  0  0  0  0  0  0  0  0
   45.7293   33.8749   42.8507 H   0  0  0  0  0  0  0  0  0  0  0  0
   43.5254   34.7005   43.5139 H   0  0  0  0  0  0  0  0  0  0  0  0
   41.7768   35.0740   41.7667 H   0  0  0  0  0  0  0  0  0  0  0  0
   37.4611   28.7112   36.3334 H   0  0  0  0  0  0  0  0  0  0  0  0
   37.1225   25.5987   39.6928 H   0  0  0  0  0  0  0  0  0  0  0  0
   35.7518   29.3422   41.3235 H   0  0  0  0  0  0  0  0  0  0  0  0
   37.7644   26.4333   43.7548 H   0  0  0  0  0  0  0  0  0  0  0  0
  1  3  1  0
  1  2  1  0
  3  2  1  0
  4  3  1  0
  5  4  1  0
  5  6  2  0
  7  5  1  0
  7 16  1  0
  8  7  2  0
  9  8  1  0
  9 10  2  0
 10 11  1  0
 11 16  2  0
 11 12  1  0
 12 13  2  0
 13 14  1  0
 15 14  2  0
 16 15  1  0
 17  1  1  0
 18 23  1  0
 18 22  1  0
 19 18  2  0
 20 19  1  0
 20 21  1  0
 21 22  2  0
 21 17  1  0
 23 25  1  0
 24 29  2  0
 25 24  1  0
 25 26  2  0
 26 27  1  0
 27 28  2  0
 29 28  1  0
  1 30  1  1
  2 31  1  0
  2 32  1  0
  3 33  1  1
  4 34  1  0
  8 35  1  0
  9 36  1  0
 10 37  1  0
 12 38  1  0
 13 39  1  0
 14 40  1  0
 15 41  1  0
 19 42  1  0
 24 43  1  0
 26 44  1  0
 28 45  1  0
M  ISO  8  30  13  31  13  32  13  33  13  35  14  36  14  37  14  38  14
M  ISO  7  39  14  40  14  41  14  42  14  43  14  44  14  45  14
M  END
>  <minimizedAffinity>  (1) 
-5.85983276

>  <minimizedRMSD>  (1) 
3.21496511

$$$$
