
     RDKit          3D

 36 39  0  0  1  0  0  0  0  0999 V2000
   38.8750   34.0080   40.7740 C   0  0  1  0  0  0  0  0  0  0  0  0
   39.7520   32.7380   40.8020 C   0  0  0  0  0  0  0  0  0  0  0  0
   40.2470   34.1080   40.2620 C   0  0  1  0  0  0  0  0  0  0  0  0
   40.4900   34.0410   38.8510 N   0  0  0  0  0  0  0  0  0  0  0  0
   41.7230   33.9870   38.1410 C   0  0  0  0  0  0  0  0  0  0  0  0
   42.6440   34.8210   37.8930 O   0  0  0  0  0  0  0  0  0  0  0  0
   41.8560   30.6910   36.5680 N   0  0  0  0  0  0  0  0  0  0  0  0
   41.2330   31.7450   37.1250 N   0  0  0  0  0  0  0  0  0  0  0  0
   42.1370   32.6920   37.4780 C   0  0  0  0  0  0  0  0  0  0  0  0
   43.3310   32.1200   37.0870 C   0  0  0  0  0  0  0  0  0  0  0  0
   43.1780   30.8920   36.5280 C   0  0  0  0  0  0  0  0  0  0  0  0
   37.8140   33.7870   39.8100 O   0  0  0  0  0  0  0  0  0  0  0  0
   36.4230   30.4930   39.5970 C   0  0  0  0  0  0  0  0  0  0  0  0
   36.7310   30.1830   38.2610 C   0  0  0  0  0  0  0  0  0  0  0  0
   37.5770   31.7580   37.8110 S   0  0  0  0  0  0  0  0  0  0  0  0
   37.3330   32.5260   39.5680 C   0  0  0  0  0  0  0  0  0  0  0  0
   36.8150   31.6660   39.9770 N   0  0  0  0  0  0  0  0  0  0  0  0
   35.5450   29.2330   40.5940 S   0  0  0  0  0  0  0  0  0  0  0  0
   36.8670   27.0990   41.8700 C   0  0  0  0  0  0  0  0  0  0  0  0
   36.6590   28.5050   41.7360 C   0  0  0  0  0  0  0  0  0  0  0  0
   37.4020   29.3010   42.5770 C   0  0  0  0  0  0  0  0  0  0  0  0
   38.2810   28.7330   43.4770 N   0  0  0  0  0  0  0  0  0  0  0  0
   38.4360   27.3790   43.5560 C   0  0  0  0  0  0  0  0  0  0  0  0
   37.7300   26.5840   42.7560 N   0  0  0  0  0  0  0  0  0  0  0  0
   38.3282   34.6509   41.4795 H   0  0  0  0  0  0  0  0  0  0  0  0
   40.1325   32.3420   41.7551 H   0  0  0  0  0  0  0  0  0  0  0  0
   39.6783   31.7095   40.4190 H   0  0  0  0  0  0  0  0  0  0  0  0
   41.0416   34.8388   40.4732 H   0  0  0  0  0  0  0  0  0  0  0  0
   39.6452   34.0303   38.2618 H   0  0  0  0  0  0  0  0  0  0  0  0
   41.3808   29.8459   36.2203 H   0  0  0  0  0  0  0  0  0  0  0  0
   44.3077   32.6095   37.2153 H   0  0  0  0  0  0  0  0  0  0  0  0
   43.9566   30.2214   36.1353 H   0  0  0  0  0  0  0  0  0  0  0  0
   36.5294   29.2793   37.6671 H   0  0  0  0  0  0  0  0  0  0  0  0
   36.2988   26.4144   41.2231 H   0  0  0  0  0  0  0  0  0  0  0  0
   37.2951   30.3949   42.5320 H   0  0  0  0  0  0  0  0  0  0  0  0
   39.1428   26.9462   44.2793 H   0  0  0  0  0  0  0  0  0  0  0  0
  1  2  1  0
  3  1  1  0
  3  2  1  0
  4  3  1  0
  5  4  1  0
  6  5  2  0
  7  8  1  0
  8  9  2  0
  9  5  1  0
 10  9  1  0
 11  7  1  0
 11 10  2  0
 12  1  1  0
 13 17  1  0
 13 18  1  0
 14 13  2  0
 15 14  1  0
 15 16  1  0
 16 12  1  0
 16 17  2  0
 18 20  1  0
 19 24  2  0
 20 19  1  0
 20 21  2  0
 21 22  1  0
 22 23  2  0
 24 23  1  0
  1 25  1  1
  2 26  1  0
  2 27  1  0
  3 28  1  1
  4 29  1  0
  7 30  1  0
 10 31  1  0
 11 32  1  0
 14 33  1  0
 19 34  1  0
 21 35  1  0
 23 36  1  0
M  ISO  8  25  13  26  13  27  13  28  13  30   9  31  14  32  14  33  14
M  ISO  3  34  14  35  14  36  14
M  END
>  <minimizedAffinity>  (1) 
-5.76715565

>  <minimizedRMSD>  (1) 
3.6290803

$$$$
