
     RDKit          3D

 36 39  0  0  1  0  0  0  0  0999 V2000
   37.5100   32.6050   39.1080 O   0  0  0  0  0  0  0  0  0  0  0  0
   37.7650   33.0030   40.4790 C   0  0  1  0  0  0  0  0  0  0  0  0
   39.2030   32.5770   40.8360 C   0  0  0  0  0  0  0  0  0  0  0  0
   38.7600   34.0600   40.7070 C   0  0  1  0  0  0  0  0  0  0  0  0
   39.3980   34.6880   39.5840 N   0  0  0  0  0  0  0  0  0  0  0  0
   40.5610   35.5080   39.5370 C   0  0  0  0  0  0  0  0  0  0  0  0
   40.8160   36.6990   39.8810 O   0  0  0  0  0  0  0  0  0  0  0  0
   41.8130   34.8990   38.9520 C   0  0  0  0  0  0  0  0  0  0  0  0
   42.5050   33.8630   39.5760 C   0  0  0  0  0  0  0  0  0  0  0  0
   43.6130   33.4830   38.8750 N   0  0  0  0  0  0  0  0  0  0  0  0
   43.6460   34.2700   37.7920 C   0  0  0  0  0  0  0  0  0  0  0  0
   42.5890   35.0840   37.8610 N   0  0  0  0  0  0  0  0  0  0  0  0
   36.7310   29.1290   38.7260 C   0  0  0  0  0  0  0  0  0  0  0  0
   36.8830   28.9950   37.3360 C   0  0  0  0  0  0  0  0  0  0  0  0
   37.3480   30.7370   36.9430 S   0  0  0  0  0  0  0  0  0  0  0  0
   37.2380   31.2980   38.7910 C   0  0  0  0  0  0  0  0  0  0  0  0
   36.9540   30.3230   39.1860 N   0  0  0  0  0  0  0  0  0  0  0  0
   36.2620   27.6490   39.6830 S   0  0  0  0  0  0  0  0  0  0  0  0
   38.5430   27.2300   41.2790 C   0  0  0  0  0  0  0  0  0  0  0  0
   37.1660   27.6060   41.1860 C   0  0  0  0  0  0  0  0  0  0  0  0
   36.5590   27.9450   42.3730 C   0  0  0  0  0  0  0  0  0  0  0  0
   37.2710   27.9120   43.5500 N   0  0  0  0  0  0  0  0  0  0  0  0
   38.5890   27.5430   43.5710 C   0  0  0  0  0  0  0  0  0  0  0  0
   39.2000   27.2100   42.4420 N   0  0  0  0  0  0  0  0  0  0  0  0
   36.7461   32.8832   40.8759 H   0  0  0  0  0  0  0  0  0  0  0  0
   39.4295   32.1451   41.8220 H   0  0  0  0  0  0  0  0  0  0  0  0
   39.9776   31.9353   40.3908 H   0  0  0  0  0  0  0  0  0  0  0  0
   38.7217   34.9646   41.3316 H   0  0  0  0  0  0  0  0  0  0  0  0
   38.9454   34.5196   38.6742 H   0  0  0  0  0  0  0  0  0  0  0  0
   42.1938   33.4035   40.5257 H   0  0  0  0  0  0  0  0  0  0  0  0
   44.4028   34.2499   36.9940 H   0  0  0  0  0  0  0  0  0  0  0  0
   42.3827   35.7931   37.1430 H   0  0  0  0  0  0  0  0  0  0  0  0
   36.7618   28.1192   36.6816 H   0  0  0  0  0  0  0  0  0  0  0  0
   39.0795   26.9476   40.3612 H   0  0  0  0  0  0  0  0  0  0  0  0
   35.5003   28.2436   42.3813 H   0  0  0  0  0  0  0  0  0  0  0  0
   39.1404   27.5227   44.5226 H   0  0  0  0  0  0  0  0  0  0  0  0
  1  2  1  0
  2  4  1  0
  2  3  1  0
  4  3  1  0
  5  4  1  0
  6  5  1  0
  6  7  2  0
  8  6  1  0
  8  9  2  0
 10  9  1  0
 11 12  1  0
 11 10  2  0
 12  8  1  0
 13 17  1  0
 13 18  1  0
 14 13  2  0
 15 14  1  0
 15 16  1  0
 16  1  1  0
 16 17  2  0
 18 20  1  0
 19 24  2  0
 20 19  1  0
 20 21  2  0
 21 22  1  0
 22 23  2  0
 24 23  1  0
  2 25  1  1
  3 26  1  0
  3 27  1  0
  4 28  1  1
  5 29  1  0
  9 30  1  0
 11 31  1  0
 12 32  1  0
 14 33  1  0
 19 34  1  0
 21 35  1  0
 23 36  1  0
M  ISO  8  25  13  26  13  27  13  28  13  30  14  31  14  32   9  33  14
M  ISO  3  34  14  35  14  36  14
M  END
>  <minimizedAffinity>  (1) 
-5.4231739

>  <minimizedRMSD>  (1) 
2.54776454

$$$$
