
     RDKit          3D

 36 39  0  0  1  0  0  0  0  0999 V2000
   37.8120   32.7090   40.5800 C   0  0  1  0  0  0  0  0  0  0  0  0
   39.2960   32.3660   40.8320 C   0  0  0  0  0  0  0  0  0  0  0  0
   38.7350   33.8190   40.8460 C   0  0  1  0  0  0  0  0  0  0  0  0
   39.2770   34.5730   39.7550 N   0  0  0  0  0  0  0  0  0  0  0  0
   40.5840   35.1130   39.5760 C   0  0  0  0  0  0  0  0  0  0  0  0
   41.2220   36.0850   40.1000 O   0  0  0  0  0  0  0  0  0  0  0  0
   41.5040   34.4670   38.5520 C   0  0  0  0  0  0  0  0  0  0  0  0
   41.6360   33.1610   38.1080 C   0  0  0  0  0  0  0  0  0  0  0  0
   42.6060   32.9950   37.1580 C   0  0  0  0  0  0  0  0  0  0  0  0
   43.0720   34.2410   37.0260 N   0  0  0  0  0  0  0  0  0  0  0  0
   42.4480   35.0800   37.8180 N   0  0  0  0  0  0  0  0  0  0  0  0
   37.5160   32.3960   39.1960 O   0  0  0  0  0  0  0  0  0  0  0  0
   36.7670   28.9420   38.6080 C   0  0  0  0  0  0  0  0  0  0  0  0
   36.8540   28.9110   37.2030 C   0  0  0  0  0  0  0  0  0  0  0  0
   37.2760   30.6840   36.9190 S   0  0  0  0  0  0  0  0  0  0  0  0
   37.2460   31.1100   38.8080 C   0  0  0  0  0  0  0  0  0  0  0  0
   36.9950   30.1050   39.1300 N   0  0  0  0  0  0  0  0  0  0  0  0
   36.3650   27.3910   39.4850 S   0  0  0  0  0  0  0  0  0  0  0  0
   38.3750   26.7770   41.3460 C   0  0  0  0  0  0  0  0  0  0  0  0
   37.1240   27.3920   41.0680 C   0  0  0  0  0  0  0  0  0  0  0  0
   36.5150   28.0140   42.1340 C   0  0  0  0  0  0  0  0  0  0  0  0
   37.1080   28.0200   43.3740 N   0  0  0  0  0  0  0  0  0  0  0  0
   38.3080   27.4140   43.5790 C   0  0  0  0  0  0  0  0  0  0  0  0
   38.9260   26.8010   42.5700 N   0  0  0  0  0  0  0  0  0  0  0  0
   36.8268   32.4829   41.0139 H   0  0  0  0  0  0  0  0  0  0  0  0
   39.6062   31.8770   41.7672 H   0  0  0  0  0  0  0  0  0  0  0  0
   40.0908   31.8227   40.2998 H   0  0  0  0  0  0  0  0  0  0  0  0
   38.6549   34.6680   41.5409 H   0  0  0  0  0  0  0  0  0  0  0  0
   38.6215   34.7525   38.9810 H   0  0  0  0  0  0  0  0  0  0  0  0
   41.0172   32.3334   38.4851 H   0  0  0  0  0  0  0  0  0  0  0  0
   42.9201   32.0774   36.6390 H   0  0  0  0  0  0  0  0  0  0  0  0
   43.8288   34.5095   36.3810 H   0  0  0  0  0  0  0  0  0  0  0  0
   36.7134   28.0831   36.4925 H   0  0  0  0  0  0  0  0  0  0  0  0
   38.9089   26.2649   40.5319 H   0  0  0  0  0  0  0  0  0  0  0  0
   35.5441   28.5112   41.9923 H   0  0  0  0  0  0  0  0  0  0  0  0
   38.7686   27.4298   44.5778 H   0  0  0  0  0  0  0  0  0  0  0  0
  1  2  1  0
  1  3  1  0
  2  3  1  0
  4  3  1  0
  5  4  1  0
  5  6  2  0
  7  5  1  0
  8  7  1  0
  9  8  2  0
 10  9  1  0
 10 11  1  0
 11  7  2  0
 12  1  1  0
 13 17  1  0
 13 18  1  0
 14 13  2  0
 15 14  1  0
 15 16  1  0
 16 17  2  0
 16 12  1  0
 18 20  1  0
 19 24  2  0
 20 19  1  0
 20 21  2  0
 21 22  1  0
 22 23  2  0
 24 23  1  0
  1 25  1  1
  2 26  1  0
  2 27  1  0
  3 28  1  1
  4 29  1  0
  8 30  1  0
  9 31  1  0
 10 32  1  0
 14 33  1  0
 19 34  1  0
 21 35  1  0
 23 36  1  0
M  ISO  8  25  13  26  13  27  13  28  13  30  14  31  14  32   9  33  14
M  ISO  3  34  14  35  14  36  14
M  END
>  <minimizedAffinity>  (1) 
-5.40509939

>  <minimizedRMSD>  (1) 
2.60288811

$$$$
