
     RDKit          3D

 41 44  0  0  1  0  0  0  0  0999 V2000
   37.2420   32.8080   39.0590 O   0  0  0  0  0  0  0  0  0  0  0  0
   37.5240   33.2460   40.4120 C   0  0  1  0  0  0  0  0  0  0  0  0
   38.8330   32.5680   40.8660 C   0  0  0  0  0  0  0  0  0  0  0  0
   38.7090   34.0930   40.6070 C   0  0  1  0  0  0  0  0  0  0  0  0
   39.5000   34.4980   39.4950 N   0  0  0  0  0  0  0  0  0  0  0  0
   40.7260   35.2300   39.4800 C   0  0  0  0  0  0  0  0  0  0  0  0
   41.1010   36.3890   39.6600 O   0  0  0  0  0  0  0  0  0  0  0  0
   41.9870   34.5490   39.1750 N   0  0  0  0  0  0  0  0  0  0  0  0
   42.6020   34.7370   37.8730 C   0  0  0  0  0  0  0  0  0  0  0  0
   42.6050   33.2980   37.3530 C   0  0  0  0  0  0  0  0  0  0  0  0
   43.0670   32.5730   38.6230 C   0  0  0  0  0  0  0  0  0  0  0  0
   43.0130   33.6400   39.7100 C   0  0  0  0  0  0  0  0  0  0  0  0
   36.6310   29.2950   38.7300 C   0  0  0  0  0  0  0  0  0  0  0  0
   37.0400   29.1000   37.3960 C   0  0  0  0  0  0  0  0  0  0  0  0
   37.5260   30.8340   37.0070 S   0  0  0  0  0  0  0  0  0  0  0  0
   37.0640   31.4790   38.7710 C   0  0  0  0  0  0  0  0  0  0  0  0
   36.7390   30.5140   39.1480 N   0  0  0  0  0  0  0  0  0  0  0  0
   36.0300   27.8450   39.6610 S   0  0  0  0  0  0  0  0  0  0  0  0
   37.5010   26.5700   41.7000 C   0  0  0  0  0  0  0  0  0  0  0  0
   36.8620   27.7510   41.2070 C   0  0  0  0  0  0  0  0  0  0  0  0
   36.9340   28.8540   42.0270 C   0  0  0  0  0  0  0  0  0  0  0  0
   37.5840   28.7860   43.2320 N   0  0  0  0  0  0  0  0  0  0  0  0
   38.1760   27.6250   43.6500 C   0  0  0  0  0  0  0  0  0  0  0  0
   38.1250   26.5400   42.8800 N   0  0  0  0  0  0  0  0  0  0  0  0
   36.4906   33.3630   40.7702 H   0  0  0  0  0  0  0  0  0  0  0  0
   38.9361   32.1817   41.8908 H   0  0  0  0  0  0  0  0  0  0  0  0
   39.4720   31.7482   40.5060 H   0  0  0  0  0  0  0  0  0  0  0  0
   38.8353   35.0357   41.1595 H   0  0  0  0  0  0  0  0  0  0  0  0
   39.1368   34.2245   38.5708 H   0  0  0  0  0  0  0  0  0  0  0  0
   42.0009   35.3987   37.2321 H   0  0  0  0  0  0  0  0  0  0  0  0
   43.5919   35.2159   37.8995 H   0  0  0  0  0  0  0  0  0  0  0  0
   41.6027   32.9736   37.0365 H   0  0  0  0  0  0  0  0  0  0  0  0
   43.2248   33.1229   36.4613 H   0  0  0  0  0  0  0  0  0  0  0  0
   42.3912   31.7388   38.8626 H   0  0  0  0  0  0  0  0  0  0  0  0
   44.0705   32.1357   38.5144 H   0  0  0  0  0  0  0  0  0  0  0  0
   43.9818   34.1487   39.8227 H   0  0  0  0  0  0  0  0  0  0  0  0
   42.7877   33.2486   40.7130 H   0  0  0  0  0  0  0  0  0  0  0  0
   37.0623   28.1912   36.7767 H   0  0  0  0  0  0  0  0  0  0  0  0
   37.4775   25.6569   41.0871 H   0  0  0  0  0  0  0  0  0  0  0  0
   36.4658   29.7985   41.7127 H   0  0  0  0  0  0  0  0  0  0  0  0
   38.6930   27.5883   44.6203 H   0  0  0  0  0  0  0  0  0  0  0  0
  1  2  1  0
  2  4  1  0
  2  3  1  0
  4  3  1  0
  5  4  1  0
  6  5  1  0
  6  7  2  0
  8  6  1  0
  8 12  1  0
  9  8  1  0
 10  9  1  0
 10 11  1  0
 11 12  1  0
 13 17  1  0
 13 18  1  0
 14 13  2  0
 15 14  1  0
 15 16  1  0
 16  1  1  0
 16 17  2  0
 18 20  1  0
 19 24  2  0
 20 19  1  0
 20 21  2  0
 21 22  1  0
 22 23  2  0
 24 23  1  0
  2 25  1  1
  3 26  1  0
  3 27  1  0
  4 28  1  1
  5 29  1  0
  9 30  1  0
  9 31  1  0
 10 32  1  0
 10 33  1  0
 11 34  1  0
 11 35  1  0
 12 36  1  0
 12 37  1  0
 14 38  1  0
 19 39  1  0
 21 40  1  0
 23 41  1  0
M  ISO  8  25  13  26  13  27  13  28  13  30  13  31  13  32  13  33  13
M  ISO  8  34  13  35  13  36  13  37  13  38  14  39  14  40  14  41  14
M  END
>  <minimizedAffinity>  (1) 
-5.2947855

>  <minimizedRMSD>  (1) 
2.54552007

$$$$
