
     RDKit          3D

 37 40  0  0  1  0  0  0  0  0999 V2000
   37.9760   32.5900   40.6300 C   0  0  1  0  0  0  0  0  0  0  0  0
   39.3960   32.4470   41.2130 C   0  0  0  0  0  0  0  0  0  0  0  0
   38.8050   33.7970   40.7190 C   0  0  1  0  0  0  0  0  0  0  0  0
   39.5210   34.2590   39.5620 N   0  0  0  0  0  0  0  0  0  0  0  0
   40.5950   35.1880   39.4590 C   0  0  0  0  0  0  0  0  0  0  0  0
   40.6860   36.4530   39.5880 O   0  0  0  0  0  0  0  0  0  0  0  0
   41.9620   34.6010   39.1140 C   0  0  0  0  0  0  0  0  0  0  0  0
   42.7950   34.1440   40.1430 C   0  0  0  0  0  0  0  0  0  0  0  0
   44.0440   33.5910   40.0270 C   0  0  0  0  0  0  0  0  0  0  0  0
   44.4850   33.4930   38.7560 N   0  0  0  0  0  0  0  0  0  0  0  0
   43.7120   33.9230   37.7450 C   0  0  0  0  0  0  0  0  0  0  0  0
   42.5140   34.4470   37.9270 N   0  0  0  0  0  0  0  0  0  0  0  0
   37.9450   31.8900   39.3600 O   0  0  0  0  0  0  0  0  0  0  0  0
   37.6060   28.3340   39.6280 C   0  0  0  0  0  0  0  0  0  0  0  0
   38.2160   27.9370   38.4320 C   0  0  0  0  0  0  0  0  0  0  0  0
   38.6500   29.6070   37.7820 S   0  0  0  0  0  0  0  0  0  0  0  0
   37.8930   30.5210   39.3100 C   0  0  0  0  0  0  0  0  0  0  0  0
   37.5830   29.6110   39.8040 N   0  0  0  0  0  0  0  0  0  0  0  0
   36.9650   27.0270   40.7260 S   0  0  0  0  0  0  0  0  0  0  0  0
   38.6090   25.2800   42.2030 C   0  0  0  0  0  0  0  0  0  0  0  0
   38.1820   26.6110   41.9300 C   0  0  0  0  0  0  0  0  0  0  0  0
   38.7800   27.6020   42.6720 C   0  0  0  0  0  0  0  0  0  0  0  0
   39.7310   27.2780   43.6130 N   0  0  0  0  0  0  0  0  0  0  0  0
   40.0990   25.9760   43.8280 C   0  0  0  0  0  0  0  0  0  0  0  0
   39.5370   25.0080   43.1260 N   0  0  0  0  0  0  0  0  0  0  0  0
   36.9354   32.4142   40.9403 H   0  0  0  0  0  0  0  0  0  0  0  0
   39.5435   32.2607   42.2870 H   0  0  0  0  0  0  0  0  0  0  0  0
   40.2888   31.8413   40.9985 H   0  0  0  0  0  0  0  0  0  0  0  0
   38.5764   34.7960   41.1187 H   0  0  0  0  0  0  0  0  0  0  0  0
   39.2085   33.8550   38.6675 H   0  0  0  0  0  0  0  0  0  0  0  0
   42.4003   34.2402   41.1652 H   0  0  0  0  0  0  0  0  0  0  0  0
   44.6340   33.2570   40.8932 H   0  0  0  0  0  0  0  0  0  0  0  0
   44.0950   33.8344   36.7177 H   0  0  0  0  0  0  0  0  0  0  0  0
   38.3847   26.9355   38.0095 H   0  0  0  0  0  0  0  0  0  0  0  0
   38.1613   24.4500   41.6368 H   0  0  0  0  0  0  0  0  0  0  0  0
   38.4986   28.6535   42.5137 H   0  0  0  0  0  0  0  0  0  0  0  0
   40.8613   25.7368   44.5841 H   0  0  0  0  0  0  0  0  0  0  0  0
  1  3  1  0
  1  2  1  0
  3  2  1  0
  4  3  1  0
  5  4  1  0
  5  6  2  0
  7  5  1  0
  7  8  2  0
  9  8  1  0
 10  9  2  0
 11 12  2  0
 11 10  1  0
 12  7  1  0
 13  1  1  0
 14 18  1  0
 14 19  1  0
 15 14  2  0
 16 15  1  0
 16 17  1  0
 17 13  1  0
 17 18  2  0
 19 21  1  0
 20 25  2  0
 21 20  1  0
 21 22  2  0
 22 23  1  0
 23 24  2  0
 25 24  1  0
  1 26  1  1
  2 27  1  0
  2 28  1  0
  3 29  1  1
  4 30  1  0
  8 31  1  0
  9 32  1  0
 11 33  1  0
 15 34  1  0
 20 35  1  0
 22 36  1  0
 24 37  1  0
M  ISO  8  26  13  27  13  28  13  29  13  31  14  32  14  33  14  34  14
M  ISO  3  35  14  36  14  37  14
M  END
>  <minimizedAffinity>  (1) 
-5.08173847

>  <minimizedRMSD>  (1) 
3.07606578

$$$$
