
     RDKit          3D

 38 41  0  0  1  0  0  0  0  0999 V2000
   37.9380   32.3640   40.6660 C   0  0  1  0  0  0  0  0  0  0  0  0
   39.3740   32.2630   41.2160 C   0  0  0  0  0  0  0  0  0  0  0  0
   38.7160   33.6040   40.7830 C   0  0  1  0  0  0  0  0  0  0  0  0
   39.3810   34.1400   39.6290 N   0  0  0  0  0  0  0  0  0  0  0  0
   40.4160   35.1160   39.5370 C   0  0  0  0  0  0  0  0  0  0  0  0
   40.4500   36.3790   39.7130 O   0  0  0  0  0  0  0  0  0  0  0  0
   41.7970   34.6090   39.1420 C   0  0  0  0  0  0  0  0  0  0  0  0
   42.6970   34.2130   40.1240 C   0  0  0  0  0  0  0  0  0  0  0  0
   43.9640   33.7380   39.9500 C   0  0  0  0  0  0  0  0  0  0  0  0
   44.4110   33.6360   38.6560 C   0  0  0  0  0  0  0  0  0  0  0  0
   43.5210   34.0250   37.6880 C   0  0  0  0  0  0  0  0  0  0  0  0
   42.3050   34.4780   37.9300 N   0  0  0  0  0  0  0  0  0  0  0  0
   37.9070   31.7080   39.3750 O   0  0  0  0  0  0  0  0  0  0  0  0
   37.6770   28.1350   39.5100 C   0  0  0  0  0  0  0  0  0  0  0  0
   38.3820   27.8010   38.3350 C   0  0  0  0  0  0  0  0  0  0  0  0
   38.7940   29.5080   37.7760 S   0  0  0  0  0  0  0  0  0  0  0  0
   37.9060   30.3390   39.2810 C   0  0  0  0  0  0  0  0  0  0  0  0
   37.5890   29.4070   39.7360 N   0  0  0  0  0  0  0  0  0  0  0  0
   37.0120   26.7710   40.5230 S   0  0  0  0  0  0  0  0  0  0  0  0
   38.8050   25.1020   41.9100 C   0  0  0  0  0  0  0  0  0  0  0  0
   38.1600   26.3670   41.7930 C   0  0  0  0  0  0  0  0  0  0  0  0
   38.4880   27.2970   42.7530 C   0  0  0  0  0  0  0  0  0  0  0  0
   39.3840   26.9860   43.7410 N   0  0  0  0  0  0  0  0  0  0  0  0
   39.9720   25.7490   43.8000 C   0  0  0  0  0  0  0  0  0  0  0  0
   39.6760   24.8330   42.8890 N   0  0  0  0  0  0  0  0  0  0  0  0
   36.9126   32.1319   40.9897 H   0  0  0  0  0  0  0  0  0  0  0  0
   39.5514   32.0450   42.2795 H   0  0  0  0  0  0  0  0  0  0  0  0
   40.2873   31.7048   40.9624 H   0  0  0  0  0  0  0  0  0  0  0  0
   38.4558   34.5773   41.2247 H   0  0  0  0  0  0  0  0  0  0  0  0
   39.0603   33.7601   38.7269 H   0  0  0  0  0  0  0  0  0  0  0  0
   42.3467   34.2918   41.1637 H   0  0  0  0  0  0  0  0  0  0  0  0
   44.5957   33.4512   40.8036 H   0  0  0  0  0  0  0  0  0  0  0  0
   45.4177   33.2662   38.4115 H   0  0  0  0  0  0  0  0  0  0  0  0
   43.8423   33.9548   36.6383 H   0  0  0  0  0  0  0  0  0  0  0  0
   38.6144   26.8226   37.8893 H   0  0  0  0  0  0  0  0  0  0  0  0
   38.5791   24.3200   41.1701 H   0  0  0  0  0  0  0  0  0  0  0  0
   38.0279   28.2958   42.7266 H   0  0  0  0  0  0  0  0  0  0  0  0
   40.6882   25.5171   44.6020 H   0  0  0  0  0  0  0  0  0  0  0  0
  1  3  1  0
  1  2  1  0
  3  2  1  0
  4  3  1  0
  5  4  1  0
  5  6  2  0
  7  5  1  0
  7  8  2  0
  9  8  1  0
 10  9  2  0
 11 12  2  0
 11 10  1  0
 12  7  1  0
 13  1  1  0
 14 18  1  0
 14 19  1  0
 15 14  2  0
 16 15  1  0
 16 17  1  0
 17 13  1  0
 17 18  2  0
 19 21  1  0
 20 25  2  0
 21 20  1  0
 21 22  2  0
 22 23  1  0
 23 24  2  0
 25 24  1  0
  1 26  1  1
  2 27  1  0
  2 28  1  0
  3 29  1  1
  4 30  1  0
  8 31  1  0
  9 32  1  0
 10 33  1  0
 11 34  1  0
 15 35  1  0
 20 36  1  0
 22 37  1  0
 24 38  1  0
M  ISO  8  26  13  27  13  28  13  29  13  31  14  32  14  33  14  34  14
M  ISO  4  35  14  36  14  37  14  38  14
M  END
>  <minimizedAffinity>  (1) 
-5.08138466

>  <minimizedRMSD>  (1) 
3.11222196

$$$$
