
     RDKit          3D

 39 41  0  0  1  0  0  0  0  0999 V2000
   36.5180   30.3330   39.8200 C   0  0  0  0  0  0  0  0  0  0  0  0
   36.6630   30.0980   38.4560 C   0  0  0  0  0  0  0  0  0  0  0  0
   37.4210   31.7130   37.9900 S   0  0  0  0  0  0  0  0  0  0  0  0
   37.3820   32.3850   39.7950 C   0  0  0  0  0  0  0  0  0  0  0  0
   36.9370   31.4870   40.1770 N   0  0  0  0  0  0  0  0  0  0  0  0
   35.7950   29.0090   40.8490 S   0  0  0  0  0  0  0  0  0  0  0  0
   38.3320   27.8820   41.4000 C   0  0  0  0  0  0  0  0  0  0  0  0
   37.0420   28.2870   41.8650 C   0  0  0  0  0  0  0  0  0  0  0  0
   36.7920   28.0860   43.1900 C   0  0  0  0  0  0  0  0  0  0  0  0
   37.7620   27.5210   43.9920 N   0  0  0  0  0  0  0  0  0  0  0  0
   38.9750   27.1510   43.5050 C   0  0  0  0  0  0  0  0  0  0  0  0
   39.2420   27.3380   42.2130 N   0  0  0  0  0  0  0  0  0  0  0  0
   37.8730   33.6310   39.9860 O   0  0  0  0  0  0  0  0  0  0  0  0
   39.0390   33.8380   40.8400 C   0  0  1  0  0  0  0  0  0  0  0  0
   39.8590   32.5200   40.7570 C   0  0  0  0  0  0  0  0  0  0  0  0
   40.3330   33.8950   40.1900 C   0  0  1  0  0  0  0  0  0  0  0  0
   40.4320   33.8310   38.7530 N   0  0  0  0  0  0  0  0  0  0  0  0
   41.5860   33.7460   37.9150 C   0  0  0  0  0  0  0  0  0  0  0  0
   42.5610   34.4820   37.6380 O   0  0  0  0  0  0  0  0  0  0  0  0
   41.7480   32.5540   37.1620 O   0  0  0  0  0  0  0  0  0  0  0  0
   42.8340   31.6760   37.2650 C   0  0  0  0  0  0  0  0  0  0  0  0
   42.7900   30.5620   36.2520 C   0  0  0  0  0  0  0  0  0  0  0  0
   42.9460   31.1010   38.6840 C   0  0  0  0  0  0  0  0  0  0  0  0
   36.4052   29.2204   37.8450 H   0  0  0  0  0  0  0  0  0  0  0  0
   38.5834   28.0229   40.3384 H   0  0  0  0  0  0  0  0  0  0  0  0
   35.8203   28.3733   43.6181 H   0  0  0  0  0  0  0  0  0  0  0  0
   39.7280   26.7022   44.1695 H   0  0  0  0  0  0  0  0  0  0  0  0
   38.6039   34.5030   41.6005 H   0  0  0  0  0  0  0  0  0  0  0  0
   40.3265   32.0912   41.6557 H   0  0  0  0  0  0  0  0  0  0  0  0
   39.7060   31.5013   40.3711 H   0  0  0  0  0  0  0  0  0  0  0  0
   41.1626   34.6044   40.3260 H   0  0  0  0  0  0  0  0  0  0  0  0
   39.5315   33.8494   38.2533 H   0  0  0  0  0  0  0  0  0  0  0  0
   43.7314   32.2733   37.0464 H   0  0  0  0  0  0  0  0  0  0  0  0
   42.7518   29.5940   36.7730 H   0  0  0  0  0  0  0  0  0  0  0  0
   41.8956   30.6747   35.6216 H   0  0  0  0  0  0  0  0  0  0  0  0
   43.6905   30.6038   35.6216 H   0  0  0  0  0  0  0  0  0  0  0  0
   42.7895   31.9046   39.4187 H   0  0  0  0  0  0  0  0  0  0  0  0
   42.1828   30.3215   38.8251 H   0  0  0  0  0  0  0  0  0  0  0  0
   43.9460   30.6649   38.8251 H   0  0  0  0  0  0  0  0  0  0  0  0
  1  5  1  0
  1  6  1  0
  2  1  2  0
  3  2  1  0
  3  4  1  0
  4 13  1  0
  4  5  2  0
  6  8  1  0
  7  8  2  0
  7 12  1  0
  8  9  1  0
  9 10  2  0
 11 10  1  0
 12 11  2  0
 13 14  1  0
 15 14  1  0
 16 15  1  0
 16 14  1  0
 17 16  1  0
 18 17  1  0
 19 18  2  0
 20 21  1  0
 20 18  1  0
 21 23  1  0
 22 21  1  0
  2 24  1  0
  7 25  1  0
  9 26  1  0
 11 27  1  0
 14 28  1  1
 15 29  1  0
 15 30  1  0
 16 31  1  1
 17 32  1  0
 21 33  1  0
 22 34  1  0
 22 35  1  0
 22 36  1  0
 23 37  1  0
 23 38  1  0
 23 39  1  0
M  ISO  8  24  14  25  14  26  14  27  14  28  13  29  13  30  13  31  13
M  ISO  7  33   8  34   8  35   8  36   8  37   8  38   8  39   8
M  END
>  <minimizedAffinity>  (1) 
-4.84230471

>  <minimizedRMSD>  (1) 
3.23837137

$$$$
