
     RDKit          3D

 36 38  0  0  1  0  0  0  0  0999 V2000
   36.7000   29.0990   38.7180 C   0  0  0  0  0  0  0  0  0  0  0  0
   36.8930   28.9390   37.3350 C   0  0  0  0  0  0  0  0  0  0  0  0
   37.3610   30.6740   36.9310 S   0  0  0  0  0  0  0  0  0  0  0  0
   37.1960   31.2680   38.7650 C   0  0  0  0  0  0  0  0  0  0  0  0
   36.9100   30.2980   39.1270 N   0  0  0  0  0  0  0  0  0  0  0  0
   36.2130   27.6420   39.7050 S   0  0  0  0  0  0  0  0  0  0  0  0
   38.5140   27.1660   41.2850 C   0  0  0  0  0  0  0  0  0  0  0  0
   37.1510   27.5910   41.1980 C   0  0  0  0  0  0  0  0  0  0  0  0
   36.5630   27.9780   42.3680 C   0  0  0  0  0  0  0  0  0  0  0  0
   37.2880   27.9390   43.5440 N   0  0  0  0  0  0  0  0  0  0  0  0
   38.5830   27.5270   43.5770 C   0  0  0  0  0  0  0  0  0  0  0  0
   39.1770   27.1460   42.4480 N   0  0  0  0  0  0  0  0  0  0  0  0
   37.4660   32.5720   38.9960 O   0  0  0  0  0  0  0  0  0  0  0  0
   37.6290   33.0570   40.3640 C   0  0  1  0  0  0  0  0  0  0  0  0
   38.9480   32.4160   40.8800 C   0  0  0  0  0  0  0  0  0  0  0  0
   38.7460   33.9440   40.6210 C   0  0  1  0  0  0  0  0  0  0  0  0
   39.5920   34.3830   39.5410 N   0  0  0  0  0  0  0  0  0  0  0  0
   40.6830   35.3030   39.5500 C   0  0  0  0  0  0  0  0  0  0  0  0
   40.8480   36.5220   39.7610 O   0  0  0  0  0  0  0  0  0  0  0  0
   41.9730   34.7650   39.2450 O   0  0  0  0  0  0  0  0  0  0  0  0
   42.4340   34.7400   37.9010 C   0  0  0  0  0  0  0  0  0  0  0  0
   42.2770   33.3230   37.3930 C   0  0  0  0  0  0  0  0  0  0  0  0
   36.7949   28.0516   36.6924 H   0  0  0  0  0  0  0  0  0  0  0  0
   39.0328   26.8461   40.3693 H   0  0  0  0  0  0  0  0  0  0  0  0
   35.5173   28.3192   42.3745 H   0  0  0  0  0  0  0  0  0  0  0  0
   39.1353   27.5086   44.5281 H   0  0  0  0  0  0  0  0  0  0  0  0
   36.5745   33.1496   40.6630 H   0  0  0  0  0  0  0  0  0  0  0  0
   39.0192   32.0241   41.9053 H   0  0  0  0  0  0  0  0  0  0  0  0
   39.6425   31.6296   40.5495 H   0  0  0  0  0  0  0  0  0  0  0  0
   38.7858   34.8897   41.1814 H   0  0  0  0  0  0  0  0  0  0  0  0
   39.3768   33.9700   38.6223 H   0  0  0  0  0  0  0  0  0  0  0  0
   41.8356   35.4281   37.2858 H   0  0  0  0  0  0  0  0  0  0  0  0
   43.4858   35.0572   37.8460 H   0  0  0  0  0  0  0  0  0  0  0  0
   42.2006   32.6337   38.2469 H   0  0  0  0  0  0  0  0  0  0  0  0
   41.3654   33.2516   36.7815 H   0  0  0  0  0  0  0  0  0  0  0  0
   43.1508   33.0538   36.7815 H   0  0  0  0  0  0  0  0  0  0  0  0
  1  5  1  0
  1  6  1  0
  2  1  2  0
  3  2  1  0
  3  4  1  0
  4 13  1  0
  4  5  2  0
  6  8  1  0
  7 12  2  0
  8  7  1  0
  8  9  2  0
  9 10  1  0
 10 11  2  0
 12 11  1  0
 13 14  1  0
 14 16  1  0
 14 15  1  0
 16 15  1  0
 17 18  1  0
 17 16  1  0
 18 19  2  0
 20 18  1  0
 21 20  1  0
 22 21  1  0
  2 23  1  0
  7 24  1  0
  9 25  1  0
 11 26  1  0
 14 27  1  1
 15 28  1  0
 15 29  1  0
 16 30  1  1
 17 31  1  0
 21 32  1  0
 21 33  1  0
 22 34  1  0
 22 35  1  0
 22 36  1  0
M  ISO  8  23  14  24  14  25  14  26  14  27  13  28  13  29  13  30  13
M  ISO  5  32   8  33   8  34   8  35   8  36   8
M  END
>  <minimizedAffinity>  (1) 
-4.69040251

>  <minimizedRMSD>  (1) 
1.73775125

$$$$
