
     RDKit          3D

 43 45  0  0  1  0  0  0  0  0999 V2000
   37.9910   33.0490   38.8480 O   0  0  0  0  0  0  0  0  0  0  0  0
   37.7610   34.0500   39.9120 C   0  0  1  0  0  0  0  0  0  0  0  0
   38.6860   33.5870   41.0770 C   0  0  0  0  0  0  0  0  0  0  0  0
   38.8700   34.8990   40.2330 C   0  0  1  0  0  0  0  0  0  0  0  0
   40.1070   34.8260   39.4670 N   0  0  0  0  0  0  0  0  0  0  0  0
   41.3220   34.1280   39.7590 C   0  0  0  0  0  0  0  0  0  0  0  0
   42.2140   34.1640   40.6180 O   0  0  0  0  0  0  0  0  0  0  0  0
   41.6150   33.1130   38.8340 O   0  0  0  0  0  0  0  0  0  0  0  0
   41.6390   33.1000   37.5110 C   0  0  0  0  0  0  0  0  0  0  0  0
   40.4920   32.4830   36.9640 N   0  0  0  0  0  0  0  0  0  0  0  0
   42.5700   33.5880   36.8400 O   0  0  0  0  0  0  0  0  0  0  0  0
   36.2460   29.9770   39.2560 C   0  0  0  0  0  0  0  0  0  0  0  0
   36.2810   29.5240   37.9240 C   0  0  0  0  0  0  0  0  0  0  0  0
   37.1980   30.9410   37.1870 S   0  0  0  0  0  0  0  0  0  0  0  0
   37.3470   31.8720   38.8710 C   0  0  0  0  0  0  0  0  0  0  0  0
   36.8230   31.1100   39.4150 N   0  0  0  0  0  0  0  0  0  0  0  0
   35.4430   28.9280   40.5090 S   0  0  0  0  0  0  0  0  0  0  0  0
   37.0470   26.7130   41.3030 C   0  0  0  0  0  0  0  0  0  0  0  0
   36.6730   28.0840   41.4620 C   0  0  0  0  0  0  0  0  0  0  0  0
   37.3300   28.7770   42.4380 C   0  0  0  0  0  0  0  0  0  0  0  0
   38.2960   28.1540   43.2100 N   0  0  0  0  0  0  0  0  0  0  0  0
   38.6140   26.8380   43.0140 C   0  0  0  0  0  0  0  0  0  0  0  0
   37.9890   26.1410   42.0690 N   0  0  0  0  0  0  0  0  0  0  0  0
   39.6650   26.2370   43.8840 C   0  0  0  0  0  0  0  0  0  0  0  0
   40.8980   27.1110   43.9200 C   0  0  0  0  0  0  0  0  0  0  0  0
   39.9330   24.8470   43.3690 C   0  0  0  0  0  0  0  0  0  0  0  0
   36.7075   34.3140   39.7375 H   0  0  0  0  0  0  0  0  0  0  0  0
   38.3435   33.6309   42.1214 H   0  0  0  0  0  0  0  0  0  0  0  0
   39.2830   32.6988   41.3313 H   0  0  0  0  0  0  0  0  0  0  0  0
   38.9008   35.9874   40.3895 H   0  0  0  0  0  0  0  0  0  0  0  0
   40.1073   35.3556   38.5836 H   0  0  0  0  0  0  0  0  0  0  0  0
   40.3858   32.4070   35.9423 H   0  0  0  0  0  0  0  0  0  0  0  0
   39.7618   32.1091   37.5869 H   0  0  0  0  0  0  0  0  0  0  0  0
   35.8834   28.6069   37.4649 H   0  0  0  0  0  0  0  0  0  0  0  0
   36.5481   26.1096   40.5304 H   0  0  0  0  0  0  0  0  0  0  0  0
   37.0905   29.8364   42.6120 H   0  0  0  0  0  0  0  0  0  0  0  0
   39.3303   26.1692   44.9297 H   0  0  0  0  0  0  0  0  0  0  0  0
   41.1769   27.3087   44.9655 H   0  0  0  0  0  0  0  0  0  0  0  0
   41.7265   26.5974   43.4103 H   0  0  0  0  0  0  0  0  0  0  0  0
   40.6877   28.0629   43.4103 H   0  0  0  0  0  0  0  0  0  0  0  0
   40.0654   24.1605   44.2182 H   0  0  0  0  0  0  0  0  0  0  0  0
   39.0828   24.5127   42.7563 H   0  0  0  0  0  0  0  0  0  0  0  0
   40.8466   24.8528   42.7563 H   0  0  0  0  0  0  0  0  0  0  0  0
  1 15  1  0
  1  2  1  0
  2  4  1  0
  2  3  1  0
  4  3  1  0
  5  6  1  0
  5  4  1  0
  6  7  2  0
  8  6  1  0
  9  8  1  0
 10  9  1  0
 11  9  2  0
 12 16  1  0
 12 17  1  0
 13 12  2  0
 14 13  1  0
 14 15  1  0
 15 16  2  0
 17 19  1  0
 18 19  2  0
 18 23  1  0
 19 20  1  0
 20 21  2  0
 22 21  1  0
 22 24  1  0
 23 22  2  0
 24 25  1  0
 26 24  1  0
  2 27  1  1
  3 28  1  0
  3 29  1  0
  4 30  1  1
  5 31  1  0
 10 32  1  0
 10 33  1  0
 13 34  1  0
 18 35  1  0
 20 36  1  0
 24 37  1  0
 25 38  1  0
 25 39  1  0
 25 40  1  0
 26 41  1  0
 26 42  1  0
 26 43  1  0
M  ISO  8  27  13  28  13  29  13  30  13  34  14  35  14  36  14  37   8
M  ISO  6  38   8  39   8  40   8  41   8  42   8  43   8
M  END
>  <minimizedAffinity>  (1) 
-5.73349047

>  <minimizedRMSD>  (1) 
1.63020623

$$$$
