
     RDKit          3D

 29 30  0  0  1  0  0  0  0  0999 V2000
   38.3750   29.3420   43.1730 C   0  0  0  0  0  0  0  0  0  0  0  0
   37.5790   28.2340   43.5340 C   0  0  0  0  0  0  0  0  0  0  0  0
   36.5410   27.8700   42.6790 C   0  0  0  0  0  0  0  0  0  0  0  0
   36.3270   28.5920   41.5240 N   0  0  0  0  0  0  0  0  0  0  0  0
   37.1210   29.6460   41.2280 C   0  0  0  0  0  0  0  0  0  0  0  0
   38.1280   30.0090   42.0450 N   0  0  0  0  0  0  0  0  0  0  0  0
   36.8440   30.3370   40.0490 N   0  0  0  0  0  0  0  0  0  0  0  0
   36.3270   29.7230   38.8280 C   0  0  0  0  0  0  0  0  0  0  0  0
   36.8970   30.5740   37.7310 C   0  0  0  0  0  0  0  0  0  0  0  0
   37.5510   31.7740   38.3880 C   0  0  0  0  0  0  0  0  0  0  0  0
   36.9990   31.7380   39.8090 C   0  0  2  0  0  0  0  0  0  0  0  0
   37.7570   32.4720   40.7540 N   0  0  0  0  0  0  0  0  0  0  0  0
   38.4410   33.7290   40.5720 C   0  0  0  0  0  0  0  0  0  0  0  0
   38.7060   33.9840   39.3130 N   0  0  0  0  0  0  0  0  0  0  0  0
   38.7810   34.5850   41.6390 N   0  0  0  0  0  0  0  0  0  0  0  0
   39.1920   34.8560   39.0550 H   0  0  0  0  0  0  0  0  0  0  0  0
   39.2030   29.6569   43.8251 H   0  0  0  0  0  0  0  0  0  0  0  0
   37.7721   27.6752   44.4616 H   0  0  0  0  0  0  0  0  0  0  0  0
   35.8967   27.0127   42.9236 H   0  0  0  0  0  0  0  0  0  0  0  0
   36.6717   28.6825   38.7362 H   0  0  0  0  0  0  0  0  0  0  0  0
   35.2281   29.6797   38.8057 H   0  0  0  0  0  0  0  0  0  0  0  0
   36.0946   30.9051   37.0553 H   0  0  0  0  0  0  0  0  0  0  0  0
   37.6290   30.0068   37.1372 H   0  0  0  0  0  0  0  0  0  0  0  0
   38.6466   31.6753   38.3879 H   0  0  0  0  0  0  0  0  0  0  0  0
   37.3392   32.7194   37.8671 H   0  0  0  0  0  0  0  0  0  0  0  0
   36.0428   32.2690   39.9264 H   0  0  0  0  0  0  0  0  0  0  0  0
   37.8292   32.0541   41.6927 H   0  0  0  0  0  0  0  0  0  0  0  0
   39.2699   35.4721   41.4519 H   0  0  0  0  0  0  0  0  0  0  0  0
   38.5406   34.3234   42.6058 H   0  0  0  0  0  0  0  0  0  0  0  0
  1  2  2  0
  3  2  1  0
  4  3  2  0
  5  4  1  0
  5  6  2  0
  6  1  1  0
  7  5  1  0
  8  7  1  0
  9 10  1  0
  9  8  1  0
 10 11  1  0
 11  7  1  0
 11 12  1  0
 13 12  1  0
 13 15  1  0
 14 13  2  0
 16 14  1  0
  1 17  1  0
  2 18  1  0
  3 19  1  0
  8 20  1  0
  8 21  1  0
  9 22  1  0
  9 23  1  0
 10 24  1  0
 10 25  1  0
 11 26  1  6
 12 27  1  0
 15 28  1  0
 15 29  1  0
M  ISO  8  17  14  18  14  19  14  20  13  21  13  22  13  23  13  24  13
M  ISO  2  25  13  26  13
M  END
>  <minimizedAffinity>  (1) 
-5.47630596

>  <minimizedRMSD>  (1) 
0.534127772

$$$$
