
     RDKit          3D

 32 34  0  0  1  0  0  0  0  0999 V2000
   38.3740   29.6470   42.7010 C   0  0  0  0  0  0  0  0  0  0  0  0
   37.8740   28.6690   43.5850 C   0  0  0  0  0  0  0  0  0  0  0  0
   36.8350   27.8640   43.1260 C   0  0  0  0  0  0  0  0  0  0  0  0
   36.3660   28.0710   41.8550 N   0  0  0  0  0  0  0  0  0  0  0  0
   36.8700   29.0070   41.0560 C   0  0  0  0  0  0  0  0  0  0  0  0
   37.8730   29.7900   41.4890 N   0  0  0  0  0  0  0  0  0  0  0  0
   36.3440   29.1690   39.7560 N   0  0  0  0  0  0  0  0  0  0  0  0
   35.7300   28.0550   39.0240 C   0  0  0  0  0  0  0  0  0  0  0  0
   36.0210   28.3990   37.5930 C   0  0  0  0  0  0  0  0  0  0  0  0
   36.5630   29.7890   37.5720 C   0  0  0  0  0  0  0  0  0  0  0  0
   36.2980   30.3540   38.9650 C   0  0  2  0  0  0  0  0  0  0  0  0
   37.3140   31.3870   39.2760 C   0  0  0  0  0  0  0  0  0  0  0  0
   37.1720   32.4990   40.0760 C   0  0  0  0  0  0  0  0  0  0  0  0
   38.2060   33.3890   40.2700 C   0  0  0  0  0  0  0  0  0  0  0  0
   39.4450   33.2200   39.6730 C   0  0  0  0  0  0  0  0  0  0  0  0
   39.6260   32.1300   38.8720 C   0  0  0  0  0  0  0  0  0  0  0  0
   38.5820   31.2580   38.6940 C   0  0  0  0  0  0  0  0  0  0  0  0
   39.1955   30.3017   43.0273 H   0  0  0  0  0  0  0  0  0  0  0  0
   38.2882   28.5469   44.5967 H   0  0  0  0  0  0  0  0  0  0  0  0
   36.4017   27.0820   43.7669 H   0  0  0  0  0  0  0  0  0  0  0  0
   36.1905   27.0957   39.3027 H   0  0  0  0  0  0  0  0  0  0  0  0
   34.6570   27.9340   39.2339 H   0  0  0  0  0  0  0  0  0  0  0  0
   36.7632   27.6993   37.1811 H   0  0  0  0  0  0  0  0  0  0  0  0
   35.1090   28.3274   36.9821 H   0  0  0  0  0  0  0  0  0  0  0  0
   37.6426   29.7770   37.3615 H   0  0  0  0  0  0  0  0  0  0  0  0
   36.0893   30.3988   36.7886 H   0  0  0  0  0  0  0  0  0  0  0  0
   35.3504   30.8901   39.1221 H   0  0  0  0  0  0  0  0  0  0  0  0
   36.2079   32.6815   40.5732 H   0  0  0  0  0  0  0  0  0  0  0  0
   38.0426   34.2615   40.9196 H   0  0  0  0  0  0  0  0  0  0  0  0
   40.2578   33.9423   39.8396 H   0  0  0  0  0  0  0  0  0  0  0  0
   40.5926   31.9536   38.3775 H   0  0  0  0  0  0  0  0  0  0  0  0
   38.7540   30.3885   38.0426 H   0  0  0  0  0  0  0  0  0  0  0  0
  1  2  2  0
  3  2  1  0
  4  3  2  0
  5  6  2  0
  5  4  1  0
  6  1  1  0
  7  5  1  0
  8  7  1  0
  9  8  1  0
 10  9  1  0
 10 11  1  0
 11 12  1  0
 11  7  1  0
 12 13  2  0
 13 14  1  0
 15 14  2  0
 16 15  1  0
 17 16  2  0
 17 12  1  0
  1 18  1  0
  2 19  1  0
  3 20  1  0
  8 21  1  0
  8 22  1  0
  9 23  1  0
  9 24  1  0
 10 25  1  0
 10 26  1  0
 11 27  1  6
 13 28  1  0
 14 29  1  0
 15 30  1  0
 16 31  1  0
 17 32  1  0
M  ISO  8  18  14  19  14  20  14  21  13  22  13  23  13  24  13  25  13
M  ISO  7  26  13  27  13  28  14  29  14  30  14  31  14  32  14
M  END
>  <minimizedAffinity>  (1) 
-4.91609383

>  <minimizedRMSD>  (1) 
1.842435

$$$$
