
     RDKit          3D

 28 30  0  0  1  0  0  0  0  0999 V2000
   38.4370   29.2490   42.9870 C   0  0  0  0  0  0  0  0  0  0  0  0
   37.8030   28.2490   43.7540 C   0  0  0  0  0  0  0  0  0  0  0  0
   36.6720   27.6520   43.2060 C   0  0  0  0  0  0  0  0  0  0  0  0
   36.2300   28.0540   41.9650 N   0  0  0  0  0  0  0  0  0  0  0  0
   36.8790   29.0150   41.2810 C   0  0  0  0  0  0  0  0  0  0  0  0
   37.9720   29.6000   41.7980 N   0  0  0  0  0  0  0  0  0  0  0  0
   36.3850   29.3880   40.0160 N   0  0  0  0  0  0  0  0  0  0  0  0
   35.6770   28.4580   39.1410 C   0  0  0  0  0  0  0  0  0  0  0  0
   35.9980   28.9820   37.7730 C   0  0  0  0  0  0  0  0  0  0  0  0
   36.6360   30.3150   37.9450 C   0  0  0  0  0  0  0  0  0  0  0  0
   36.4830   30.6910   39.4080 C   0  0  2  0  0  0  0  0  0  0  0  0
   37.7630   31.4120   39.7720 C   0  0  0  0  0  0  0  0  0  0  0  0
   39.0020   30.9860   39.1970 C   0  0  0  0  0  0  0  0  0  0  0  0
   40.1670   32.1390   39.9380 S   0  0  0  0  0  0  0  0  0  0  0  0
   38.8010   33.0280   40.9170 C   0  0  0  0  0  0  0  0  0  0  0  0
   37.7470   32.4280   40.6120 N   0  0  0  0  0  0  0  0  0  0  0  0
   39.3342   29.7463   43.3841 H   0  0  0  0  0  0  0  0  0  0  0  0
   38.1861   27.9542   44.7421 H   0  0  0  0  0  0  0  0  0  0  0  0
   36.1359   26.8664   43.7586 H   0  0  0  0  0  0  0  0  0  0  0  0
   36.0493   27.4310   39.2697 H   0  0  0  0  0  0  0  0  0  0  0  0
   34.5975   28.4032   39.3449 H   0  0  0  0  0  0  0  0  0  0  0  0
   35.0754   29.0803   37.1821 H   0  0  0  0  0  0  0  0  0  0  0  0
   36.6728   28.2942   37.2424 H   0  0  0  0  0  0  0  0  0  0  0  0
   37.7016   30.2618   37.6774 H   0  0  0  0  0  0  0  0  0  0  0  0
   36.1632   31.0650   37.2939 H   0  0  0  0  0  0  0  0  0  0  0  0
   35.6415   31.3380   39.6966 H   0  0  0  0  0  0  0  0  0  0  0  0
   39.1924   30.1674   38.4873 H   0  0  0  0  0  0  0  0  0  0  0  0
   38.9131   33.8821   41.6011 H   0  0  0  0  0  0  0  0  0  0  0  0
  1  2  2  0
  3  2  1  0
  4  3  2  0
  5  6  2  0
  5  4  1  0
  6  1  1  0
  7  5  1  0
  8  7  1  0
  9 10  1  0
  9  8  1  0
 10 11  1  0
 11 12  1  0
 11  7  1  0
 12 16  1  0
 13 12  2  0
 13 14  1  0
 14 15  1  0
 16 15  2  0
  1 17  1  0
  2 18  1  0
  3 19  1  0
  8 20  1  0
  8 21  1  0
  9 22  1  0
  9 23  1  0
 10 24  1  0
 10 25  1  0
 11 26  1  6
 13 27  1  0
 15 28  1  0
M  ISO  8  17  14  18  14  19  14  20  13  21  13  22  13  23  13  24  13
M  ISO  4  25  13  26  13  27  14  28  14
M  END
>  <minimizedAffinity>  (1) 
-4.53391743

>  <minimizedRMSD>  (1) 
1.26206648

$$$$
