
     RDKit          3D

 25 26  0  0  1  0  0  0  0  0999 V2000
   39.0300   28.0180   42.8190 C   0  0  0  0  0  0  0  0  0  0  0  0
   38.0780   27.3720   43.6370 C   0  0  0  0  0  0  0  0  0  0  0  0
   36.7300   27.4660   43.2630 C   0  0  0  0  0  0  0  0  0  0  0  0
   36.4050   28.1770   42.1290 N   0  0  0  0  0  0  0  0  0  0  0  0
   37.3450   28.7720   41.3860 C   0  0  0  0  0  0  0  0  0  0  0  0
   38.6420   28.6860   41.7390 N   0  0  0  0  0  0  0  0  0  0  0  0
   36.9350   29.4770   40.2440 N   0  0  0  0  0  0  0  0  0  0  0  0
   35.7640   29.1570   39.4530 C   0  0  0  0  0  0  0  0  0  0  0  0
   36.1870   29.5800   38.0560 C   0  0  0  0  0  0  0  0  0  0  0  0
   37.4060   30.4340   38.2190 C   0  0  0  0  0  0  0  0  0  0  0  0
   37.6010   30.6210   39.6780 C   0  0  1  0  0  0  0  0  0  0  0  0
   37.1620   31.9380   40.2360 C   0  0  0  0  0  0  0  0  0  0  0  0
   36.7270   32.8210   39.2980 F   0  0  0  0  0  0  0  0  0  0  0  0
   36.1280   31.6560   41.1250 F   0  0  0  0  0  0  0  0  0  0  0  0
   38.2020   32.4210   41.0070 F   0  0  0  0  0  0  0  0  0  0  0  0
   40.0980   27.9678   43.0774 H   0  0  0  0  0  0  0  0  0  0  0  0
   38.3827   26.8150   44.5353 H   0  0  0  0  0  0  0  0  0  0  0  0
   35.9467   26.9810   43.8640 H   0  0  0  0  0  0  0  0  0  0  0  0
   35.5396   28.0808   39.4919 H   0  0  0  0  0  0  0  0  0  0  0  0
   34.8478   29.6544   39.8039 H   0  0  0  0  0  0  0  0  0  0  0  0
   35.3827   30.1546   37.5734 H   0  0  0  0  0  0  0  0  0  0  0  0
   36.3969   28.7053   37.4229 H   0  0  0  0  0  0  0  0  0  0  0  0
   38.2816   29.9332   37.7802 H   0  0  0  0  0  0  0  0  0  0  0  0
   37.2843   31.4005   37.7081 H   0  0  0  0  0  0  0  0  0  0  0  0
   38.6684   30.6696   39.9392 H   0  0  0  0  0  0  0  0  0  0  0  0
  1  2  2  0
  3  2  1  0
  4  3  2  0
  5  6  2  0
  5  4  1  0
  6  1  1  0
  7  5  1  0
  8  7  1  0
  9 10  1  0
  9  8  1  0
 10 11  1  0
 11 12  1  0
 11  7  1  0
 12 15  1  0
 12 14  1  0
 13 12  1  0
  1 16  1  0
  2 17  1  0
  3 18  1  0
  8 19  1  0
  8 20  1  0
  9 21  1  0
  9 22  1  0
 10 23  1  0
 10 24  1  0
 11 25  1  6
M  ISO  8  16  14  17  14  18  14  19  13  20  13  21  13  22  13  23  13
M  ISO  2  24  13  25  13
M  END
>  <minimizedAffinity>  (1) 
-4.53356647

>  <minimizedRMSD>  (1) 
1.27688706

$$$$
