
     RDKit          3D

 11 11  0  0  0  0  0  0  0  0999 V2000
   38.6580   31.5480   39.9940 C   0  0  0  0  0  0  0  0  0  0  0  0
   39.6860   31.6680   39.0380 C   0  0  0  0  0  0  0  0  0  0  0  0
   40.3440   32.9000   38.9270 C   0  0  0  0  0  0  0  0  0  0  0  0
   39.9450   33.9020   39.7530 N   0  0  0  0  0  0  0  0  0  0  0  0
   38.9600   33.7610   40.6580 C   0  0  0  0  0  0  0  0  0  0  0  0
   38.3110   32.5770   40.7800 N   0  0  0  0  0  0  0  0  0  0  0  0
   41.6550   33.1020   37.7310 S   0  0  0  0  0  0  0  0  0  0  0  0
   38.1287   30.5893   40.0976 H   0  0  0  0  0  0  0  0  0  0  0  0
   39.9641   30.8185   38.3969 H   0  0  0  0  0  0  0  0  0  0  0  0
   38.6803   34.6086   41.3009 H   0  0  0  0  0  0  0  0  0  0  0  0
   42.8451   33.2854   38.3845 H   0  0  0  0  0  0  0  0  0  0  0  0
  1  6  2  0
  2  1  1  0
  3  2  2  0
  3  4  1  0
  4  5  2  0
  5  6  1  0
  7  3  1  0
  1  8  1  0
  2  9  1  0
  5 10  1  0
  7 11  1  0
M  ISO  4   8  14   9  14  10  14  11  11
M  END
>  <minimizedAffinity>  (1) 
-1.9882164

>  <minimizedRMSD>  (1) 
6.78025532

$$$$
