
     RDKit          3D

 28 30  0  0  1  0  0  0  0  0999 V2000
   38.7260   28.6850   42.8580 C   0  0  0  0  0  0  0  0  0  0  0  0
   37.9720   27.8170   43.6790 C   0  0  0  0  0  0  0  0  0  0  0  0
   36.6580   27.5090   43.2820 C   0  0  0  0  0  0  0  0  0  0  0  0
   36.1790   28.0670   42.1240 N   0  0  0  0  0  0  0  0  0  0  0  0
   36.9350   28.8860   41.3790 C   0  0  0  0  0  0  0  0  0  0  0  0
   38.1970   29.1920   41.7430 N   0  0  0  0  0  0  0  0  0  0  0  0
   36.3600   29.4080   40.2110 N   0  0  0  0  0  0  0  0  0  0  0  0
   35.3610   28.7370   39.4070 C   0  0  0  0  0  0  0  0  0  0  0  0
   35.6090   29.2650   38.0200 C   0  0  0  0  0  0  0  0  0  0  0  0
   36.5950   30.3850   38.1440 C   0  0  0  0  0  0  0  0  0  0  0  0
   36.6600   30.6850   39.6160 C   0  0  2  0  0  0  0  0  0  0  0  0
   37.9140   31.2470   40.0260 N   0  0  0  0  0  0  0  0  0  0  0  0
   39.1130   30.9520   39.4900 C   0  0  0  0  0  0  0  0  0  0  0  0
   40.0910   31.6470   40.0960 N   0  0  0  0  0  0  0  0  0  0  0  0
   39.4570   32.3920   41.0370 C   0  0  0  0  0  0  0  0  0  0  0  0
   38.1380   32.1450   40.9900 N   0  0  0  0  0  0  0  0  0  0  0  0
   39.7570   28.9448   43.1402 H   0  0  0  0  0  0  0  0  0  0  0  0
   38.3993   27.3949   44.6005 H   0  0  0  0  0  0  0  0  0  0  0  0
   36.0300   26.8371   43.8854 H   0  0  0  0  0  0  0  0  0  0  0  0
   35.4969   27.6460   39.4419 H   0  0  0  0  0  0  0  0  0  0  0  0
   34.3351   28.9229   39.7577 H   0  0  0  0  0  0  0  0  0  0  0  0
   34.6697   29.6360   37.5841 H   0  0  0  0  0  0  0  0  0  0  0  0
   35.9977   28.4726   37.3635 H   0  0  0  0  0  0  0  0  0  0  0  0
   37.5814   30.0750   37.7687 H   0  0  0  0  0  0  0  0  0  0  0  0
   36.2966   31.2652   37.5557 H   0  0  0  0  0  0  0  0  0  0  0  0
   35.9563   31.4691   39.9322 H   0  0  0  0  0  0  0  0  0  0  0  0
   39.2710   30.2388   38.6675 H   0  0  0  0  0  0  0  0  0  0  0  0
   39.9479   33.0902   41.7309 H   0  0  0  0  0  0  0  0  0  0  0  0
  1  2  2  0
  3  2  1  0
  4  3  2  0
  5  6  2  0
  5  4  1  0
  6  1  1  0
  7  5  1  0
  8  7  1  0
  9 10  1  0
  9  8  1  0
 10 11  1  0
 11 12  1  0
 11  7  1  0
 12 16  1  0
 13 12  1  0
 13 14  2  0
 14 15  1  0
 16 15  2  0
  1 17  1  0
  2 18  1  0
  3 19  1  0
  8 20  1  0
  8 21  1  0
  9 22  1  0
  9 23  1  0
 10 24  1  0
 10 25  1  0
 11 26  1  6
 13 27  1  0
 15 28  1  0
M  ISO  8  17  14  18  14  19  14  20  13  21  13  22  13  23  13  24  13
M  ISO  4  25  13  26  13  27  14  28  14
M  END
>  <minimizedAffinity>  (1) 
-4.39525366

>  <minimizedRMSD>  (1) 
1.43786228

$$$$
