
     RDKit          3D

 34 35  0  0  1  0  0  0  0  0999 V2000
   40.0360   27.6820   42.3950 C   0  0  0  0  0  0  0  0  0  0  0  0
   39.3350   27.2080   43.5500 C   0  0  0  0  0  0  0  0  0  0  0  0
   37.9240   27.2880   43.5610 C   0  0  0  0  0  0  0  0  0  0  0  0
   37.3140   27.8170   42.4560 N   0  0  0  0  0  0  0  0  0  0  0  0
   37.9990   28.2500   41.3980 C   0  0  0  0  0  0  0  0  0  0  0  0
   39.3630   28.1850   41.3600 N   0  0  0  0  0  0  0  0  0  0  0  0
   37.3000   28.7790   40.3070 N   0  0  0  0  0  0  0  0  0  0  0  0
   35.9740   28.3560   39.9170 C   0  0  0  0  0  0  0  0  0  0  0  0
   35.9290   28.5900   38.4300 C   0  0  0  0  0  0  0  0  0  0  0  0
   37.1280   29.4610   38.1270 C   0  0  0  0  0  0  0  0  0  0  0  0
   37.7650   29.7980   39.4150 C   0  0  1  0  0  0  0  0  0  0  0  0
   37.5000   31.1950   39.9030 C   0  0  0  0  0  0  0  0  0  0  0  0
   36.3470   31.2710   40.8610 C   0  0  0  0  0  0  0  0  0  0  0  0
   38.7240   31.7830   40.5740 C   0  0  0  0  0  0  0  0  0  0  0  0
   37.1780   32.0900   38.7240 C   0  0  0  0  0  0  0  0  0  0  0  0
   41.1343   27.6309   42.3616 H   0  0  0  0  0  0  0  0  0  0  0  0
   39.8819   26.7913   44.4087 H   0  0  0  0  0  0  0  0  0  0  0  0
   37.3387   26.9386   44.4243 H   0  0  0  0  0  0  0  0  0  0  0  0
   35.8211   27.2915   40.1484 H   0  0  0  0  0  0  0  0  0  0  0  0
   35.1845   28.9041   40.4520 H   0  0  0  0  0  0  0  0  0  0  0  0
   35.9990   27.6357   37.8874 H   0  0  0  0  0  0  0  0  0  0  0  0
   34.9873   29.0651   38.1178 H   0  0  0  0  0  0  0  0  0  0  0  0
   37.8376   28.9150   37.4880 H   0  0  0  0  0  0  0  0  0  0  0  0
   36.8209   30.3734   37.5949 H   0  0  0  0  0  0  0  0  0  0  0  0
   38.8614   29.8106   39.3270 H   0  0  0  0  0  0  0  0  0  0  0  0
   36.7258   31.2460   41.8934 H   0  0  0  0  0  0  0  0  0  0  0  0
   35.7942   32.2075   40.6958 H   0  0  0  0  0  0  0  0  0  0  0  0
   35.6760   30.4151   40.6958 H   0  0  0  0  0  0  0  0  0  0  0  0
   38.6062   31.7264   41.6662 H   0  0  0  0  0  0  0  0  0  0  0  0
   39.6163   31.2152   40.2716 H   0  0  0  0  0  0  0  0  0  0  0  0
   38.8385   32.8344   40.2716 H   0  0  0  0  0  0  0  0  0  0  0  0
   36.8268   33.0661   39.0898 H   0  0  0  0  0  0  0  0  0  0  0  0
   38.0818   32.2309   38.1130 H   0  0  0  0  0  0  0  0  0  0  0  0
   36.3916   31.6228   38.1130 H   0  0  0  0  0  0  0  0  0  0  0  0
  1  2  2  0
  2  3  1  0
  4  3  2  0
  5  4  1  0
  6  5  2  0
  6  1  1  0
  7  5  1  0
  8  7  1  0
  9  8  1  0
 10  9  1  0
 10 11  1  0
 11 12  1  0
 11  7  1  0
 12 14  1  0
 12 13  1  0
 15 12  1  0
  1 16  1  0
  2 17  1  0
  3 18  1  0
  8 19  1  0
  8 20  1  0
  9 21  1  0
  9 22  1  0
 10 23  1  0
 10 24  1  0
 11 25  1  6
 13 26  1  0
 13 27  1  0
 13 28  1  0
 14 29  1  0
 14 30  1  0
 14 31  1  0
 15 32  1  0
 15 33  1  0
 15 34  1  0
M  ISO  8  16  14  17  14  18  14  19  13  20  13  21  13  22  13  23  13
M  ISO  8  24  13  25  13  26   8  27   8  28   8  29   8  30   8  31   8
M  ISO  3  32   8  33   8  34   8
M  END
>  <minimizedAffinity>  (1) 
-4.01592588

>  <minimizedRMSD>  (1) 
2.11270761

$$$$
