
     RDKit          3D

 23 24  0  0  1  0  0  0  0  0999 V2000
   38.3970   28.9940   43.2040 C   0  0  0  0  0  0  0  0  0  0  0  0
   37.7010   27.9120   43.7870 C   0  0  0  0  0  0  0  0  0  0  0  0
   36.5540   27.4620   43.1290 C   0  0  0  0  0  0  0  0  0  0  0  0
   36.1830   28.0920   41.9730 N   0  0  0  0  0  0  0  0  0  0  0  0
   36.8780   29.1200   41.4530 C   0  0  0  0  0  0  0  0  0  0  0  0
   38.0050   29.5840   42.0740 N   0  0  0  0  0  0  0  0  0  0  0  0
   36.4190   29.7010   40.2630 N   0  0  0  0  0  0  0  0  0  0  0  0
   35.6720   29.0010   39.2470 C   0  0  0  0  0  0  0  0  0  0  0  0
   36.0970   29.6710   37.9580 C   0  0  0  0  0  0  0  0  0  0  0  0
   36.8720   30.9010   38.3590 C   0  0  0  0  0  0  0  0  0  0  0  0
   36.5990   31.0640   39.8430 C   0  0  2  0  0  0  0  0  0  0  0  0
   37.9880   31.8350   40.6870 S   0  0  0  0  0  0  0  0  0  0  0  0
   39.3029   29.3667   43.7044 H   0  0  0  0  0  0  0  0  0  0  0  0
   38.0476   27.4435   44.7199 H   0  0  0  0  0  0  0  0  0  0  0  0
   35.9651   26.6237   43.5296 H   0  0  0  0  0  0  0  0  0  0  0  0
   35.9315   27.9321   39.2368 H   0  0  0  0  0  0  0  0  0  0  0  0
   34.5853   29.0470   39.4113 H   0  0  0  0  0  0  0  0  0  0  0  0
   35.2141   29.9529   37.3656 H   0  0  0  0  0  0  0  0  0  0  0  0
   36.7068   28.9973   37.3381 H   0  0  0  0  0  0  0  0  0  0  0  0
   37.9473   30.7583   38.1761 H   0  0  0  0  0  0  0  0  0  0  0  0
   36.5717   31.7878   37.7815 H   0  0  0  0  0  0  0  0  0  0  0  0
   35.7410   31.7146   40.0677 H   0  0  0  0  0  0  0  0  0  0  0  0
   37.8108   31.7366   42.0419 H   0  0  0  0  0  0  0  0  0  0  0  0
  1  2  2  0
  3  2  1  0
  4  3  2  0
  5  4  1  0
  5  6  2  0
  6  1  1  0
  7  5  1  0
  8  7  1  0
  9 10  1  0
  9  8  1  0
 10 11  1  0
 11  7  1  0
 11 12  1  0
  1 13  1  0
  2 14  1  0
  3 15  1  0
  8 16  1  0
  8 17  1  0
  9 18  1  0
  9 19  1  0
 10 20  1  0
 10 21  1  0
 11 22  1  6
 12 23  1  0
M  ISO  8  13  14  14  14  15  14  16  13  17  13  18  13  19  13  20  13
M  ISO  3  21  13  22  13  23  11
M  END
>  <minimizedAffinity>  (1) 
-3.99311781

>  <minimizedRMSD>  (1) 
0.57154119

$$$$
