
     RDKit          3D

 51 56  0  0  1  0  0  0  0  0999 V2000
   37.1980   28.6460   41.5330 C   0  0  0  0  0  0  0  0  0  0  0  0
   37.5720   29.1640   42.7960 C   0  0  0  0  0  0  0  0  0  0  0  0
   37.7350   28.3670   43.9400 C   0  0  0  0  0  0  0  0  0  0  0  0
   37.5260   26.9900   43.8350 C   0  0  0  0  0  0  0  0  0  0  0  0
   37.1640   26.4440   42.6160 C   0  0  0  0  0  0  0  0  0  0  0  0
   37.0060   25.0870   42.4670 C   0  0  0  0  0  0  0  0  0  0  0  0
   36.6950   24.5050   41.2420 C   0  0  0  0  0  0  0  0  0  0  0  0
   36.5510   25.3990   40.1710 C   0  0  0  0  0  0  0  0  0  0  0  0
   36.7140   26.7630   40.3510 C   0  0  0  0  0  0  0  0  0  0  0  0
   37.0220   27.2980   41.5560 C   0  0  0  0  0  0  0  0  0  0  0  0
   41.1900   28.4980   40.8610 C   0  0  0  0  0  0  0  0  0  0  0  0
   42.0410   28.7320   39.7570 C   0  0  0  0  0  0  0  0  0  0  0  0
   41.5300   29.4850   38.6990 C   0  0  0  0  0  0  0  0  0  0  0  0
   40.2330   29.9610   38.7790 N   0  0  0  0  0  0  0  0  0  0  0  0
   39.4810   29.7070   39.8480 C   0  0  0  0  0  0  0  0  0  0  0  0
   39.9560   28.9900   40.8600 N   0  0  0  0  0  0  0  0  0  0  0  0
   38.1870   30.1930   39.8870 N   0  0  0  0  0  0  0  0  0  0  0  0
   37.7500   31.3940   39.1610 C   0  0  0  0  0  0  0  0  0  0  0  0
   36.6170   31.9170   39.9650 C   0  0  0  0  0  0  0  0  0  0  0  0
   36.3950   30.9380   41.0850 C   0  0  0  0  0  0  0  0  0  0  0  0
   36.9930   29.6550   40.5590 C   0  0  2  0  0  0  0  0  0  0  0  0
   36.4160   27.3450   39.0930 N   0  0  0  0  0  0  0  0  0  0  0  0
   35.4660   28.0420   38.4290 C   0  0  0  0  0  0  0  0  0  0  0  0
   35.8880   28.3880   37.2050 N   0  0  0  0  0  0  0  0  0  0  0  0
   37.1390   27.9430   36.9890 C   0  0  0  0  0  0  0  0  0  0  0  0
   37.9380   28.0780   35.8800 C   0  0  0  0  0  0  0  0  0  0  0  0
   39.1550   27.5140   35.9760 N   0  0  0  0  0  0  0  0  0  0  0  0
   39.5320   26.8780   37.0750 C   0  0  0  0  0  0  0  0  0  0  0  0
   38.7340   26.7580   38.1470 N   0  0  0  0  0  0  0  0  0  0  0  0
   37.4730   27.2850   38.1830 C   0  0  0  0  0  0  0  0  0  0  0  0
   37.4480   28.7790   34.7440 N   0  0  0  0  0  0  0  0  0  0  0  0
   37.7438   30.2468   42.8857 H   0  0  0  0  0  0  0  0  0  0  0  0
   38.0220   28.8185   44.9012 H   0  0  0  0  0  0  0  0  0  0  0  0
   37.6485   26.3432   44.7163 H   0  0  0  0  0  0  0  0  0  0  0  0
   37.1297   24.4384   43.3468 H   0  0  0  0  0  0  0  0  0  0  0  0
   36.5707   23.4187   41.1219 H   0  0  0  0  0  0  0  0  0  0  0  0
   36.3046   25.0108   39.1717 H   0  0  0  0  0  0  0  0  0  0  0  0
   41.5485   27.9100   41.7188 H   0  0  0  0  0  0  0  0  0  0  0  0
   43.0669   28.3357   39.7327 H   0  0  0  0  0  0  0  0  0  0  0  0
   42.1489   29.6970   37.8147 H   0  0  0  0  0  0  0  0  0  0  0  0
   38.5627   32.1333   39.1060 H   0  0  0  0  0  0  0  0  0  0  0  0
   37.4623   31.1755   38.1220 H   0  0  0  0  0  0  0  0  0  0  0  0
   36.8661   32.9083   40.3715 H   0  0  0  0  0  0  0  0  0  0  0  0
   35.7119   32.0267   39.3495 H   0  0  0  0  0  0  0  0  0  0  0  0
   36.9100   31.2650   42.0003 H   0  0  0  0  0  0  0  0  0  0  0  0
   35.3345   30.8347   41.3584 H   0  0  0  0  0  0  0  0  0  0  0  0
   36.3446   29.0721   39.8883 H   0  0  0  0  0  0  0  0  0  0  0  0
   34.4767   28.2921   38.8398 H   0  0  0  0  0  0  0  0  0  0  0  0
   40.5367   26.4316   37.1102 H   0  0  0  0  0  0  0  0  0  0  0  0
   36.4997   29.1808   34.7564 H   0  0  0  0  0  0  0  0  0  0  0  0
   38.0414   28.8849   33.9088 H   0  0  0  0  0  0  0  0  0  0  0  0
  1 10  1  0
  1  2  2  0
  2  3  1  0
  4  3  2  0
  5  4  1  0
  6  5  2  0
  7  6  1  0
  8  9  1  0
  8  7  2  0
  9 10  2  0
 10  5  1  0
 12 11  2  0
 13 14  2  0
 13 12  1  0
 14 15  1  0
 15 17  1  0
 15 16  2  0
 16 11  1  0
 17 21  1  0
 18 17  1  0
 18 19  1  0
 19 20  1  0
 21 20  1  0
 21  1  1  0
 22  9  1  0
 23 22  1  0
 24 23  2  0
 25 24  1  0
 25 30  2  0
 26 27  2  0
 26 25  1  0
 27 28  1  0
 28 29  2  0
 29 30  1  0
 30 22  1  0
 31 26  1  0
  2 32  1  0
  3 33  1  0
  4 34  1  0
  6 35  1  0
  7 36  1  0
  8 37  1  0
 11 38  1  0
 12 39  1  0
 13 40  1  0
 18 41  1  0
 18 42  1  0
 19 43  1  0
 19 44  1  0
 20 45  1  0
 20 46  1  0
 21 47  1  6
 23 48  1  0
 28 49  1  0
 31 50  1  0
 31 51  1  0
M  ISO  8  32  14  33  14  34  14  35  14  36  14  37  14  38  14  39  14
M  ISO  8  40  14  41  13  42  13  43  13  44  13  45  13  46  13  47  13
M  ISO  2  48  14  49  14
M  END
>  <minimizedAffinity>  (1) 
-6.83810377

>  <minimizedRMSD>  (1) 
0.644136548

$$$$
