
     RDKit          3D

 52 56  0  0  1  0  0  0  0  0999 V2000
   37.3470   28.8220   41.3450 C   0  0  0  0  0  0  0  0  0  0  0  0
   37.5130   29.2710   42.6710 C   0  0  0  0  0  0  0  0  0  0  0  0
   37.4490   28.4260   43.7910 C   0  0  0  0  0  0  0  0  0  0  0  0
   37.2170   27.0620   43.5900 C   0  0  0  0  0  0  0  0  0  0  0  0
   37.0530   26.5750   42.3000 C   0  0  0  0  0  0  0  0  0  0  0  0
   36.8800   25.2370   42.0610 C   0  0  0  0  0  0  0  0  0  0  0  0
   36.7650   24.7260   40.7610 C   0  0  0  0  0  0  0  0  0  0  0  0
   36.8350   25.6650   39.7320 C   0  0  0  0  0  0  0  0  0  0  0  0
   37.0110   27.0160   40.0160 C   0  0  0  0  0  0  0  0  0  0  0  0
   37.1260   27.4820   41.2780 C   0  0  0  0  0  0  0  0  0  0  0  0
   41.3710   28.9550   41.8310 C   0  0  0  0  0  0  0  0  0  0  0  0
   42.4790   29.3090   41.0250 C   0  0  0  0  0  0  0  0  0  0  0  0
   42.2300   30.0900   39.9000 C   0  0  0  0  0  0  0  0  0  0  0  0
   40.9300   30.4800   39.6220 N   0  0  0  0  0  0  0  0  0  0  0  0
   39.9280   30.1140   40.4220 C   0  0  0  0  0  0  0  0  0  0  0  0
   40.1550   29.3680   41.4990 N   0  0  0  0  0  0  0  0  0  0  0  0
   38.6480   30.5280   40.1160 N   0  0  0  0  0  0  0  0  0  0  0  0
   38.3430   31.7470   39.3630 C   0  0  0  0  0  0  0  0  0  0  0  0
   37.0030   32.1610   39.8510 C   0  0  0  0  0  0  0  0  0  0  0  0
   36.5280   31.0770   40.7740 C   0  0  0  0  0  0  0  0  0  0  0  0
   37.3530   29.8650   40.3900 C   0  0  2  0  0  0  0  0  0  0  0  0
   36.8990   27.6470   38.7450 N   0  0  0  0  0  0  0  0  0  0  0  0
   37.9130   27.3850   37.6850 C   0  0  0  0  0  0  0  0  0  0  0  0
   38.7200   28.6250   37.3920 C   0  0  0  0  0  0  0  0  0  0  0  0
   37.8290   29.5460   36.7110 N   0  0  0  0  0  0  0  0  0  0  0  0
   36.8140   29.8610   37.6680 C   0  0  0  0  0  0  0  0  0  0  0  0
   36.0340   28.6560   38.1300 C   0  0  0  0  0  0  0  0  0  0  0  0
   37.7030   30.3416   42.8375 H   0  0  0  0  0  0  0  0  0  0  0  0
   37.5788   28.8293   44.8061 H   0  0  0  0  0  0  0  0  0  0  0  0
   37.1646   26.3778   44.4497 H   0  0  0  0  0  0  0  0  0  0  0  0
   36.8299   24.5440   42.9138 H   0  0  0  0  0  0  0  0  0  0  0  0
   36.6282   23.6523   40.5646 H   0  0  0  0  0  0  0  0  0  0  0  0
   36.7503   25.3346   38.6862 H   0  0  0  0  0  0  0  0  0  0  0  0
   41.5178   28.3390   42.7304 H   0  0  0  0  0  0  0  0  0  0  0  0
   43.4977   28.9797   41.2777 H   0  0  0  0  0  0  0  0  0  0  0  0
   43.0555   30.3939   39.2396 H   0  0  0  0  0  0  0  0  0  0  0  0
   38.3165   31.5403   38.2829 H   0  0  0  0  0  0  0  0  0  0  0  0
   39.1016   32.5299   39.5101 H   0  0  0  0  0  0  0  0  0  0  0  0
   37.0748   33.1158   40.3924 H   0  0  0  0  0  0  0  0  0  0  0  0
   36.3033   32.3039   39.0144 H   0  0  0  0  0  0  0  0  0  0  0  0
   36.7076   31.3532   41.8235 H   0  0  0  0  0  0  0  0  0  0  0  0
   35.4472   30.8937   40.6835 H   0  0  0  0  0  0  0  0  0  0  0  0
   36.9788   29.2799   39.5370 H   0  0  0  0  0  0  0  0  0  0  0  0
   38.5898   26.5868   38.0238 H   0  0  0  0  0  0  0  0  0  0  0  0
   37.3897   27.0817   36.7662 H   0  0  0  0  0  0  0  0  0  0  0  0
   39.0841   29.0715   38.3291 H   0  0  0  0  0  0  0  0  0  0  0  0
   39.5983   28.3905   36.7727 H   0  0  0  0  0  0  0  0  0  0  0  0
   38.3359   30.3970   36.4286 H   0  0  0  0  0  0  0  0  0  0  0  0
   37.2918   30.3242   38.5438 H   0  0  0  0  0  0  0  0  0  0  0  0
   36.1023   30.5402   37.1759 H   0  0  0  0  0  0  0  0  0  0  0  0
   35.2847   28.9791   38.8677 H   0  0  0  0  0  0  0  0  0  0  0  0
   35.5549   28.2027   37.2497 H   0  0  0  0  0  0  0  0  0  0  0  0
  1  2  2  0
  2  3  1  0
  4  3  2  0
  5  4  1  0
  6  5  2  0
  7  6  1  0
  8  9  1  0
  8  7  2  0
  9 10  2  0
 10  1  1  0
 10  5  1  0
 12 11  2  0
 13 12  1  0
 14 13  2  0
 14 15  1  0
 15 16  2  0
 16 11  1  0
 17 21  1  0
 17 15  1  0
 18 19  1  0
 18 17  1  0
 19 20  1  0
 21 20  1  0
 21  1  1  0
 22  9  1  0
 23 22  1  0
 24 23  1  0
 25 24  1  0
 25 26  1  0
 26 27  1  0
 27 22  1  0
  2 28  1  0
  3 29  1  0
  4 30  1  0
  6 31  1  0
  7 32  1  0
  8 33  1  0
 11 34  1  0
 12 35  1  0
 13 36  1  0
 18 37  1  0
 18 38  1  0
 19 39  1  0
 19 40  1  0
 20 41  1  0
 20 42  1  0
 21 43  1  6
 23 44  1  0
 23 45  1  0
 24 46  1  0
 24 47  1  0
 25 48  1  0
 26 49  1  0
 26 50  1  0
 27 51  1  0
 27 52  1  0
M  ISO  8  28  14  29  14  30  14  31  14  32  14  33  14  34  14  35  14
M  ISO  8  36  14  37  13  38  13  39  13  40  13  41  13  42  13  43  13
M  ISO  8  44  13  45  13  46  13  47  13  48   5  49  13  50  13  51  13
M  ISO  1  52  13
M  END
>  <minimizedAffinity>  (1) 
-6.50270081

>  <minimizedRMSD>  (1) 
1.0366981

$$$$
