
     RDKit          3D

 45 49  0  0  1  0  0  0  0  0999 V2000
   37.2830   28.7890   41.3120 C   0  0  0  0  0  0  0  0  0  0  0  0
   37.4980   29.3380   42.6030 C   0  0  0  0  0  0  0  0  0  0  0  0
   37.5160   28.5650   43.7700 C   0  0  0  0  0  0  0  0  0  0  0  0
   37.3170   27.1840   43.6690 C   0  0  0  0  0  0  0  0  0  0  0  0
   37.1070   26.6100   42.4240 C   0  0  0  0  0  0  0  0  0  0  0  0
   36.9450   25.2570   42.2710 C   0  0  0  0  0  0  0  0  0  0  0  0
   36.7680   24.6540   41.0440 C   0  0  0  0  0  0  0  0  0  0  0  0
   36.7620   25.5230   39.9500 C   0  0  0  0  0  0  0  0  0  0  0  0
   36.9270   26.8920   40.1160 C   0  0  0  0  0  0  0  0  0  0  0  0
   37.1030   27.4420   41.3430 C   0  0  0  0  0  0  0  0  0  0  0  0
   41.3050   28.4900   40.9970 C   0  0  0  0  0  0  0  0  0  0  0  0
   42.2600   28.6640   39.9700 C   0  0  0  0  0  0  0  0  0  0  0  0
   41.8720   29.4060   38.8530 C   0  0  0  0  0  0  0  0  0  0  0  0
   40.5930   29.9230   38.8120 N   0  0  0  0  0  0  0  0  0  0  0  0
   39.7370   29.7280   39.8050 C   0  0  0  0  0  0  0  0  0  0  0  0
   40.0950   29.0240   40.8730 N   0  0  0  0  0  0  0  0  0  0  0  0
   38.4560   30.2400   39.7060 N   0  0  0  0  0  0  0  0  0  0  0  0
   38.1180   31.4130   38.8860 C   0  0  0  0  0  0  0  0  0  0  0  0
   36.9280   31.9950   39.5600 C   0  0  0  0  0  0  0  0  0  0  0  0
   36.6440   31.1120   40.7430 C   0  0  0  0  0  0  0  0  0  0  0  0
   37.1930   29.7770   40.2950 C   0  0  2  0  0  0  0  0  0  0  0  0
   36.7810   27.4660   38.7920 C   0  0  0  0  0  0  0  0  0  0  0  0
   37.4090   27.7900   37.6080 C   0  0  0  0  0  0  0  0  0  0  0  0
   36.5670   28.2360   36.6710 N   0  0  0  0  0  0  0  0  0  0  0  0
   35.3210   28.2400   37.1630 C   0  0  0  0  0  0  0  0  0  0  0  0
   35.4620   27.7730   38.4410 N   0  0  0  0  0  0  0  0  0  0  0  0
   37.6581   30.4227   42.6908 H   0  0  0  0  0  0  0  0  0  0  0  0
   37.6838   29.0356   44.7500 H   0  0  0  0  0  0  0  0  0  0  0  0
   37.3270   26.5565   44.5724 H   0  0  0  0  0  0  0  0  0  0  0  0
   36.9568   24.6228   43.1697 H   0  0  0  0  0  0  0  0  0  0  0  0
   36.6407   23.5669   40.9342 H   0  0  0  0  0  0  0  0  0  0  0  0
   36.6239   25.1151   38.9378 H   0  0  0  0  0  0  0  0  0  0  0  0
   41.5631   27.9134   41.8975 H   0  0  0  0  0  0  0  0  0  0  0  0
   43.2687   28.2321   40.0476 H   0  0  0  0  0  0  0  0  0  0  0  0
   42.5721   29.5753   38.0216 H   0  0  0  0  0  0  0  0  0  0  0  0
   37.8756   31.1127   37.8559 H   0  0  0  0  0  0  0  0  0  0  0  0
   38.9506   32.1276   38.8074 H   0  0  0  0  0  0  0  0  0  0  0  0
   37.1419   33.0215   39.8926 H   0  0  0  0  0  0  0  0  0  0  0  0
   36.0652   32.0440   38.8794 H   0  0  0  0  0  0  0  0  0  0  0  0
   37.1635   31.4736   41.6426 H   0  0  0  0  0  0  0  0  0  0  0  0
   35.5797   31.0779   41.0189 H   0  0  0  0  0  0  0  0  0  0  0  0
   36.5576   29.2063   39.6018 H   0  0  0  0  0  0  0  0  0  0  0  0
   38.4932   27.6914   37.4507 H   0  0  0  0  0  0  0  0  0  0  0  0
   34.3954   28.5485   36.6550 H   0  0  0  0  0  0  0  0  0  0  0  0
   34.6681   27.6577   39.0870 H   0  0  0  0  0  0  0  0  0  0  0  0
  1 10  1  0
  1  2  2  0
  2  3  1  0
  4  3  2  0
  5  4  1  0
  6  5  2  0
  7  6  1  0
  8  9  1  0
  8  7  2  0
  9 10  2  0
 10  5  1  0
 12 11  2  0
 13 12  1  0
 14 13  2  0
 14 15  1  0
 15 16  2  0
 16 11  1  0
 17 15  1  0
 17 21  1  0
 18 19  1  0
 18 17  1  0
 19 20  1  0
 21 20  1  0
 21  1  1  0
 22  9  1  0
 23 22  2  0
 24 25  2  0
 24 23  1  0
 25 26  1  0
 26 22  1  0
  2 27  1  0
  3 28  1  0
  4 29  1  0
  6 30  1  0
  7 31  1  0
  8 32  1  0
 11 33  1  0
 12 34  1  0
 13 35  1  0
 18 36  1  0
 18 37  1  0
 19 38  1  0
 19 39  1  0
 20 40  1  0
 20 41  1  0
 21 42  1  6
 23 43  1  0
 25 44  1  0
 26 45  1  0
M  ISO  8  27  14  28  14  29  14  30  14  31  14  32  14  33  14  34  14
M  ISO  8  35  14  36  13  37  13  38  13  39  13  40  13  41  13  42  13
M  ISO  3  43  14  44  14  45   9
M  END
>  <minimizedAffinity>  (1) 
-6.23536634

>  <minimizedRMSD>  (1) 
0.37823692

$$$$
