
     RDKit          3D

 45 49  0  0  1  0  0  0  0  0999 V2000
   41.2990   28.4930   40.9820 C   0  0  0  0  0  0  0  0  0  0  0  0
   42.2530   28.6780   39.9550 C   0  0  0  0  0  0  0  0  0  0  0  0
   41.8740   29.4460   38.8530 C   0  0  0  0  0  0  0  0  0  0  0  0
   40.5990   29.9820   38.8200 N   0  0  0  0  0  0  0  0  0  0  0  0
   39.7450   29.7730   39.8190 C   0  0  0  0  0  0  0  0  0  0  0  0
   40.0960   29.0440   40.8720 N   0  0  0  0  0  0  0  0  0  0  0  0
   38.4770   30.3180   39.7410 N   0  0  0  0  0  0  0  0  0  0  0  0
   38.1640   31.5310   38.9740 C   0  0  0  0  0  0  0  0  0  0  0  0
   36.9910   32.1140   39.6690 C   0  0  0  0  0  0  0  0  0  0  0  0
   36.6190   31.1570   40.7680 C   0  0  0  0  0  0  0  0  0  0  0  0
   37.2040   29.8430   40.3070 C   0  0  2  0  0  0  0  0  0  0  0  0
   37.2750   28.8350   41.3020 C   0  0  0  0  0  0  0  0  0  0  0  0
   37.5040   29.3540   42.6000 C   0  0  0  0  0  0  0  0  0  0  0  0
   37.5160   28.5580   43.7550 C   0  0  0  0  0  0  0  0  0  0  0  0
   37.2980   27.1850   43.6320 C   0  0  0  0  0  0  0  0  0  0  0  0
   37.0760   26.6400   42.3770 C   0  0  0  0  0  0  0  0  0  0  0  0
   36.9130   25.2860   42.2110 C   0  0  0  0  0  0  0  0  0  0  0  0
   36.7400   24.7030   40.9660 C   0  0  0  0  0  0  0  0  0  0  0  0
   36.7400   25.5950   39.8820 C   0  0  0  0  0  0  0  0  0  0  0  0
   36.9060   26.9580   40.0770 C   0  0  0  0  0  0  0  0  0  0  0  0
   37.0760   27.4910   41.3090 C   0  0  0  0  0  0  0  0  0  0  0  0
   36.7850   27.5340   38.7910 N   0  0  0  0  0  0  0  0  0  0  0  0
   37.4440   27.8850   37.6650 C   0  0  0  0  0  0  0  0  0  0  0  0
   36.5720   28.3510   36.7050 C   0  0  0  0  0  0  0  0  0  0  0  0
   35.2930   28.3140   37.1890 N   0  0  0  0  0  0  0  0  0  0  0  0
   35.4500   27.8130   38.4590 C   0  0  0  0  0  0  0  0  0  0  0  0
   41.5526   27.8945   41.8694 H   0  0  0  0  0  0  0  0  0  0  0  0
   43.2568   28.2331   40.0221 H   0  0  0  0  0  0  0  0  0  0  0  0
   42.5767   29.6220   38.0252 H   0  0  0  0  0  0  0  0  0  0  0  0
   37.9142   31.2795   37.9327 H   0  0  0  0  0  0  0  0  0  0  0  0
   39.0133   32.2285   38.9274 H   0  0  0  0  0  0  0  0  0  0  0  0
   37.2508   33.0953   40.0928 H   0  0  0  0  0  0  0  0  0  0  0  0
   36.1523   32.2618   38.9728 H   0  0  0  0  0  0  0  0  0  0  0  0
   37.0600   31.4687   41.7263 H   0  0  0  0  0  0  0  0  0  0  0  0
   35.5339   31.1049   40.9406 H   0  0  0  0  0  0  0  0  0  0  0  0
   36.5915   29.2836   39.5846 H   0  0  0  0  0  0  0  0  0  0  0  0
   37.6811   30.4343   42.7075 H   0  0  0  0  0  0  0  0  0  0  0  0
   37.6945   29.0090   44.7423 H   0  0  0  0  0  0  0  0  0  0  0  0
   37.3023   26.5407   44.5236 H   0  0  0  0  0  0  0  0  0  0  0  0
   36.9201   24.6396   43.1010 H   0  0  0  0  0  0  0  0  0  0  0  0
   36.6118   23.6182   40.8362 H   0  0  0  0  0  0  0  0  0  0  0  0
   36.6062   25.2066   38.8616 H   0  0  0  0  0  0  0  0  0  0  0  0
   38.5333   27.8088   37.5320 H   0  0  0  0  0  0  0  0  0  0  0  0
   36.8604   28.6996   35.7024 H   0  0  0  0  0  0  0  0  0  0  0  0
   34.6099   27.6466   39.1493 H   0  0  0  0  0  0  0  0  0  0  0  0
  2  1  2  0
  3  2  1  0
  4  3  2  0
  4  5  1  0
  5  6  2  0
  6  1  1  0
  7  5  1  0
  7 11  1  0
  8  9  1  0
  8  7  1  0
  9 10  1  0
 11 10  1  0
 11 12  1  0
 12 21  1  0
 12 13  2  0
 13 14  1  0
 15 14  2  0
 16 15  1  0
 17 16  2  0
 18 17  1  0
 19 20  1  0
 19 18  2  0
 20 21  2  0
 21 16  1  0
 22 20  1  0
 23 22  1  0
 24 25  1  0
 24 23  2  0
 25 26  2  0
 26 22  1  0
  1 27  1  0
  2 28  1  0
  3 29  1  0
  8 30  1  0
  8 31  1  0
  9 32  1  0
  9 33  1  0
 10 34  1  0
 10 35  1  0
 11 36  1  6
 13 37  1  0
 14 38  1  0
 15 39  1  0
 17 40  1  0
 18 41  1  0
 19 42  1  0
 23 43  1  0
 24 44  1  0
 26 45  1  0
M  ISO  8  27  14  28  14  29  14  30  13  31  13  32  13  33  13  34  13
M  ISO  8  35  13  36  13  37  14  38  14  39  14  40  14  41  14  42  14
M  ISO  3  43  14  44  14  45  14
M  END
>  <minimizedAffinity>  (1) 
-6.19367504

>  <minimizedRMSD>  (1) 
0.414886981

$$$$
