
     RDKit          3D

 44 47  0  0  1  0  0  0  0  0999 V2000
   41.2840   28.4610   40.9860 C   0  0  0  0  0  0  0  0  0  0  0  0
   42.2360   28.6230   39.9560 C   0  0  0  0  0  0  0  0  0  0  0  0
   41.8580   29.3660   38.8460 C   0  0  0  0  0  0  0  0  0  0  0  0
   40.5810   29.9050   38.8050 N   0  0  0  0  0  0  0  0  0  0  0  0
   39.7290   29.7190   39.8050 C   0  0  0  0  0  0  0  0  0  0  0  0
   40.0780   29.0100   40.8730 N   0  0  0  0  0  0  0  0  0  0  0  0
   38.4590   30.2670   39.7150 N   0  0  0  0  0  0  0  0  0  0  0  0
   38.1420   31.4350   38.8920 C   0  0  0  0  0  0  0  0  0  0  0  0
   36.9240   31.9980   39.5370 C   0  0  0  0  0  0  0  0  0  0  0  0
   36.6990   31.1420   40.7490 C   0  0  0  0  0  0  0  0  0  0  0  0
   37.1830   29.7880   40.2770 C   0  0  2  0  0  0  0  0  0  0  0  0
   37.2550   28.8070   41.2880 C   0  0  0  0  0  0  0  0  0  0  0  0
   37.4530   29.3630   42.5800 C   0  0  0  0  0  0  0  0  0  0  0  0
   37.4600   28.5880   43.7600 C   0  0  0  0  0  0  0  0  0  0  0  0
   37.2700   27.2090   43.6580 C   0  0  0  0  0  0  0  0  0  0  0  0
   37.0800   26.6490   42.4260 C   0  0  0  0  0  0  0  0  0  0  0  0
   36.9410   25.2870   42.2590 C   0  0  0  0  0  0  0  0  0  0  0  0
   36.7960   24.6680   41.0510 C   0  0  0  0  0  0  0  0  0  0  0  0
   36.7970   25.5210   39.9720 C   0  0  0  0  0  0  0  0  0  0  0  0
   36.9350   26.9130   40.0660 C   0  0  0  0  0  0  0  0  0  0  0  0
   37.0790   27.4590   41.3250 C   0  0  0  0  0  0  0  0  0  0  0  0
   36.7600   27.5820   38.7960 C   0  0  0  0  0  0  0  0  0  0  0  0
   35.4280   27.1920   38.1070 C   0  0  0  0  0  0  0  0  0  0  0  0
   41.5404   27.8795   41.8838 H   0  0  0  0  0  0  0  0  0  0  0  0
   43.2390   28.1774   40.0303 H   0  0  0  0  0  0  0  0  0  0  0  0
   42.5592   29.5244   38.0134 H   0  0  0  0  0  0  0  0  0  0  0  0
   37.9349   31.1388   37.8531 H   0  0  0  0  0  0  0  0  0  0  0  0
   38.9698   32.1574   38.8385 H   0  0  0  0  0  0  0  0  0  0  0  0
   37.0894   33.0458   39.8283 H   0  0  0  0  0  0  0  0  0  0  0  0
   36.0570   31.9938   38.8600 H   0  0  0  0  0  0  0  0  0  0  0  0
   37.2888   31.5002   41.6056 H   0  0  0  0  0  0  0  0  0  0  0  0
   35.6571   31.1406   41.1019 H   0  0  0  0  0  0  0  0  0  0  0  0
   36.5424   29.2254   39.5820 H   0  0  0  0  0  0  0  0  0  0  0  0
   37.6082   30.4487   42.6651 H   0  0  0  0  0  0  0  0  0  0  0  0
   37.6123   29.0618   44.7410 H   0  0  0  0  0  0  0  0  0  0  0  0
   37.2732   26.5794   44.5600 H   0  0  0  0  0  0  0  0  0  0  0  0
   36.9474   24.6567   43.1605 H   0  0  0  0  0  0  0  0  0  0  0  0
   36.6874   23.5781   40.9490 H   0  0  0  0  0  0  0  0  0  0  0  0
   36.6820   25.0823   38.9698 H   0  0  0  0  0  0  0  0  0  0  0  0
   36.7666   28.6690   38.9645 H   0  0  0  0  0  0  0  0  0  0  0  0
   37.5842   27.2739   38.1359 H   0  0  0  0  0  0  0  0  0  0  0  0
   34.6702   26.9701   38.8729 H   0  0  0  0  0  0  0  0  0  0  0  0
   35.0817   28.0265   37.4795 H   0  0  0  0  0  0  0  0  0  0  0  0
   35.5865   26.3025   37.4795 H   0  0  0  0  0  0  0  0  0  0  0  0
  2  1  2  0
  3  2  1  0
  4  3  2  0
  4  5  1  0
  5  6  2  0
  6  1  1  0
  7  5  1  0
  7 11  1  0
  8  9  1  0
  8  7  1  0
  9 10  1  0
 11 10  1  0
 11 12  1  0
 12 21  1  0
 12 13  2  0
 13 14  1  0
 15 14  2  0
 16 15  1  0
 17 16  2  0
 18 17  1  0
 19 20  1  0
 19 18  2  0
 20 21  2  0
 21 16  1  0
 22 20  1  0
 23 22  1  0
  1 24  1  0
  2 25  1  0
  3 26  1  0
  8 27  1  0
  8 28  1  0
  9 29  1  0
  9 30  1  0
 10 31  1  0
 10 32  1  0
 11 33  1  6
 13 34  1  0
 14 35  1  0
 15 36  1  0
 17 37  1  0
 18 38  1  0
 19 39  1  0
 22 40  1  0
 22 41  1  0
 23 42  1  0
 23 43  1  0
 23 44  1  0
M  ISO  8  24  14  25  14  26  14  27  13  28  13  29  13  30  13  31  13
M  ISO  8  32  13  33  13  34  14  35  14  36  14  37  14  38  14  39  14
M  ISO  5  40   8  41   8  42   8  43   8  44   8
M  END
>  <minimizedAffinity>  (1) 
-5.96779585

>  <minimizedRMSD>  (1) 
0.421981573

$$$$
