
     RDKit          3D

 38 42  0  0  0  0  0  0  0  0999 V2000
   40.2560   28.7360   43.0800 C   0  0  0  0  0  0  0  0  0  0  0  0
   39.7580   27.4620   42.7130 C   0  0  0  0  0  0  0  0  0  0  0  0
   38.6750   27.4050   41.8180 C   0  0  0  0  0  0  0  0  0  0  0  0
   38.2150   28.5730   41.3920 N   0  0  0  0  0  0  0  0  0  0  0  0
   38.6800   29.7770   41.7320 C   0  0  0  0  0  0  0  0  0  0  0  0
   39.7020   29.8550   42.5800 N   0  0  0  0  0  0  0  0  0  0  0  0
   38.0930   30.9970   41.1780 C   0  0  0  0  0  0  0  0  0  0  0  0
   36.7640   31.2660   40.8600 C   0  0  0  0  0  0  0  0  0  0  0  0
   36.7110   32.4960   40.3690 N   0  0  0  0  0  0  0  0  0  0  0  0
   37.9230   33.0670   40.3400 C   0  0  0  0  0  0  0  0  0  0  0  0
   38.3030   34.3210   39.9080 C   0  0  0  0  0  0  0  0  0  0  0  0
   39.6540   34.6490   39.9950 C   0  0  0  0  0  0  0  0  0  0  0  0
   40.5730   33.7580   40.4920 C   0  0  0  0  0  0  0  0  0  0  0  0
   40.1980   32.5030   40.9240 C   0  0  0  0  0  0  0  0  0  0  0  0
   38.8430   32.1450   40.8480 C   0  0  0  0  0  0  0  0  0  0  0  0
   38.2540   26.0610   41.5160 C   0  0  0  0  0  0  0  0  0  0  0  0
   37.2360   25.4770   42.1440 N   0  0  0  0  0  0  0  0  0  0  0  0
   36.8050   24.2360   41.9040 C   0  0  0  0  0  0  0  0  0  0  0  0
   37.3660   23.4310   40.9850 N   0  0  0  0  0  0  0  0  0  0  0  0
   38.4130   23.9400   40.2920 C   0  0  0  0  0  0  0  0  0  0  0  0
   39.0140   23.1460   39.3420 C   0  0  0  0  0  0  0  0  0  0  0  0
   40.0830   23.6170   38.6090 C   0  0  0  0  0  0  0  0  0  0  0  0
   40.5190   24.9200   38.8750 C   0  0  0  0  0  0  0  0  0  0  0  0
   39.8780   25.6580   39.8350 C   0  0  0  0  0  0  0  0  0  0  0  0
   38.8140   25.2200   40.5780 C   0  0  0  0  0  0  0  0  0  0  0  0
   41.1020   28.8109   43.7790 H   0  0  0  0  0  0  0  0  0  0  0  0
   40.2062   26.5423   43.1170 H   0  0  0  0  0  0  0  0  0  0  0  0
   35.9129   30.5819   40.9923 H   0  0  0  0  0  0  0  0  0  0  0  0
   35.8463   32.9555   40.0496 H   0  0  0  0  0  0  0  0  0  0  0  0
   37.5669   35.0349   39.5099 H   0  0  0  0  0  0  0  0  0  0  0  0
   39.9911   35.6407   39.6591 H   0  0  0  0  0  0  0  0  0  0  0  0
   41.6317   34.0516   40.5468 H   0  0  0  0  0  0  0  0  0  0  0  0
   40.9443   31.7983   41.3194 H   0  0  0  0  0  0  0  0  0  0  0  0
   35.9520   23.8551   42.4848 H   0  0  0  0  0  0  0  0  0  0  0  0
   38.6385   22.1272   39.1659 H   0  0  0  0  0  0  0  0  0  0  0  0
   40.5730   22.9939   37.8463 H   0  0  0  0  0  0  0  0  0  0  0  0
   41.3670   25.3469   38.3194 H   0  0  0  0  0  0  0  0  0  0  0  0
   40.2450   26.6778   40.0230 H   0  0  0  0  0  0  0  0  0  0  0  0
  2  1  2  0
  3  2  1  0
  4  5  1  0
  4  3  2  0
  5  6  2  0
  6  1  1  0
  7  5  1  0
  8  7  2  0
  9  8  1  0
 10  9  1  0
 10 15  2  0
 11 12  2  0
 11 10  1  0
 12 13  1  0
 13 14  2  0
 15 14  1  0
 15  7  1  0
 16  3  1  0
 16 17  2  0
 18 17  1  0
 19 18  2  0
 20 25  2  0
 20 19  1  0
 21 20  1  0
 22 23  1  0
 22 21  2  0
 23 24  2  0
 24 25  1  0
 25 16  1  0
  1 26  1  0
  2 27  1  0
  8 28  1  0
  9 29  1  0
 11 30  1  0
 12 31  1  0
 13 32  1  0
 14 33  1  0
 18 34  1  0
 21 35  1  0
 22 36  1  0
 23 37  1  0
 24 38  1  0
M  ISO  8  26  14  27  14  28  14  29   9  30  14  31  14  32  14  33  14
M  ISO  5  34  14  35  14  36  14  37  14  38  14
M  END
>  <minimizedAffinity>  (1) 
-6.22351742

>  <minimizedRMSD>  (1) 
3.349581

$$$$
