
     RDKit          3D

 31 33  0  0  0  0  0  0  0  0999 V2000
   40.0740   27.0690   43.6970 C   0  0  0  0  0  0  0  0  0  0  0  0
   39.7910   25.6970   43.5020 C   0  0  0  0  0  0  0  0  0  0  0  0
   38.6650   25.3700   42.7320 C   0  0  0  0  0  0  0  0  0  0  0  0
   37.9100   26.3540   42.2170 N   0  0  0  0  0  0  0  0  0  0  0  0
   38.2090   27.6630   42.4230 C   0  0  0  0  0  0  0  0  0  0  0  0
   39.2860   28.0040   43.1590 N   0  0  0  0  0  0  0  0  0  0  0  0
   38.3910   23.9880   42.5360 N   0  0  0  0  0  0  0  0  0  0  0  0
   37.7340   23.5590   41.3540 C   0  0  0  0  0  0  0  0  0  0  0  0
   36.7630   24.2310   40.8590 N   0  0  0  0  0  0  0  0  0  0  0  0
   38.1660   22.3430   40.7050 N   0  0  0  0  0  0  0  0  0  0  0  0
   36.4230   25.0990   41.2900 H   0  0  0  0  0  0  0  0  0  0  0  0
   37.3700   28.7090   41.8420 C   0  0  0  0  0  0  0  0  0  0  0  0
   36.0110   28.6570   41.5560 C   0  0  0  0  0  0  0  0  0  0  0  0
   35.6780   29.8300   41.0340 N   0  0  0  0  0  0  0  0  0  0  0  0
   36.7360   30.6530   40.9580 C   0  0  0  0  0  0  0  0  0  0  0  0
   36.8070   31.9490   40.4790 C   0  0  0  0  0  0  0  0  0  0  0  0
   38.0610   32.5700   40.5230 C   0  0  0  0  0  0  0  0  0  0  0  0
   39.1660   31.9190   41.0210 C   0  0  0  0  0  0  0  0  0  0  0  0
   39.0830   30.6190   41.4990 C   0  0  0  0  0  0  0  0  0  0  0  0
   37.8520   29.9810   41.4660 C   0  0  0  0  0  0  0  0  0  0  0  0
   40.9477   27.3677   44.2949 H   0  0  0  0  0  0  0  0  0  0  0  0
   40.4303   24.9152   43.9381 H   0  0  0  0  0  0  0  0  0  0  0  0
   38.6690   23.3003   43.2506 H   0  0  0  0  0  0  0  0  0  0  0  0
   37.6959   22.0225   39.8464 H   0  0  0  0  0  0  0  0  0  0  0  0
   38.9441   21.7964   41.1008 H   0  0  0  0  0  0  0  0  0  0  0  0
   35.3385   27.8041   41.7297 H   0  0  0  0  0  0  0  0  0  0  0  0
   34.7271   30.0783   40.7257 H   0  0  0  0  0  0  0  0  0  0  0  0
   35.9209   32.4665   40.0827 H   0  0  0  0  0  0  0  0  0  0  0  0
   38.1650   33.6002   40.1516 H   0  0  0  0  0  0  0  0  0  0  0  0
   40.1348   32.4396   41.0406 H   0  0  0  0  0  0  0  0  0  0  0  0
   39.9724   30.1067   41.8947 H   0  0  0  0  0  0  0  0  0  0  0  0
  2  1  2  0
  3  2  1  0
  4  5  1  0
  4  3  2  0
  5  6  2  0
  6  1  1  0
  7  3  1  0
  8  7  1  0
  9 11  1  0
  9  8  2  0
 10  8  1  0
 12  5  1  0
 13 12  2  0
 14 13  1  0
 15 14  1  0
 15 20  2  0
 16 17  2  0
 16 15  1  0
 17 18  1  0
 18 19  2  0
 20 19  1  0
 20 12  1  0
  1 21  1  0
  2 22  1  0
  7 23  1  0
 10 24  1  0
 10 25  1  0
 13 26  1  0
 14 27  1  0
 16 28  1  0
 17 29  1  0
 18 30  1  0
 19 31  1  0
M  ISO  8  21  14  22  14  26  14  27   9  28  14  29  14  30  14  31  14
M  END
>  <minimizedAffinity>  (1) 
-6.12564707

>  <minimizedRMSD>  (1) 
1.30125618

$$$$
