
     RDKit          3D

 31 34  0  0  0  0  0  0  0  0999 V2000
   37.3270   28.9120   41.4420 C   0  0  0  0  0  0  0  0  0  0  0  0
   37.4810   29.1290   42.8120 C   0  0  0  0  0  0  0  0  0  0  0  0
   37.4130   27.9430   43.4030 N   0  0  0  0  0  0  0  0  0  0  0  0
   37.2230   26.9460   42.5050 C   0  0  0  0  0  0  0  0  0  0  0  0
   37.1000   25.5760   42.7140 C   0  0  0  0  0  0  0  0  0  0  0  0
   36.9090   24.7780   41.5890 C   0  0  0  0  0  0  0  0  0  0  0  0
   36.8470   25.3460   40.3250 C   0  0  0  0  0  0  0  0  0  0  0  0
   36.9720   26.7060   40.1360 C   0  0  0  0  0  0  0  0  0  0  0  0
   37.1640   27.5300   41.2410 C   0  0  0  0  0  0  0  0  0  0  0  0
   36.6340   30.5360   38.2440 C   0  0  0  0  0  0  0  0  0  0  0  0
   37.3320   31.7810   38.3620 C   0  0  0  0  0  0  0  0  0  0  0  0
   38.0210   32.0220   39.5480 C   0  0  0  0  0  0  0  0  0  0  0  0
   37.9870   31.0730   40.5010 N   0  0  0  0  0  0  0  0  0  0  0  0
   37.3290   29.9060   40.3760 C   0  0  0  0  0  0  0  0  0  0  0  0
   36.6510   29.6400   39.2420 N   0  0  0  0  0  0  0  0  0  0  0  0
   38.7320   33.2620   39.7020 C   0  0  0  0  0  0  0  0  0  0  0  0
   40.0700   33.5310   39.6630 C   0  0  0  0  0  0  0  0  0  0  0  0
   40.2780   34.8950   39.8680 C   0  0  0  0  0  0  0  0  0  0  0  0
   39.0410   35.4090   40.0270 N   0  0  0  0  0  0  0  0  0  0  0  0
   38.1520   34.4540   39.9280 N   0  0  0  0  0  0  0  0  0  0  0  0
   37.6304   30.0994   43.3079 H   0  0  0  0  0  0  0  0  0  0  0  0
   37.4946   27.7979   44.4195 H   0  0  0  0  0  0  0  0  0  0  0  0
   37.1514   25.1423   43.7236 H   0  0  0  0  0  0  0  0  0  0  0  0
   36.8065   23.6888   41.7035 H   0  0  0  0  0  0  0  0  0  0  0  0
   36.6943   24.6951   39.4515 H   0  0  0  0  0  0  0  0  0  0  0  0
   36.9206   27.1345   39.1242 H   0  0  0  0  0  0  0  0  0  0  0  0
   36.0765   30.3116   37.3227 H   0  0  0  0  0  0  0  0  0  0  0  0
   37.3242   32.5191   37.5465 H   0  0  0  0  0  0  0  0  0  0  0  0
   40.8623   32.7865   39.4956 H   0  0  0  0  0  0  0  0  0  0  0  0
   41.2376   35.4322   39.8942 H   0  0  0  0  0  0  0  0  0  0  0  0
   38.8286   36.4019   40.2000 H   0  0  0  0  0  0  0  0  0  0  0  0
  1  2  2  0
  2  3  1  0
  4  5  2  0
  4  3  1  0
  6  5  1  0
  7  6  2  0
  8  7  1  0
  8  9  2  0
  9  1  1  0
  9  4  1  0
 10 11  2  0
 10 15  1  0
 11 12  1  0
 12 16  1  0
 12 13  2  0
 14 13  1  0
 14  1  1  0
 15 14  2  0
 16 20  2  0
 17 16  1  0
 17 18  2  0
 18 19  1  0
 20 19  1  0
  2 21  1  0
  3 22  1  0
  5 23  1  0
  6 24  1  0
  7 25  1  0
  8 26  1  0
 10 27  1  0
 11 28  1  0
 17 29  1  0
 18 30  1  0
 19 31  1  0
M  ISO  8  21  14  22   9  23  14  24  14  25  14  26  14  27  14  28  14
M  ISO  3  29  14  30  14  31   9
M  END
>  <minimizedAffinity>  (1) 
-5.85872412

>  <minimizedRMSD>  (1) 
7.77498293

$$$$
