
     RDKit          3D

 38 42  0  0  0  0  0  0  0  0999 V2000
   40.4450   28.0940   43.0990 C   0  0  0  0  0  0  0  0  0  0  0  0
   39.6660   26.9250   42.8160 C   0  0  0  0  0  0  0  0  0  0  0  0
   38.8320   26.9680   41.6960 C   0  0  0  0  0  0  0  0  0  0  0  0
   38.8070   28.0940   40.9550 N   0  0  0  0  0  0  0  0  0  0  0  0
   39.5480   29.1750   41.2440 C   0  0  0  0  0  0  0  0  0  0  0  0
   40.3540   29.1640   42.3080 N   0  0  0  0  0  0  0  0  0  0  0  0
   38.0440   25.8220   41.3860 N   0  0  0  0  0  0  0  0  0  0  0  0
   37.0830   25.2990   42.1570 C   0  0  0  0  0  0  0  0  0  0  0  0
   36.5900   24.2320   41.5030 N   0  0  0  0  0  0  0  0  0  0  0  0
   37.2190   24.0610   40.3250 C   0  0  0  0  0  0  0  0  0  0  0  0
   37.0800   23.1280   39.3140 C   0  0  0  0  0  0  0  0  0  0  0  0
   36.2270   22.2030   39.3920 O   0  0  0  0  0  0  0  0  0  0  0  0
   37.9090   23.2660   38.2400 N   0  0  0  0  0  0  0  0  0  0  0  0
   38.8250   24.2490   38.1410 C   0  0  0  0  0  0  0  0  0  0  0  0
   39.6670   24.3330   36.9760 N   0  0  0  0  0  0  0  0  0  0  0  0
   38.9200   25.1340   39.1580 N   0  0  0  0  0  0  0  0  0  0  0  0
   38.1580   25.0930   40.2580 C   0  0  0  0  0  0  0  0  0  0  0  0
   39.4900   30.3740   40.4150 C   0  0  0  0  0  0  0  0  0  0  0  0
   38.6290   31.4710   40.5540 C   0  0  0  0  0  0  0  0  0  0  0  0
   38.9260   32.3350   39.5810 N   0  0  0  0  0  0  0  0  0  0  0  0
   39.9300   31.8830   38.8050 C   0  0  0  0  0  0  0  0  0  0  0  0
   40.5400   32.4610   37.6990 C   0  0  0  0  0  0  0  0  0  0  0  0
   41.5680   31.7470   37.0900 C   0  0  0  0  0  0  0  0  0  0  0  0
   41.9600   30.5150   37.5740 C   0  0  0  0  0  0  0  0  0  0  0  0
   41.3540   29.9360   38.6770 C   0  0  0  0  0  0  0  0  0  0  0  0
   40.3170   30.6290   39.3100 C   0  0  0  0  0  0  0  0  0  0  0  0
   41.1182   28.1089   43.9688 H   0  0  0  0  0  0  0  0  0  0  0  0
   39.7224   26.0308   43.4542 H   0  0  0  0  0  0  0  0  0  0  0  0
   36.7579   25.6714   43.1397 H   0  0  0  0  0  0  0  0  0  0  0  0
   37.8313   22.5875   37.4690 H   0  0  0  0  0  0  0  0  0  0  0  0
   40.3674   25.0843   36.8999 H   0  0  0  0  0  0  0  0  0  0  0  0
   39.5689   23.6417   36.2187 H   0  0  0  0  0  0  0  0  0  0  0  0
   37.8522   31.5967   41.3227 H   0  0  0  0  0  0  0  0  0  0  0  0
   38.4468   33.2359   39.4408 H   0  0  0  0  0  0  0  0  0  0  0  0
   40.2233   33.4437   37.3196 H   0  0  0  0  0  0  0  0  0  0  0  0
   42.0753   32.1704   36.2106 H   0  0  0  0  0  0  0  0  0  0  0  0
   42.7767   29.9778   37.0695 H   0  0  0  0  0  0  0  0  0  0  0  0
   41.6811   28.9530   39.0468 H   0  0  0  0  0  0  0  0  0  0  0  0
  2  1  2  0
  3  2  1  0
  4  5  1  0
  4  3  2  0
  5  6  2  0
  6  1  1  0
  7  3  1  0
  7  8  1  0
  9  8  2  0
 10  9  1  0
 11 12  2  0
 11 10  1  0
 13 11  1  0
 14 13  1  0
 14 16  2  0
 15 14  1  0
 16 17  1  0
 17 10  2  0
 17  7  1  0
 18 19  2  0
 18  5  1  0
 20 19  1  0
 21 26  2  0
 21 20  1  0
 22 21  1  0
 23 24  1  0
 23 22  2  0
 24 25  2  0
 25 26  1  0
 26 18  1  0
  1 27  1  0
  2 28  1  0
  8 29  1  0
 13 30  1  0
 15 31  1  0
 15 32  1  0
 19 33  1  0
 20 34  1  0
 22 35  1  0
 23 36  1  0
 24 37  1  0
 25 38  1  0
M  ISO  8  27  14  28  14  29  14  30   9  33  14  34   9  35  14  36  14
M  ISO  2  37  14  38  14
M  END
>  <minimizedAffinity>  (1) 
-4.88178587

>  <minimizedRMSD>  (1) 
3.91416264

$$$$
