
     RDKit          3D

 35 38  0  0  0  0  0  0  0  0999 V2000
   40.0810   27.2230   43.6380 C   0  0  0  0  0  0  0  0  0  0  0  0
   39.7790   25.8610   43.4970 C   0  0  0  0  0  0  0  0  0  0  0  0
   38.6330   25.5290   42.7590 C   0  0  0  0  0  0  0  0  0  0  0  0
   37.8830   26.5320   42.2250 N   0  0  0  0  0  0  0  0  0  0  0  0
   38.2160   27.8230   42.3900 C   0  0  0  0  0  0  0  0  0  0  0  0
   39.2960   28.1540   43.0850 N   0  0  0  0  0  0  0  0  0  0  0  0
   37.3650   28.8640   41.7910 C   0  0  0  0  0  0  0  0  0  0  0  0
   36.0100   28.8110   41.4950 C   0  0  0  0  0  0  0  0  0  0  0  0
   35.6790   29.9920   40.9600 N   0  0  0  0  0  0  0  0  0  0  0  0
   36.7480   30.8210   40.8880 C   0  0  0  0  0  0  0  0  0  0  0  0
   36.8120   32.1010   40.4050 C   0  0  0  0  0  0  0  0  0  0  0  0
   38.0620   32.7100   40.4600 C   0  0  0  0  0  0  0  0  0  0  0  0
   39.1590   32.0710   40.9630 C   0  0  0  0  0  0  0  0  0  0  0  0
   39.0870   30.7720   41.4520 C   0  0  0  0  0  0  0  0  0  0  0  0
   37.8420   30.1350   41.4090 C   0  0  0  0  0  0  0  0  0  0  0  0
   38.2300   24.2010   42.5500 O   0  0  0  0  0  0  0  0  0  0  0  0
   37.8410   23.8740   41.2590 C   0  0  0  0  0  0  0  0  0  0  0  0
   36.4740   23.9430   40.9650 C   0  0  0  0  0  0  0  0  0  0  0  0
   36.0920   23.6220   39.6910 C   0  0  0  0  0  0  0  0  0  0  0  0
   36.9860   23.2380   38.6950 C   0  0  0  0  0  0  0  0  0  0  0  0
   38.3410   23.1800   39.0250 C   0  0  0  0  0  0  0  0  0  0  0  0
   38.7580   23.5010   40.3090 C   0  0  0  0  0  0  0  0  0  0  0  0
   40.9708   27.5283   44.2081 H   0  0  0  0  0  0  0  0  0  0  0  0
   40.4149   25.0843   43.9468 H   0  0  0  0  0  0  0  0  0  0  0  0
   35.3357   27.9592   41.6676 H   0  0  0  0  0  0  0  0  0  0  0  0
   34.7308   30.2396   40.6429 H   0  0  0  0  0  0  0  0  0  0  0  0
   35.9292   32.6162   39.9984 H   0  0  0  0  0  0  0  0  0  0  0  0
   38.1699   33.7390   40.0864 H   0  0  0  0  0  0  0  0  0  0  0  0
   40.1244   32.5979   40.9816 H   0  0  0  0  0  0  0  0  0  0  0  0
   39.9747   30.2642   41.8572 H   0  0  0  0  0  0  0  0  0  0  0  0
   35.7383   24.2426   41.7259 H   0  0  0  0  0  0  0  0  0  0  0  0
   35.0220   23.6698   39.4404 H   0  0  0  0  0  0  0  0  0  0  0  0
   36.6363   22.9888   37.6823 H   0  0  0  0  0  0  0  0  0  0  0  0
   39.0789   22.8796   38.2666 H   0  0  0  0  0  0  0  0  0  0  0  0
   39.8266   23.4563   40.5659 H   0  0  0  0  0  0  0  0  0  0  0  0
  2  1  2  0
  3  2  1  0
  4  5  1  0
  4  3  2  0
  5  6  2  0
  6  1  1  0
  7  5  1  0
  8  7  2  0
  9  8  1  0
 10  9  1  0
 10 15  2  0
 11 12  2  0
 11 10  1  0
 12 13  1  0
 13 14  2  0
 15 14  1  0
 15  7  1  0
 16  3  1  0
 17 16  1  0
 18 17  2  0
 19 18  1  0
 20 21  1  0
 20 19  2  0
 21 22  2  0
 22 17  1  0
  1 23  1  0
  2 24  1  0
  8 25  1  0
  9 26  1  0
 11 27  1  0
 12 28  1  0
 13 29  1  0
 14 30  1  0
 18 31  1  0
 19 32  1  0
 20 33  1  0
 21 34  1  0
 22 35  1  0
M  ISO  8  23  14  24  14  25  14  26   9  27  14  28  14  29  14  30  14
M  ISO  5  31  14  32  14  33  14  34  14  35  14
M  END
>  <minimizedAffinity>  (1) 
-5.78493023

>  <minimizedRMSD>  (1) 
1.65813816

$$$$
