
     RDKit          3D

 41 44  0  0  0  0  0  0  0  0999 V2000
   37.2920   28.8200   41.7620 C   0  0  0  0  0  0  0  0  0  0  0  0
   35.9410   28.8010   41.4630 C   0  0  0  0  0  0  0  0  0  0  0  0
   35.6320   29.9840   40.9460 N   0  0  0  0  0  0  0  0  0  0  0  0
   36.7110   30.7960   40.8810 C   0  0  0  0  0  0  0  0  0  0  0  0
   36.7990   32.0850   40.4130 C   0  0  0  0  0  0  0  0  0  0  0  0
   38.0560   32.6780   40.4720 C   0  0  0  0  0  0  0  0  0  0  0  0
   39.1470   32.0090   40.9720 C   0  0  0  0  0  0  0  0  0  0  0  0
   39.0540   30.7110   41.4430 C   0  0  0  0  0  0  0  0  0  0  0  0
   37.7870   30.0850   41.3940 C   0  0  0  0  0  0  0  0  0  0  0  0
   40.0260   27.1310   43.5480 C   0  0  0  0  0  0  0  0  0  0  0  0
   39.6640   25.7670   43.4230 C   0  0  0  0  0  0  0  0  0  0  0  0
   38.4770   25.4380   42.7240 C   0  0  0  0  0  0  0  0  0  0  0  0
   37.7480   26.4640   42.2070 N   0  0  0  0  0  0  0  0  0  0  0  0
   38.1410   27.7630   42.3530 C   0  0  0  0  0  0  0  0  0  0  0  0
   39.2510   28.0820   43.0090 N   0  0  0  0  0  0  0  0  0  0  0  0
   38.0570   24.1330   42.5610 O   0  0  0  0  0  0  0  0  0  0  0  0
   37.8500   23.6220   41.2550 C   0  0  0  0  0  0  0  0  0  0  0  0
   36.4880   24.0830   40.8100 C   0  0  0  0  0  0  0  0  0  0  0  0
   36.2430   23.8590   39.3430 C   0  0  0  0  0  0  0  0  0  0  0  0
   37.4610   23.9420   38.4840 C   0  0  0  0  0  0  0  0  0  0  0  0
   38.4620   24.8440   39.1520 C   0  0  0  0  0  0  0  0  0  0  0  0
   38.9640   24.1470   40.3920 C   0  0  0  0  0  0  0  0  0  0  0  0
   35.2502   27.9603   41.6241 H   0  0  0  0  0  0  0  0  0  0  0  0
   34.6874   30.2502   40.6332 H   0  0  0  0  0  0  0  0  0  0  0  0
   35.9238   32.6185   40.0138 H   0  0  0  0  0  0  0  0  0  0  0  0
   38.1797   33.7090   40.1090 H   0  0  0  0  0  0  0  0  0  0  0  0
   40.1212   32.5191   40.9987 H   0  0  0  0  0  0  0  0  0  0  0  0
   39.9342   30.1851   41.8413 H   0  0  0  0  0  0  0  0  0  0  0  0
   40.9433   27.4094   44.0875 H   0  0  0  0  0  0  0  0  0  0  0  0
   40.2932   24.9781   43.8608 H   0  0  0  0  0  0  0  0  0  0  0  0
   37.8695   22.5236   41.1991 H   0  0  0  0  0  0  0  0  0  0  0  0
   35.7270   23.5309   41.3810 H   0  0  0  0  0  0  0  0  0  0  0  0
   36.4312   25.1664   40.9918 H   0  0  0  0  0  0  0  0  0  0  0  0
   35.8043   22.8580   39.2185 H   0  0  0  0  0  0  0  0  0  0  0  0
   35.5765   24.6697   39.0135 H   0  0  0  0  0  0  0  0  0  0  0  0
   37.1922   24.3523   37.4994 H   0  0  0  0  0  0  0  0  0  0  0  0
   37.8925   22.9394   38.3478 H   0  0  0  0  0  0  0  0  0  0  0  0
   39.3014   25.0407   38.4688 H   0  0  0  0  0  0  0  0  0  0  0  0
   37.9943   25.8039   39.4164 H   0  0  0  0  0  0  0  0  0  0  0  0
   39.6008   23.3032   40.0878 H   0  0  0  0  0  0  0  0  0  0  0  0
   39.5229   24.8860   40.9848 H   0  0  0  0  0  0  0  0  0  0  0  0
  1 14  1  0
  2  1  2  0
  3  2  1  0
  4  3  1  0
  4  9  2  0
  5  6  2  0
  5  4  1  0
  6  7  1  0
  7  8  2  0
  9  8  1  0
  9  1  1  0
 11 10  2  0
 12 11  1  0
 13 14  1  0
 13 12  2  0
 14 15  2  0
 15 10  1  0
 16 12  1  0
 17 16  1  0
 18 17  1  0
 19 18  1  0
 20 21  1  0
 20 19  1  0
 21 22  1  0
 22 17  1  0
  2 23  1  0
  3 24  1  0
  5 25  1  0
  6 26  1  0
  7 27  1  0
  8 28  1  0
 10 29  1  0
 11 30  1  0
 17 31  1  0
 18 32  1  0
 18 33  1  0
 19 34  1  0
 19 35  1  0
 20 36  1  0
 20 37  1  0
 21 38  1  0
 21 39  1  0
 22 40  1  0
 22 41  1  0
M  ISO  8  23  14  24   9  25  14  26  14  27  14  28  14  29  14  30  14
M  ISO  8  31  13  32  13  33  13  34  13  35  13  36  13  37  13  38  13
M  ISO  3  39  13  40  13  41  13
M  END
>  <minimizedAffinity>  (1) 
-5.6689949

>  <minimizedRMSD>  (1) 
1.63067567

$$$$
