
     RDKit          3D

 34 37  0  0  0  0  0  0  0  0999 V2000
   40.0630   27.2800   43.6210 C   0  0  0  0  0  0  0  0  0  0  0  0
   39.7400   25.9050   43.4630 C   0  0  0  0  0  0  0  0  0  0  0  0
   38.6000   25.5850   42.7120 C   0  0  0  0  0  0  0  0  0  0  0  0
   37.8580   26.5990   42.1710 N   0  0  0  0  0  0  0  0  0  0  0  0
   38.2100   27.8940   42.3510 C   0  0  0  0  0  0  0  0  0  0  0  0
   39.3000   28.2300   43.0680 N   0  0  0  0  0  0  0  0  0  0  0  0
   37.3950   28.9550   41.7580 C   0  0  0  0  0  0  0  0  0  0  0  0
   36.0300   28.9300   41.4630 C   0  0  0  0  0  0  0  0  0  0  0  0
   35.7180   30.1140   40.9350 N   0  0  0  0  0  0  0  0  0  0  0  0
   36.7820   30.9140   40.8630 C   0  0  0  0  0  0  0  0  0  0  0  0
   36.9030   32.2080   40.3890 C   0  0  0  0  0  0  0  0  0  0  0  0
   38.1600   32.8010   40.4420 C   0  0  0  0  0  0  0  0  0  0  0  0
   39.2400   32.1320   40.9420 C   0  0  0  0  0  0  0  0  0  0  0  0
   39.1240   30.8320   41.4190 C   0  0  0  0  0  0  0  0  0  0  0  0
   37.8730   30.2120   41.3790 C   0  0  0  0  0  0  0  0  0  0  0  0
   38.2130   24.2780   42.5090 O   0  0  0  0  0  0  0  0  0  0  0  0
   37.8280   23.9010   41.2300 C   0  0  0  0  0  0  0  0  0  0  0  0
   36.5040   23.8780   40.8920 C   0  0  0  0  0  0  0  0  0  0  0  0
   36.1960   23.4900   39.5960 C   0  0  0  0  0  0  0  0  0  0  0  0
   37.2170   23.1550   38.7300 C   0  0  0  0  0  0  0  0  0  0  0  0
   38.5400   23.1820   39.0770 C   0  0  0  0  0  0  0  0  0  0  0  0
   38.7980   23.5680   40.3620 N   0  0  0  0  0  0  0  0  0  0  0  0
   40.9503   27.5665   44.2045 H   0  0  0  0  0  0  0  0  0  0  0  0
   40.3630   25.1188   43.9144 H   0  0  0  0  0  0  0  0  0  0  0  0
   35.3408   28.0900   41.6343 H   0  0  0  0  0  0  0  0  0  0  0  0
   34.7728   30.3776   40.6218 H   0  0  0  0  0  0  0  0  0  0  0  0
   36.0351   32.7492   39.9842 H   0  0  0  0  0  0  0  0  0  0  0  0
   38.2865   33.8297   40.0736 H   0  0  0  0  0  0  0  0  0  0  0  0
   40.2199   32.6312   40.9677 H   0  0  0  0  0  0  0  0  0  0  0  0
   40.0002   30.3016   41.8202 H   0  0  0  0  0  0  0  0  0  0  0  0
   35.7202   24.1538   41.6128 H   0  0  0  0  0  0  0  0  0  0  0  0
   35.1487   23.4498   39.2621 H   0  0  0  0  0  0  0  0  0  0  0  0
   36.9530   22.8501   37.7066 H   0  0  0  0  0  0  0  0  0  0  0  0
   39.3395   22.9120   38.3714 H   0  0  0  0  0  0  0  0  0  0  0  0
  2  1  2  0
  3  2  1  0
  4  5  1  0
  4  3  2  0
  5  6  2  0
  6  1  1  0
  7  5  1  0
  8  7  2  0
  9  8  1  0
 10  9  1  0
 10 15  2  0
 11 12  2  0
 11 10  1  0
 12 13  1  0
 13 14  2  0
 15 14  1  0
 15  7  1  0
 16  3  1  0
 17 16  1  0
 18 17  2  0
 19 18  1  0
 20 21  1  0
 20 19  2  0
 21 22  2  0
 22 17  1  0
  1 23  1  0
  2 24  1  0
  8 25  1  0
  9 26  1  0
 11 27  1  0
 12 28  1  0
 13 29  1  0
 14 30  1  0
 18 31  1  0
 19 32  1  0
 20 33  1  0
 21 34  1  0
M  ISO  8  23  14  24  14  25  14  26   9  27  14  28  14  29  14  30  14
M  ISO  4  31  14  32  14  33  14  34  14
M  END
>  <minimizedAffinity>  (1) 
-5.65281105

>  <minimizedRMSD>  (1) 
1.70268941

$$$$
