
     RDKit          3D

 27 29  0  0  0  0  0  0  0  0999 V2000
   38.0220   30.7020   40.9530 C   0  0  0  0  0  0  0  0  0  0  0  0
   36.6360   30.8140   41.0400 C   0  0  0  0  0  0  0  0  0  0  0  0
   36.2210   29.8920   41.8930 N   0  0  0  0  0  0  0  0  0  0  0  0
   37.2360   29.1680   42.3830 C   0  0  0  0  0  0  0  0  0  0  0  0
   37.2420   28.1200   43.2860 C   0  0  0  0  0  0  0  0  0  0  0  0
   38.4730   27.5560   43.6110 C   0  0  0  0  0  0  0  0  0  0  0  0
   39.6320   28.0260   43.0490 C   0  0  0  0  0  0  0  0  0  0  0  0
   39.6390   29.0750   42.1440 C   0  0  0  0  0  0  0  0  0  0  0  0
   38.4130   29.6510   41.8080 C   0  0  0  0  0  0  0  0  0  0  0  0
   40.2960   31.7030   38.2530 C   0  0  0  0  0  0  0  0  0  0  0  0
   40.7130   32.9940   38.6650 C   0  0  0  0  0  0  0  0  0  0  0  0
   40.1980   33.4950   39.8710 C   0  0  0  0  0  0  0  0  0  0  0  0
   39.3300   32.7300   40.5890 N   0  0  0  0  0  0  0  0  0  0  0  0
   38.9690   31.4980   40.1400 C   0  0  0  0  0  0  0  0  0  0  0  0
   39.4380   30.9820   38.9910 N   0  0  0  0  0  0  0  0  0  0  0  0
   40.5550   34.7470   40.3450 O   0  0  0  0  0  0  0  0  0  0  0  0
   39.5280   35.5680   40.8230 C   0  0  0  0  0  0  0  0  0  0  0  0
   38.8340   36.0930   39.8890 O   0  0  0  0  0  0  0  0  0  0  0  0
   36.0045   31.5348   40.5000 H   0  0  0  0  0  0  0  0  0  0  0  0
   35.2341   29.7478   42.1500 H   0  0  0  0  0  0  0  0  0  0  0  0
   36.3083   27.7458   43.7311 H   0  0  0  0  0  0  0  0  0  0  0  0
   38.5162   26.7227   44.3278 H   0  0  0  0  0  0  0  0  0  0  0  0
   40.5869   27.5551   43.3255 H   0  0  0  0  0  0  0  0  0  0  0  0
   40.5788   29.4414   41.7053 H   0  0  0  0  0  0  0  0  0  0  0  0
   40.6826   31.2851   37.3118 H   0  0  0  0  0  0  0  0  0  0  0  0
   41.4170   33.5837   38.0595 H   0  0  0  0  0  0  0  0  0  0  0  0
   39.3383   35.7429   41.8923 H   0  0  0  0  0  0  0  0  0  0  0  0
  1  2  2  0
  1  9  1  0
  2  3  1  0
  3  4  1  0
  4  5  2  0
  5  6  1  0
  7  6  2  0
  8  7  1  0
  9  8  2  0
  9  4  1  0
 10 11  2  0
 10 15  1  0
 11 12  1  0
 12 16  1  0
 12 13  2  0
 14 13  1  0
 14  1  1  0
 15 14  2  0
 16 17  1  0
 18 17  2  0
  2 19  1  0
  3 20  1  0
  5 21  1  0
  6 22  1  0
  7 23  1  0
  8 24  1  0
 10 25  1  0
 11 26  1  0
 17 27  1  0
M  ISO  8  19  14  20   9  21  14  22  14  23  14  24  14  25  14  26  14
M  ISO  1  27   6
M  END
>  <minimizedAffinity>  (1) 
-5.26957607

>  <minimizedRMSD>  (1) 
7.15708685

$$$$
