
     RDKit          3D

 31 33  0  0  0  0  0  0  0  0999 V2000
   37.3560   28.7510   41.8180 C   0  0  0  0  0  0  0  0  0  0  0  0
   35.9850   28.7120   41.5290 C   0  0  0  0  0  0  0  0  0  0  0  0
   35.6640   29.9000   41.0020 N   0  0  0  0  0  0  0  0  0  0  0  0
   36.7420   30.7160   40.9290 C   0  0  0  0  0  0  0  0  0  0  0  0
   36.8250   32.0040   40.4530 C   0  0  0  0  0  0  0  0  0  0  0  0
   38.0750   32.6080   40.4980 C   0  0  0  0  0  0  0  0  0  0  0  0
   39.1550   31.9380   40.9940 C   0  0  0  0  0  0  0  0  0  0  0  0
   39.0800   30.6480   41.4720 C   0  0  0  0  0  0  0  0  0  0  0  0
   37.8310   30.0230   41.4350 C   0  0  0  0  0  0  0  0  0  0  0  0
   39.9030   27.0720   43.8410 C   0  0  0  0  0  0  0  0  0  0  0  0
   39.7290   25.7240   43.4940 C   0  0  0  0  0  0  0  0  0  0  0  0
   38.7180   25.3920   42.5490 C   0  0  0  0  0  0  0  0  0  0  0  0
   37.9890   26.4180   42.0470 N   0  0  0  0  0  0  0  0  0  0  0  0
   38.1880   27.7000   42.4070 C   0  0  0  0  0  0  0  0  0  0  0  0
   39.1280   28.0150   43.2860 N   0  0  0  0  0  0  0  0  0  0  0  0
   38.4860   24.0840   42.1560 O   0  0  0  0  0  0  0  0  0  0  0  0
   37.4450   23.7150   41.2690 C   0  0  0  0  0  0  0  0  0  0  0  0
   37.8450   22.5560   40.4010 C   0  0  0  0  0  0  0  0  0  0  0  0
   35.3030   27.8665   41.7022 H   0  0  0  0  0  0  0  0  0  0  0  0
   34.7171   30.1603   40.6914 H   0  0  0  0  0  0  0  0  0  0  0  0
   35.9443   32.5300   40.0560 H   0  0  0  0  0  0  0  0  0  0  0  0
   38.1954   33.6375   40.1298 H   0  0  0  0  0  0  0  0  0  0  0  0
   40.1283   32.4502   41.0131 H   0  0  0  0  0  0  0  0  0  0  0  0
   39.9673   30.1312   41.8666 H   0  0  0  0  0  0  0  0  0  0  0  0
   40.6766   27.3559   44.5697 H   0  0  0  0  0  0  0  0  0  0  0  0
   40.3594   24.9417   43.9419 H   0  0  0  0  0  0  0  0  0  0  0  0
   36.5587   23.4325   41.8561 H   0  0  0  0  0  0  0  0  0  0  0  0
   37.2263   24.5741   40.6177 H   0  0  0  0  0  0  0  0  0  0  0  0
   38.1381   21.7067   41.0356 H   0  0  0  0  0  0  0  0  0  0  0  0
   36.9959   22.2633   39.7659 H   0  0  0  0  0  0  0  0  0  0  0  0
   38.6939   22.8493   39.7659 H   0  0  0  0  0  0  0  0  0  0  0  0
  1 14  1  0
  2  1  2  0
  3  2  1  0
  4  3  1  0
  4  9  2  0
  5  6  2  0
  5  4  1  0
  6  7  1  0
  7  8  2  0
  9  8  1  0
  9  1  1  0
 11 10  2  0
 12 11  1  0
 13 14  1  0
 13 12  2  0
 14 15  2  0
 15 10  1  0
 16 12  1  0
 17 16  1  0
 18 17  1  0
  2 19  1  0
  3 20  1  0
  5 21  1  0
  6 22  1  0
  7 23  1  0
  8 24  1  0
 10 25  1  0
 11 26  1  0
 17 27  1  0
 17 28  1  0
 18 29  1  0
 18 30  1  0
 18 31  1  0
M  ISO  8  19  14  20   9  21  14  22  14  23  14  24  14  25  14  26  14
M  ISO  5  27   8  28   8  29   8  30   8  31   8
M  END
>  <minimizedAffinity>  (1) 
-4.99452639

>  <minimizedRMSD>  (1) 
1.18502009

$$$$
