
     RDKit          3D

 28 30  0  0  0  0  0  0  0  0999 V2000
   37.2890   28.5950   41.7500 C   0  0  0  0  0  0  0  0  0  0  0  0
   35.9310   28.5880   41.4530 C   0  0  0  0  0  0  0  0  0  0  0  0
   35.6260   29.7900   40.9770 N   0  0  0  0  0  0  0  0  0  0  0  0
   36.6980   30.5970   40.9390 C   0  0  0  0  0  0  0  0  0  0  0  0
   36.7970   31.8980   40.5190 C   0  0  0  0  0  0  0  0  0  0  0  0
   38.0580   32.4900   40.5970 C   0  0  0  0  0  0  0  0  0  0  0  0
   39.1560   31.8000   41.0740 C   0  0  0  0  0  0  0  0  0  0  0  0
   39.0500   30.4860   41.4970 C   0  0  0  0  0  0  0  0  0  0  0  0
   37.7840   29.8670   41.4280 C   0  0  0  0  0  0  0  0  0  0  0  0
   39.5360   26.7150   43.9630 C   0  0  0  0  0  0  0  0  0  0  0  0
   39.6530   25.4740   43.2830 C   0  0  0  0  0  0  0  0  0  0  0  0
   38.9550   25.3020   42.0700 C   0  0  0  0  0  0  0  0  0  0  0  0
   38.2080   26.3350   41.6170 N   0  0  0  0  0  0  0  0  0  0  0  0
   38.1270   27.5060   42.3050 C   0  0  0  0  0  0  0  0  0  0  0  0
   38.7770   27.6940   43.4560 N   0  0  0  0  0  0  0  0  0  0  0  0
   39.0320   24.1180   41.3660 O   0  0  0  0  0  0  0  0  0  0  0  0
   37.8850   23.3800   40.9720 C   0  0  0  0  0  0  0  0  0  0  0  0
   35.2381   27.7443   41.5872 H   0  0  0  0  0  0  0  0  0  0  0  0
   34.6819   30.0689   40.6740 H   0  0  0  0  0  0  0  0  0  0  0  0
   35.9241   32.4489   40.1387 H   0  0  0  0  0  0  0  0  0  0  0  0
   38.1813   33.5331   40.2703 H   0  0  0  0  0  0  0  0  0  0  0  0
   40.1326   32.3042   41.1185 H   0  0  0  0  0  0  0  0  0  0  0  0
   39.9270   29.9406   41.8757 H   0  0  0  0  0  0  0  0  0  0  0  0
   40.0716   26.8726   44.9108 H   0  0  0  0  0  0  0  0  0  0  0  0
   40.2745   24.6646   43.6935 H   0  0  0  0  0  0  0  0  0  0  0  0
   37.3467   23.0337   41.8666 H   0  0  0  0  0  0  0  0  0  0  0  0
   37.2238   24.0226   40.3721 H   0  0  0  0  0  0  0  0  0  0  0  0
   38.1958   22.5120   40.3721 H   0  0  0  0  0  0  0  0  0  0  0  0
  1 14  1  0
  2  1  2  0
  3  2  1  0
  4  3  1  0
  4  9  2  0
  5  6  2  0
  5  4  1  0
  6  7  1  0
  7  8  2  0
  9  8  1  0
  9  1  1  0
 11 10  2  0
 12 11  1  0
 13 12  2  0
 13 14  1  0
 14 15  2  0
 15 10  1  0
 16 12  1  0
 17 16  1  0
  2 18  1  0
  3 19  1  0
  5 20  1  0
  6 21  1  0
  7 22  1  0
  8 23  1  0
 10 24  1  0
 11 25  1  0
 17 26  1  0
 17 27  1  0
 17 28  1  0
M  ISO  8  18  14  19   9  20  14  21  14  22  14  23  14  24  14  25  14
M  ISO  3  26   8  27   8  28   8
M  END
>  <minimizedAffinity>  (1) 
-4.87693691

>  <minimizedRMSD>  (1) 
1.25251496

$$$$
