
     RDKit          3D

 39 43  0  0  0  0  0  0  0  0999 V2000
   40.9800   31.3440   38.9970 C   0  0  0  0  0  0  0  0  0  0  0  0
   41.3060   32.6850   39.3670 C   0  0  0  0  0  0  0  0  0  0  0  0
   40.5670   33.2950   40.3900 C   0  0  0  0  0  0  0  0  0  0  0  0
   39.5620   32.5950   41.0020 N   0  0  0  0  0  0  0  0  0  0  0  0
   39.2870   31.3190   40.6160 C   0  0  0  0  0  0  0  0  0  0  0  0
   39.9820   30.6960   39.6300 N   0  0  0  0  0  0  0  0  0  0  0  0
   38.2190   30.5630   41.2610 C   0  0  0  0  0  0  0  0  0  0  0  0
   36.8370   30.7880   41.1580 C   0  0  0  0  0  0  0  0  0  0  0  0
   36.2410   29.8620   41.9120 N   0  0  0  0  0  0  0  0  0  0  0  0
   37.1380   29.0500   42.4990 C   0  0  0  0  0  0  0  0  0  0  0  0
   36.9510   27.9710   43.3500 C   0  0  0  0  0  0  0  0  0  0  0  0
   38.0730   27.3050   43.8110 C   0  0  0  0  0  0  0  0  0  0  0  0
   39.3080   27.7010   43.4370 C   0  0  0  0  0  0  0  0  0  0  0  0
   39.5100   28.7790   42.5870 C   0  0  0  0  0  0  0  0  0  0  0  0
   38.3950   29.4620   42.1110 C   0  0  0  0  0  0  0  0  0  0  0  0
   42.3600   33.3650   38.6960 N   0  0  0  0  0  0  0  0  0  0  0  0
   42.4180   34.0310   37.5190 C   0  0  0  0  0  0  0  0  0  0  0  0
   43.6910   34.4940   37.3550 N   0  0  0  0  0  0  0  0  0  0  0  0
   44.4110   34.1030   38.4460 C   0  0  0  0  0  0  0  0  0  0  0  0
   45.7500   34.3370   38.7310 C   0  0  0  0  0  0  0  0  0  0  0  0
   46.2420   33.8370   39.9000 N   0  0  0  0  0  0  0  0  0  0  0  0
   45.4260   33.1350   40.7370 C   0  0  0  0  0  0  0  0  0  0  0  0
   44.1330   32.9270   40.4280 N   0  0  0  0  0  0  0  0  0  0  0  0
   43.5810   33.3900   39.2970 C   0  0  0  0  0  0  0  0  0  0  0  0
   40.8430   34.5740   40.7740 O   0  0  0  0  0  0  0  0  0  0  0  0
   40.0790   35.6510   40.2870 C   0  0  0  0  0  0  0  0  0  0  0  0
   39.9380   36.5810   41.2850 F   0  0  0  0  0  0  0  0  0  0  0  0
   38.8330   35.2350   39.8200 F   0  0  0  0  0  0  0  0  0  0  0  0
   40.8040   36.1960   39.2310 F   0  0  0  0  0  0  0  0  0  0  0  0
   41.5427   30.8412   38.1967 H   0  0  0  0  0  0  0  0  0  0  0  0
   36.3416   31.5747   40.5700 H   0  0  0  0  0  0  0  0  0  0  0  0
   35.2211   29.7795   42.0297 H   0  0  0  0  0  0  0  0  0  0  0  0
   35.9411   27.6541   43.6495 H   0  0  0  0  0  0  0  0  0  0  0  0
   37.9575   26.4457   44.4879 H   0  0  0  0  0  0  0  0  0  0  0  0
   40.1817   27.1519   43.8180 H   0  0  0  0  0  0  0  0  0  0  0  0
   40.5257   29.0859   42.2968 H   0  0  0  0  0  0  0  0  0  0  0  0
   41.5836   34.1741   36.8166 H   0  0  0  0  0  0  0  0  0  0  0  0
   46.3897   34.9046   38.0393 H   0  0  0  0  0  0  0  0  0  0  0  0
   45.8303   32.7332   41.6778 H   0  0  0  0  0  0  0  0  0  0  0  0
  1  2  2  0
  1  6  1  0
  2  3  1  0
  3 25  1  0
  3  4  2  0
  5  4  1  0
  5  7  1  0
  6  5  2  0
  7 15  1  0
  8  7  2  0
  8  9  1  0
  9 10  1  0
 10 11  2  0
 11 12  1  0
 13 12  2  0
 14 13  1  0
 15 10  1  0
 15 14  2  0
 16 24  1  0
 16  2  1  0
 17 16  1  0
 18 17  2  0
 18 19  1  0
 19 20  2  0
 19 24  1  0
 20 21  1  0
 21 22  2  0
 23 22  1  0
 24 23  2  0
 26 25  1  0
 26 27  1  0
 28 26  1  0
 29 26  1  0
  1 30  1  0
  8 31  1  0
  9 32  1  0
 11 33  1  0
 12 34  1  0
 13 35  1  0
 14 36  1  0
 17 37  1  0
 20 38  1  0
 22 39  1  0
M  ISO  8  30  14  31  14  32   9  33  14  34  14  35  14  36  14  37  14
M  ISO  2  38  14  39  14
M  END
>  <minimizedAffinity>  (1) 
-6.85339546

>  <minimizedRMSD>  (1) 
1.76811421

$$$$
