
     RDKit          3D

 35 38  0  0  0  0  0  0  0  0999 V2000
   38.0810   30.7880   41.0850 C   0  0  0  0  0  0  0  0  0  0  0  0
   36.6750   30.9070   41.0960 C   0  0  0  0  0  0  0  0  0  0  0  0
   36.2300   29.9310   41.8980 N   0  0  0  0  0  0  0  0  0  0  0  0
   37.2460   29.1880   42.4060 C   0  0  0  0  0  0  0  0  0  0  0  0
   37.2050   28.1100   43.2570 C   0  0  0  0  0  0  0  0  0  0  0  0
   38.4160   27.5400   43.6160 C   0  0  0  0  0  0  0  0  0  0  0  0
   39.5890   28.0380   43.1380 C   0  0  0  0  0  0  0  0  0  0  0  0
   39.6350   29.1250   42.2800 C   0  0  0  0  0  0  0  0  0  0  0  0
   38.4170   29.7180   41.9040 C   0  0  0  0  0  0  0  0  0  0  0  0
   40.3280   31.9140   38.4340 C   0  0  0  0  0  0  0  0  0  0  0  0
   40.7910   33.1690   38.9220 C   0  0  0  0  0  0  0  0  0  0  0  0
   40.3090   33.6090   40.1750 C   0  0  0  0  0  0  0  0  0  0  0  0
   39.4220   32.8240   40.8790 N   0  0  0  0  0  0  0  0  0  0  0  0
   39.0250   31.6360   40.3490 C   0  0  0  0  0  0  0  0  0  0  0  0
   39.4650   31.1830   39.1540 N   0  0  0  0  0  0  0  0  0  0  0  0
   41.7310   34.0650   38.2410 C   0  0  0  0  0  0  0  0  0  0  0  0
   42.6640   33.6030   37.1900 C   0  0  0  0  0  0  0  0  0  0  0  0
   43.2030   33.7350   38.5600 C   0  0  0  0  0  0  0  0  0  0  0  0
   40.7140   34.8120   40.7060 O   0  0  0  0  0  0  0  0  0  0  0  0
   39.9390   35.9640   40.5220 C   0  0  0  0  0  0  0  0  0  0  0  0
   39.9640   36.6840   41.6900 F   0  0  0  0  0  0  0  0  0  0  0  0
   38.6290   35.6620   40.1380 F   0  0  0  0  0  0  0  0  0  0  0  0
   40.5420   36.6930   39.4990 F   0  0  0  0  0  0  0  0  0  0  0  0
   36.0686   31.6494   40.5564 H   0  0  0  0  0  0  0  0  0  0  0  0
   35.2349   29.7640   42.1048 H   0  0  0  0  0  0  0  0  0  0  0  0
   36.2510   27.7160   43.6373 H   0  0  0  0  0  0  0  0  0  0  0  0
   38.4294   26.6749   44.2953 H   0  0  0  0  0  0  0  0  0  0  0  0
   40.5323   27.5615   43.4431 H   0  0  0  0  0  0  0  0  0  0  0  0
   40.5941   29.5117   41.9049 H   0  0  0  0  0  0  0  0  0  0  0  0
   40.6804   31.5421   37.4606 H   0  0  0  0  0  0  0  0  0  0  0  0
   41.0286   34.9110   38.2701 H   0  0  0  0  0  0  0  0  0  0  0  0
   42.5349   32.6020   36.7525 H   0  0  0  0  0  0  0  0  0  0  0  0
   42.9666   34.0043   36.2115 H   0  0  0  0  0  0  0  0  0  0  0  0
   43.9116   34.5411   38.8011 H   0  0  0  0  0  0  0  0  0  0  0  0
   43.7246   33.0726   39.2665 H   0  0  0  0  0  0  0  0  0  0  0  0
  1  2  2  0
  1  9  1  0
  2  3  1  0
  3  4  1  0
  4  5  2  0
  5  6  1  0
  7  6  2  0
  8  7  1  0
  9  8  2  0
  9  4  1  0
 10 11  2  0
 10 15  1  0
 11 12  1  0
 12 19  1  0
 12 13  2  0
 14 13  1  0
 14  1  1  0
 15 14  2  0
 16 18  1  0
 16 11  1  0
 17 16  1  0
 17 18  1  0
 20 19  1  0
 20 21  1  0
 22 20  1  0
 23 20  1  0
  2 24  1  0
  3 25  1  0
  5 26  1  0
  6 27  1  0
  7 28  1  0
  8 29  1  0
 10 30  1  0
 16 31  1  0
 17 32  1  0
 17 33  1  0
 18 34  1  0
 18 35  1  0
M  ISO  8  24  14  25   9  26  14  27  14  28  14  29  14  30  14  31  13
M  ISO  4  32  13  33  13  34  13  35  13
M  END
>  <minimizedAffinity>  (1) 
-6.33377075

>  <minimizedRMSD>  (1) 
1.42964065

$$$$
