
     RDKit          3D

 34 36  0  0  0  0  0  0  0  0999 V2000
   38.0070   31.0550   40.8380 C   0  0  0  0  0  0  0  0  0  0  0  0
   36.6090   31.2180   40.8050 C   0  0  0  0  0  0  0  0  0  0  0  0
   36.0970   30.2990   41.6160 N   0  0  0  0  0  0  0  0  0  0  0  0
   37.0560   29.5430   42.1790 C   0  0  0  0  0  0  0  0  0  0  0  0
   36.9600   28.4980   43.0650 C   0  0  0  0  0  0  0  0  0  0  0  0
   38.1390   27.8930   43.4860 C   0  0  0  0  0  0  0  0  0  0  0  0
   39.3450   28.3260   43.0330 C   0  0  0  0  0  0  0  0  0  0  0  0
   39.4450   29.3820   42.1370 C   0  0  0  0  0  0  0  0  0  0  0  0
   38.2720   30.0030   41.7040 C   0  0  0  0  0  0  0  0  0  0  0  0
   40.3070   32.0580   38.1880 C   0  0  0  0  0  0  0  0  0  0  0  0
   40.8570   33.2630   38.6830 C   0  0  0  0  0  0  0  0  0  0  0  0
   40.4250   33.7230   39.9430 C   0  0  0  0  0  0  0  0  0  0  0  0
   39.4940   32.9880   40.6290 N   0  0  0  0  0  0  0  0  0  0  0  0
   39.0010   31.8410   40.1040 C   0  0  0  0  0  0  0  0  0  0  0  0
   39.3990   31.3780   38.9010 N   0  0  0  0  0  0  0  0  0  0  0  0
   40.9080   34.8810   40.4970 O   0  0  0  0  0  0  0  0  0  0  0  0
   40.2040   36.0840   40.3740 C   0  0  0  0  0  0  0  0  0  0  0  0
   40.2190   36.7330   41.5800 F   0  0  0  0  0  0  0  0  0  0  0  0
   38.8850   35.8560   39.9410 F   0  0  0  0  0  0  0  0  0  0  0  0
   40.8600   36.8370   39.4250 F   0  0  0  0  0  0  0  0  0  0  0  0
   41.8680   34.0800   37.9610 C   0  0  0  0  0  0  0  0  0  0  0  0
   43.0400   33.2670   37.4950 C   0  0  0  0  0  0  0  0  0  0  0  0
   36.0488   31.9627   40.2205 H   0  0  0  0  0  0  0  0  0  0  0  0
   35.0891   30.1801   41.7920 H   0  0  0  0  0  0  0  0  0  0  0  0
   35.9820   28.1509   43.4298 H   0  0  0  0  0  0  0  0  0  0  0  0
   38.0951   27.0530   44.1949 H   0  0  0  0  0  0  0  0  0  0  0  0
   40.2616   27.8292   43.3837 H   0  0  0  0  0  0  0  0  0  0  0  0
   40.4270   29.7219   41.7762 H   0  0  0  0  0  0  0  0  0  0  0  0
   40.6278   31.6751   37.2079 H   0  0  0  0  0  0  0  0  0  0  0  0
   41.3882   34.5409   37.0850 H   0  0  0  0  0  0  0  0  0  0  0  0
   42.2461   34.8386   38.6621 H   0  0  0  0  0  0  0  0  0  0  0  0
   43.5910   32.8848   38.3669 H   0  0  0  0  0  0  0  0  0  0  0  0
   42.6821   32.4222   36.8882 H   0  0  0  0  0  0  0  0  0  0  0  0
   43.7060   33.8981   36.8882 H   0  0  0  0  0  0  0  0  0  0  0  0
  1  9  1  0
  2  1  2  0
  2  3  1  0
  3  4  1  0
  4  5  2  0
  5  6  1  0
  7  6  2  0
  8  7  1  0
  9  8  2  0
  9  4  1  0
 10 11  2  0
 10 15  1  0
 11 12  1  0
 12 16  1  0
 12 13  2  0
 14 13  1  0
 14  1  1  0
 15 14  2  0
 17 16  1  0
 17 18  1  0
 19 17  1  0
 20 17  1  0
 21 11  1  0
 22 21  1  0
  2 23  1  0
  3 24  1  0
  5 25  1  0
  6 26  1  0
  7 27  1  0
  8 28  1  0
 10 29  1  0
 21 30  1  0
 21 31  1  0
 22 32  1  0
 22 33  1  0
 22 34  1  0
M  ISO  8  23  14  24   9  25  14  26  14  27  14  28  14  29  14  30   8
M  ISO  4  31   8  32   8  33   8  34   8
M  END
>  <minimizedAffinity>  (1) 
-6.20951557

>  <minimizedRMSD>  (1) 
1.54128361

$$$$
