
     RDKit          3D

 35 38  0  0  0  0  0  0  0  0999 V2000
   41.4980   31.2320   39.4770 C   0  0  0  0  0  0  0  0  0  0  0  0
   41.7450   32.5940   39.7590 C   0  0  0  0  0  0  0  0  0  0  0  0
   40.8410   33.2990   40.5500 C   0  0  0  0  0  0  0  0  0  0  0  0
   39.7330   32.6480   41.0340 N   0  0  0  0  0  0  0  0  0  0  0  0
   39.5360   31.3390   40.7370 C   0  0  0  0  0  0  0  0  0  0  0  0
   40.3970   30.6350   39.9740 N   0  0  0  0  0  0  0  0  0  0  0  0
   38.3530   30.6320   41.2450 C   0  0  0  0  0  0  0  0  0  0  0  0
   37.0010   30.9490   40.9890 C   0  0  0  0  0  0  0  0  0  0  0  0
   36.2770   30.0420   41.6460 N   0  0  0  0  0  0  0  0  0  0  0  0
   37.0580   29.1520   42.3140 C   0  0  0  0  0  0  0  0  0  0  0  0
   36.7070   28.0820   43.0980 C   0  0  0  0  0  0  0  0  0  0  0  0
   37.7240   27.3410   43.6600 C   0  0  0  0  0  0  0  0  0  0  0  0
   39.0110   27.6700   43.4380 C   0  0  0  0  0  0  0  0  0  0  0  0
   39.3760   28.7470   42.6510 C   0  0  0  0  0  0  0  0  0  0  0  0
   38.3630   29.5100   42.0720 C   0  0  0  0  0  0  0  0  0  0  0  0
   42.9310   33.2070   39.2120 C   0  0  0  0  0  0  0  0  0  0  0  0
   43.2690   33.6730   37.9170 C   0  0  0  0  0  0  0  0  0  0  0  0
   44.5270   34.1990   37.8220 C   0  0  0  0  0  0  0  0  0  0  0  0
   45.3710   34.2510   38.9330 C   0  0  0  0  0  0  0  0  0  0  0  0
   44.3600   33.5230   40.2000 S   0  0  0  0  0  0  0  0  0  0  0  0
   41.0330   34.6170   40.8530 O   0  0  0  0  0  0  0  0  0  0  0  0
   40.3230   35.6220   40.1690 C   0  0  0  0  0  0  0  0  0  0  0  0
   40.1570   36.6890   41.0130 F   0  0  0  0  0  0  0  0  0  0  0  0
   39.0940   35.1660   39.7070 F   0  0  0  0  0  0  0  0  0  0  0  0
   41.1020   35.9860   39.0860 F   0  0  0  0  0  0  0  0  0  0  0  0
   42.2020   30.6609   38.8539 H   0  0  0  0  0  0  0  0  0  0  0  0
   36.6216   31.7770   40.3722 H   0  0  0  0  0  0  0  0  0  0  0  0
   35.2473   30.0185   41.6472 H   0  0  0  0  0  0  0  0  0  0  0  0
   35.6517   27.8249   43.2717 H   0  0  0  0  0  0  0  0  0  0  0  0
   37.4830   26.4751   44.2941 H   0  0  0  0  0  0  0  0  0  0  0  0
   39.8010   27.0595   43.8997 H   0  0  0  0  0  0  0  0  0  0  0  0
   40.4351   28.9945   42.4866 H   0  0  0  0  0  0  0  0  0  0  0  0
   42.5788   33.6163   37.0624 H   0  0  0  0  0  0  0  0  0  0  0  0
   44.8799   34.5874   36.8552 H   0  0  0  0  0  0  0  0  0  0  0  0
   46.3967   34.6417   39.0053 H   0  0  0  0  0  0  0  0  0  0  0  0
  1  2  2  0
  1  6  1  0
  2  3  1  0
  3 21  1  0
  3  4  2  0
  5  4  1  0
  5  7  1  0
  6  5  2  0
  7 15  1  0
  8  7  2  0
  8  9  1  0
  9 10  1  0
 10 11  2  0
 11 12  1  0
 13 12  2  0
 14 13  1  0
 15 10  1  0
 15 14  2  0
 16  2  1  0
 16 20  1  0
 17 16  2  0
 18 17  1  0
 18 19  2  0
 19 20  1  0
 22 21  1  0
 22 23  1  0
 24 22  1  0
 25 22  1  0
  1 26  1  0
  8 27  1  0
  9 28  1  0
 11 29  1  0
 12 30  1  0
 13 31  1  0
 14 32  1  0
 17 33  1  0
 18 34  1  0
 19 35  1  0
M  ISO  8  26  14  27  14  28   9  29  14  30  14  31  14  32  14  33  14
M  ISO  2  34  14  35  14
M  END
>  <minimizedAffinity>  (1) 
-6.10134697

>  <minimizedRMSD>  (1) 
2.08584261

$$$$
