
     RDKit          3D

 35 38  0  0  0  0  0  0  0  0999 V2000
   40.9180   31.2070   39.0460 C   0  0  0  0  0  0  0  0  0  0  0  0
   41.2790   32.5220   39.4290 C   0  0  0  0  0  0  0  0  0  0  0  0
   40.5070   33.1660   40.4030 C   0  0  0  0  0  0  0  0  0  0  0  0
   39.4330   32.5160   40.9590 N   0  0  0  0  0  0  0  0  0  0  0  0
   39.1280   31.2500   40.5550 C   0  0  0  0  0  0  0  0  0  0  0  0
   39.8540   30.5940   39.6120 N   0  0  0  0  0  0  0  0  0  0  0  0
   37.9940   30.5450   41.1290 C   0  0  0  0  0  0  0  0  0  0  0  0
   36.6250   30.8270   40.9370 C   0  0  0  0  0  0  0  0  0  0  0  0
   35.9440   29.9270   41.6510 N   0  0  0  0  0  0  0  0  0  0  0  0
   36.7700   29.0730   42.2980 C   0  0  0  0  0  0  0  0  0  0  0  0
   36.4740   28.0200   43.1230 C   0  0  0  0  0  0  0  0  0  0  0  0
   37.5430   27.3010   43.6600 C   0  0  0  0  0  0  0  0  0  0  0  0
   38.8080   27.6510   43.3620 C   0  0  0  0  0  0  0  0  0  0  0  0
   39.1290   28.7090   42.5350 C   0  0  0  0  0  0  0  0  0  0  0  0
   38.0700   29.4390   41.9880 C   0  0  0  0  0  0  0  0  0  0  0  0
   42.3900   33.2050   38.8610 N   0  0  0  0  0  0  0  0  0  0  0  0
   43.5790   33.4930   39.3580 N   0  0  0  0  0  0  0  0  0  0  0  0
   44.3170   34.1580   38.4540 C   0  0  0  0  0  0  0  0  0  0  0  0
   43.5060   34.2820   37.3240 C   0  0  0  0  0  0  0  0  0  0  0  0
   42.2860   33.6700   37.6020 C   0  0  0  0  0  0  0  0  0  0  0  0
   40.8010   34.4410   40.8200 O   0  0  0  0  0  0  0  0  0  0  0  0
   40.0980   35.5370   40.3070 C   0  0  0  0  0  0  0  0  0  0  0  0
   39.9750   36.4830   41.2910 F   0  0  0  0  0  0  0  0  0  0  0  0
   38.8410   35.1580   39.8220 F   0  0  0  0  0  0  0  0  0  0  0  0
   40.8470   36.0470   39.2570 F   0  0  0  0  0  0  0  0  0  0  0  0
   41.5082   30.6801   38.2817 H   0  0  0  0  0  0  0  0  0  0  0  0
   36.2008   31.6321   40.3190 H   0  0  0  0  0  0  0  0  0  0  0  0
   34.9160   29.8879   41.7027 H   0  0  0  0  0  0  0  0  0  0  0  0
   35.4326   27.7512   43.3536 H   0  0  0  0  0  0  0  0  0  0  0  0
   37.3515   26.4477   44.3272 H   0  0  0  0  0  0  0  0  0  0  0  0
   39.6286   27.0638   43.8000 H   0  0  0  0  0  0  0  0  0  0  0  0
   40.1756   28.9669   42.3156 H   0  0  0  0  0  0  0  0  0  0  0  0
   45.3456   34.5278   38.5779 H   0  0  0  0  0  0  0  0  0  0  0  0
   43.7819   34.7759   36.3806 H   0  0  0  0  0  0  0  0  0  0  0  0
   41.4179   33.5844   36.9319 H   0  0  0  0  0  0  0  0  0  0  0  0
  1  2  2  0
  1  6  1  0
  2  3  1  0
  3 21  1  0
  3  4  2  0
  5  4  1  0
  5  7  1  0
  6  5  2  0
  7 15  1  0
  8  7  2  0
  8  9  1  0
  9 10  1  0
 10 11  2  0
 11 12  1  0
 13 12  2  0
 14 13  1  0
 15 10  1  0
 15 14  2  0
 16 17  1  0
 16  2  1  0
 18 17  2  0
 19 20  2  0
 19 18  1  0
 20 16  1  0
 22 21  1  0
 22 23  1  0
 24 22  1  0
 25 22  1  0
  1 26  1  0
  8 27  1  0
  9 28  1  0
 11 29  1  0
 12 30  1  0
 13 31  1  0
 14 32  1  0
 18 33  1  0
 19 34  1  0
 20 35  1  0
M  ISO  8  26  14  27  14  28   9  29  14  30  14  31  14  32  14  33  14
M  ISO  2  34  14  35  14
M  END
>  <minimizedAffinity>  (1) 
-6.09393072

>  <minimizedRMSD>  (1) 
1.70589972

$$$$
