
     RDKit          3D

 31 33  0  0  0  0  0  0  0  0999 V2000
   38.1500   30.3510   41.1180 C   0  0  0  0  0  0  0  0  0  0  0  0
   36.7470   30.4440   41.2340 C   0  0  0  0  0  0  0  0  0  0  0  0
   36.3590   29.5390   42.1160 N   0  0  0  0  0  0  0  0  0  0  0  0
   37.4190   28.8460   42.5950 C   0  0  0  0  0  0  0  0  0  0  0  0
   37.4680   27.8190   43.5250 C   0  0  0  0  0  0  0  0  0  0  0  0
   38.7090   27.2890   43.8300 C   0  0  0  0  0  0  0  0  0  0  0  0
   39.8290   27.7630   43.2360 C   0  0  0  0  0  0  0  0  0  0  0  0
   39.7980   28.7870   42.3060 C   0  0  0  0  0  0  0  0  0  0  0  0
   38.5490   29.3390   41.9830 C   0  0  0  0  0  0  0  0  0  0  0  0
   40.3910   31.2280   38.3640 C   0  0  0  0  0  0  0  0  0  0  0  0
   40.6590   32.5920   38.6140 C   0  0  0  0  0  0  0  0  0  0  0  0
   40.0650   33.2000   39.7270 C   0  0  0  0  0  0  0  0  0  0  0  0
   39.2460   32.4590   40.5390 N   0  0  0  0  0  0  0  0  0  0  0  0
   39.0190   31.1530   40.2610 C   0  0  0  0  0  0  0  0  0  0  0  0
   39.5760   30.5410   39.1970 N   0  0  0  0  0  0  0  0  0  0  0  0
   41.5520   33.3620   37.7090 C   0  0  0  0  0  0  0  0  0  0  0  0
   40.2890   34.5240   40.0190 O   0  0  0  0  0  0  0  0  0  0  0  0
   39.2200   35.3850   40.3020 C   0  0  0  0  0  0  0  0  0  0  0  0
   39.5420   36.6410   39.8620 F   0  0  0  0  0  0  0  0  0  0  0  0
   38.8890   35.4030   41.6520 F   0  0  0  0  0  0  0  0  0  0  0  0
   38.1380   34.9050   39.5840 F   0  0  0  0  0  0  0  0  0  0  0  0
   36.0946   31.1425   40.6895 H   0  0  0  0  0  0  0  0  0  0  0  0
   35.3816   29.3821   42.4006 H   0  0  0  0  0  0  0  0  0  0  0  0
   36.5531   27.4392   44.0032 H   0  0  0  0  0  0  0  0  0  0  0  0
   38.7864   26.4730   44.5636 H   0  0  0  0  0  0  0  0  0  0  0  0
   40.7991   27.3180   43.5023 H   0  0  0  0  0  0  0  0  0  0  0  0
   40.7214   29.1560   41.8357 H   0  0  0  0  0  0  0  0  0  0  0  0
   40.8431   30.7264   37.4956 H   0  0  0  0  0  0  0  0  0  0  0  0
   42.2505   33.9643   38.3085 H   0  0  0  0  0  0  0  0  0  0  0  0
   42.1197   32.6656   37.0744 H   0  0  0  0  0  0  0  0  0  0  0  0
   40.9467   34.0260   37.0744 H   0  0  0  0  0  0  0  0  0  0  0  0
  1  2  2  0
  1  9  1  0
  2  3  1  0
  3  4  1  0
  4  5  2  0
  5  6  1  0
  7  6  2  0
  8  7  1  0
  9  8  2  0
  9  4  1  0
 10 11  2  0
 10 15  1  0
 11 12  1  0
 12 17  1  0
 12 13  2  0
 14 13  1  0
 14  1  1  0
 15 14  2  0
 16 11  1  0
 17 18  1  0
 18 20  1  0
 19 18  1  0
 21 18  1  0
  2 22  1  0
  3 23  1  0
  5 24  1  0
  6 25  1  0
  7 26  1  0
  8 27  1  0
 10 28  1  0
 16 29  1  0
 16 30  1  0
 16 31  1  0
M  ISO  8  22  14  23   9  24  14  25  14  26  14  27  14  28  14  29   8
M  ISO  2  30   8  31   8
M  END
>  <minimizedAffinity>  (1) 
-6.06734943

>  <minimizedRMSD>  (1) 
0.402921975

$$$$
