
     RDKit          3D

 35 37  0  0  0  0  0  0  0  0999 V2000
   37.6530   28.8530   41.7820 N   0  0  0  0  0  0  0  0  0  0  0  0
   37.0860   28.5390   42.9450 C   0  0  0  0  0  0  0  0  0  0  0  0
   36.7470   27.2460   43.3010 C   0  0  0  0  0  0  0  0  0  0  0  0
   37.0020   26.1960   42.4170 C   0  0  0  0  0  0  0  0  0  0  0  0
   36.7120   25.0170   42.7030 O   0  0  0  0  0  0  0  0  0  0  0  0
   37.5860   26.5680   41.2340 N   0  0  0  0  0  0  0  0  0  0  0  0
   37.8900   27.8370   40.9480 C   0  0  0  0  0  0  0  0  0  0  0  0
   38.4310   28.0860   39.8310 O   0  0  0  0  0  0  0  0  0  0  0  0
   37.9930   30.1890   41.4280 C   0  0  0  0  0  0  0  0  0  0  0  0
   39.2190   30.8100   41.7190 C   0  0  0  0  0  0  0  0  0  0  0  0
   39.4050   32.1260   41.3070 C   0  0  0  0  0  0  0  0  0  0  0  0
   38.3900   32.7470   40.6430 N   0  0  0  0  0  0  0  0  0  0  0  0
   37.2280   32.1250   40.3780 C   0  0  0  0  0  0  0  0  0  0  0  0
   37.0150   30.8590   40.7610 N   0  0  0  0  0  0  0  0  0  0  0  0
   37.6210   22.7410   39.4810 N   0  0  0  0  0  0  0  0  0  0  0  0
   38.4420   23.0880   40.5900 C   0  0  0  0  0  0  0  0  0  0  0  0
   38.8670   24.5110   40.7100 C   0  0  0  0  0  0  0  0  0  0  0  0
   37.8810   25.5350   40.2600 C   0  0  0  0  0  0  0  0  0  0  0  0
   36.5990   24.8350   39.7930 C   0  0  0  0  0  0  0  0  0  0  0  0
   37.1040   23.8550   38.7390 C   0  0  0  0  0  0  0  0  0  0  0  0
   36.8765   29.3490   43.6591 H   0  0  0  0  0  0  0  0  0  0  0  0
   36.2787   27.0461   44.2761 H   0  0  0  0  0  0  0  0  0  0  0  0
   40.0112   30.2701   42.2584 H   0  0  0  0  0  0  0  0  0  0  0  0
   40.3488   32.6524   41.5124 H   0  0  0  0  0  0  0  0  0  0  0  0
   36.4375   32.6655   39.8367 H   0  0  0  0  0  0  0  0  0  0  0  0
   38.1794   22.1606   38.8389 H   0  0  0  0  0  0  0  0  0  0  0  0
   37.8871   22.8312   41.5044 H   0  0  0  0  0  0  0  0  0  0  0  0
   39.3758   22.5277   40.4348 H   0  0  0  0  0  0  0  0  0  0  0  0
   39.0924   24.7053   41.7690 H   0  0  0  0  0  0  0  0  0  0  0  0
   39.7292   24.6175   40.0353 H   0  0  0  0  0  0  0  0  0  0  0  0
   38.3532   26.0730   39.4248 H   0  0  0  0  0  0  0  0  0  0  0  0
   36.1134   24.3043   40.6252 H   0  0  0  0  0  0  0  0  0  0  0  0
   35.8415   25.5329   39.4068 H   0  0  0  0  0  0  0  0  0  0  0  0
   37.8970   24.3158   38.1317 H   0  0  0  0  0  0  0  0  0  0  0  0
   36.3080   23.5524   38.0427 H   0  0  0  0  0  0  0  0  0  0  0  0
  1  2  1  0
  2  3  2  0
  4  5  2  0
  4  3  1  0
  6  4  1  0
  7  6  1  0
  7  1  1  0
  8  7  2  0
  9 10  2  0
  9  1  1  0
 11 10  1  0
 12 11  2  0
 13 12  1  0
 13 14  2  0
 14  9  1  0
 15 16  1  0
 16 17  1  0
 18 17  1  0
 18  6  1  0
 19 18  1  0
 20 15  1  0
 20 19  1  0
  2 21  1  0
  3 22  1  0
 10 23  1  0
 11 24  1  0
 13 25  1  0
 15 26  1  0
 16 27  1  0
 16 28  1  0
 17 29  1  0
 17 30  1  0
 18 31  1  0
 19 32  1  0
 19 33  1  0
 20 34  1  0
 20 35  1  0
M  ISO  8  21  14  22  14  23  14  24  14  25  14  26   5  27  13  28  13
M  ISO  7  29  13  30  13  31  13  32  13  33  13  34  13  35  13
M  END
>  <minimizedAffinity>  (1) 
-4.79443932

>  <minimizedRMSD>  (1) 
0.751628518

$$$$
