
     RDKit          3D

 25 27  0  0  0  0  0  0  0  0999 V2000
   37.7010   28.7610   41.7180 N   0  0  0  0  0  0  0  0  0  0  0  0
   37.0370   28.4080   42.8210 C   0  0  0  0  0  0  0  0  0  0  0  0
   36.7290   27.1050   43.1430 C   0  0  0  0  0  0  0  0  0  0  0  0
   37.1070   26.0710   42.3040 C   0  0  0  0  0  0  0  0  0  0  0  0
   36.8510   24.8800   42.5520 O   0  0  0  0  0  0  0  0  0  0  0  0
   37.7770   26.4720   41.1960 N   0  0  0  0  0  0  0  0  0  0  0  0
   38.0640   27.7520   40.9090 C   0  0  0  0  0  0  0  0  0  0  0  0
   38.6900   28.0290   39.8560 O   0  0  0  0  0  0  0  0  0  0  0  0
   38.1830   25.4130   40.3050 C   0  0  0  0  0  0  0  0  0  0  0  0
   38.8590   24.4000   40.9150 N   0  0  0  0  0  0  0  0  0  0  0  0
   39.1410   23.5440   39.9650 O   0  0  0  0  0  0  0  0  0  0  0  0
   38.6740   23.9820   38.8140 C   0  0  0  0  0  0  0  0  0  0  0  0
   38.0530   25.1770   38.9900 N   0  0  0  0  0  0  0  0  0  0  0  0
   38.0130   30.1150   41.4000 C   0  0  0  0  0  0  0  0  0  0  0  0
   39.2500   30.7370   41.7510 C   0  0  0  0  0  0  0  0  0  0  0  0
   39.4000   32.0740   41.3650 C   0  0  0  0  0  0  0  0  0  0  0  0
   38.3910   32.6840   40.6970 N   0  0  0  0  0  0  0  0  0  0  0  0
   37.2420   32.0610   40.3850 C   0  0  0  0  0  0  0  0  0  0  0  0
   37.0580   30.7810   40.7370 N   0  0  0  0  0  0  0  0  0  0  0  0
   36.7180   29.2026   43.5115 H   0  0  0  0  0  0  0  0  0  0  0  0
   36.1804   26.8850   44.0707 H   0  0  0  0  0  0  0  0  0  0  0  0
   38.7724   23.4574   37.8522 H   0  0  0  0  0  0  0  0  0  0  0  0
   40.0395   30.1963   42.2935 H   0  0  0  0  0  0  0  0  0  0  0  0
   40.3242   32.6221   41.6006 H   0  0  0  0  0  0  0  0  0  0  0  0
   36.4531   32.6012   39.8411 H   0  0  0  0  0  0  0  0  0  0  0  0
  1  2  1  0
  2  3  2  0
  4  5  2  0
  4  3  1  0
  6  4  1  0
  7  6  1  0
  7  1  1  0
  8  7  2  0
  9 10  2  0
  9  6  1  0
 11 10  1  0
 12 13  2  0
 12 11  1  0
 13  9  1  0
 14  1  1  0
 14 15  2  0
 16 15  1  0
 17 16  2  0
 18 17  1  0
 18 19  2  0
 19 14  1  0
  2 20  1  0
  3 21  1  0
 12 22  1  0
 15 23  1  0
 16 24  1  0
 18 25  1  0
M  ISO  6  20  14  21  14  22  14  23  14  24  14  25  14
M  END
>  <minimizedAffinity>  (1) 
-4.70032692

>  <minimizedRMSD>  (1) 
0.230342507

$$$$
