
     RDKit          3D

 30 32  0  0  0  0  0  0  0  0999 V2000
   37.6280   28.9500   41.7410 N   0  0  0  0  0  0  0  0  0  0  0  0
   37.1220   28.6460   42.9310 C   0  0  0  0  0  0  0  0  0  0  0  0
   36.8110   27.3630   43.3200 C   0  0  0  0  0  0  0  0  0  0  0  0
   37.0290   26.2960   42.4340 C   0  0  0  0  0  0  0  0  0  0  0  0
   36.7660   25.1170   42.7360 O   0  0  0  0  0  0  0  0  0  0  0  0
   37.5520   26.6650   41.2240 N   0  0  0  0  0  0  0  0  0  0  0  0
   37.8340   27.9280   40.9000 C   0  0  0  0  0  0  0  0  0  0  0  0
   38.3150   28.1780   39.7560 O   0  0  0  0  0  0  0  0  0  0  0  0
   37.9380   30.2830   41.3650 C   0  0  0  0  0  0  0  0  0  0  0  0
   39.1600   30.9460   41.6400 C   0  0  0  0  0  0  0  0  0  0  0  0
   39.3120   32.2590   41.2040 C   0  0  0  0  0  0  0  0  0  0  0  0
   38.2850   32.8380   40.5390 N   0  0  0  0  0  0  0  0  0  0  0  0
   37.1260   32.1970   40.2850 C   0  0  0  0  0  0  0  0  0  0  0  0
   36.9570   30.9360   40.6930 N   0  0  0  0  0  0  0  0  0  0  0  0
   37.7810   25.5980   40.3110 C   0  0  0  0  0  0  0  0  0  0  0  0
   38.9540   24.8810   40.2070 C   0  0  0  0  0  0  0  0  0  0  0  0
   39.1220   23.8540   39.3030 C   0  0  0  0  0  0  0  0  0  0  0  0
   38.0800   23.5220   38.4660 C   0  0  0  0  0  0  0  0  0  0  0  0
   36.8960   24.2520   38.5800 C   0  0  0  0  0  0  0  0  0  0  0  0
   36.7260   25.2720   39.4730 C   0  0  0  0  0  0  0  0  0  0  0  0
   36.9418   29.4640   43.6441 H   0  0  0  0  0  0  0  0  0  0  0  0
   36.3937   27.1745   44.3202 H   0  0  0  0  0  0  0  0  0  0  0  0
   39.9682   30.4356   42.1844 H   0  0  0  0  0  0  0  0  0  0  0  0
   40.2433   32.8123   41.3950 H   0  0  0  0  0  0  0  0  0  0  0  0
   36.3199   32.7122   39.7420 H   0  0  0  0  0  0  0  0  0  0  0  0
   39.7905   25.1392   40.8730 H   0  0  0  0  0  0  0  0  0  0  0  0
   40.0751   23.3073   39.2509 H   0  0  0  0  0  0  0  0  0  0  0  0
   38.1777   22.7085   37.7320 H   0  0  0  0  0  0  0  0  0  0  0  0
   36.0571   23.9930   37.9173 H   0  0  0  0  0  0  0  0  0  0  0  0
   35.7745   25.8215   39.5257 H   0  0  0  0  0  0  0  0  0  0  0  0
  1  2  1  0
  2  3  2  0
  4  5  2  0
  4  3  1  0
  6  4  1  0
  7  6  1  0
  7  1  1  0
  8  7  2  0
  9 10  2  0
  9  1  1  0
 11 10  1  0
 12 11  2  0
 13 12  1  0
 13 14  2  0
 14  9  1  0
 15  6  1  0
 16 15  2  0
 17 16  1  0
 18 19  1  0
 18 17  2  0
 19 20  2  0
 20 15  1  0
  2 21  1  0
  3 22  1  0
 10 23  1  0
 11 24  1  0
 13 25  1  0
 16 26  1  0
 17 27  1  0
 18 28  1  0
 19 29  1  0
 20 30  1  0
M  ISO  8  21  14  22  14  23  14  24  14  25  14  26  14  27  14  28  14
M  ISO  2  29  14  30  14
M  END
>  <minimizedAffinity>  (1) 
-4.69871044

>  <minimizedRMSD>  (1) 
0.662911594

$$$$
