
     RDKit          3D

 27 29  0  0  0  0  0  0  0  0999 V2000
   37.7090   28.7590   41.7410 N   0  0  0  0  0  0  0  0  0  0  0  0
   37.0400   28.4010   42.8200 C   0  0  0  0  0  0  0  0  0  0  0  0
   36.7140   27.1040   43.1480 C   0  0  0  0  0  0  0  0  0  0  0  0
   37.1030   26.0700   42.3070 C   0  0  0  0  0  0  0  0  0  0  0  0
   36.8480   24.8740   42.5340 O   0  0  0  0  0  0  0  0  0  0  0  0
   37.7950   26.4620   41.1960 N   0  0  0  0  0  0  0  0  0  0  0  0
   38.0800   27.7600   40.9360 C   0  0  0  0  0  0  0  0  0  0  0  0
   38.7280   28.0250   39.8750 O   0  0  0  0  0  0  0  0  0  0  0  0
   38.2450   25.4680   40.2550 C   0  0  0  0  0  0  0  0  0  0  0  0
   39.2830   24.5570   40.3050 C   0  0  0  0  0  0  0  0  0  0  0  0
   39.2670   23.8460   39.1390 C   0  0  0  0  0  0  0  0  0  0  0  0
   38.2630   24.2920   38.3860 N   0  0  0  0  0  0  0  0  0  0  0  0
   37.6550   25.2570   39.0530 N   0  0  0  0  0  0  0  0  0  0  0  0
   38.0330   30.1070   41.4240 C   0  0  0  0  0  0  0  0  0  0  0  0
   39.2510   30.7400   41.7600 C   0  0  0  0  0  0  0  0  0  0  0  0
   39.4140   32.0680   41.3770 C   0  0  0  0  0  0  0  0  0  0  0  0
   38.4100   32.6890   40.7070 N   0  0  0  0  0  0  0  0  0  0  0  0
   37.2570   32.0570   40.4000 C   0  0  0  0  0  0  0  0  0  0  0  0
   37.0610   30.7770   40.7510 N   0  0  0  0  0  0  0  0  0  0  0  0
   36.7190   29.1969   43.5082 H   0  0  0  0  0  0  0  0  0  0  0  0
   36.1505   26.8890   44.0679 H   0  0  0  0  0  0  0  0  0  0  0  0
   39.9939   24.4278   41.1344 H   0  0  0  0  0  0  0  0  0  0  0  0
   39.9655   23.0408   38.8676 H   0  0  0  0  0  0  0  0  0  0  0  0
   38.0063   23.9462   37.4504 H   0  0  0  0  0  0  0  0  0  0  0  0
   40.0415   30.2026   42.3044 H   0  0  0  0  0  0  0  0  0  0  0  0
   40.3433   32.6068   41.6139 H   0  0  0  0  0  0  0  0  0  0  0  0
   36.4690   32.5980   39.8556 H   0  0  0  0  0  0  0  0  0  0  0  0
  1  2  1  0
  2  3  2  0
  4  5  2  0
  4  3  1  0
  6  4  1  0
  7  6  1  0
  7  1  1  0
  8  7  2  0
  9 10  1  0
  9  6  1  0
 11 10  2  0
 12 13  1  0
 12 11  1  0
 13  9  2  0
 14  1  1  0
 14 15  2  0
 16 15  1  0
 17 16  2  0
 18 17  1  0
 18 19  2  0
 19 14  1  0
  2 20  1  0
  3 21  1  0
 10 22  1  0
 11 23  1  0
 12 24  1  0
 15 25  1  0
 16 26  1  0
 18 27  1  0
M  ISO  8  20  14  21  14  22  14  23  14  24   9  25  14  26  14  27  14
M  END
>  <minimizedAffinity>  (1) 
-4.68514252

>  <minimizedRMSD>  (1) 
0.259643197

$$$$
