
     RDKit          3D

 28 30  0  0  0  0  0  0  0  0999 V2000
   37.5720   28.9490   41.7610 N   0  0  0  0  0  0  0  0  0  0  0  0
   37.0880   28.6480   42.9650 C   0  0  0  0  0  0  0  0  0  0  0  0
   36.7670   27.3670   43.3610 C   0  0  0  0  0  0  0  0  0  0  0  0
   36.9490   26.3060   42.4740 C   0  0  0  0  0  0  0  0  0  0  0  0
   36.6790   25.1170   42.7630 O   0  0  0  0  0  0  0  0  0  0  0  0
   37.4430   26.6540   41.2590 N   0  0  0  0  0  0  0  0  0  0  0  0
   37.7440   27.9240   40.9150 C   0  0  0  0  0  0  0  0  0  0  0  0
   38.1990   28.1620   39.7650 O   0  0  0  0  0  0  0  0  0  0  0  0
   37.8960   30.2820   41.3780 C   0  0  0  0  0  0  0  0  0  0  0  0
   39.1380   30.9130   41.6630 C   0  0  0  0  0  0  0  0  0  0  0  0
   39.2950   32.2310   41.2140 C   0  0  0  0  0  0  0  0  0  0  0  0
   38.2850   32.8260   40.5470 N   0  0  0  0  0  0  0  0  0  0  0  0
   37.1160   32.1940   40.2930 C   0  0  0  0  0  0  0  0  0  0  0  0
   36.9210   30.9310   40.7060 N   0  0  0  0  0  0  0  0  0  0  0  0
   37.6650   25.6350   40.2820 C   0  0  0  0  0  0  0  0  0  0  0  0
   36.6200   25.3530   39.4170 C   0  0  0  0  0  0  0  0  0  0  0  0
   36.8260   24.3770   38.4790 C   0  0  0  0  0  0  0  0  0  0  0  0
   37.9870   23.7210   38.3990 N   0  0  0  0  0  0  0  0  0  0  0  0
   38.9870   23.9910   39.2280 C   0  0  0  0  0  0  0  0  0  0  0  0
   38.8220   24.9560   40.1760 N   0  0  0  0  0  0  0  0  0  0  0  0
   36.9360   29.4671   43.6833 H   0  0  0  0  0  0  0  0  0  0  0  0
   36.3698   27.1828   44.3701 H   0  0  0  0  0  0  0  0  0  0  0  0
   39.9373   30.3914   42.2098 H   0  0  0  0  0  0  0  0  0  0  0  0
   40.2322   32.7747   41.4035 H   0  0  0  0  0  0  0  0  0  0  0  0
   36.3197   32.7183   39.7444 H   0  0  0  0  0  0  0  0  0  0  0  0
   35.6631   25.8917   39.4813 H   0  0  0  0  0  0  0  0  0  0  0  0
   36.0177   24.1276   37.7758 H   0  0  0  0  0  0  0  0  0  0  0  0
   39.9375   23.4427   39.1511 H   0  0  0  0  0  0  0  0  0  0  0  0
  1  2  1  0
  2  3  2  0
  4  5  2  0
  4  3  1  0
  6  4  1  0
  7  6  1  0
  7  1  1  0
  8  7  2  0
  9 10  2  0
  9  1  1  0
 11 10  1  0
 12 11  2  0
 13 12  1  0
 13 14  2  0
 14  9  1  0
 15  6  1  0
 16 15  2  0
 17 16  1  0
 18 17  2  0
 18 19  1  0
 19 20  2  0
 20 15  1  0
  2 21  1  0
  3 22  1  0
 10 23  1  0
 11 24  1  0
 13 25  1  0
 16 26  1  0
 17 27  1  0
 19 28  1  0
M  ISO  8  21  14  22  14  23  14  24  14  25  14  26  14  27  14  28  14
M  END
>  <minimizedAffinity>  (1) 
-4.59446621

>  <minimizedRMSD>  (1) 
0.52186805

$$$$
