
     RDKit          3D

 47 51  0  0  1  0  0  0  0  0999 V2000
   37.7130   25.7040   40.4140 C   0  0  2  0  0  0  0  0  0  0  0  0
   36.5380   24.8850   40.0900 C   0  0  0  0  0  0  0  0  0  0  0  0
   37.1810   23.5990   39.5410 C   0  0  0  0  0  0  0  0  0  0  0  0
   38.2480   23.3450   40.5380 C   0  0  0  0  0  0  0  0  0  0  0  0
   38.7500   24.7160   40.9130 C   0  0  1  0  0  0  0  0  0  0  0  0
   40.0430   24.9920   40.2970 N   0  0  0  0  0  0  0  0  0  0  0  0
   40.2500   25.1930   38.9820 C   0  0  0  0  0  0  0  0  0  0  0  0
   41.5640   25.4250   38.7230 N   0  0  0  0  0  0  0  0  0  0  0  0
   42.2100   25.3690   39.9190 C   0  0  0  0  0  0  0  0  0  0  0  0
   43.5440   25.5290   40.2330 C   0  0  0  0  0  0  0  0  0  0  0  0
   44.4360   25.7730   39.3850 O   0  0  0  0  0  0  0  0  0  0  0  0
   43.9370   25.4230   41.5160 N   0  0  0  0  0  0  0  0  0  0  0  0
   42.9590   25.1590   42.4160 C   0  0  0  0  0  0  0  0  0  0  0  0
   43.3950   25.0480   43.7780 N   0  0  0  0  0  0  0  0  0  0  0  0
   41.6450   24.9940   42.1540 N   0  0  0  0  0  0  0  0  0  0  0  0
   41.2440   25.0990   40.8650 C   0  0  0  0  0  0  0  0  0  0  0  0
   37.6740   29.0890   41.8500 N   0  0  0  0  0  0  0  0  0  0  0  0
   37.1310   28.8210   43.0220 C   0  0  0  0  0  0  0  0  0  0  0  0
   36.7580   27.5470   43.4080 C   0  0  0  0  0  0  0  0  0  0  0  0
   36.9460   26.4650   42.5490 C   0  0  0  0  0  0  0  0  0  0  0  0
   36.6180   25.3190   42.8830 O   0  0  0  0  0  0  0  0  0  0  0  0
   37.5010   26.7870   41.3680 N   0  0  0  0  0  0  0  0  0  0  0  0
   37.8520   28.0420   41.0270 C   0  0  0  0  0  0  0  0  0  0  0  0
   38.3720   28.2260   39.8800 O   0  0  0  0  0  0  0  0  0  0  0  0
   38.0590   30.3830   41.4450 C   0  0  0  0  0  0  0  0  0  0  0  0
   39.3640   30.9360   41.6680 C   0  0  0  0  0  0  0  0  0  0  0  0
   39.6050   32.2340   41.2110 C   0  0  0  0  0  0  0  0  0  0  0  0
   38.6060   32.8910   40.5900 N   0  0  0  0  0  0  0  0  0  0  0  0
   37.3890   32.3550   40.3890 C   0  0  0  0  0  0  0  0  0  0  0  0
   37.1350   31.1130   40.8180 N   0  0  0  0  0  0  0  0  0  0  0  0
   38.0222   26.2552   39.5137 H   0  0  0  0  0  0  0  0  0  0  0  0
   35.9359   24.6785   40.9871 H   0  0  0  0  0  0  0  0  0  0  0  0
   35.8435   25.3672   39.3863 H   0  0  0  0  0  0  0  0  0  0  0  0
   36.4572   22.7713   39.5090 H   0  0  0  0  0  0  0  0  0  0  0  0
   37.5485   23.6901   38.5082 H   0  0  0  0  0  0  0  0  0  0  0  0
   37.8415   22.8257   41.4184 H   0  0  0  0  0  0  0  0  0  0  0  0
   39.0469   22.7019   40.1403 H   0  0  0  0  0  0  0  0  0  0  0  0
   38.8917   24.7910   42.0013 H   0  0  0  0  0  0  0  0  0  0  0  0
   39.4594   25.1722   38.2174 H   0  0  0  0  0  0  0  0  0  0  0  0
   44.9216   25.5357   41.7967 H   0  0  0  0  0  0  0  0  0  0  0  0
   42.7120   24.8486   44.5228 H   0  0  0  0  0  0  0  0  0  0  0  0
   44.3911   25.1677   44.0113 H   0  0  0  0  0  0  0  0  0  0  0  0
   36.9672   29.6506   43.7255 H   0  0  0  0  0  0  0  0  0  0  0  0
   36.3099   27.3859   44.3996 H   0  0  0  0  0  0  0  0  0  0  0  0
   40.1472   30.3583   42.1807 H   0  0  0  0  0  0  0  0  0  0  0  0
   40.5870   32.7083   41.3548 H   0  0  0  0  0  0  0  0  0  0  0  0
   36.6073   32.9338   39.8752 H   0  0  0  0  0  0  0  0  0  0  0  0
  1  5  1  0
  1 22  1  0
  2  1  1  0
  3  2  1  0
  3  4  1  0
  4  5  1  0
  6 16  1  0
  6  5  1  0
  7  6  1  0
  8  7  2  0
  8  9  1  0
  9 10  1  0
  9 16  2  0
 10 12  1  0
 11 10  2  0
 12 13  1  0
 13 14  1  0
 15 13  2  0
 16 15  1  0
 17 18  1  0
 18 19  2  0
 20 21  2  0
 20 19  1  0
 22 20  1  0
 23 22  1  0
 23 17  1  0
 24 23  2  0
 25 26  2  0
 25 17  1  0
 27 26  1  0
 28 27  2  0
 29 28  1  0
 29 30  2  0
 30 25  1  0
  1 31  1  6
  2 32  1  0
  2 33  1  0
  3 34  1  0
  3 35  1  0
  4 36  1  0
  4 37  1  0
  5 38  1  1
  7 39  1  0
 12 40  1  0
 14 41  1  0
 14 42  1  0
 18 43  1  0
 19 44  1  0
 26 45  1  0
 27 46  1  0
 29 47  1  0
M  ISO  8  31  13  32  13  33  13  34  13  35  13  36  13  37  13  38  13
M  ISO  7  39  14  40   9  43  14  44  14  45  14  46  14  47  14
M  END
>  <minimizedAffinity>  (1) 
-6.11076307

>  <minimizedRMSD>  (1) 
0.276900291

$$$$
