
     RDKit          3D

 30 32  0  0  1  0  0  0  0  0999 V2000
   37.2630   27.2920   42.3320 C   0  0  1  0  0  0  0  0  0  0  0  0
   36.2100   27.2050   43.4460 C   0  0  0  0  0  0  0  0  0  0  0  0
   36.7740   28.0080   44.5770 C   0  0  0  0  0  0  0  0  0  0  0  0
   37.7280   28.9470   43.8750 C   0  0  0  0  0  0  0  0  0  0  0  0
   38.4460   27.9570   42.9590 C   0  0  2  0  0  0  0  0  0  0  0  0
   38.6160   23.8220   41.6280 C   0  0  0  0  0  0  0  0  0  0  0  0
   38.4490   25.0440   42.3000 C   0  0  0  0  0  0  0  0  0  0  0  0
   37.5410   25.9810   41.7370 C   0  0  0  0  0  0  0  0  0  0  0  0
   36.8770   25.6740   40.5900 N   0  0  0  0  0  0  0  0  0  0  0  0
   37.0780   24.4720   39.9800 C   0  0  0  0  0  0  0  0  0  0  0  0
   37.9340   23.5680   40.4970 N   0  0  0  0  0  0  0  0  0  0  0  0
   39.2980   28.7630   42.0440 C   0  0  0  0  0  0  0  0  0  0  0  0
   39.3790   30.2230   42.0340 C   0  0  0  0  0  0  0  0  0  0  0  0
   40.5480   29.3770   42.4840 C   0  0  0  0  0  0  0  0  0  0  0  0
   36.9188   27.8821   41.4698 H   0  0  0  0  0  0  0  0  0  0  0  0
   35.2539   27.6315   43.1083 H   0  0  0  0  0  0  0  0  0  0  0  0
   36.0050   26.1650   43.7400 H   0  0  0  0  0  0  0  0  0  0  0  0
   35.9832   28.5648   45.1011 H   0  0  0  0  0  0  0  0  0  0  0  0
   37.2572   27.3929   45.3504 H   0  0  0  0  0  0  0  0  0  0  0  0
   37.1936   29.7196   43.3026 H   0  0  0  0  0  0  0  0  0  0  0  0
   38.3861   29.5236   44.5417 H   0  0  0  0  0  0  0  0  0  0  0  0
   39.1322   27.2146   43.3926 H   0  0  0  0  0  0  0  0  0  0  0  0
   39.3090   23.0679   42.0293 H   0  0  0  0  0  0  0  0  0  0  0  0
   38.9995   25.2670   43.2259 H   0  0  0  0  0  0  0  0  0  0  0  0
   36.5344   24.2363   39.0532 H   0  0  0  0  0  0  0  0  0  0  0  0
   39.0133   28.0255   41.2791 H   0  0  0  0  0  0  0  0  0  0  0  0
   39.4254   30.7680   41.0797 H   0  0  0  0  0  0  0  0  0  0  0  0
   38.7913   31.0446   42.4693 H   0  0  0  0  0  0  0  0  0  0  0  0
   40.8341   29.3491   43.5458 H   0  0  0  0  0  0  0  0  0  0  0  0
   41.6072   29.2889   42.2006 H   0  0  0  0  0  0  0  0  0  0  0  0
  1  5  1  0
  1  2  1  0
  2  3  1  0
  4  3  1  0
  5  4  1  0
  6  7  2  0
  8  7  1  0
  8  1  1  0
  9  8  2  0
 10 11  2  0
 10  9  1  0
 11  6  1  0
 12 14  1  0
 12  5  1  0
 13 12  1  0
 13 14  1  0
  1 15  1  6
  2 16  1  0
  2 17  1  0
  3 18  1  0
  3 19  1  0
  4 20  1  0
  4 21  1  0
  5 22  1  1
  6 23  1  0
  7 24  1  0
 10 25  1  0
 12 26  1  0
 13 27  1  0
 13 28  1  0
 14 29  1  0
 14 30  1  0
M  ISO  8  15  13  16  13  17  13  18  13  19  13  20  13  21  13  22  13
M  ISO  8  23  14  24  14  25  14  26  13  27  13  28  13  29  13  30  13
M  END
>  <minimizedAffinity>  (1) 
-4.16942358

>  <minimizedRMSD>  (1) 
5.04846048

$$$$
