
     RDKit          3D

 46 49  0  0  1  0  0  0  0  0999 V2000
   37.7210   25.6580   40.4660 C   0  0  2  0  0  0  0  0  0  0  0  0
   36.5320   24.9700   39.9680 C   0  0  0  0  0  0  0  0  0  0  0  0
   37.0730   23.6110   39.5120 C   0  0  0  0  0  0  0  0  0  0  0  0
   38.0090   23.2600   40.6020 C   0  0  0  0  0  0  0  0  0  0  0  0
   38.5860   24.5580   41.0840 C   0  0  1  0  0  0  0  0  0  0  0  0
   37.6820   29.0530   41.8700 N   0  0  0  0  0  0  0  0  0  0  0  0
   37.1180   28.7910   43.0440 C   0  0  0  0  0  0  0  0  0  0  0  0
   36.7290   27.5220   43.4340 C   0  0  0  0  0  0  0  0  0  0  0  0
   36.9200   26.4340   42.5790 C   0  0  0  0  0  0  0  0  0  0  0  0
   36.5730   25.2920   42.9210 O   0  0  0  0  0  0  0  0  0  0  0  0
   37.4940   26.7460   41.4010 N   0  0  0  0  0  0  0  0  0  0  0  0
   37.8540   27.9920   41.0680 C   0  0  0  0  0  0  0  0  0  0  0  0
   38.3890   28.1710   39.9280 O   0  0  0  0  0  0  0  0  0  0  0  0
   38.0790   30.3440   41.4710 C   0  0  0  0  0  0  0  0  0  0  0  0
   39.3630   30.9000   41.6940 C   0  0  0  0  0  0  0  0  0  0  0  0
   39.5770   32.2030   41.2240 C   0  0  0  0  0  0  0  0  0  0  0  0
   38.5840   32.8550   40.5970 N   0  0  0  0  0  0  0  0  0  0  0  0
   37.3640   32.3030   40.3950 C   0  0  0  0  0  0  0  0  0  0  0  0
   37.1370   31.0670   40.8320 N   0  0  0  0  0  0  0  0  0  0  0  0
   42.7630   25.1620   40.1970 C   0  0  0  0  0  0  0  0  0  0  0  0
   42.2400   25.3810   41.4670 C   0  0  0  0  0  0  0  0  0  0  0  0
   40.9050   25.1780   41.7090 C   0  0  0  0  0  0  0  0  0  0  0  0
   40.0120   24.7530   40.7370 C   0  0  0  0  0  0  0  0  0  0  0  0
   40.5560   24.5420   39.4830 C   0  0  0  0  0  0  0  0  0  0  0  0
   41.8960   24.7430   39.2270 C   0  0  0  0  0  0  0  0  0  0  0  0
   44.4680   25.4370   39.9450 S   0  0  0  0  0  0  0  0  0  0  0  0
   44.7270   26.7930   39.3650 O   0  0  0  0  0  0  0  0  0  0  0  0
   45.2020   25.3720   41.2730 O   0  0  0  0  0  0  0  0  0  0  0  0
   38.2015   26.1816   39.6264 H   0  0  0  0  0  0  0  0  0  0  0  0
   35.7845   24.8485   40.7658 H   0  0  0  0  0  0  0  0  0  0  0  0
   36.0222   25.5210   39.1640 H   0  0  0  0  0  0  0  0  0  0  0  0
   36.2652   22.8693   39.4269 H   0  0  0  0  0  0  0  0  0  0  0  0
   37.5448   23.6366   38.5186 H   0  0  0  0  0  0  0  0  0  0  0  0
   37.4729   22.7534   41.4180 H   0  0  0  0  0  0  0  0  0  0  0  0
   38.7950   22.5739   40.2534 H   0  0  0  0  0  0  0  0  0  0  0  0
   38.5710   24.5747   42.1838 H   0  0  0  0  0  0  0  0  0  0  0  0
   36.9519   29.6254   43.7413 H   0  0  0  0  0  0  0  0  0  0  0  0
   36.2677   27.3692   44.4208 H   0  0  0  0  0  0  0  0  0  0  0  0
   40.1536   30.3363   42.2110 H   0  0  0  0  0  0  0  0  0  0  0  0
   40.5532   32.6892   41.3679 H   0  0  0  0  0  0  0  0  0  0  0  0
   36.5737   32.8672   39.8781 H   0  0  0  0  0  0  0  0  0  0  0  0
   42.8993   25.7182   42.2804 H   0  0  0  0  0  0  0  0  0  0  0  0
   40.5240   25.3615   42.7245 H   0  0  0  0  0  0  0  0  0  0  0  0
   39.9009   24.2042   38.6665 H   0  0  0  0  0  0  0  0  0  0  0  0
   42.2786   24.5607   38.2119 H   0  0  0  0  0  0  0  0  0  0  0  0
   44.9075   24.4703   39.0794 H   0  0  0  0  0  0  0  0  0  0  0  0
  1  5  1  0
  1 11  1  0
  2  1  1  0
  3  2  1  0
  3  4  1  0
  4  5  1  0
  6  7  1  0
  7  8  2  0
  9 10  2  0
  9  8  1  0
 11  9  1  0
 12 11  1  0
 12  6  1  0
 13 12  2  0
 14 15  2  0
 14  6  1  0
 16 15  1  0
 17 16  2  0
 18 17  1  0
 18 19  2  0
 19 14  1  0
 20 21  2  0
 21 22  1  0
 23  5  1  0
 23 22  2  0
 24 23  1  0
 25 24  2  0
 25 20  1  0
 26 20  1  0
 26 28  2  0
 27 26  2  0
  1 29  1  6
  2 30  1  0
  2 31  1  0
  3 32  1  0
  3 33  1  0
  4 34  1  0
  4 35  1  0
  5 36  1  1
  7 37  1  0
  8 38  1  0
 15 39  1  0
 16 40  1  0
 18 41  1  0
 21 42  1  0
 22 43  1  0
 24 44  1  0
 25 45  1  0
 26 46  1  0
M  ISO  8  29  13  30  13  31  13  32  13  33  13  34  13  35  13  36  13
M  ISO  8  37  14  38  14  39  14  40  14  41  14  42  14  43  14  44  14
M  ISO  2  45  14  46  11
M  END
>  <minimizedAffinity>  (1) 
-5.34520388

>  <minimizedRMSD>  (1) 
0.692730606

$$$$
