
     RDKit          3D

 40 43  0  0  1  0  0  0  0  0999 V2000
   37.6060   25.5330   40.3580 C   0  0  2  0  0  0  0  0  0  0  0  0
   36.4380   24.7880   39.9180 C   0  0  0  0  0  0  0  0  0  0  0  0
   37.0470   23.4900   39.3640 C   0  0  0  0  0  0  0  0  0  0  0  0
   38.0160   23.1380   40.4440 C   0  0  0  0  0  0  0  0  0  0  0  0
   38.5570   24.4580   40.9010 C   0  0  1  0  0  0  0  0  0  0  0  0
   37.5530   28.8860   41.8400 N   0  0  0  0  0  0  0  0  0  0  0  0
   37.0300   28.5840   43.0200 C   0  0  0  0  0  0  0  0  0  0  0  0
   36.6750   27.3040   43.3910 C   0  0  0  0  0  0  0  0  0  0  0  0
   36.8580   26.2440   42.5070 C   0  0  0  0  0  0  0  0  0  0  0  0
   36.5430   25.0870   42.8280 O   0  0  0  0  0  0  0  0  0  0  0  0
   37.3950   26.5940   41.3130 N   0  0  0  0  0  0  0  0  0  0  0  0
   37.7210   27.8500   41.0040 C   0  0  0  0  0  0  0  0  0  0  0  0
   38.2190   28.0680   39.8540 O   0  0  0  0  0  0  0  0  0  0  0  0
   37.9180   30.1970   41.4590 C   0  0  0  0  0  0  0  0  0  0  0  0
   39.1840   30.7960   41.7390 C   0  0  0  0  0  0  0  0  0  0  0  0
   39.3980   32.0980   41.2990 C   0  0  0  0  0  0  0  0  0  0  0  0
   38.4110   32.7230   40.6360 N   0  0  0  0  0  0  0  0  0  0  0  0
   37.2200   32.1460   40.3780 C   0  0  0  0  0  0  0  0  0  0  0  0
   36.9950   30.8920   40.7940 N   0  0  0  0  0  0  0  0  0  0  0  0
   39.9510   24.7300   40.4930 C   0  0  0  0  0  0  0  0  0  0  0  0
   40.5430   24.5320   39.2660 C   0  0  0  0  0  0  0  0  0  0  0  0
   41.8790   24.9190   39.3040 C   0  0  0  0  0  0  0  0  0  0  0  0
   42.0510   25.3450   40.5760 N   0  0  0  0  0  0  0  0  0  0  0  0
   40.9270   25.2410   41.2930 N   0  0  0  0  0  0  0  0  0  0  0  0
   38.0008   26.1046   39.5051 H   0  0  0  0  0  0  0  0  0  0  0  0
   35.7612   24.5798   40.7598 H   0  0  0  0  0  0  0  0  0  0  0  0
   35.8288   25.3312   39.1806 H   0  0  0  0  0  0  0  0  0  0  0  0
   36.2832   22.7085   39.2378 H   0  0  0  0  0  0  0  0  0  0  0  0
   37.5011   23.5946   38.3676 H   0  0  0  0  0  0  0  0  0  0  0  0
   37.5075   22.6185   41.2695 H   0  0  0  0  0  0  0  0  0  0  0  0
   38.8068   22.4584   40.0937 H   0  0  0  0  0  0  0  0  0  0  0  0
   38.6011   24.4540   42.0001 H   0  0  0  0  0  0  0  0  0  0  0  0
   36.8705   29.3982   43.7422 H   0  0  0  0  0  0  0  0  0  0  0  0
   36.2464   27.1202   44.3873 H   0  0  0  0  0  0  0  0  0  0  0  0
   39.9644   30.2455   42.2849 H   0  0  0  0  0  0  0  0  0  0  0  0
   40.3553   32.6052   41.4899 H   0  0  0  0  0  0  0  0  0  0  0  0
   36.4413   32.6986   39.8319 H   0  0  0  0  0  0  0  0  0  0  0  0
   40.0321   24.1254   38.3808 H   0  0  0  0  0  0  0  0  0  0  0  0
   42.6200   24.8862   38.4917 H   0  0  0  0  0  0  0  0  0  0  0  0
   42.9410   25.7062   40.9479 H   0  0  0  0  0  0  0  0  0  0  0  0
  1  5  1  0
  1 11  1  0
  2  1  1  0
  3  2  1  0
  3  4  1  0
  4  5  1  0
  6  7  1  0
  7  8  2  0
  9 10  2  0
  9  8  1  0
 11  9  1  0
 12 11  1  0
 12  6  1  0
 13 12  2  0
 14 15  2  0
 14  6  1  0
 16 15  1  0
 17 16  2  0
 18 17  1  0
 18 19  2  0
 19 14  1  0
 20  5  1  0
 20 24  2  0
 21 22  2  0
 21 20  1  0
 22 23  1  0
 23 24  1  0
  1 25  1  6
  2 26  1  0
  2 27  1  0
  3 28  1  0
  3 29  1  0
  4 30  1  0
  4 31  1  0
  5 32  1  1
  7 33  1  0
  8 34  1  0
 15 35  1  0
 16 36  1  0
 18 37  1  0
 21 38  1  0
 22 39  1  0
 23 40  1  0
M  ISO  8  25  13  26  13  27  13  28  13  29  13  30  13  31  13  32  13
M  ISO  8  33  14  34  14  35  14  36  14  37  14  38  14  39  14  40   9
M  END
>  <minimizedAffinity>  (1) 
-5.17714119

>  <minimizedRMSD>  (1) 
0.456022143

$$$$
