
     RDKit          3D

 35 36  0  0  1  0  0  0  0  0999 V2000
   36.6960   27.0290   40.6130 C   0  0  1  0  0  0  0  0  0  0  0  0
   36.0750   27.6410   39.3470 C   0  0  0  0  0  0  0  0  0  0  0  0
   36.3120   26.6290   38.2690 C   0  0  0  0  0  0  0  0  0  0  0  0
   36.4570   25.3360   39.0680 C   0  0  0  0  0  0  0  0  0  0  0  0
   37.4590   25.8430   40.1090 C   0  0  2  0  0  0  0  0  0  0  0  0
   39.3050   29.6530   41.4990 C   0  0  0  0  0  0  0  0  0  0  0  0
   38.5690   28.7210   40.7430 C   0  0  0  0  0  0  0  0  0  0  0  0
   37.5160   28.0090   41.3270 C   0  0  0  0  0  0  0  0  0  0  0  0
   37.2430   28.2540   42.6220 N   0  0  0  0  0  0  0  0  0  0  0  0
   37.9510   29.1510   43.3490 C   0  0  0  0  0  0  0  0  0  0  0  0
   38.9700   29.8430   42.7940 N   0  0  0  0  0  0  0  0  0  0  0  0
   37.6660   24.7300   41.0720 C   0  0  0  0  0  0  0  0  0  0  0  0
   36.7370   24.7000   42.2320 C   0  0  0  0  0  0  0  0  0  0  0  0
   39.0910   24.8510   41.5830 C   0  0  0  0  0  0  0  0  0  0  0  0
   37.5710   23.3790   40.3930 C   0  0  0  0  0  0  0  0  0  0  0  0
   35.9530   26.7213   41.3635 H   0  0  0  0  0  0  0  0  0  0  0  0
   34.9972   27.8099   39.4882 H   0  0  0  0  0  0  0  0  0  0  0  0
   36.5179   28.6173   39.1008 H   0  0  0  0  0  0  0  0  0  0  0  0
   37.2290   26.8544   37.7048 H   0  0  0  0  0  0  0  0  0  0  0  0
   35.5141   26.5940   37.5126 H   0  0  0  0  0  0  0  0  0  0  0  0
   35.5074   25.0184   39.5233 H   0  0  0  0  0  0  0  0  0  0  0  0
   36.7611   24.4462   38.4972 H   0  0  0  0  0  0  0  0  0  0  0  0
   38.4771   26.1292   39.8063 H   0  0  0  0  0  0  0  0  0  0  0  0
   40.1349   30.2144   41.0451 H   0  0  0  0  0  0  0  0  0  0  0  0
   38.8236   28.5516   39.6864 H   0  0  0  0  0  0  0  0  0  0  0  0
   37.6930   29.3183   44.4051 H   0  0  0  0  0  0  0  0  0  0  0  0
   37.3167   24.7187   43.1666 H   0  0  0  0  0  0  0  0  0  0  0  0
   36.0744   25.5772   42.1939 H   0  0  0  0  0  0  0  0  0  0  0  0
   36.1324   23.7819   42.1939 H   0  0  0  0  0  0  0  0  0  0  0  0
   39.0873   24.8507   42.6830 H   0  0  0  0  0  0  0  0  0  0  0  0
   39.6849   24.0001   41.2181 H   0  0  0  0  0  0  0  0  0  0  0  0
   39.5329   25.7899   41.2181 H   0  0  0  0  0  0  0  0  0  0  0  0
   37.5154   22.5884   41.1558 H   0  0  0  0  0  0  0  0  0  0  0  0
   36.6684   23.3469   39.7651 H   0  0  0  0  0  0  0  0  0  0  0  0
   38.4602   23.2209   39.7651 H   0  0  0  0  0  0  0  0  0  0  0  0
  1  8  1  0
  2  1  1  0
  3  4  1  0
  3  2  1  0
  4  5  1  0
  5  1  1  0
  5 12  1  0
  6 11  2  0
  7  8  2  0
  7  6  1  0
  8  9  1  0
  9 10  2  0
 11 10  1  0
 12 14  1  0
 12 13  1  0
 15 12  1  0
  1 16  1  1
  2 17  1  0
  2 18  1  0
  3 19  1  0
  3 20  1  0
  4 21  1  0
  4 22  1  0
  5 23  1  6
  6 24  1  0
  7 25  1  0
 10 26  1  0
 13 27  1  0
 13 28  1  0
 13 29  1  0
 14 30  1  0
 14 31  1  0
 14 32  1  0
 15 33  1  0
 15 34  1  0
 15 35  1  0
M  ISO  8  16  13  17  13  18  13  19  13  20  13  21  13  22  13  23  13
M  ISO  8  24  14  25  14  26  14  27   8  28   8  29   8  30   8  31   8
M  ISO  4  32   8  33   8  34   8  35   8
M  END
>  <minimizedAffinity>  (1) 
-3.94795394

>  <minimizedRMSD>  (1) 
4.43118954

$$$$
