
     RDKit          3D

 40 43  0  0  1  0  0  0  0  0999 V2000
   37.5570   28.8960   41.8710 N   0  0  0  0  0  0  0  0  0  0  0  0
   36.9910   28.6120   43.0430 C   0  0  0  0  0  0  0  0  0  0  0  0
   36.6360   27.3330   43.4240 C   0  0  0  0  0  0  0  0  0  0  0  0
   36.8640   26.2570   42.5660 C   0  0  0  0  0  0  0  0  0  0  0  0
   36.5470   25.1050   42.9020 O   0  0  0  0  0  0  0  0  0  0  0  0
   37.4350   26.5870   41.3970 N   0  0  0  0  0  0  0  0  0  0  0  0
   37.7610   27.8420   41.0750 C   0  0  0  0  0  0  0  0  0  0  0  0
   38.3000   28.0460   39.9380 O   0  0  0  0  0  0  0  0  0  0  0  0
   37.6960   25.5080   40.4530 C   0  0  2  0  0  0  0  0  0  0  0  0
   36.5390   24.7020   40.0590 C   0  0  0  0  0  0  0  0  0  0  0  0
   37.1820   23.3940   39.5730 C   0  0  0  0  0  0  0  0  0  0  0  0
   38.2000   23.1400   40.6150 C   0  0  0  0  0  0  0  0  0  0  0  0
   38.6990   24.5090   40.9970 C   0  0  1  0  0  0  0  0  0  0  0  0
   40.0210   24.7200   40.4280 N   0  0  0  0  0  0  0  0  0  0  0  0
   40.6050   24.5030   39.2330 C   0  0  0  0  0  0  0  0  0  0  0  0
   41.9090   24.9100   39.2750 C   0  0  0  0  0  0  0  0  0  0  0  0
   42.1540   25.3890   40.5060 N   0  0  0  0  0  0  0  0  0  0  0  0
   40.9970   25.2710   41.2080 C   0  0  0  0  0  0  0  0  0  0  0  0
   37.9210   30.1980   41.4810 C   0  0  0  0  0  0  0  0  0  0  0  0
   39.1960   30.7840   41.7780 C   0  0  0  0  0  0  0  0  0  0  0  0
   39.4050   32.0920   41.3200 C   0  0  0  0  0  0  0  0  0  0  0  0
   38.4180   32.7100   40.6420 N   0  0  0  0  0  0  0  0  0  0  0  0
   37.2360   32.1380   40.3790 C   0  0  0  0  0  0  0  0  0  0  0  0
   37.0110   30.8880   40.8060 N   0  0  0  0  0  0  0  0  0  0  0  0
   36.7966   29.4382   43.7428 H   0  0  0  0  0  0  0  0  0  0  0  0
   36.1722   27.1622   44.4067 H   0  0  0  0  0  0  0  0  0  0  0  0
   38.0617   26.0646   39.5775 H   0  0  0  0  0  0  0  0  0  0  0  0
   35.8725   24.5212   40.9152 H   0  0  0  0  0  0  0  0  0  0  0  0
   35.9108   25.1867   39.2971 H   0  0  0  0  0  0  0  0  0  0  0  0
   36.4443   22.5792   39.5292 H   0  0  0  0  0  0  0  0  0  0  0  0
   37.5972   23.4573   38.5563 H   0  0  0  0  0  0  0  0  0  0  0  0
   37.7507   22.6340   41.4823 H   0  0  0  0  0  0  0  0  0  0  0  0
   39.0085   22.4846   40.2588 H   0  0  0  0  0  0  0  0  0  0  0  0
   38.7901   24.6231   42.0873 H   0  0  0  0  0  0  0  0  0  0  0  0
   40.1070   24.0643   38.3558 H   0  0  0  0  0  0  0  0  0  0  0  0
   42.6308   24.8551   38.4468 H   0  0  0  0  0  0  0  0  0  0  0  0
   40.8650   25.5762   42.2565 H   0  0  0  0  0  0  0  0  0  0  0  0
   39.9692   30.2356   42.3360 H   0  0  0  0  0  0  0  0  0  0  0  0
   40.3589   32.6055   41.5108 H   0  0  0  0  0  0  0  0  0  0  0  0
   36.4621   32.6857   39.8213 H   0  0  0  0  0  0  0  0  0  0  0  0
  1  2  1  0
  2  3  2  0
  4  5  2  0
  4  3  1  0
  6  4  1  0
  7  6  1  0
  7  1  1  0
  8  7  2  0
  9 13  1  0
  9  6  1  0
 10  9  1  0
 11 10  1  0
 11 12  1  0
 12 13  1  0
 14 13  1  0
 14 18  1  0
 15 16  2  0
 15 14  1  0
 16 17  1  0
 17 18  2  0
 19 20  2  0
 19  1  1  0
 21 20  1  0
 22 21  2  0
 23 22  1  0
 23 24  2  0
 24 19  1  0
  2 25  1  0
  3 26  1  0
  9 27  1  6
 10 28  1  0
 10 29  1  0
 11 30  1  0
 11 31  1  0
 12 32  1  0
 12 33  1  0
 13 34  1  1
 15 35  1  0
 16 36  1  0
 18 37  1  0
 20 38  1  0
 21 39  1  0
 23 40  1  0
M  ISO  8  25  14  26  14  27  13  28  13  29  13  30  13  31  13  32  13
M  ISO  8  33  13  34  13  35  14  36  14  37  14  38  14  39  14  40  14
M  END
>  <minimizedAffinity>  (1) 
-5.08512735

>  <minimizedRMSD>  (1) 
0.361243695

$$$$
