
     RDKit          3D

 35 37  0  0  1  0  0  0  0  0999 V2000
   37.6380   28.8410   41.7970 N   0  0  0  0  0  0  0  0  0  0  0  0
   37.0610   28.5280   42.9430 C   0  0  0  0  0  0  0  0  0  0  0  0
   36.7330   27.2290   43.2820 C   0  0  0  0  0  0  0  0  0  0  0  0
   36.9990   26.1730   42.4170 C   0  0  0  0  0  0  0  0  0  0  0  0
   36.7090   25.0100   42.7150 O   0  0  0  0  0  0  0  0  0  0  0  0
   37.5870   26.5400   41.2650 N   0  0  0  0  0  0  0  0  0  0  0  0
   37.8920   27.8210   40.9710 C   0  0  0  0  0  0  0  0  0  0  0  0
   38.4470   28.0560   39.8490 O   0  0  0  0  0  0  0  0  0  0  0  0
   37.8980   25.4950   40.3070 C   0  0  2  0  0  0  0  0  0  0  0  0
   36.7950   24.6240   39.9170 C   0  0  0  0  0  0  0  0  0  0  0  0
   37.5210   23.3720   39.3900 C   0  0  0  0  0  0  0  0  0  0  0  0
   38.5620   23.1650   40.4220 C   0  0  0  0  0  0  0  0  0  0  0  0
   38.9710   24.5490   40.8410 C   0  0  1  0  0  0  0  0  0  0  0  0
   40.2930   24.9060   40.4260 N   0  0  0  0  0  0  0  0  0  0  0  0
   37.9790   30.1670   41.4400 C   0  0  0  0  0  0  0  0  0  0  0  0
   39.2200   30.7860   41.7390 C   0  0  0  0  0  0  0  0  0  0  0  0
   39.4090   32.1040   41.3210 C   0  0  0  0  0  0  0  0  0  0  0  0
   38.3990   32.7170   40.6550 N   0  0  0  0  0  0  0  0  0  0  0  0
   37.2340   32.1160   40.3820 C   0  0  0  0  0  0  0  0  0  0  0  0
   37.0370   30.8520   40.7760 N   0  0  0  0  0  0  0  0  0  0  0  0
   36.8323   29.3336   43.6563 H   0  0  0  0  0  0  0  0  0  0  0  0
   36.2539   27.0271   44.2514 H   0  0  0  0  0  0  0  0  0  0  0  0
   38.2139   26.0809   39.4313 H   0  0  0  0  0  0  0  0  0  0  0  0
   36.1586   24.3794   40.7802 H   0  0  0  0  0  0  0  0  0  0  0  0
   36.1195   25.0799   39.1781 H   0  0  0  0  0  0  0  0  0  0  0  0
   36.8400   22.5102   39.3302 H   0  0  0  0  0  0  0  0  0  0  0  0
   37.9213   23.4862   38.3718 H   0  0  0  0  0  0  0  0  0  0  0  0
   38.1537   22.6065   41.2772 H   0  0  0  0  0  0  0  0  0  0  0  0
   39.4118   22.5792   40.0416 H   0  0  0  0  0  0  0  0  0  0  0  0
   39.0319   24.6110   41.9376 H   0  0  0  0  0  0  0  0  0  0  0  0
   40.8821   25.0651   41.2558 H   0  0  0  0  0  0  0  0  0  0  0  0
   40.6935   24.1430   39.8617 H   0  0  0  0  0  0  0  0  0  0  0  0
   40.0080   30.2445   42.2829 H   0  0  0  0  0  0  0  0  0  0  0  0
   40.3521   32.6317   41.5262 H   0  0  0  0  0  0  0  0  0  0  0  0
   36.4452   32.6566   39.8383 H   0  0  0  0  0  0  0  0  0  0  0  0
  1  2  1  0
  2  3  2  0
  4  5  2  0
  4  3  1  0
  6  4  1  0
  7  6  1  0
  7  1  1  0
  8  7  2  0
  9 13  1  0
  9  6  1  0
 10  9  1  0
 11 10  1  0
 11 12  1  0
 12 13  1  0
 14 13  1  0
 15 16  2  0
 15  1  1  0
 17 16  1  0
 18 17  2  0
 19 18  1  0
 19 20  2  0
 20 15  1  0
  2 21  1  0
  3 22  1  0
  9 23  1  6
 10 24  1  0
 10 25  1  0
 11 26  1  0
 11 27  1  0
 12 28  1  0
 12 29  1  0
 13 30  1  1
 14 31  1  0
 14 32  1  0
 16 33  1  0
 17 34  1  0
 19 35  1  0
M  ISO  8  21  14  22  14  23  13  24  13  25  13  26  13  27  13  28  13
M  ISO  7  29  13  30  13  31   5  32   5  33  14  34  14  35  14
M  END
>  <minimizedAffinity>  (1) 
-4.86824417

>  <minimizedRMSD>  (1) 
0.025176011

$$$$
