
     RDKit          3D

 43 45  0  0  1  0  0  0  0  0999 V2000
   37.9000   28.6450   41.9840 N   0  0  0  0  0  0  0  0  0  0  0  0
   37.2220   28.3060   43.0700 C   0  0  0  0  0  0  0  0  0  0  0  0
   36.7590   27.0340   43.3050 C   0  0  0  0  0  0  0  0  0  0  0  0
   36.9950   26.0200   42.3740 C   0  0  0  0  0  0  0  0  0  0  0  0
   36.5770   24.8670   42.5840 O   0  0  0  0  0  0  0  0  0  0  0  0
   37.6920   26.4130   41.2780 N   0  0  0  0  0  0  0  0  0  0  0  0
   38.1170   27.6540   41.0980 C   0  0  0  0  0  0  0  0  0  0  0  0
   38.7640   27.9190   40.0330 O   0  0  0  0  0  0  0  0  0  0  0  0
   38.3760   29.9490   41.7400 C   0  0  0  0  0  0  0  0  0  0  0  0
   39.6760   30.4230   42.1310 C   0  0  0  0  0  0  0  0  0  0  0  0
   40.0020   31.7340   41.8220 C   0  0  0  0  0  0  0  0  0  0  0  0
   39.0900   32.4890   41.1760 N   0  0  0  0  0  0  0  0  0  0  0  0
   37.8840   32.0420   40.8170 C   0  0  0  0  0  0  0  0  0  0  0  0
   37.5560   30.7760   41.1100 N   0  0  0  0  0  0  0  0  0  0  0  0
   36.9820   32.9120   40.1360 N   0  0  0  0  0  0  0  0  0  0  0  0
   37.5210   34.1060   39.5850 C   0  0  0  0  0  0  0  0  0  0  0  0
   38.7370   34.5180   39.7140 N   0  0  0  0  0  0  0  0  0  0  0  0
   36.6220   34.9000   38.8280 N   0  0  0  0  0  0  0  0  0  0  0  0
   39.0740   35.4040   39.2860 H   0  0  0  0  0  0  0  0  0  0  0  0
   37.9560   25.3980   40.2960 C   0  0  2  0  0  0  0  0  0  0  0  0
   36.8440   24.5660   39.8610 C   0  0  0  0  0  0  0  0  0  0  0  0
   37.5410   23.3220   39.2880 C   0  0  0  0  0  0  0  0  0  0  0  0
   38.6020   23.0620   40.2740 C   0  0  0  0  0  0  0  0  0  0  0  0
   39.0360   24.4040   40.7730 C   0  0  1  0  0  0  0  0  0  0  0  0
   40.4120   24.8190   40.3800 C   0  0  0  0  0  0  0  0  0  0  0  0
   37.0192   29.0825   43.8223 H   0  0  0  0  0  0  0  0  0  0  0  0
   36.2018   26.8139   44.2275 H   0  0  0  0  0  0  0  0  0  0  0  0
   40.3865   29.7682   42.6567 H   0  0  0  0  0  0  0  0  0  0  0  0
   40.9826   32.1495   42.0974 H   0  0  0  0  0  0  0  0  0  0  0  0
   35.9814   32.6844   40.0472 H   0  0  0  0  0  0  0  0  0  0  0  0
   35.6448   34.5980   38.7068 H   0  0  0  0  0  0  0  0  0  0  0  0
   36.9464   35.7786   38.3994 H   0  0  0  0  0  0  0  0  0  0  0  0
   38.2607   26.0235   39.4440 H   0  0  0  0  0  0  0  0  0  0  0  0
   36.1952   24.2997   40.7085 H   0  0  0  0  0  0  0  0  0  0  0  0
   36.1883   25.0672   39.1337 H   0  0  0  0  0  0  0  0  0  0  0  0
   36.8449   22.4729   39.2212 H   0  0  0  0  0  0  0  0  0  0  0  0
   37.9211   23.4668   38.2660 H   0  0  0  0  0  0  0  0  0  0  0  0
   38.2128   22.4530   41.1032 H   0  0  0  0  0  0  0  0  0  0  0  0
   39.4403   22.5065   39.8282 H   0  0  0  0  0  0  0  0  0  0  0  0
   39.1163   24.3731   41.8696 H   0  0  0  0  0  0  0  0  0  0  0  0
   41.0125   25.0001   41.2837 H   0  0  0  0  0  0  0  0  0  0  0  0
   40.8790   24.0217   39.7831 H   0  0  0  0  0  0  0  0  0  0  0  0
   40.3603   25.7415   39.7831 H   0  0  0  0  0  0  0  0  0  0  0  0
  1  2  1  0
  2  3  2  0
  4  5  2  0
  4  3  1  0
  6  4  1  0
  7  6  1  0
  7  1  1  0
  8  7  2  0
  9  1  1  0
  9 10  2  0
 11 10  1  0
 12 11  2  0
 13 14  2  0
 13 12  1  0
 14  9  1  0
 15 13  1  0
 16 17  2  0
 16 15  1  0
 18 16  1  0
 19 17  1  0
 20 24  1  0
 20  6  1  0
 21 20  1  0
 22 21  1  0
 22 23  1  0
 23 24  1  0
 25 24  1  0
  2 26  1  0
  3 27  1  0
 10 28  1  0
 11 29  1  0
 15 30  1  0
 18 31  1  0
 18 32  1  0
 20 33  1  6
 21 34  1  0
 21 35  1  0
 22 36  1  0
 22 37  1  0
 23 38  1  0
 23 39  1  0
 24 40  1  1
 25 41  1  0
 25 42  1  0
 25 43  1  0
M  ISO  8  26  14  27  14  28  14  29  14  33  13  34  13  35  13  36  13
M  ISO  7  37  13  38  13  39  13  40  13  41   8  42   8  43   8
M  END
>  <minimizedAffinity>  (1) 
-6.6202445

>  <minimizedRMSD>  (1) 
0.624955714

$$$$
