
     RDKit          3D

 49 52  0  0  1  0  0  0  0  0999 V2000
   39.2730   29.6150   41.9880 N   0  0  0  0  0  0  0  0  0  0  0  0
   38.5770   29.7220   43.0990 C   0  0  0  0  0  0  0  0  0  0  0  0
   37.6400   28.8070   43.5000 C   0  0  0  0  0  0  0  0  0  0  0  0
   37.3710   27.6830   42.7220 C   0  0  0  0  0  0  0  0  0  0  0  0
   36.5260   26.8510   43.0720 O   0  0  0  0  0  0  0  0  0  0  0  0
   38.1090   27.6050   41.5770 N   0  0  0  0  0  0  0  0  0  0  0  0
   39.0080   28.5230   41.2360 C   0  0  0  0  0  0  0  0  0  0  0  0
   39.6450   28.3590   40.1480 O   0  0  0  0  0  0  0  0  0  0  0  0
   37.8760   26.4670   40.7300 C   0  0  2  0  0  0  0  0  0  0  0  0
   36.6210   26.4110   40.0060 C   0  0  0  0  0  0  0  0  0  0  0  0
   36.4450   24.9230   39.6920 C   0  0  0  0  0  0  0  0  0  0  0  0
   36.8540   24.2720   40.9600 C   0  0  0  0  0  0  0  0  0  0  0  0
   37.9190   25.1450   41.5250 C   0  0  1  0  0  0  0  0  0  0  0  0
   39.2870   24.5450   41.5400 C   0  0  0  0  0  0  0  0  0  0  0  0
   40.2440   30.5540   41.5640 C   0  0  0  0  0  0  0  0  0  0  0  0
   41.6610   30.3860   41.7530 C   0  0  0  0  0  0  0  0  0  0  0  0
   42.4940   31.3950   41.2830 C   0  0  0  0  0  0  0  0  0  0  0  0
   41.9390   32.4550   40.6870 N   0  0  0  0  0  0  0  0  0  0  0  0
   40.6160   32.6080   40.5130 C   0  0  0  0  0  0  0  0  0  0  0  0
   39.7950   31.6470   40.9600 N   0  0  0  0  0  0  0  0  0  0  0  0
   40.0340   33.8080   39.8420 C   0  0  0  0  0  0  0  0  0  0  0  0
   41.1420   34.8290   39.5690 C   0  0  0  0  0  0  0  0  0  0  0  0
   40.4910   36.1820   39.7900 C   0  0  0  0  0  0  0  0  0  0  0  0
   39.0300   35.9200   40.0630 C   0  0  0  0  0  0  0  0  0  0  0  0
   39.0140   34.5250   40.6590 C   0  0  0  0  0  0  0  0  0  0  0  0
   38.7577   30.5957   43.7424 H   0  0  0  0  0  0  0  0  0  0  0  0
   37.0957   28.9608   44.4435 H   0  0  0  0  0  0  0  0  0  0  0  0
   38.6902   26.5919   40.0009 H   0  0  0  0  0  0  0  0  0  0  0  0
   35.7929   26.7805   40.6286 H   0  0  0  0  0  0  0  0  0  0  0  0
   36.6234   27.0385   39.1025 H   0  0  0  0  0  0  0  0  0  0  0  0
   35.3983   24.6905   39.4463 H   0  0  0  0  0  0  0  0  0  0  0  0
   37.0283   24.5885   38.8215 H   0  0  0  0  0  0  0  0  0  0  0  0
   36.0015   24.2073   41.6522 H   0  0  0  0  0  0  0  0  0  0  0  0
   37.2105   23.2443   40.7966 H   0  0  0  0  0  0  0  0  0  0  0  0
   37.7108   25.3038   42.5934 H   0  0  0  0  0  0  0  0  0  0  0  0
   39.6132   24.4019   42.5807 H   0  0  0  0  0  0  0  0  0  0  0  0
   39.2668   23.5731   41.0252 H   0  0  0  0  0  0  0  0  0  0  0  0
   39.9883   25.2182   41.0252 H   0  0  0  0  0  0  0  0  0  0  0  0
   42.0691   29.4936   42.2502 H   0  0  0  0  0  0  0  0  0  0  0  0
   43.5855   31.3227   41.3990 H   0  0  0  0  0  0  0  0  0  0  0  0
   39.5556   33.4245   38.9287 H   0  0  0  0  0  0  0  0  0  0  0  0
   41.5049   34.7387   38.5345 H   0  0  0  0  0  0  0  0  0  0  0  0
   42.0139   34.6778   40.2224 H   0  0  0  0  0  0  0  0  0  0  0  0
   40.9526   36.6890   40.6502 H   0  0  0  0  0  0  0  0  0  0  0  0
   40.6194   36.8315   38.9115 H   0  0  0  0  0  0  0  0  0  0  0  0
   38.6273   36.6547   40.7758 H   0  0  0  0  0  0  0  0  0  0  0  0
   38.4084   36.0020   39.1592 H   0  0  0  0  0  0  0  0  0  0  0  0
   38.0228   34.0599   40.5534 H   0  0  0  0  0  0  0  0  0  0  0  0
   39.2286   34.5087   41.7377 H   0  0  0  0  0  0  0  0  0  0  0  0
  1  2  1  0
  2  3  2  0
  4  5  2  0
  4  3  1  0
  6  4  1  0
  7  6  1  0
  7  1  1  0
  8  7  2  0
  9 13  1  0
  9  6  1  0
 10  9  1  0
 11 10  1  0
 11 12  1  0
 12 13  1  0
 13 14  1  0
 15 16  2  0
 15  1  1  0
 17 16  1  0
 18 17  2  0
 19 18  1  0
 19 20  2  0
 20 15  1  0
 21 19  1  0
 21 25  1  0
 22 23  1  0
 22 21  1  0
 23 24  1  0
 24 25  1  0
  2 26  1  0
  3 27  1  0
  9 28  1  6
 10 29  1  0
 10 30  1  0
 11 31  1  0
 11 32  1  0
 12 33  1  0
 12 34  1  0
 13 35  1  1
 14 36  1  0
 14 37  1  0
 14 38  1  0
 16 39  1  0
 17 40  1  0
 21 41  1  0
 22 42  1  0
 22 43  1  0
 23 44  1  0
 23 45  1  0
 24 46  1  0
 24 47  1  0
 25 48  1  0
 25 49  1  0
M  ISO  8  26  14  27  14  28  13  29  13  30  13  31  13  32  13  33  13
M  ISO  8  34  13  35  13  36   8  37   8  38   8  39  14  40  14  41  13
M  ISO  8  42  13  43  13  44  13  45  13  46  13  47  13  48  13  49  13
M  END
>  <minimizedAffinity>  (1) 
-6.23228645

>  <minimizedRMSD>  (1) 
2.81255579

$$$$
