
     RDKit          3D

 39 41  0  0  1  0  0  0  0  0999 V2000
   38.8420   32.1580   40.7200 N   0  0  0  0  0  0  0  0  0  0  0  0
   38.3110   33.3710   40.7450 C   0  0  0  0  0  0  0  0  0  0  0  0
   38.9650   34.5030   40.3200 C   0  0  0  0  0  0  0  0  0  0  0  0
   40.2630   34.4160   39.8270 C   0  0  0  0  0  0  0  0  0  0  0  0
   40.8570   35.4360   39.4420 O   0  0  0  0  0  0  0  0  0  0  0  0
   40.7810   33.1530   39.8140 N   0  0  0  0  0  0  0  0  0  0  0  0
   40.0990   32.1000   40.2370 C   0  0  0  0  0  0  0  0  0  0  0  0
   40.6710   30.9620   40.1860 O   0  0  0  0  0  0  0  0  0  0  0  0
   42.1190   33.0210   39.3110 C   0  0  2  0  0  0  0  0  0  0  0  0
   43.1490   33.8820   39.8870 C   0  0  0  0  0  0  0  0  0  0  0  0
   44.2410   33.8660   38.8120 C   0  0  0  0  0  0  0  0  0  0  0  0
   43.4690   34.0040   37.5630 C   0  0  0  0  0  0  0  0  0  0  0  0
   42.1900   33.2750   37.8020 C   0  0  1  0  0  0  0  0  0  0  0  0
   42.0340   32.0140   37.0170 C   0  0  0  0  0  0  0  0  0  0  0  0
   38.1790   30.9960   41.1520 C   0  0  0  0  0  0  0  0  0  0  0  0
   38.5030   30.2890   42.3420 C   0  0  0  0  0  0  0  0  0  0  0  0
   37.7540   29.1450   42.6410 C   0  0  0  0  0  0  0  0  0  0  0  0
   36.7750   28.7740   41.7960 N   0  0  0  0  0  0  0  0  0  0  0  0
   36.4830   29.4480   40.6830 C   0  0  0  0  0  0  0  0  0  0  0  0
   37.1900   30.5530   40.3730 N   0  0  0  0  0  0  0  0  0  0  0  0
   35.3880   29.0110   39.7630 C   0  0  0  0  0  0  0  0  0  0  0  0
   34.1690   29.0360   40.4150 F   0  0  0  0  0  0  0  0  0  0  0  0
   35.6590   27.6670   39.4930 F   0  0  0  0  0  0  0  0  0  0  0  0
   35.4300   29.7750   38.6320 F   0  0  0  0  0  0  0  0  0  0  0  0
   37.2857   33.4791   41.1286 H   0  0  0  0  0  0  0  0  0  0  0  0
   38.4610   35.4795   40.3698 H   0  0  0  0  0  0  0  0  0  0  0  0
   42.3400   31.9844   39.6051 H   0  0  0  0  0  0  0  0  0  0  0  0
   42.7683   34.9010   40.0506 H   0  0  0  0  0  0  0  0  0  0  0  0
   43.5012   33.5423   40.8722 H   0  0  0  0  0  0  0  0  0  0  0  0
   44.9381   34.7069   38.9423 H   0  0  0  0  0  0  0  0  0  0  0  0
   44.8677   32.9624   38.8400 H   0  0  0  0  0  0  0  0  0  0  0  0
   44.0162   33.5544   36.7213 H   0  0  0  0  0  0  0  0  0  0  0  0
   43.2951   35.0592   37.3054 H   0  0  0  0  0  0  0  0  0  0  0  0
   41.3521   33.8931   37.4472 H   0  0  0  0  0  0  0  0  0  0  0  0
   41.9288   31.1635   37.7066 H   0  0  0  0  0  0  0  0  0  0  0  0
   41.1378   32.0852   36.3831 H   0  0  0  0  0  0  0  0  0  0  0  0
   42.9205   31.8646   36.3831 H   0  0  0  0  0  0  0  0  0  0  0  0
   39.3132   30.6288   43.0040 H   0  0  0  0  0  0  0  0  0  0  0  0
   37.9618   28.5605   43.5494 H   0  0  0  0  0  0  0  0  0  0  0  0
  1  2  1  0
  1 15  1  0
  3  2  2  0
  4  3  1  0
  5  4  2  0
  6  4  1  0
  6  7  1  0
  7  1  1  0
  8  7  2  0
  9  6  1  0
  9 10  1  0
 11 10  1  0
 12 13  1  0
 12 11  1  0
 13  9  1  0
 14 13  1  0
 15 16  2  0
 16 17  1  0
 18 17  2  0
 19 18  1  0
 20 19  2  0
 20 15  1  0
 21 22  1  0
 21 19  1  0
 23 21  1  0
 24 21  1  0
  2 25  1  0
  3 26  1  0
  9 27  1  6
 10 28  1  0
 10 29  1  0
 11 30  1  0
 11 31  1  0
 12 32  1  0
 12 33  1  0
 13 34  1  6
 14 35  1  0
 14 36  1  0
 14 37  1  0
 16 38  1  0
 17 39  1  0
M  ISO  8  25  14  26  14  27  13  28  13  29  13  30  13  31  13  32  13
M  ISO  7  33  13  34  13  35   8  36   8  37   8  38  14  39  14
M  END
>  <minimizedAffinity>  (1) 
-5.67254019

>  <minimizedRMSD>  (1) 
7.12724209

$$$$
