
     RDKit          3D

 45 48  0  0  1  0  0  0  0  0999 V2000
   39.3690   29.3990   42.3800 N   0  0  0  0  0  0  0  0  0  0  0  0
   38.3700   29.6150   43.2030 C   0  0  0  0  0  0  0  0  0  0  0  0
   37.3970   28.6810   43.4560 C   0  0  0  0  0  0  0  0  0  0  0  0
   37.4360   27.4360   42.8310 C   0  0  0  0  0  0  0  0  0  0  0  0
   36.5410   26.5870   43.0710 O   0  0  0  0  0  0  0  0  0  0  0  0
   38.4730   27.2420   41.9920 N   0  0  0  0  0  0  0  0  0  0  0  0
   39.3980   28.1850   41.7780 C   0  0  0  0  0  0  0  0  0  0  0  0
   40.3350   27.9000   40.9660 O   0  0  0  0  0  0  0  0  0  0  0  0
   38.5350   25.9700   41.3370 C   0  0  2  0  0  0  0  0  0  0  0  0
   37.5700   25.6860   40.2900 C   0  0  0  0  0  0  0  0  0  0  0  0
   37.5780   24.1560   40.2080 C   0  0  0  0  0  0  0  0  0  0  0  0
   37.6270   23.7530   41.6350 C   0  0  0  0  0  0  0  0  0  0  0  0
   38.4290   24.8120   42.3290 C   0  0  1  0  0  0  0  0  0  0  0  0
   39.7580   24.3490   42.8060 C   0  0  0  0  0  0  0  0  0  0  0  0
   40.3880   30.3460   42.0980 C   0  0  0  0  0  0  0  0  0  0  0  0
   41.5740   30.4860   42.8950 C   0  0  0  0  0  0  0  0  0  0  0  0
   42.4940   31.4600   42.5010 C   0  0  0  0  0  0  0  0  0  0  0  0
   42.2140   32.1990   41.4100 N   0  0  0  0  0  0  0  0  0  0  0  0
   41.1030   32.0500   40.6850 C   0  0  0  0  0  0  0  0  0  0  0  0
   40.1950   31.1220   41.0350 N   0  0  0  0  0  0  0  0  0  0  0  0
   40.8630   32.8390   39.5690 O   0  0  0  0  0  0  0  0  0  0  0  0
   40.5510   34.1740   39.6640 C   0  0  0  0  0  0  0  0  0  0  0  0
   39.2200   34.3740   40.0280 C   0  0  0  0  0  0  0  0  0  0  0  0
   38.7320   35.6770   40.1700 C   0  0  0  0  0  0  0  0  0  0  0  0
   39.5470   36.7260   39.9570 N   0  0  0  0  0  0  0  0  0  0  0  0
   40.8450   36.4980   39.6020 C   0  0  0  0  0  0  0  0  0  0  0  0
   41.3110   35.2520   39.4650 N   0  0  0  0  0  0  0  0  0  0  0  0
   38.3099   30.5879   43.7127 H   0  0  0  0  0  0  0  0  0  0  0  0
   36.5817   28.9163   44.1560 H   0  0  0  0  0  0  0  0  0  0  0  0
   39.5178   26.0522   40.8498 H   0  0  0  0  0  0  0  0  0  0  0  0
   36.5721   26.0607   40.5618 H   0  0  0  0  0  0  0  0  0  0  0  0
   37.8181   26.1694   39.3336 H   0  0  0  0  0  0  0  0  0  0  0  0
   36.6662   23.7801   39.7208 H   0  0  0  0  0  0  0  0  0  0  0  0
   38.4115   23.7552   39.6124 H   0  0  0  0  0  0  0  0  0  0  0  0
   36.6114   23.7044   42.0548 H   0  0  0  0  0  0  0  0  0  0  0  0
   38.0762   22.7567   41.7600 H   0  0  0  0  0  0  0  0  0  0  0  0
   37.9257   25.1180   43.2580 H   0  0  0  0  0  0  0  0  0  0  0  0
   39.7716   24.3443   43.9059 H   0  0  0  0  0  0  0  0  0  0  0  0
   39.9476   23.3318   42.4326 H   0  0  0  0  0  0  0  0  0  0  0  0
   40.5386   25.0281   42.4326 H   0  0  0  0  0  0  0  0  0  0  0  0
   41.7503   29.8536   43.7776 H   0  0  0  0  0  0  0  0  0  0  0  0
   43.4236   31.6197   43.0671 H   0  0  0  0  0  0  0  0  0  0  0  0
   38.5582   33.5128   40.2023 H   0  0  0  0  0  0  0  0  0  0  0  0
   37.6829   35.8439   40.4555 H   0  0  0  0  0  0  0  0  0  0  0  0
   41.5171   37.3509   39.4262 H   0  0  0  0  0  0  0  0  0  0  0  0
  1  2  1  0
  2  3  2  0
  4  5  2  0
  4  3  1  0
  6  4  1  0
  7  6  1  0
  7  1  1  0
  8  7  2  0
  9  6  1  0
  9 13  1  0
 10  9  1  0
 11 10  1  0
 11 12  1  0
 12 13  1  0
 13 14  1  0
 15  1  1  0
 15 16  2  0
 17 16  1  0
 18 17  2  0
 19 20  2  0
 19 18  1  0
 20 15  1  0
 21 22  1  0
 21 19  1  0
 22 23  2  0
 23 24  1  0
 25 24  2  0
 26 25  1  0
 27 26  2  0
 27 22  1  0
  2 28  1  0
  3 29  1  0
  9 30  1  6
 10 31  1  0
 10 32  1  0
 11 33  1  0
 11 34  1  0
 12 35  1  0
 12 36  1  0
 13 37  1  1
 14 38  1  0
 14 39  1  0
 14 40  1  0
 16 41  1  0
 17 42  1  0
 23 43  1  0
 24 44  1  0
 26 45  1  0
M  ISO  8  28  14  29  14  30  13  31  13  32  13  33  13  34  13  35  13
M  ISO  8  36  13  37  13  38   8  39   8  40   8  41  14  42  14  43  14
M  ISO  2  44  14  45  14
M  END
>  <minimizedAffinity>  (1) 
-6.24784756

>  <minimizedRMSD>  (1) 
2.45694995

$$$$
