
     RDKit          3D

 40 42  0  0  1  0  0  0  0  0999 V2000
   38.9230   29.4140   42.2810 N   0  0  0  0  0  0  0  0  0  0  0  0
   38.1070   29.4740   43.3210 C   0  0  0  0  0  0  0  0  0  0  0  0
   37.2520   28.4570   43.6760 C   0  0  0  0  0  0  0  0  0  0  0  0
   37.2210   27.2800   42.9170 C   0  0  0  0  0  0  0  0  0  0  0  0
   36.4470   26.3620   43.2390 O   0  0  0  0  0  0  0  0  0  0  0  0
   38.0700   27.2600   41.8620 N   0  0  0  0  0  0  0  0  0  0  0  0
   38.8800   28.2810   41.5640 C   0  0  0  0  0  0  0  0  0  0  0  0
   39.6300   28.1500   40.5570 O   0  0  0  0  0  0  0  0  0  0  0  0
   38.0570   26.0630   41.0660 C   0  0  2  0  0  0  0  0  0  0  0  0
   36.8300   25.7220   40.3620 C   0  0  0  0  0  0  0  0  0  0  0  0
   36.9860   24.2220   40.0840 C   0  0  0  0  0  0  0  0  0  0  0  0
   37.5540   23.7220   41.3650 C   0  0  0  0  0  0  0  0  0  0  0  0
   38.4200   24.8230   41.8910 C   0  0  1  0  0  0  0  0  0  0  0  0
   39.8790   24.5320   41.8490 C   0  0  0  0  0  0  0  0  0  0  0  0
   39.8060   30.4600   41.9120 C   0  0  0  0  0  0  0  0  0  0  0  0
   41.0750   30.6820   42.5260 C   0  0  0  0  0  0  0  0  0  0  0  0
   41.8440   31.7500   42.0640 C   0  0  0  0  0  0  0  0  0  0  0  0
   41.3470   32.5080   41.0690 N   0  0  0  0  0  0  0  0  0  0  0  0
   40.1590   32.2840   40.5090 C   0  0  0  0  0  0  0  0  0  0  0  0
   39.4020   31.2600   40.9400 N   0  0  0  0  0  0  0  0  0  0  0  0
   39.6730   33.0920   39.4780 O   0  0  0  0  0  0  0  0  0  0  0  0
   38.6400   33.9940   39.7600 C   0  0  0  0  0  0  0  0  0  0  0  0
   37.4340   33.6680   39.8940 O   0  0  0  0  0  0  0  0  0  0  0  0
   38.8770   35.3700   39.9200 O   0  0  0  0  0  0  0  0  0  0  0  0
   38.1129   30.3868   43.9348 H   0  0  0  0  0  0  0  0  0  0  0  0
   36.5956   28.5673   44.5518 H   0  0  0  0  0  0  0  0  0  0  0  0
   38.8054   26.3268   40.3042 H   0  0  0  0  0  0  0  0  0  0  0  0
   35.9484   25.9164   40.9905 H   0  0  0  0  0  0  0  0  0  0  0  0
   36.6799   26.3152   39.4479 H   0  0  0  0  0  0  0  0  0  0  0  0
   36.0145   23.7532   39.8686 H   0  0  0  0  0  0  0  0  0  0  0  0
   37.6110   23.9983   39.2069 H   0  0  0  0  0  0  0  0  0  0  0  0
   36.7475   23.4964   42.0782 H   0  0  0  0  0  0  0  0  0  0  0  0
   38.1273   22.7951   41.2164 H   0  0  0  0  0  0  0  0  0  0  0  0
   38.2274   24.9662   42.9645 H   0  0  0  0  0  0  0  0  0  0  0  0
   40.2671   24.4546   42.8753 H   0  0  0  0  0  0  0  0  0  0  0  0
   40.0484   23.5824   41.3203 H   0  0  0  0  0  0  0  0  0  0  0  0
   40.3998   25.3440   41.3203 H   0  0  0  0  0  0  0  0  0  0  0  0
   41.4349   30.0320   43.3372 H   0  0  0  0  0  0  0  0  0  0  0  0
   42.8299   31.9669   42.5010 H   0  0  0  0  0  0  0  0  0  0  0  0
   38.1247   35.9820   40.1190 H   0  0  0  0  0  0  0  0  0  0  0  0
  1  2  1  0
  2  3  2  0
  4  5  2  0
  4  3  1  0
  6  4  1  0
  7  6  1  0
  7  1  1  0
  8  7  2  0
  9  6  1  0
  9 13  1  0
 10  9  1  0
 11 10  1  0
 11 12  1  0
 12 13  1  0
 14 13  1  0
 15  1  1  0
 15 16  2  0
 17 16  1  0
 18 17  2  0
 19 20  2  0
 19 18  1  0
 20 15  1  0
 21 22  1  0
 21 19  1  0
 22 23  2  0
 22 24  1  0
  2 25  1  0
  3 26  1  0
  9 27  1  6
 10 28  1  0
 10 29  1  0
 11 30  1  0
 11 31  1  0
 12 32  1  0
 12 33  1  0
 13 34  1  1
 14 35  1  0
 14 36  1  0
 14 37  1  0
 16 38  1  0
 17 39  1  0
 24 40  1  0
M  ISO  8  25  14  26  14  27  13  28  13  29  13  30  13  31  13  32  13
M  ISO  8  33  13  34  13  35   8  36   8  37   8  38  14  39  14  40   3
M  END
>  <minimizedAffinity>  (1) 
-5.35765839

>  <minimizedRMSD>  (1) 
1.83457828

$$$$
