
     RDKit          3D

 43 45  0  0  1  0  0  0  0  0999 V2000
   38.7800   29.4510   42.2040 N   0  0  0  0  0  0  0  0  0  0  0  0
   38.0920   29.4000   43.3350 C   0  0  0  0  0  0  0  0  0  0  0  0
   37.2870   28.3400   43.6780 C   0  0  0  0  0  0  0  0  0  0  0  0
   37.1630   27.2460   42.8160 C   0  0  0  0  0  0  0  0  0  0  0  0
   36.4280   26.2830   43.1320 O   0  0  0  0  0  0  0  0  0  0  0  0
   37.8810   27.3310   41.6710 N   0  0  0  0  0  0  0  0  0  0  0  0
   38.6510   28.3880   41.3850 C   0  0  0  0  0  0  0  0  0  0  0  0
   39.2770   28.3620   40.2870 O   0  0  0  0  0  0  0  0  0  0  0  0
   37.7680   26.2140   40.7690 C   0  0  2  0  0  0  0  0  0  0  0  0
   36.5740   26.1010   39.9600 C   0  0  0  0  0  0  0  0  0  0  0  0
   36.5640   24.6080   39.5690 C   0  0  0  0  0  0  0  0  0  0  0  0
   36.9550   23.9430   40.8310 C   0  0  0  0  0  0  0  0  0  0  0  0
   37.9070   24.8760   41.5050 C   0  0  1  0  0  0  0  0  0  0  0  0
   39.3170   24.3900   41.5650 C   0  0  0  0  0  0  0  0  0  0  0  0
   39.6160   30.5310   41.8310 C   0  0  0  0  0  0  0  0  0  0  0  0
   41.0130   30.5880   42.1320 C   0  0  0  0  0  0  0  0  0  0  0  0
   41.7010   31.7300   41.6920 C   0  0  0  0  0  0  0  0  0  0  0  0
   41.0270   32.6850   41.0280 N   0  0  0  0  0  0  0  0  0  0  0  0
   39.7130   32.6040   40.7600 C   0  0  0  0  0  0  0  0  0  0  0  0
   39.0320   31.5310   41.1650 N   0  0  0  0  0  0  0  0  0  0  0  0
   39.0620   33.6110   40.0740 O   0  0  0  0  0  0  0  0  0  0  0  0
   38.8860   34.8490   40.7390 C   0  0  0  0  0  0  0  0  0  0  0  0
   39.6410   35.9000   39.9850 C   0  0  0  0  0  0  0  0  0  0  0  0
   38.1687   30.2466   44.0331 H   0  0  0  0  0  0  0  0  0  0  0  0
   36.7395   28.3523   44.6320 H   0  0  0  0  0  0  0  0  0  0  0  0
   38.5957   26.4348   40.0790 H   0  0  0  0  0  0  0  0  0  0  0  0
   35.6768   26.3646   40.5393 H   0  0  0  0  0  0  0  0  0  0  0  0
   36.5706   26.7777   39.0928 H   0  0  0  0  0  0  0  0  0  0  0  0
   35.5623   24.2887   39.2454 H   0  0  0  0  0  0  0  0  0  0  0  0
   37.2287   24.3717   38.7250 H   0  0  0  0  0  0  0  0  0  0  0  0
   36.0717   23.7736   41.4643 H   0  0  0  0  0  0  0  0  0  0  0  0
   37.4140   22.9607   40.6455 H   0  0  0  0  0  0  0  0  0  0  0  0
   37.6480   24.9688   42.5700 H   0  0  0  0  0  0  0  0  0  0  0  0
   39.6240   24.2842   42.6160 H   0  0  0  0  0  0  0  0  0  0  0  0
   39.3904   23.4147   41.0616 H   0  0  0  0  0  0  0  0  0  0  0  0
   39.9758   25.1129   41.0616 H   0  0  0  0  0  0  0  0  0  0  0  0
   41.5213   29.7803   42.6790 H   0  0  0  0  0  0  0  0  0  0  0  0
   42.7776   31.8419   41.8880 H   0  0  0  0  0  0  0  0  0  0  0  0
   37.8171   35.1072   40.7673 H   0  0  0  0  0  0  0  0  0  0  0  0
   39.2601   34.7810   41.7712 H   0  0  0  0  0  0  0  0  0  0  0  0
   40.1304   36.5813   40.6965 H   0  0  0  0  0  0  0  0  0  0  0  0
   40.4030   35.4213   39.3524 H   0  0  0  0  0  0  0  0  0  0  0  0
   38.9441   36.4693   39.3524 H   0  0  0  0  0  0  0  0  0  0  0  0
  1  2  1  0
  2  3  2  0
  4  5  2  0
  4  3  1  0
  6  4  1  0
  7  6  1  0
  7  1  1  0
  8  7  2  0
  9 13  1  0
  9  6  1  0
 10  9  1  0
 11 10  1  0
 11 12  1  0
 12 13  1  0
 13 14  1  0
 15 16  2  0
 15  1  1  0
 17 16  1  0
 18 17  2  0
 19 18  1  0
 19 20  2  0
 20 15  1  0
 21 22  1  0
 21 19  1  0
 23 22  1  0
  2 24  1  0
  3 25  1  0
  9 26  1  6
 10 27  1  0
 10 28  1  0
 11 29  1  0
 11 30  1  0
 12 31  1  0
 12 32  1  0
 13 33  1  1
 14 34  1  0
 14 35  1  0
 14 36  1  0
 16 37  1  0
 17 38  1  0
 22 39  1  0
 22 40  1  0
 23 41  1  0
 23 42  1  0
 23 43  1  0
M  ISO  8  24  14  25  14  26  13  27  13  28  13  29  13  30  13  31  13
M  ISO  8  32  13  33  13  34   8  35   8  36   8  37  14  38  14  39   8
M  ISO  4  40   8  41   8  42   8  43   8
M  END
>  <minimizedAffinity>  (1) 
-5.33986187

>  <minimizedRMSD>  (1) 
1.4938755

$$$$
