
     RDKit          3D

 49 52  0  0  1  0  0  0  0  0999 V2000
   38.0370   28.7330   42.0410 N   0  0  0  0  0  0  0  0  0  0  0  0
   37.3530   28.5330   43.1400 C   0  0  0  0  0  0  0  0  0  0  0  0
   36.7910   27.3170   43.4570 C   0  0  0  0  0  0  0  0  0  0  0  0
   36.9350   26.2280   42.5890 C   0  0  0  0  0  0  0  0  0  0  0  0
   36.4210   25.1260   42.8810 O   0  0  0  0  0  0  0  0  0  0  0  0
   37.6440   26.4730   41.4710 N   0  0  0  0  0  0  0  0  0  0  0  0
   38.1760   27.6810   41.2050 C   0  0  0  0  0  0  0  0  0  0  0  0
   38.8210   27.8010   40.1280 O   0  0  0  0  0  0  0  0  0  0  0  0
   37.8070   25.3760   40.5660 C   0  0  2  0  0  0  0  0  0  0  0  0
   36.6360   24.6110   40.1950 C   0  0  0  0  0  0  0  0  0  0  0  0
   37.2330   23.2820   39.7070 C   0  0  0  0  0  0  0  0  0  0  0  0
   38.3050   23.0120   40.6940 C   0  0  0  0  0  0  0  0  0  0  0  0
   38.8310   24.3560   41.0910 C   0  0  1  0  0  0  0  0  0  0  0  0
   40.2180   24.6350   40.6240 C   0  0  0  0  0  0  0  0  0  0  0  0
   38.6290   29.9840   41.6920 C   0  0  0  0  0  0  0  0  0  0  0  0
   39.7460   30.5540   42.3860 C   0  0  0  0  0  0  0  0  0  0  0  0
   40.2100   31.7800   41.9270 C   0  0  0  0  0  0  0  0  0  0  0  0
   39.6030   32.3600   40.8780 N   0  0  0  0  0  0  0  0  0  0  0  0
   38.5600   31.8060   40.2440 C   0  0  0  0  0  0  0  0  0  0  0  0
   38.0900   30.6250   40.6640 N   0  0  0  0  0  0  0  0  0  0  0  0
   37.9650   32.4360   39.1670 O   0  0  0  0  0  0  0  0  0  0  0  0
   39.0570   31.2960   37.3860 N   0  0  0  0  0  0  0  0  0  0  0  0
   38.9090   29.8860   37.4610 C   0  0  0  0  0  0  0  0  0  0  0  0
   37.4710   29.7450   36.9960 C   0  0  0  0  0  0  0  0  0  0  0  0
   36.8100   30.9010   37.7160 C   0  0  0  0  0  0  0  0  0  0  0  0
   37.9020   31.9420   37.8590 C   0  0  1  0  0  0  0  0  0  0  0  0
   37.2221   29.3721   43.8391 H   0  0  0  0  0  0  0  0  0  0  0  0
   36.2275   27.2007   44.3945 H   0  0  0  0  0  0  0  0  0  0  0  0
   38.1311   25.9124   39.6620 H   0  0  0  0  0  0  0  0  0  0  0  0
   35.9757   24.4538   41.0606 H   0  0  0  0  0  0  0  0  0  0  0  0
   36.0131   25.1106   39.4384 H   0  0  0  0  0  0  0  0  0  0  0  0
   36.4773   22.4827   39.7163 H   0  0  0  0  0  0  0  0  0  0  0  0
   37.6007   23.3278   38.6713 H   0  0  0  0  0  0  0  0  0  0  0  0
   37.8977   22.4847   41.5693 H   0  0  0  0  0  0  0  0  0  0  0  0
   39.0951   22.3725   40.2736 H   0  0  0  0  0  0  0  0  0  0  0  0
   38.9337   24.4122   42.1848 H   0  0  0  0  0  0  0  0  0  0  0  0
   40.8780   24.7678   41.4939 H   0  0  0  0  0  0  0  0  0  0  0  0
   40.5771   23.7911   40.0167 H   0  0  0  0  0  0  0  0  0  0  0  0
   40.2229   25.5521   40.0167 H   0  0  0  0  0  0  0  0  0  0  0  0
   40.2136   30.0447   43.2415 H   0  0  0  0  0  0  0  0  0  0  0  0
   41.0644   32.2704   42.4165 H   0  0  0  0  0  0  0  0  0  0  0  0
   39.8634   31.5824   37.9592 H   0  0  0  0  0  0  0  0  0  0  0  0
   39.6078   29.3662   36.7891 H   0  0  0  0  0  0  0  0  0  0  0  0
   39.1206   29.4505   38.4487 H   0  0  0  0  0  0  0  0  0  0  0  0
   37.3889   29.8511   35.9042 H   0  0  0  0  0  0  0  0  0  0  0  0
   37.0222   28.7644   37.2127 H   0  0  0  0  0  0  0  0  0  0  0  0
   35.9715   31.2975   37.1247 H   0  0  0  0  0  0  0  0  0  0  0  0
   36.3921   30.6008   38.6882 H   0  0  0  0  0  0  0  0  0  0  0  0
   37.7328   32.8597   37.2766 H   0  0  0  0  0  0  0  0  0  0  0  0
  1  2  1  0
  2  3  2  0
  4  5  2  0
  4  3  1  0
  6  4  1  0
  7  6  1  0
  7  1  1  0
  8  7  2  0
  9 13  1  0
  9  6  1  0
 10  9  1  0
 11 10  1  0
 11 12  1  0
 12 13  1  0
 14 13  1  0
 15  1  1  0
 15 16  2  0
 17 16  1  0
 18 17  2  0
 19 20  2  0
 19 18  1  0
 20 15  1  0
 21 19  1  0
 22 23  1  0
 22 26  1  0
 24 23  1  0
 24 25  1  0
 25 26  1  0
 26 21  1  0
  2 27  1  0
  3 28  1  0
  9 29  1  6
 10 30  1  0
 10 31  1  0
 11 32  1  0
 11 33  1  0
 12 34  1  0
 12 35  1  0
 13 36  1  1
 14 37  1  0
 14 38  1  0
 14 39  1  0
 16 40  1  0
 17 41  1  0
 22 42  1  0
 23 43  1  0
 23 44  1  0
 24 45  1  0
 24 46  1  0
 25 47  1  0
 25 48  1  0
 26 49  1  6
M  ISO  8  27  14  28  14  29  13  30  13  31  13  32  13  33  13  34  13
M  ISO  8  35  13  36  13  37   8  38   8  39   8  40  14  41  14  42   5
M  ISO  7  43  13  44  13  45  13  46  13  47  13  48  13  49  13
M  END
>  <minimizedAffinity>  (1) 
-5.31291199

>  <minimizedRMSD>  (1) 
1.82631946

$$$$
