
     RDKit          3D

 39 41  0  0  1  0  0  0  0  0999 V2000
   38.9390   29.4980   42.2480 N   0  0  0  0  0  0  0  0  0  0  0  0
   38.1370   29.5620   43.3040 C   0  0  0  0  0  0  0  0  0  0  0  0
   37.3020   28.5310   43.6690 C   0  0  0  0  0  0  0  0  0  0  0  0
   37.2690   27.3530   42.9220 C   0  0  0  0  0  0  0  0  0  0  0  0
   36.5150   26.4170   43.2470 O   0  0  0  0  0  0  0  0  0  0  0  0
   38.1050   27.3270   41.8490 N   0  0  0  0  0  0  0  0  0  0  0  0
   38.8980   28.3600   41.5400 C   0  0  0  0  0  0  0  0  0  0  0  0
   39.6430   28.2350   40.5150 O   0  0  0  0  0  0  0  0  0  0  0  0
   38.0920   26.1260   41.0620 C   0  0  2  0  0  0  0  0  0  0  0  0
   36.8510   25.7400   40.4270 C   0  0  0  0  0  0  0  0  0  0  0  0
   37.0420   24.2430   40.1550 C   0  0  0  0  0  0  0  0  0  0  0  0
   37.7010   23.7720   41.4080 C   0  0  0  0  0  0  0  0  0  0  0  0
   38.5510   24.9100   41.8800 C   0  0  1  0  0  0  0  0  0  0  0  0
   40.0160   24.6730   41.7820 C   0  0  0  0  0  0  0  0  0  0  0  0
   39.7980   30.5500   41.8660 C   0  0  0  0  0  0  0  0  0  0  0  0
   41.1430   30.6910   42.3530 C   0  0  0  0  0  0  0  0  0  0  0  0
   41.8790   31.7870   41.8860 C   0  0  0  0  0  0  0  0  0  0  0  0
   41.2910   32.6300   41.0210 N   0  0  0  0  0  0  0  0  0  0  0  0
   40.0430   32.4780   40.5850 C   0  0  0  0  0  0  0  0  0  0  0  0
   39.3060   31.4460   41.0060 N   0  0  0  0  0  0  0  0  0  0  0  0
   39.4780   33.3880   39.6830 O   0  0  0  0  0  0  0  0  0  0  0  0
   38.4030   34.1380   40.1940 C   0  0  0  0  0  0  0  0  0  0  0  0
   38.9170   35.1420   40.7950 O   0  0  0  0  0  0  0  0  0  0  0  0
   38.1401   30.4780   43.9130 H   0  0  0  0  0  0  0  0  0  0  0  0
   36.6573   28.6360   44.5541 H   0  0  0  0  0  0  0  0  0  0  0  0
   38.7843   26.4058   40.2543 H   0  0  0  0  0  0  0  0  0  0  0  0
   35.9957   25.9124   41.0969 H   0  0  0  0  0  0  0  0  0  0  0  0
   36.6365   26.3182   39.5161 H   0  0  0  0  0  0  0  0  0  0  0  0
   36.0760   23.7401   40.0000 H   0  0  0  0  0  0  0  0  0  0  0  0
   37.6241   24.0320   39.2458 H   0  0  0  0  0  0  0  0  0  0  0  0
   36.9448   23.5197   42.1660 H   0  0  0  0  0  0  0  0  0  0  0  0
   38.3009   22.8670   41.2320 H   0  0  0  0  0  0  0  0  0  0  0  0
   38.4112   25.0612   42.9606 H   0  0  0  0  0  0  0  0  0  0  0  0
   40.4446   24.6037   42.7927 H   0  0  0  0  0  0  0  0  0  0  0  0
   40.2000   23.7334   41.2404 H   0  0  0  0  0  0  0  0  0  0  0  0
   40.4869   25.5066   41.2404 H   0  0  0  0  0  0  0  0  0  0  0  0
   41.5754   29.9694   43.0617 H   0  0  0  0  0  0  0  0  0  0  0  0
   42.9139   31.9537   42.2195 H   0  0  0  0  0  0  0  0  0  0  0  0
   37.3322   33.9062   40.0957 H   0  0  0  0  0  0  0  0  0  0  0  0
  1  2  1  0
  2  3  2  0
  4  5  2  0
  4  3  1  0
  6  4  1  0
  7  6  1  0
  7  1  1  0
  8  7  2  0
  9  6  1  0
  9 13  1  0
 10  9  1  0
 11 10  1  0
 11 12  1  0
 12 13  1  0
 14 13  1  0
 15  1  1  0
 15 16  2  0
 17 16  1  0
 18 17  2  0
 19 20  2  0
 19 18  1  0
 20 15  1  0
 21 22  1  0
 21 19  1  0
 22 23  2  0
  2 24  1  0
  3 25  1  0
  9 26  1  6
 10 27  1  0
 10 28  1  0
 11 29  1  0
 11 30  1  0
 12 31  1  0
 12 32  1  0
 13 33  1  1
 14 34  1  0
 14 35  1  0
 14 36  1  0
 16 37  1  0
 17 38  1  0
 22 39  1  0
M  ISO  8  24  14  25  14  26  13  27  13  28  13  29  13  30  13  31  13
M  ISO  8  32  13  33  13  34   8  35   8  36   8  37  14  38  14  39   6
M  END
>  <minimizedAffinity>  (1) 
-5.07602882

>  <minimizedRMSD>  (1) 
1.68112719

$$$$
