
     RDKit          3D

 16 17  0  0  0  0  0  0  0  0999 V2000
   36.6530   30.8160   40.8650 C   0  0  0  0  0  0  0  0  0  0  0  0
   37.7590   30.3120   41.5980 C   0  0  0  0  0  0  0  0  0  0  0  0
   38.9460   31.0640   41.5620 C   0  0  0  0  0  0  0  0  0  0  0  0
   38.9640   32.2150   40.8390 N   0  0  0  0  0  0  0  0  0  0  0  0
   37.8910   32.6550   40.1590 C   0  0  0  0  0  0  0  0  0  0  0  0
   36.7440   31.9550   40.1760 N   0  0  0  0  0  0  0  0  0  0  0  0
   37.7270   29.1060   42.3520 N   0  0  0  0  0  0  0  0  0  0  0  0
   38.5330   28.4800   43.2370 C   0  0  0  0  0  0  0  0  0  0  0  0
   37.9610   27.3280   43.6330 N   0  0  0  0  0  0  0  0  0  0  0  0
   36.7870   27.2300   42.9940 C   0  0  0  0  0  0  0  0  0  0  0  0
   36.6780   28.3250   42.2260 N   0  0  0  0  0  0  0  0  0  0  0  0
   35.7049   30.2582   40.8649 H   0  0  0  0  0  0  0  0  0  0  0  0
   39.8407   30.7285   42.1069 H   0  0  0  0  0  0  0  0  0  0  0  0
   37.9522   33.5921   39.5862 H   0  0  0  0  0  0  0  0  0  0  0  0
   39.5082   28.8547   43.5815 H   0  0  0  0  0  0  0  0  0  0  0  0
   36.0563   26.4125   43.0818 H   0  0  0  0  0  0  0  0  0  0  0  0
  1  2  2  0
  2  7  1  0
  3  2  1  0
  4  3  2  0
  5  6  2  0
  5  4  1  0
  6  1  1  0
  7  8  1  0
  8  9  2  0
 10  9  1  0
 11  7  1  0
 11 10  2  0
  1 12  1  0
  3 13  1  0
  5 14  1  0
  8 15  1  0
 10 16  1  0
M  ISO  5  12  14  13  14  14  14  15  14  16  14
M  END
>  <minimizedAffinity>  (1) 
-3.3425827

>  <minimizedRMSD>  (1) 
3.79888225

$$$$
