
     RDKit          3D

 23 25  0  0  0  0  0  0  0  0999 V2000
   37.5500   31.1400   40.7430 N   0  0  0  0  0  0  0  0  0  0  0  0
   36.8980   31.5750   39.6490 C   0  0  0  0  0  0  0  0  0  0  0  0
   37.4300   32.7400   39.2800 N   0  0  0  0  0  0  0  0  0  0  0  0
   38.4130   33.0470   40.1300 C   0  0  0  0  0  0  0  0  0  0  0  0
   38.4670   32.0520   41.0170 N   0  0  0  0  0  0  0  0  0  0  0  0
   39.2650   34.2070   40.1260 N   0  0  0  0  0  0  0  0  0  0  0  0
   40.3930   34.0350   39.4100 C   0  0  0  0  0  0  0  0  0  0  0  0
   41.1180   35.2210   39.4880 C   0  0  0  0  0  0  0  0  0  0  0  0
   40.3910   36.0660   40.2540 N   0  0  0  0  0  0  0  0  0  0  0  0
   39.2790   35.4500   40.6340 C   0  0  0  0  0  0  0  0  0  0  0  0
   38.4120   29.7690   42.6840 C   0  0  0  0  0  0  0  0  0  0  0  0
   37.4890   30.0030   41.6150 C   0  0  0  0  0  0  0  0  0  0  0  0
   36.4500   29.0680   41.3930 C   0  0  0  0  0  0  0  0  0  0  0  0
   36.4000   27.9930   42.2230 N   0  0  0  0  0  0  0  0  0  0  0  0
   37.2860   27.8160   43.2090 C   0  0  0  0  0  0  0  0  0  0  0  0
   38.2730   28.6850   43.4370 N   0  0  0  0  0  0  0  0  0  0  0  0
   36.0681   31.0576   39.1455 H   0  0  0  0  0  0  0  0  0  0  0  0
   40.6868   33.1260   38.8647 H   0  0  0  0  0  0  0  0  0  0  0  0
   42.0908   35.4298   39.0189 H   0  0  0  0  0  0  0  0  0  0  0  0
   38.4924   35.8884   41.2657 H   0  0  0  0  0  0  0  0  0  0  0  0
   39.2280   30.4803   42.8793 H   0  0  0  0  0  0  0  0  0  0  0  0
   35.7161   29.2052   40.5852 H   0  0  0  0  0  0  0  0  0  0  0  0
   37.1987   26.9274   43.8515 H   0  0  0  0  0  0  0  0  0  0  0  0
  1  5  1  0
  1 12  1  0
  2  1  1  0
  3  2  2  0
  3  4  1  0
  4  5  2  0
  6  4  1  0
  6 10  1  0
  7  8  2  0
  7  6  1  0
  8  9  1  0
  9 10  2  0
 11 16  2  0
 12 11  1  0
 13 12  2  0
 13 14  1  0
 14 15  2  0
 15 16  1  0
  2 17  1  0
  7 18  1  0
  8 19  1  0
 10 20  1  0
 11 21  1  0
 13 22  1  0
 15 23  1  0
M  ISO  7  17  14  18  14  19  14  20  14  21  14  22  14  23  14
M  END
>  <minimizedAffinity>  (1) 
-5.0265398

>  <minimizedRMSD>  (1) 
7.49238586

$$$$
