
     RDKit          3D

 28 30  0  0  0  0  0  0  0  0999 V2000
   38.0060   30.7990   40.6070 N   0  0  0  0  0  0  0  0  0  0  0  0
   37.3260   31.9590   40.5520 C   0  0  0  0  0  0  0  0  0  0  0  0
   38.1740   32.9690   40.3070 N   0  0  0  0  0  0  0  0  0  0  0  0
   39.3920   32.4440   40.2060 C   0  0  0  0  0  0  0  0  0  0  0  0
   39.2660   31.1300   40.3910 N   0  0  0  0  0  0  0  0  0  0  0  0
   40.5930   33.1620   39.9500 N   0  0  0  0  0  0  0  0  0  0  0  0
   41.1590   33.4480   38.6430 C   0  0  0  0  0  0  0  0  0  0  0  0
   41.4870   34.9300   38.8310 C   0  0  0  0  0  0  0  0  0  0  0  0
   41.6300   35.1480   40.3180 C   0  0  0  0  0  0  0  0  0  0  0  0
   41.4960   33.7530   40.9240 C   0  0  0  0  0  0  0  0  0  0  0  0
   38.0430   28.3920   39.9320 C   0  0  0  0  0  0  0  0  0  0  0  0
   37.6860   29.4380   40.8240 C   0  0  0  0  0  0  0  0  0  0  0  0
   36.9810   29.0560   41.9660 C   0  0  0  0  0  0  0  0  0  0  0  0
   36.6830   27.7480   42.1570 N   0  0  0  0  0  0  0  0  0  0  0  0
   37.0400   26.7970   41.2880 C   0  0  0  0  0  0  0  0  0  0  0  0
   37.7170   27.1260   40.1850 N   0  0  0  0  0  0  0  0  0  0  0  0
   36.2393   32.0631   40.6874 H   0  0  0  0  0  0  0  0  0  0  0  0
   40.4293   33.2881   37.8356 H   0  0  0  0  0  0  0  0  0  0  0  0
   42.0084   32.8131   38.3507 H   0  0  0  0  0  0  0  0  0  0  0  0
   42.4271   35.1800   38.3174 H   0  0  0  0  0  0  0  0  0  0  0  0
   40.6992   35.5703   38.4074 H   0  0  0  0  0  0  0  0  0  0  0  0
   42.6128   35.5818   40.5546 H   0  0  0  0  0  0  0  0  0  0  0  0
   40.8792   35.8488   40.7119 H   0  0  0  0  0  0  0  0  0  0  0  0
   41.0536   33.7823   41.9307 H   0  0  0  0  0  0  0  0  0  0  0  0
   42.4421   33.2132   41.0774 H   0  0  0  0  0  0  0  0  0  0  0  0
   38.5997   28.6324   39.0142 H   0  0  0  0  0  0  0  0  0  0  0  0
   36.6700   29.8097   42.7044 H   0  0  0  0  0  0  0  0  0  0  0  0
   36.7769   25.7465   41.4810 H   0  0  0  0  0  0  0  0  0  0  0  0
  1 12  1  0
  2  1  1  0
  3  2  2  0
  4  3  1  0
  4  5  2  0
  5  1  1  0
  6  4  1  0
  6 10  1  0
  7  8  1  0
  7  6  1  0
  8  9  1  0
  9 10  1  0
 11 16  2  0
 11 12  1  0
 12 13  2  0
 13 14  1  0
 15 14  2  0
 16 15  1  0
  2 17  1  0
  7 18  1  0
  7 19  1  0
  8 20  1  0
  8 21  1  0
  9 22  1  0
  9 23  1  0
 10 24  1  0
 10 25  1  0
 11 26  1  0
 13 27  1  0
 15 28  1  0
M  ISO  8  17  14  18  13  19  13  20  13  21  13  22  13  23  13  24  13
M  ISO  4  25  13  26  14  27  14  28  14
M  END
>  <minimizedAffinity>  (1) 
-3.90018153

>  <minimizedRMSD>  (1) 
7.4732337

$$$$
