
     RDKit          3D

 39 42  0  0  1  0  0  0  0  0999 V2000
   37.2760   27.5300   43.5660 C   0  0  2  0  0  0  0  0  0  0  0  0
   37.1760   30.3140   41.2280 N   0  0  0  0  0  0  0  0  0  0  0  0
   36.1810   29.5150   40.7780 C   0  0  0  0  0  0  0  0  0  0  0  0
   36.0950   28.4230   41.5570 N   0  0  0  0  0  0  0  0  0  0  0  0
   37.0350   28.5290   42.5020 C   0  0  0  0  0  0  0  0  0  0  0  0
   37.6730   29.6980   42.2660 N   0  0  0  0  0  0  0  0  0  0  0  0
   37.0250   32.4870   40.0280 C   0  0  0  0  0  0  0  0  0  0  0  0
   37.7230   31.5590   40.8320 C   0  0  0  0  0  0  0  0  0  0  0  0
   39.0190   31.9250   41.2380 C   0  0  0  0  0  0  0  0  0  0  0  0
   39.5130   33.1210   40.8430 N   0  0  0  0  0  0  0  0  0  0  0  0
   38.8030   33.9660   40.0770 C   0  0  0  0  0  0  0  0  0  0  0  0
   37.5650   33.6500   39.6720 N   0  0  0  0  0  0  0  0  0  0  0  0
   36.5350   28.0580   44.8040 C   0  0  0  0  0  0  0  0  0  0  0  0
   38.6830   27.2550   43.8460 C   0  0  0  0  0  0  0  0  0  0  0  0
   39.4680   26.5040   42.8920 C   0  0  0  0  0  0  0  0  0  0  0  0
   39.1380   25.9160   41.7310 N   0  0  0  0  0  0  0  0  0  0  0  0
   40.0070   25.2490   40.9540 C   0  0  0  0  0  0  0  0  0  0  0  0
   41.3010   25.1240   41.3010 N   0  0  0  0  0  0  0  0  0  0  0  0
   41.7030   25.6860   42.4500 C   0  0  0  0  0  0  0  0  0  0  0  0
   43.0420   25.5190   42.7410 C   0  0  0  0  0  0  0  0  0  0  0  0
   43.5300   26.0730   43.9140 C   0  0  0  0  0  0  0  0  0  0  0  0
   42.6780   26.7690   44.7460 C   0  0  0  0  0  0  0  0  0  0  0  0
   41.3520   26.8930   44.3850 C   0  0  0  0  0  0  0  0  0  0  0  0
   40.8030   26.3730   43.2470 C   0  0  0  0  0  0  0  0  0  0  0  0
   36.9007   26.5495   43.2377 H   0  0  0  0  0  0  0  0  0  0  0  0
   35.5411   29.7265   39.9086 H   0  0  0  0  0  0  0  0  0  0  0  0
   36.0083   32.2420   39.6871 H   0  0  0  0  0  0  0  0  0  0  0  0
   39.6203   31.2507   41.8656 H   0  0  0  0  0  0  0  0  0  0  0  0
   39.2430   34.9290   39.7785 H   0  0  0  0  0  0  0  0  0  0  0  0
   37.0387   27.6991   45.7136 H   0  0  0  0  0  0  0  0  0  0  0  0
   36.5391   29.1579   44.7924 H   0  0  0  0  0  0  0  0  0  0  0  0
   35.4967   27.6950   44.7924 H   0  0  0  0  0  0  0  0  0  0  0  0
   39.1796   28.2283   43.9724 H   0  0  0  0  0  0  0  0  0  0  0  0
   38.6458   26.5944   44.7248 H   0  0  0  0  0  0  0  0  0  0  0  0
   39.6540   24.7961   40.0158 H   0  0  0  0  0  0  0  0  0  0  0  0
   43.7032   24.9618   42.0610 H   0  0  0  0  0  0  0  0  0  0  0  0
   44.5912   25.9582   44.1800 H   0  0  0  0  0  0  0  0  0  0  0  0
   43.0487   27.2168   45.6798 H   0  0  0  0  0  0  0  0  0  0  0  0
   40.6889   27.4509   45.0625 H   0  0  0  0  0  0  0  0  0  0  0  0
  1 14  1  0
  1 13  1  0
  2  6  1  0
  3  2  1  0
  3  4  2  0
  4  5  1  0
  5  1  1  0
  6  5  2  0
  7  8  2  0
  8  2  1  0
  8  9  1  0
 10  9  2  0
 11 10  1  0
 12  7  1  0
 12 11  2  0
 15 24  1  0
 15 14  1  0
 16 15  2  0
 17 18  2  0
 17 16  1  0
 18 19  1  0
 19 20  1  0
 19 24  2  0
 20 21  2  0
 21 22  1  0
 23 22  2  0
 24 23  1  0
  1 25  1  6
  3 26  1  0
  7 27  1  0
  9 28  1  0
 11 29  1  0
 13 30  1  0
 13 31  1  0
 13 32  1  0
 14 33  1  0
 14 34  1  0
 17 35  1  0
 20 36  1  0
 21 37  1  0
 22 38  1  0
 23 39  1  0
M  ISO  8  25   8  26  14  27  14  28  14  29  14  30   8  31   8  32   8
M  ISO  7  33   8  34   8  35  14  36  14  37  14  38  14  39  14
M  END
>  <minimizedAffinity>  (1) 
-6.12820673

>  <minimizedRMSD>  (1) 
2.21097827

$$$$
