
     RDKit          3D

 38 41  0  0  1  0  0  0  0  0999 V2000
   36.9420   27.7620   42.9590 C   0  0  2  0  0  0  0  0  0  0  0  0
   38.6600   30.7500   41.8000 N   0  0  0  0  0  0  0  0  0  0  0  0
   39.6630   30.0690   42.4240 C   0  0  0  0  0  0  0  0  0  0  0  0
   39.1830   28.9150   42.9180 N   0  0  0  0  0  0  0  0  0  0  0  0
   37.8630   28.8670   42.6040 C   0  0  0  0  0  0  0  0  0  0  0  0
   37.5930   30.0030   41.9270 N   0  0  0  0  0  0  0  0  0  0  0  0
   37.4310   32.3680   40.3770 C   0  0  0  0  0  0  0  0  0  0  0  0
   38.5770   31.9760   41.1120 C   0  0  0  0  0  0  0  0  0  0  0  0
   39.6540   32.8740   41.1100 C   0  0  0  0  0  0  0  0  0  0  0  0
   39.5370   34.0330   40.4210 N   0  0  0  0  0  0  0  0  0  0  0  0
   38.4300   34.3540   39.7420 C   0  0  0  0  0  0  0  0  0  0  0  0
   37.3740   33.5290   39.7140 N   0  0  0  0  0  0  0  0  0  0  0  0
   36.7240   27.9030   44.4790 C   0  0  0  0  0  0  0  0  0  0  0  0
   37.5000   26.4100   42.6340 C   0  0  0  0  0  0  0  0  0  0  0  0
   37.1160   26.1000   41.2710 N   0  0  0  0  0  0  0  0  0  0  0  0
   36.5770   26.8680   40.3200 C   0  0  0  0  0  0  0  0  0  0  0  0
   36.3910   26.1360   39.1950 N   0  0  0  0  0  0  0  0  0  0  0  0
   36.8300   24.8890   39.4780 C   0  0  0  0  0  0  0  0  0  0  0  0
   36.8850   23.7390   38.7180 C   0  0  0  0  0  0  0  0  0  0  0  0
   37.3780   22.6060   39.2460 N   0  0  0  0  0  0  0  0  0  0  0  0
   37.8270   22.5660   40.5180 C   0  0  0  0  0  0  0  0  0  0  0  0
   37.7740   23.6870   41.2590 N   0  0  0  0  0  0  0  0  0  0  0  0
   37.2880   24.8510   40.7760 C   0  0  0  0  0  0  0  0  0  0  0  0
   36.4380   23.6830   37.3760 N   0  0  0  0  0  0  0  0  0  0  0  0
   36.0093   27.8332   42.3801 H   0  0  0  0  0  0  0  0  0  0  0  0
   40.7048   30.4115   42.5099 H   0  0  0  0  0  0  0  0  0  0  0  0
   36.5602   31.6965   40.3505 H   0  0  0  0  0  0  0  0  0  0  0  0
   40.5781   32.6404   41.6590 H   0  0  0  0  0  0  0  0  0  0  0  0
   38.3857   35.3093   39.1985 H   0  0  0  0  0  0  0  0  0  0  0  0
   37.5306   27.3813   45.0150 H   0  0  0  0  0  0  0  0  0  0  0  0
   36.7307   28.9683   44.7531 H   0  0  0  0  0  0  0  0  0  0  0  0
   35.7552   27.4600   44.7531 H   0  0  0  0  0  0  0  0  0  0  0  0
   38.5964   26.4245   42.7219 H   0  0  0  0  0  0  0  0  0  0  0  0
   37.1115   25.6515   43.3295 H   0  0  0  0  0  0  0  0  0  0  0  0
   36.3229   27.9323   40.4330 H   0  0  0  0  0  0  0  0  0  0  0  0
   38.2290   21.6335   40.9410 H   0  0  0  0  0  0  0  0  0  0  0  0
   36.0518   24.5253   36.9263 H   0  0  0  0  0  0  0  0  0  0  0  0
   36.4990   22.8000   36.8493 H   0  0  0  0  0  0  0  0  0  0  0  0
  1 13  1  0
  2  6  1  0
  2  3  1  0
  3  4  2  0
  5  4  1  0
  5  1  1  0
  6  5  2  0
  7  8  2  0
  8  2  1  0
  9  8  1  0
 10  9  2  0
 11 10  1  0
 12 11  2  0
 12  7  1  0
 14  1  1  0
 15 14  1  0
 16 15  1  0
 17 18  1  0
 17 16  2  0
 18 23  2  0
 19 20  2  0
 19 18  1  0
 20 21  1  0
 21 22  2  0
 23 22  1  0
 23 15  1  0
 24 19  1  0
  1 25  1  6
  3 26  1  0
  7 27  1  0
  9 28  1  0
 11 29  1  0
 13 30  1  0
 13 31  1  0
 13 32  1  0
 14 33  1  0
 14 34  1  0
 16 35  1  0
 21 36  1  0
 24 37  1  0
 24 38  1  0
M  ISO  8  25   8  26  14  27  14  28  14  29  14  30   8  31   8  32   8
M  ISO  4  33   8  34   8  35  14  36  14
M  END
>  <minimizedAffinity>  (1) 
-5.37042475

>  <minimizedRMSD>  (1) 
0.686396837

$$$$
