
     RDKit          3D

 32 33  0  0  1  0  0  0  0  0999 V2000
   36.6230   27.5720   43.0010 C   0  0  2  0  0  0  0  0  0  0  0  0
   38.5150   30.4600   41.8260 N   0  0  0  0  0  0  0  0  0  0  0  0
   39.4470   29.7340   42.4690 C   0  0  0  0  0  0  0  0  0  0  0  0
   38.8910   28.6150   42.9650 N   0  0  0  0  0  0  0  0  0  0  0  0
   37.5790   28.6370   42.6280 C   0  0  0  0  0  0  0  0  0  0  0  0
   37.3950   29.7800   41.9350 N   0  0  0  0  0  0  0  0  0  0  0  0
   37.3360   32.1490   40.3870 C   0  0  0  0  0  0  0  0  0  0  0  0
   38.4700   31.7000   41.1120 C   0  0  0  0  0  0  0  0  0  0  0  0
   39.6080   32.5370   41.1270 C   0  0  0  0  0  0  0  0  0  0  0  0
   39.5250   33.7030   40.4470 N   0  0  0  0  0  0  0  0  0  0  0  0
   38.4410   34.0830   39.7810 C   0  0  0  0  0  0  0  0  0  0  0  0
   37.3330   33.3120   39.7430 N   0  0  0  0  0  0  0  0  0  0  0  0
   36.5940   27.5430   44.5220 C   0  0  0  0  0  0  0  0  0  0  0  0
   36.9170   26.2520   42.4050 C   0  0  0  0  0  0  0  0  0  0  0  0
   38.2970   25.8240   42.4760 N   0  0  0  0  0  0  0  0  0  0  0  0
   38.6340   24.4440   42.4900 C   0  0  0  0  0  0  0  0  0  0  0  0
   37.9640   23.6450   41.7200 N   0  0  0  0  0  0  0  0  0  0  0  0
   39.6740   23.9240   43.3100 N   0  0  0  0  0  0  0  0  0  0  0  0
   38.1290   22.6280   41.6540 H   0  0  0  0  0  0  0  0  0  0  0  0
   35.6302   27.8029   42.5875 H   0  0  0  0  0  0  0  0  0  0  0  0
   40.5056   30.0140   42.5734 H   0  0  0  0  0  0  0  0  0  0  0  0
   36.4354   31.5180   40.3570 H   0  0  0  0  0  0  0  0  0  0  0  0
   40.5223   32.2525   41.6685 H   0  0  0  0  0  0  0  0  0  0  0  0
   38.4456   35.0459   39.2492 H   0  0  0  0  0  0  0  0  0  0  0  0
   37.3201   28.2691   44.9165 H   0  0  0  0  0  0  0  0  0  0  0  0
   35.5854   27.8046   44.8746 H   0  0  0  0  0  0  0  0  0  0  0  0
   36.8556   26.5344   44.8746 H   0  0  0  0  0  0  0  0  0  0  0  0
   36.6289   26.2887   41.3440 H   0  0  0  0  0  0  0  0  0  0  0  0
   36.3463   25.5220   42.9978 H   0  0  0  0  0  0  0  0  0  0  0  0
   39.0460   26.5299   42.5170 H   0  0  0  0  0  0  0  0  0  0  0  0
   39.8888   22.9168   43.2924 H   0  0  0  0  0  0  0  0  0  0  0  0
   40.2121   24.5548   43.9212 H   0  0  0  0  0  0  0  0  0  0  0  0
  1 13  1  0
  2  6  1  0
  2  3  1  0
  3  4  2  0
  5  4  1  0
  5  1  1  0
  6  5  2  0
  7  8  2  0
  8  9  1  0
  8  2  1  0
 10  9  2  0
 11 10  1  0
 12 11  2  0
 12  7  1  0
 14 15  1  0
 14  1  1  0
 15 16  1  0
 16 18  1  0
 17 16  2  0
 19 17  1  0
  1 20  1  6
  3 21  1  0
  7 22  1  0
  9 23  1  0
 11 24  1  0
 13 25  1  0
 13 26  1  0
 13 27  1  0
 14 28  1  0
 14 29  1  0
 15 30  1  0
 18 31  1  0
 18 32  1  0
M  ISO  8  20   8  21  14  22  14  23  14  24  14  25   8  26   8  27   8
M  ISO  2  28   8  29   8
M  END
>  <minimizedAffinity>  (1) 
-5.18334579

>  <minimizedRMSD>  (1) 
0.363064826

$$$$
