
     RDKit          3D

 32 34  0  0  1  0  0  0  0  0999 V2000
   37.0650   27.7660   43.0140 C   0  0  2  0  0  0  0  0  0  0  0  0
   38.5270   30.8260   41.6650 N   0  0  0  0  0  0  0  0  0  0  0  0
   39.5710   30.2570   42.2880 C   0  0  0  0  0  0  0  0  0  0  0  0
   39.2000   29.0970   42.8480 N   0  0  0  0  0  0  0  0  0  0  0  0
   37.8820   28.9250   42.5740 C   0  0  0  0  0  0  0  0  0  0  0  0
   37.5080   30.0030   41.8490 N   0  0  0  0  0  0  0  0  0  0  0  0
   37.2230   32.1620   39.9820 C   0  0  0  0  0  0  0  0  0  0  0  0
   38.2570   32.0120   40.9160 C   0  0  0  0  0  0  0  0  0  0  0  0
   39.0990   33.1350   41.1430 C   0  0  0  0  0  0  0  0  0  0  0  0
   38.8380   34.2700   40.4350 N   0  0  0  0  0  0  0  0  0  0  0  0
   37.8380   34.3440   39.5610 C   0  0  0  0  0  0  0  0  0  0  0  0
   37.0300   33.3020   39.3290 N   0  0  0  0  0  0  0  0  0  0  0  0
   36.7960   28.0180   44.5140 C   0  0  0  0  0  0  0  0  0  0  0  0
   37.7630   26.4620   42.8510 C   0  0  0  0  0  0  0  0  0  0  0  0
   37.2260   25.6700   41.7750 N   0  0  0  0  0  0  0  0  0  0  0  0
   36.8480   24.4180   41.9240 N   0  0  0  0  0  0  0  0  0  0  0  0
   36.3920   23.9510   40.7400 C   0  0  0  0  0  0  0  0  0  0  0  0
   36.5130   24.9940   39.8550 C   0  0  0  0  0  0  0  0  0  0  0  0
   37.0480   26.1130   40.4960 C   0  0  0  0  0  0  0  0  0  0  0  0
   36.1526   27.6932   42.4039 H   0  0  0  0  0  0  0  0  0  0  0  0
   40.5848   30.6814   42.3326 H   0  0  0  0  0  0  0  0  0  0  0  0
   36.5530   31.3122   39.7845 H   0  0  0  0  0  0  0  0  0  0  0  0
   39.9296   33.0895   41.8628 H   0  0  0  0  0  0  0  0  0  0  0  0
   37.6708   35.2844   39.0154 H   0  0  0  0  0  0  0  0  0  0  0  0
   37.4671   27.3893   45.1176 H   0  0  0  0  0  0  0  0  0  0  0  0
   36.9787   29.0776   44.7463 H   0  0  0  0  0  0  0  0  0  0  0  0
   35.7506   27.7666   44.7463 H   0  0  0  0  0  0  0  0  0  0  0  0
   38.8264   26.6561   42.6472 H   0  0  0  0  0  0  0  0  0  0  0  0
   37.6219   25.8933   43.7819 H   0  0  0  0  0  0  0  0  0  0  0  0
   36.0041   22.9435   40.5291 H   0  0  0  0  0  0  0  0  0  0  0  0
   36.2291   24.9536   38.7930 H   0  0  0  0  0  0  0  0  0  0  0  0
   37.2707   27.1047   40.0752 H   0  0  0  0  0  0  0  0  0  0  0  0
  1 13  1  0
  2  6  1  0
  2  3  1  0
  3  4  2  0
  5  4  1  0
  5  1  1  0
  6  5  2  0
  7  8  2  0
  8  9  1  0
  8  2  1  0
 10  9  2  0
 11 10  1  0
 12 11  2  0
 12  7  1  0
 14  1  1  0
 15 16  1  0
 15 14  1  0
 17 16  2  0
 18 19  2  0
 18 17  1  0
 19 15  1  0
  1 20  1  6
  3 21  1  0
  7 22  1  0
  9 23  1  0
 11 24  1  0
 13 25  1  0
 13 26  1  0
 13 27  1  0
 14 28  1  0
 14 29  1  0
 17 30  1  0
 18 31  1  0
 19 32  1  0
M  ISO  8  20   8  21  14  22  14  23  14  24  14  25   8  26   8  27   8
M  ISO  5  28   8  29   8  30  14  31  14  32  14
M  END
>  <minimizedAffinity>  (1) 
-4.95951557

>  <minimizedRMSD>  (1) 
0.916715086

$$$$
