
     RDKit          3D

 44 47  0  0  1  0  0  0  0  0999 V2000
   36.9780   27.8090   43.1320 C   0  0  2  0  0  0  0  0  0  0  0  0
   38.4850   30.8030   41.6970 N   0  0  0  0  0  0  0  0  0  0  0  0
   39.5210   30.2200   42.3000 C   0  0  0  0  0  0  0  0  0  0  0  0
   39.1430   29.0800   42.8930 N   0  0  0  0  0  0  0  0  0  0  0  0
   37.8020   28.9390   42.6480 C   0  0  0  0  0  0  0  0  0  0  0  0
   37.4450   30.0100   41.9190 N   0  0  0  0  0  0  0  0  0  0  0  0
   37.1870   32.1210   39.9840 C   0  0  0  0  0  0  0  0  0  0  0  0
   38.2230   31.9870   40.9260 C   0  0  0  0  0  0  0  0  0  0  0  0
   39.0950   33.1030   41.1540 C   0  0  0  0  0  0  0  0  0  0  0  0
   38.8440   34.2150   40.4270 N   0  0  0  0  0  0  0  0  0  0  0  0
   37.8430   34.2900   39.5420 C   0  0  0  0  0  0  0  0  0  0  0  0
   37.0320   33.2600   39.3270 N   0  0  0  0  0  0  0  0  0  0  0  0
   36.8040   28.0530   44.6470 C   0  0  0  0  0  0  0  0  0  0  0  0
   37.5970   26.4790   42.9180 C   0  0  0  0  0  0  0  0  0  0  0  0
   37.0990   25.7730   41.7330 C   0  0  0  0  0  0  0  0  0  0  0  0
   36.8290   24.4210   41.7460 C   0  0  0  0  0  0  0  0  0  0  0  0
   36.3630   23.8990   40.5430 C   0  0  0  0  0  0  0  0  0  0  0  0
   36.2020   24.7160   39.4500 C   0  0  0  0  0  0  0  0  0  0  0  0
   36.4790   26.0670   39.4620 C   0  0  0  0  0  0  0  0  0  0  0  0
   36.9320   26.5570   40.6470 N   0  0  0  0  0  0  0  0  0  0  0  0
   36.2930   26.8670   38.3000 N   0  0  0  0  0  0  0  0  0  0  0  0
   36.6080   26.5750   37.0300 C   0  0  0  0  0  0  0  0  0  0  0  0
   36.3480   27.4910   36.0250 C   0  0  0  0  0  0  0  0  0  0  0  0
   35.7630   28.6920   36.3740 C   0  0  0  0  0  0  0  0  0  0  0  0
   35.5160   29.5480   35.4710 O   0  0  0  0  0  0  0  0  0  0  0  0
   35.4460   28.9860   37.6610 N   0  0  0  0  0  0  0  0  0  0  0  0
   35.7210   28.0560   38.6030 C   0  0  0  0  0  0  0  0  0  0  0  0
   35.3760   28.4540   39.7610 O   0  0  0  0  0  0  0  0  0  0  0  0
   36.0315   27.7822   42.5722 H   0  0  0  0  0  0  0  0  0  0  0  0
   40.5456   30.6201   42.3093 H   0  0  0  0  0  0  0  0  0  0  0  0
   36.5053   31.2791   39.7931 H   0  0  0  0  0  0  0  0  0  0  0  0
   39.9209   33.0567   41.8791 H   0  0  0  0  0  0  0  0  0  0  0  0
   37.6886   35.2236   38.9811 H   0  0  0  0  0  0  0  0  0  0  0  0
   37.3534   27.2826   45.2079 H   0  0  0  0  0  0  0  0  0  0  0  0
   37.1986   29.0466   44.9061 H   0  0  0  0  0  0  0  0  0  0  0  0
   35.7361   28.0036   44.9061 H   0  0  0  0  0  0  0  0  0  0  0  0
   38.6828   26.6165   42.8078 H   0  0  0  0  0  0  0  0  0  0  0  0
   37.3345   25.8618   43.7899 H   0  0  0  0  0  0  0  0  0  0  0  0
   36.9716   23.7998   42.6425 H   0  0  0  0  0  0  0  0  0  0  0  0
   36.1226   22.8283   40.4669 H   0  0  0  0  0  0  0  0  0  0  0  0
   35.8324   24.2686   38.5155 H   0  0  0  0  0  0  0  0  0  0  0  0
   37.0728   25.6082   36.7866 H   0  0  0  0  0  0  0  0  0  0  0  0
   36.6004   27.2682   34.9778 H   0  0  0  0  0  0  0  0  0  0  0  0
   35.0114   29.8857   37.9109 H   0  0  0  0  0  0  0  0  0  0  0  0
  1 13  1  0
  2  6  1  0
  2  3  1  0
  3  4  2  0
  5  4  1  0
  5  1  1  0
  6  5  2  0
  7  8  2  0
  8  9  1  0
  8  2  1  0
 10  9  2  0
 11 10  1  0
 12 11  2  0
 12  7  1  0
 14  1  1  0
 15 16  2  0
 15 14  1  0
 17 16  1  0
 18 19  1  0
 18 17  2  0
 19 20  2  0
 20 15  1  0
 21 27  1  0
 21 19  1  0
 22 21  1  0
 23 24  1  0
 23 22  2  0
 24 26  1  0
 25 24  2  0
 26 27  1  0
 27 28  2  0
  1 29  1  6
  3 30  1  0
  7 31  1  0
  9 32  1  0
 11 33  1  0
 13 34  1  0
 13 35  1  0
 13 36  1  0
 14 37  1  0
 14 38  1  0
 16 39  1  0
 17 40  1  0
 18 41  1  0
 22 42  1  0
 23 43  1  0
 26 44  1  0
M  ISO  8  29   8  30  14  31  14  32  14  33  14  34   8  35   8  36   8
M  ISO  8  37   8  38   8  39  14  40  14  41  14  42  14  43  14  44   9
M  END
>  <minimizedAffinity>  (1) 
-6.53969145

>  <minimizedRMSD>  (1) 
0.0858887807

$$$$
