
     RDKit          3D

 47 50  0  0  1  0  0  0  0  0999 V2000
   36.9090   27.7710   43.1910 C   0  0  2  0  0  0  0  0  0  0  0  0
   38.4790   30.7500   41.7820 N   0  0  0  0  0  0  0  0  0  0  0  0
   39.4900   30.1790   42.4350 C   0  0  0  0  0  0  0  0  0  0  0  0
   39.0890   29.0460   43.0260 N   0  0  0  0  0  0  0  0  0  0  0  0
   37.7580   28.8940   42.7320 C   0  0  0  0  0  0  0  0  0  0  0  0
   37.4270   29.9610   41.9680 N   0  0  0  0  0  0  0  0  0  0  0  0
   37.1980   32.0680   40.0540 C   0  0  0  0  0  0  0  0  0  0  0  0
   38.2420   31.9210   40.9840 C   0  0  0  0  0  0  0  0  0  0  0  0
   39.1480   33.0160   41.1680 C   0  0  0  0  0  0  0  0  0  0  0  0
   38.9190   34.1180   40.4180 N   0  0  0  0  0  0  0  0  0  0  0  0
   37.9200   34.2000   39.5580 C   0  0  0  0  0  0  0  0  0  0  0  0
   37.0530   33.1910   39.3610 N   0  0  0  0  0  0  0  0  0  0  0  0
   36.7490   27.9910   44.7100 C   0  0  0  0  0  0  0  0  0  0  0  0
   37.5170   26.4370   42.9540 C   0  0  0  0  0  0  0  0  0  0  0  0
   37.0620   25.7870   41.7220 C   0  0  0  0  0  0  0  0  0  0  0  0
   36.8790   24.4270   41.6250 C   0  0  0  0  0  0  0  0  0  0  0  0
   36.4460   23.9600   40.3950 C   0  0  0  0  0  0  0  0  0  0  0  0
   36.2270   24.8420   39.3660 C   0  0  0  0  0  0  0  0  0  0  0  0
   36.4140   26.2050   39.4790 C   0  0  0  0  0  0  0  0  0  0  0  0
   36.8400   26.6370   40.6950 N   0  0  0  0  0  0  0  0  0  0  0  0
   36.1940   27.1380   38.4270 N   0  0  0  0  0  0  0  0  0  0  0  0
   34.9150   27.3230   37.7780 C   0  0  0  0  0  0  0  0  0  0  0  0
   34.4960   28.7700   37.7360 C   0  0  0  0  0  0  0  0  0  0  0  0
   35.5700   29.6350   37.5930 O   0  0  0  0  0  0  0  0  0  0  0  0
   36.6850   29.0180   37.0410 C   0  0  0  0  0  0  0  0  0  0  0  0
   37.2660   27.9580   37.9540 C   0  0  0  0  0  0  0  0  0  0  0  0
   35.9598   27.7681   42.6352 H   0  0  0  0  0  0  0  0  0  0  0  0
   40.5124   30.5821   42.4823 H   0  0  0  0  0  0  0  0  0  0  0  0
   36.4907   31.2401   39.8982 H   0  0  0  0  0  0  0  0  0  0  0  0
   39.9843   32.9631   41.8806 H   0  0  0  0  0  0  0  0  0  0  0  0
   37.7924   35.1281   38.9815 H   0  0  0  0  0  0  0  0  0  0  0  0
   37.3114   27.2177   45.2537 H   0  0  0  0  0  0  0  0  0  0  0  0
   37.1371   28.9843   44.9795 H   0  0  0  0  0  0  0  0  0  0  0  0
   35.6844   27.9278   44.9795 H   0  0  0  0  0  0  0  0  0  0  0  0
   38.6088   26.5591   42.8982 H   0  0  0  0  0  0  0  0  0  0  0  0
   37.2060   25.7917   43.7888 H   0  0  0  0  0  0  0  0  0  0  0  0
   37.0653   23.7514   42.4729 H   0  0  0  0  0  0  0  0  0  0  0  0
   36.2778   22.8836   40.2428 H   0  0  0  0  0  0  0  0  0  0  0  0
   35.8844   24.4414   38.4005 H   0  0  0  0  0  0  0  0  0  0  0  0
   34.9840   26.9452   36.7472 H   0  0  0  0  0  0  0  0  0  0  0  0
   34.1610   26.7723   38.3596 H   0  0  0  0  0  0  0  0  0  0  0  0
   33.8129   28.9138   36.8859 H   0  0  0  0  0  0  0  0  0  0  0  0
   34.0082   29.0022   38.6942 H   0  0  0  0  0  0  0  0  0  0  0  0
   36.3941   28.5459   36.0910 H   0  0  0  0  0  0  0  0  0  0  0  0
   37.4547   29.7887   36.8873 H   0  0  0  0  0  0  0  0  0  0  0  0
   37.9879   27.3423   37.3974 H   0  0  0  0  0  0  0  0  0  0  0  0
   37.7853   28.4299   38.8012 H   0  0  0  0  0  0  0  0  0  0  0  0
  1 13  1  0
  2  6  1  0
  2  3  1  0
  3  4  2  0
  5  4  1  0
  5  1  1  0
  6  5  2  0
  7  8  2  0
  8  9  1  0
  8  2  1  0
 10  9  2  0
 11 10  1  0
 12 11  2  0
 12  7  1  0
 14  1  1  0
 15 14  1  0
 16 15  2  0
 17 16  1  0
 18 19  1  0
 18 17  2  0
 19 20  2  0
 20 15  1  0
 21 19  1  0
 22 21  1  0
 23 22  1  0
 24 23  1  0
 25 24  1  0
 25 26  1  0
 26 21  1  0
  1 27  1  6
  3 28  1  0
  7 29  1  0
  9 30  1  0
 11 31  1  0
 13 32  1  0
 13 33  1  0
 13 34  1  0
 14 35  1  0
 14 36  1  0
 16 37  1  0
 17 38  1  0
 18 39  1  0
 22 40  1  0
 22 41  1  0
 23 42  1  0
 23 43  1  0
 25 44  1  0
 25 45  1  0
 26 46  1  0
 26 47  1  0
M  ISO  8  27   8  28  14  29  14  30  14  31  14  32   8  33   8  34   8
M  ISO  8  35   8  36   8  37  14  38  14  39  14  40  13  41  13  42  13
M  ISO  5  43  13  44  13  45  13  46  13  47  13
M  END
>  <minimizedAffinity>  (1) 
-6.32983255

>  <minimizedRMSD>  (1) 
0.283807307

$$$$
