
     RDKit          3D

 46 49  0  0  1  0  0  0  0  0999 V2000
   36.8700   27.7700   43.2110 C   0  0  2  0  0  0  0  0  0  0  0  0
   38.4800   30.7200   41.7980 N   0  0  0  0  0  0  0  0  0  0  0  0
   39.4860   30.1180   42.4330 C   0  0  0  0  0  0  0  0  0  0  0  0
   39.0660   28.9940   43.0200 N   0  0  0  0  0  0  0  0  0  0  0  0
   37.7290   28.8810   42.7410 C   0  0  0  0  0  0  0  0  0  0  0  0
   37.4170   29.9520   41.9970 N   0  0  0  0  0  0  0  0  0  0  0  0
   37.1980   32.0950   40.1220 C   0  0  0  0  0  0  0  0  0  0  0  0
   38.2680   31.9040   41.0120 C   0  0  0  0  0  0  0  0  0  0  0  0
   39.2320   32.9530   41.1650 C   0  0  0  0  0  0  0  0  0  0  0  0
   39.0240   34.0700   40.4190 N   0  0  0  0  0  0  0  0  0  0  0  0
   37.9960   34.2030   39.5910 C   0  0  0  0  0  0  0  0  0  0  0  0
   37.0990   33.2320   39.4460 N   0  0  0  0  0  0  0  0  0  0  0  0
   36.7480   27.9630   44.7360 C   0  0  0  0  0  0  0  0  0  0  0  0
   37.4330   26.4240   42.9350 C   0  0  0  0  0  0  0  0  0  0  0  0
   37.0200   25.8670   41.6410 C   0  0  0  0  0  0  0  0  0  0  0  0
   36.9090   24.5100   41.4200 C   0  0  0  0  0  0  0  0  0  0  0  0
   36.5080   24.1310   40.1510 C   0  0  0  0  0  0  0  0  0  0  0  0
   36.2490   25.0870   39.2090 C   0  0  0  0  0  0  0  0  0  0  0  0
   36.3630   26.4450   39.4380 C   0  0  0  0  0  0  0  0  0  0  0  0
   36.7590   26.7910   40.6930 N   0  0  0  0  0  0  0  0  0  0  0  0
   36.1000   27.4580   38.4750 N   0  0  0  0  0  0  0  0  0  0  0  0
   35.1560   27.4270   37.3560 C   0  0  0  0  0  0  0  0  0  0  0  0
   34.8040   28.9090   37.2080 C   0  0  0  0  0  0  0  0  0  0  0  0
   36.1950   29.5220   37.3390 C   0  0  0  0  0  0  0  0  0  0  0  0
   36.7800   28.7390   38.4770 C   0  0  0  0  0  0  0  0  0  0  0  0
   35.9074   27.8040   42.6797 H   0  0  0  0  0  0  0  0  0  0  0  0
   40.5189   30.4948   42.4686 H   0  0  0  0  0  0  0  0  0  0  0  0
   36.4451   31.3046   39.9862 H   0  0  0  0  0  0  0  0  0  0  0  0
   40.0904   32.8598   41.8465 H   0  0  0  0  0  0  0  0  0  0  0  0
   37.8836   35.1329   39.0142 H   0  0  0  0  0  0  0  0  0  0  0  0
   37.2670   27.1419   45.2522 H   0  0  0  0  0  0  0  0  0  0  0  0
   37.2042   28.9223   45.0218 H   0  0  0  0  0  0  0  0  0  0  0  0
   35.6858   27.9625   45.0218 H   0  0  0  0  0  0  0  0  0  0  0  0
   38.5305   26.4971   42.9475 H   0  0  0  0  0  0  0  0  0  0  0  0
   37.0492   25.7485   43.7137 H   0  0  0  0  0  0  0  0  0  0  0  0
   37.1265   23.7723   42.2065 H   0  0  0  0  0  0  0  0  0  0  0  0
   36.3982   23.0653   39.9015 H   0  0  0  0  0  0  0  0  0  0  0  0
   35.9310   24.7557   38.2094 H   0  0  0  0  0  0  0  0  0  0  0  0
   35.6280   27.0337   36.4436 H   0  0  0  0  0  0  0  0  0  0  0  0
   34.2858   26.7752   37.5231 H   0  0  0  0  0  0  0  0  0  0  0  0
   34.1296   29.2508   38.0070 H   0  0  0  0  0  0  0  0  0  0  0  0
   34.2666   29.1690   36.2841 H   0  0  0  0  0  0  0  0  0  0  0  0
   36.7800   29.3843   36.4177 H   0  0  0  0  0  0  0  0  0  0  0  0
   36.1846   30.6086   37.5097 H   0  0  0  0  0  0  0  0  0  0  0  0
   36.6066   29.2618   39.4292 H   0  0  0  0  0  0  0  0  0  0  0  0
   37.8674   28.6171   38.3640 H   0  0  0  0  0  0  0  0  0  0  0  0
  1 13  1  0
  2  6  1  0
  2  3  1  0
  3  4  2  0
  5  4  1  0
  5  1  1  0
  6  5  2  0
  7  8  2  0
  8  9  1  0
  8  2  1  0
 10  9  2  0
 11 10  1  0
 12 11  2  0
 12  7  1  0
 14  1  1  0
 15 14  1  0
 16 15  2  0
 17 16  1  0
 18 19  1  0
 18 17  2  0
 19 20  2  0
 20 15  1  0
 21 25  1  0
 21 19  1  0
 22 21  1  0
 23 24  1  0
 23 22  1  0
 24 25  1  0
  1 26  1  6
  3 27  1  0
  7 28  1  0
  9 29  1  0
 11 30  1  0
 13 31  1  0
 13 32  1  0
 13 33  1  0
 14 34  1  0
 14 35  1  0
 16 36  1  0
 17 37  1  0
 18 38  1  0
 22 39  1  0
 22 40  1  0
 23 41  1  0
 23 42  1  0
 24 43  1  0
 24 44  1  0
 25 45  1  0
 25 46  1  0
M  ISO  8  26   8  27  14  28  14  29  14  30  14  31   8  32   8  33   8
M  ISO  8  34   8  35   8  36  14  37  14  38  14  39  13  40  13  41  13
M  ISO  5  42  13  43  13  44  13  45  13  46  13
M  END
>  <minimizedAffinity>  (1) 
-6.25619698

>  <minimizedRMSD>  (1) 
0.472478896

$$$$
