
     RDKit          3D

 40 43  0  0  1  0  0  0  0  0999 V2000
   36.9570   27.7890   43.1000 C   0  0  2  0  0  0  0  0  0  0  0  0
   38.4650   30.8080   41.7160 N   0  0  0  0  0  0  0  0  0  0  0  0
   39.4880   30.2430   42.3570 C   0  0  0  0  0  0  0  0  0  0  0  0
   39.1060   29.1000   42.9360 N   0  0  0  0  0  0  0  0  0  0  0  0
   37.7780   28.9350   42.6460 C   0  0  0  0  0  0  0  0  0  0  0  0
   37.4290   30.0000   41.8990 N   0  0  0  0  0  0  0  0  0  0  0  0
   37.1710   32.1190   39.9970 C   0  0  0  0  0  0  0  0  0  0  0  0
   38.2120   31.9860   40.9320 C   0  0  0  0  0  0  0  0  0  0  0  0
   39.1020   33.0910   41.1400 C   0  0  0  0  0  0  0  0  0  0  0  0
   38.8550   34.2020   40.3950 N   0  0  0  0  0  0  0  0  0  0  0  0
   37.8460   34.2720   39.5180 C   0  0  0  0  0  0  0  0  0  0  0  0
   37.0210   33.2480   39.3240 N   0  0  0  0  0  0  0  0  0  0  0  0
   36.7590   28.0110   44.6140 C   0  0  0  0  0  0  0  0  0  0  0  0
   37.6010   26.4680   42.8850 C   0  0  0  0  0  0  0  0  0  0  0  0
   37.0950   25.7540   41.7060 C   0  0  0  0  0  0  0  0  0  0  0  0
   36.8500   24.3980   41.7100 C   0  0  0  0  0  0  0  0  0  0  0  0
   36.3730   23.8680   40.5220 C   0  0  0  0  0  0  0  0  0  0  0  0
   36.1720   24.6860   39.4330 C   0  0  0  0  0  0  0  0  0  0  0  0
   36.4240   26.0420   39.4530 C   0  0  0  0  0  0  0  0  0  0  0  0
   36.8890   26.5380   40.6240 N   0  0  0  0  0  0  0  0  0  0  0  0
   36.1960   26.8300   38.2960 N   0  0  0  0  0  0  0  0  0  0  0  0
   35.1050   26.9890   37.5400 C   0  0  0  0  0  0  0  0  0  0  0  0
   35.3810   27.8500   36.5380 N   0  0  0  0  0  0  0  0  0  0  0  0
   36.6600   28.2230   36.6820 C   0  0  0  0  0  0  0  0  0  0  0  0
   37.1490   27.5950   37.7580 N   0  0  0  0  0  0  0  0  0  0  0  0
   36.0210   27.7582   42.5230 H   0  0  0  0  0  0  0  0  0  0  0  0
   40.5052   30.6592   42.4032 H   0  0  0  0  0  0  0  0  0  0  0  0
   36.4788   31.2817   39.8243 H   0  0  0  0  0  0  0  0  0  0  0  0
   39.9338   33.0431   41.8582 H   0  0  0  0  0  0  0  0  0  0  0  0
   37.6961   35.1986   38.9445 H   0  0  0  0  0  0  0  0  0  0  0  0
   37.3893   27.3043   45.1737 H   0  0  0  0  0  0  0  0  0  0  0  0
   37.0436   29.0413   44.8738 H   0  0  0  0  0  0  0  0  0  0  0  0
   35.7030   27.8457   44.8738 H   0  0  0  0  0  0  0  0  0  0  0  0
   38.6826   26.6244   42.7596 H   0  0  0  0  0  0  0  0  0  0  0  0
   37.3678   25.8479   43.7632 H   0  0  0  0  0  0  0  0  0  0  0  0
   37.0223   23.7754   42.6004 H   0  0  0  0  0  0  0  0  0  0  0  0
   36.1546   22.7924   40.4488 H   0  0  0  0  0  0  0  0  0  0  0  0
   35.7926   24.2371   38.5032 H   0  0  0  0  0  0  0  0  0  0  0  0
   34.1360   26.4962   37.7080 H   0  0  0  0  0  0  0  0  0  0  0  0
   37.2094   28.9202   36.0324 H   0  0  0  0  0  0  0  0  0  0  0  0
  1 13  1  0
  2  6  1  0
  2  3  1  0
  3  4  2  0
  5  4  1  0
  5  1  1  0
  6  5  2  0
  7  8  2  0
  8  9  1  0
  8  2  1  0
 10  9  2  0
 11 10  1  0
 12 11  2  0
 12  7  1  0
 14  1  1  0
 15 16  2  0
 15 14  1  0
 17 16  1  0
 18 19  1  0
 18 17  2  0
 19 20  2  0
 20 15  1  0
 21 19  1  0
 22 21  1  0
 23 24  1  0
 23 22  2  0
 24 25  2  0
 25 21  1  0
  1 26  1  6
  3 27  1  0
  7 28  1  0
  9 29  1  0
 11 30  1  0
 13 31  1  0
 13 32  1  0
 13 33  1  0
 14 34  1  0
 14 35  1  0
 16 36  1  0
 17 37  1  0
 18 38  1  0
 22 39  1  0
 24 40  1  0
M  ISO  8  26   8  27  14  28  14  29  14  30  14  31   8  32   8  33   8
M  ISO  7  34   8  35   8  36  14  37  14  38  14  39  14  40  14
M  END
>  <minimizedAffinity>  (1) 
-6.040483

>  <minimizedRMSD>  (1) 
0.110357724

$$$$
