
     RDKit          3D

 41 44  0  0  1  0  0  0  0  0999 V2000
   36.9180   27.7830   43.2300 C   0  0  2  0  0  0  0  0  0  0  0  0
   38.4730   30.7470   41.7810 N   0  0  0  0  0  0  0  0  0  0  0  0
   39.4870   30.1660   42.4220 C   0  0  0  0  0  0  0  0  0  0  0  0
   39.0840   29.0420   43.0200 N   0  0  0  0  0  0  0  0  0  0  0  0
   37.7490   28.9060   42.7430 C   0  0  0  0  0  0  0  0  0  0  0  0
   37.4200   29.9650   41.9860 N   0  0  0  0  0  0  0  0  0  0  0  0
   37.1850   32.0670   40.0660 C   0  0  0  0  0  0  0  0  0  0  0  0
   38.2370   31.9180   40.9840 C   0  0  0  0  0  0  0  0  0  0  0  0
   39.1550   33.0080   41.1510 C   0  0  0  0  0  0  0  0  0  0  0  0
   38.9280   34.1030   40.4020 N   0  0  0  0  0  0  0  0  0  0  0  0
   37.9220   34.2010   39.5490 C   0  0  0  0  0  0  0  0  0  0  0  0
   37.0630   33.2000   39.3830 N   0  0  0  0  0  0  0  0  0  0  0  0
   36.7650   28.0100   44.7480 C   0  0  0  0  0  0  0  0  0  0  0  0
   37.5010   26.4380   42.9980 C   0  0  0  0  0  0  0  0  0  0  0  0
   37.0570   25.8280   41.7270 C   0  0  0  0  0  0  0  0  0  0  0  0
   36.9100   24.4670   41.5780 C   0  0  0  0  0  0  0  0  0  0  0  0
   36.4880   24.0290   40.3410 C   0  0  0  0  0  0  0  0  0  0  0  0
   36.2430   24.9360   39.3560 C   0  0  0  0  0  0  0  0  0  0  0  0
   36.3910   26.2880   39.5070 C   0  0  0  0  0  0  0  0  0  0  0  0
   36.8050   26.7110   40.7200 N   0  0  0  0  0  0  0  0  0  0  0  0
   36.1540   27.2820   38.5220 C   0  0  0  0  0  0  0  0  0  0  0  0
   35.3290   28.4510   38.6420 C   0  0  0  0  0  0  0  0  0  0  0  0
   35.2530   29.2660   37.5550 C   0  0  0  0  0  0  0  0  0  0  0  0
   35.9750   28.9300   36.3850 C   0  0  0  0  0  0  0  0  0  0  0  0
   36.8220   27.3480   36.8550 S   0  0  0  0  0  0  0  0  0  0  0  0
   35.9677   27.7830   42.6760 H   0  0  0  0  0  0  0  0  0  0  0  0
   40.5142   30.5583   42.4540 H   0  0  0  0  0  0  0  0  0  0  0  0
   36.4652   31.2494   39.9130 H   0  0  0  0  0  0  0  0  0  0  0  0
   39.9994   32.9517   41.8538 H   0  0  0  0  0  0  0  0  0  0  0  0
   37.7940   35.1259   38.9674 H   0  0  0  0  0  0  0  0  0  0  0  0
   37.2991   27.2176   45.2929 H   0  0  0  0  0  0  0  0  0  0  0  0
   37.1882   28.9891   45.0168 H   0  0  0  0  0  0  0  0  0  0  0  0
   35.6986   27.9851   45.0168 H   0  0  0  0  0  0  0  0  0  0  0  0
   38.5970   26.5295   42.9790 H   0  0  0  0  0  0  0  0  0  0  0  0
   37.1578   25.7852   43.8141 H   0  0  0  0  0  0  0  0  0  0  0  0
   37.1180   23.7675   42.4011 H   0  0  0  0  0  0  0  0  0  0  0  0
   36.3502   22.9543   40.1512 H   0  0  0  0  0  0  0  0  0  0  0  0
   35.9055   24.5592   38.3792 H   0  0  0  0  0  0  0  0  0  0  0  0
   34.7835   28.6773   39.5700 H   0  0  0  0  0  0  0  0  0  0  0  0
   34.6367   30.1767   37.5853 H   0  0  0  0  0  0  0  0  0  0  0  0
   36.0223   29.4741   35.4302 H   0  0  0  0  0  0  0  0  0  0  0  0
  1 13  1  0
  2  6  1  0
  2  3  1  0
  3  4  2  0
  5  4  1  0
  5  1  1  0
  6  5  2  0
  7  8  2  0
  8  9  1  0
  8  2  1  0
 10  9  2  0
 11 10  1  0
 12 11  2  0
 12  7  1  0
 14  1  1  0
 15 14  1  0
 16 15  2  0
 17 16  1  0
 18 19  1  0
 18 17  2  0
 19 20  2  0
 20 15  1  0
 21 22  2  0
 21 19  1  0
 23 22  1  0
 24 25  1  0
 24 23  2  0
 25 21  1  0
  1 26  1  6
  3 27  1  0
  7 28  1  0
  9 29  1  0
 11 30  1  0
 13 31  1  0
 13 32  1  0
 13 33  1  0
 14 34  1  0
 14 35  1  0
 16 36  1  0
 17 37  1  0
 18 38  1  0
 22 39  1  0
 23 40  1  0
 24 41  1  0
M  ISO  8  26   8  27  14  28  14  29  14  30  14  31   8  32   8  33   8
M  ISO  8  34   8  35   8  36  14  37  14  38  14  39  14  40  14  41  14
M  END
>  <minimizedAffinity>  (1) 
-6.00112438

>  <minimizedRMSD>  (1) 
0.424677104

$$$$
