
     RDKit          3D

 35 37  0  0  1  0  0  0  0  0999 V2000
   36.9820   27.8100   43.0810 C   0  0  2  0  0  0  0  0  0  0  0  0
   38.4520   30.8630   41.7370 N   0  0  0  0  0  0  0  0  0  0  0  0
   39.4620   30.3350   42.4290 C   0  0  0  0  0  0  0  0  0  0  0  0
   39.0910   29.1850   42.9990 N   0  0  0  0  0  0  0  0  0  0  0  0
   37.7830   28.9760   42.6510 C   0  0  0  0  0  0  0  0  0  0  0  0
   37.4350   30.0220   41.8820 N   0  0  0  0  0  0  0  0  0  0  0  0
   37.1630   32.1390   39.9860 C   0  0  0  0  0  0  0  0  0  0  0  0
   38.1950   32.0270   40.9330 C   0  0  0  0  0  0  0  0  0  0  0  0
   39.0680   33.1450   41.1340 C   0  0  0  0  0  0  0  0  0  0  0  0
   38.8250   34.2370   40.3820 N   0  0  0  0  0  0  0  0  0  0  0  0
   37.8300   34.2950   39.4920 C   0  0  0  0  0  0  0  0  0  0  0  0
   37.0160   33.2620   39.3000 N   0  0  0  0  0  0  0  0  0  0  0  0
   36.7430   28.0080   44.5920 C   0  0  0  0  0  0  0  0  0  0  0  0
   37.6530   26.5050   42.8620 C   0  0  0  0  0  0  0  0  0  0  0  0
   37.1330   25.7580   41.7120 C   0  0  0  0  0  0  0  0  0  0  0  0
   36.8580   24.4070   41.7680 C   0  0  0  0  0  0  0  0  0  0  0  0
   36.3720   23.8380   40.6090 C   0  0  0  0  0  0  0  0  0  0  0  0
   36.1900   24.6160   39.4910 C   0  0  0  0  0  0  0  0  0  0  0  0
   36.4680   25.9660   39.4470 C   0  0  0  0  0  0  0  0  0  0  0  0
   36.9460   26.5010   40.6000 N   0  0  0  0  0  0  0  0  0  0  0  0
   36.2350   26.9830   37.9980 S   0  0  0  0  0  0  0  0  0  0  0  0
   36.0582   27.7688   42.4853 H   0  0  0  0  0  0  0  0  0  0  0  0
   40.4622   30.7840   42.5183 H   0  0  0  0  0  0  0  0  0  0  0  0
   36.4784   31.2952   39.8148 H   0  0  0  0  0  0  0  0  0  0  0  0
   39.8917   33.1140   41.8623 H   0  0  0  0  0  0  0  0  0  0  0  0
   37.6818   35.2149   38.9073 H   0  0  0  0  0  0  0  0  0  0  0  0
   37.4685   27.4070   45.1598 H   0  0  0  0  0  0  0  0  0  0  0  0
   36.8680   29.0707   44.8468 H   0  0  0  0  0  0  0  0  0  0  0  0
   35.7221   27.6875   44.8468 H   0  0  0  0  0  0  0  0  0  0  0  0
   38.7253   26.6892   42.6999 H   0  0  0  0  0  0  0  0  0  0  0  0
   37.4616   25.8923   43.7553 H   0  0  0  0  0  0  0  0  0  0  0  0
   37.0170   23.8181   42.6833 H   0  0  0  0  0  0  0  0  0  0  0  0
   36.1310   22.7651   40.5799 H   0  0  0  0  0  0  0  0  0  0  0  0
   35.8012   24.1355   38.5811 H   0  0  0  0  0  0  0  0  0  0  0  0
   35.9413   28.2648   38.3822 H   0  0  0  0  0  0  0  0  0  0  0  0
  1 13  1  0
  2  6  1  0
  2  3  1  0
  3  4  2  0
  5  4  1  0
  5  1  1  0
  6  5  2  0
  7  8  2  0
  8  9  1  0
  8  2  1  0
 10  9  2  0
 11 10  1  0
 12 11  2  0
 12  7  1  0
 14  1  1  0
 15 16  2  0
 15 14  1  0
 17 16  1  0
 18 17  2  0
 19 18  1  0
 19 20  2  0
 20 15  1  0
 21 19  1  0
  1 22  1  6
  3 23  1  0
  7 24  1  0
  9 25  1  0
 11 26  1  0
 13 27  1  0
 13 28  1  0
 13 29  1  0
 14 30  1  0
 14 31  1  0
 16 32  1  0
 17 33  1  0
 18 34  1  0
 21 35  1  0
M  ISO  8  22   8  23  14  24  14  25  14  26  14  27   8  28   8  29   8
M  ISO  6  30   8  31   8  32  14  33  14  34  14  35  11
M  END
>  <minimizedAffinity>  (1) 
-5.55256462

>  <minimizedRMSD>  (1) 
0.0597304665

$$$$
