
     RDKit          3D

 37 39  0  0  1  0  0  0  0  0999 V2000
   36.9880   27.8080   43.0970 C   0  0  2  0  0  0  0  0  0  0  0  0
   38.4580   30.8620   41.7430 N   0  0  0  0  0  0  0  0  0  0  0  0
   39.4680   30.3310   42.4330 C   0  0  0  0  0  0  0  0  0  0  0  0
   39.0970   29.1810   43.0050 N   0  0  0  0  0  0  0  0  0  0  0  0
   37.7860   28.9750   42.6600 C   0  0  0  0  0  0  0  0  0  0  0  0
   37.4400   30.0200   41.8950 N   0  0  0  0  0  0  0  0  0  0  0  0
   37.1680   32.1380   39.9910 C   0  0  0  0  0  0  0  0  0  0  0  0
   38.1990   32.0240   40.9390 C   0  0  0  0  0  0  0  0  0  0  0  0
   39.0700   33.1450   41.1350 C   0  0  0  0  0  0  0  0  0  0  0  0
   38.8330   34.2350   40.3870 N   0  0  0  0  0  0  0  0  0  0  0  0
   37.8320   34.2890   39.4930 C   0  0  0  0  0  0  0  0  0  0  0  0
   37.0160   33.2570   39.3030 N   0  0  0  0  0  0  0  0  0  0  0  0
   36.7450   28.0170   44.6040 C   0  0  0  0  0  0  0  0  0  0  0  0
   37.6520   26.5030   42.8760 C   0  0  0  0  0  0  0  0  0  0  0  0
   37.1360   25.7570   41.7270 C   0  0  0  0  0  0  0  0  0  0  0  0
   36.9130   24.3960   41.7660 C   0  0  0  0  0  0  0  0  0  0  0  0
   36.4230   23.8360   40.5970 C   0  0  0  0  0  0  0  0  0  0  0  0
   36.1900   24.6270   39.4960 C   0  0  0  0  0  0  0  0  0  0  0  0
   36.4190   25.9890   39.4760 C   0  0  0  0  0  0  0  0  0  0  0  0
   36.8980   26.5160   40.6280 N   0  0  0  0  0  0  0  0  0  0  0  0
   36.1700   26.8040   38.3140 C   0  0  0  0  0  0  0  0  0  0  0  0
   35.0900   26.6430   37.6880 O   0  0  0  0  0  0  0  0  0  0  0  0
   37.1260   27.7340   37.9320 O   0  0  0  0  0  0  0  0  0  0  0  0
   36.0636   27.7601   42.5027 H   0  0  0  0  0  0  0  0  0  0  0  0
   40.4693   30.7780   42.5197 H   0  0  0  0  0  0  0  0  0  0  0  0
   36.4847   31.2930   39.8205 H   0  0  0  0  0  0  0  0  0  0  0  0
   39.8936   33.1142   41.8635 H   0  0  0  0  0  0  0  0  0  0  0  0
   37.6843   35.2071   38.9054 H   0  0  0  0  0  0  0  0  0  0  0  0
   37.4562   27.4053   45.1784 H   0  0  0  0  0  0  0  0  0  0  0  0
   36.8883   29.0784   44.8548 H   0  0  0  0  0  0  0  0  0  0  0  0
   35.7170   27.7165   44.8548 H   0  0  0  0  0  0  0  0  0  0  0  0
   38.7252   26.6841   42.7166 H   0  0  0  0  0  0  0  0  0  0  0  0
   37.4524   25.8904   43.7676 H   0  0  0  0  0  0  0  0  0  0  0  0
   37.1111   23.7950   42.6658 H   0  0  0  0  0  0  0  0  0  0  0  0
   36.2198   22.7560   40.5494 H   0  0  0  0  0  0  0  0  0  0  0  0
   35.8011   24.1501   38.5842 H   0  0  0  0  0  0  0  0  0  0  0  0
   36.9729   28.3030   37.1365 H   0  0  0  0  0  0  0  0  0  0  0  0
  1 13  1  0
  2  6  1  0
  2  3  1  0
  3  4  2  0
  5  4  1  0
  5  1  1  0
  6  5  2  0
  7  8  2  0
  8  9  1  0
  8  2  1  0
 10  9  2  0
 11 10  1  0
 12 11  2  0
 12  7  1  0
 14  1  1  0
 15 16  2  0
 15 14  1  0
 17 16  1  0
 18 17  2  0
 19 18  1  0
 19 20  2  0
 20 15  1  0
 21 19  1  0
 22 21  2  0
 23 21  1  0
  1 24  1  6
  3 25  1  0
  7 26  1  0
  9 27  1  0
 11 28  1  0
 13 29  1  0
 13 30  1  0
 13 31  1  0
 14 32  1  0
 14 33  1  0
 16 34  1  0
 17 35  1  0
 18 36  1  0
 23 37  1  0
M  ISO  8  24   8  25  14  26  14  27  14  28  14  29   8  30   8  31   8
M  ISO  6  32   8  33   8  34  14  35  14  36  14  37   3
M  END
>  <minimizedAffinity>  (1) 
-5.54901218

>  <minimizedRMSD>  (1) 
0.0962809995

$$$$
