
     RDKit          3D

 36 38  0  0  1  0  0  0  0  0999 V2000
   36.9790   27.8090   43.0980 C   0  0  2  0  0  0  0  0  0  0  0  0
   38.4530   30.8630   41.7420 N   0  0  0  0  0  0  0  0  0  0  0  0
   39.4620   30.3290   42.4310 C   0  0  0  0  0  0  0  0  0  0  0  0
   39.0910   29.1810   43.0040 N   0  0  0  0  0  0  0  0  0  0  0  0
   37.7830   28.9760   42.6620 C   0  0  0  0  0  0  0  0  0  0  0  0
   37.4380   30.0190   41.8970 N   0  0  0  0  0  0  0  0  0  0  0  0
   37.1670   32.1360   39.9950 C   0  0  0  0  0  0  0  0  0  0  0  0
   38.2010   32.0270   40.9400 C   0  0  0  0  0  0  0  0  0  0  0  0
   39.0810   33.1410   41.1390 C   0  0  0  0  0  0  0  0  0  0  0  0
   38.8290   34.2330   40.3760 N   0  0  0  0  0  0  0  0  0  0  0  0
   37.8290   34.2860   39.4870 C   0  0  0  0  0  0  0  0  0  0  0  0
   37.0130   33.2530   39.3030 N   0  0  0  0  0  0  0  0  0  0  0  0
   36.7450   28.0160   44.6090 C   0  0  0  0  0  0  0  0  0  0  0  0
   37.6510   26.5040   42.8810 C   0  0  0  0  0  0  0  0  0  0  0  0
   37.1360   25.7570   41.7260 C   0  0  0  0  0  0  0  0  0  0  0  0
   36.9180   24.3960   41.7740 C   0  0  0  0  0  0  0  0  0  0  0  0
   36.4260   23.8370   40.5940 C   0  0  0  0  0  0  0  0  0  0  0  0
   36.1950   24.6260   39.4990 C   0  0  0  0  0  0  0  0  0  0  0  0
   36.4230   25.9880   39.4800 C   0  0  0  0  0  0  0  0  0  0  0  0
   36.9000   26.5140   40.6320 N   0  0  0  0  0  0  0  0  0  0  0  0
   36.1640   26.7730   38.3000 C   0  0  0  0  0  0  0  0  0  0  0  0
   35.5080   27.8340   38.3910 O   0  0  0  0  0  0  0  0  0  0  0  0
   36.0529   27.7632   42.5062 H   0  0  0  0  0  0  0  0  0  0  0  0
   40.4644   30.7738   42.5160 H   0  0  0  0  0  0  0  0  0  0  0  0
   36.4835   31.2901   39.8300 H   0  0  0  0  0  0  0  0  0  0  0  0
   39.9076   33.1117   41.8642 H   0  0  0  0  0  0  0  0  0  0  0  0
   37.6799   35.2025   38.8973 H   0  0  0  0  0  0  0  0  0  0  0  0
   37.4501   27.3923   45.1781 H   0  0  0  0  0  0  0  0  0  0  0  0
   36.9041   29.0744   44.8631 H   0  0  0  0  0  0  0  0  0  0  0  0
   35.7140   27.7289   44.8631 H   0  0  0  0  0  0  0  0  0  0  0  0
   38.7241   26.6883   42.7244 H   0  0  0  0  0  0  0  0  0  0  0  0
   37.4550   25.8904   43.7727 H   0  0  0  0  0  0  0  0  0  0  0  0
   37.1170   23.7965   42.6745 H   0  0  0  0  0  0  0  0  0  0  0  0
   36.2227   22.7571   40.5432 H   0  0  0  0  0  0  0  0  0  0  0  0
   35.8074   24.1499   38.5863 H   0  0  0  0  0  0  0  0  0  0  0  0
   36.5420   26.4402   37.3221 H   0  0  0  0  0  0  0  0  0  0  0  0
  1 13  1  0
  2  6  1  0
  2  3  1  0
  3  4  2  0
  5  4  1  0
  5  1  1  0
  6  5  2  0
  7  8  2  0
  8  9  1  0
  8  2  1  0
 10  9  2  0
 11 10  1  0
 12 11  2  0
 12  7  1  0
 14  1  1  0
 15 16  2  0
 15 14  1  0
 17 16  1  0
 18 17  2  0
 19 18  1  0
 19 20  2  0
 20 15  1  0
 21 22  2  0
 21 19  1  0
  1 23  1  6
  3 24  1  0
  7 25  1  0
  9 26  1  0
 11 27  1  0
 13 28  1  0
 13 29  1  0
 13 30  1  0
 14 31  1  0
 14 32  1  0
 16 33  1  0
 17 34  1  0
 18 35  1  0
 21 36  1  0
M  ISO  8  23   8  24  14  25  14  26  14  27  14  28   8  29   8  30   8
M  ISO  6  31   8  32   8  33  14  34  14  35  14  36   6
M  END
>  <minimizedAffinity>  (1) 
-5.44249153

>  <minimizedRMSD>  (1) 
0.0946256146

$$$$
