
     RDKit          3D

 46 50  0  0  1  0  0  0  0  0999 V2000
   37.4580   26.4620   43.0580 C   0  0  0  0  0  0  0  0  0  0  0  0
   37.0390   25.8230   41.8190 C   0  0  0  0  0  0  0  0  0  0  0  0
   36.8530   24.4650   41.7050 C   0  0  0  0  0  0  0  0  0  0  0  0
   36.4530   24.0100   40.4570 C   0  0  0  0  0  0  0  0  0  0  0  0
   36.2670   24.9080   39.4310 C   0  0  0  0  0  0  0  0  0  0  0  0
   36.4570   26.2700   39.5570 C   0  0  0  0  0  0  0  0  0  0  0  0
   36.8490   26.6850   40.7890 N   0  0  0  0  0  0  0  0  0  0  0  0
   36.2640   27.2200   38.4800 C   0  0  0  0  0  0  0  0  0  0  0  0
   35.5930   28.3580   38.7640 N   0  0  0  0  0  0  0  0  0  0  0  0
   35.4980   29.0990   37.7240 O   0  0  0  0  0  0  0  0  0  0  0  0
   36.1030   28.4580   36.7480 C   0  0  0  0  0  0  0  0  0  0  0  0
   36.5970   27.2690   37.1930 N   0  0  0  0  0  0  0  0  0  0  0  0
   36.2390   28.9280   35.3800 C   0  0  0  0  0  0  0  0  0  0  0  0
   36.3360   30.2280   34.9350 C   0  0  0  0  0  0  0  0  0  0  0  0
   36.4510   30.2170   33.5600 C   0  0  0  0  0  0  0  0  0  0  0  0
   36.4250   28.9300   33.1870 N   0  0  0  0  0  0  0  0  0  0  0  0
   36.2980   28.1720   34.2760 N   0  0  0  0  0  0  0  0  0  0  0  0
   36.9000   27.8070   43.2710 C   0  0  2  0  0  0  0  0  0  0  0  0
   38.4710   30.7340   41.7890 N   0  0  0  0  0  0  0  0  0  0  0  0
   39.4850   30.1510   42.4130 C   0  0  0  0  0  0  0  0  0  0  0  0
   39.0840   29.0340   43.0250 N   0  0  0  0  0  0  0  0  0  0  0  0
   37.7340   28.9120   42.7690 C   0  0  0  0  0  0  0  0  0  0  0  0
   37.4150   29.9690   42.0170 N   0  0  0  0  0  0  0  0  0  0  0  0
   37.1830   32.0620   40.0770 C   0  0  0  0  0  0  0  0  0  0  0  0
   38.2320   31.9050   40.9840 C   0  0  0  0  0  0  0  0  0  0  0  0
   39.1670   32.9860   41.1530 C   0  0  0  0  0  0  0  0  0  0  0  0
   38.9680   34.0890   40.4170 N   0  0  0  0  0  0  0  0  0  0  0  0
   37.9440   34.1840   39.5590 C   0  0  0  0  0  0  0  0  0  0  0  0
   37.0770   33.1910   39.3990 N   0  0  0  0  0  0  0  0  0  0  0  0
   36.7720   28.0520   44.8020 C   0  0  0  0  0  0  0  0  0  0  0  0
   38.5550   26.5428   43.0488 H   0  0  0  0  0  0  0  0  0  0  0  0
   37.0794   25.8333   43.8774 H   0  0  0  0  0  0  0  0  0  0  0  0
   37.0118   23.7813   42.5519 H   0  0  0  0  0  0  0  0  0  0  0  0
   36.2852   22.9360   40.2883 H   0  0  0  0  0  0  0  0  0  0  0  0
   35.9483   24.5180   38.4531 H   0  0  0  0  0  0  0  0  0  0  0  0
   36.3238   31.1259   35.5703 H   0  0  0  0  0  0  0  0  0  0  0  0
   36.5454   31.0920   32.9001 H   0  0  0  0  0  0  0  0  0  0  0  0
   36.4920   28.5840   32.2192 H   0  0  0  0  0  0  0  0  0  0  0  0
   35.9474   27.8137   42.7209 H   0  0  0  0  0  0  0  0  0  0  0  0
   40.5158   30.5349   42.4250 H   0  0  0  0  0  0  0  0  0  0  0  0
   36.4518   31.2538   39.9281 H   0  0  0  0  0  0  0  0  0  0  0  0
   40.0094   32.9105   41.8563 H   0  0  0  0  0  0  0  0  0  0  0  0
   37.8182   35.1064   38.9730 H   0  0  0  0  0  0  0  0  0  0  0  0
   37.2144   27.2052   45.3471 H   0  0  0  0  0  0  0  0  0  0  0  0
   37.3016   28.9779   45.0707 H   0  0  0  0  0  0  0  0  0  0  0  0
   35.7095   28.1461   45.0707 H   0  0  0  0  0  0  0  0  0  0  0  0
  1 18  1  0
  2  1  1  0
  3  2  2  0
  4  3  1  0
  5  6  1  0
  5  4  2  0
  6  7  2  0
  7  2  1  0
  8  9  2  0
  8  6  1  0
 10  9  1  0
 11 12  2  0
 11 10  1  0
 12  8  1  0
 13 11  1  0
 14 13  1  0
 15 14  2  0
 16 15  1  0
 16 17  1  0
 17 13  2  0
 18 30  1  0
 19 23  1  0
 19 20  1  0
 20 21  2  0
 22 21  1  0
 22 18  1  0
 23 22  2  0
 24 25  2  0
 25 26  1  0
 25 19  1  0
 27 26  2  0
 28 27  1  0
 29 28  2  0
 29 24  1  0
  1 31  1  0
  1 32  1  0
  3 33  1  0
  4 34  1  0
  5 35  1  0
 14 36  1  0
 15 37  1  0
 16 38  1  0
 18 39  1  6
 20 40  1  0
 24 41  1  0
 26 42  1  0
 28 43  1  0
 30 44  1  0
 30 45  1  0
 30 46  1  0
M  ISO  8  31   8  32   8  33  14  34  14  35  14  36  14  37  14  38   9
M  ISO  8  39   8  40  14  41  14  42  14  43  14  44   8  45   8  46   8
M  END
>  <minimizedAffinity>  (1) 
-6.44162703

>  <minimizedRMSD>  (1) 
0.884235919

$$$$
