
     RDKit          3D

 53 57  0  0  1  0  0  0  0  0999 V2000
   37.7300   26.4700   42.9340 C   0  0  0  0  0  0  0  0  0  0  0  0
   37.2890   25.6840   41.7860 C   0  0  0  0  0  0  0  0  0  0  0  0
   37.3040   24.3070   41.7790 C   0  0  0  0  0  0  0  0  0  0  0  0
   36.8570   23.7030   40.6210 C   0  0  0  0  0  0  0  0  0  0  0  0
   36.4330   24.4770   39.5640 C   0  0  0  0  0  0  0  0  0  0  0  0
   36.4240   25.8570   39.5830 C   0  0  0  0  0  0  0  0  0  0  0  0
   36.8700   26.4150   40.7400 N   0  0  0  0  0  0  0  0  0  0  0  0
   35.9810   26.6800   38.4800 C   0  0  0  0  0  0  0  0  0  0  0  0
   36.7280   27.7540   38.1600 N   0  0  0  0  0  0  0  0  0  0  0  0
   36.2240   28.3880   37.1720 O   0  0  0  0  0  0  0  0  0  0  0  0
   35.1260   27.7330   36.8220 C   0  0  0  0  0  0  0  0  0  0  0  0
   34.9520   26.6540   37.6330 N   0  0  0  0  0  0  0  0  0  0  0  0
   34.2370   28.0780   35.7660 N   0  0  0  0  0  0  0  0  0  0  0  0
   33.3050   29.1830   35.8820 C   0  0  0  0  0  0  0  0  0  0  0  0
   31.9220   28.5650   35.6390 C   0  0  0  0  0  0  0  0  0  0  0  0
   31.9420   28.0750   34.2750 N   0  0  0  0  0  0  0  0  0  0  0  0
   32.8160   26.9540   34.1190 C   0  0  0  0  0  0  0  0  0  0  0  0
   34.2480   27.3160   34.5320 C   0  0  0  0  0  0  0  0  0  0  0  0
   37.0550   27.7720   43.0670 C   0  0  2  0  0  0  0  0  0  0  0  0
   38.5080   30.8090   41.6760 N   0  0  0  0  0  0  0  0  0  0  0  0
   39.5390   30.2470   42.2900 C   0  0  0  0  0  0  0  0  0  0  0  0
   39.1840   29.1050   42.8650 N   0  0  0  0  0  0  0  0  0  0  0  0
   37.8410   28.9260   42.6000 C   0  0  0  0  0  0  0  0  0  0  0  0
   37.4790   29.9880   41.8750 N   0  0  0  0  0  0  0  0  0  0  0  0
   37.1820   32.1100   39.9710 C   0  0  0  0  0  0  0  0  0  0  0  0
   38.2180   31.9850   40.9040 C   0  0  0  0  0  0  0  0  0  0  0  0
   39.0800   33.1140   41.1290 C   0  0  0  0  0  0  0  0  0  0  0  0
   38.8290   34.2240   40.4210 N   0  0  0  0  0  0  0  0  0  0  0  0
   37.8220   34.2930   39.5380 C   0  0  0  0  0  0  0  0  0  0  0  0
   37.0240   33.2540   39.3250 N   0  0  0  0  0  0  0  0  0  0  0  0
   36.7910   28.0390   44.5750 C   0  0  0  0  0  0  0  0  0  0  0  0
   38.8107   26.6498   42.8348 H   0  0  0  0  0  0  0  0  0  0  0  0
   37.4765   25.8883   43.8326 H   0  0  0  0  0  0  0  0  0  0  0  0
   37.6514   23.7234   42.6443 H   0  0  0  0  0  0  0  0  0  0  0  0
   36.8396   22.6059   40.5428 H   0  0  0  0  0  0  0  0  0  0  0  0
   36.0822   23.9674   38.6545 H   0  0  0  0  0  0  0  0  0  0  0  0
   33.3578   29.6292   36.8860 H   0  0  0  0  0  0  0  0  0  0  0  0
   33.5286   29.9882   35.1667 H   0  0  0  0  0  0  0  0  0  0  0  0
   31.7439   27.7369   36.3408 H   0  0  0  0  0  0  0  0  0  0  0  0
   31.1178   29.2995   35.7934 H   0  0  0  0  0  0  0  0  0  0  0  0
   30.9879   27.7917   34.0098 H   0  0  0  0  0  0  0  0  0  0  0  0
   32.4573   26.1270   34.7494 H   0  0  0  0  0  0  0  0  0  0  0  0
   32.8200   26.6556   33.0602 H   0  0  0  0  0  0  0  0  0  0  0  0
   34.8275   26.3929   34.6804 H   0  0  0  0  0  0  0  0  0  0  0  0
   34.7068   27.9247   33.7389 H   0  0  0  0  0  0  0  0  0  0  0  0
   36.1496   27.6933   42.4473 H   0  0  0  0  0  0  0  0  0  0  0  0
   40.5537   30.6706   42.3192 H   0  0  0  0  0  0  0  0  0  0  0  0
   36.5053   31.2648   39.7766 H   0  0  0  0  0  0  0  0  0  0  0  0
   39.9090   33.0685   41.8506 H   0  0  0  0  0  0  0  0  0  0  0  0
   37.6545   35.2265   38.9808 H   0  0  0  0  0  0  0  0  0  0  0  0
   37.4363   27.3864   45.1814 H   0  0  0  0  0  0  0  0  0  0  0  0
   37.0136   29.0913   44.8055 H   0  0  0  0  0  0  0  0  0  0  0  0
   35.7363   27.8283   44.8055 H   0  0  0  0  0  0  0  0  0  0  0  0
  1 19  1  0
  2  1  1  0
  3  2  2  0
  4  3  1  0
  5  6  1  0
  5  4  2  0
  6  7  2  0
  7  2  1  0
  8  6  1  0
  9  8  2  0
 10  9  1  0
 11 10  1  0
 11 12  2  0
 12  8  1  0
 13 14  1  0
 13 11  1  0
 15 14  1  0
 16 15  1  0
 17 16  1  0
 17 18  1  0
 18 13  1  0
 19 31  1  0
 20 24  1  0
 20 21  1  0
 21 22  2  0
 23 22  1  0
 23 19  1  0
 24 23  2  0
 25 26  2  0
 26 27  1  0
 26 20  1  0
 28 27  2  0
 29 28  1  0
 30 29  2  0
 30 25  1  0
  1 32  1  0
  1 33  1  0
  3 34  1  0
  4 35  1  0
  5 36  1  0
 14 37  1  0
 14 38  1  0
 15 39  1  0
 15 40  1  0
 16 41  1  0
 17 42  1  0
 17 43  1  0
 18 44  1  0
 18 45  1  0
 19 46  1  6
 21 47  1  0
 25 48  1  0
 27 49  1  0
 29 50  1  0
 31 51  1  0
 31 52  1  0
 31 53  1  0
M  ISO  8  32   8  33   8  34  14  35  14  36  14  37  13  38  13  39  13
M  ISO  8  40  13  41   5  42  13  43  13  44  13  45  13  46   8  47  14
M  ISO  6  48  14  49  14  50  14  51   8  52   8  53   8
M  END
>  <minimizedAffinity>  (1) 
-6.28341722

>  <minimizedRMSD>  (1) 
0.737019479

$$$$
