
     RDKit          3D

 46 50  0  0  1  0  0  0  0  0999 V2000
   36.8770   27.7630   43.1850 C   0  0  2  0  0  0  0  0  0  0  0  0
   38.4620   30.7270   41.7800 N   0  0  0  0  0  0  0  0  0  0  0  0
   39.4600   30.1460   42.4310 C   0  0  0  0  0  0  0  0  0  0  0  0
   39.0530   29.0210   43.0190 N   0  0  0  0  0  0  0  0  0  0  0  0
   37.7150   28.8830   42.7210 C   0  0  0  0  0  0  0  0  0  0  0  0
   37.4050   29.9420   41.9680 N   0  0  0  0  0  0  0  0  0  0  0  0
   37.1870   32.0650   40.0680 C   0  0  0  0  0  0  0  0  0  0  0  0
   38.2300   31.8970   40.9810 C   0  0  0  0  0  0  0  0  0  0  0  0
   39.1690   32.9740   41.1580 C   0  0  0  0  0  0  0  0  0  0  0  0
   38.9750   34.0770   40.4260 N   0  0  0  0  0  0  0  0  0  0  0  0
   37.9570   34.1870   39.5630 C   0  0  0  0  0  0  0  0  0  0  0  0
   37.0850   33.1970   39.3930 N   0  0  0  0  0  0  0  0  0  0  0  0
   36.7480   27.9620   44.7200 C   0  0  0  0  0  0  0  0  0  0  0  0
   37.4360   26.4250   42.9290 C   0  0  0  0  0  0  0  0  0  0  0  0
   37.0180   25.8370   41.6600 C   0  0  0  0  0  0  0  0  0  0  0  0
   36.8290   24.4840   41.4940 C   0  0  0  0  0  0  0  0  0  0  0  0
   36.4330   24.0780   40.2360 C   0  0  0  0  0  0  0  0  0  0  0  0
   36.2510   25.0130   39.2370 C   0  0  0  0  0  0  0  0  0  0  0  0
   36.4440   26.3670   39.4160 C   0  0  0  0  0  0  0  0  0  0  0  0
   36.8320   26.7310   40.6600 N   0  0  0  0  0  0  0  0  0  0  0  0
   36.2570   27.3540   38.3810 C   0  0  0  0  0  0  0  0  0  0  0  0
   36.8510   28.5490   38.5450 N   0  0  0  0  0  0  0  0  0  0  0  0
   36.6000   29.3270   37.5480 O   0  0  0  0  0  0  0  0  0  0  0  0
   35.8350   28.6390   36.7170 C   0  0  0  0  0  0  0  0  0  0  0  0
   35.6070   27.3960   37.2220 N   0  0  0  0  0  0  0  0  0  0  0  0
   35.3240   29.1970   35.4280 C   0  0  0  0  0  0  0  0  0  0  0  0
   36.0420   28.7370   34.1520 C   0  0  0  0  0  0  0  0  0  0  0  0
   36.1900   30.1320   34.6630 C   0  0  0  0  0  0  0  0  0  0  0  0
   35.9246   27.7856   42.6351 H   0  0  0  0  0  0  0  0  0  0  0  0
   40.4861   30.5394   42.4795 H   0  0  0  0  0  0  0  0  0  0  0  0
   36.4542   31.2598   39.9113 H   0  0  0  0  0  0  0  0  0  0  0  0
   40.0088   32.8935   41.8639 H   0  0  0  0  0  0  0  0  0  0  0  0
   37.8395   35.1144   38.9832 H   0  0  0  0  0  0  0  0  0  0  0  0
   37.2751   27.1489   45.2407 H   0  0  0  0  0  0  0  0  0  0  0  0
   37.1924   28.9275   45.0032 H   0  0  0  0  0  0  0  0  0  0  0  0
   35.6851   27.9505   45.0032 H   0  0  0  0  0  0  0  0  0  0  0  0
   38.5332   26.5034   42.9286 H   0  0  0  0  0  0  0  0  0  0  0  0
   37.0573   25.7657   43.7240 H   0  0  0  0  0  0  0  0  0  0  0  0
   36.9843   23.7688   42.3152 H   0  0  0  0  0  0  0  0  0  0  0  0
   36.2627   23.0110   40.0296 H   0  0  0  0  0  0  0  0  0  0  0  0
   35.9350   24.6592   38.2445 H   0  0  0  0  0  0  0  0  0  0  0  0
   34.2854   29.2298   35.7888 H   0  0  0  0  0  0  0  0  0  0  0  0
   35.4683   28.5419   33.2340 H   0  0  0  0  0  0  0  0  0  0  0  0
   36.7303   27.9200   33.8898 H   0  0  0  0  0  0  0  0  0  0  0  0
   37.1507   30.4565   35.0894 H   0  0  0  0  0  0  0  0  0  0  0  0
   36.0394   31.1288   34.2229 H   0  0  0  0  0  0  0  0  0  0  0  0
  1 13  1  0
  2  6  1  0
  2  3  1  0
  3  4  2  0
  5  4  1  0
  5  1  1  0
  6  5  2  0
  7  8  2  0
  8  9  1  0
  8  2  1  0
 10  9  2  0
 11 10  1  0
 12 11  2  0
 12  7  1  0
 14  1  1  0
 15 14  1  0
 16 15  2  0
 17 16  1  0
 18 19  1  0
 18 17  2  0
 19 20  2  0
 20 15  1  0
 21 22  2  0
 21 19  1  0
 23 22  1  0
 24 25  2  0
 24 23  1  0
 25 21  1  0
 26 24  1  0
 27 28  1  0
 27 26  1  0
 28 26  1  0
  1 29  1  6
  3 30  1  0
  7 31  1  0
  9 32  1  0
 11 33  1  0
 13 34  1  0
 13 35  1  0
 13 36  1  0
 14 37  1  0
 14 38  1  0
 16 39  1  0
 17 40  1  0
 18 41  1  0
 26 42  1  0
 27 43  1  0
 27 44  1  0
 28 45  1  0
 28 46  1  0
M  ISO  8  29   8  30  14  31  14  32  14  33  14  34   8  35   8  36   8
M  ISO  8  37   8  38   8  39  14  40  14  41  14  42  13  43  13  44  13
M  ISO  2  45  13  46  13
M  END
>  <minimizedAffinity>  (1) 
-6.09900475

>  <minimizedRMSD>  (1) 
0.44836387

$$$$
