
     RDKit          3D

 40 43  0  0  1  0  0  0  0  0999 V2000
   36.9550   27.8020   43.1290 C   0  0  2  0  0  0  0  0  0  0  0  0
   38.4560   30.8040   41.7090 N   0  0  0  0  0  0  0  0  0  0  0  0
   39.4760   30.2390   42.3400 C   0  0  0  0  0  0  0  0  0  0  0  0
   39.1030   29.1080   42.9270 N   0  0  0  0  0  0  0  0  0  0  0  0
   37.7590   28.9410   42.6540 C   0  0  0  0  0  0  0  0  0  0  0  0
   37.4180   29.9980   41.9120 N   0  0  0  0  0  0  0  0  0  0  0  0
   37.1720   32.1020   39.9810 C   0  0  0  0  0  0  0  0  0  0  0  0
   38.1950   31.9700   40.9220 C   0  0  0  0  0  0  0  0  0  0  0  0
   39.0710   33.0900   41.1360 C   0  0  0  0  0  0  0  0  0  0  0  0
   38.8540   34.1990   40.4140 N   0  0  0  0  0  0  0  0  0  0  0  0
   37.8470   34.2670   39.5170 C   0  0  0  0  0  0  0  0  0  0  0  0
   37.0300   33.2370   39.3120 N   0  0  0  0  0  0  0  0  0  0  0  0
   36.7860   28.0330   44.6550 C   0  0  0  0  0  0  0  0  0  0  0  0
   37.5730   26.4810   42.9200 C   0  0  0  0  0  0  0  0  0  0  0  0
   37.0970   25.7760   41.7370 C   0  0  0  0  0  0  0  0  0  0  0  0
   36.9050   24.4130   41.7090 C   0  0  0  0  0  0  0  0  0  0  0  0
   36.4490   23.8920   40.5100 C   0  0  0  0  0  0  0  0  0  0  0  0
   36.2180   24.7280   39.4420 C   0  0  0  0  0  0  0  0  0  0  0  0
   36.4150   26.0920   39.4840 C   0  0  0  0  0  0  0  0  0  0  0  0
   36.8610   26.5710   40.6720 N   0  0  0  0  0  0  0  0  0  0  0  0
   36.1740   26.9800   38.3640 C   0  0  0  0  0  0  0  0  0  0  0  0
   36.6800   28.2310   38.4430 N   0  0  0  0  0  0  0  0  0  0  0  0
   36.3950   28.9030   37.3920 O   0  0  0  0  0  0  0  0  0  0  0  0
   35.6930   28.0980   36.6040 C   0  0  0  0  0  0  0  0  0  0  0  0
   35.5420   26.8800   37.1980 N   0  0  0  0  0  0  0  0  0  0  0  0
   35.1950   28.4540   35.3700 O   0  0  0  0  0  0  0  0  0  0  0  0
   36.0143   27.7740   42.5595 H   0  0  0  0  0  0  0  0  0  0  0  0
   40.4950   30.6520   42.3728 H   0  0  0  0  0  0  0  0  0  0  0  0
   36.4841   31.2640   39.7950 H   0  0  0  0  0  0  0  0  0  0  0  0
   39.8913   33.0388   41.8671 H   0  0  0  0  0  0  0  0  0  0  0  0
   37.6989   35.1939   38.9434 H   0  0  0  0  0  0  0  0  0  0  0  0
   37.3479   27.2649   45.2066 H   0  0  0  0  0  0  0  0  0  0  0  0
   37.1700   29.0292   44.9198 H   0  0  0  0  0  0  0  0  0  0  0  0
   35.7203   27.9686   44.9198 H   0  0  0  0  0  0  0  0  0  0  0  0
   38.6598   26.6206   42.8236 H   0  0  0  0  0  0  0  0  0  0  0  0
   37.2962   25.8633   43.7871 H   0  0  0  0  0  0  0  0  0  0  0  0
   37.1017   23.7773   42.5849 H   0  0  0  0  0  0  0  0  0  0  0  0
   36.2716   22.8109   40.4114 H   0  0  0  0  0  0  0  0  0  0  0  0
   35.8562   24.2838   38.5030 H   0  0  0  0  0  0  0  0  0  0  0  0
   35.3540   29.3648   35.0160 H   0  0  0  0  0  0  0  0  0  0  0  0
  1 13  1  0
  2  6  1  0
  2  3  1  0
  3  4  2  0
  5  4  1  0
  5  1  1  0
  6  5  2  0
  7  8  2  0
  8  9  1  0
  8  2  1  0
 10  9  2  0
 11 10  1  0
 12 11  2  0
 12  7  1  0
 14  1  1  0
 15 14  1  0
 16 15  2  0
 17 16  1  0
 18 19  1  0
 18 17  2  0
 19 20  2  0
 20 15  1  0
 21 22  2  0
 21 19  1  0
 23 22  1  0
 24 25  2  0
 24 23  1  0
 25 21  1  0
 26 24  1  0
  1 27  1  6
  3 28  1  0
  7 29  1  0
  9 30  1  0
 11 31  1  0
 13 32  1  0
 13 33  1  0
 13 34  1  0
 14 35  1  0
 14 36  1  0
 16 37  1  0
 17 38  1  0
 18 39  1  0
 26 40  1  0
M  ISO  8  27   8  28  14  29  14  30  14  31  14  32   8  33   8  34   8
M  ISO  6  35   8  36   8  37  14  38  14  39  14  40   3
M  END
>  <minimizedAffinity>  (1) 
-5.9135232

>  <minimizedRMSD>  (1) 
0.0432034545

$$$$
