
     RDKit          3D

 42 44  0  0  1  0  0  0  0  0999 V2000
   39.0870   26.1410   42.3010 C   0  0  1  0  0  0  0  0  0  0  0  0
   38.8630   24.8090   41.5520 C   0  0  0  0  0  0  0  0  0  0  0  0
   37.5000   24.3430   41.9940 C   0  0  0  0  0  0  0  0  0  0  0  0
   36.8210   25.6820   42.2990 C   0  0  0  0  0  0  0  0  0  0  0  0
   37.9010   26.3110   43.1600 C   0  0  2  0  0  0  0  0  0  0  0  0
   41.9570   26.9640   44.6140 C   0  0  0  0  0  0  0  0  0  0  0  0
   40.6790   27.0430   44.0450 C   0  0  0  0  0  0  0  0  0  0  0  0
   40.3740   26.1640   42.9840 C   0  0  0  0  0  0  0  0  0  0  0  0
   41.3250   25.2810   42.5560 N   0  0  0  0  0  0  0  0  0  0  0  0
   42.5370   25.2340   43.1250 C   0  0  0  0  0  0  0  0  0  0  0  0
   42.8600   26.0650   44.1480 N   0  0  0  0  0  0  0  0  0  0  0  0
   37.4350   27.7010   43.4000 C   0  0  2  0  0  0  0  0  0  0  0  0
   36.7070   27.9350   44.6750 C   0  0  0  0  0  0  0  0  0  0  0  0
   36.5120   28.0440   42.2420 C   0  0  0  0  0  0  0  0  0  0  0  0
   37.0020   29.3440   41.6970 C   0  0  0  0  0  0  0  0  0  0  0  0
   36.2030   30.1990   40.9590 C   0  0  0  0  0  0  0  0  0  0  0  0
   36.6340   31.4050   40.4490 C   0  0  0  0  0  0  0  0  0  0  0  0
   37.9220   31.7870   40.6810 C   0  0  0  0  0  0  0  0  0  0  0  0
   38.7660   31.0000   41.3960 C   0  0  0  0  0  0  0  0  0  0  0  0
   38.3000   29.8150   41.8830 C   0  0  0  0  0  0  0  0  0  0  0  0
   39.1656   27.0084   41.6292 H   0  0  0  0  0  0  0  0  0  0  0  0
   39.6327   24.0740   41.8300 H   0  0  0  0  0  0  0  0  0  0  0  0
   38.9263   24.9308   40.4606 H   0  0  0  0  0  0  0  0  0  0  0  0
   36.9791   23.7987   41.1925 H   0  0  0  0  0  0  0  0  0  0  0  0
   37.5125   23.6372   42.8376 H   0  0  0  0  0  0  0  0  0  0  0  0
   36.6313   26.2648   41.3856 H   0  0  0  0  0  0  0  0  0  0  0  0
   35.8277   25.6110   42.7663 H   0  0  0  0  0  0  0  0  0  0  0  0
   38.1236   25.9018   44.1565 H   0  0  0  0  0  0  0  0  0  0  0  0
   42.2295   27.6342   45.4426 H   0  0  0  0  0  0  0  0  0  0  0  0
   39.9373   27.7669   44.4135 H   0  0  0  0  0  0  0  0  0  0  0  0
   43.2808   24.5116   42.7577 H   0  0  0  0  0  0  0  0  0  0  0  0
   38.3317   28.3337   43.4753 H   0  0  0  0  0  0  0  0  0  0  0  0
   37.3742   27.7205   45.5229 H   0  0  0  0  0  0  0  0  0  0  0  0
   36.3789   28.9839   44.7227 H   0  0  0  0  0  0  0  0  0  0  0  0
   35.8292   27.2737   44.7227 H   0  0  0  0  0  0  0  0  0  0  0  0
   36.5615   27.2626   41.4694 H   0  0  0  0  0  0  0  0  0  0  0  0
   35.4640   28.1134   42.5688 H   0  0  0  0  0  0  0  0  0  0  0  0
   35.1622   29.8987   40.7679 H   0  0  0  0  0  0  0  0  0  0  0  0
   35.9538   32.0449   39.8678 H   0  0  0  0  0  0  0  0  0  0  0  0
   38.2826   32.7470   40.2830 H   0  0  0  0  0  0  0  0  0  0  0  0
   39.8048   31.3121   41.5787 H   0  0  0  0  0  0  0  0  0  0  0  0
   38.9952   29.1889   42.4615 H   0  0  0  0  0  0  0  0  0  0  0  0
  1  8  1  0
  1  5  1  0
  2  3  1  0
  2  1  1  0
  3  4  1  0
  4  5  1  0
  5 12  1  0
  7  6  2  0
  8  7  1  0
  9  8  2  0
  9 10  1  0
 10 11  2  0
 11  6  1  0
 12 13  1  0
 14 12  1  0
 15 20  1  0
 15 14  1  0
 16 15  2  0
 17 18  2  0
 17 16  1  0
 18 19  1  0
 19 20  2  0
  1 21  1  6
  2 22  1  0
  2 23  1  0
  3 24  1  0
  3 25  1  0
  4 26  1  0
  4 27  1  0
  5 28  1  1
  6 29  1  0
  7 30  1  0
 10 31  1  0
 12 32  1  1
 13 33  1  0
 13 34  1  0
 13 35  1  0
 14 36  1  0
 14 37  1  0
 16 38  1  0
 17 39  1  0
 18 40  1  0
 19 41  1  0
 20 42  1  0
M  ISO  8  21  13  22  13  23  13  24  13  25  13  26  13  27  13  28  13
M  ISO  8  29  14  30  14  31  14  32   8  33   8  34   8  35   8  36   8
M  ISO  6  37   8  38  14  39  14  40  14  41  14  42  14
M  END
>  <minimizedAffinity>  (1) 
-5.67911434

>  <minimizedRMSD>  (1) 
1.50691974

$$$$
