
     RDKit          3D

 25 26  0  0  0  0  0  0  0  0999 V2000
   40.1870   25.6060   43.7900 C   0  0  0  0  0  0  0  0  0  0  0  0
   39.8020   24.4020   43.1650 C   0  0  0  0  0  0  0  0  0  0  0  0
   38.6620   24.4650   42.3480 C   0  0  0  0  0  0  0  0  0  0  0  0
   38.0100   25.6400   42.2070 N   0  0  0  0  0  0  0  0  0  0  0  0
   38.4160   26.7690   42.8270 C   0  0  0  0  0  0  0  0  0  0  0  0
   39.5000   26.7510   43.6150 N   0  0  0  0  0  0  0  0  0  0  0  0
   38.1270   23.3610   41.6410 N   0  0  0  0  0  0  0  0  0  0  0  0
   37.6910   27.9660   42.6390 N   0  0  0  0  0  0  0  0  0  0  0  0
   36.2720   28.0170   42.3760 C   0  0  0  0  0  0  0  0  0  0  0  0
   36.0790   28.8530   41.1290 C   0  0  0  0  0  0  0  0  0  0  0  0
   36.4380   30.1550   41.4080 O   0  0  0  0  0  0  0  0  0  0  0  0
   37.8160   30.1990   41.6070 C   0  0  0  0  0  0  0  0  0  0  0  0
   38.2980   29.2640   42.6900 C   0  0  0  0  0  0  0  0  0  0  0  0
   41.0747   25.6101   44.4396 H   0  0  0  0  0  0  0  0  0  0  0  0
   40.3629   23.4668   43.3093 H   0  0  0  0  0  0  0  0  0  0  0  0
   37.2857   23.4809   41.0590 H   0  0  0  0  0  0  0  0  0  0  0  0
   38.5791   22.4380   41.7087 H   0  0  0  0  0  0  0  0  0  0  0  0
   35.8819   27.0015   42.2133 H   0  0  0  0  0  0  0  0  0  0  0  0
   35.7319   28.4554   43.2281 H   0  0  0  0  0  0  0  0  0  0  0  0
   35.0238   28.8183   40.8201 H   0  0  0  0  0  0  0  0  0  0  0  0
   36.7039   28.4590   40.3140 H   0  0  0  0  0  0  0  0  0  0  0  0
   38.3129   29.9257   40.6644 H   0  0  0  0  0  0  0  0  0  0  0  0
   38.0642   31.2214   41.9280 H   0  0  0  0  0  0  0  0  0  0  0  0
   38.0706   29.7162   43.6666 H   0  0  0  0  0  0  0  0  0  0  0  0
   39.3779   29.1216   42.5365 H   0  0  0  0  0  0  0  0  0  0  0  0
  2  1  2  0
  3  2  1  0
  4  3  2  0
  4  5  1  0
  5  6  2  0
  6  1  1  0
  7  3  1  0
  8 13  1  0
  8  5  1  0
  9  8  1  0
 10 11  1  0
 10  9  1  0
 11 12  1  0
 12 13  1  0
  1 14  1  0
  2 15  1  0
  7 16  1  0
  7 17  1  0
  9 18  1  0
  9 19  1  0
 10 20  1  0
 10 21  1  0
 12 22  1  0
 12 23  1  0
 13 24  1  0
 13 25  1  0
M  ISO  8  14  14  15  14  18  13  19  13  20  13  21  13  22  13  23  13
M  ISO  2  24  13  25  13
M  END
>  <minimizedAffinity>  (1) 
-4.40252066

>  <minimizedRMSD>  (1) 
3.35993814

$$$$
