
     RDKit          3D

 26 27  0  0  0  0  0  0  0  0999 V2000
   40.0340   26.8150   43.8360 C   0  0  0  0  0  0  0  0  0  0  0  0
   39.9240   25.4410   43.5110 C   0  0  0  0  0  0  0  0  0  0  0  0
   38.9150   25.0890   42.5940 C   0  0  0  0  0  0  0  0  0  0  0  0
   38.1200   26.0730   42.0850 N   0  0  0  0  0  0  0  0  0  0  0  0
   38.2590   27.3610   42.4210 C   0  0  0  0  0  0  0  0  0  0  0  0
   39.2190   27.7320   43.3000 N   0  0  0  0  0  0  0  0  0  0  0  0
   38.6570   23.7690   42.1520 N   0  0  0  0  0  0  0  0  0  0  0  0
   37.3880   28.3280   41.8460 N   0  0  0  0  0  0  0  0  0  0  0  0
   37.9730   29.5610   41.3510 C   0  0  0  0  0  0  0  0  0  0  0  0
   36.9150   30.6220   41.3830 C   0  0  0  0  0  0  0  0  0  0  0  0
   35.7400   30.3200   40.6210 N   0  0  0  0  0  0  0  0  0  0  0  0
   35.4080   28.9210   40.5730 C   0  0  0  0  0  0  0  0  0  0  0  0
   35.9730   28.1510   41.7270 C   0  0  0  0  0  0  0  0  0  0  0  0
   40.8090   27.1371   44.5471 H   0  0  0  0  0  0  0  0  0  0  0  0
   40.5926   24.6872   43.9524 H   0  0  0  0  0  0  0  0  0  0  0  0
   37.8991   23.5906   41.4777 H   0  0  0  0  0  0  0  0  0  0  0  0
   39.2272   22.9871   42.5047 H   0  0  0  0  0  0  0  0  0  0  0  0
   38.3272   29.4182   40.3194 H   0  0  0  0  0  0  0  0  0  0  0  0
   38.8284   29.8558   41.9766 H   0  0  0  0  0  0  0  0  0  0  0  0
   36.6144   30.7744   42.4301 H   0  0  0  0  0  0  0  0  0  0  0  0
   37.3600   31.5178   40.9253 H   0  0  0  0  0  0  0  0  0  0  0  0
   34.9459   30.8257   41.0388 H   0  0  0  0  0  0  0  0  0  0  0  0
   34.3128   28.8190   40.5848 H   0  0  0  0  0  0  0  0  0  0  0  0
   35.8461   28.5078   39.6525 H   0  0  0  0  0  0  0  0  0  0  0  0
   35.4923   28.4964   42.6542 H   0  0  0  0  0  0  0  0  0  0  0  0
   35.7769   27.0828   41.5523 H   0  0  0  0  0  0  0  0  0  0  0  0
  2  1  2  0
  3  2  1  0
  4  5  1  0
  4  3  2  0
  5  6  2  0
  6  1  1  0
  7  3  1  0
  8  5  1  0
  9 10  1  0
  9  8  1  0
 11 10  1  0
 12 11  1  0
 12 13  1  0
 13  8  1  0
  1 14  1  0
  2 15  1  0
  7 16  1  0
  7 17  1  0
  9 18  1  0
  9 19  1  0
 10 20  1  0
 10 21  1  0
 11 22  1  0
 12 23  1  0
 12 24  1  0
 13 25  1  0
 13 26  1  0
M  ISO  8  14  14  15  14  18  13  19  13  20  13  21  13  22   5  23  13
M  ISO  3  24  13  25  13  26  13
M  END
>  <minimizedAffinity>  (1) 
-4.29430199

>  <minimizedRMSD>  (1) 
2.5828495

$$$$
