
     RDKit          3D

 26 28  0  0  0  0  0  0  0  0999 V2000
   37.5400   29.0200   42.9320 C   0  0  0  0  0  0  0  0  0  0  0  0
   38.1090   27.7650   43.2510 C   0  0  0  0  0  0  0  0  0  0  0  0
   38.3920   26.8950   42.1610 C   0  0  0  0  0  0  0  0  0  0  0  0
   38.0990   27.3240   40.9190 N   0  0  0  0  0  0  0  0  0  0  0  0
   37.5600   28.5170   40.6430 C   0  0  0  0  0  0  0  0  0  0  0  0
   37.2790   29.3680   41.6610 N   0  0  0  0  0  0  0  0  0  0  0  0
   38.9560   25.6200   42.3170 N   0  0  0  0  0  0  0  0  0  0  0  0
   37.2590   28.9490   39.3200 N   0  0  0  0  0  0  0  0  0  0  0  0
   36.6380   30.1300   39.0890 C   0  0  0  0  0  0  0  0  0  0  0  0
   36.4720   30.3000   37.7530 N   0  0  0  0  0  0  0  0  0  0  0  0
   36.9910   29.2150   37.1420 C   0  0  0  0  0  0  0  0  0  0  0  0
   37.1300   28.7930   35.8330 C   0  0  0  0  0  0  0  0  0  0  0  0
   36.7010   29.5180   34.8970 O   0  0  0  0  0  0  0  0  0  0  0  0
   37.7270   27.6050   35.6260 N   0  0  0  0  0  0  0  0  0  0  0  0
   38.1970   26.8020   36.5960 C   0  0  0  0  0  0  0  0  0  0  0  0
   38.7950   25.5830   36.1540 N   0  0  0  0  0  0  0  0  0  0  0  0
   38.0900   27.1640   37.9080 N   0  0  0  0  0  0  0  0  0  0  0  0
   37.4840   28.3700   38.1170 C   0  0  0  0  0  0  0  0  0  0  0  0
   37.3061   29.7264   43.7422 H   0  0  0  0  0  0  0  0  0  0  0  0
   38.3223   27.4757   44.2906 H   0  0  0  0  0  0  0  0  0  0  0  0
   39.1391   25.0332   41.4905 H   0  0  0  0  0  0  0  0  0  0  0  0
   39.1870   25.2707   43.2580 H   0  0  0  0  0  0  0  0  0  0  0  0
   36.3177   30.8415   39.8644 H   0  0  0  0  0  0  0  0  0  0  0  0
   37.8316   27.2874   34.6518 H   0  0  0  0  0  0  0  0  0  0  0  0
   39.1772   24.9180   36.8414 H   0  0  0  0  0  0  0  0  0  0  0  0
   38.8441   25.3687   35.1477 H   0  0  0  0  0  0  0  0  0  0  0  0
  1  2  2  0
  3  7  1  0
  3  2  1  0
  4  3  2  0
  5  4  1  0
  5  6  2  0
  6  1  1  0
  8  5  1  0
  9  8  1  0
 10  9  2  0
 11 10  1  0
 11 18  2  0
 12 11  1  0
 13 12  2  0
 14 12  1  0
 14 15  1  0
 15 17  2  0
 16 15  1  0
 17 18  1  0
 18  8  1  0
  1 19  1  0
  2 20  1  0
  7 21  1  0
  7 22  1  0
  9 23  1  0
 14 24  1  0
 16 25  1  0
 16 26  1  0
M  ISO  4  19  14  20  14  23  14  24   9
M  END
>  <minimizedAffinity>  (1) 
-4.2439661

>  <minimizedRMSD>  (1) 
2.93098879

$$$$
