
     RDKit          3D

 40 42  0  0  1  0  0  0  0  0999 V2000
   39.0930   26.1170   42.3100 C   0  0  1  0  0  0  0  0  0  0  0  0
   38.8470   24.7520   41.6240 C   0  0  0  0  0  0  0  0  0  0  0  0
   37.4790   24.3360   42.0280 C   0  0  0  0  0  0  0  0  0  0  0  0
   36.8220   25.6790   42.3170 C   0  0  0  0  0  0  0  0  0  0  0  0
   37.9090   26.3190   43.1640 C   0  0  2  0  0  0  0  0  0  0  0  0
   41.9430   26.9680   44.6350 C   0  0  0  0  0  0  0  0  0  0  0  0
   40.6700   27.0200   44.0500 C   0  0  0  0  0  0  0  0  0  0  0  0
   40.3780   26.1450   42.9870 C   0  0  0  0  0  0  0  0  0  0  0  0
   41.3420   25.2860   42.5710 N   0  0  0  0  0  0  0  0  0  0  0  0
   42.5550   25.2510   43.1420 C   0  0  0  0  0  0  0  0  0  0  0  0
   42.8610   26.0860   44.1720 N   0  0  0  0  0  0  0  0  0  0  0  0
   37.4530   27.7140   43.3790 C   0  0  2  0  0  0  0  0  0  0  0  0
   36.7270   27.9680   44.6530 C   0  0  0  0  0  0  0  0  0  0  0  0
   36.5330   28.0510   42.2190 C   0  0  0  0  0  0  0  0  0  0  0  0
   37.0370   29.3650   41.7150 C   0  0  0  0  0  0  0  0  0  0  0  0
   38.3580   29.7880   41.8770 C   0  0  0  0  0  0  0  0  0  0  0  0
   38.8500   30.9810   41.4370 C   0  0  0  0  0  0  0  0  0  0  0  0
   37.9980   31.8130   40.8000 N   0  0  0  0  0  0  0  0  0  0  0  0
   36.7180   31.4240   40.6350 C   0  0  0  0  0  0  0  0  0  0  0  0
   36.2430   30.2450   41.0720 N   0  0  0  0  0  0  0  0  0  0  0  0
   39.1834   26.9607   41.6100 H   0  0  0  0  0  0  0  0  0  0  0  0
   39.5879   24.0135   41.9640 H   0  0  0  0  0  0  0  0  0  0  0  0
   38.9411   24.8259   40.5305 H   0  0  0  0  0  0  0  0  0  0  0  0
   36.9644   23.8046   41.2139 H   0  0  0  0  0  0  0  0  0  0  0  0
   37.4569   23.6358   42.8761 H   0  0  0  0  0  0  0  0  0  0  0  0
   36.6323   26.2488   41.3954 H   0  0  0  0  0  0  0  0  0  0  0  0
   35.8327   25.6209   42.7943 H   0  0  0  0  0  0  0  0  0  0  0  0
   38.1314   25.9317   44.1693 H   0  0  0  0  0  0  0  0  0  0  0  0
   42.1956   27.6413   45.4674 H   0  0  0  0  0  0  0  0  0  0  0  0
   39.9140   27.7309   44.4148 H   0  0  0  0  0  0  0  0  0  0  0  0
   43.3099   24.5404   42.7742 H   0  0  0  0  0  0  0  0  0  0  0  0
   38.3542   28.3419   43.4395 H   0  0  0  0  0  0  0  0  0  0  0  0
   37.3862   27.7374   45.5029 H   0  0  0  0  0  0  0  0  0  0  0  0
   36.4257   29.0249   44.6989 H   0  0  0  0  0  0  0  0  0  0  0  0
   35.8325   27.3294   44.6989 H   0  0  0  0  0  0  0  0  0  0  0  0
   36.5978   27.2824   41.4347 H   0  0  0  0  0  0  0  0  0  0  0  0
   35.4761   28.0949   42.5209 H   0  0  0  0  0  0  0  0  0  0  0  0
   39.0512   29.1102   42.3968 H   0  0  0  0  0  0  0  0  0  0  0  0
   39.9033   31.2560   41.5952 H   0  0  0  0  0  0  0  0  0  0  0  0
   36.0275   32.1056   40.1167 H   0  0  0  0  0  0  0  0  0  0  0  0
  1  8  1  0
  1  5  1  0
  2  3  1  0
  2  1  1  0
  3  4  1  0
  4  5  1  0
  5 12  1  0
  7  6  2  0
  8  7  1  0
  9  8  2  0
  9 10  1  0
 10 11  2  0
 11  6  1  0
 12 13  1  0
 14 12  1  0
 15 16  2  0
 15 14  1  0
 17 16  1  0
 18 17  2  0
 19 18  1  0
 19 20  2  0
 20 15  1  0
  1 21  1  6
  2 22  1  0
  2 23  1  0
  3 24  1  0
  3 25  1  0
  4 26  1  0
  4 27  1  0
  5 28  1  1
  6 29  1  0
  7 30  1  0
 10 31  1  0
 12 32  1  1
 13 33  1  0
 13 34  1  0
 13 35  1  0
 14 36  1  0
 14 37  1  0
 16 38  1  0
 17 39  1  0
 19 40  1  0
M  ISO  8  21  13  22  13  23  13  24  13  25  13  26  13  27  13  28  13
M  ISO  8  29  14  30  14  31  14  32   8  33   8  34   8  35   8  36   8
M  ISO  4  37   8  38  14  39  14  40  14
M  END
>  <minimizedAffinity>  (1) 
-5.57308245

>  <minimizedRMSD>  (1) 
1.49352932

$$$$
