
     RDKit          3D

 19 20  0  0  0  0  0  0  0  0999 V2000
   39.7930   26.8840   43.7650 C   0  0  0  0  0  0  0  0  0  0  0  0
   39.6200   25.5170   43.4470 C   0  0  0  0  0  0  0  0  0  0  0  0
   38.5670   25.1730   42.5810 C   0  0  0  0  0  0  0  0  0  0  0  0
   37.7860   26.1730   42.1040 N   0  0  0  0  0  0  0  0  0  0  0  0
   37.9680   27.4650   42.4200 C   0  0  0  0  0  0  0  0  0  0  0  0
   38.9740   27.8190   43.2500 N   0  0  0  0  0  0  0  0  0  0  0  0
   38.2680   23.8620   42.1730 N   0  0  0  0  0  0  0  0  0  0  0  0
   37.1040   28.5180   41.8850 C   0  0  0  0  0  0  0  0  0  0  0  0
   37.5270   29.8330   41.8680 C   0  0  0  0  0  0  0  0  0  0  0  0
   36.4990   30.5960   41.3070 C   0  0  0  0  0  0  0  0  0  0  0  0
   35.4960   29.7200   41.0060 N   0  0  0  0  0  0  0  0  0  0  0  0
   35.8490   28.4900   41.3460 N   0  0  0  0  0  0  0  0  0  0  0  0
   40.6064   27.1863   44.4411 H   0  0  0  0  0  0  0  0  0  0  0  0
   40.2873   24.7480   43.8634 H   0  0  0  0  0  0  0  0  0  0  0  0
   37.4783   23.6887   41.5349 H   0  0  0  0  0  0  0  0  0  0  0  0
   38.8385   23.0743   42.5121 H   0  0  0  0  0  0  0  0  0  0  0  0
   38.4950   30.2103   42.2295 H   0  0  0  0  0  0  0  0  0  0  0  0
   36.4982   31.6835   41.1413 H   0  0  0  0  0  0  0  0  0  0  0  0
   34.5959   29.9783   40.5770 H   0  0  0  0  0  0  0  0  0  0  0  0
  2  1  2  0
  3  2  1  0
  4  5  1  0
  4  3  2  0
  5  6  2  0
  6  1  1  0
  7  3  1  0
  8  5  1  0
  9  8  1  0
 10  9  2  0
 11 10  1  0
 11 12  1  0
 12  8  2  0
  1 13  1  0
  2 14  1  0
  7 15  1  0
  7 16  1  0
  9 17  1  0
 10 18  1  0
 11 19  1  0
M  ISO  5  13  14  14  14  17  14  18  14  19   9
M  END
>  <minimizedAffinity>  (1) 
-4.20560312

>  <minimizedRMSD>  (1) 
2.43689728

$$$$
