
     RDKit          3D

 21 21  0  0  0  0  0  0  0  0999 V2000
   40.3880   25.7400   43.7350 C   0  0  0  0  0  0  0  0  0  0  0  0
   39.9610   24.5780   43.0580 C   0  0  0  0  0  0  0  0  0  0  0  0
   38.6840   24.6040   42.4730 C   0  0  0  0  0  0  0  0  0  0  0  0
   37.9420   25.7400   42.5930 N   0  0  0  0  0  0  0  0  0  0  0  0
   38.3900   26.8350   43.2520 C   0  0  0  0  0  0  0  0  0  0  0  0
   39.6120   26.8250   43.8190 N   0  0  0  0  0  0  0  0  0  0  0  0
   38.0970   23.5320   41.7600 N   0  0  0  0  0  0  0  0  0  0  0  0
   37.5030   28.0270   43.3300 C   0  0  0  0  0  0  0  0  0  0  0  0
   36.7400   28.0550   44.6210 C   0  0  0  0  0  0  0  0  0  0  0  0
   38.2860   29.2990   43.0940 C   0  0  0  0  0  0  0  0  0  0  0  0
   41.3827   25.7532   44.2046 H   0  0  0  0  0  0  0  0  0  0  0  0
   40.6026   23.6870   42.9909 H   0  0  0  0  0  0  0  0  0  0  0  0
   38.6141   22.6495   41.6391 H   0  0  0  0  0  0  0  0  0  0  0  0
   37.1526   23.6342   41.3618 H   0  0  0  0  0  0  0  0  0  0  0  0
   36.7564   27.9546   42.5254 H   0  0  0  0  0  0  0  0  0  0  0  0
   37.4455   28.0291   45.4645 H   0  0  0  0  0  0  0  0  0  0  0  0
   36.1404   28.9758   44.6726 H   0  0  0  0  0  0  0  0  0  0  0  0
   36.0745   27.1807   44.6726 H   0  0  0  0  0  0  0  0  0  0  0  0
   38.5607   29.7453   44.0612 H   0  0  0  0  0  0  0  0  0  0  0  0
   39.1983   29.0677   42.5246 H   0  0  0  0  0  0  0  0  0  0  0  0
   37.6686   30.0093   42.5246 H   0  0  0  0  0  0  0  0  0  0  0  0
  1  6  2  0
  2  1  1  0
  3  4  1  0
  3  2  2  0
  4  5  2  0
  5  8  1  0
  5  6  1  0
  7  3  1  0
  8  9  1  0
 10  8  1  0
  1 11  1  0
  2 12  1  0
  7 13  1  0
  7 14  1  0
  8 15  1  0
  9 16  1  0
  9 17  1  0
  9 18  1  0
 10 19  1  0
 10 20  1  0
 10 21  1  0
M  ISO  8  11  14  12  14  15   8  16   8  17   8  18   8  19   8  20   8
M  ISO  1  21   8
M  END
>  <minimizedAffinity>  (1) 
-4.01080084

>  <minimizedRMSD>  (1) 
3.71441674

$$$$
