
     RDKit          3D

 18 19  0  0  0  0  0  0  0  0999 V2000
   40.0600   26.5280   43.9430 C   0  0  0  0  0  0  0  0  0  0  0  0
   39.8710   25.1950   43.5270 C   0  0  0  0  0  0  0  0  0  0  0  0
   38.9120   24.9620   42.5270 C   0  0  0  0  0  0  0  0  0  0  0  0
   38.2260   26.0300   42.0210 N   0  0  0  0  0  0  0  0  0  0  0  0
   38.4400   27.2880   42.4500 C   0  0  0  0  0  0  0  0  0  0  0  0
   39.3530   27.5320   43.4060 N   0  0  0  0  0  0  0  0  0  0  0  0
   38.5950   23.7000   41.9950 N   0  0  0  0  0  0  0  0  0  0  0  0
   37.6470   28.3230   41.8320 N   0  0  0  0  0  0  0  0  0  0  0  0
   37.8040   29.5930   41.4150 C   0  0  0  0  0  0  0  0  0  0  0  0
   36.5920   29.9670   40.9110 N   0  0  0  0  0  0  0  0  0  0  0  0
   35.7290   28.9590   41.0160 C   0  0  0  0  0  0  0  0  0  0  0  0
   36.3880   27.9170   41.5970 N   0  0  0  0  0  0  0  0  0  0  0  0
   40.8025   26.7489   44.7239 H   0  0  0  0  0  0  0  0  0  0  0  0
   40.4507   24.3704   43.9673 H   0  0  0  0  0  0  0  0  0  0  0  0
   37.8768   23.6160   41.2615 H   0  0  0  0  0  0  0  0  0  0  0  0
   39.0809   22.8594   42.3387 H   0  0  0  0  0  0  0  0  0  0  0  0
   38.7182   30.2023   41.4691 H   0  0  0  0  0  0  0  0  0  0  0  0
   34.6774   28.9657   40.6932 H   0  0  0  0  0  0  0  0  0  0  0  0
  2  1  2  0
  3  2  1  0
  4  5  1  0
  4  3  2  0
  5  6  2  0
  6  1  1  0
  7  3  1  0
  8  5  1  0
  9  8  1  0
 10 11  1  0
 10  9  2  0
 11 12  2  0
 12  8  1  0
  1 13  1  0
  2 14  1  0
  7 15  1  0
  7 16  1  0
  9 17  1  0
 11 18  1  0
M  ISO  4  13  14  14  14  17  14  18  14
M  END
>  <minimizedAffinity>  (1) 
-3.87503052

>  <minimizedRMSD>  (1) 
2.72379994

$$$$
