
     RDKit          3D

 19 20  0  0  0  0  0  0  0  0999 V2000
   39.9700   26.7520   43.8610 C   0  0  0  0  0  0  0  0  0  0  0  0
   39.7910   25.3940   43.5110 C   0  0  0  0  0  0  0  0  0  0  0  0
   38.7560   25.0900   42.6010 C   0  0  0  0  0  0  0  0  0  0  0  0
   38.0120   26.1150   42.1290 N   0  0  0  0  0  0  0  0  0  0  0  0
   38.2060   27.3920   42.4790 C   0  0  0  0  0  0  0  0  0  0  0  0
   39.1840   27.6980   43.3410 N   0  0  0  0  0  0  0  0  0  0  0  0
   38.4460   23.7910   42.1510 N   0  0  0  0  0  0  0  0  0  0  0  0
   37.3340   28.4080   41.8990 C   0  0  0  0  0  0  0  0  0  0  0  0
   36.1800   28.2660   41.1610 C   0  0  0  0  0  0  0  0  0  0  0  0
   35.7490   29.5080   40.8590 N   0  0  0  0  0  0  0  0  0  0  0  0
   36.5850   30.4150   41.3790 C   0  0  0  0  0  0  0  0  0  0  0  0
   37.5580   29.7340   42.0170 N   0  0  0  0  0  0  0  0  0  0  0  0
   40.7644   27.0320   44.5685 H   0  0  0  0  0  0  0  0  0  0  0  0
   40.4329   24.6057   43.9312 H   0  0  0  0  0  0  0  0  0  0  0  0
   37.6740   23.6474   41.4844 H   0  0  0  0  0  0  0  0  0  0  0  0
   38.9914   22.9852   42.4887 H   0  0  0  0  0  0  0  0  0  0  0  0
   35.7005   27.3190   40.8724 H   0  0  0  0  0  0  0  0  0  0  0  0
   36.4951   31.5085   41.3006 H   0  0  0  0  0  0  0  0  0  0  0  0
   38.3508   30.1601   42.5177 H   0  0  0  0  0  0  0  0  0  0  0  0
  2  1  2  0
  3  2  1  0
  4  5  1  0
  4  3  2  0
  5  6  2  0
  6  1  1  0
  7  3  1  0
  8 12  1  0
  8  5  1  0
  9  8  2  0
 10  9  1  0
 10 11  2  0
 11 12  1  0
  1 13  1  0
  2 14  1  0
  7 15  1  0
  7 16  1  0
  9 17  1  0
 11 18  1  0
 12 19  1  0
M  ISO  5  13  14  14  14  17  14  18  14  19   9
M  END
>  <minimizedAffinity>  (1) 
-3.83912873

>  <minimizedRMSD>  (1) 
2.58030295

$$$$
