
     RDKit          3D

 19 20  0  0  0  0  0  0  0  0999 V2000
   41.2460   27.0520   43.4220 C   0  0  0  0  0  0  0  0  0  0  0  0
   41.1740   25.6430   43.3420 C   0  0  0  0  0  0  0  0  0  0  0  0
   39.8930   25.0620   43.2440 C   0  0  0  0  0  0  0  0  0  0  0  0
   38.8300   25.8820   43.2340 N   0  0  0  0  0  0  0  0  0  0  0  0
   38.9240   27.2250   43.3120 C   0  0  0  0  0  0  0  0  0  0  0  0
   40.1290   27.7980   43.4050 N   0  0  0  0  0  0  0  0  0  0  0  0
   39.6460   23.6840   43.1570 N   0  0  0  0  0  0  0  0  0  0  0  0
   37.6840   28.0470   43.2930 C   0  0  0  0  0  0  0  0  0  0  0  0
   36.6720   27.7990   42.2280 C   0  0  0  0  0  0  0  0  0  0  0  0
   36.3810   27.5150   43.7190 C   0  0  0  0  0  0  0  0  0  0  0  0
   42.2272   27.5432   43.4990 H   0  0  0  0  0  0  0  0  0  0  0  0
   42.0826   25.0231   43.3557 H   0  0  0  0  0  0  0  0  0  0  0  0
   38.6785   23.3376   43.0880 H   0  0  0  0  0  0  0  0  0  0  0  0
   40.4322   23.0185   43.1622 H   0  0  0  0  0  0  0  0  0  0  0  0
   38.2722   28.9155   43.6244 H   0  0  0  0  0  0  0  0  0  0  0  0
   36.1844   28.6426   41.7175 H   0  0  0  0  0  0  0  0  0  0  0  0
   36.6353   27.2219   41.2922 H   0  0  0  0  0  0  0  0  0  0  0  0
   36.2982   26.4785   44.0779 H   0  0  0  0  0  0  0  0  0  0  0  0
   35.6072   27.8223   44.4379 H   0  0  0  0  0  0  0  0  0  0  0  0
  2  1  2  0
  3  2  1  0
  4  3  2  0
  4  5  1  0
  5  6  2  0
  6  1  1  0
  7  3  1  0
  8  5  1  0
  8 10  1  0
  9  8  1  0
  9 10  1  0
  1 11  1  0
  2 12  1  0
  7 13  1  0
  7 14  1  0
  8 15  1  0
  9 16  1  0
  9 17  1  0
 10 18  1  0
 10 19  1  0
M  ISO  7  11  14  12  14  15  13  16  13  17  13  18  13  19  13
M  END
>  <minimizedAffinity>  (1) 
-3.75229216

>  <minimizedRMSD>  (1) 
3.63727379

$$$$
