
     RDKit          3D

 15 15  0  0  0  0  0  0  0  0999 V2000
   38.0810   28.8710   43.3800 C   0  0  0  0  0  0  0  0  0  0  0  0
   38.0770   27.4600   43.4010 C   0  0  0  0  0  0  0  0  0  0  0  0
   37.2860   26.7980   42.4460 C   0  0  0  0  0  0  0  0  0  0  0  0
   36.5770   27.5430   41.5660 N   0  0  0  0  0  0  0  0  0  0  0  0
   36.6010   28.8930   41.5720 C   0  0  0  0  0  0  0  0  0  0  0  0
   37.3530   29.5450   42.4780 N   0  0  0  0  0  0  0  0  0  0  0  0
   37.1760   25.4020   42.3360 N   0  0  0  0  0  0  0  0  0  0  0  0
   35.7850   29.6540   40.5600 C   0  0  0  0  0  0  0  0  0  0  0  0
   35.7860   30.9900   40.9760 F   0  0  0  0  0  0  0  0  0  0  0  0
   34.5170   29.1790   40.4520 F   0  0  0  0  0  0  0  0  0  0  0  0
   36.4390   29.6270   39.3490 F   0  0  0  0  0  0  0  0  0  0  0  0
   38.6881   29.4241   44.1118 H   0  0  0  0  0  0  0  0  0  0  0  0
   38.6709   26.8989   44.1375 H   0  0  0  0  0  0  0  0  0  0  0  0
   36.5750   24.9885   41.6089 H   0  0  0  0  0  0  0  0  0  0  0  0
   37.6963   24.7919   42.9825 H   0  0  0  0  0  0  0  0  0  0  0  0
  1  2  2  0
  3  2  1  0
  4  5  1  0
  4  3  2  0
  5  6  2  0
  6  1  1  0
  7  3  1  0
  8  9  1  0
  8  5  1  0
 10  8  1  0
 11  8  1  0
  1 12  1  0
  2 13  1  0
  7 14  1  0
  7 15  1  0
M  ISO  2  12  14  13  14
M  END
>  <minimizedAffinity>  (1) 
-3.73906207

>  <minimizedRMSD>  (1) 
0.315833092

$$$$
