
     RDKit          3D

 40 42  0  0  1  0  0  0  0  0999 V2000
   39.1230   26.3250   42.3910 C   0  0  1  0  0  0  0  0  0  0  0  0
   38.7840   25.0220   41.6260 C   0  0  0  0  0  0  0  0  0  0  0  0
   37.3990   24.6720   42.0340 C   0  0  0  0  0  0  0  0  0  0  0  0
   36.8300   26.0240   42.4380 C   0  0  0  0  0  0  0  0  0  0  0  0
   37.9730   26.5370   43.2830 C   0  0  2  0  0  0  0  0  0  0  0  0
   42.1030   26.8380   44.6480 C   0  0  0  0  0  0  0  0  0  0  0  0
   40.8070   27.0290   44.1500 C   0  0  0  0  0  0  0  0  0  0  0  0
   40.4300   26.2400   43.0210 C   0  0  0  0  0  0  0  0  0  0  0  0
   41.3110   25.3470   42.4760 N   0  0  0  0  0  0  0  0  0  0  0  0
   42.5550   25.2100   43.0090 C   0  0  0  0  0  0  0  0  0  0  0  0
   42.9460   25.9480   44.0850 N   0  0  0  0  0  0  0  0  0  0  0  0
   37.6250   27.9670   43.5960 C   0  0  2  0  0  0  0  0  0  0  0  0
   36.7260   28.0940   44.8090 C   0  0  0  0  0  0  0  0  0  0  0  0
   36.8870   28.4860   42.4040 C   0  0  0  0  0  0  0  0  0  0  0  0
   37.5390   29.7290   41.9150 C   0  0  0  0  0  0  0  0  0  0  0  0
   38.7880   30.2270   42.0280 C   0  0  0  0  0  0  0  0  0  0  0  0
   39.1240   31.4270   41.4400 C   0  0  0  0  0  0  0  0  0  0  0  0
   38.2370   32.1540   40.7320 N   0  0  0  0  0  0  0  0  0  0  0  0
   37.0000   31.6550   40.6230 C   0  0  0  0  0  0  0  0  0  0  0  0
   36.6680   30.4980   41.1880 N   0  0  0  0  0  0  0  0  0  0  0  0
   39.2421   27.2114   41.7507 H   0  0  0  0  0  0  0  0  0  0  0  0
   39.4819   24.2191   41.9059 H   0  0  0  0  0  0  0  0  0  0  0  0
   38.8680   25.1540   40.5372 H   0  0  0  0  0  0  0  0  0  0  0  0
   36.8348   24.2363   41.1963 H   0  0  0  0  0  0  0  0  0  0  0  0
   37.3520   23.9173   42.8328 H   0  0  0  0  0  0  0  0  0  0  0  0
   36.6443   26.6677   41.5656 H   0  0  0  0  0  0  0  0  0  0  0  0
   35.8544   25.9874   42.9448 H   0  0  0  0  0  0  0  0  0  0  0  0
   38.1816   26.0638   44.2539 H   0  0  0  0  0  0  0  0  0  0  0  0
   42.4394   27.4254   45.5150 H   0  0  0  0  0  0  0  0  0  0  0  0
   40.1141   27.7513   44.6064 H   0  0  0  0  0  0  0  0  0  0  0  0
   43.2576   24.4905   42.5632 H   0  0  0  0  0  0  0  0  0  0  0  0
   38.5463   28.5262   43.8165 H   0  0  0  0  0  0  0  0  0  0  0  0
   37.3306   28.0086   45.7240 H   0  0  0  0  0  0  0  0  0  0  0  0
   36.2230   29.0721   44.7918 H   0  0  0  0  0  0  0  0  0  0  0  0
   35.9718   27.2935   44.7918 H   0  0  0  0  0  0  0  0  0  0  0  0
   36.9001   27.7280   41.6070 H   0  0  0  0  0  0  0  0  0  0  0  0
   35.8469   28.7063   42.6862 H   0  0  0  0  0  0  0  0  0  0  0  0
   39.5466   29.6686   42.5960 H   0  0  0  0  0  0  0  0  0  0  0  0
   40.1511   31.8045   41.5522 H   0  0  0  0  0  0  0  0  0  0  0  0
   36.2421   32.2136   40.0542 H   0  0  0  0  0  0  0  0  0  0  0  0
  1  8  1  0
  1  5  1  0
  2  3  1  0
  2  1  1  0
  3  4  1  0
  4  5  1  0
  5 12  1  0
  7  6  2  0
  8  7  1  0
  9 10  1  0
  9  8  2  0
 10 11  2  0
 11  6  1  0
 12 13  1  0
 14 12  1  0
 15 16  2  0
 15 14  1  0
 17 16  1  0
 18 17  2  0
 19 18  1  0
 19 20  2  0
 20 15  1  0
  1 21  1  6
  2 22  1  0
  2 23  1  0
  3 24  1  0
  3 25  1  0
  4 26  1  0
  4 27  1  0
  5 28  1  1
  6 29  1  0
  7 30  1  0
 10 31  1  0
 12 32  1  1
 13 33  1  0
 13 34  1  0
 13 35  1  0
 14 36  1  0
 14 37  1  0
 16 38  1  0
 17 39  1  0
 19 40  1  0
M  ISO  8  21  13  22  13  23  13  24  13  25  13  26  13  27  13  28  13
M  ISO  8  29  14  30  14  31  14  32   8  33   8  34   8  35   8  36   8
M  ISO  4  37   8  38  14  39  14  40  14
M  END
>  <minimizedAffinity>  (1) 
-5.52961779

>  <minimizedRMSD>  (1) 
1.47646832

$$$$
