
     RDKit          3D

 30 31  0  0  0  0  0  0  0  0999 V2000
   38.2370   28.8130   43.3680 C   0  0  0  0  0  0  0  0  0  0  0  0
   38.1650   27.4100   43.3500 C   0  0  0  0  0  0  0  0  0  0  0  0
   37.2910   26.8240   42.4320 C   0  0  0  0  0  0  0  0  0  0  0  0
   36.5760   27.6310   41.6240 N   0  0  0  0  0  0  0  0  0  0  0  0
   36.6730   28.9790   41.6700 C   0  0  0  0  0  0  0  0  0  0  0  0
   37.5000   29.5610   42.5390 N   0  0  0  0  0  0  0  0  0  0  0  0
   37.0960   25.4170   42.2830 N   0  0  0  0  0  0  0  0  0  0  0  0
   35.8190   29.7330   40.7150 C   0  0  0  0  0  0  0  0  0  0  0  0
   36.6920   30.3760   39.7590 N   0  0  0  0  0  0  0  0  0  0  0  0
   36.8220   31.7830   39.9610 C   0  0  0  0  0  0  0  0  0  0  0  0
   37.3340   32.4070   38.6830 C   0  0  0  0  0  0  0  0  0  0  0  0
   38.2360   31.4520   37.9140 C   0  0  0  0  0  0  0  0  0  0  0  0
   37.5340   30.1600   37.5590 C   0  0  0  0  0  0  0  0  0  0  0  0
   36.2670   30.1340   38.3900 C   0  0  0  0  0  0  0  0  0  0  0  0
   38.9145   29.3075   44.0796 H   0  0  0  0  0  0  0  0  0  0  0  0
   38.7730   26.7974   44.0320 H   0  0  0  0  0  0  0  0  0  0  0  0
   36.4316   25.0606   41.5812 H   0  0  0  0  0  0  0  0  0  0  0  0
   37.6198   24.7587   42.8773 H   0  0  0  0  0  0  0  0  0  0  0  0
   35.1381   29.0427   40.1956 H   0  0  0  0  0  0  0  0  0  0  0  0
   35.2127   30.4807   41.2473 H   0  0  0  0  0  0  0  0  0  0  0  0
   35.8424   32.2129   40.2171 H   0  0  0  0  0  0  0  0  0  0  0  0
   37.5238   31.9818   40.7844 H   0  0  0  0  0  0  0  0  0  0  0  0
   36.4764   32.6762   38.0489 H   0  0  0  0  0  0  0  0  0  0  0  0
   37.9228   33.2977   38.9474 H   0  0  0  0  0  0  0  0  0  0  0  0
   38.5624   31.9439   36.9858 H   0  0  0  0  0  0  0  0  0  0  0  0
   39.0915   31.2039   38.5594 H   0  0  0  0  0  0  0  0  0  0  0  0
   37.2889   30.1398   36.4868 H   0  0  0  0  0  0  0  0  0  0  0  0
   38.1693   29.2857   37.7637 H   0  0  0  0  0  0  0  0  0  0  0  0
   35.5741   30.9213   38.0583 H   0  0  0  0  0  0  0  0  0  0  0  0
   35.7358   29.1757   38.2922 H   0  0  0  0  0  0  0  0  0  0  0  0
  2  1  2  0
  3  2  1  0
  4  5  1  0
  4  3  2  0
  5  6  2  0
  6  1  1  0
  7  3  1  0
  8  5  1  0
  9 10  1  0
  9  8  1  0
 11 10  1  0
 12 11  1  0
 13 12  1  0
 13 14  1  0
 14  9  1  0
  1 15  1  0
  2 16  1  0
  7 17  1  0
  7 18  1  0
  8 19  1  0
  8 20  1  0
 10 21  1  0
 10 22  1  0
 11 23  1  0
 11 24  1  0
 12 25  1  0
 12 26  1  0
 13 27  1  0
 13 28  1  0
 14 29  1  0
 14 30  1  0
M  ISO  8  15  14  16  14  19   8  20   8  21  13  22  13  23  13  24  13
M  ISO  6  25  13  26  13  27  13  28  13  29  13  30  13
M  END
>  <minimizedAffinity>  (1) 
-4.19189692

>  <minimizedRMSD>  (1) 
1.08825374

$$$$
