
     RDKit          3D

 22 23  0  0  0  0  0  0  0  0999 V2000
   38.1740   28.7580   43.3860 C   0  0  0  0  0  0  0  0  0  0  0  0
   38.1880   27.3440   43.3480 C   0  0  0  0  0  0  0  0  0  0  0  0
   37.3640   26.7330   42.4000 C   0  0  0  0  0  0  0  0  0  0  0  0
   36.6150   27.5030   41.5880 N   0  0  0  0  0  0  0  0  0  0  0  0
   36.6340   28.8520   41.6590 C   0  0  0  0  0  0  0  0  0  0  0  0
   37.4200   29.4800   42.5660 N   0  0  0  0  0  0  0  0  0  0  0  0
   37.2510   25.3230   42.2190 N   0  0  0  0  0  0  0  0  0  0  0  0
   35.7600   29.5880   40.7040 C   0  0  0  0  0  0  0  0  0  0  0  0
   36.4050   30.4440   39.7810 C   0  0  0  0  0  0  0  0  0  0  0  0
   36.8760   31.8300   39.9840 C   0  0  0  0  0  0  0  0  0  0  0  0
   37.4690   32.4190   38.9040 C   0  0  0  0  0  0  0  0  0  0  0  0
   37.5980   31.7070   37.6940 C   0  0  0  0  0  0  0  0  0  0  0  0
   36.8410   30.0830   38.0650 S   0  0  0  0  0  0  0  0  0  0  0  0
   38.8090   29.2765   44.1194 H   0  0  0  0  0  0  0  0  0  0  0  0
   38.8169   26.7546   44.0314 H   0  0  0  0  0  0  0  0  0  0  0  0
   36.6207   24.9453   41.4973 H   0  0  0  0  0  0  0  0  0  0  0  0
   37.7997   24.6823   42.8100 H   0  0  0  0  0  0  0  0  0  0  0  0
   35.1945   28.8416   40.1269 H   0  0  0  0  0  0  0  0  0  0  0  0
   35.1431   30.2503   41.3292 H   0  0  0  0  0  0  0  0  0  0  0  0
   36.7565   32.3538   40.9439 H   0  0  0  0  0  0  0  0  0  0  0  0
   37.8462   33.4496   38.9782 H   0  0  0  0  0  0  0  0  0  0  0  0
   38.0477   32.0475   36.7496 H   0  0  0  0  0  0  0  0  0  0  0  0
  2  1  2  0
  3  2  1  0
  4  5  1  0
  4  3  2  0
  5  6  2  0
  6  1  1  0
  7  3  1  0
  8  5  1  0
  9 10  2  0
  9  8  1  0
 11 10  1  0
 12 13  1  0
 12 11  2  0
 13  9  1  0
  1 14  1  0
  2 15  1  0
  7 16  1  0
  7 17  1  0
  8 18  1  0
  8 19  1  0
 10 20  1  0
 11 21  1  0
 12 22  1  0
M  ISO  7  14  14  15  14  18   8  19   8  20  14  21  14  22  14
M  END
>  <minimizedAffinity>  (1) 
-4.11517096

>  <minimizedRMSD>  (1) 
1.32158768

$$$$
