
     RDKit          3D

 21 22  0  0  0  0  0  0  0  0999 V2000
   38.2050   28.9920   43.2760 C   0  0  0  0  0  0  0  0  0  0  0  0
   38.1440   27.5740   43.2960 C   0  0  0  0  0  0  0  0  0  0  0  0
   37.2670   26.9510   42.4020 C   0  0  0  0  0  0  0  0  0  0  0  0
   36.5270   27.7250   41.5690 N   0  0  0  0  0  0  0  0  0  0  0  0
   36.6130   29.0790   41.5790 C   0  0  0  0  0  0  0  0  0  0  0  0
   37.4430   29.6920   42.4240 N   0  0  0  0  0  0  0  0  0  0  0  0
   37.1010   25.5500   42.3090 N   0  0  0  0  0  0  0  0  0  0  0  0
   35.7400   29.7880   40.6090 C   0  0  0  0  0  0  0  0  0  0  0  0
   36.4860   30.6520   39.6700 C   0  0  0  0  0  0  0  0  0  0  0  0
   36.9670   30.1250   38.3300 C   0  0  0  0  0  0  0  0  0  0  0  0
   37.7780   31.5560   37.6450 S   0  0  0  0  0  0  0  0  0  0  0  0
   37.3900   32.6350   39.1710 C   0  0  0  0  0  0  0  0  0  0  0  0
   36.7660   31.9090   39.9530 N   0  0  0  0  0  0  0  0  0  0  0  0
   38.8819   29.5197   43.9640 H   0  0  0  0  0  0  0  0  0  0  0  0
   38.7638   26.9865   43.9893 H   0  0  0  0  0  0  0  0  0  0  0  0
   36.4374   25.1541   41.6280 H   0  0  0  0  0  0  0  0  0  0  0  0
   37.6437   24.9253   42.9222 H   0  0  0  0  0  0  0  0  0  0  0  0
   35.1849   29.0379   40.0266 H   0  0  0  0  0  0  0  0  0  0  0  0
   35.0722   30.4409   41.1902 H   0  0  0  0  0  0  0  0  0  0  0  0
   36.8463   29.1217   37.8954 H   0  0  0  0  0  0  0  0  0  0  0  0
   37.6657   33.6889   39.3235 H   0  0  0  0  0  0  0  0  0  0  0  0
  1  2  2  0
  3  2  1  0
  4  5  1  0
  4  3  2  0
  5  6  2  0
  6  1  1  0
  7  3  1  0
  8  5  1  0
  9 13  1  0
  9  8  1  0
 10  9  2  0
 11 10  1  0
 11 12  1  0
 12 13  2  0
  1 14  1  0
  2 15  1  0
  7 16  1  0
  7 17  1  0
  8 18  1  0
  8 19  1  0
 10 20  1  0
 12 21  1  0
M  ISO  6  14  14  15  14  18   8  19   8  20  14  21  14
M  END
>  <minimizedAffinity>  (1) 
-3.94295597

>  <minimizedRMSD>  (1) 
1.10550988

$$$$
