
     RDKit          3D

 22 23  0  0  0  0  0  0  0  0999 V2000
   38.1810   29.0360   43.2100 C   0  0  0  0  0  0  0  0  0  0  0  0
   38.1750   27.6170   43.2610 C   0  0  0  0  0  0  0  0  0  0  0  0
   37.2810   26.9550   42.3880 C   0  0  0  0  0  0  0  0  0  0  0  0
   36.5110   27.7080   41.5830 N   0  0  0  0  0  0  0  0  0  0  0  0
   36.5490   29.0500   41.5650 C   0  0  0  0  0  0  0  0  0  0  0  0
   37.3860   29.7030   42.3820 N   0  0  0  0  0  0  0  0  0  0  0  0
   37.1460   25.5510   42.3090 N   0  0  0  0  0  0  0  0  0  0  0  0
   35.6330   29.7500   40.6170 C   0  0  0  0  0  0  0  0  0  0  0  0
   36.3920   30.6590   39.7630 N   0  0  0  0  0  0  0  0  0  0  0  0
   36.7890   31.8870   39.9480 N   0  0  0  0  0  0  0  0  0  0  0  0
   37.4710   32.3570   38.8880 C   0  0  0  0  0  0  0  0  0  0  0  0
   37.5070   31.3360   37.9500 C   0  0  0  0  0  0  0  0  0  0  0  0
   36.8230   30.2810   38.5250 C   0  0  0  0  0  0  0  0  0  0  0  0
   38.8594   29.5950   43.8712 H   0  0  0  0  0  0  0  0  0  0  0  0
   38.8327   27.0607   43.9451 H   0  0  0  0  0  0  0  0  0  0  0  0
   36.4736   25.1346   41.6491 H   0  0  0  0  0  0  0  0  0  0  0  0
   37.7199   24.9437   42.9113 H   0  0  0  0  0  0  0  0  0  0  0  0
   35.1201   29.0055   39.9904 H   0  0  0  0  0  0  0  0  0  0  0  0
   34.8948   30.3288   41.1916 H   0  0  0  0  0  0  0  0  0  0  0  0
   37.9147   33.3583   38.7850 H   0  0  0  0  0  0  0  0  0  0  0  0
   37.9802   31.3605   36.9573 H   0  0  0  0  0  0  0  0  0  0  0  0
   36.6541   29.2983   38.0606 H   0  0  0  0  0  0  0  0  0  0  0  0
  1  2  2  0
  3  2  1  0
  4  3  2  0
  5  4  1  0
  5  6  2  0
  6  1  1  0
  7  3  1  0
  8  5  1  0
  9 10  1  0
  9  8  1  0
 11 10  2  0
 12 13  2  0
 12 11  1  0
 13  9  1  0
  1 14  1  0
  2 15  1  0
  7 16  1  0
  7 17  1  0
  8 18  1  0
  8 19  1  0
 11 20  1  0
 12 21  1  0
 13 22  1  0
M  ISO  7  14  14  15  14  18   8  19   8  20  14  21  14  22  14
M  END
>  <minimizedAffinity>  (1) 
-3.91920471

>  <minimizedRMSD>  (1) 
1.04170239

$$$$
