
     RDKit          3D

 16 16  0  0  0  0  0  0  0  0999 V2000
   38.3860   28.7900   43.3450 C   0  0  0  0  0  0  0  0  0  0  0  0
   38.2450   27.3850   43.3420 C   0  0  0  0  0  0  0  0  0  0  0  0
   37.3050   26.8490   42.4580 C   0  0  0  0  0  0  0  0  0  0  0  0
   36.5960   27.6780   41.6690 N   0  0  0  0  0  0  0  0  0  0  0  0
   36.7680   29.0230   41.7090 C   0  0  0  0  0  0  0  0  0  0  0  0
   37.6590   29.5590   42.5460 N   0  0  0  0  0  0  0  0  0  0  0  0
   37.0280   25.4690   42.3170 N   0  0  0  0  0  0  0  0  0  0  0  0
   35.9220   29.8290   40.7880 C   0  0  0  0  0  0  0  0  0  0  0  0
   35.5870   31.0600   41.3900 O   0  0  0  0  0  0  0  0  0  0  0  0
   39.1144   29.2565   44.0246 H   0  0  0  0  0  0  0  0  0  0  0  0
   38.8460   26.7436   44.0034 H   0  0  0  0  0  0  0  0  0  0  0  0
   36.3183   25.1526   41.6409 H   0  0  0  0  0  0  0  0  0  0  0  0
   37.5360   24.7805   42.8904 H   0  0  0  0  0  0  0  0  0  0  0  0
   35.0007   29.2729   40.5599 H   0  0  0  0  0  0  0  0  0  0  0  0
   36.4819   30.0221   39.8610 H   0  0  0  0  0  0  0  0  0  0  0  0
   35.6132   30.9636   42.3749 H   0  0  0  0  0  0  0  0  0  0  0  0
  2  1  2  0
  3  2  1  0
  4  5  1  0
  4  3  2  0
  5  6  2  0
  6  1  1  0
  7  3  1  0
  8  9  1  0
  8  5  1  0
  1 10  1  0
  2 11  1  0
  7 12  1  0
  7 13  1  0
  8 14  1  0
  8 15  1  0
  9 16  1  0
M  ISO  5  10  14  11  14  14   8  15   8  16   3
M  END
>  <minimizedAffinity>  (1) 
-3.72183943

>  <minimizedRMSD>  (1) 
0.561881602

$$$$
