
     RDKit          3D

 39 41  0  0  1  0  0  0  0  0999 V2000
   39.1850   26.0140   42.2550 C   0  0  1  0  0  0  0  0  0  0  0  0
   38.9670   24.6060   41.6480 C   0  0  0  0  0  0  0  0  0  0  0  0
   37.5810   24.2190   42.0210 C   0  0  0  0  0  0  0  0  0  0  0  0
   36.9140   25.5820   42.1910 C   0  0  0  0  0  0  0  0  0  0  0  0
   37.9690   26.2620   43.0500 C   0  0  2  0  0  0  0  0  0  0  0  0
   41.9230   26.9660   44.6730 C   0  0  0  0  0  0  0  0  0  0  0  0
   40.6700   26.9760   44.0550 C   0  0  0  0  0  0  0  0  0  0  0  0
   40.4440   26.0920   42.9750 C   0  0  0  0  0  0  0  0  0  0  0  0
   41.4510   25.2690   42.5840 N   0  0  0  0  0  0  0  0  0  0  0  0
   42.6470   25.2780   43.1980 C   0  0  0  0  0  0  0  0  0  0  0  0
   42.8850   26.1230   44.2390 N   0  0  0  0  0  0  0  0  0  0  0  0
   37.5110   27.6670   43.1560 C   0  0  2  0  0  0  0  0  0  0  0  0
   36.8600   28.0520   44.4340 C   0  0  0  0  0  0  0  0  0  0  0  0
   36.5030   27.8750   42.0390 C   0  0  0  0  0  0  0  0  0  0  0  0
   36.8560   29.2540   41.5360 C   0  0  0  0  0  0  0  0  0  0  0  0
   36.0520   30.2090   40.9310 C   0  0  0  0  0  0  0  0  0  0  0  0
   36.8150   31.3200   40.6430 C   0  0  0  0  0  0  0  0  0  0  0  0
   38.0700   31.0010   41.0860 C   0  0  0  0  0  0  0  0  0  0  0  0
   38.0390   29.8120   41.5870 O   0  0  0  0  0  0  0  0  0  0  0  0
   39.3001   26.8127   41.5074 H   0  0  0  0  0  0  0  0  0  0  0  0
   39.6909   23.8913   42.0666 H   0  0  0  0  0  0  0  0  0  0  0  0
   39.1093   24.6070   40.5572 H   0  0  0  0  0  0  0  0  0  0  0  0
   37.0998   23.6338   41.2236 H   0  0  0  0  0  0  0  0  0  0  0  0
   37.5211   23.5783   42.9131 H   0  0  0  0  0  0  0  0  0  0  0  0
   36.7738   26.0949   41.2280 H   0  0  0  0  0  0  0  0  0  0  0  0
   35.9003   25.5611   42.6175 H   0  0  0  0  0  0  0  0  0  0  0  0
   38.1468   25.9289   44.0832 H   0  0  0  0  0  0  0  0  0  0  0  0
   42.1263   27.6454   45.5139 H   0  0  0  0  0  0  0  0  0  0  0  0
   39.8775   27.6560   44.4008 H   0  0  0  0  0  0  0  0  0  0  0  0
   43.4403   24.5968   42.8565 H   0  0  0  0  0  0  0  0  0  0  0  0
   38.4123   28.2946   43.0950 H   0  0  0  0  0  0  0  0  0  0  0  0
   37.4675   27.6927   45.2777 H   0  0  0  0  0  0  0  0  0  0  0  0
   36.7723   29.1473   44.4855 H   0  0  0  0  0  0  0  0  0  0  0  0
   35.8580   27.6012   44.4855 H   0  0  0  0  0  0  0  0  0  0  0  0
   36.6239   27.1200   41.2482 H   0  0  0  0  0  0  0  0  0  0  0  0
   35.4574   27.7815   42.3677 H   0  0  0  0  0  0  0  0  0  0  0  0
   34.9790   30.0975   40.7159 H   0  0  0  0  0  0  0  0  0  0  0  0
   36.4882   32.2547   40.1639 H   0  0  0  0  0  0  0  0  0  0  0  0
   38.9565   31.6493   41.0252 H   0  0  0  0  0  0  0  0  0  0  0  0
  1  8  1  0
  1  5  1  0
  2  3  1  0
  2  1  1  0
  3  4  1  0
  4  5  1  0
  5 12  1  0
  7  6  2  0
  8  7  1  0
  9  8  2  0
  9 10  1  0
 10 11  2  0
 11  6  1  0
 12 13  1  0
 14 12  1  0
 15 19  1  0
 15 14  1  0
 16 15  2  0
 17 16  1  0
 17 18  2  0
 18 19  1  0
  1 20  1  6
  2 21  1  0
  2 22  1  0
  3 23  1  0
  3 24  1  0
  4 25  1  0
  4 26  1  0
  5 27  1  1
  6 28  1  0
  7 29  1  0
 10 30  1  0
 12 31  1  6
 13 32  1  0
 13 33  1  0
 13 34  1  0
 14 35  1  0
 14 36  1  0
 16 37  1  0
 17 38  1  0
 18 39  1  0
M  ISO  8  20  13  21  13  22  13  23  13  24  13  25  13  26  13  27  13
M  ISO  8  28  14  29  14  30  14  31   8  32   8  33   8  34   8  35   8
M  ISO  4  36   8  37  14  38  14  39  14
M  END
>  <minimizedAffinity>  (1) 
-5.43454409

>  <minimizedRMSD>  (1) 
1.04427707

$$$$
