
     RDKit          3D

 36 39  0  0  0  0  0  0  0  0999 V2000
   38.0170   30.7110   40.1190 C   0  0  0  0  0  0  0  0  0  0  0  0
   36.8620   30.0100   39.8560 C   0  0  0  0  0  0  0  0  0  0  0  0
   36.4050   29.9970   38.5530 C   0  0  0  0  0  0  0  0  0  0  0  0
   37.0420   30.6430   37.5100 C   0  0  0  0  0  0  0  0  0  0  0  0
   38.2040   31.3430   37.7990 C   0  0  0  0  0  0  0  0  0  0  0  0
   38.6750   31.3680   39.0980 C   0  0  0  0  0  0  0  0  0  0  0  0
   39.8760   32.1160   39.2790 N   0  0  0  0  0  0  0  0  0  0  0  0
   41.2000   31.8890   39.1830 C   0  0  0  0  0  0  0  0  0  0  0  0
   41.8780   33.0010   39.4790 N   0  0  0  0  0  0  0  0  0  0  0  0
   41.0210   33.9750   39.7750 C   0  0  0  0  0  0  0  0  0  0  0  0
   41.2700   35.2770   40.1360 C   0  0  0  0  0  0  0  0  0  0  0  0
   40.2030   36.0630   40.3840 N   0  0  0  0  0  0  0  0  0  0  0  0
   38.9630   35.5540   40.2710 C   0  0  0  0  0  0  0  0  0  0  0  0
   38.7340   34.2790   39.9170 N   0  0  0  0  0  0  0  0  0  0  0  0
   39.7600   33.4190   39.6500 C   0  0  0  0  0  0  0  0  0  0  0  0
   38.5710   30.7740   41.4870 C   0  0  0  0  0  0  0  0  0  0  0  0
   39.1180   27.2690   42.5750 C   0  0  0  0  0  0  0  0  0  0  0  0
   38.2080   27.1480   43.6310 C   0  0  0  0  0  0  0  0  0  0  0  0
   37.4350   28.2590   43.9450 C   0  0  0  0  0  0  0  0  0  0  0  0
   37.5930   29.3870   43.2280 N   0  0  0  0  0  0  0  0  0  0  0  0
   38.4900   29.4670   42.2060 C   0  0  0  0  0  0  0  0  0  0  0  0
   39.2310   28.4080   41.9020 N   0  0  0  0  0  0  0  0  0  0  0  0
   36.4780   28.2970   44.9760 N   0  0  0  0  0  0  0  0  0  0  0  0
   36.3227   29.4795   40.6546 H   0  0  0  0  0  0  0  0  0  0  0  0
   35.4818   29.4411   38.3325 H   0  0  0  0  0  0  0  0  0  0  0  0
   36.6412   30.6033   36.4864 H   0  0  0  0  0  0  0  0  0  0  0  0
   38.7455   31.8732   37.0018 H   0  0  0  0  0  0  0  0  0  0  0  0
   41.6562   30.9284   38.9019 H   0  0  0  0  0  0  0  0  0  0  0  0
   42.2970   35.6621   40.2192 H   0  0  0  0  0  0  0  0  0  0  0  0
   38.1027   36.2079   40.4767 H   0  0  0  0  0  0  0  0  0  0  0  0
   39.6269   31.0759   41.4248 H   0  0  0  0  0  0  0  0  0  0  0  0
   37.9709   31.5011   42.0538 H   0  0  0  0  0  0  0  0  0  0  0  0
   39.7474   26.4101   42.2990 H   0  0  0  0  0  0  0  0  0  0  0  0
   38.1082   26.2073   44.1923 H   0  0  0  0  0  0  0  0  0  0  0  0
   35.9420   29.1592   45.1496 H   0  0  0  0  0  0  0  0  0  0  0  0
   36.3135   27.4626   45.5570 H   0  0  0  0  0  0  0  0  0  0  0  0
  1 16  1  0
  2  1  2  0
  3  2  1  0
  4  5  1  0
  4  3  2  0
  5  6  2  0
  6  7  1  0
  6  1  1  0
  7 15  1  0
  8  7  1  0
  8  9  2  0
  9 10  1  0
 10 11  2  0
 11 12  1  0
 13 12  2  0
 14 13  1  0
 15 10  1  0
 15 14  2  0
 16 21  1  0
 17 18  2  0
 18 19  1  0
 19 23  1  0
 20 19  2  0
 21 20  1  0
 22 21  2  0
 22 17  1  0
  2 24  1  0
  3 25  1  0
  4 26  1  0
  5 27  1  0
  8 28  1  0
 11 29  1  0
 13 30  1  0
 16 31  1  0
 16 32  1  0
 17 33  1  0
 18 34  1  0
 23 35  1  0
 23 36  1  0
M  ISO  8  24  14  25  14  26  14  27  14  28  14  29  14  30  14  31   8
M  ISO  3  32   8  33  14  34  14
M  END
>  <minimizedAffinity>  (1) 
-6.29289532

>  <minimizedRMSD>  (1) 
5.90231323

$$$$
