
     RDKit          3D

 35 37  0  0  0  0  0  0  0  0999 V2000
   36.4420   30.6050   39.7530 C   0  0  0  0  0  0  0  0  0  0  0  0
   37.1170   31.7990   39.9320 C   0  0  0  0  0  0  0  0  0  0  0  0
   37.7500   32.3790   38.8550 C   0  0  0  0  0  0  0  0  0  0  0  0
   37.7450   31.8260   37.5990 C   0  0  0  0  0  0  0  0  0  0  0  0
   37.0630   30.6260   37.4300 C   0  0  0  0  0  0  0  0  0  0  0  0
   36.4100   30.0150   38.5090 C   0  0  0  0  0  0  0  0  0  0  0  0
   35.7440   28.7920   38.0870 C   0  0  0  0  0  0  0  0  0  0  0  0
   34.4690   28.9670   37.5330 C   0  0  0  0  0  0  0  0  0  0  0  0
   33.6470   27.9560   37.0810 C   0  0  0  0  0  0  0  0  0  0  0  0
   34.1070   26.6580   37.1760 C   0  0  0  0  0  0  0  0  0  0  0  0
   35.3560   26.4460   37.7170 C   0  0  0  0  0  0  0  0  0  0  0  0
   36.1520   27.4790   38.1590 C   0  0  0  0  0  0  0  0  0  0  0  0
   35.7670   29.9410   40.8770 C   0  0  0  0  0  0  0  0  0  0  0  0
   38.4660   28.8880   43.2030 C   0  0  0  0  0  0  0  0  0  0  0  0
   38.3210   27.4790   43.2110 C   0  0  0  0  0  0  0  0  0  0  0  0
   37.3070   26.9490   42.4190 C   0  0  0  0  0  0  0  0  0  0  0  0
   36.5500   27.7990   41.7150 N   0  0  0  0  0  0  0  0  0  0  0  0
   36.7070   29.1340   41.7250 C   0  0  0  0  0  0  0  0  0  0  0  0
   37.6790   29.6640   42.4800 N   0  0  0  0  0  0  0  0  0  0  0  0
   37.0170   25.5730   42.3040 N   0  0  0  0  0  0  0  0  0  0  0  0
   37.1478   32.2789   40.9213 H   0  0  0  0  0  0  0  0  0  0  0  0
   38.2837   33.3285   39.0085 H   0  0  0  0  0  0  0  0  0  0  0  0
   38.2606   32.3132   36.7583 H   0  0  0  0  0  0  0  0  0  0  0  0
   37.0358   30.1510   36.4382 H   0  0  0  0  0  0  0  0  0  0  0  0
   34.0920   29.9972   37.4518 H   0  0  0  0  0  0  0  0  0  0  0  0
   32.6559   28.1771   36.6581 H   0  0  0  0  0  0  0  0  0  0  0  0
   33.4921   25.8147   36.8287 H   0  0  0  0  0  0  0  0  0  0  0  0
   35.7307   25.4150   37.7988 H   0  0  0  0  0  0  0  0  0  0  0  0
   37.1413   27.2488   38.5813 H   0  0  0  0  0  0  0  0  0  0  0  0
   35.2962   30.7094   41.5078 H   0  0  0  0  0  0  0  0  0  0  0  0
   35.0240   29.2484   40.4549 H   0  0  0  0  0  0  0  0  0  0  0  0
   39.2553   29.3483   43.8155 H   0  0  0  0  0  0  0  0  0  0  0  0
   38.9780   26.8350   43.8140 H   0  0  0  0  0  0  0  0  0  0  0  0
   36.2480   25.2578   41.6955 H   0  0  0  0  0  0  0  0  0  0  0  0
   37.5743   24.8836   42.8286 H   0  0  0  0  0  0  0  0  0  0  0  0
  1  2  2  0
  1 13  1  0
  3  2  1  0
  4  3  2  0
  5  4  1  0
  5  6  2  0
  6  1  1  0
  7 12  1  0
  7  6  1  0
  8  7  2  0
  9 10  2  0
  9  8  1  0
 10 11  1  0
 11 12  2  0
 13 18  1  0
 14 15  2  0
 16 15  1  0
 17 18  1  0
 17 16  2  0
 18 19  2  0
 19 14  1  0
 20 16  1  0
  2 21  1  0
  3 22  1  0
  4 23  1  0
  5 24  1  0
  8 25  1  0
  9 26  1  0
 10 27  1  0
 11 28  1  0
 12 29  1  0
 13 30  1  0
 13 31  1  0
 14 32  1  0
 15 33  1  0
 20 34  1  0
 20 35  1  0
M  ISO  8  21  14  22  14  23  14  24  14  25  14  26  14  27  14  28  14
M  ISO  5  29  14  30   8  31   8  32  14  33  14
M  END
>  <minimizedAffinity>  (1) 
-5.63830376

>  <minimizedRMSD>  (1) 
0.81001395

$$$$
