
     RDKit          3D

 38 40  0  0  0  0  0  0  0  0999 V2000
   36.4600   30.6060   39.7430 C   0  0  0  0  0  0  0  0  0  0  0  0
   37.1870   31.7860   39.8900 C   0  0  0  0  0  0  0  0  0  0  0  0
   37.7890   32.3190   38.7720 C   0  0  0  0  0  0  0  0  0  0  0  0
   37.7050   31.7480   37.5250 C   0  0  0  0  0  0  0  0  0  0  0  0
   36.9840   30.5810   37.3910 C   0  0  0  0  0  0  0  0  0  0  0  0
   36.3640   30.0170   38.5090 C   0  0  0  0  0  0  0  0  0  0  0  0
   35.6310   28.7800   38.2370 C   0  0  0  0  0  0  0  0  0  0  0  0
   35.7360   28.3720   36.7760 C   0  0  0  0  0  0  0  0  0  0  0  0
   34.4370   28.8280   36.1350 C   0  0  0  0  0  0  0  0  0  0  0  0
   33.4270   28.9070   37.2400 C   0  0  0  0  0  0  0  0  0  0  0  0
   34.1520   28.8370   38.5430 C   0  0  0  0  0  0  0  0  0  0  0  0
   35.8020   30.0020   40.9120 C   0  0  0  0  0  0  0  0  0  0  0  0
   38.5190   28.8990   43.1890 C   0  0  0  0  0  0  0  0  0  0  0  0
   38.3600   27.5100   43.1810 C   0  0  0  0  0  0  0  0  0  0  0  0
   37.3340   26.9890   42.4020 C   0  0  0  0  0  0  0  0  0  0  0  0
   36.5660   27.8300   41.7140 N   0  0  0  0  0  0  0  0  0  0  0  0
   36.7410   29.1800   41.7370 C   0  0  0  0  0  0  0  0  0  0  0  0
   37.7240   29.6810   42.4830 N   0  0  0  0  0  0  0  0  0  0  0  0
   37.0060   25.6130   42.2570 N   0  0  0  0  0  0  0  0  0  0  0  0
   37.2773   32.2771   40.8702 H   0  0  0  0  0  0  0  0  0  0  0  0
   38.3662   33.2488   38.8828 H   0  0  0  0  0  0  0  0  0  0  0  0
   38.1995   32.2095   36.6576 H   0  0  0  0  0  0  0  0  0  0  0  0
   36.8970   30.0955   36.4078 H   0  0  0  0  0  0  0  0  0  0  0  0
   36.1122   28.0561   38.9112 H   0  0  0  0  0  0  0  0  0  0  0  0
   36.5949   28.8669   36.2991 H   0  0  0  0  0  0  0  0  0  0  0  0
   35.8888   27.2884   36.6641 H   0  0  0  0  0  0  0  0  0  0  0  0
   34.5687   29.8153   35.6682 H   0  0  0  0  0  0  0  0  0  0  0  0
   34.1139   28.1314   35.3474 H   0  0  0  0  0  0  0  0  0  0  0  0
   32.8747   29.8559   37.1721 H   0  0  0  0  0  0  0  0  0  0  0  0
   32.7110   28.0758   37.1594 H   0  0  0  0  0  0  0  0  0  0  0  0
   33.8474   27.9352   39.0944 H   0  0  0  0  0  0  0  0  0  0  0  0
   33.9182   29.7142   39.1642 H   0  0  0  0  0  0  0  0  0  0  0  0
   35.3918   30.8062   41.5405 H   0  0  0  0  0  0  0  0  0  0  0  0
   35.0102   29.3341   40.5418 H   0  0  0  0  0  0  0  0  0  0  0  0
   39.3205   29.3478   43.7941 H   0  0  0  0  0  0  0  0  0  0  0  0
   39.0209   26.8555   43.7681 H   0  0  0  0  0  0  0  0  0  0  0  0
   36.2217   25.3315   41.6515 H   0  0  0  0  0  0  0  0  0  0  0  0
   37.5527   24.8977   42.7575 H   0  0  0  0  0  0  0  0  0  0  0  0
  1  2  2  0
  1 12  1  0
  3  2  1  0
  4  3  2  0
  5  4  1  0
  5  6  2  0
  6  1  1  0
  7  6  1  0
  7 11  1  0
  8  7  1  0
  9  8  1  0
  9 10  1  0
 10 11  1  0
 12 17  1  0
 14 13  2  0
 15 14  1  0
 16 17  1  0
 16 15  2  0
 17 18  2  0
 18 13  1  0
 19 15  1  0
  2 20  1  0
  3 21  1  0
  4 22  1  0
  5 23  1  0
  7 24  1  0
  8 25  1  0
  8 26  1  0
  9 27  1  0
  9 28  1  0
 10 29  1  0
 10 30  1  0
 11 31  1  0
 11 32  1  0
 12 33  1  0
 12 34  1  0
 13 35  1  0
 14 36  1  0
 19 37  1  0
 19 38  1  0
M  ISO  8  20  14  21  14  22  14  23  14  24  13  25  13  26  13  27  13
M  ISO  8  28  13  29  13  30  13  31  13  32  13  33   8  34   8  35  14
M  ISO  1  36  14
M  END
>  <minimizedAffinity>  (1) 
-5.55566454

>  <minimizedRMSD>  (1) 
0.495891154

$$$$
