
     RDKit          3D

 33 35  0  0  0  0  0  0  0  0999 V2000
   36.3200   30.3910   39.5680 C   0  0  0  0  0  0  0  0  0  0  0  0
   36.9280   31.6310   39.7540 C   0  0  0  0  0  0  0  0  0  0  0  0
   37.5940   32.2310   38.7120 C   0  0  0  0  0  0  0  0  0  0  0  0
   37.6840   31.6310   37.4610 C   0  0  0  0  0  0  0  0  0  0  0  0
   37.0800   30.4080   37.2980 C   0  0  0  0  0  0  0  0  0  0  0  0
   36.3910   29.7740   38.3460 C   0  0  0  0  0  0  0  0  0  0  0  0
   35.7880   28.4910   38.0180 C   0  0  0  0  0  0  0  0  0  0  0  0
   34.5440   28.3980   37.4460 C   0  0  0  0  0  0  0  0  0  0  0  0
   33.9000   27.2360   37.0970 C   0  0  0  0  0  0  0  0  0  0  0  0
   34.5440   26.0670   37.3370 N   0  0  0  0  0  0  0  0  0  0  0  0
   35.7640   26.1150   37.8980 C   0  0  0  0  0  0  0  0  0  0  0  0
   36.3120   27.2870   38.2020 N   0  0  0  0  0  0  0  0  0  0  0  0
   35.6160   29.7630   40.6960 C   0  0  0  0  0  0  0  0  0  0  0  0
   38.1760   28.9680   43.2490 C   0  0  0  0  0  0  0  0  0  0  0  0
   38.1670   27.5760   43.2760 C   0  0  0  0  0  0  0  0  0  0  0  0
   37.2810   26.9420   42.4160 C   0  0  0  0  0  0  0  0  0  0  0  0
   36.5240   27.7100   41.6500 N   0  0  0  0  0  0  0  0  0  0  0  0
   36.5320   29.0490   41.6230 C   0  0  0  0  0  0  0  0  0  0  0  0
   37.3810   29.6560   42.4460 N   0  0  0  0  0  0  0  0  0  0  0  0
   37.1310   25.5330   42.3080 N   0  0  0  0  0  0  0  0  0  0  0  0
   36.8750   32.1290   40.7334 H   0  0  0  0  0  0  0  0  0  0  0  0
   38.0678   33.2108   38.8719 H   0  0  0  0  0  0  0  0  0  0  0  0
   38.2191   32.1177   36.6323 H   0  0  0  0  0  0  0  0  0  0  0  0
   37.1373   29.9104   36.3186 H   0  0  0  0  0  0  0  0  0  0  0  0
   34.0135   29.3412   37.2488 H   0  0  0  0  0  0  0  0  0  0  0  0
   32.8996   27.2531   36.6400 H   0  0  0  0  0  0  0  0  0  0  0  0
   36.3100   25.1830   38.1059 H   0  0  0  0  0  0  0  0  0  0  0  0
   35.0866   30.5457   41.2591 H   0  0  0  0  0  0  0  0  0  0  0  0
   34.9217   29.0186   40.2790 H   0  0  0  0  0  0  0  0  0  0  0  0
   38.8635   29.5110   43.9141 H   0  0  0  0  0  0  0  0  0  0  0  0
   38.8290   27.0071   43.9454 H   0  0  0  0  0  0  0  0  0  0  0  0
   36.4501   25.1369   41.6444 H   0  0  0  0  0  0  0  0  0  0  0  0
   37.7032   24.9078   42.8933 H   0  0  0  0  0  0  0  0  0  0  0  0
  1  2  2  0
  1 13  1  0
  3  2  1  0
  4  3  2  0
  5  4  1  0
  5  6  2  0
  6  1  1  0
  7 12  1  0
  7  6  1  0
  8  7  2  0
  9 10  2  0
  9  8  1  0
 10 11  1  0
 11 12  2  0
 13 18  1  0
 14 15  2  0
 16 15  1  0
 17 16  2  0
 18 17  1  0
 18 19  2  0
 19 14  1  0
 20 16  1  0
  2 21  1  0
  3 22  1  0
  4 23  1  0
  5 24  1  0
  8 25  1  0
  9 26  1  0
 11 27  1  0
 13 28  1  0
 13 29  1  0
 14 30  1  0
 15 31  1  0
 20 32  1  0
 20 33  1  0
M  ISO  8  21  14  22  14  23  14  24  14  25  14  26  14  27  14  28   8
M  ISO  3  29   8  30  14  31  14
M  END
>  <minimizedAffinity>  (1) 
-5.37103748

>  <minimizedRMSD>  (1) 
0.542114437

$$$$
