
     RDKit          3D

 40 42  0  0  0  0  0  0  0  0999 V2000
   36.3410   30.4290   40.0160 C   0  0  0  0  0  0  0  0  0  0  0  0
   36.7530   31.5570   40.7200 C   0  0  0  0  0  0  0  0  0  0  0  0
   37.3810   32.5520   39.9890 C   0  0  0  0  0  0  0  0  0  0  0  0
   37.6170   32.4920   38.6380 C   0  0  0  0  0  0  0  0  0  0  0  0
   37.1960   31.3530   37.9630 C   0  0  0  0  0  0  0  0  0  0  0  0
   36.5600   30.3290   38.6570 C   0  0  0  0  0  0  0  0  0  0  0  0
   36.1650   29.2100   37.8810 N   0  0  0  0  0  0  0  0  0  0  0  0
   35.6580   27.8940   38.2210 C   0  0  0  0  0  0  0  0  0  0  0  0
   34.3460   27.6150   37.4830 C   0  0  0  0  0  0  0  0  0  0  0  0
   34.4320   28.0280   36.0400 C   0  0  0  0  0  0  0  0  0  0  0  0
   35.8740   28.3170   35.6680 C   0  0  0  0  0  0  0  0  0  0  0  0
   36.3280   29.5110   36.4710 C   0  0  0  0  0  0  0  0  0  0  0  0
   35.6670   29.3330   40.7380 C   0  0  0  0  0  0  0  0  0  0  0  0
   38.0630   28.6230   43.4850 C   0  0  0  0  0  0  0  0  0  0  0  0
   38.1800   27.2310   43.4190 C   0  0  0  0  0  0  0  0  0  0  0  0
   37.4280   26.5660   42.4250 C   0  0  0  0  0  0  0  0  0  0  0  0
   36.6590   27.3050   41.6180 N   0  0  0  0  0  0  0  0  0  0  0  0
   36.5700   28.6410   41.7100 C   0  0  0  0  0  0  0  0  0  0  0  0
   37.2740   29.2670   42.6420 N   0  0  0  0  0  0  0  0  0  0  0  0
   37.4340   25.1620   42.2230 N   0  0  0  0  0  0  0  0  0  0  0  0
   36.5880   31.6535   41.8033 H   0  0  0  0  0  0  0  0  0  0  0  0
   37.7133   33.4516   40.5278 H   0  0  0  0  0  0  0  0  0  0  0  0
   38.1206   33.3149   38.1096 H   0  0  0  0  0  0  0  0  0  0  0  0
   37.3656   31.2610   36.8800 H   0  0  0  0  0  0  0  0  0  0  0  0
   36.4016   27.1353   37.9358 H   0  0  0  0  0  0  0  0  0  0  0  0
   35.4709   27.8550   39.3043 H   0  0  0  0  0  0  0  0  0  0  0  0
   34.1277   26.5381   37.5350 H   0  0  0  0  0  0  0  0  0  0  0  0
   33.5467   28.1980   37.9638 H   0  0  0  0  0  0  0  0  0  0  0  0
   34.0478   27.2160   35.4052 H   0  0  0  0  0  0  0  0  0  0  0  0
   33.8309   28.9366   35.8881 H   0  0  0  0  0  0  0  0  0  0  0  0
   36.5030   27.4461   35.9045 H   0  0  0  0  0  0  0  0  0  0  0  0
   35.9585   28.5241   34.5910 H   0  0  0  0  0  0  0  0  0  0  0  0
   37.3864   29.7208   36.2568 H   0  0  0  0  0  0  0  0  0  0  0  0
   35.7284   30.3936   36.2035 H   0  0  0  0  0  0  0  0  0  0  0  0
   34.8100   29.7487   41.2883 H   0  0  0  0  0  0  0  0  0  0  0  0
   35.3494   28.5895   39.9921 H   0  0  0  0  0  0  0  0  0  0  0  0
   38.6301   29.1847   44.2419 H   0  0  0  0  0  0  0  0  0  0  0  0
   38.8303   26.6771   44.1120 H   0  0  0  0  0  0  0  0  0  0  0  0
   36.8587   24.7466   41.4764 H   0  0  0  0  0  0  0  0  0  0  0  0
   38.0137   24.5579   42.8229 H   0  0  0  0  0  0  0  0  0  0  0  0
  1  2  2  0
  1 13  1  0
  3  2  1  0
  4  3  2  0
  5  4  1  0
  5  6  2  0
  6  1  1  0
  7  8  1  0
  7  6  1  0
  9  8  1  0
 10  9  1  0
 11 10  1  0
 11 12  1  0
 12  7  1  0
 13 18  1  0
 15 14  2  0
 16 15  1  0
 17 18  1  0
 17 16  2  0
 18 19  2  0
 19 14  1  0
 20 16  1  0
  2 21  1  0
  3 22  1  0
  4 23  1  0
  5 24  1  0
  8 25  1  0
  8 26  1  0
  9 27  1  0
  9 28  1  0
 10 29  1  0
 10 30  1  0
 11 31  1  0
 11 32  1  0
 12 33  1  0
 12 34  1  0
 13 35  1  0
 13 36  1  0
 14 37  1  0
 15 38  1  0
 20 39  1  0
 20 40  1  0
M  ISO  8  21  14  22  14  23  14  24  14  25  13  26  13  27  13  28  13
M  ISO  8  29  13  30  13  31  13  32  13  33  13  34  13  35   8  36   8
M  ISO  2  37  14  38  14
M  END
>  <minimizedAffinity>  (1) 
-5.35798979

>  <minimizedRMSD>  (1) 
0.951227725

$$$$
