
     RDKit          3D

 32 34  0  0  0  0  0  0  0  0999 V2000
   36.3280   30.4090   39.5800 C   0  0  0  0  0  0  0  0  0  0  0  0
   36.9520   31.6370   39.7850 C   0  0  0  0  0  0  0  0  0  0  0  0
   37.6120   32.2220   38.7270 C   0  0  0  0  0  0  0  0  0  0  0  0
   37.6940   31.6690   37.4770 C   0  0  0  0  0  0  0  0  0  0  0  0
   37.0690   30.4580   37.3040 C   0  0  0  0  0  0  0  0  0  0  0  0
   36.3770   29.8070   38.3460 C   0  0  0  0  0  0  0  0  0  0  0  0
   35.7480   28.5320   38.0090 C   0  0  0  0  0  0  0  0  0  0  0  0
   34.5030   28.3920   37.4300 C   0  0  0  0  0  0  0  0  0  0  0  0
   34.1790   27.0700   37.2310 C   0  0  0  0  0  0  0  0  0  0  0  0
   35.2480   26.4090   37.7010 N   0  0  0  0  0  0  0  0  0  0  0  0
   36.1370   27.2690   38.1430 N   0  0  0  0  0  0  0  0  0  0  0  0
   35.6140   29.7530   40.6860 C   0  0  0  0  0  0  0  0  0  0  0  0
   38.1690   28.9770   43.2500 C   0  0  0  0  0  0  0  0  0  0  0  0
   38.1680   27.5690   43.2840 C   0  0  0  0  0  0  0  0  0  0  0  0
   37.2810   26.9400   42.4180 C   0  0  0  0  0  0  0  0  0  0  0  0
   36.5250   27.7120   41.6490 N   0  0  0  0  0  0  0  0  0  0  0  0
   36.5330   29.0490   41.6240 C   0  0  0  0  0  0  0  0  0  0  0  0
   37.3810   29.6640   42.4510 N   0  0  0  0  0  0  0  0  0  0  0  0
   37.1100   25.5280   42.2810 N   0  0  0  0  0  0  0  0  0  0  0  0
   36.9186   32.1282   40.7687 H   0  0  0  0  0  0  0  0  0  0  0  0
   38.1027   33.1918   38.8964 H   0  0  0  0  0  0  0  0  0  0  0  0
   38.2309   32.1672   36.6563 H   0  0  0  0  0  0  0  0  0  0  0  0
   37.1099   29.9779   36.3151 H   0  0  0  0  0  0  0  0  0  0  0  0
   33.8495   29.2348   37.1605 H   0  0  0  0  0  0  0  0  0  0  0  0
   33.2610   26.6534   36.7908 H   0  0  0  0  0  0  0  0  0  0  0  0
   35.3550   25.3846   37.7133 H   0  0  0  0  0  0  0  0  0  0  0  0
   35.0555   30.5168   41.2469 H   0  0  0  0  0  0  0  0  0  0  0  0
   34.9430   28.9991   40.2486 H   0  0  0  0  0  0  0  0  0  0  0  0
   38.8538   29.5225   43.9160 H   0  0  0  0  0  0  0  0  0  0  0  0
   38.8292   27.0013   43.9553 H   0  0  0  0  0  0  0  0  0  0  0  0
   36.4243   25.1551   41.6089 H   0  0  0  0  0  0  0  0  0  0  0  0
   37.6724   24.8831   42.8543 H   0  0  0  0  0  0  0  0  0  0  0  0
  1  2  2  0
  1 12  1  0
  3  2  1  0
  4  3  2  0
  5  4  1  0
  5  6  2  0
  6  1  1  0
  7 11  2  0
  7  6  1  0
  8  7  1  0
  9  8  2  0
  9 10  1  0
 10 11  1  0
 12 17  1  0
 13 14  2  0
 15 14  1  0
 16 15  2  0
 17 16  1  0
 17 18  2  0
 18 13  1  0
 19 15  1  0
  2 20  1  0
  3 21  1  0
  4 22  1  0
  5 23  1  0
  8 24  1  0
  9 25  1  0
 10 26  1  0
 12 27  1  0
 12 28  1  0
 13 29  1  0
 14 30  1  0
 19 31  1  0
 19 32  1  0
M  ISO  8  20  14  21  14  22  14  23  14  24  14  25  14  26   9  27   8
M  ISO  3  28   8  29  14  30  14
M  END
>  <minimizedAffinity>  (1) 
-5.23293877

>  <minimizedRMSD>  (1) 
0.410158724

$$$$
