
     RDKit          3D

 32 34  0  0  0  0  0  0  0  0999 V2000
   36.3330   30.3790   39.5080 C   0  0  0  0  0  0  0  0  0  0  0  0
   36.9850   31.5770   39.5960 C   0  0  0  0  0  0  0  0  0  0  0  0
   37.6230   32.0850   38.4950 C   0  0  0  0  0  0  0  0  0  0  0  0
   37.6570   31.4660   37.2840 C   0  0  0  0  0  0  0  0  0  0  0  0
   36.9990   30.2650   37.2110 C   0  0  0  0  0  0  0  0  0  0  0  0
   36.3270   29.7040   38.3210 C   0  0  0  0  0  0  0  0  0  0  0  0
   35.6790   28.3950   37.9460 C   0  0  0  0  0  0  0  0  0  0  0  0
   34.5210   28.1600   37.4740 C   0  0  0  0  0  0  0  0  0  0  0  0
   34.0130   26.9600   37.1540 C   0  0  0  0  0  0  0  0  0  0  0  0
   34.9280   25.8850   37.3950 C   0  0  0  0  0  0  0  0  0  0  0  0
   36.4040   26.8480   38.0640 S   0  0  0  0  0  0  0  0  0  0  0  0
   35.6360   29.8290   40.6750 C   0  0  0  0  0  0  0  0  0  0  0  0
   38.1990   29.0160   43.2100 C   0  0  0  0  0  0  0  0  0  0  0  0
   38.1750   27.6060   43.2480 C   0  0  0  0  0  0  0  0  0  0  0  0
   37.2700   26.9810   42.3990 C   0  0  0  0  0  0  0  0  0  0  0  0
   36.5110   27.7430   41.6320 N   0  0  0  0  0  0  0  0  0  0  0  0
   36.5250   29.0740   41.5870 C   0  0  0  0  0  0  0  0  0  0  0  0
   37.4000   29.6990   42.4060 N   0  0  0  0  0  0  0  0  0  0  0  0
   37.0800   25.5720   42.2790 N   0  0  0  0  0  0  0  0  0  0  0  0
   36.9975   32.1308   40.5464 H   0  0  0  0  0  0  0  0  0  0  0  0
   38.1387   33.0513   38.5963 H   0  0  0  0  0  0  0  0  0  0  0  0
   38.1788   31.9010   36.4188 H   0  0  0  0  0  0  0  0  0  0  0  0
   36.9939   29.7194   36.2558 H   0  0  0  0  0  0  0  0  0  0  0  0
   33.8688   29.0308   37.3114 H   0  0  0  0  0  0  0  0  0  0  0  0
   33.0003   26.8170   36.7491 H   0  0  0  0  0  0  0  0  0  0  0  0
   34.8045   24.8037   37.2350 H   0  0  0  0  0  0  0  0  0  0  0  0
   35.1853   30.6607   41.2363 H   0  0  0  0  0  0  0  0  0  0  0  0
   34.8798   29.1237   40.2999 H   0  0  0  0  0  0  0  0  0  0  0  0
   38.8973   29.5598   43.8632 H   0  0  0  0  0  0  0  0  0  0  0  0
   38.8368   27.0325   43.9136 H   0  0  0  0  0  0  0  0  0  0  0  0
   36.3818   25.2009   41.6189 H   0  0  0  0  0  0  0  0  0  0  0  0
   37.6410   24.9260   42.8524 H   0  0  0  0  0  0  0  0  0  0  0  0
  1  2  2  0
  1 12  1  0
  3  2  1  0
  4  3  2  0
  5  4  1  0
  5  6  2  0
  6  1  1  0
  7 11  1  0
  7  6  1  0
  8  7  2  0
  9 10  2  0
  9  8  1  0
 10 11  1  0
 12 17  1  0
 13 14  2  0
 15 14  1  0
 16 15  2  0
 17 16  1  0
 17 18  2  0
 18 13  1  0
 19 15  1  0
  2 20  1  0
  3 21  1  0
  4 22  1  0
  5 23  1  0
  8 24  1  0
  9 25  1  0
 10 26  1  0
 12 27  1  0
 12 28  1  0
 13 29  1  0
 14 30  1  0
 19 31  1  0
 19 32  1  0
M  ISO  8  20  14  21  14  22  14  23  14  24  14  25  14  26  14  27   8
M  ISO  3  28   8  29  14  30  14
M  END
>  <minimizedAffinity>  (1) 
-5.21161461

>  <minimizedRMSD>  (1) 
0.512936294

$$$$
