
     RDKit          3D

 37 39  0  0  0  0  0  0  0  0999 V2000
   36.3260   30.4340   39.9460 C   0  0  0  0  0  0  0  0  0  0  0  0
   36.6760   31.6500   40.4930 C   0  0  0  0  0  0  0  0  0  0  0  0
   37.3280   32.5510   39.6760 C   0  0  0  0  0  0  0  0  0  0  0  0
   37.6510   32.3170   38.3650 C   0  0  0  0  0  0  0  0  0  0  0  0
   37.2940   31.0930   37.8280 C   0  0  0  0  0  0  0  0  0  0  0  0
   36.6320   30.1580   38.6270 C   0  0  0  0  0  0  0  0  0  0  0  0
   36.3120   28.9310   37.9780 N   0  0  0  0  0  0  0  0  0  0  0  0
   36.7610   27.5440   37.9940 C   0  0  0  0  0  0  0  0  0  0  0  0
   35.5420   26.6850   37.8340 C   0  0  0  0  0  0  0  0  0  0  0  0
   34.4190   27.7060   37.6250 C   0  0  0  0  0  0  0  0  0  0  0  0
   35.2510   28.8140   36.9680 C   0  0  0  0  0  0  0  0  0  0  0  0
   35.6270   29.4140   40.7470 C   0  0  0  0  0  0  0  0  0  0  0  0
   38.0950   28.6090   43.3970 C   0  0  0  0  0  0  0  0  0  0  0  0
   38.1500   27.2080   43.3360 C   0  0  0  0  0  0  0  0  0  0  0  0
   37.3310   26.5870   42.3790 C   0  0  0  0  0  0  0  0  0  0  0  0
   36.5570   27.3510   41.5910 N   0  0  0  0  0  0  0  0  0  0  0  0
   36.5390   28.6960   41.6890 C   0  0  0  0  0  0  0  0  0  0  0  0
   37.3090   29.3070   42.5910 N   0  0  0  0  0  0  0  0  0  0  0  0
   37.2750   25.1860   42.1940 N   0  0  0  0  0  0  0  0  0  0  0  0
   36.4444   31.8928   41.5406 H   0  0  0  0  0  0  0  0  0  0  0  0
   37.6076   33.5238   40.1067 H   0  0  0  0  0  0  0  0  0  0  0  0
   38.1744   33.0738   37.7623 H   0  0  0  0  0  0  0  0  0  0  0  0
   37.5297   30.8579   36.7796 H   0  0  0  0  0  0  0  0  0  0  0  0
   37.4610   27.3642   37.1647 H   0  0  0  0  0  0  0  0  0  0  0  0
   37.2833   27.3120   38.9338 H   0  0  0  0  0  0  0  0  0  0  0  0
   35.6389   26.0213   36.9622 H   0  0  0  0  0  0  0  0  0  0  0  0
   35.3666   26.0208   38.6931 H   0  0  0  0  0  0  0  0  0  0  0  0
   33.6309   27.3267   36.9580 H   0  0  0  0  0  0  0  0  0  0  0  0
   33.8583   27.9955   38.5260 H   0  0  0  0  0  0  0  0  0  0  0  0
   35.6458   28.5078   35.9880 H   0  0  0  0  0  0  0  0  0  0  0  0
   34.7079   29.7433   36.7412 H   0  0  0  0  0  0  0  0  0  0  0  0
   34.8351   29.9065   41.3305 H   0  0  0  0  0  0  0  0  0  0  0  0
   35.2152   28.6690   40.0503 H   0  0  0  0  0  0  0  0  0  0  0  0
   38.7190   29.1397   44.1311 H   0  0  0  0  0  0  0  0  0  0  0  0
   38.8017   26.6257   44.0040 H   0  0  0  0  0  0  0  0  0  0  0  0
   36.6549   24.7858   41.4755 H   0  0  0  0  0  0  0  0  0  0  0  0
   37.8543   24.5659   42.7777 H   0  0  0  0  0  0  0  0  0  0  0  0
  1  2  2  0
  1 12  1  0
  3  2  1  0
  4  3  2  0
  5  4  1  0
  5  6  2  0
  6  1  1  0
  7  8  1  0
  7  6  1  0
  9  8  1  0
 10  9  1  0
 11 10  1  0
 11  7  1  0
 12 17  1  0
 14 13  2  0
 15 14  1  0
 16 17  1  0
 16 15  2  0
 17 18  2  0
 18 13  1  0
 19 15  1  0
  2 20  1  0
  3 21  1  0
  4 22  1  0
  5 23  1  0
  8 24  1  0
  8 25  1  0
  9 26  1  0
  9 27  1  0
 10 28  1  0
 10 29  1  0
 11 30  1  0
 11 31  1  0
 12 32  1  0
 12 33  1  0
 13 34  1  0
 14 35  1  0
 19 36  1  0
 19 37  1  0
M  ISO  8  20  14  21  14  22  14  23  14  24  13  25  13  26  13  27  13
M  ISO  8  28  13  29  13  30  13  31  13  32   8  33   8  34  14  35  14
M  END
>  <minimizedAffinity>  (1) 
-5.18258381

>  <minimizedRMSD>  (1) 
0.703163922

$$$$
