
     RDKit          3D

 32 34  0  0  0  0  0  0  0  0999 V2000
   36.3410   30.4070   39.5720 C   0  0  0  0  0  0  0  0  0  0  0  0
   36.9100   31.6530   39.7880 C   0  0  0  0  0  0  0  0  0  0  0  0
   37.5720   32.2470   38.7360 C   0  0  0  0  0  0  0  0  0  0  0  0
   37.7060   31.6840   37.4900 C   0  0  0  0  0  0  0  0  0  0  0  0
   37.1330   30.4470   37.2970 C   0  0  0  0  0  0  0  0  0  0  0  0
   36.4480   29.7950   38.3280 C   0  0  0  0  0  0  0  0  0  0  0  0
   35.8890   28.5190   38.0340 N   0  0  0  0  0  0  0  0  0  0  0  0
   36.3090   27.2880   38.1640 N   0  0  0  0  0  0  0  0  0  0  0  0
   35.4000   26.4030   37.7360 C   0  0  0  0  0  0  0  0  0  0  0  0
   34.2950   27.0960   37.2890 C   0  0  0  0  0  0  0  0  0  0  0  0
   34.6410   28.4160   37.4920 C   0  0  0  0  0  0  0  0  0  0  0  0
   35.6180   29.7170   40.6550 C   0  0  0  0  0  0  0  0  0  0  0  0
   38.1650   28.9870   43.2590 C   0  0  0  0  0  0  0  0  0  0  0  0
   38.1570   27.5870   43.2820 C   0  0  0  0  0  0  0  0  0  0  0  0
   37.2860   26.9290   42.4120 C   0  0  0  0  0  0  0  0  0  0  0  0
   36.5080   27.6580   41.6040 N   0  0  0  0  0  0  0  0  0  0  0  0
   36.5360   29.0120   41.6030 C   0  0  0  0  0  0  0  0  0  0  0  0
   37.3680   29.6460   42.4350 N   0  0  0  0  0  0  0  0  0  0  0  0
   37.1530   25.5200   42.3070 N   0  0  0  0  0  0  0  0  0  0  0  0
   36.8353   32.1503   40.7663 H   0  0  0  0  0  0  0  0  0  0  0  0
   38.0225   33.2362   38.9046 H   0  0  0  0  0  0  0  0  0  0  0  0
   38.2471   32.1987   36.6823 H   0  0  0  0  0  0  0  0  0  0  0  0
   37.2154   29.9620   36.3131 H   0  0  0  0  0  0  0  0  0  0  0  0
   35.5152   25.3091   37.7403 H   0  0  0  0  0  0  0  0  0  0  0  0
   33.3610   26.6928   36.8706 H   0  0  0  0  0  0  0  0  0  0  0  0
   33.9956   29.2729   37.2489 H   0  0  0  0  0  0  0  0  0  0  0  0
   35.0339   30.4601   41.2176 H   0  0  0  0  0  0  0  0  0  0  0  0
   34.9709   28.9576   40.1918 H   0  0  0  0  0  0  0  0  0  0  0  0
   38.8377   29.5415   43.9298 H   0  0  0  0  0  0  0  0  0  0  0  0
   38.8142   27.0252   43.9620 H   0  0  0  0  0  0  0  0  0  0  0  0
   36.4842   25.1144   41.6369 H   0  0  0  0  0  0  0  0  0  0  0  0
   37.7253   24.9030   42.9009 H   0  0  0  0  0  0  0  0  0  0  0  0
  1  2  2  0
  1 12  1  0
  3  2  1  0
  4  3  2  0
  5  4  1  0
  5  6  2  0
  6  1  1  0
  7  8  1  0
  7  6  1  0
  9  8  2  0
 10 11  2  0
 10  9  1  0
 11  7  1  0
 12 17  1  0
 13 14  2  0
 15 14  1  0
 16 15  2  0
 17 16  1  0
 17 18  2  0
 18 13  1  0
 19 15  1  0
  2 20  1  0
  3 21  1  0
  4 22  1  0
  5 23  1  0
  9 24  1  0
 10 25  1  0
 11 26  1  0
 12 27  1  0
 12 28  1  0
 13 29  1  0
 14 30  1  0
 19 31  1  0
 19 32  1  0
M  ISO  8  20  14  21  14  22  14  23  14  24  14  25  14  26  14  27   8
M  ISO  3  28   8  29  14  30  14
M  END
>  <minimizedAffinity>  (1) 
-5.11683035

>  <minimizedRMSD>  (1) 
0.372749299

$$$$
