
     RDKit          3D

 38 40  0  0  0  0  0  0  0  0999 V2000
   36.3260   30.4000   39.5640 C   0  0  0  0  0  0  0  0  0  0  0  0
   36.9330   31.6390   39.7440 C   0  0  0  0  0  0  0  0  0  0  0  0
   37.5770   32.1770   38.6500 C   0  0  0  0  0  0  0  0  0  0  0  0
   37.6610   31.5890   37.4150 C   0  0  0  0  0  0  0  0  0  0  0  0
   37.0500   30.3580   37.2610 C   0  0  0  0  0  0  0  0  0  0  0  0
   36.3890   29.7770   38.3390 C   0  0  0  0  0  0  0  0  0  0  0  0
   35.8070   28.5240   38.0240 N   0  0  0  0  0  0  0  0  0  0  0  0
   36.1970   27.1320   38.1570 C   0  0  0  0  0  0  0  0  0  0  0  0
   36.0560   26.4510   36.8340 C   0  0  0  0  0  0  0  0  0  0  0  0
   34.8630   26.7780   36.1950 O   0  0  0  0  0  0  0  0  0  0  0  0
   33.9440   27.3450   37.0830 C   0  0  0  0  0  0  0  0  0  0  0  0
   34.4820   28.7200   37.4140 C   0  0  0  0  0  0  0  0  0  0  0  0
   35.6220   29.7480   40.6830 C   0  0  0  0  0  0  0  0  0  0  0  0
   38.1950   29.0020   43.2360 C   0  0  0  0  0  0  0  0  0  0  0  0
   38.1880   27.5930   43.2870 C   0  0  0  0  0  0  0  0  0  0  0  0
   37.2890   26.9540   42.4300 C   0  0  0  0  0  0  0  0  0  0  0  0
   36.5100   27.6920   41.6350 N   0  0  0  0  0  0  0  0  0  0  0  0
   36.5460   29.0420   41.6160 C   0  0  0  0  0  0  0  0  0  0  0  0
   37.4020   29.6790   42.4310 N   0  0  0  0  0  0  0  0  0  0  0  0
   37.1210   25.5450   42.3200 N   0  0  0  0  0  0  0  0  0  0  0  0
   36.9007   32.1630   40.7106 H   0  0  0  0  0  0  0  0  0  0  0  0
   38.0619   33.1559   38.7787 H   0  0  0  0  0  0  0  0  0  0  0  0
   38.1912   32.0749   36.5827 H   0  0  0  0  0  0  0  0  0  0  0  0
   37.0863   29.8405   36.2910 H   0  0  0  0  0  0  0  0  0  0  0  0
   37.2436   27.0739   38.4905 H   0  0  0  0  0  0  0  0  0  0  0  0
   35.5506   26.6373   38.8969 H   0  0  0  0  0  0  0  0  0  0  0  0
   36.8958   26.7516   36.1903 H   0  0  0  0  0  0  0  0  0  0  0  0
   36.0549   25.3657   37.0130 H   0  0  0  0  0  0  0  0  0  0  0  0
   32.9541   27.4250   36.6100 H   0  0  0  0  0  0  0  0  0  0  0  0
   33.8233   26.7300   37.9870 H   0  0  0  0  0  0  0  0  0  0  0  0
   34.5725   29.3217   36.4976 H   0  0  0  0  0  0  0  0  0  0  0  0
   33.8071   29.2527   38.1001 H   0  0  0  0  0  0  0  0  0  0  0  0
   35.0724   30.5159   41.2472 H   0  0  0  0  0  0  0  0  0  0  0  0
   34.9460   28.9939   40.2537 H   0  0  0  0  0  0  0  0  0  0  0  0
   38.8856   29.5543   43.8902 H   0  0  0  0  0  0  0  0  0  0  0  0
   38.8508   27.0307   43.9612 H   0  0  0  0  0  0  0  0  0  0  0  0
   36.4319   25.1585   41.6591 H   0  0  0  0  0  0  0  0  0  0  0  0
   37.6885   24.9118   42.9013 H   0  0  0  0  0  0  0  0  0  0  0  0
  1  2  2  0
  1 13  1  0
  3  2  1  0
  4  3  2  0
  5  4  1  0
  5  6  2  0
  6  1  1  0
  7  8  1  0
  7  6  1  0
  9  8  1  0
 10  9  1  0
 10 11  1  0
 11 12  1  0
 12  7  1  0
 13 18  1  0
 14 15  2  0
 16 15  1  0
 17 16  2  0
 18 17  1  0
 18 19  2  0
 19 14  1  0
 20 16  1  0
  2 21  1  0
  3 22  1  0
  4 23  1  0
  5 24  1  0
  8 25  1  0
  8 26  1  0
  9 27  1  0
  9 28  1  0
 11 29  1  0
 11 30  1  0
 12 31  1  0
 12 32  1  0
 13 33  1  0
 13 34  1  0
 14 35  1  0
 15 36  1  0
 20 37  1  0
 20 38  1  0
M  ISO  8  21  14  22  14  23  14  24  14  25  13  26  13  27  13  28  13
M  ISO  8  29  13  30  13  31  13  32  13  33   8  34   8  35  14  36  14
M  END
>  <minimizedAffinity>  (1) 
-5.09979725

>  <minimizedRMSD>  (1) 
0.233948082

$$$$
