
     RDKit          3D

 34 35  0  0  0  0  0  0  0  0999 V2000
   35.6420   29.7630   40.5930 C   0  0  0  0  0  0  0  0  0  0  0  0
   38.1390   29.0400   43.2400 C   0  0  0  0  0  0  0  0  0  0  0  0
   38.1270   27.6300   43.2930 C   0  0  0  0  0  0  0  0  0  0  0  0
   37.2600   26.9850   42.4150 C   0  0  0  0  0  0  0  0  0  0  0  0
   36.4990   27.7290   41.5840 N   0  0  0  0  0  0  0  0  0  0  0  0
   36.5430   29.0700   41.5680 C   0  0  0  0  0  0  0  0  0  0  0  0
   37.3650   29.7000   42.3990 N   0  0  0  0  0  0  0  0  0  0  0  0
   37.1010   25.5710   42.3140 N   0  0  0  0  0  0  0  0  0  0  0  0
   36.3880   30.4480   39.5240 C   0  0  0  0  0  0  0  0  0  0  0  0
   37.1680   31.5640   39.8080 C   0  0  0  0  0  0  0  0  0  0  0  0
   37.8390   32.1550   38.7580 C   0  0  0  0  0  0  0  0  0  0  0  0
   37.7900   31.7170   37.4580 C   0  0  0  0  0  0  0  0  0  0  0  0
   37.0100   30.6080   37.2060 C   0  0  0  0  0  0  0  0  0  0  0  0
   36.3170   29.9820   38.2260 C   0  0  0  0  0  0  0  0  0  0  0  0
   35.5200   28.7980   37.8040 C   0  0  0  0  0  0  0  0  0  0  0  0
   34.1890   28.8050   38.5360 C   0  0  0  0  0  0  0  0  0  0  0  0
   36.2340   27.5090   38.1990 C   0  0  0  0  0  0  0  0  0  0  0  0
   34.9762   29.0163   40.1357 H   0  0  0  0  0  0  0  0  0  0  0  0
   35.0747   30.5259   41.1463 H   0  0  0  0  0  0  0  0  0  0  0  0
   38.8060   29.5996   43.9123 H   0  0  0  0  0  0  0  0  0  0  0  0
   38.7680   27.0706   43.9903 H   0  0  0  0  0  0  0  0  0  0  0  0
   36.4353   25.1748   41.6352 H   0  0  0  0  0  0  0  0  0  0  0  0
   37.6519   24.9462   42.9198 H   0  0  0  0  0  0  0  0  0  0  0  0
   37.2467   31.9602   40.8312 H   0  0  0  0  0  0  0  0  0  0  0  0
   38.4563   33.0386   38.9775 H   0  0  0  0  0  0  0  0  0  0  0  0
   38.3457   32.2257   36.6565 H   0  0  0  0  0  0  0  0  0  0  0  0
   36.9381   30.2163   36.1806 H   0  0  0  0  0  0  0  0  0  0  0  0
   35.3845   28.8457   36.7134 H   0  0  0  0  0  0  0  0  0  0  0  0
   34.3675   28.8041   39.6214 H   0  0  0  0  0  0  0  0  0  0  0  0
   33.6226   29.7061   38.2583 H   0  0  0  0  0  0  0  0  0  0  0  0
   33.6131   27.9099   38.2583 H   0  0  0  0  0  0  0  0  0  0  0  0
   36.2755   27.4341   39.2957 H   0  0  0  0  0  0  0  0  0  0  0  0
   35.6850   26.6465   37.7931 H   0  0  0  0  0  0  0  0  0  0  0  0
   37.2563   27.5169   37.7931 H   0  0  0  0  0  0  0  0  0  0  0  0
  1  6  1  0
  2  3  2  0
  4  3  1  0
  5  4  2  0
  6  5  1  0
  6  7  2  0
  7  2  1  0
  8  4  1  0
  9 10  2  0
  9  1  1  0
 11 10  1  0
 12 11  2  0
 13 12  1  0
 13 14  2  0
 14  9  1  0
 15 17  1  0
 15 14  1  0
 15 16  1  0
  1 18  1  0
  1 19  1  0
  2 20  1  0
  3 21  1  0
  8 22  1  0
  8 23  1  0
 10 24  1  0
 11 25  1  0
 12 26  1  0
 13 27  1  0
 15 28  1  0
 16 29  1  0
 16 30  1  0
 16 31  1  0
 17 32  1  0
 17 33  1  0
 17 34  1  0
M  ISO  8  18   8  19   8  20  14  21  14  24  14  25  14  26  14  27  14
M  ISO  7  28   8  29   8  30   8  31   8  32   8  33   8  34   8
M  END
>  <minimizedAffinity>  (1) 
-5.09293222

>  <minimizedRMSD>  (1) 
0.468672544

$$$$
