
     RDKit          3D

 38 40  0  0  1  0  0  0  0  0999 V2000
   39.1230   26.1140   42.2980 C   0  0  1  0  0  0  0  0  0  0  0  0
   38.8580   24.7380   41.6400 C   0  0  0  0  0  0  0  0  0  0  0  0
   37.4780   24.3610   42.0410 C   0  0  0  0  0  0  0  0  0  0  0  0
   36.8420   25.7290   42.2830 C   0  0  0  0  0  0  0  0  0  0  0  0
   37.9390   26.3490   43.1400 C   0  0  2  0  0  0  0  0  0  0  0  0
   41.9780   26.9020   44.6430 C   0  0  0  0  0  0  0  0  0  0  0  0
   40.6950   26.9910   44.0870 C   0  0  0  0  0  0  0  0  0  0  0  0
   40.4090   26.1330   42.9790 C   0  0  0  0  0  0  0  0  0  0  0  0
   41.3660   25.2800   42.5090 N   0  0  0  0  0  0  0  0  0  0  0  0
   42.5890   25.2410   43.0900 C   0  0  0  0  0  0  0  0  0  0  0  0
   42.8980   26.0420   44.1460 N   0  0  0  0  0  0  0  0  0  0  0  0
   37.5120   27.7510   43.3450 C   0  0  2  0  0  0  0  0  0  0  0  0
   36.7760   28.0500   44.5980 C   0  0  0  0  0  0  0  0  0  0  0  0
   36.6170   28.0960   42.1580 C   0  0  0  0  0  0  0  0  0  0  0  0
   37.1960   29.3830   41.6720 C   0  0  0  0  0  0  0  0  0  0  0  0
   36.1910   30.1640   40.9260 C   0  0  0  0  0  0  0  0  0  0  0  0
   37.1210   31.7300   40.4130 S   0  0  0  0  0  0  0  0  0  0  0  0
   38.6470   31.0530   41.2800 C   0  0  0  0  0  0  0  0  0  0  0  0
   38.3440   30.0440   41.7090 N   0  0  0  0  0  0  0  0  0  0  0  0
   39.2297   26.9446   41.5847 H   0  0  0  0  0  0  0  0  0  0  0  0
   39.5806   23.9929   42.0043 H   0  0  0  0  0  0  0  0  0  0  0  0
   38.9655   24.7831   40.5462 H   0  0  0  0  0  0  0  0  0  0  0  0
   36.9618   23.8152   41.2375 H   0  0  0  0  0  0  0  0  0  0  0  0
   37.4333   23.6875   42.9096 H   0  0  0  0  0  0  0  0  0  0  0  0
   36.6865   26.2839   41.3460 H   0  0  0  0  0  0  0  0  0  0  0  0
   35.8391   25.7129   42.7345 H   0  0  0  0  0  0  0  0  0  0  0  0
   38.1456   25.9631   44.1491 H   0  0  0  0  0  0  0  0  0  0  0  0
   42.2423   27.5418   45.4979 H   0  0  0  0  0  0  0  0  0  0  0  0
   39.9427   27.6883   44.4842 H   0  0  0  0  0  0  0  0  0  0  0  0
   43.3484   24.5473   42.7001 H   0  0  0  0  0  0  0  0  0  0  0  0
   38.4297   28.3518   43.4279 H   0  0  0  0  0  0  0  0  0  0  0  0
   37.4056   27.7942   45.4630 H   0  0  0  0  0  0  0  0  0  0  0  0
   36.5264   29.1208   44.6300 H   0  0  0  0  0  0  0  0  0  0  0  0
   35.8503   27.4566   44.6300 H   0  0  0  0  0  0  0  0  0  0  0  0
   36.6711   27.3187   41.3816 H   0  0  0  0  0  0  0  0  0  0  0  0
   35.5517   28.1693   42.4220 H   0  0  0  0  0  0  0  0  0  0  0  0
   35.1444   29.8979   40.7167 H   0  0  0  0  0  0  0  0  0  0  0  0
   39.6327   31.5352   41.3566 H   0  0  0  0  0  0  0  0  0  0  0  0
  1  8  1  0
  1  5  1  0
  2  3  1  0
  2  1  1  0
  3  4  1  0
  4  5  1  0
  5 12  1  0
  7  6  2  0
  8  7  1  0
  9  8  2  0
  9 10  1  0
 10 11  2  0
 11  6  1  0
 12 13  1  0
 14 12  1  0
 15 19  1  0
 15 14  1  0
 16 15  2  0
 17 16  1  0
 17 18  1  0
 18 19  2  0
  1 20  1  6
  2 21  1  0
  2 22  1  0
  3 23  1  0
  3 24  1  0
  4 25  1  0
  4 26  1  0
  5 27  1  1
  6 28  1  0
  7 29  1  0
 10 30  1  0
 12 31  1  6
 13 32  1  0
 13 33  1  0
 13 34  1  0
 14 35  1  0
 14 36  1  0
 16 37  1  0
 18 38  1  0
M  ISO  8  20  13  21  13  22  13  23  13  24  13  25  13  26  13  27  13
M  ISO  8  28  14  29  14  30  14  31   8  32   8  33   8  34   8  35   8
M  ISO  3  36   8  37  14  38  14
M  END
>  <minimizedAffinity>  (1) 
-5.29789591

>  <minimizedRMSD>  (1) 
1.41676474

$$$$
