
     RDKit          3D

 39 41  0  0  1  0  0  0  0  0999 V2000
   39.1890   26.0330   42.2520 C   0  0  1  0  0  0  0  0  0  0  0  0
   38.9800   24.6500   41.5950 C   0  0  0  0  0  0  0  0  0  0  0  0
   37.5850   24.2430   41.9960 C   0  0  0  0  0  0  0  0  0  0  0  0
   36.9170   25.6000   42.1850 C   0  0  0  0  0  0  0  0  0  0  0  0
   37.9700   26.2720   43.0490 C   0  0  2  0  0  0  0  0  0  0  0  0
   41.9340   26.9680   44.6720 C   0  0  0  0  0  0  0  0  0  0  0  0
   40.6780   26.9850   44.0520 C   0  0  0  0  0  0  0  0  0  0  0  0
   40.4480   26.1010   42.9750 C   0  0  0  0  0  0  0  0  0  0  0  0
   41.4410   25.2650   42.5710 N   0  0  0  0  0  0  0  0  0  0  0  0
   42.6470   25.2780   43.1970 C   0  0  0  0  0  0  0  0  0  0  0  0
   42.8860   26.1240   44.2370 N   0  0  0  0  0  0  0  0  0  0  0  0
   37.5120   27.6760   43.1690 C   0  0  2  0  0  0  0  0  0  0  0  0
   36.8480   28.0490   44.4420 C   0  0  0  0  0  0  0  0  0  0  0  0
   36.5160   27.9000   42.0420 C   0  0  0  0  0  0  0  0  0  0  0  0
   36.8870   29.2450   41.5620 N   0  0  0  0  0  0  0  0  0  0  0  0
   38.1020   29.7660   41.5860 N   0  0  0  0  0  0  0  0  0  0  0  0
   38.1450   30.9950   41.0870 C   0  0  0  0  0  0  0  0  0  0  0  0
   36.8600   31.3080   40.7030 C   0  0  0  0  0  0  0  0  0  0  0  0
   36.0910   30.2050   41.0070 C   0  0  0  0  0  0  0  0  0  0  0  0
   39.3020   26.8494   41.5235 H   0  0  0  0  0  0  0  0  0  0  0  0
   39.7184   23.9264   41.9708 H   0  0  0  0  0  0  0  0  0  0  0  0
   39.1057   24.6847   40.5028 H   0  0  0  0  0  0  0  0  0  0  0  0
   37.0930   23.6594   41.2039 H   0  0  0  0  0  0  0  0  0  0  0  0
   37.5439   23.5946   42.8836 H   0  0  0  0  0  0  0  0  0  0  0  0
   36.7733   26.1246   41.2289 H   0  0  0  0  0  0  0  0  0  0  0  0
   35.9046   25.5706   42.6142 H   0  0  0  0  0  0  0  0  0  0  0  0
   38.1468   25.9282   44.0788 H   0  0  0  0  0  0  0  0  0  0  0  0
   42.1413   27.6446   45.5141 H   0  0  0  0  0  0  0  0  0  0  0  0
   39.8896   27.6707   44.3959 H   0  0  0  0  0  0  0  0  0  0  0  0
   43.4410   24.5959   42.8591 H   0  0  0  0  0  0  0  0  0  0  0  0
   38.4161   28.3013   43.1280 H   0  0  0  0  0  0  0  0  0  0  0  0
   37.4598   27.7053   45.2891 H   0  0  0  0  0  0  0  0  0  0  0  0
   36.7358   29.1422   44.4904 H   0  0  0  0  0  0  0  0  0  0  0  0
   35.8560   27.5761   44.4904 H   0  0  0  0  0  0  0  0  0  0  0  0
   36.6345   27.1467   41.2492 H   0  0  0  0  0  0  0  0  0  0  0  0
   35.4655   27.8177   42.3578 H   0  0  0  0  0  0  0  0  0  0  0  0
   39.0331   31.6378   40.9976 H   0  0  0  0  0  0  0  0  0  0  0  0
   36.5167   32.2479   40.2462 H   0  0  0  0  0  0  0  0  0  0  0  0
   35.0091   30.1132   40.8306 H   0  0  0  0  0  0  0  0  0  0  0  0
  1  8  1  0
  1  5  1  0
  2  3  1  0
  2  1  1  0
  3  4  1  0
  4  5  1  0
  5 12  1  0
  7  6  2  0
  8  7  1  0
  9  8  2  0
  9 10  1  0
 10 11  2  0
 11  6  1  0
 12 13  1  0
 14 12  1  0
 15 16  1  0
 15 14  1  0
 17 16  2  0
 18 19  2  0
 18 17  1  0
 19 15  1  0
  1 20  1  6
  2 21  1  0
  2 22  1  0
  3 23  1  0
  3 24  1  0
  4 25  1  0
  4 26  1  0
  5 27  1  1
  6 28  1  0
  7 29  1  0
 10 30  1  0
 12 31  1  6
 13 32  1  0
 13 33  1  0
 13 34  1  0
 14 35  1  0
 14 36  1  0
 17 37  1  0
 18 38  1  0
 19 39  1  0
M  ISO  8  20  13  21  13  22  13  23  13  24  13  25  13  26  13  27  13
M  ISO  8  28  14  29  14  30  14  31   8  32   8  33   8  34   8  35   8
M  ISO  4  36   8  37  14  38  14  39  14
M  END
>  <minimizedAffinity>  (1) 
-5.26959705

>  <minimizedRMSD>  (1) 
1.11507404

$$$$
