
     RDKit          3D

 44 46  0  0  0  0  0  0  0  0999 V2000
   36.4710   30.6130   39.7590 C   0  0  0  0  0  0  0  0  0  0  0  0
   37.0660   31.8050   40.1200 C   0  0  0  0  0  0  0  0  0  0  0  0
   37.7560   32.5120   39.1770 C   0  0  0  0  0  0  0  0  0  0  0  0
   37.8840   32.0910   37.8820 C   0  0  0  0  0  0  0  0  0  0  0  0
   37.2920   30.9050   37.5220 C   0  0  0  0  0  0  0  0  0  0  0  0
   36.5810   30.1630   38.4660 C   0  0  0  0  0  0  0  0  0  0  0  0
   35.7020   29.8290   40.7560 C   0  0  0  0  0  0  0  0  0  0  0  0
   38.1950   28.9000   43.3300 C   0  0  0  0  0  0  0  0  0  0  0  0
   38.1390   27.4970   43.2910 C   0  0  0  0  0  0  0  0  0  0  0  0
   37.2520   26.9140   42.3880 C   0  0  0  0  0  0  0  0  0  0  0  0
   36.5180   27.7170   41.6240 N   0  0  0  0  0  0  0  0  0  0  0  0
   36.5810   29.0590   41.6710 C   0  0  0  0  0  0  0  0  0  0  0  0
   37.4270   29.6350   42.5310 N   0  0  0  0  0  0  0  0  0  0  0  0
   37.0940   25.5240   42.2530 N   0  0  0  0  0  0  0  0  0  0  0  0
   35.9550   28.8800   38.0750 C   0  0  0  0  0  0  0  0  0  0  0  0
   34.7590   29.1330   37.2000 C   0  0  0  0  0  0  0  0  0  0  0  0
   33.4490   28.6990   37.8380 C   0  0  0  0  0  0  0  0  0  0  0  0
   32.3640   29.4380   37.0410 C   0  0  0  0  0  0  0  0  0  0  0  0
   32.4300   29.1550   35.5760 C   0  0  0  0  0  0  0  0  0  0  0  0
   33.8010   29.1400   34.9940 C   0  0  0  0  0  0  0  0  0  0  0  0
   34.8340   28.4390   35.8640 C   0  0  0  0  0  0  0  0  0  0  0  0
   36.9857   32.1796   41.1511 H   0  0  0  0  0  0  0  0  0  0  0  0
   38.2290   33.4604   39.4715 H   0  0  0  0  0  0  0  0  0  0  0  0
   38.4464   32.6867   37.1479 H   0  0  0  0  0  0  0  0  0  0  0  0
   37.3785   30.5396   36.4881 H   0  0  0  0  0  0  0  0  0  0  0  0
   35.0899   30.5208   41.3533 H   0  0  0  0  0  0  0  0  0  0  0  0
   35.0773   29.1092   40.2068 H   0  0  0  0  0  0  0  0  0  0  0  0
   38.8827   29.3969   44.0301 H   0  0  0  0  0  0  0  0  0  0  0  0
   38.7712   26.8819   43.9482 H   0  0  0  0  0  0  0  0  0  0  0  0
   36.4232   25.1460   41.5689 H   0  0  0  0  0  0  0  0  0  0  0  0
   37.6490   24.8834   42.8382 H   0  0  0  0  0  0  0  0  0  0  0  0
   36.6868   28.2715   37.5235 H   0  0  0  0  0  0  0  0  0  0  0  0
   35.6313   28.3470   38.9811 H   0  0  0  0  0  0  0  0  0  0  0  0
   34.7785   30.2242   37.0623 H   0  0  0  0  0  0  0  0  0  0  0  0
   33.3184   27.6100   37.7537 H   0  0  0  0  0  0  0  0  0  0  0  0
   33.4105   28.9352   38.9117 H   0  0  0  0  0  0  0  0  0  0  0  0
   31.3781   29.1253   37.4155 H   0  0  0  0  0  0  0  0  0  0  0  0
   32.5285   30.5169   37.1782 H   0  0  0  0  0  0  0  0  0  0  0  0
   31.9744   28.1696   35.3989 H   0  0  0  0  0  0  0  0  0  0  0  0
   31.8975   29.9807   35.0814 H   0  0  0  0  0  0  0  0  0  0  0  0
   33.7592   28.6246   34.0231 H   0  0  0  0  0  0  0  0  0  0  0  0
   34.1200   30.1888   34.9029 H   0  0  0  0  0  0  0  0  0  0  0  0
   34.5898   27.3716   35.9692 H   0  0  0  0  0  0  0  0  0  0  0  0
   35.8429   28.4913   35.4287 H   0  0  0  0  0  0  0  0  0  0  0  0
  1  2  2  0
  1  7  1  0
  3  2  1  0
  4  3  2  0
  5  4  1  0
  5  6  2  0
  6  1  1  0
  7 12  1  0
  9  8  2  0
 10  9  1  0
 11 12  1  0
 11 10  2  0
 12 13  2  0
 13  8  1  0
 14 10  1  0
 15  6  1  0
 16 17  1  0
 16 15  1  0
 18 17  1  0
 19 18  1  0
 20 19  1  0
 20 21  1  0
 21 16  1  0
  2 22  1  0
  3 23  1  0
  4 24  1  0
  5 25  1  0
  7 26  1  0
  7 27  1  0
  8 28  1  0
  9 29  1  0
 14 30  1  0
 14 31  1  0
 15 32  1  0
 15 33  1  0
 16 34  1  0
 17 35  1  0
 17 36  1  0
 18 37  1  0
 18 38  1  0
 19 39  1  0
 19 40  1  0
 20 41  1  0
 20 42  1  0
 21 43  1  0
 21 44  1  0
M  ISO  8  22  14  23  14  24  14  25  14  26   8  27   8  28  14  29  14
M  ISO  8  32   8  33   8  34  13  35  13  36  13  37  13  38  13  39  13
M  ISO  5  40  13  41  13  42  13  43  13  44  13
M  END
>  <minimizedAffinity>  (1) 
-5.67694616

>  <minimizedRMSD>  (1) 
2.41452098

$$$$
