
     RDKit          3D

 39 41  0  0  0  0  0  0  0  0999 V2000
   36.4910   30.6330   39.7790 C   0  0  0  0  0  0  0  0  0  0  0  0
   37.0720   31.8590   40.0720 C   0  0  0  0  0  0  0  0  0  0  0  0
   37.7210   32.5180   39.0590 C   0  0  0  0  0  0  0  0  0  0  0  0
   37.8250   32.0280   37.7730 C   0  0  0  0  0  0  0  0  0  0  0  0
   37.2430   30.8120   37.5020 C   0  0  0  0  0  0  0  0  0  0  0  0
   36.5910   30.1400   38.5030 C   0  0  0  0  0  0  0  0  0  0  0  0
   35.7840   29.8950   40.8500 C   0  0  0  0  0  0  0  0  0  0  0  0
   38.4510   28.8840   43.2120 C   0  0  0  0  0  0  0  0  0  0  0  0
   38.3420   27.4910   43.2210 C   0  0  0  0  0  0  0  0  0  0  0  0
   37.3560   26.9310   42.4180 C   0  0  0  0  0  0  0  0  0  0  0  0
   36.5900   27.7530   41.7010 N   0  0  0  0  0  0  0  0  0  0  0  0
   36.6990   29.0880   41.6950 C   0  0  0  0  0  0  0  0  0  0  0  0
   37.6490   29.6520   42.4680 N   0  0  0  0  0  0  0  0  0  0  0  0
   37.1130   25.5530   42.3120 N   0  0  0  0  0  0  0  0  0  0  0  0
   35.9490   28.8050   38.2190 C   0  0  0  0  0  0  0  0  0  0  0  0
   34.8300   28.9600   37.3060 N   0  0  0  0  0  0  0  0  0  0  0  0
   35.0730   28.9570   35.9770 C   0  0  0  0  0  0  0  0  0  0  0  0
   34.0780   29.0980   35.0030 C   0  0  0  0  0  0  0  0  0  0  0  0
   32.7820   29.2460   35.4890 C   0  0  0  0  0  0  0  0  0  0  0  0
   31.8060   29.3860   34.4530 N   0  0  0  0  0  0  0  0  0  0  0  0
   32.5370   29.2490   36.8150 N   0  0  0  0  0  0  0  0  0  0  0  0
   33.5500   29.1080   37.6880 C   0  0  0  0  0  0  0  0  0  0  0  0
   33.3100   29.1120   38.9300 O   0  0  0  0  0  0  0  0  0  0  0  0
   37.0139   32.2880   41.0832 H   0  0  0  0  0  0  0  0  0  0  0  0
   38.1839   33.4902   39.2840 H   0  0  0  0  0  0  0  0  0  0  0  0
   38.3556   32.5912   36.9912 H   0  0  0  0  0  0  0  0  0  0  0  0
   37.3002   30.3824   36.4910 H   0  0  0  0  0  0  0  0  0  0  0  0
   35.2624   30.6208   41.4912 H   0  0  0  0  0  0  0  0  0  0  0  0
   35.0828   29.1999   40.3650 H   0  0  0  0  0  0  0  0  0  0  0  0
   39.2199   29.3630   43.8360 H   0  0  0  0  0  0  0  0  0  0  0  0
   39.0065   26.8662   43.8358 H   0  0  0  0  0  0  0  0  0  0  0  0
   36.3634   25.2082   41.6955 H   0  0  0  0  0  0  0  0  0  0  0  0
   37.6843   24.8864   42.8507 H   0  0  0  0  0  0  0  0  0  0  0  0
   36.6944   28.1343   37.7668 H   0  0  0  0  0  0  0  0  0  0  0  0
   35.5794   28.3808   39.1643 H   0  0  0  0  0  0  0  0  0  0  0  0
   36.1135   28.8367   35.6409 H   0  0  0  0  0  0  0  0  0  0  0  0
   34.3046   29.0923   33.9266 H   0  0  0  0  0  0  0  0  0  0  0  0
   30.8115   29.5022   34.6946 H   0  0  0  0  0  0  0  0  0  0  0  0
   32.0976   29.3706   33.4653 H   0  0  0  0  0  0  0  0  0  0  0  0
  1  2  2  0
  1  7  1  0
  3  2  1  0
  4  3  2  0
  5  4  1  0
  5  6  2  0
  6  1  1  0
  7 12  1  0
  8  9  2  0
 10  9  1  0
 11 10  2  0
 12 11  1  0
 12 13  2  0
 13  8  1  0
 14 10  1  0
 15  6  1  0
 16 22  1  0
 16 15  1  0
 17 16  1  0
 18 19  1  0
 18 17  2  0
 19 21  2  0
 20 19  1  0
 21 22  1  0
 22 23  2  0
  2 24  1  0
  3 25  1  0
  4 26  1  0
  5 27  1  0
  7 28  1  0
  7 29  1  0
  8 30  1  0
  9 31  1  0
 14 32  1  0
 14 33  1  0
 15 34  1  0
 15 35  1  0
 17 36  1  0
 18 37  1  0
 20 38  1  0
 20 39  1  0
M  ISO  8  24  14  25  14  26  14  27  14  28   8  29   8  30  14  31  14
M  ISO  4  34   8  35   8  36  14  37  14
M  END
>  <minimizedAffinity>  (1) 
-5.54938793

>  <minimizedRMSD>  (1) 
2.28424788

$$$$
