
     RDKit          3D

 35 37  0  0  0  0  0  0  0  0999 V2000
   36.3310   30.4100   39.5530 C   0  0  0  0  0  0  0  0  0  0  0  0
   37.0090   31.5860   39.7920 C   0  0  0  0  0  0  0  0  0  0  0  0
   37.6730   32.1850   38.7510 C   0  0  0  0  0  0  0  0  0  0  0  0
   37.6940   31.6680   37.4780 C   0  0  0  0  0  0  0  0  0  0  0  0
   37.0120   30.4880   37.2470 C   0  0  0  0  0  0  0  0  0  0  0  0
   36.3410   29.8760   38.2790 C   0  0  0  0  0  0  0  0  0  0  0  0
   35.6110   29.7560   40.6730 C   0  0  0  0  0  0  0  0  0  0  0  0
   38.1320   28.9810   43.2540 C   0  0  0  0  0  0  0  0  0  0  0  0
   38.1390   27.5800   43.2690 C   0  0  0  0  0  0  0  0  0  0  0  0
   37.2680   26.9320   42.3830 C   0  0  0  0  0  0  0  0  0  0  0  0
   36.5020   27.6910   41.5960 N   0  0  0  0  0  0  0  0  0  0  0  0
   36.5100   29.0280   41.5970 C   0  0  0  0  0  0  0  0  0  0  0  0
   37.3310   29.6630   42.4320 N   0  0  0  0  0  0  0  0  0  0  0  0
   37.1520   25.5340   42.2720 N   0  0  0  0  0  0  0  0  0  0  0  0
   35.5920   28.5990   38.0650 C   0  0  0  0  0  0  0  0  0  0  0  0
   34.2800   28.8410   37.3980 C   0  0  0  0  0  0  0  0  0  0  0  0
   34.0220   28.9340   36.0440 C   0  0  0  0  0  0  0  0  0  0  0  0
   32.7010   29.1590   35.8690 N   0  0  0  0  0  0  0  0  0  0  0  0
   32.1000   29.2130   37.0860 C   0  0  0  0  0  0  0  0  0  0  0  0
   33.0760   29.0190   37.9790 N   0  0  0  0  0  0  0  0  0  0  0  0
   37.0177   32.0350   40.7961 H   0  0  0  0  0  0  0  0  0  0  0  0
   38.2138   33.1231   38.9447 H   0  0  0  0  0  0  0  0  0  0  0  0
   38.2366   32.1773   36.6680 H   0  0  0  0  0  0  0  0  0  0  0  0
   37.0062   30.0408   36.2420 H   0  0  0  0  0  0  0  0  0  0  0  0
   35.0750   30.5291   41.2431 H   0  0  0  0  0  0  0  0  0  0  0  0
   34.9248   29.0169   40.2338 H   0  0  0  0  0  0  0  0  0  0  0  0
   38.8002   29.5303   43.9335 H   0  0  0  0  0  0  0  0  0  0  0  0
   38.7977   27.0150   43.9449 H   0  0  0  0  0  0  0  0  0  0  0  0
   36.4898   25.1241   41.5979 H   0  0  0  0  0  0  0  0  0  0  0  0
   37.7293   24.9206   42.8648 H   0  0  0  0  0  0  0  0  0  0  0  0
   36.1965   27.9314   37.4334 H   0  0  0  0  0  0  0  0  0  0  0  0
   35.4012   28.1416   39.0470 H   0  0  0  0  0  0  0  0  0  0  0  0
   34.7682   28.8404   35.2413 H   0  0  0  0  0  0  0  0  0  0  0  0
   31.0329   29.3812   37.2935 H   0  0  0  0  0  0  0  0  0  0  0  0
   32.9251   29.0068   38.9978 H   0  0  0  0  0  0  0  0  0  0  0  0
  1  2  2  0
  1  7  1  0
  3  2  1  0
  4  3  2  0
  5  4  1  0
  5  6  2  0
  6  1  1  0
  7 12  1  0
  8  9  2  0
 10  9  1  0
 11 12  1  0
 11 10  2  0
 12 13  2  0
 13  8  1  0
 14 10  1  0
 15  6  1  0
 16 20  1  0
 16 15  1  0
 17 16  2  0
 18 17  1  0
 18 19  2  0
 19 20  1  0
  2 21  1  0
  3 22  1  0
  4 23  1  0
  5 24  1  0
  7 25  1  0
  7 26  1  0
  8 27  1  0
  9 28  1  0
 14 29  1  0
 14 30  1  0
 15 31  1  0
 15 32  1  0
 17 33  1  0
 19 34  1  0
 20 35  1  0
M  ISO  8  21  14  22  14  23  14  24  14  25   8  26   8  27  14  28  14
M  ISO  5  31   8  32   8  33  14  34  14  35   9
M  END
>  <minimizedAffinity>  (1) 
-5.31705952

>  <minimizedRMSD>  (1) 
1.91154838

$$$$
