
     RDKit          3D

 42 44  0  0  0  0  0  0  0  0999 V2000
   36.3700   30.2140   39.5430 C   0  0  0  0  0  0  0  0  0  0  0  0
   36.6340   31.5420   39.8350 C   0  0  0  0  0  0  0  0  0  0  0  0
   37.3230   32.2800   38.8860 C   0  0  0  0  0  0  0  0  0  0  0  0
   37.7540   31.7720   37.6840 C   0  0  0  0  0  0  0  0  0  0  0  0
   37.4820   30.4580   37.4160 C   0  0  0  0  0  0  0  0  0  0  0  0
   36.7940   29.6780   38.3330 C   0  0  0  0  0  0  0  0  0  0  0  0
   35.6310   29.3790   40.5290 C   0  0  0  0  0  0  0  0  0  0  0  0
   37.9990   28.9120   43.3410 C   0  0  0  0  0  0  0  0  0  0  0  0
   38.1610   27.5140   43.3670 C   0  0  0  0  0  0  0  0  0  0  0  0
   37.4570   26.7800   42.4260 C   0  0  0  0  0  0  0  0  0  0  0  0
   36.6880   27.4550   41.5760 N   0  0  0  0  0  0  0  0  0  0  0  0
   36.5340   28.7820   41.5510 C   0  0  0  0  0  0  0  0  0  0  0  0
   37.2000   29.5080   42.4470 N   0  0  0  0  0  0  0  0  0  0  0  0
   37.5250   25.3830   42.3330 N   0  0  0  0  0  0  0  0  0  0  0  0
   36.4880   28.2470   38.0610 C   0  0  0  0  0  0  0  0  0  0  0  0
   35.4940   28.0580   37.0370 N   0  0  0  0  0  0  0  0  0  0  0  0
   35.3620   29.2170   36.1750 C   0  0  0  0  0  0  0  0  0  0  0  0
   34.1990   28.9470   35.2430 C   0  0  0  0  0  0  0  0  0  0  0  0
   33.0040   29.3060   36.0230 N   0  0  0  0  0  0  0  0  0  0  0  0
   33.2240   28.9650   37.4050 C   0  0  0  0  0  0  0  0  0  0  0  0
   34.1900   27.8090   37.5920 C   0  0  0  0  0  0  0  0  0  0  0  0
   36.3091   31.9935   40.7840 H   0  0  0  0  0  0  0  0  0  0  0  0
   37.5379   33.3357   39.1080 H   0  0  0  0  0  0  0  0  0  0  0  0
   38.2983   32.3994   36.9629 H   0  0  0  0  0  0  0  0  0  0  0  0
   37.8122   30.0164   36.4642 H   0  0  0  0  0  0  0  0  0  0  0  0
   34.8867   30.0085   41.0387 H   0  0  0  0  0  0  0  0  0  0  0  0
   35.1512   28.5550   39.9805 H   0  0  0  0  0  0  0  0  0  0  0  0
   38.5415   29.5293   44.0722 H   0  0  0  0  0  0  0  0  0  0  0  0
   38.8177   27.0257   44.1021 H   0  0  0  0  0  0  0  0  0  0  0  0
   36.9796   24.8876   41.6132 H   0  0  0  0  0  0  0  0  0  0  0  0
   38.1203   24.8519   42.9844 H   0  0  0  0  0  0  0  0  0  0  0  0
   37.4148   27.7468   37.7434 H   0  0  0  0  0  0  0  0  0  0  0  0
   36.0815   27.8203   38.9898 H   0  0  0  0  0  0  0  0  0  0  0  0
   35.1621   30.1151   36.7779 H   0  0  0  0  0  0  0  0  0  0  0  0
   36.2877   29.3905   35.6067 H   0  0  0  0  0  0  0  0  0  0  0  0
   34.1703   27.8855   34.9559 H   0  0  0  0  0  0  0  0  0  0  0  0
   34.2734   29.5210   34.3076 H   0  0  0  0  0  0  0  0  0  0  0  0
   32.8295   30.3178   35.9409 H   0  0  0  0  0  0  0  0  0  0  0  0
   33.6307   29.8468   37.9217 H   0  0  0  0  0  0  0  0  0  0  0  0
   32.2555   28.6507   37.8211 H   0  0  0  0  0  0  0  0  0  0  0  0
   33.7672   26.9189   37.1032 H   0  0  0  0  0  0  0  0  0  0  0  0
   34.3200   27.6666   38.6750 H   0  0  0  0  0  0  0  0  0  0  0  0
  1  2  2  0
  1  7  1  0
  3  2  1  0
  4  3  2  0
  5  4  1  0
  5  6  2  0
  6  1  1  0
  7 12  1  0
  8  9  2  0
 10  9  1  0
 11 10  2  0
 12 11  1  0
 12 13  2  0
 13  8  1  0
 14 10  1  0
 15  6  1  0
 16 21  1  0
 16 15  1  0
 17 16  1  0
 18 19  1  0
 18 17  1  0
 19 20  1  0
 20 21  1  0
  2 22  1  0
  3 23  1  0
  4 24  1  0
  5 25  1  0
  7 26  1  0
  7 27  1  0
  8 28  1  0
  9 29  1  0
 14 30  1  0
 14 31  1  0
 15 32  1  0
 15 33  1  0
 17 34  1  0
 17 35  1  0
 18 36  1  0
 18 37  1  0
 19 38  1  0
 20 39  1  0
 20 40  1  0
 21 41  1  0
 21 42  1  0
M  ISO  8  22  14  23  14  24  14  25  14  26   8  27   8  28  14  29  14
M  ISO  8  32   8  33   8  34  13  35  13  36  13  37  13  38   5  39  13
M  ISO  3  40  13  41  13  42  13
M  END
>  <minimizedAffinity>  (1) 
-5.17599249

>  <minimizedRMSD>  (1) 
1.08661115

$$$$
