
     RDKit          3D

 35 37  0  0  0  0  0  0  0  0999 V2000
   36.2990   30.3030   39.9210 C   0  0  0  0  0  0  0  0  0  0  0  0
   36.6370   31.5520   40.4270 C   0  0  0  0  0  0  0  0  0  0  0  0
   37.2530   32.4540   39.5940 C   0  0  0  0  0  0  0  0  0  0  0  0
   37.5500   32.1860   38.2870 C   0  0  0  0  0  0  0  0  0  0  0  0
   37.2130   30.9560   37.7990 C   0  0  0  0  0  0  0  0  0  0  0  0
   36.5950   30.0250   38.6050 C   0  0  0  0  0  0  0  0  0  0  0  0
   35.6340   29.3160   40.8040 C   0  0  0  0  0  0  0  0  0  0  0  0
   38.1380   28.6480   43.4530 C   0  0  0  0  0  0  0  0  0  0  0  0
   38.3090   27.2740   43.3500 C   0  0  0  0  0  0  0  0  0  0  0  0
   37.5730   26.5960   42.3850 C   0  0  0  0  0  0  0  0  0  0  0  0
   36.7430   27.3080   41.6120 N   0  0  0  0  0  0  0  0  0  0  0  0
   36.5890   28.6390   41.7250 C   0  0  0  0  0  0  0  0  0  0  0  0
   37.2920   29.3010   42.6490 N   0  0  0  0  0  0  0  0  0  0  0  0
   37.6430   25.2080   42.1670 N   0  0  0  0  0  0  0  0  0  0  0  0
   36.2180   28.6690   38.0860 C   0  0  0  0  0  0  0  0  0  0  0  0
   35.0910   28.8410   37.1860 N   0  0  0  0  0  0  0  0  0  0  0  0
   33.7960   28.9150   37.5780 C   0  0  0  0  0  0  0  0  0  0  0  0
   32.9330   29.0780   36.5230 C   0  0  0  0  0  0  0  0  0  0  0  0
   33.7420   29.1030   35.4480 N   0  0  0  0  0  0  0  0  0  0  0  0
   35.0200   28.9630   35.8400 C   0  0  0  0  0  0  0  0  0  0  0  0
   36.4160   31.8130   41.4725 H   0  0  0  0  0  0  0  0  0  0  0  0
   37.5206   33.4411   39.9989 H   0  0  0  0  0  0  0  0  0  0  0  0
   38.0434   32.9352   37.6504 H   0  0  0  0  0  0  0  0  0  0  0  0
   37.4372   30.7059   36.7516 H   0  0  0  0  0  0  0  0  0  0  0  0
   34.8736   29.8364   41.4048 H   0  0  0  0  0  0  0  0  0  0  0  0
   35.1844   28.5437   40.1626 H   0  0  0  0  0  0  0  0  0  0  0  0
   38.7079   29.2088   44.2085 H   0  0  0  0  0  0  0  0  0  0  0  0
   39.0055   26.7383   44.0117 H   0  0  0  0  0  0  0  0  0  0  0  0
   37.0673   24.7724   41.4324 H   0  0  0  0  0  0  0  0  0  0  0  0
   38.2700   24.6273   42.7420 H   0  0  0  0  0  0  0  0  0  0  0  0
   37.0664   28.2255   37.5442 H   0  0  0  0  0  0  0  0  0  0  0  0
   35.9508   27.9983   38.9159 H   0  0  0  0  0  0  0  0  0  0  0  0
   33.4717   28.8514   38.6272 H   0  0  0  0  0  0  0  0  0  0  0  0
   31.8370   29.1673   36.5500 H   0  0  0  0  0  0  0  0  0  0  0  0
   35.8863   28.9495   35.1622 H   0  0  0  0  0  0  0  0  0  0  0  0
  1  2  2  0
  1  7  1  0
  3  2  1  0
  4  3  2  0
  5  4  1  0
  5  6  2  0
  6  1  1  0
  7 12  1  0
  9  8  2  0
 10  9  1  0
 11 12  1  0
 11 10  2  0
 12 13  2  0
 13  8  1  0
 14 10  1  0
 15  6  1  0
 16 17  1  0
 16 15  1  0
 18 17  2  0
 19 20  2  0
 19 18  1  0
 20 16  1  0
  2 21  1  0
  3 22  1  0
  4 23  1  0
  5 24  1  0
  7 25  1  0
  7 26  1  0
  8 27  1  0
  9 28  1  0
 14 29  1  0
 14 30  1  0
 15 31  1  0
 15 32  1  0
 17 33  1  0
 18 34  1  0
 20 35  1  0
M  ISO  8  21  14  22  14  23  14  24  14  25   8  26   8  27  14  28  14
M  ISO  5  31   8  32   8  33  14  34  14  35  14
M  END
>  <minimizedAffinity>  (1) 
-5.17571926

>  <minimizedRMSD>  (1) 
1.5986768

$$$$
