
     RDKit          3D

 35 37  0  0  0  0  0  0  0  0999 V2000
   36.3340   30.3650   39.7170 C   0  0  0  0  0  0  0  0  0  0  0  0
   36.7920   31.6220   40.0960 C   0  0  0  0  0  0  0  0  0  0  0  0
   37.4430   32.3820   39.1540 C   0  0  0  0  0  0  0  0  0  0  0  0
   37.6590   31.9640   37.8680 C   0  0  0  0  0  0  0  0  0  0  0  0
   37.2040   30.7270   37.5050 C   0  0  0  0  0  0  0  0  0  0  0  0
   36.5430   29.9290   38.4280 C   0  0  0  0  0  0  0  0  0  0  0  0
   35.6300   29.5380   40.7280 C   0  0  0  0  0  0  0  0  0  0  0  0
   38.1400   28.8260   43.3380 C   0  0  0  0  0  0  0  0  0  0  0  0
   38.2310   27.4370   43.3070 C   0  0  0  0  0  0  0  0  0  0  0  0
   37.4290   26.7690   42.3920 C   0  0  0  0  0  0  0  0  0  0  0  0
   36.6300   27.4940   41.6060 N   0  0  0  0  0  0  0  0  0  0  0  0
   36.5560   28.8420   41.6510 C   0  0  0  0  0  0  0  0  0  0  0  0
   37.3200   29.5040   42.5250 N   0  0  0  0  0  0  0  0  0  0  0  0
   37.3890   25.3600   42.2210 N   0  0  0  0  0  0  0  0  0  0  0  0
   36.0240   28.5740   38.0820 C   0  0  0  0  0  0  0  0  0  0  0  0
   34.8360   28.7140   37.1160 C   0  0  0  0  0  0  0  0  0  0  0  0
   33.8500   27.5350   37.1560 C   0  0  0  0  0  0  0  0  0  0  0  0
   33.4990   28.8940   37.6830 C   0  0  0  0  0  0  0  0  0  0  0  0
   36.6379   31.9967   41.1187 H   0  0  0  0  0  0  0  0  0  0  0  0
   37.8092   33.3767   39.4480 H   0  0  0  0  0  0  0  0  0  0  0  0
   38.1846   32.6065   37.1462 H   0  0  0  0  0  0  0  0  0  0  0  0
   37.3622   30.3634   36.4789 H   0  0  0  0  0  0  0  0  0  0  0  0
   34.9713   30.1916   41.3188 H   0  0  0  0  0  0  0  0  0  0  0  0
   35.0632   28.7666   40.1861 H   0  0  0  0  0  0  0  0  0  0  0  0
   38.7617   29.3844   44.0533 H   0  0  0  0  0  0  0  0  0  0  0  0
   38.9099   26.8919   43.9793 H   0  0  0  0  0  0  0  0  0  0  0  0
   36.7631   24.9443   41.5165 H   0  0  0  0  0  0  0  0  0  0  0  0
   37.9859   24.7536   42.8014 H   0  0  0  0  0  0  0  0  0  0  0  0
   36.8208   27.9874   37.6013 H   0  0  0  0  0  0  0  0  0  0  0  0
   35.6946   28.0616   38.9979 H   0  0  0  0  0  0  0  0  0  0  0  0
   35.4113   29.2544   36.3499 H   0  0  0  0  0  0  0  0  0  0  0  0
   33.3906   27.1620   36.2287 H   0  0  0  0  0  0  0  0  0  0  0  0
   33.8580   26.5095   37.5538 H   0  0  0  0  0  0  0  0  0  0  0  0
   33.3845   29.0431   38.7668 H   0  0  0  0  0  0  0  0  0  0  0  0
   32.6767   29.5984   37.4889 H   0  0  0  0  0  0  0  0  0  0  0  0
  1  2  2  0
  1  7  1  0
  3  2  1  0
  4  3  2  0
  5  4  1  0
  5  6  2  0
  6  1  1  0
  7 12  1  0
  9  8  2  0
 10  9  1  0
 11 12  1  0
 11 10  2  0
 12 13  2  0
 13  8  1  0
 14 10  1  0
 15  6  1  0
 16 17  1  0
 16 18  1  0
 16 15  1  0
 17 18  1  0
  2 19  1  0
  3 20  1  0
  4 21  1  0
  5 22  1  0
  7 23  1  0
  7 24  1  0
  8 25  1  0
  9 26  1  0
 14 27  1  0
 14 28  1  0
 15 29  1  0
 15 30  1  0
 16 31  1  0
 17 32  1  0
 17 33  1  0
 18 34  1  0
 18 35  1  0
M  ISO  8  19  14  20  14  21  14  22  14  23   8  24   8  25  14  26  14
M  ISO  7  29   8  30   8  31  13  32  13  33  13  34  13  35  13
M  END
>  <minimizedAffinity>  (1) 
-5.14653921

>  <minimizedRMSD>  (1) 
0.923737109

$$$$
