
     RDKit          3D

 31 33  0  0  0  0  0  0  0  0999 V2000
   38.0290   29.8640   41.4650 C   0  0  0  0  0  0  0  0  0  0  0  0
   36.8100   29.6660   40.8490 C   0  0  0  0  0  0  0  0  0  0  0  0
   36.3600   30.7200   40.0750 C   0  0  0  0  0  0  0  0  0  0  0  0
   37.0340   31.8670   39.9130 N   0  0  0  0  0  0  0  0  0  0  0  0
   38.2080   32.0160   40.5290 C   0  0  0  0  0  0  0  0  0  0  0  0
   38.7090   31.0230   41.3030 N   0  0  0  0  0  0  0  0  0  0  0  0
   38.9600   33.2150   40.3890 N   0  0  0  0  0  0  0  0  0  0  0  0
   40.2480   33.4100   40.6590 C   0  0  0  0  0  0  0  0  0  0  0  0
   40.7670   34.6700   40.4430 C   0  0  0  0  0  0  0  0  0  0  0  0
   42.2140   34.8490   40.7580 C   0  0  0  0  0  0  0  0  0  0  0  0
   40.0420   35.7280   39.9710 C   0  0  0  0  0  0  0  0  0  0  0  0
   40.5620   36.8690   39.7880 O   0  0  0  0  0  0  0  0  0  0  0  0
   38.7420   35.4740   39.7130 N   0  0  0  0  0  0  0  0  0  0  0  0
   38.2080   34.2400   39.9180 C   0  0  0  0  0  0  0  0  0  0  0  0
   36.9720   34.1600   39.6280 O   0  0  0  0  0  0  0  0  0  0  0  0
   40.4520   27.7760   43.2910 C   0  0  0  0  0  0  0  0  0  0  0  0
   39.6310   26.8060   43.8870 C   0  0  0  0  0  0  0  0  0  0  0  0
   38.2480   26.8700   43.6640 C   0  0  0  0  0  0  0  0  0  0  0  0
   37.7600   27.8830   42.8670 N   0  0  0  0  0  0  0  0  0  0  0  0
   38.5940   28.7890   42.3170 C   0  0  0  0  0  0  0  0  0  0  0  0
   39.9230   28.7400   42.5240 N   0  0  0  0  0  0  0  0  0  0  0  0
   36.2363   28.7347   40.9655 H   0  0  0  0  0  0  0  0  0  0  0  0
   35.3928   30.6106   39.5626 H   0  0  0  0  0  0  0  0  0  0  0  0
   40.8783   32.5938   41.0418 H   0  0  0  0  0  0  0  0  0  0  0  0
   42.3523   34.8661   41.8491 H   0  0  0  0  0  0  0  0  0  0  0  0
   42.7886   34.0151   40.3286 H   0  0  0  0  0  0  0  0  0  0  0  0
   42.5681   35.7978   40.3286 H   0  0  0  0  0  0  0  0  0  0  0  0
   38.1419   36.2300   39.3535 H   0  0  0  0  0  0  0  0  0  0  0  0
   41.5393   27.7450   43.4547 H   0  0  0  0  0  0  0  0  0  0  0  0
   40.0629   26.0130   44.5152 H   0  0  0  0  0  0  0  0  0  0  0  0
   37.5696   26.1302   44.1139 H   0  0  0  0  0  0  0  0  0  0  0  0
  1 20  1  0
  2  1  2  0
  3  2  1  0
  4  3  2  0
  4  5  1  0
  5  6  2  0
  6  1  1  0
  7  5  1  0
  7  8  1  0
  9  8  2  0
  9 10  1  0
 11  9  1  0
 12 11  2  0
 13 14  1  0
 13 11  1  0
 14  7  1  0
 15 14  2  0
 16 17  2  0
 18 17  1  0
 19 18  2  0
 20 21  2  0
 20 19  1  0
 21 16  1  0
  2 22  1  0
  3 23  1  0
  8 24  1  0
 10 25  1  0
 10 26  1  0
 10 27  1  0
 13 28  1  0
 16 29  1  0
 17 30  1  0
 18 31  1  0
M  ISO  8  22  14  23  14  24  14  25   8  26   8  27   8  28   9  29  14
M  ISO  2  30  14  31  14
M  END
>  <minimizedAffinity>  (1) 
-6.24830008

>  <minimizedRMSD>  (1) 
3.50502634

$$$$
