
     RDKit          3D

 28 30  0  0  0  0  0  0  0  0999 V2000
   38.0100   29.7830   40.2230 C   0  0  0  0  0  0  0  0  0  0  0  0
   37.8300   29.2470   38.9760 C   0  0  0  0  0  0  0  0  0  0  0  0
   38.1480   30.0350   37.8940 C   0  0  0  0  0  0  0  0  0  0  0  0
   38.6200   31.2900   38.0340 N   0  0  0  0  0  0  0  0  0  0  0  0
   38.7810   31.7740   39.2560 C   0  0  0  0  0  0  0  0  0  0  0  0
   38.4850   31.0420   40.3470 N   0  0  0  0  0  0  0  0  0  0  0  0
   39.2750   33.0890   39.4800 N   0  0  0  0  0  0  0  0  0  0  0  0
   38.5440   33.9350   40.2570 C   0  0  0  0  0  0  0  0  0  0  0  0
   39.0150   35.2320   40.4870 C   0  0  0  0  0  0  0  0  0  0  0  0
   40.2180   35.5040   39.8700 C   0  0  0  0  0  0  0  0  0  0  0  0
   40.6860   36.6790   40.0550 O   0  0  0  0  0  0  0  0  0  0  0  0
   40.9610   34.6880   39.0990 N   0  0  0  0  0  0  0  0  0  0  0  0
   40.4430   33.4590   38.9240 C   0  0  0  0  0  0  0  0  0  0  0  0
   41.0960   32.6370   38.2040 O   0  0  0  0  0  0  0  0  0  0  0  0
   37.5700   28.8060   43.7460 C   0  0  0  0  0  0  0  0  0  0  0  0
   37.0810   27.4950   43.6360 C   0  0  0  0  0  0  0  0  0  0  0  0
   36.9080   26.9620   42.3690 C   0  0  0  0  0  0  0  0  0  0  0  0
   37.2200   27.7350   41.2760 N   0  0  0  0  0  0  0  0  0  0  0  0
   37.6850   28.9840   41.4220 C   0  0  0  0  0  0  0  0  0  0  0  0
   37.8580   29.5130   42.6340 N   0  0  0  0  0  0  0  0  0  0  0  0
   37.4456   28.2248   38.8442 H   0  0  0  0  0  0  0  0  0  0  0  0
   38.0127   29.6276   36.8812 H   0  0  0  0  0  0  0  0  0  0  0  0
   37.5933   33.6022   40.6991 H   0  0  0  0  0  0  0  0  0  0  0  0
   38.4758   35.9668   41.1029 H   0  0  0  0  0  0  0  0  0  0  0  0
   41.8538   34.9810   38.6773 H   0  0  0  0  0  0  0  0  0  0  0  0
   37.7183   29.2566   44.7385 H   0  0  0  0  0  0  0  0  0  0  0  0
   36.8411   26.9056   44.5332 H   0  0  0  0  0  0  0  0  0  0  0  0
   36.5276   25.9380   42.2399 H   0  0  0  0  0  0  0  0  0  0  0  0
  1  6  1  0
  1 19  1  0
  2  1  2  0
  3  4  2  0
  3  2  1  0
  4  5  1  0
  5  7  1  0
  5  6  2  0
  7  8  1  0
  8  9  2  0
 10 11  2  0
 10  9  1  0
 12 10  1  0
 13 12  1  0
 13  7  1  0
 14 13  2  0
 16 15  2  0
 17 16  1  0
 18 19  1  0
 18 17  2  0
 19 20  2  0
 20 15  1  0
  2 21  1  0
  3 22  1  0
  8 23  1  0
  9 24  1  0
 12 25  1  0
 15 26  1  0
 16 27  1  0
 17 28  1  0
M  ISO  8  21  14  22  14  23  14  24  14  25   9  26  14  27  14  28  14
M  END
>  <minimizedAffinity>  (1) 
-5.78560019

>  <minimizedRMSD>  (1) 
2.96615481

$$$$
