
     RDKit          3D

 31 33  0  0  0  0  0  0  0  0999 V2000
   37.5580   30.7700   40.7130 C   0  0  0  0  0  0  0  0  0  0  0  0
   36.8850   30.7020   39.5050 C   0  0  0  0  0  0  0  0  0  0  0  0
   37.0790   31.7770   38.6470 C   0  0  0  0  0  0  0  0  0  0  0  0
   37.8560   32.8220   38.9360 N   0  0  0  0  0  0  0  0  0  0  0  0
   38.4880   32.8520   40.1050 C   0  0  0  0  0  0  0  0  0  0  0  0
   38.3300   31.8290   40.9770 N   0  0  0  0  0  0  0  0  0  0  0  0
   38.0730   28.6520   43.6700 C   0  0  0  0  0  0  0  0  0  0  0  0
   37.1250   27.6210   43.4900 C   0  0  0  0  0  0  0  0  0  0  0  0
   36.3290   27.6760   42.3540 C   0  0  0  0  0  0  0  0  0  0  0  0
   36.4950   28.7120   41.4700 N   0  0  0  0  0  0  0  0  0  0  0  0
   37.4060   29.6690   41.6830 C   0  0  0  0  0  0  0  0  0  0  0  0
   38.2000   29.6480   42.7780 N   0  0  0  0  0  0  0  0  0  0  0  0
   39.3600   33.9960   40.4630 C   0  0  0  0  0  0  0  0  0  0  0  0
   40.5850   34.1090   39.5810 C   0  0  0  0  0  0  0  0  0  0  0  0
   41.0900   35.4910   39.9180 C   0  0  0  0  0  0  0  0  0  0  0  0
   39.8620   36.2980   40.2030 C   0  0  0  0  0  0  0  0  0  0  0  0
   38.6920   35.3250   40.1970 C   0  0  0  0  0  0  0  0  0  0  0  0
   36.2386   29.8518   39.2418 H   0  0  0  0  0  0  0  0  0  0  0  0
   36.5633   31.7659   37.6754 H   0  0  0  0  0  0  0  0  0  0  0  0
   38.7207   28.6391   44.5590 H   0  0  0  0  0  0  0  0  0  0  0  0
   37.0213   26.8060   44.2215 H   0  0  0  0  0  0  0  0  0  0  0  0
   35.5743   26.8984   42.1649 H   0  0  0  0  0  0  0  0  0  0  0  0
   39.5937   33.8031   41.5204 H   0  0  0  0  0  0  0  0  0  0  0  0
   40.3194   34.0294   38.5165 H   0  0  0  0  0  0  0  0  0  0  0  0
   41.3262   33.3136   39.7484 H   0  0  0  0  0  0  0  0  0  0  0  0
   41.7438   35.4580   40.8020 H   0  0  0  0  0  0  0  0  0  0  0  0
   41.6852   35.9225   39.0997 H   0  0  0  0  0  0  0  0  0  0  0  0
   39.9467   36.7838   41.1863 H   0  0  0  0  0  0  0  0  0  0  0  0
   39.7239   37.0895   39.4517 H   0  0  0  0  0  0  0  0  0  0  0  0
   37.9687   35.5703   40.9886 H   0  0  0  0  0  0  0  0  0  0  0  0
   38.1157   35.3428   39.2602 H   0  0  0  0  0  0  0  0  0  0  0  0
  1  6  1  0
  1 11  1  0
  2  1  2  0
  3  4  2  0
  3  2  1  0
  4  5  1  0
  5 13  1  0
  5  6  2  0
  8  7  2  0
  9  8  1  0
 10 11  1  0
 10  9  2  0
 11 12  2  0
 12  7  1  0
 14 15  1  0
 14 13  1  0
 15 16  1  0
 17 16  1  0
 17 13  1  0
  2 18  1  0
  3 19  1  0
  7 20  1  0
  8 21  1  0
  9 22  1  0
 13 23  1  0
 14 24  1  0
 14 25  1  0
 15 26  1  0
 15 27  1  0
 16 28  1  0
 16 29  1  0
 17 30  1  0
 17 31  1  0
M  ISO  8  18  14  19  14  20  14  21  14  22  14  23  13  24  13  25  13
M  ISO  6  26  13  27  13  28  13  29  13  30  13  31  13
M  END
>  <minimizedAffinity>  (1) 
-5.29539871

>  <minimizedRMSD>  (1) 
3.02290463

$$$$
