
     RDKit          3D

 41 43  0  0  1  0  0  0  0  0999 V2000
   38.1380   25.9330   42.2160 C   0  0  1  0  0  0  0  0  0  0  0  0
   36.9910   24.8970   42.2300 C   0  0  0  0  0  0  0  0  0  0  0  0
   37.4280   23.8300   41.2600 C   0  0  0  0  0  0  0  0  0  0  0  0
   38.9380   23.9450   41.3420 C   0  0  0  0  0  0  0  0  0  0  0  0
   39.0800   25.4520   41.1900 C   0  0  2  0  0  0  0  0  0  0  0  0
   36.2050   28.9620   41.0540 C   0  0  0  0  0  0  0  0  0  0  0  0
   36.5970   27.6240   41.1460 C   0  0  0  0  0  0  0  0  0  0  0  0
   37.6390   27.2890   42.0370 C   0  0  0  0  0  0  0  0  0  0  0  0
   38.2280   28.2660   42.7730 N   0  0  0  0  0  0  0  0  0  0  0  0
   37.8210   29.5560   42.6580 C   0  0  0  0  0  0  0  0  0  0  0  0
   36.8190   29.9030   41.8070 N   0  0  0  0  0  0  0  0  0  0  0  0
   40.5180   25.7290   41.4110 C   0  0  2  0  0  0  0  0  0  0  0  0
   41.4670   25.0640   40.4830 C   0  0  0  0  0  0  0  0  0  0  0  0
   40.8230   25.2370   42.8160 C   0  0  0  0  0  0  0  0  0  0  0  0
   41.6140   26.3820   43.3930 C   0  0  0  0  0  0  0  0  0  0  0  0
   41.6530   27.6530   42.8500 C   0  0  0  0  0  0  0  0  0  0  0  0
   42.3760   28.6670   43.3920 C   0  0  0  0  0  0  0  0  0  0  0  0
   43.1140   28.4570   44.5340 C   0  0  0  0  0  0  0  0  0  0  0  0
   43.0480   27.1780   45.0430 C   0  0  0  0  0  0  0  0  0  0  0  0
   42.3310   26.1760   44.5030 N   0  0  0  0  0  0  0  0  0  0  0  0
   38.6668   26.0105   43.1775 H   0  0  0  0  0  0  0  0  0  0  0  0
   36.8611   24.4756   43.2377 H   0  0  0  0  0  0  0  0  0  0  0  0
   36.0244   25.3422   41.9516 H   0  0  0  0  0  0  0  0  0  0  0  0
   37.0640   24.0383   40.2431 H   0  0  0  0  0  0  0  0  0  0  0  0
   37.0418   22.8269   41.4936 H   0  0  0  0  0  0  0  0  0  0  0  0
   39.3252   23.5912   42.3089 H   0  0  0  0  0  0  0  0  0  0  0  0
   39.4952   23.3445   40.6079 H   0  0  0  0  0  0  0  0  0  0  0  0
   38.8385   25.9355   40.2320 H   0  0  0  0  0  0  0  0  0  0  0  0
   35.3953   29.2507   40.3677 H   0  0  0  0  0  0  0  0  0  0  0  0
   36.1051   26.8501   40.5384 H   0  0  0  0  0  0  0  0  0  0  0  0
   38.3100   30.3334   43.2634 H   0  0  0  0  0  0  0  0  0  0  0  0
   40.6652   26.8060   41.2422 H   0  0  0  0  0  0  0  0  0  0  0  0
   42.2323   24.5277   41.0633 H   0  0  0  0  0  0  0  0  0  0  0  0
   40.9205   24.3502   39.8490 H   0  0  0  0  0  0  0  0  0  0  0  0
   41.9514   25.8213   39.8490 H   0  0  0  0  0  0  0  0  0  0  0  0
   39.8987   25.0638   43.3868 H   0  0  0  0  0  0  0  0  0  0  0  0
   41.3581   24.2762   42.8396 H   0  0  0  0  0  0  0  0  0  0  0  0
   41.0720   27.8520   41.9374 H   0  0  0  0  0  0  0  0  0  0  0  0
   42.3715   29.6589   42.9166 H   0  0  0  0  0  0  0  0  0  0  0  0
   43.7121   29.2507   45.0056 H   0  0  0  0  0  0  0  0  0  0  0  0
   43.6224   26.9610   45.9557 H   0  0  0  0  0  0  0  0  0  0  0  0
  1  2  1  0
  3  4  1  0
  3  2  1  0
  5  4  1  0
  5 12  1  0
  5  1  1  0
  6  7  2  0
  6 11  1  0
  7  8  1  0
  8  1  1  0
  8  9  2  0
 10  9  1  0
 11 10  2  0
 12 14  1  0
 13 12  1  0
 14 15  1  0
 15 20  2  0
 16 17  2  0
 16 15  1  0
 17 18  1  0
 18 19  2  0
 20 19  1  0
  1 21  1  1
  2 22  1  0
  2 23  1  0
  3 24  1  0
  3 25  1  0
  4 26  1  0
  4 27  1  0
  5 28  1  6
  6 29  1  0
  7 30  1  0
 10 31  1  0
 12 32  1  1
 13 33  1  0
 13 34  1  0
 13 35  1  0
 14 36  1  0
 14 37  1  0
 16 38  1  0
 17 39  1  0
 18 40  1  0
 19 41  1  0
M  ISO  8  21  13  22  13  23  13  24  13  25  13  26  13  27  13  28  13
M  ISO  8  29  14  30  14  31  14  32   8  33   8  34   8  35   8  36   8
M  ISO  5  37   8  38  14  39  14  40  14  41  14
M  END
>  <minimizedAffinity>  (1) 
-4.64938593

>  <minimizedRMSD>  (1) 
5.79735708

$$$$
