
     RDKit          3D

 25 27  0  0  0  0  0  0  0  0999 V2000
   37.2750   29.7060   40.1190 C   0  0  0  0  0  0  0  0  0  0  0  0
   36.3150   29.4360   39.1760 C   0  0  0  0  0  0  0  0  0  0  0  0
   36.4160   30.1000   37.9750 C   0  0  0  0  0  0  0  0  0  0  0  0
   37.3940   30.9780   37.7070 N   0  0  0  0  0  0  0  0  0  0  0  0
   38.3040   31.2140   38.6390 C   0  0  0  0  0  0  0  0  0  0  0  0
   38.2610   30.5930   39.8410 N   0  0  0  0  0  0  0  0  0  0  0  0
   37.8480   28.9820   43.6730 C   0  0  0  0  0  0  0  0  0  0  0  0
   37.1500   27.7710   43.8670 C   0  0  0  0  0  0  0  0  0  0  0  0
   36.4900   27.2210   42.7620 C   0  0  0  0  0  0  0  0  0  0  0  0
   36.5500   27.8770   41.5510 N   0  0  0  0  0  0  0  0  0  0  0  0
   37.2340   29.0300   41.4330 C   0  0  0  0  0  0  0  0  0  0  0  0
   37.8840   29.5960   42.4720 N   0  0  0  0  0  0  0  0  0  0  0  0
   39.4370   32.1350   38.5220 C   0  0  0  0  0  0  0  0  0  0  0  0
   40.0790   33.0370   39.3750 C   0  0  0  0  0  0  0  0  0  0  0  0
   41.0860   33.5720   38.5900 C   0  0  0  0  0  0  0  0  0  0  0  0
   41.0530   33.0320   37.3560 N   0  0  0  0  0  0  0  0  0  0  0  0
   40.0510   32.1560   37.3060 N   0  0  0  0  0  0  0  0  0  0  0  0
   35.5019   28.7214   39.3714 H   0  0  0  0  0  0  0  0  0  0  0  0
   35.6609   29.9019   37.2000 H   0  0  0  0  0  0  0  0  0  0  0  0
   38.3767   29.4375   44.5233 H   0  0  0  0  0  0  0  0  0  0  0  0
   37.1255   27.2777   44.8499 H   0  0  0  0  0  0  0  0  0  0  0  0
   35.9312   26.2784   42.8585 H   0  0  0  0  0  0  0  0  0  0  0  0
   39.8402   33.2676   40.4237 H   0  0  0  0  0  0  0  0  0  0  0  0
   41.8095   34.3295   38.9256 H   0  0  0  0  0  0  0  0  0  0  0  0
   41.6941   33.2583   36.5823 H   0  0  0  0  0  0  0  0  0  0  0  0
  1 11  1  0
  2  1  2  0
  3  2  1  0
  4  3  2  0
  4  5  1  0
  5  6  2  0
  6  1  1  0
  7  8  2  0
  9  8  1  0
 10  9  2  0
 11 10  1  0
 11 12  2  0
 12  7  1  0
 13  5  1  0
 13 14  1  0
 15 14  2  0
 16 15  1  0
 17 16  1  0
 17 13  2  0
  2 18  1  0
  3 19  1  0
  7 20  1  0
  8 21  1  0
  9 22  1  0
 14 23  1  0
 15 24  1  0
 16 25  1  0
M  ISO  8  18  14  19  14  20  14  21  14  22  14  23  14  24  14  25   9
M  END
>  <minimizedAffinity>  (1) 
-4.74557543

>  <minimizedRMSD>  (1) 
1.20722044

$$$$
