
     RDKit          3D

 20 21  0  0  0  0  0  0  0  0999 V2000
   36.8980   29.2670   39.8520 C   0  0  0  0  0  0  0  0  0  0  0  0
   35.6710   29.0220   39.2540 C   0  0  0  0  0  0  0  0  0  0  0  0
   35.5890   29.4370   37.9390 C   0  0  0  0  0  0  0  0  0  0  0  0
   36.5810   30.0270   37.2620 N   0  0  0  0  0  0  0  0  0  0  0  0
   37.7340   30.2370   37.8800 C   0  0  0  0  0  0  0  0  0  0  0  0
   37.8870   29.8610   39.1610 N   0  0  0  0  0  0  0  0  0  0  0  0
   38.8270   30.8580   37.2210 N   0  0  0  0  0  0  0  0  0  0  0  0
   38.1810   29.1880   43.2960 C   0  0  0  0  0  0  0  0  0  0  0  0
   37.4530   28.1330   43.8820 C   0  0  0  0  0  0  0  0  0  0  0  0
   36.5330   27.4640   43.0920 C   0  0  0  0  0  0  0  0  0  0  0  0
   36.3690   27.8500   41.7830 N   0  0  0  0  0  0  0  0  0  0  0  0
   37.0810   28.8550   41.2660 C   0  0  0  0  0  0  0  0  0  0  0  0
   37.9770   29.5230   42.0050 N   0  0  0  0  0  0  0  0  0  0  0  0
   34.8352   28.5389   39.7813 H   0  0  0  0  0  0  0  0  0  0  0  0
   34.6391   29.2703   37.4099 H   0  0  0  0  0  0  0  0  0  0  0  0
   39.7129   31.0098   37.7241 H   0  0  0  0  0  0  0  0  0  0  0  0
   38.7343   31.1569   36.2397 H   0  0  0  0  0  0  0  0  0  0  0  0
   38.9196   29.7414   43.8945 H   0  0  0  0  0  0  0  0  0  0  0  0
   37.6105   27.8500   44.9332 H   0  0  0  0  0  0  0  0  0  0  0  0
   35.9413   26.6346   43.5067 H   0  0  0  0  0  0  0  0  0  0  0  0
  1 12  1  0
  2  1  2  0
  3  2  1  0
  4  5  1  0
  4  3  2  0
  5  6  2  0
  6  1  1  0
  7  5  1  0
  8  9  2  0
 10  9  1  0
 11 10  2  0
 12 11  1  0
 12 13  2  0
 13  8  1  0
  2 14  1  0
  3 15  1  0
  7 16  1  0
  7 17  1  0
  8 18  1  0
  9 19  1  0
 10 20  1  0
M  ISO  5  14  14  15  14  18  14  19  14  20  14
M  END
>  <minimizedAffinity>  (1) 
-3.8947022

>  <minimizedRMSD>  (1) 
0.154567882

$$$$
