
     RDKit          3D

 19 20  0  0  0  0  0  0  0  0999 V2000
   36.8380   29.2410   39.8530 C   0  0  0  0  0  0  0  0  0  0  0  0
   35.5760   29.0450   39.3060 C   0  0  0  0  0  0  0  0  0  0  0  0
   35.4650   29.4290   37.9700 C   0  0  0  0  0  0  0  0  0  0  0  0
   36.4630   29.9440   37.2490 N   0  0  0  0  0  0  0  0  0  0  0  0
   37.6500   30.1080   37.8310 C   0  0  0  0  0  0  0  0  0  0  0  0
   37.8520   29.7650   39.1210 N   0  0  0  0  0  0  0  0  0  0  0  0
   38.1830   29.2080   43.2740 C   0  0  0  0  0  0  0  0  0  0  0  0
   37.4780   28.1550   43.8790 C   0  0  0  0  0  0  0  0  0  0  0  0
   36.5530   27.4740   43.1040 C   0  0  0  0  0  0  0  0  0  0  0  0
   36.3620   27.8450   41.8000 N   0  0  0  0  0  0  0  0  0  0  0  0
   37.0670   28.8660   41.2670 C   0  0  0  0  0  0  0  0  0  0  0  0
   37.9820   29.5630   41.9830 N   0  0  0  0  0  0  0  0  0  0  0  0
   38.8030   30.6240   37.2500 O   0  0  0  0  0  0  0  0  0  0  0  0
   34.7363   28.6231   39.8778 H   0  0  0  0  0  0  0  0  0  0  0  0
   34.4900   29.2988   37.4777 H   0  0  0  0  0  0  0  0  0  0  0  0
   38.9233   29.7630   43.8689 H   0  0  0  0  0  0  0  0  0  0  0  0
   37.6536   27.8808   44.9297 H   0  0  0  0  0  0  0  0  0  0  0  0
   35.9764   26.6414   43.5333 H   0  0  0  0  0  0  0  0  0  0  0  0
   39.6342   30.7000   37.7824 H   0  0  0  0  0  0  0  0  0  0  0  0
  1 11  1  0
  2  1  2  0
  3  2  1  0
  4  5  1  0
  4  3  2  0
  5  6  2  0
  6  1  1  0
  7  8  2  0
  9  8  1  0
 10  9  2  0
 11 10  1  0
 11 12  2  0
 12  7  1  0
 13  5  1  0
  2 14  1  0
  3 15  1  0
  7 16  1  0
  8 17  1  0
  9 18  1  0
 13 19  1  0
M  ISO  6  14  14  15  14  16  14  17  14  18  14  19   3
M  END
>  <minimizedAffinity>  (1) 
-3.84617591

>  <minimizedRMSD>  (1) 
0.216726243

$$$$
