
     RDKit          3D

 33 34  0  0  1  0  0  0  0  0999 V2000
   39.1700   26.1100   42.2750 C   0  0  1  0  0  0  0  0  0  0  0  0
   38.9200   24.7530   41.5780 C   0  0  0  0  0  0  0  0  0  0  0  0
   37.5280   24.3560   42.0000 C   0  0  0  0  0  0  0  0  0  0  0  0
   36.8890   25.7140   42.2450 C   0  0  0  0  0  0  0  0  0  0  0  0
   37.9720   26.3500   43.1010 C   0  0  2  0  0  0  0  0  0  0  0  0
   41.9880   26.8980   44.6670 C   0  0  0  0  0  0  0  0  0  0  0  0
   40.7120   26.9720   44.0830 C   0  0  0  0  0  0  0  0  0  0  0  0
   40.4460   26.1340   42.9780 C   0  0  0  0  0  0  0  0  0  0  0  0
   41.4140   25.2920   42.5180 N   0  0  0  0  0  0  0  0  0  0  0  0
   42.6320   25.2540   43.1110 C   0  0  0  0  0  0  0  0  0  0  0  0
   42.9130   26.0500   44.1770 N   0  0  0  0  0  0  0  0  0  0  0  0
   37.5450   27.7580   43.2730 C   0  0  2  0  0  0  0  0  0  0  0  0
   36.8220   28.0810   44.5290 C   0  0  0  0  0  0  0  0  0  0  0  0
   36.6210   28.0650   42.1080 C   0  0  0  0  0  0  0  0  0  0  0  0
   37.0990   29.7760   41.6240 S   0  0  0  0  0  0  0  0  0  0  0  0
   39.2874   26.9446   41.5681 H   0  0  0  0  0  0  0  0  0  0  0  0
   39.6544   24.0048   41.9110 H   0  0  0  0  0  0  0  0  0  0  0  0
   39.0193   24.8224   40.4847 H   0  0  0  0  0  0  0  0  0  0  0  0
   37.0079   23.8047   41.2028 H   0  0  0  0  0  0  0  0  0  0  0  0
   37.4969   23.6815   42.8684 H   0  0  0  0  0  0  0  0  0  0  0  0
   36.7289   26.2673   41.3078 H   0  0  0  0  0  0  0  0  0  0  0  0
   35.8884   25.6852   42.7010 H   0  0  0  0  0  0  0  0  0  0  0  0
   38.1624   25.9770   44.1182 H   0  0  0  0  0  0  0  0  0  0  0  0
   42.2329   27.5360   45.5290 H   0  0  0  0  0  0  0  0  0  0  0  0
   39.9467   27.6591   44.4732 H   0  0  0  0  0  0  0  0  0  0  0  0
   43.4029   24.5707   42.7252 H   0  0  0  0  0  0  0  0  0  0  0  0
   38.4634   28.3619   43.3157 H   0  0  0  0  0  0  0  0  0  0  0  0
   37.4444   27.8029   45.3923 H   0  0  0  0  0  0  0  0  0  0  0  0
   36.6093   29.1597   44.5626 H   0  0  0  0  0  0  0  0  0  0  0  0
   35.8766   27.5197   44.5626 H   0  0  0  0  0  0  0  0  0  0  0  0
   36.7855   27.3609   41.2790 H   0  0  0  0  0  0  0  0  0  0  0  0
   35.5562   27.9740   42.3687 H   0  0  0  0  0  0  0  0  0  0  0  0
   37.3089   30.5274   42.7502 H   0  0  0  0  0  0  0  0  0  0  0  0
  1  8  1  0
  1  5  1  0
  2  3  1  0
  2  1  1  0
  3  4  1  0
  4  5  1  0
  5 12  1  0
  7  6  2  0
  8  7  1  0
  9  8  2  0
  9 10  1  0
 10 11  2  0
 11  6  1  0
 12 13  1  0
 14 12  1  0
 15 14  1  0
  1 16  1  6
  2 17  1  0
  2 18  1  0
  3 19  1  0
  3 20  1  0
  4 21  1  0
  4 22  1  0
  5 23  1  1
  6 24  1  0
  7 25  1  0
 10 26  1  0
 12 27  1  6
 13 28  1  0
 13 29  1  0
 13 30  1  0
 14 31  1  0
 14 32  1  0
 15 33  1  0
M  ISO  8  16  13  17  13  18  13  19  13  20  13  21  13  22  13  23  13
M  ISO  8  24  14  25  14  26  14  27   8  28   8  29   8  30   8  31   8
M  ISO  2  32   8  33  11
M  END
>  <minimizedAffinity>  (1) 
-4.44469023

>  <minimizedRMSD>  (1) 
0.335850805

$$$$
