
     RDKit          3D

 32 34  0  0  0  0  0  0  0  0999 V2000
   37.0380   29.4870   39.9680 C   0  0  0  0  0  0  0  0  0  0  0  0
   35.9840   29.0980   39.1670 C   0  0  0  0  0  0  0  0  0  0  0  0
   35.9830   29.6320   37.8920 C   0  0  0  0  0  0  0  0  0  0  0  0
   36.9100   30.4620   37.4340 N   0  0  0  0  0  0  0  0  0  0  0  0
   37.9140   30.8090   38.2500 C   0  0  0  0  0  0  0  0  0  0  0  0
   37.9890   30.3360   39.5030 N   0  0  0  0  0  0  0  0  0  0  0  0
   38.0690   29.1130   43.4880 C   0  0  0  0  0  0  0  0  0  0  0  0
   37.3110   28.0090   43.8920 C   0  0  0  0  0  0  0  0  0  0  0  0
   36.4600   27.4050   42.9680 C   0  0  0  0  0  0  0  0  0  0  0  0
   36.3930   27.9070   41.7020 N   0  0  0  0  0  0  0  0  0  0  0  0
   37.1480   28.9790   41.3580 C   0  0  0  0  0  0  0  0  0  0  0  0
   37.9810   29.5870   42.2270 N   0  0  0  0  0  0  0  0  0  0  0  0
   39.0230   31.7220   37.8940 C   0  0  0  0  0  0  0  0  0  0  0  0
   39.9350   31.9450   39.0910 C   0  0  0  0  0  0  0  0  0  0  0  0
   40.0250   33.3920   39.4180 C   0  0  0  0  0  0  0  0  0  0  0  0
   38.9160   33.9180   40.0650 C   0  0  0  0  0  0  0  0  0  0  0  0
   38.9370   35.2530   40.3960 C   0  0  0  0  0  0  0  0  0  0  0  0
   40.0220   36.0010   40.0860 N   0  0  0  0  0  0  0  0  0  0  0  0
   41.0960   35.4940   39.4610 C   0  0  0  0  0  0  0  0  0  0  0  0
   41.0800   34.1880   39.1350 N   0  0  0  0  0  0  0  0  0  0  0  0
   35.1998   28.4113   39.5183 H   0  0  0  0  0  0  0  0  0  0  0  0
   35.1624   29.3510   37.2155 H   0  0  0  0  0  0  0  0  0  0  0  0
   38.7447   29.6006   44.2061 H   0  0  0  0  0  0  0  0  0  0  0  0
   37.3851   27.6246   44.9200 H   0  0  0  0  0  0  0  0  0  0  0  0
   35.8509   26.5355   43.2561 H   0  0  0  0  0  0  0  0  0  0  0  0
   39.6058   31.2804   37.0722 H   0  0  0  0  0  0  0  0  0  0  0  0
   38.6015   32.6892   37.5830 H   0  0  0  0  0  0  0  0  0  0  0  0
   39.5315   31.4027   39.9588 H   0  0  0  0  0  0  0  0  0  0  0  0
   40.9408   31.5741   38.8444 H   0  0  0  0  0  0  0  0  0  0  0  0
   38.0474   33.2874   40.3056 H   0  0  0  0  0  0  0  0  0  0  0  0
   38.0779   35.7098   40.9092 H   0  0  0  0  0  0  0  0  0  0  0  0
   41.9635   36.1268   39.2222 H   0  0  0  0  0  0  0  0  0  0  0  0
  1 11  1  0
  2  1  2  0
  3  2  1  0
  4  3  2  0
  4  5  1  0
  5  6  2  0
  6  1  1  0
  7  8  2  0
  9  8  1  0
 10  9  2  0
 11 10  1  0
 11 12  2  0
 12  7  1  0
 13  5  1  0
 13 14  1  0
 14 15  1  0
 15 16  2  0
 16 17  1  0
 18 17  2  0
 19 18  1  0
 20 15  1  0
 20 19  2  0
  2 21  1  0
  3 22  1  0
  7 23  1  0
  8 24  1  0
  9 25  1  0
 13 26  1  0
 13 27  1  0
 14 28  1  0
 14 29  1  0
 16 30  1  0
 17 31  1  0
 19 32  1  0
M  ISO  8  21  14  22  14  23  14  24  14  25  14  26   8  27   8  28   8
M  ISO  4  29   8  30  14  31  14  32  14
M  END
>  <minimizedAffinity>  (1) 
-5.17352676

>  <minimizedRMSD>  (1) 
2.57876515

$$$$
