
     RDKit          3D

 31 33  0  0  0  0  0  0  0  0999 V2000
   36.7270   29.2080   40.0900 C   0  0  0  0  0  0  0  0  0  0  0  0
   35.9120   28.4660   39.2740 C   0  0  0  0  0  0  0  0  0  0  0  0
   35.7440   28.9630   37.9940 C   0  0  0  0  0  0  0  0  0  0  0  0
   36.3180   30.0800   37.5460 N   0  0  0  0  0  0  0  0  0  0  0  0
   37.1110   30.7720   38.3880 C   0  0  0  0  0  0  0  0  0  0  0  0
   37.3180   30.3490   39.6450 N   0  0  0  0  0  0  0  0  0  0  0  0
   38.0770   29.0450   43.5050 C   0  0  0  0  0  0  0  0  0  0  0  0
   37.4160   27.9360   44.0430 C   0  0  0  0  0  0  0  0  0  0  0  0
   36.5150   27.2600   43.2260 C   0  0  0  0  0  0  0  0  0  0  0  0
   36.3060   27.6870   41.9490 N   0  0  0  0  0  0  0  0  0  0  0  0
   36.9820   28.7730   41.4860 C   0  0  0  0  0  0  0  0  0  0  0  0
   37.8630   29.4590   42.2370 N   0  0  0  0  0  0  0  0  0  0  0  0
   37.8100   32.0240   38.0320 C   0  0  0  0  0  0  0  0  0  0  0  0
   39.1470   32.0790   38.7580 C   0  0  0  0  0  0  0  0  0  0  0  0
   39.2250   33.2320   39.6720 C   0  0  0  0  0  0  0  0  0  0  0  0
   40.1900   34.1930   39.5930 C   0  0  0  0  0  0  0  0  0  0  0  0
   39.9150   35.0960   40.6240 C   0  0  0  0  0  0  0  0  0  0  0  0
   38.8280   34.6570   41.2640 N   0  0  0  0  0  0  0  0  0  0  0  0
   38.4140   33.5300   40.6860 N   0  0  0  0  0  0  0  0  0  0  0  0
   35.4255   27.5398   39.6138 H   0  0  0  0  0  0  0  0  0  0  0  0
   35.0971   28.4022   37.3033 H   0  0  0  0  0  0  0  0  0  0  0  0
   38.7923   29.5964   44.1329 H   0  0  0  0  0  0  0  0  0  0  0  0
   37.6021   27.6093   45.0768 H   0  0  0  0  0  0  0  0  0  0  0  0
   35.9729   26.3833   43.6100 H   0  0  0  0  0  0  0  0  0  0  0  0
   37.9805   32.0533   36.9457 H   0  0  0  0  0  0  0  0  0  0  0  0
   37.1945   32.8862   38.3284 H   0  0  0  0  0  0  0  0  0  0  0  0
   39.2750   31.1541   39.3395 H   0  0  0  0  0  0  0  0  0  0  0  0
   39.9416   32.1848   38.0047 H   0  0  0  0  0  0  0  0  0  0  0  0
   41.0149   34.2463   38.8672 H   0  0  0  0  0  0  0  0  0  0  0  0
   40.4892   36.0029   40.8644 H   0  0  0  0  0  0  0  0  0  0  0  0
   38.3826   35.1147   42.0721 H   0  0  0  0  0  0  0  0  0  0  0  0
  1 11  1  0
  2  1  2  0
  3  2  1  0
  4  3  2  0
  4  5  1  0
  5  6  2  0
  6  1  1  0
  7  8  2  0
  9  8  1  0
 10  9  2  0
 11 10  1  0
 11 12  2  0
 12  7  1  0
 13  5  1  0
 13 14  1  0
 14 15  1  0
 15 19  2  0
 16 15  1  0
 16 17  2  0
 17 18  1  0
 19 18  1  0
  2 20  1  0
  3 21  1  0
  7 22  1  0
  8 23  1  0
  9 24  1  0
 13 25  1  0
 13 26  1  0
 14 27  1  0
 14 28  1  0
 16 29  1  0
 17 30  1  0
 18 31  1  0
M  ISO  8  20  14  21  14  22  14  23  14  24  14  25   8  26   8  27   8
M  ISO  4  28   8  29  14  30  14  31   9
M  END
>  <minimizedAffinity>  (1) 
-5.11496115

>  <minimizedRMSD>  (1) 
1.80635917

$$$$
