
     RDKit          3D

 36 38  0  0  0  0  0  0  0  0999 V2000
   36.5620   29.1210   40.1610 C   0  0  0  0  0  0  0  0  0  0  0  0
   35.7800   28.3260   39.3650 C   0  0  0  0  0  0  0  0  0  0  0  0
   35.5720   28.7980   38.0740 C   0  0  0  0  0  0  0  0  0  0  0  0
   36.0790   29.9370   37.6060 N   0  0  0  0  0  0  0  0  0  0  0  0
   36.8380   30.6800   38.4250 C   0  0  0  0  0  0  0  0  0  0  0  0
   37.0770   30.2790   39.6840 N   0  0  0  0  0  0  0  0  0  0  0  0
   38.0210   29.0430   43.5450 C   0  0  0  0  0  0  0  0  0  0  0  0
   37.3680   27.9410   44.1230 C   0  0  0  0  0  0  0  0  0  0  0  0
   36.4430   27.2430   43.3520 C   0  0  0  0  0  0  0  0  0  0  0  0
   36.2010   27.6500   42.0690 N   0  0  0  0  0  0  0  0  0  0  0  0
   36.8530   28.7160   41.5560 C   0  0  0  0  0  0  0  0  0  0  0  0
   37.7610   29.4200   42.2770 N   0  0  0  0  0  0  0  0  0  0  0  0
   37.4760   31.9780   38.0530 C   0  0  0  0  0  0  0  0  0  0  0  0
   37.5430   32.8630   39.2600 C   0  0  0  0  0  0  0  0  0  0  0  0
   38.8170   33.4350   39.5270 N   0  0  0  0  0  0  0  0  0  0  0  0
   39.9490   32.7550   38.9830 C   0  0  0  0  0  0  0  0  0  0  0  0
   40.7870   32.2780   40.1720 C   0  0  0  0  0  0  0  0  0  0  0  0
   39.6990   32.1740   41.2320 C   0  0  0  0  0  0  0  0  0  0  0  0
   38.9640   33.4790   40.9750 C   0  0  0  0  0  0  0  0  0  0  0  0
   35.3469   27.3802   39.7225 H   0  0  0  0  0  0  0  0  0  0  0  0
   34.9503   28.1933   37.3974 H   0  0  0  0  0  0  0  0  0  0  0  0
   38.7565   29.6074   44.1370 H   0  0  0  0  0  0  0  0  0  0  0  0
   37.5824   27.6378   45.1584 H   0  0  0  0  0  0  0  0  0  0  0  0
   35.9129   26.3743   43.7697 H   0  0  0  0  0  0  0  0  0  0  0  0
   38.4929   31.7927   37.6768 H   0  0  0  0  0  0  0  0  0  0  0  0
   36.8803   32.4693   37.2696 H   0  0  0  0  0  0  0  0  0  0  0  0
   36.8251   33.6844   39.1188 H   0  0  0  0  0  0  0  0  0  0  0  0
   37.3136   32.2185   40.1214 H   0  0  0  0  0  0  0  0  0  0  0  0
   39.6214   31.8950   38.3804 H   0  0  0  0  0  0  0  0  0  0  0  0
   40.5325   33.4184   38.3277 H   0  0  0  0  0  0  0  0  0  0  0  0
   41.2600   31.3047   39.9746 H   0  0  0  0  0  0  0  0  0  0  0  0
   41.6326   32.9300   40.4362 H   0  0  0  0  0  0  0  0  0  0  0  0
   39.0509   31.3003   41.0690 H   0  0  0  0  0  0  0  0  0  0  0  0
   40.0628   32.0392   42.2613 H   0  0  0  0  0  0  0  0  0  0  0  0
   39.5590   34.3473   41.2944 H   0  0  0  0  0  0  0  0  0  0  0  0
   38.0163   33.5812   41.5240 H   0  0  0  0  0  0  0  0  0  0  0  0
  1 11  1  0
  2  1  2  0
  3  2  1  0
  4  3  2  0
  4  5  1  0
  5  6  2  0
  6  1  1  0
  7  8  2  0
  9  8  1  0
 10  9  2  0
 11 10  1  0
 11 12  2  0
 12  7  1  0
 13  5  1  0
 13 14  1  0
 14 15  1  0
 15 19  1  0
 16 15  1  0
 16 17  1  0
 17 18  1  0
 19 18  1  0
  2 20  1  0
  3 21  1  0
  7 22  1  0
  8 23  1  0
  9 24  1  0
 13 25  1  0
 13 26  1  0
 14 27  1  0
 14 28  1  0
 16 29  1  0
 16 30  1  0
 17 31  1  0
 17 32  1  0
 18 33  1  0
 18 34  1  0
 19 35  1  0
 19 36  1  0
M  ISO  8  20  14  21  14  22  14  23  14  24  14  25   8  26   8  27   8
M  ISO  8  28   8  29  13  30  13  31  13  32  13  33  13  34  13  35  13
M  ISO  1  36  13
M  END
>  <minimizedAffinity>  (1) 
-4.5159502

>  <minimizedRMSD>  (1) 
0.908094525

$$$$
