
     RDKit          3D

 30 32  0  0  0  0  0  0  0  0999 V2000
   36.8460   28.8860   40.0780 C   0  0  0  0  0  0  0  0  0  0  0  0
   35.7200   28.2750   39.5370 C   0  0  0  0  0  0  0  0  0  0  0  0
   35.2700   28.8280   38.3500 C   0  0  0  0  0  0  0  0  0  0  0  0
   35.8460   29.8660   37.7450 N   0  0  0  0  0  0  0  0  0  0  0  0
   36.9340   30.4170   38.3140 C   0  0  0  0  0  0  0  0  0  0  0  0
   37.4380   29.9450   39.4650 N   0  0  0  0  0  0  0  0  0  0  0  0
   37.6140   28.5120   43.6620 C   0  0  0  0  0  0  0  0  0  0  0  0
   38.4960   27.4190   43.6540 C   0  0  0  0  0  0  0  0  0  0  0  0
   38.8150   26.8260   42.4260 C   0  0  0  0  0  0  0  0  0  0  0  0
   38.2700   27.3180   41.2860 N   0  0  0  0  0  0  0  0  0  0  0  0
   37.4200   28.3810   41.3480 C   0  0  0  0  0  0  0  0  0  0  0  0
   37.0840   28.9830   42.5080 N   0  0  0  0  0  0  0  0  0  0  0  0
   37.6920   31.5700   37.7760 C   0  0  0  0  0  0  0  0  0  0  0  0
   39.1840   31.2660   37.8300 C   0  0  0  0  0  0  0  0  0  0  0  0
   39.9440   32.3720   38.3370 N   0  0  0  0  0  0  0  0  0  0  0  0
   41.0960   32.8130   37.7510 C   0  0  0  0  0  0  0  0  0  0  0  0
   41.6010   33.8660   38.4360 N   0  0  0  0  0  0  0  0  0  0  0  0
   40.7340   34.0620   39.4550 C   0  0  0  0  0  0  0  0  0  0  0  0
   39.7560   33.1680   39.3830 N   0  0  0  0  0  0  0  0  0  0  0  0
   35.2245   27.4175   40.0157 H   0  0  0  0  0  0  0  0  0  0  0  0
   34.3821   28.3828   37.8773 H   0  0  0  0  0  0  0  0  0  0  0  0
   37.3506   28.9910   44.6165 H   0  0  0  0  0  0  0  0  0  0  0  0
   38.9267   27.0372   44.5914 H   0  0  0  0  0  0  0  0  0  0  0  0
   39.5022   25.9680   42.3866 H   0  0  0  0  0  0  0  0  0  0  0  0
   37.4777   32.4639   38.3802 H   0  0  0  0  0  0  0  0  0  0  0  0
   37.3921   31.7519   36.7334 H   0  0  0  0  0  0  0  0  0  0  0  0
   39.3449   30.3961   38.4838 H   0  0  0  0  0  0  0  0  0  0  0  0
   39.5250   31.0639   36.8039 H   0  0  0  0  0  0  0  0  0  0  0  0
   41.5495   32.3746   36.8498 H   0  0  0  0  0  0  0  0  0  0  0  0
   40.8253   34.8423   40.2250 H   0  0  0  0  0  0  0  0  0  0  0  0
  1 11  1  0
  2  1  2  0
  3  2  1  0
  4  5  1  0
  4  3  2  0
  5  6  2  0
  6  1  1  0
  8  7  2  0
  9  8  1  0
 10 11  1  0
 10  9  2  0
 11 12  2  0
 12  7  1  0
 13 14  1  0
 13  5  1  0
 14 15  1  0
 15 19  1  0
 16 15  1  0
 16 17  2  0
 17 18  1  0
 19 18  2  0
  2 20  1  0
  3 21  1  0
  7 22  1  0
  8 23  1  0
  9 24  1  0
 13 25  1  0
 13 26  1  0
 14 27  1  0
 14 28  1  0
 16 29  1  0
 18 30  1  0
M  ISO  8  20  14  21  14  22  14  23  14  24  14  25   8  26   8  27   8
M  ISO  3  28   8  29  14  30  14
M  END
>  <minimizedAffinity>  (1) 
-4.36573458

>  <minimizedRMSD>  (1) 
2.81040812

$$$$
