
     RDKit          3D

 30 32  0  0  0  0  0  0  0  0999 V2000
   38.4560   29.0350   41.8200 C   0  0  0  0  0  0  0  0  0  0  0  0
   38.5670   30.4070   41.7910 C   0  0  0  0  0  0  0  0  0  0  0  0
   37.6460   31.0610   40.9880 C   0  0  0  0  0  0  0  0  0  0  0  0
   36.7070   30.4470   40.2820 N   0  0  0  0  0  0  0  0  0  0  0  0
   36.6330   29.1090   40.3380 C   0  0  0  0  0  0  0  0  0  0  0  0
   37.5050   28.4020   41.1050 N   0  0  0  0  0  0  0  0  0  0  0  0
   39.7810   26.4180   44.0340 C   0  0  0  0  0  0  0  0  0  0  0  0
   41.1380   26.7870   44.1590 C   0  0  0  0  0  0  0  0  0  0  0  0
   41.5810   27.9360   43.4780 C   0  0  0  0  0  0  0  0  0  0  0  0
   40.6790   28.6270   42.7370 N   0  0  0  0  0  0  0  0  0  0  0  0
   39.3940   28.2340   42.6490 C   0  0  0  0  0  0  0  0  0  0  0  0
   38.9380   27.1450   43.2830 N   0  0  0  0  0  0  0  0  0  0  0  0
   35.6550   28.2650   39.6200 C   0  0  0  0  0  0  0  0  0  0  0  0
   34.4670   29.0620   39.2030 C   0  0  0  0  0  0  0  0  0  0  0  0
   34.3500   29.0640   37.6980 C   0  0  0  0  0  0  0  0  0  0  0  0
   32.9950   29.0270   37.1070 C   0  0  0  0  0  0  0  0  0  0  0  0
   33.3930   29.0450   35.3360 S   0  0  0  0  0  0  0  0  0  0  0  0
   35.2670   29.0990   35.6520 C   0  0  0  0  0  0  0  0  0  0  0  0
   35.3850   29.0980   36.8820 N   0  0  0  0  0  0  0  0  0  0  0  0
   39.3339   30.9470   42.3657 H   0  0  0  0  0  0  0  0  0  0  0  0
   37.6974   32.1584   40.9331 H   0  0  0  0  0  0  0  0  0  0  0  0
   39.4100   25.5247   44.5578 H   0  0  0  0  0  0  0  0  0  0  0  0
   41.8306   26.1921   44.7725 H   0  0  0  0  0  0  0  0  0  0  0  0
   42.6287   28.2644   43.5446 H   0  0  0  0  0  0  0  0  0  0  0  0
   36.1346   27.8396   38.7262 H   0  0  0  0  0  0  0  0  0  0  0  0
   35.3203   27.4640   40.2956 H   0  0  0  0  0  0  0  0  0  0  0  0
   33.5595   28.6184   39.6385 H   0  0  0  0  0  0  0  0  0  0  0  0
   34.5833   30.0967   39.5578 H   0  0  0  0  0  0  0  0  0  0  0  0
   32.0143   28.9968   37.6044 H   0  0  0  0  0  0  0  0  0  0  0  0
   36.0717   29.1254   34.9024 H   0  0  0  0  0  0  0  0  0  0  0  0
  1 11  1  0
  2  1  2  0
  3  2  1  0
  4  5  1  0
  4  3  2  0
  5  6  2  0
  6  1  1  0
  7  8  2  0
  9  8  1  0
 10  9  2  0
 11 10  1  0
 11 12  2  0
 12  7  1  0
 13  5  1  0
 14 13  1  0
 15 14  1  0
 16 15  2  0
 17 18  1  0
 17 16  1  0
 18 19  2  0
 19 15  1  0
  2 20  1  0
  3 21  1  0
  7 22  1  0
  8 23  1  0
  9 24  1  0
 13 25  1  0
 13 26  1  0
 14 27  1  0
 14 28  1  0
 16 29  1  0
 18 30  1  0
M  ISO  8  20  14  21  14  22  14  23  14  24  14  25   8  26   8  27   8
M  ISO  3  28   8  29  14  30  14
M  END
>  <minimizedAffinity>  (1) 
-3.98995495

>  <minimizedRMSD>  (1) 
4.70424604

$$$$
