
     RDKit          3D

 36 38  0  0  0  0  0  0  0  0999 V2000
   37.2930   32.7970   38.9020 C   0  0  0  0  0  0  0  0  0  0  0  0
   36.9790   29.3880   40.1510 C   0  0  0  0  0  0  0  0  0  0  0  0
   36.6900   28.6350   39.0260 C   0  0  0  0  0  0  0  0  0  0  0  0
   36.6080   29.3220   37.8460 C   0  0  0  0  0  0  0  0  0  0  0  0
   36.7850   30.6290   37.7350 N   0  0  0  0  0  0  0  0  0  0  0  0
   37.0660   31.3310   38.8500 C   0  0  0  0  0  0  0  0  0  0  0  0
   37.1580   30.7160   40.0270 N   0  0  0  0  0  0  0  0  0  0  0  0
   37.6100   28.8720   43.7360 C   0  0  0  0  0  0  0  0  0  0  0  0
   37.2880   27.5280   43.8990 C   0  0  0  0  0  0  0  0  0  0  0  0
   36.8580   26.8050   42.7850 C   0  0  0  0  0  0  0  0  0  0  0  0
   36.7700   27.4370   41.5890 N   0  0  0  0  0  0  0  0  0  0  0  0
   37.0890   28.7410   41.4670 C   0  0  0  0  0  0  0  0  0  0  0  0
   37.5100   29.4740   42.5290 N   0  0  0  0  0  0  0  0  0  0  0  0
   37.7530   33.1960   40.2830 C   0  0  0  0  0  0  0  0  0  0  0  0
   38.6100   34.4080   40.2220 C   0  0  0  0  0  0  0  0  0  0  0  0
   38.3420   35.6330   39.8190 N   0  0  0  0  0  0  0  0  0  0  0  0
   39.3930   36.3700   39.9420 O   0  0  0  0  0  0  0  0  0  0  0  0
   40.4000   35.6880   40.4240 C   0  0  0  0  0  0  0  0  0  0  0  0
   39.8890   34.4680   40.5920 N   0  0  0  0  0  0  0  0  0  0  0  0
   41.7040   36.1920   40.6850 N   0  0  0  0  0  0  0  0  0  0  0  0
   42.1060   36.4460   42.0240 C   0  0  0  0  0  0  0  0  0  0  0  0
   41.2460   36.8540   42.8920 N   0  0  0  0  0  0  0  0  0  0  0  0
   43.4520   36.2530   42.4130 N   0  0  0  0  0  0  0  0  0  0  0  0
   40.2510   37.0320   42.7400 H   0  0  0  0  0  0  0  0  0  0  0  0
   36.3550   33.3201   38.6645 H   0  0  0  0  0  0  0  0  0  0  0  0
   38.0665   33.0703   38.1692 H   0  0  0  0  0  0  0  0  0  0  0  0
   36.5353   27.5472   39.0779 H   0  0  0  0  0  0  0  0  0  0  0  0
   36.3808   28.7528   36.9325 H   0  0  0  0  0  0  0  0  0  0  0  0
   37.9518   29.4549   44.6040 H   0  0  0  0  0  0  0  0  0  0  0  0
   37.3705   27.0458   44.8843 H   0  0  0  0  0  0  0  0  0  0  0  0
   36.5951   25.7408   42.8761 H   0  0  0  0  0  0  0  0  0  0  0  0
   36.8737   33.4068   40.9095 H   0  0  0  0  0  0  0  0  0  0  0  0
   38.3390   32.3701   40.7126 H   0  0  0  0  0  0  0  0  0  0  0  0
   42.3542   36.3721   39.9068 H   0  0  0  0  0  0  0  0  0  0  0  0
   43.7389   36.4384   43.3847 H   0  0  0  0  0  0  0  0  0  0  0  0
   44.1454   35.9271   41.7246 H   0  0  0  0  0  0  0  0  0  0  0  0
  1 14  1  0
  2 12  1  0
  3  2  2  0
  4  3  1  0
  5  4  2  0
  5  6  1  0
  6  1  1  0
  6  7  2  0
  7  2  1  0
  8  9  2  0
 10  9  1  0
 11 10  2  0
 12 11  1  0
 12 13  2  0
 13  8  1  0
 15 14  1  0
 15 19  1  0
 16 17  1  0
 16 15  2  0
 17 18  1  0
 18 19  2  0
 18 20  1  0
 20 21  1  0
 21 23  1  0
 21 22  2  0
 24 22  1  0
  1 25  1  0
  1 26  1  0
  3 27  1  0
  4 28  1  0
  8 29  1  0
  9 30  1  0
 10 31  1  0
 14 32  1  0
 14 33  1  0
 20 34  1  0
 23 35  1  0
 23 36  1  0
M  ISO  8  25   8  26   8  27  14  28  14  29  14  30  14  31  14  32   8
M  ISO  1  33   8
M  END
>  <minimizedAffinity>  (1) 
-6.91357851

>  <minimizedRMSD>  (1) 
1.06198907

$$$$
