
     RDKit          3D

 43 47  0  0  0  0  0  0  0  0999 V2000
   38.7050   33.4120   39.6950 C   0  0  0  0  0  0  0  0  0  0  0  0
   37.2200   30.1590   40.4480 C   0  0  0  0  0  0  0  0  0  0  0  0
   36.5810   29.7820   39.2920 C   0  0  0  0  0  0  0  0  0  0  0  0
   36.6770   30.6760   38.2500 C   0  0  0  0  0  0  0  0  0  0  0  0
   37.3210   31.8210   38.3060 N   0  0  0  0  0  0  0  0  0  0  0  0
   37.9380   32.1630   39.4580 C   0  0  0  0  0  0  0  0  0  0  0  0
   37.8820   31.3290   40.5160 N   0  0  0  0  0  0  0  0  0  0  0  0
   37.9310   28.7380   43.7690 C   0  0  0  0  0  0  0  0  0  0  0  0
   37.0840   27.6190   43.7900 C   0  0  0  0  0  0  0  0  0  0  0  0
   36.2890   27.3650   42.6790 C   0  0  0  0  0  0  0  0  0  0  0  0
   36.3620   28.2100   41.6210 N   0  0  0  0  0  0  0  0  0  0  0  0
   37.1900   29.2750   41.6420 C   0  0  0  0  0  0  0  0  0  0  0  0
   37.9800   29.5610   42.6960 N   0  0  0  0  0  0  0  0  0  0  0  0
   40.0910   33.2710   39.0980 C   0  0  0  0  0  0  0  0  0  0  0  0
   41.1210   33.2140   40.1660 C   0  0  0  0  0  0  0  0  0  0  0  0
   41.2690   32.3850   41.1750 N   0  0  0  0  0  0  0  0  0  0  0  0
   42.3140   32.7170   41.8550 O   0  0  0  0  0  0  0  0  0  0  0  0
   42.9090   33.7620   41.3490 C   0  0  0  0  0  0  0  0  0  0  0  0
   42.1470   34.0470   40.3050 N   0  0  0  0  0  0  0  0  0  0  0  0
   44.1180   34.2310   42.0460 C   0  0  0  0  0  0  0  0  0  0  0  0
   45.3040   33.5640   42.0450 N   0  0  0  0  0  0  0  0  0  0  0  0
   46.3470   34.0720   42.7100 C   0  0  0  0  0  0  0  0  0  0  0  0
   46.3440   35.2220   43.4070 N   0  0  0  0  0  0  0  0  0  0  0  0
   45.1950   35.9220   43.4410 C   0  0  0  0  0  0  0  0  0  0  0  0
   45.1870   37.1010   44.1550 C   0  0  0  0  0  0  0  0  0  0  0  0
   44.0300   37.8470   44.2150 C   0  0  0  0  0  0  0  0  0  0  0  0
   42.9050   37.3950   43.5560 C   0  0  0  0  0  0  0  0  0  0  0  0
   42.9900   36.2070   42.8630 C   0  0  0  0  0  0  0  0  0  0  0  0
   44.1100   35.4110   42.7610 C   0  0  0  0  0  0  0  0  0  0  0  0
   38.1853   34.2577   39.2210 H   0  0  0  0  0  0  0  0  0  0  0  0
   38.7870   33.5938   40.7768 H   0  0  0  0  0  0  0  0  0  0  0  0
   36.0316   28.8330   39.2052 H   0  0  0  0  0  0  0  0  0  0  0  0
   36.1802   30.4143   37.3041 H   0  0  0  0  0  0  0  0  0  0  0  0
   38.5669   28.9499   44.6412 H   0  0  0  0  0  0  0  0  0  0  0  0
   37.0502   26.9568   44.6677 H   0  0  0  0  0  0  0  0  0  0  0  0
   35.6144   26.4964   42.6582 H   0  0  0  0  0  0  0  0  0  0  0  0
   40.1356   32.3462   38.5040 H   0  0  0  0  0  0  0  0  0  0  0  0
   40.2914   34.1449   38.4607 H   0  0  0  0  0  0  0  0  0  0  0  0
   47.2868   33.5009   42.6848 H   0  0  0  0  0  0  0  0  0  0  0  0
   46.0956   37.4431   44.6720 H   0  0  0  0  0  0  0  0  0  0  0  0
   44.0035   38.7901   44.7806 H   0  0  0  0  0  0  0  0  0  0  0  0
   41.9660   37.9674   43.5831 H   0  0  0  0  0  0  0  0  0  0  0  0
   42.0825   35.8634   42.3449 H   0  0  0  0  0  0  0  0  0  0  0  0
  2  7  1  0
  2 12  1  0
  3  2  2  0
  4  5  2  0
  4  3  1  0
  5  6  1  0
  6  1  1  0
  6  7  2  0
  8  9  2  0
 10  9  1  0
 11 12  1  0
 11 10  2  0
 12 13  2  0
 13  8  1  0
 14  1  1  0
 14 15  1  0
 15 19  1  0
 15 16  2  0
 16 17  1  0
 18 17  1  0
 18 20  1  0
 19 18  2  0
 20 29  1  0
 21 20  2  0
 21 22  1  0
 22 23  2  0
 23 24  1  0
 24 25  2  0
 25 26  1  0
 27 26  2  0
 28 27  1  0
 29 28  2  0
 29 24  1  0
  1 30  1  0
  1 31  1  0
  3 32  1  0
  4 33  1  0
  8 34  1  0
  9 35  1  0
 10 36  1  0
 14 37  1  0
 14 38  1  0
 22 39  1  0
 25 40  1  0
 26 41  1  0
 27 42  1  0
 28 43  1  0
M  ISO  8  30   8  31   8  32  14  33  14  34  14  35  14  36  14  37   8
M  ISO  6  38   8  39  14  40  14  41  14  42  14  43  14
M  END
>  <minimizedAffinity>  (1) 
-6.64093113

>  <minimizedRMSD>  (1) 
3.85094929

$$$$
