
     RDKit          3D

 38 41  0  0  0  0  0  0  0  0999 V2000
   37.6090   31.7740   37.7200 C   0  0  0  0  0  0  0  0  0  0  0  0
   36.6100   29.1280   40.0320 C   0  0  0  0  0  0  0  0  0  0  0  0
   35.7410   28.3390   39.2940 C   0  0  0  0  0  0  0  0  0  0  0  0
   35.5150   28.7420   38.0010 C   0  0  0  0  0  0  0  0  0  0  0  0
   36.0670   29.8020   37.4510 N   0  0  0  0  0  0  0  0  0  0  0  0
   36.9100   30.5520   38.1940 C   0  0  0  0  0  0  0  0  0  0  0  0
   37.1730   30.2100   39.4730 N   0  0  0  0  0  0  0  0  0  0  0  0
   38.1300   29.1770   43.3740 C   0  0  0  0  0  0  0  0  0  0  0  0
   37.4640   28.1050   44.0000 C   0  0  0  0  0  0  0  0  0  0  0  0
   36.5140   27.3850   43.2840 C   0  0  0  0  0  0  0  0  0  0  0  0
   36.2750   27.7560   42.0080 N   0  0  0  0  0  0  0  0  0  0  0  0
   36.9220   28.7810   41.4330 C   0  0  0  0  0  0  0  0  0  0  0  0
   37.8470   29.5010   42.0910 N   0  0  0  0  0  0  0  0  0  0  0  0
   39.0390   31.7560   38.2600 C   0  0  0  0  0  0  0  0  0  0  0  0
   39.2830   32.8950   39.1680 C   0  0  0  0  0  0  0  0  0  0  0  0
   38.4320   33.7710   39.6540 N   0  0  0  0  0  0  0  0  0  0  0  0
   39.0420   34.6200   40.4210 O   0  0  0  0  0  0  0  0  0  0  0  0
   40.3220   34.3340   40.4690 C   0  0  0  0  0  0  0  0  0  0  0  0
   40.4700   33.2460   39.6780 N   0  0  0  0  0  0  0  0  0  0  0  0
   41.3770   35.0340   41.2160 C   0  0  0  0  0  0  0  0  0  0  0  0
   41.2250   36.3110   41.7300 C   0  0  0  0  0  0  0  0  0  0  0  0
   42.2540   36.9120   42.4210 C   0  0  0  0  0  0  0  0  0  0  0  0
   43.4360   36.2050   42.5840 C   0  0  0  0  0  0  0  0  0  0  0  0
   43.5820   34.9170   42.0630 C   0  0  0  0  0  0  0  0  0  0  0  0
   42.5400   34.3920   41.4010 N   0  0  0  0  0  0  0  0  0  0  0  0
   37.6279   31.7875   36.6202 H   0  0  0  0  0  0  0  0  0  0  0  0
   37.0828   32.6714   38.0774 H   0  0  0  0  0  0  0  0  0  0  0  0
   35.2617   27.4445   39.7185 H   0  0  0  0  0  0  0  0  0  0  0  0
   34.8291   28.1406   37.3862 H   0  0  0  0  0  0  0  0  0  0  0  0
   38.8836   29.7533   43.9307 H   0  0  0  0  0  0  0  0  0  0  0  0
   37.6928   27.8406   45.0430 H   0  0  0  0  0  0  0  0  0  0  0  0
   35.9756   26.5419   43.7416 H   0  0  0  0  0  0  0  0  0  0  0  0
   39.2027   30.8176   38.8100 H   0  0  0  0  0  0  0  0  0  0  0  0
   39.7327   31.8343   37.4099 H   0  0  0  0  0  0  0  0  0  0  0  0
   40.2764   36.8488   41.5855 H   0  0  0  0  0  0  0  0  0  0  0  0
   42.1412   37.9258   42.8326 H   0  0  0  0  0  0  0  0  0  0  0  0
   44.2713   36.6655   43.1319 H   0  0  0  0  0  0  0  0  0  0  0  0
   44.5180   34.3535   42.1910 H   0  0  0  0  0  0  0  0  0  0  0  0
  1  6  1  0
  1 14  1  0
  2 12  1  0
  3  2  2  0
  4  3  1  0
  5  4  2  0
  5  6  1  0
  6  7  2  0
  7  2  1  0
  8  9  2  0
 10  9  1  0
 11 10  2  0
 12 11  1  0
 12 13  2  0
 13  8  1  0
 14 15  1  0
 15 16  2  0
 15 19  1  0
 16 17  1  0
 17 18  1  0
 18 20  1  0
 19 18  2  0
 20 25  1  0
 20 21  2  0
 21 22  1  0
 22 23  2  0
 24 23  1  0
 25 24  2  0
  1 26  1  0
  1 27  1  0
  3 28  1  0
  4 29  1  0
  8 30  1  0
  9 31  1  0
 10 32  1  0
 14 33  1  0
 14 34  1  0
 21 35  1  0
 22 36  1  0
 23 37  1  0
 24 38  1  0
M  ISO  8  26   8  27   8  28  14  29  14  30  14  31  14  32  14  33   8
M  ISO  5  34   8  35  14  36  14  37  14  38  14
M  END
>  <minimizedAffinity>  (1) 
-5.862638

>  <minimizedRMSD>  (1) 
1.28794265

$$$$
