
     RDKit          3D

 38 40  0  0  0  0  0  0  0  0999 V2000
   36.7480   29.2470   40.0650 C   0  0  0  0  0  0  0  0  0  0  0  0
   35.7170   28.6930   39.3200 C   0  0  0  0  0  0  0  0  0  0  0  0
   35.6050   29.1560   38.0330 C   0  0  0  0  0  0  0  0  0  0  0  0
   36.4100   30.0730   37.4980 N   0  0  0  0  0  0  0  0  0  0  0  0
   37.3970   30.5860   38.2500 C   0  0  0  0  0  0  0  0  0  0  0  0
   37.5610   30.1760   39.5190 N   0  0  0  0  0  0  0  0  0  0  0  0
   38.0170   29.0990   43.5170 C   0  0  0  0  0  0  0  0  0  0  0  0
   37.3210   28.0140   44.0380 C   0  0  0  0  0  0  0  0  0  0  0  0
   36.4260   27.3390   43.2170 C   0  0  0  0  0  0  0  0  0  0  0  0
   36.2600   27.7610   41.9320 N   0  0  0  0  0  0  0  0  0  0  0  0
   36.9500   28.8140   41.4660 C   0  0  0  0  0  0  0  0  0  0  0  0
   37.8340   29.4970   42.2400 N   0  0  0  0  0  0  0  0  0  0  0  0
   38.3730   31.6100   37.8070 C   0  0  0  0  0  0  0  0  0  0  0  0
   39.4940   31.7060   38.8280 C   0  0  0  0  0  0  0  0  0  0  0  0
   39.4070   32.9980   39.5750 C   0  0  0  0  0  0  0  0  0  0  0  0
   38.6060   33.3590   40.5550 N   0  0  0  0  0  0  0  0  0  0  0  0
   38.8860   34.5810   40.9040 O   0  0  0  0  0  0  0  0  0  0  0  0
   39.8630   35.0590   40.1790 C   0  0  0  0  0  0  0  0  0  0  0  0
   40.1910   34.0690   39.3470 N   0  0  0  0  0  0  0  0  0  0  0  0
   40.5370   36.3700   40.1810 C   0  0  0  0  0  0  0  0  0  0  0  0
   41.2860   36.6110   41.4750 C   0  0  0  0  0  0  0  0  0  0  0  0
   39.5670   37.5340   40.0120 C   0  0  0  0  0  0  0  0  0  0  0  0
   35.0358   27.9344   39.7328 H   0  0  0  0  0  0  0  0  0  0  0  0
   34.8013   28.7448   37.4045 H   0  0  0  0  0  0  0  0  0  0  0  0
   38.7287   29.6423   44.1560 H   0  0  0  0  0  0  0  0  0  0  0  0
   37.4758   27.6962   45.0796 H   0  0  0  0  0  0  0  0  0  0  0  0
   35.8598   26.4766   43.5987 H   0  0  0  0  0  0  0  0  0  0  0  0
   38.7889   31.3235   36.8298 H   0  0  0  0  0  0  0  0  0  0  0  0
   37.8709   32.5845   37.7165 H   0  0  0  0  0  0  0  0  0  0  0  0
   39.4105   30.8701   39.5381 H   0  0  0  0  0  0  0  0  0  0  0  0
   40.4600   31.6604   38.3038 H   0  0  0  0  0  0  0  0  0  0  0  0
   41.2273   36.3316   39.3254 H   0  0  0  0  0  0  0  0  0  0  0  0
   40.6238   36.3979   42.3271 H   0  0  0  0  0  0  0  0  0  0  0  0
   42.1642   35.9501   41.5189 H   0  0  0  0  0  0  0  0  0  0  0  0
   41.6140   37.6600   41.5189 H   0  0  0  0  0  0  0  0  0  0  0  0
   39.2601   37.9023   41.0021 H   0  0  0  0  0  0  0  0  0  0  0  0
   40.0605   38.3448   39.4560 H   0  0  0  0  0  0  0  0  0  0  0  0
   38.6805   37.1948   39.4560 H   0  0  0  0  0  0  0  0  0  0  0  0
  1 11  1  0
  2  1  2  0
  3  2  1  0
  4  3  2  0
  4  5  1  0
  5  6  2  0
  6  1  1  0
  7  8  2  0
  9  8  1  0
 10  9  2  0
 11 10  1  0
 11 12  2  0
 12  7  1  0
 13  5  1  0
 13 14  1  0
 14 15  1  0
 15 16  2  0
 16 17  1  0
 18 20  1  0
 18 17  1  0
 19 15  1  0
 19 18  2  0
 20 21  1  0
 22 20  1  0
  2 23  1  0
  3 24  1  0
  7 25  1  0
  8 26  1  0
  9 27  1  0
 13 28  1  0
 13 29  1  0
 14 30  1  0
 14 31  1  0
 20 32  1  0
 21 33  1  0
 21 34  1  0
 21 35  1  0
 22 36  1  0
 22 37  1  0
 22 38  1  0
M  ISO  8  23  14  24  14  25  14  26  14  27  14  28   8  29   8  30   8
M  ISO  8  31   8  32   8  33   8  34   8  35   8  36   8  37   8  38   8
M  END
>  <minimizedAffinity>  (1) 
-5.56114435

>  <minimizedRMSD>  (1) 
0.675596654

$$$$
