
     RDKit          3D

 49 53  0  0  0  0  0  0  0  0999 V2000
   39.3610   31.1010   37.6600 C   0  0  0  0  0  0  0  0  0  0  0  0
   40.3230   31.8140   38.5210 C   0  0  0  0  0  0  0  0  0  0  0  0
   40.1340   32.4730   39.6630 N   0  0  0  0  0  0  0  0  0  0  0  0
   41.2720   32.9430   40.0730 O   0  0  0  0  0  0  0  0  0  0  0  0
   42.2370   32.6310   39.2550 C   0  0  0  0  0  0  0  0  0  0  0  0
   41.6460   31.9270   38.2880 N   0  0  0  0  0  0  0  0  0  0  0  0
   43.5330   33.0970   39.6090 N   0  0  0  0  0  0  0  0  0  0  0  0
   44.7370   32.6560   39.2520 N   0  0  0  0  0  0  0  0  0  0  0  0
   45.7130   33.3790   39.8250 C   0  0  0  0  0  0  0  0  0  0  0  0
   45.0660   34.3360   40.5930 C   0  0  0  0  0  0  0  0  0  0  0  0
   43.7010   34.1290   40.4330 C   0  0  0  0  0  0  0  0  0  0  0  0
   42.8200   35.0250   41.1410 N   0  0  0  0  0  0  0  0  0  0  0  0
   43.5420   35.6390   42.2270 C   0  0  0  0  0  0  0  0  0  0  0  0
   42.7650   36.5110   43.1250 C   0  0  0  0  0  0  0  0  0  0  0  0
   41.5640   36.9860   42.6820 O   0  0  0  0  0  0  0  0  0  0  0  0
   41.4110   36.9170   41.3000 C   0  0  0  0  0  0  0  0  0  0  0  0
   41.4450   35.4150   40.9990 C   0  0  0  0  0  0  0  0  0  0  0  0
   37.9660   31.6740   37.8200 C   0  0  0  0  0  0  0  0  0  0  0  0
   36.5460   29.2680   40.1470 C   0  0  0  0  0  0  0  0  0  0  0  0
   35.4920   28.6980   39.4610 C   0  0  0  0  0  0  0  0  0  0  0  0
   35.2740   29.1490   38.1880 C   0  0  0  0  0  0  0  0  0  0  0  0
   36.0220   30.0910   37.6090 N   0  0  0  0  0  0  0  0  0  0  0  0
   37.0410   30.6250   38.3040 C   0  0  0  0  0  0  0  0  0  0  0  0
   37.2870   30.2110   39.5550 N   0  0  0  0  0  0  0  0  0  0  0  0
   38.0480   29.1180   43.5130 C   0  0  0  0  0  0  0  0  0  0  0  0
   37.3850   28.0320   44.0650 C   0  0  0  0  0  0  0  0  0  0  0  0
   36.4410   27.3530   43.3140 C   0  0  0  0  0  0  0  0  0  0  0  0
   36.1830   27.7700   42.0430 N   0  0  0  0  0  0  0  0  0  0  0  0
   36.8520   28.8390   41.5350 C   0  0  0  0  0  0  0  0  0  0  0  0
   37.7850   29.5270   42.2450 N   0  0  0  0  0  0  0  0  0  0  0  0
   39.3477   30.0369   37.9385 H   0  0  0  0  0  0  0  0  0  0  0  0
   39.6721   31.2190   36.6115 H   0  0  0  0  0  0  0  0  0  0  0  0
   46.7982   33.2412   39.7095 H   0  0  0  0  0  0  0  0  0  0  0  0
   45.5426   35.1112   41.2110 H   0  0  0  0  0  0  0  0  0  0  0  0
   43.9760   34.8332   42.8372 H   0  0  0  0  0  0  0  0  0  0  0  0
   44.2803   36.2991   41.7484 H   0  0  0  0  0  0  0  0  0  0  0  0
   42.5710   35.9412   44.0457 H   0  0  0  0  0  0  0  0  0  0  0  0
   43.3886   37.4099   43.2394 H   0  0  0  0  0  0  0  0  0  0  0  0
   40.4513   37.3564   40.9902 H   0  0  0  0  0  0  0  0  0  0  0  0
   42.1892   37.4754   40.7590 H   0  0  0  0  0  0  0  0  0  0  0  0
   41.0942   35.2204   39.9748 H   0  0  0  0  0  0  0  0  0  0  0  0
   40.7887   34.8487   41.6761 H   0  0  0  0  0  0  0  0  0  0  0  0
   37.9924   32.4999   38.5461 H   0  0  0  0  0  0  0  0  0  0  0  0
   37.6139   32.0450   36.8462 H   0  0  0  0  0  0  0  0  0  0  0  0
   34.8597   27.9208   39.9150 H   0  0  0  0  0  0  0  0  0  0  0  0
   34.4424   28.7145   37.6139 H   0  0  0  0  0  0  0  0  0  0  0  0
   38.7981   29.6561   44.1112 H   0  0  0  0  0  0  0  0  0  0  0  0
   37.6080   27.7121   45.0936 H   0  0  0  0  0  0  0  0  0  0  0  0
   35.9070   26.4894   43.7373 H   0  0  0  0  0  0  0  0  0  0  0  0
  1 18  1  0
  1  2  1  0
  2  3  2  0
  3  4  1  0
  5  7  1  0
  5  4  1  0
  6  2  1  0
  6  5  2  0
  7 11  1  0
  8  7  1  0
  8  9  2  0
  9 10  1  0
 11 10  2  0
 11 12  1  0
 12 13  1  0
 13 14  1  0
 15 14  1  0
 16 15  1  0
 17 12  1  0
 17 16  1  0
 18 23  1  0
 19 29  1  0
 20 19  2  0
 21 20  1  0
 22 21  2  0
 22 23  1  0
 23 24  2  0
 24 19  1  0
 25 26  2  0
 27 26  1  0
 28 27  2  0
 29 28  1  0
 29 30  2  0
 30 25  1  0
  1 31  1  0
  1 32  1  0
  9 33  1  0
 10 34  1  0
 13 35  1  0
 13 36  1  0
 14 37  1  0
 14 38  1  0
 16 39  1  0
 16 40  1  0
 17 41  1  0
 17 42  1  0
 18 43  1  0
 18 44  1  0
 20 45  1  0
 21 46  1  0
 25 47  1  0
 26 48  1  0
 27 49  1  0
M  ISO  8  31   8  32   8  33  14  34  14  35  13  36  13  37  13  38  13
M  ISO  8  39  13  40  13  41  13  42  13  43   8  44   8  45  14  46  14
M  ISO  3  47  14  48  14  49  14
M  END
>  <minimizedAffinity>  (1) 
-6.29606438

>  <minimizedRMSD>  (1) 
2.59530306

$$$$
