
     RDKit          3D

 43 47  0  0  0  0  0  0  0  0999 V2000
   37.5120   32.0380   38.1760 C   0  0  0  0  0  0  0  0  0  0  0  0
   36.5570   29.1920   40.2440 C   0  0  0  0  0  0  0  0  0  0  0  0
   35.7330   28.4440   39.4350 C   0  0  0  0  0  0  0  0  0  0  0  0
   35.5060   28.9290   38.1660 C   0  0  0  0  0  0  0  0  0  0  0  0
   36.0390   30.0520   37.7190 N   0  0  0  0  0  0  0  0  0  0  0  0
   36.8430   30.7650   38.5320 C   0  0  0  0  0  0  0  0  0  0  0  0
   37.0890   30.3300   39.7730 N   0  0  0  0  0  0  0  0  0  0  0  0
   38.0560   29.0110   43.5970 C   0  0  0  0  0  0  0  0  0  0  0  0
   37.3880   27.9140   44.1490 C   0  0  0  0  0  0  0  0  0  0  0  0
   36.4390   27.2530   43.3720 C   0  0  0  0  0  0  0  0  0  0  0  0
   36.1880   27.6790   42.1210 N   0  0  0  0  0  0  0  0  0  0  0  0
   36.8610   28.7510   41.6280 C   0  0  0  0  0  0  0  0  0  0  0  0
   37.7940   29.4310   42.3390 N   0  0  0  0  0  0  0  0  0  0  0  0
   38.8800   31.7320   37.5800 C   0  0  0  0  0  0  0  0  0  0  0  0
   39.9560   32.2760   38.4340 C   0  0  0  0  0  0  0  0  0  0  0  0
   39.8890   32.8890   39.6140 N   0  0  0  0  0  0  0  0  0  0  0  0
   41.0990   33.1930   39.9930 O   0  0  0  0  0  0  0  0  0  0  0  0
   41.9760   32.8260   39.1500 C   0  0  0  0  0  0  0  0  0  0  0  0
   41.2650   32.2470   38.1640 N   0  0  0  0  0  0  0  0  0  0  0  0
   43.3240   33.0950   39.4410 N   0  0  0  0  0  0  0  0  0  0  0  0
   44.4590   32.5430   38.9600 N   0  0  0  0  0  0  0  0  0  0  0  0
   45.5330   33.1310   39.5140 C   0  0  0  0  0  0  0  0  0  0  0  0
   45.0640   34.1020   40.3900 C   0  0  0  0  0  0  0  0  0  0  0  0
   43.6630   34.0390   40.3050 C   0  0  0  0  0  0  0  0  0  0  0  0
   43.0400   35.0340   41.1950 C   0  0  0  0  0  0  0  0  0  0  0  0
   41.9350   35.7400   41.0160 C   0  0  0  0  0  0  0  0  0  0  0  0
   41.4430   36.7010   41.8260 C   0  0  0  0  0  0  0  0  0  0  0  0
   42.2920   36.9290   43.0170 C   0  0  0  0  0  0  0  0  0  0  0  0
   43.6700   35.6620   42.7050 S   0  0  0  0  0  0  0  0  0  0  0  0
   36.9022   32.5811   37.4390 H   0  0  0  0  0  0  0  0  0  0  0  0
   37.6303   32.6591   39.0762 H   0  0  0  0  0  0  0  0  0  0  0  0
   35.2781   27.5053   39.7843 H   0  0  0  0  0  0  0  0  0  0  0  0
   34.8510   28.3550   37.4941 H   0  0  0  0  0  0  0  0  0  0  0  0
   38.8090   29.5424   44.1975 H   0  0  0  0  0  0  0  0  0  0  0  0
   37.6068   27.5801   45.1740 H   0  0  0  0  0  0  0  0  0  0  0  0
   35.8975   26.3867   43.7797 H   0  0  0  0  0  0  0  0  0  0  0  0
   39.0017   30.6419   37.4965 H   0  0  0  0  0  0  0  0  0  0  0  0
   38.9458   32.2009   36.5871 H   0  0  0  0  0  0  0  0  0  0  0  0
   46.5867   32.8887   39.3116 H   0  0  0  0  0  0  0  0  0  0  0  0
   45.6633   34.7778   41.0179 H   0  0  0  0  0  0  0  0  0  0  0  0
   41.3543   35.5196   40.1082 H   0  0  0  0  0  0  0  0  0  0  0  0
   40.5138   37.2537   41.6235 H   0  0  0  0  0  0  0  0  0  0  0  0
   42.1608   37.6353   43.8500 H   0  0  0  0  0  0  0  0  0  0  0  0
  1  6  1  0
  2 12  1  0
  3  2  2  0
  4  3  1  0
  5  4  2  0
  5  6  1  0
  6  7  2  0
  7  2  1  0
  8  9  2  0
 10  9  1  0
 11 10  2  0
 12 11  1  0
 12 13  2  0
 13  8  1  0
 14  1  1  0
 14 15  1  0
 15 16  2  0
 16 17  1  0
 18 20  1  0
 18 17  1  0
 19 15  1  0
 19 18  2  0
 20 24  1  0
 21 20  1  0
 21 22  2  0
 22 23  1  0
 24 23  2  0
 24 25  1  0
 25 29  1  0
 26 25  2  0
 26 27  1  0
 27 28  2  0
 29 28  1  0
  1 30  1  0
  1 31  1  0
  3 32  1  0
  4 33  1  0
  8 34  1  0
  9 35  1  0
 10 36  1  0
 14 37  1  0
 14 38  1  0
 22 39  1  0
 23 40  1  0
 26 41  1  0
 27 42  1  0
 28 43  1  0
M  ISO  8  30   8  31   8  32  14  33  14  34  14  35  14  36  14  37   8
M  ISO  6  38   8  39  14  40  14  41  14  42  14  43  14
M  END
>  <minimizedAffinity>  (1) 
-6.25440502

>  <minimizedRMSD>  (1) 
2.58429193

$$$$
