
     RDKit          3D

 38 41  0  0  0  0  0  0  0  0999 V2000
   37.7210   31.6380   37.6400 C   0  0  0  0  0  0  0  0  0  0  0  0
   36.5750   29.1110   40.0210 C   0  0  0  0  0  0  0  0  0  0  0  0
   35.6290   28.3820   39.3240 C   0  0  0  0  0  0  0  0  0  0  0  0
   35.3940   28.7690   38.0340 C   0  0  0  0  0  0  0  0  0  0  0  0
   36.0160   29.7890   37.4340 N   0  0  0  0  0  0  0  0  0  0  0  0
   36.9360   30.4790   38.1490 C   0  0  0  0  0  0  0  0  0  0  0  0
   37.1950   30.1340   39.4090 N   0  0  0  0  0  0  0  0  0  0  0  0
   38.1120   29.1700   43.3560 C   0  0  0  0  0  0  0  0  0  0  0  0
   37.4620   28.1030   43.9870 C   0  0  0  0  0  0  0  0  0  0  0  0
   36.5190   27.3840   43.2790 C   0  0  0  0  0  0  0  0  0  0  0  0
   36.2460   27.7260   41.9950 N   0  0  0  0  0  0  0  0  0  0  0  0
   36.8980   28.7670   41.4230 C   0  0  0  0  0  0  0  0  0  0  0  0
   37.8300   29.5030   42.0730 N   0  0  0  0  0  0  0  0  0  0  0  0
   39.1680   31.4570   38.0080 C   0  0  0  0  0  0  0  0  0  0  0  0
   39.6210   32.4980   38.9500 C   0  0  0  0  0  0  0  0  0  0  0  0
   38.9300   33.4360   39.5740 N   0  0  0  0  0  0  0  0  0  0  0  0
   39.7330   34.1400   40.3140 O   0  0  0  0  0  0  0  0  0  0  0  0
   40.9490   33.7120   40.2170 C   0  0  0  0  0  0  0  0  0  0  0  0
   40.8870   32.6830   39.3640 N   0  0  0  0  0  0  0  0  0  0  0  0
   41.9240   34.4060   40.9850 N   0  0  0  0  0  0  0  0  0  0  0  0
   43.1320   34.0170   41.4180 N   0  0  0  0  0  0  0  0  0  0  0  0
   43.7250   34.9930   42.1240 C   0  0  0  0  0  0  0  0  0  0  0  0
   42.8320   36.0560   42.1300 C   0  0  0  0  0  0  0  0  0  0  0  0
   41.7310   35.6550   41.4150 C   0  0  0  0  0  0  0  0  0  0  0  0
   40.6410   36.6170   41.2790 C   0  0  0  0  0  0  0  0  0  0  0  0
   40.2930   37.2870   40.2750 O   0  0  0  0  0  0  0  0  0  0  0  0
   37.3403   32.5663   38.0909 H   0  0  0  0  0  0  0  0  0  0  0  0
   37.6233   31.6979   36.5460 H   0  0  0  0  0  0  0  0  0  0  0  0
   35.0947   27.5368   39.7825 H   0  0  0  0  0  0  0  0  0  0  0  0
   34.6473   28.2066   37.4542 H   0  0  0  0  0  0  0  0  0  0  0  0
   38.8650   29.7484   43.9113 H   0  0  0  0  0  0  0  0  0  0  0  0
   37.6982   27.8416   45.0290 H   0  0  0  0  0  0  0  0  0  0  0  0
   35.9938   26.5412   43.7522 H   0  0  0  0  0  0  0  0  0  0  0  0
   39.2968   30.4703   38.4768 H   0  0  0  0  0  0  0  0  0  0  0  0
   39.7698   31.5364   37.0906 H   0  0  0  0  0  0  0  0  0  0  0  0
   44.7159   34.9576   42.6003 H   0  0  0  0  0  0  0  0  0  0  0  0
   42.9786   37.0324   42.6148 H   0  0  0  0  0  0  0  0  0  0  0  0
   40.0385   36.7780   42.1851 H   0  0  0  0  0  0  0  0  0  0  0  0
  1 14  1  0
  1  6  1  0
  2 12  1  0
  3  2  2  0
  4  3  1  0
  5  4  2  0
  5  6  1  0
  6  7  2  0
  7  2  1  0
  8  9  2  0
 10  9  1  0
 11 10  2  0
 12 11  1  0
 12 13  2  0
 13  8  1  0
 14 15  1  0
 15 19  1  0
 15 16  2  0
 16 17  1  0
 18 17  1  0
 18 20  1  0
 19 18  2  0
 20 24  1  0
 20 21  1  0
 21 22  2  0
 22 23  1  0
 24 23  2  0
 25 24  1  0
 26 25  2  0
  1 27  1  0
  1 28  1  0
  3 29  1  0
  4 30  1  0
  8 31  1  0
  9 32  1  0
 10 33  1  0
 14 34  1  0
 14 35  1  0
 22 36  1  0
 23 37  1  0
 25 38  1  0
M  ISO  8  27   8  28   8  29  14  30  14  31  14  32  14  33  14  34   8
M  ISO  4  35   8  36  14  37  14  38   6
M  END
>  <minimizedAffinity>  (1) 
-6.05458069

>  <minimizedRMSD>  (1) 
0.607593596

$$$$
