
     RDKit          3D

 37 40  0  0  0  0  0  0  0  0999 V2000
   37.8070   31.7590   37.7370 C   0  0  0  0  0  0  0  0  0  0  0  0
   36.6180   29.1790   40.0250 C   0  0  0  0  0  0  0  0  0  0  0  0
   35.6930   28.4610   39.3030 C   0  0  0  0  0  0  0  0  0  0  0  0
   35.4820   28.8780   38.0080 C   0  0  0  0  0  0  0  0  0  0  0  0
   36.1140   29.9100   37.4510 N   0  0  0  0  0  0  0  0  0  0  0  0
   37.0110   30.5850   38.1930 C   0  0  0  0  0  0  0  0  0  0  0  0
   37.2520   30.2140   39.4670 N   0  0  0  0  0  0  0  0  0  0  0  0
   38.1090   29.1470   43.3940 C   0  0  0  0  0  0  0  0  0  0  0  0
   37.4230   28.0850   43.9980 C   0  0  0  0  0  0  0  0  0  0  0  0
   36.4710   27.4010   43.2590 C   0  0  0  0  0  0  0  0  0  0  0  0
   36.2280   27.7710   41.9800 N   0  0  0  0  0  0  0  0  0  0  0  0
   36.9100   28.8040   41.4240 C   0  0  0  0  0  0  0  0  0  0  0  0
   37.8530   29.5040   42.1140 N   0  0  0  0  0  0  0  0  0  0  0  0
   39.2660   31.5190   38.0050 C   0  0  0  0  0  0  0  0  0  0  0  0
   39.8030   32.5050   38.9670 C   0  0  0  0  0  0  0  0  0  0  0  0
   39.2160   33.5540   39.5360 N   0  0  0  0  0  0  0  0  0  0  0  0
   40.0760   34.1390   40.3180 O   0  0  0  0  0  0  0  0  0  0  0  0
   41.2160   33.5340   40.3030 C   0  0  0  0  0  0  0  0  0  0  0  0
   41.0590   32.5030   39.4560 N   0  0  0  0  0  0  0  0  0  0  0  0
   42.2450   34.0800   41.1210 N   0  0  0  0  0  0  0  0  0  0  0  0
   43.3600   33.5160   41.6220 N   0  0  0  0  0  0  0  0  0  0  0  0
   44.0490   34.4140   42.3470 C   0  0  0  0  0  0  0  0  0  0  0  0
   43.3270   35.5990   42.2980 C   0  0  0  0  0  0  0  0  0  0  0  0
   42.2070   35.3550   41.5240 C   0  0  0  0  0  0  0  0  0  0  0  0
   41.0450   36.7010   41.2550 S   0  0  0  0  0  0  0  0  0  0  0  0
   37.4785   32.6567   38.2812 H   0  0  0  0  0  0  0  0  0  0  0  0
   37.6548   31.9041   36.6573 H   0  0  0  0  0  0  0  0  0  0  0  0
   35.1541   27.6047   39.7346 H   0  0  0  0  0  0  0  0  0  0  0  0
   34.7500   28.3278   37.3986 H   0  0  0  0  0  0  0  0  0  0  0  0
   38.8671   29.6989   43.9690 H   0  0  0  0  0  0  0  0  0  0  0  0
   37.6360   27.7997   45.0388 H   0  0  0  0  0  0  0  0  0  0  0  0
   35.9170   26.5637   43.7085 H   0  0  0  0  0  0  0  0  0  0  0  0
   39.3930   30.5079   38.4192 H   0  0  0  0  0  0  0  0  0  0  0  0
   39.8154   31.6223   37.0576 H   0  0  0  0  0  0  0  0  0  0  0  0
   44.9986   34.2435   42.8755 H   0  0  0  0  0  0  0  0  0  0  0  0
   43.5945   36.5498   42.7821 H   0  0  0  0  0  0  0  0  0  0  0  0
   40.6237   37.1890   42.4638 H   0  0  0  0  0  0  0  0  0  0  0  0
  1 14  1  0
  1  6  1  0
  2 12  1  0
  3  2  2  0
  4  3  1  0
  5  4  2  0
  5  6  1  0
  6  7  2  0
  7  2  1  0
  8  9  2  0
 10  9  1  0
 11 10  2  0
 12 11  1  0
 12 13  2  0
 13  8  1  0
 14 15  1  0
 15 19  1  0
 15 16  2  0
 16 17  1  0
 18 17  1  0
 18 20  1  0
 19 18  2  0
 20 24  1  0
 20 21  1  0
 21 22  2  0
 23 22  1  0
 24 23  2  0
 25 24  1  0
  1 26  1  0
  1 27  1  0
  3 28  1  0
  4 29  1  0
  8 30  1  0
  9 31  1  0
 10 32  1  0
 14 33  1  0
 14 34  1  0
 22 35  1  0
 23 36  1  0
 25 37  1  0
M  ISO  8  26   8  27   8  28  14  29  14  30  14  31  14  32  14  33   8
M  ISO  4  34   8  35  14  36  14  37  11
M  END
>  <minimizedAffinity>  (1) 
-5.96586895

>  <minimizedRMSD>  (1) 
0.873890162

$$$$
