
     RDKit          3D

 27 29  0  0  0  0  0  0  0  0999 V2000
   39.2210   27.5100   43.5220 C   0  0  0  0  0  0  0  0  0  0  0  0
   38.6710   26.3560   42.8670 C   0  0  0  0  0  0  0  0  0  0  0  0
   37.9860   26.5480   41.6500 C   0  0  0  0  0  0  0  0  0  0  0  0
   37.8790   27.8190   41.1570 N   0  0  0  0  0  0  0  0  0  0  0  0
   38.4120   28.8870   41.8050 C   0  0  0  0  0  0  0  0  0  0  0  0
   39.0770   28.7340   42.9760 N   0  0  0  0  0  0  0  0  0  0  0  0
   38.3220   30.2180   41.3160 N   0  0  0  0  0  0  0  0  0  0  0  0
   39.2440   31.0580   41.8140 N   0  0  0  0  0  0  0  0  0  0  0  0
   39.0230   32.2790   41.2350 C   0  0  0  0  0  0  0  0  0  0  0  0
   37.9320   32.1100   40.3810 C   0  0  0  0  0  0  0  0  0  0  0  0
   37.4840   30.7860   40.4360 C   0  0  0  0  0  0  0  0  0  0  0  0
   36.3940   30.1300   39.7330 C   0  0  0  0  0  0  0  0  0  0  0  0
   36.5270   29.9210   38.3570 C   0  0  0  0  0  0  0  0  0  0  0  0
   35.5860   29.3240   37.5410 C   0  0  0  0  0  0  0  0  0  0  0  0
   34.4210   28.9010   38.1310 C   0  0  0  0  0  0  0  0  0  0  0  0
   34.2390   29.0840   39.4870 C   0  0  0  0  0  0  0  0  0  0  0  0
   35.2050   29.6850   40.2680 C   0  0  0  0  0  0  0  0  0  0  0  0
   39.7618   27.3945   44.4729 H   0  0  0  0  0  0  0  0  0  0  0  0
   38.7811   25.3518   43.3023 H   0  0  0  0  0  0  0  0  0  0  0  0
   37.5480   25.6957   41.1098 H   0  0  0  0  0  0  0  0  0  0  0  0
   39.5903   33.2054   41.4079 H   0  0  0  0  0  0  0  0  0  0  0  0
   37.4900   32.9008   39.7571 H   0  0  0  0  0  0  0  0  0  0  0  0
   37.4602   30.2609   37.8842 H   0  0  0  0  0  0  0  0  0  0  0  0
   35.7628   29.1930   36.4632 H   0  0  0  0  0  0  0  0  0  0  0  0
   33.6377   28.4194   37.5272 H   0  0  0  0  0  0  0  0  0  0  0  0
   33.3037   28.7434   39.9552 H   0  0  0  0  0  0  0  0  0  0  0  0
   35.0210   29.8120   41.3450 H   0  0  0  0  0  0  0  0  0  0  0  0
  2  1  2  0
  3  2  1  0
  4  3  2  0
  4  5  1  0
  5  6  2  0
  6  1  1  0
  7  5  1  0
  7  8  1  0
  9  8  2  0
 10 11  2  0
 10  9  1  0
 11  7  1  0
 12 17  1  0
 12 11  1  0
 13 12  2  0
 14 15  2  0
 14 13  1  0
 15 16  1  0
 16 17  2  0
  1 18  1  0
  2 19  1  0
  3 20  1  0
  9 21  1  0
 10 22  1  0
 13 23  1  0
 14 24  1  0
 15 25  1  0
 16 26  1  0
 17 27  1  0
M  ISO  8  18  14  19  14  20  14  21  14  22  14  23  14  24  14  25  14
M  ISO  2  26  14  27  14
M  END
>  <minimizedAffinity>  (1) 
-4.87867641

>  <minimizedRMSD>  (1) 
1.7329129

$$$$
