
     RDKit          3D

 51 55  0  0  0  0  0  0  0  0999 V2000
   39.4550   29.2630   37.1240 C   0  0  0  0  0  0  0  0  0  0  0  0
   40.0290   30.3180   37.9730 C   0  0  0  0  0  0  0  0  0  0  0  0
   39.4160   31.2090   38.7510 N   0  0  0  0  0  0  0  0  0  0  0  0
   40.3140   31.9610   39.3270 O   0  0  0  0  0  0  0  0  0  0  0  0
   41.5130   31.6110   38.9680 C   0  0  0  0  0  0  0  0  0  0  0  0
   41.3400   30.5880   38.1230 N   0  0  0  0  0  0  0  0  0  0  0  0
   42.5850   32.3650   39.5340 N   0  0  0  0  0  0  0  0  0  0  0  0
   43.8800   32.0460   39.6910 N   0  0  0  0  0  0  0  0  0  0  0  0
   44.5390   33.0570   40.2820 C   0  0  0  0  0  0  0  0  0  0  0  0
   43.6020   34.0550   40.5020 C   0  0  0  0  0  0  0  0  0  0  0  0
   42.3850   33.5970   40.0250 C   0  0  0  0  0  0  0  0  0  0  0  0
   41.2570   34.4620   40.1390 N   0  0  0  0  0  0  0  0  0  0  0  0
   40.1050   34.3680   41.0190 C   0  0  0  0  0  0  0  0  0  0  0  0
   38.8510   34.8700   40.3370 C   0  0  0  0  0  0  0  0  0  0  0  0
   38.9640   36.3260   39.9390 C   0  0  0  0  0  0  0  0  0  0  0  0
   40.4190   36.7410   39.8060 C   0  0  0  0  0  0  0  0  0  0  0  0
   41.2590   35.6200   39.2350 C   0  0  0  0  0  0  0  0  0  0  0  0
   37.9350   29.3240   37.1230 C   0  0  0  0  0  0  0  0  0  0  0  0
   37.0180   27.5230   40.1670 C   0  0  0  0  0  0  0  0  0  0  0  0
   36.4840   26.3400   39.7190 C   0  0  0  0  0  0  0  0  0  0  0  0
   36.4400   26.1600   38.3670 C   0  0  0  0  0  0  0  0  0  0  0  0
   36.8820   27.0640   37.4880 N   0  0  0  0  0  0  0  0  0  0  0  0
   37.3990   28.2120   37.9560 C   0  0  0  0  0  0  0  0  0  0  0  0
   37.4610   28.4300   39.2820 N   0  0  0  0  0  0  0  0  0  0  0  0
   38.0030   29.0350   43.3820 C   0  0  0  0  0  0  0  0  0  0  0  0
   37.2410   28.2800   44.2800 C   0  0  0  0  0  0  0  0  0  0  0  0
   36.4140   27.2860   43.7960 C   0  0  0  0  0  0  0  0  0  0  0  0
   36.3590   27.0620   42.4700 N   0  0  0  0  0  0  0  0  0  0  0  0
   37.1110   27.8110   41.6240 C   0  0  0  0  0  0  0  0  0  0  0  0
   37.9320   28.7920   42.0470 N   0  0  0  0  0  0  0  0  0  0  0  0
   39.8200   29.3927   36.0945 H   0  0  0  0  0  0  0  0  0  0  0  0
   39.7642   28.2865   37.5250 H   0  0  0  0  0  0  0  0  0  0  0  0
   45.6080   33.0869   40.5397 H   0  0  0  0  0  0  0  0  0  0  0  0
   43.7907   35.0324   40.9701 H   0  0  0  0  0  0  0  0  0  0  0  0
   39.9595   33.3167   41.3081 H   0  0  0  0  0  0  0  0  0  0  0  0
   40.2925   34.9923   41.9050 H   0  0  0  0  0  0  0  0  0  0  0  0
   38.6732   34.2680   39.4337 H   0  0  0  0  0  0  0  0  0  0  0  0
   38.0175   34.7768   41.0488 H   0  0  0  0  0  0  0  0  0  0  0  0
   38.4573   36.4759   38.9742 H   0  0  0  0  0  0  0  0  0  0  0  0
   38.4935   36.9411   40.7202 H   0  0  0  0  0  0  0  0  0  0  0  0
   40.4835   37.6131   39.1387 H   0  0  0  0  0  0  0  0  0  0  0  0
   40.8030   36.9882   40.8067 H   0  0  0  0  0  0  0  0  0  0  0  0
   40.8465   35.3190   38.2607 H   0  0  0  0  0  0  0  0  0  0  0  0
   42.2930   35.9760   39.1161 H   0  0  0  0  0  0  0  0  0  0  0  0
   37.6053   30.2873   37.5393 H   0  0  0  0  0  0  0  0  0  0  0  0
   37.5622   29.2264   36.0927 H   0  0  0  0  0  0  0  0  0  0  0  0
   36.1101   25.5751   40.4155 H   0  0  0  0  0  0  0  0  0  0  0  0
   36.0182   25.2206   37.9802 H   0  0  0  0  0  0  0  0  0  0  0  0
   38.6634   29.8299   43.7588 H   0  0  0  0  0  0  0  0  0  0  0  0
   37.3001   28.4763   45.3607 H   0  0  0  0  0  0  0  0  0  0  0  0
   35.8063   26.6833   44.4870 H   0  0  0  0  0  0  0  0  0  0  0  0
  1  2  1  0
  2  6  1  0
  2  3  2  0
  3  4  1  0
  5  4  1  0
  5  7  1  0
  6  5  2  0
  7  8  1  0
  7 11  1  0
  8  9  2  0
  9 10  1  0
 11 12  1  0
 11 10  2  0
 12 13  1  0
 14 13  1  0
 15 14  1  0
 16 15  1  0
 17 16  1  0
 17 12  1  0
 18  1  1  0
 18 23  1  0
 19 29  1  0
 20 19  2  0
 21 20  1  0
 22 23  1  0
 22 21  2  0
 23 24  2  0
 24 19  1  0
 25 26  2  0
 27 26  1  0
 28 27  2  0
 29 30  2  0
 29 28  1  0
 30 25  1  0
  1 31  1  0
  1 32  1  0
  9 33  1  0
 10 34  1  0
 13 35  1  0
 13 36  1  0
 14 37  1  0
 14 38  1  0
 15 39  1  0
 15 40  1  0
 16 41  1  0
 16 42  1  0
 17 43  1  0
 17 44  1  0
 18 45  1  0
 18 46  1  0
 20 47  1  0
 21 48  1  0
 25 49  1  0
 26 50  1  0
 27 51  1  0
M  ISO  8  31   8  32   8  33  14  34  14  35  13  36  13  37  13  38  13
M  ISO  8  39  13  40  13  41  13  42  13  43  13  44  13  45   8  46   8
M  ISO  5  47  14  48  14  49  14  50  14  51  14
M  END
>  <minimizedAffinity>  (1) 
-5.50035238

>  <minimizedRMSD>  (1) 
2.77015448

$$$$
