
     RDKit          3D

 38 39  0  0  1  0  0  0  0  0999 V2000
   37.8060   30.5990   41.2220 C   0  0  1  0  0  0  0  0  0  0  0  0
   38.9380   31.5910   41.1580 C   0  0  0  0  0  0  0  0  0  0  0  0
   38.3830   32.8880   40.6770 C   0  0  0  0  0  0  0  0  0  0  0  0
   37.6650   32.7770   39.3820 C   0  0  0  0  0  0  0  0  0  0  0  0
   36.8370   31.5450   39.1930 C   0  0  0  0  0  0  0  0  0  0  0  0
   37.3910   30.2970   39.8340 C   0  0  2  0  0  0  0  0  0  0  0  0
   37.5940   27.9770   43.7710 C   0  0  0  0  0  0  0  0  0  0  0  0
   38.8040   27.2560   43.5700 C   0  0  0  0  0  0  0  0  0  0  0  0
   39.6890   27.6810   42.5520 C   0  0  0  0  0  0  0  0  0  0  0  0
   39.3260   28.7600   41.8230 N   0  0  0  0  0  0  0  0  0  0  0  0
   38.1530   29.4260   42.0490 C   0  0  0  0  0  0  0  0  0  0  0  0
   37.2920   29.0420   43.0120 N   0  0  0  0  0  0  0  0  0  0  0  0
   36.4250   29.2060   39.5670 C   0  0  0  0  0  0  0  0  0  0  0  0
   35.9450   29.4800   38.1200 C   0  0  0  0  0  0  0  0  0  0  0  0
   37.0670   27.8290   39.4590 C   0  0  0  0  0  0  0  0  0  0  0  0
   35.1880   29.2320   40.3990 C   0  0  0  0  0  0  0  0  0  0  0  0
   36.9327   31.0196   41.7420 H   0  0  0  0  0  0  0  0  0  0  0  0
   39.3785   31.7206   42.1576 H   0  0  0  0  0  0  0  0  0  0  0  0
   39.7232   31.2333   40.4757 H   0  0  0  0  0  0  0  0  0  0  0  0
   37.6812   33.2692   41.4335 H   0  0  0  0  0  0  0  0  0  0  0  0
   39.2337   33.5675   40.5200 H   0  0  0  0  0  0  0  0  0  0  0  0
   36.9984   33.6473   39.2914 H   0  0  0  0  0  0  0  0  0  0  0  0
   38.4491   32.7275   38.6122 H   0  0  0  0  0  0  0  0  0  0  0  0
   35.8415   31.7346   39.6207 H   0  0  0  0  0  0  0  0  0  0  0  0
   36.8191   31.3511   38.1104 H   0  0  0  0  0  0  0  0  0  0  0  0
   38.3335   29.9207   39.4096 H   0  0  0  0  0  0  0  0  0  0  0  0
   36.8965   27.6572   44.5592 H   0  0  0  0  0  0  0  0  0  0  0  0
   39.0467   26.3839   44.1950 H   0  0  0  0  0  0  0  0  0  0  0  0
   40.6356   27.1542   42.3609 H   0  0  0  0  0  0  0  0  0  0  0  0
   34.9900   30.0252   38.1475 H   0  0  0  0  0  0  0  0  0  0  0  0
   36.6973   30.0847   37.5924 H   0  0  0  0  0  0  0  0  0  0  0  0
   35.8068   28.5247   37.5924 H   0  0  0  0  0  0  0  0  0  0  0  0
   37.2526   27.4309   40.4675 H   0  0  0  0  0  0  0  0  0  0  0  0
   36.3920   27.1513   38.9158 H   0  0  0  0  0  0  0  0  0  0  0  0
   38.0200   27.9104   38.9158 H   0  0  0  0  0  0  0  0  0  0  0  0
   35.4624   29.2262   41.4642 H   0  0  0  0  0  0  0  0  0  0  0  0
   34.6134   30.1424   40.1733 H   0  0  0  0  0  0  0  0  0  0  0  0
   34.5756   28.3465   40.1733 H   0  0  0  0  0  0  0  0  0  0  0  0
  1 11  1  0
  2  1  1  0
  3  2  1  0
  4  3  1  0
  5  4  1  0
  5  6  1  0
  6  1  1  0
  8  7  2  0
  9  8  1  0
 10 11  1  0
 10  9  2  0
 11 12  2  0
 12  7  1  0
 13  6  1  0
 13 16  1  0
 14 13  1  0
 15 13  1  0
  1 17  1  1
  2 18  1  0
  2 19  1  0
  3 20  1  0
  3 21  1  0
  4 22  1  0
  4 23  1  0
  5 24  1  0
  5 25  1  0
  6 26  1  6
  7 27  1  0
  8 28  1  0
  9 29  1  0
 14 30  1  0
 14 31  1  0
 14 32  1  0
 15 33  1  0
 15 34  1  0
 15 35  1  0
 16 36  1  0
 16 37  1  0
 16 38  1  0
M  ISO  8  17  13  18  13  19  13  20  13  21  13  22  13  23  13  24  13
M  ISO  8  25  13  26  13  27  14  28  14  29  14  30   8  31   8  32   8
M  ISO  6  33   8  34   8  35   8  36   8  37   8  38   8
M  END
>  <minimizedAffinity>  (1) 
-4.70599413

>  <minimizedRMSD>  (1) 
1.83401406

$$$$
