
     RDKit          3D

 31 33  0  0  1  0  0  0  0  0999 V2000
   36.8850   30.3810   40.3670 C   0  0  1  0  0  0  0  0  0  0  0  0
   37.5900   31.6740   40.6070 C   0  0  0  0  0  0  0  0  0  0  0  0
   37.2250   32.6210   39.5290 C   0  0  0  0  0  0  0  0  0  0  0  0
   37.3450   32.1130   38.1430 C   0  0  0  0  0  0  0  0  0  0  0  0
   37.0880   30.6650   37.9400 C   0  0  0  0  0  0  0  0  0  0  0  0
   37.4180   29.7720   39.0760 C   0  0  1  0  0  0  0  0  0  0  0  0
   38.0090   28.9390   43.5470 C   0  0  0  0  0  0  0  0  0  0  0  0
   37.2290   27.7600   43.6510 C   0  0  0  0  0  0  0  0  0  0  0  0
   36.3270   27.4560   42.6390 C   0  0  0  0  0  0  0  0  0  0  0  0
   36.2250   28.3170   41.5670 N   0  0  0  0  0  0  0  0  0  0  0  0
   37.0070   29.4430   41.5200 C   0  0  0  0  0  0  0  0  0  0  0  0
   37.8920   29.7620   42.4920 N   0  0  0  0  0  0  0  0  0  0  0  0
   38.8220   29.4250   39.2610 C   0  0  0  0  0  0  0  0  0  0  0  0
   39.9550   30.1450   39.2050 N   0  0  0  0  0  0  0  0  0  0  0  0
   40.9690   29.3670   39.4470 O   0  0  0  0  0  0  0  0  0  0  0  0
   40.5930   28.1540   39.6650 C   0  0  0  0  0  0  0  0  0  0  0  0
   39.2550   28.1630   39.5540 N   0  0  0  0  0  0  0  0  0  0  0  0
   35.8071   30.5743   40.2636 H   0  0  0  0  0  0  0  0  0  0  0  0
   37.2859   32.0862   41.5805 H   0  0  0  0  0  0  0  0  0  0  0  0
   38.6781   31.5124   40.6113 H   0  0  0  0  0  0  0  0  0  0  0  0
   36.1787   32.9217   39.6867 H   0  0  0  0  0  0  0  0  0  0  0  0
   37.9497   33.4452   39.6038 H   0  0  0  0  0  0  0  0  0  0  0  0
   36.6286   32.6693   37.5207 H   0  0  0  0  0  0  0  0  0  0  0  0
   38.4006   32.2606   37.8709 H   0  0  0  0  0  0  0  0  0  0  0  0
   36.0175   30.5429   37.7182 H   0  0  0  0  0  0  0  0  0  0  0  0
   37.7597   30.3604   37.1239 H   0  0  0  0  0  0  0  0  0  0  0  0
   36.9315   28.8200   38.8172 H   0  0  0  0  0  0  0  0  0  0  0  0
   38.7241   29.1847   44.3459 H   0  0  0  0  0  0  0  0  0  0  0  0
   37.3364   27.0951   44.5207 H   0  0  0  0  0  0  0  0  0  0  0  0
   35.7078   26.5483   42.6918 H   0  0  0  0  0  0  0  0  0  0  0  0
   41.2348   27.2906   39.8944 H   0  0  0  0  0  0  0  0  0  0  0  0
  1  2  1  0
  1 11  1  0
  3  2  1  0
  4  3  1  0
  5  4  1  0
  5  6  1  0
  6 13  1  0
  6  1  1  0
  7  8  2  0
  9  8  1  0
 10  9  2  0
 11 10  1  0
 11 12  2  0
 12  7  1  0
 13 17  1  0
 14 13  2  0
 14 15  1  0
 15 16  1  0
 17 16  2  0
  1 18  1  6
  2 19  1  0
  2 20  1  0
  3 21  1  0
  3 22  1  0
  4 23  1  0
  4 24  1  0
  5 25  1  0
  5 26  1  0
  6 27  1  6
  7 28  1  0
  8 29  1  0
  9 30  1  0
 16 31  1  0
M  ISO  8  18  13  19  13  20  13  21  13  22  13  23  13  24  13  25  13
M  ISO  6  26  13  27  13  28  14  29  14  30  14  31  14
M  END
>  <minimizedAffinity>  (1) 
-4.41517115

>  <minimizedRMSD>  (1) 
0.265152693

$$$$
