
     RDKit          3D

 27 28  0  0  1  0  0  0  0  0999 V2000
   36.9800   30.3940   40.3100 C   0  0  1  0  0  0  0  0  0  0  0  0
   37.5890   31.7370   40.5690 C   0  0  0  0  0  0  0  0  0  0  0  0
   37.1370   32.6580   39.4900 C   0  0  0  0  0  0  0  0  0  0  0  0
   37.3960   32.1550   38.1160 C   0  0  0  0  0  0  0  0  0  0  0  0
   37.2220   30.6820   37.9080 C   0  0  0  0  0  0  0  0  0  0  0  0
   37.6860   29.8290   39.0710 C   0  0  2  0  0  0  0  0  0  0  0  0
   38.2150   28.9720   43.4730 C   0  0  0  0  0  0  0  0  0  0  0  0
   37.3740   27.8380   43.6470 C   0  0  0  0  0  0  0  0  0  0  0  0
   36.3860   27.5540   42.6800 C   0  0  0  0  0  0  0  0  0  0  0  0
   36.2990   28.3990   41.6210 N   0  0  0  0  0  0  0  0  0  0  0  0
   37.1140   29.4760   41.4730 C   0  0  0  0  0  0  0  0  0  0  0  0
   38.0600   29.7550   42.3930 N   0  0  0  0  0  0  0  0  0  0  0  0
   37.1660   28.5480   38.8910 O   0  0  0  0  0  0  0  0  0  0  0  0
   35.8972   30.4940   40.1437 H   0  0  0  0  0  0  0  0  0  0  0  0
   37.2577   32.1156   41.5472 H   0  0  0  0  0  0  0  0  0  0  0  0
   38.6866   31.6656   40.5781 H   0  0  0  0  0  0  0  0  0  0  0  0
   36.0542   32.8161   39.6017 H   0  0  0  0  0  0  0  0  0  0  0  0
   37.7154   33.5869   39.6024 H   0  0  0  0  0  0  0  0  0  0  0  0
   36.7074   32.6741   37.4331 H   0  0  0  0  0  0  0  0  0  0  0  0
   38.4604   32.3559   37.9244 H   0  0  0  0  0  0  0  0  0  0  0  0
   36.1537   30.4818   37.7386 H   0  0  0  0  0  0  0  0  0  0  0  0
   37.8499   30.4091   37.0470 H   0  0  0  0  0  0  0  0  0  0  0  0
   38.7826   29.8169   39.1566 H   0  0  0  0  0  0  0  0  0  0  0  0
   38.9884   29.2064   44.2193 H   0  0  0  0  0  0  0  0  0  0  0  0
   37.4926   27.1886   44.5269 H   0  0  0  0  0  0  0  0  0  0  0  0
   35.7165   26.6869   42.7799 H   0  0  0  0  0  0  0  0  0  0  0  0
   36.9976   28.1331   39.7740 H   0  0  0  0  0  0  0  0  0  0  0  0
  1  2  1  0
  1 11  1  0
  3  2  1  0
  4  3  1  0
  5  4  1  0
  5  6  1  0
  6  1  1  0
  7  8  2  0
  9  8  1  0
 10  9  2  0
 11 10  1  0
 11 12  2  0
 12  7  1  0
 13  6  1  0
  1 14  1  6
  2 15  1  0
  2 16  1  0
  3 17  1  0
  3 18  1  0
  4 19  1  0
  4 20  1  0
  5 21  1  0
  5 22  1  0
  6 23  1  1
  7 24  1  0
  8 25  1  0
  9 26  1  0
 13 27  1  0
M  ISO  8  14  13  15  13  16  13  17  13  18  13  19  13  20  13  21  13
M  ISO  6  22  13  23  13  24  14  25  14  26  14  27   3
M  END
>  <minimizedAffinity>  (1) 
-4.14808702

>  <minimizedRMSD>  (1) 
0.0439845435

$$$$
