
     RDKit          3D

 29 30  0  0  1  0  0  0  0  0999 V2000
   36.9110   30.3800   40.3620 C   0  0  1  0  0  0  0  0  0  0  0  0
   37.6690   31.6520   40.5850 C   0  0  0  0  0  0  0  0  0  0  0  0
   37.2430   32.6210   39.5380 C   0  0  0  0  0  0  0  0  0  0  0  0
   37.3470   32.1090   38.1410 C   0  0  0  0  0  0  0  0  0  0  0  0
   37.0360   30.6580   37.9430 C   0  0  0  0  0  0  0  0  0  0  0  0
   37.4610   29.7550   39.0740 C   0  0  1  0  0  0  0  0  0  0  0  0
   38.0500   28.9330   43.5500 C   0  0  0  0  0  0  0  0  0  0  0  0
   37.2610   27.7570   43.6550 C   0  0  0  0  0  0  0  0  0  0  0  0
   36.3400   27.4520   42.6320 C   0  0  0  0  0  0  0  0  0  0  0  0
   36.2630   28.3170   41.5900 N   0  0  0  0  0  0  0  0  0  0  0  0
   37.0360   29.4410   41.5150 C   0  0  0  0  0  0  0  0  0  0  0  0
   37.9210   29.7450   42.4870 N   0  0  0  0  0  0  0  0  0  0  0  0
   38.9520   29.6390   39.0800 C   0  0  0  0  0  0  0  0  0  0  0  0
   35.8357   30.5924   40.2693 H   0  0  0  0  0  0  0  0  0  0  0  0
   37.4409   32.0542   41.5831 H   0  0  0  0  0  0  0  0  0  0  0  0
   38.7524   31.4710   40.5252 H   0  0  0  0  0  0  0  0  0  0  0  0
   36.1938   32.8918   39.7272 H   0  0  0  0  0  0  0  0  0  0  0  0
   37.9285   33.4784   39.6083 H   0  0  0  0  0  0  0  0  0  0  0  0
   36.6503   32.6894   37.5183 H   0  0  0  0  0  0  0  0  0  0  0  0
   38.4054   32.2232   37.8641 H   0  0  0  0  0  0  0  0  0  0  0  0
   35.9481   30.5565   37.8156 H   0  0  0  0  0  0  0  0  0  0  0  0
   37.6107   30.3379   37.0614 H   0  0  0  0  0  0  0  0  0  0  0  0
   37.0684   28.7327   38.9705 H   0  0  0  0  0  0  0  0  0  0  0  0
   38.7708   29.1807   44.3432 H   0  0  0  0  0  0  0  0  0  0  0  0
   37.3672   27.0916   44.5245 H   0  0  0  0  0  0  0  0  0  0  0  0
   35.7107   26.5509   42.6769 H   0  0  0  0  0  0  0  0  0  0  0  0
   39.3134   29.6109   40.1186 H   0  0  0  0  0  0  0  0  0  0  0  0
   39.2500   28.7150   38.5629 H   0  0  0  0  0  0  0  0  0  0  0  0
   39.3893   30.5058   38.5629 H   0  0  0  0  0  0  0  0  0  0  0  0
  1  2  1  0
  1 11  1  0
  3  2  1  0
  4  3  1  0
  5  4  1  0
  5  6  1  0
  6 13  1  0
  6  1  1  0
  7  8  2  0
  9  8  1  0
 10  9  2  0
 11 10  1  0
 11 12  2  0
 12  7  1  0
  1 14  1  6
  2 15  1  0
  2 16  1  0
  3 17  1  0
  3 18  1  0
  4 19  1  0
  4 20  1  0
  5 21  1  0
  5 22  1  0
  6 23  1  6
  7 24  1  0
  8 25  1  0
  9 26  1  0
 13 27  1  0
 13 28  1  0
 13 29  1  0
M  ISO  8  14  13  15  13  16  13  17  13  18  13  19  13  20  13  21  13
M  ISO  8  22  13  23  13  24  14  25  14  26  14  27   8  28   8  29   8
M  END
>  <minimizedAffinity>  (1) 
-4.13647223

>  <minimizedRMSD>  (1) 
0.131580904

$$$$
