
     RDKit          3D

 30 32  0  0  0  0  0  0  0  0999 V2000
   37.0380   32.1350   39.7990 C   0  0  0  0  0  0  0  0  0  0  0  0
   38.5280   32.2850   39.5940 C   0  0  0  0  0  0  0  0  0  0  0  0
   39.2920   31.2440   39.2700 N   0  0  0  0  0  0  0  0  0  0  0  0
   40.6080   31.2980   39.0420 C   0  0  0  0  0  0  0  0  0  0  0  0
   41.2180   32.5010   39.1500 N   0  0  0  0  0  0  0  0  0  0  0  0
   40.5350   33.6170   39.4750 C   0  0  0  0  0  0  0  0  0  0  0  0
   41.2130   34.8110   39.5770 C   0  0  0  0  0  0  0  0  0  0  0  0
   40.4770   35.9400   39.9230 C   0  0  0  0  0  0  0  0  0  0  0  0
   39.1110   35.8450   40.1530 C   0  0  0  0  0  0  0  0  0  0  0  0
   38.4820   34.6260   40.0370 C   0  0  0  0  0  0  0  0  0  0  0  0
   39.1840   33.4930   39.6950 C   0  0  0  0  0  0  0  0  0  0  0  0
   36.7510   31.4420   40.9530 O   0  0  0  0  0  0  0  0  0  0  0  0
   36.2550   30.1400   40.9530 C   0  0  0  0  0  0  0  0  0  0  0  0
   35.2750   29.8310   40.2490 O   0  0  0  0  0  0  0  0  0  0  0  0
   38.1850   29.5620   42.4380 C   0  0  0  0  0  0  0  0  0  0  0  0
   36.9780   29.2010   41.8340 C   0  0  0  0  0  0  0  0  0  0  0  0
   36.4390   27.9410   42.0560 C   0  0  0  0  0  0  0  0  0  0  0  0
   37.1580   27.1260   42.8730 N   0  0  0  0  0  0  0  0  0  0  0  0
   38.3160   27.4770   43.4500 C   0  0  0  0  0  0  0  0  0  0  0  0
   38.8410   28.7120   43.2310 N   0  0  0  0  0  0  0  0  0  0  0  0
   36.6129   31.5921   38.9419 H   0  0  0  0  0  0  0  0  0  0  0  0
   36.6003   33.1405   39.8845 H   0  0  0  0  0  0  0  0  0  0  0  0
   41.1762   30.3946   38.7755 H   0  0  0  0  0  0  0  0  0  0  0  0
   42.2957   34.8701   39.3919 H   0  0  0  0  0  0  0  0  0  0  0  0
   40.9804   36.9137   40.0149 H   0  0  0  0  0  0  0  0  0  0  0  0
   38.5336   36.7404   40.4269 H   0  0  0  0  0  0  0  0  0  0  0  0
   37.3997   34.5565   40.2208 H   0  0  0  0  0  0  0  0  0  0  0  0
   38.6018   30.5638   42.2570 H   0  0  0  0  0  0  0  0  0  0  0  0
   35.4902   27.6222   41.5998 H   0  0  0  0  0  0  0  0  0  0  0  0
   38.8425   26.7645   44.1020 H   0  0  0  0  0  0  0  0  0  0  0  0
  1 12  1  0
  2 11  1  0
  2  1  1  0
  3  2  2  0
  4  5  2  0
  4  3  1  0
  5  6  1  0
  6  7  1  0
  6 11  2  0
  7  8  2  0
  8  9  1  0
 10  9  2  0
 11 10  1  0
 12 13  1  0
 13 16  1  0
 14 13  2  0
 15 20  2  0
 16 17  2  0
 16 15  1  0
 17 18  1  0
 18 19  2  0
 20 19  1  0
  1 21  1  0
  1 22  1  0
  4 23  1  0
  7 24  1  0
  8 25  1  0
  9 26  1  0
 10 27  1  0
 15 28  1  0
 17 29  1  0
 19 30  1  0
M  ISO  8  21   8  22   8  23  14  24  14  25  14  26  14  27  14  28  14
M  ISO  2  29  14  30  14
M  END
>  <minimizedAffinity>  (1) 
-5.44590855

>  <minimizedRMSD>  (1) 
2.8771224

$$$$
