
     RDKit          3D

 29 30  0  0  0  0  0  0  0  0999 V2000
   38.7350   31.6570   39.9410 C   0  0  0  0  0  0  0  0  0  0  0  0
   39.0190   33.1010   40.0160 N   0  0  0  0  0  0  0  0  0  0  0  0
   40.2300   33.5650   40.4330 C   0  0  0  0  0  0  0  0  0  0  0  0
   40.4290   34.9420   40.4800 C   0  0  0  0  0  0  0  0  0  0  0  0
   41.7400   35.5000   40.9300 C   0  0  0  0  0  0  0  0  0  0  0  0
   39.4390   35.8370   40.1190 C   0  0  0  0  0  0  0  0  0  0  0  0
   39.6290   37.0940   40.1640 O   0  0  0  0  0  0  0  0  0  0  0  0
   38.2540   35.3380   39.7120 N   0  0  0  0  0  0  0  0  0  0  0  0
   38.0900   34.0030   39.6760 C   0  0  0  0  0  0  0  0  0  0  0  0
   36.9840   33.5350   39.2970 O   0  0  0  0  0  0  0  0  0  0  0  0
   38.3400   31.2720   41.1890 O   0  0  0  0  0  0  0  0  0  0  0  0
   37.2150   30.4990   41.4730 C   0  0  0  0  0  0  0  0  0  0  0  0
   36.0990   30.9290   41.1960 O   0  0  0  0  0  0  0  0  0  0  0  0
   38.7100   28.9910   42.8260 C   0  0  0  0  0  0  0  0  0  0  0  0
   37.5380   29.2000   42.1000 C   0  0  0  0  0  0  0  0  0  0  0  0
   36.6250   28.1670   41.9440 C   0  0  0  0  0  0  0  0  0  0  0  0
   36.9410   26.9860   42.5240 N   0  0  0  0  0  0  0  0  0  0  0  0
   38.0800   26.7850   43.2280 C   0  0  0  0  0  0  0  0  0  0  0  0
   38.9730   27.8020   43.3770 N   0  0  0  0  0  0  0  0  0  0  0  0
   37.9329   31.4653   39.2130 H   0  0  0  0  0  0  0  0  0  0  0  0
   39.6223   31.0947   39.6147 H   0  0  0  0  0  0  0  0  0  0  0  0
   41.0303   32.8692   40.7252 H   0  0  0  0  0  0  0  0  0  0  0  0
   41.7743   35.5146   42.0294 H   0  0  0  0  0  0  0  0  0  0  0  0
   42.5572   34.8717   40.5460 H   0  0  0  0  0  0  0  0  0  0  0  0
   41.8537   36.5245   40.5460 H   0  0  0  0  0  0  0  0  0  0  0  0
   37.4880   35.9678   39.4336 H   0  0  0  0  0  0  0  0  0  0  0  0
   39.4278   29.8157   42.9469 H   0  0  0  0  0  0  0  0  0  0  0  0
   35.6916   28.3013   41.3776 H   0  0  0  0  0  0  0  0  0  0  0  0
   38.2834   25.8023   43.6785 H   0  0  0  0  0  0  0  0  0  0  0  0
  1  2  1  0
  1 11  1  0
  2  3  1  0
  3  4  2  0
  4  5  1  0
  6  7  2  0
  6  4  1  0
  8  6  1  0
  9  8  1  0
  9  2  1  0
 10  9  2  0
 11 12  1  0
 12 15  1  0
 13 12  2  0
 14 19  2  0
 15 14  1  0
 16 15  2  0
 16 17  1  0
 17 18  2  0
 18 19  1  0
  1 20  1  0
  1 21  1  0
  3 22  1  0
  5 23  1  0
  5 24  1  0
  5 25  1  0
  8 26  1  0
 14 27  1  0
 16 28  1  0
 18 29  1  0
M  ISO  8  20   8  21   8  22  14  23   8  24   8  25   8  26   9  27  14
M  ISO  2  28  14  29  14
M  END
>  <minimizedAffinity>  (1) 
-5.29232025

>  <minimizedRMSD>  (1) 
1.67804146

$$$$
