
     RDKit          3D

 26 27  0  0  0  0  0  0  0  0999 V2000
   38.3510   31.5820   40.9160 O   0  0  0  0  0  0  0  0  0  0  0  0
   38.8530   31.8530   39.6660 C   0  0  0  0  0  0  0  0  0  0  0  0
   39.3600   33.2780   39.7400 C   0  0  0  0  0  0  0  0  0  0  0  0
   40.6440   33.6140   39.3660 C   0  0  0  0  0  0  0  0  0  0  0  0
   41.1370   34.8840   39.4180 C   0  0  0  0  0  0  0  0  0  0  0  0
   40.3190   35.9060   39.8680 C   0  0  0  0  0  0  0  0  0  0  0  0
   39.0340   35.5610   40.2400 C   0  0  0  0  0  0  0  0  0  0  0  0
   38.5140   34.2920   40.1980 C   0  0  0  0  0  0  0  0  0  0  0  0
   37.2170   30.8060   41.1570 C   0  0  0  0  0  0  0  0  0  0  0  0
   36.1110   31.1840   40.7670 O   0  0  0  0  0  0  0  0  0  0  0  0
   38.6570   29.3970   42.6770 C   0  0  0  0  0  0  0  0  0  0  0  0
   37.4920   29.5540   41.8920 C   0  0  0  0  0  0  0  0  0  0  0  0
   36.5760   28.5140   41.7950 C   0  0  0  0  0  0  0  0  0  0  0  0
   36.8830   27.3970   42.4840 N   0  0  0  0  0  0  0  0  0  0  0  0
   37.9820   27.2330   43.2330 C   0  0  0  0  0  0  0  0  0  0  0  0
   38.8750   28.2520   43.3240 N   0  0  0  0  0  0  0  0  0  0  0  0
   38.0630   31.7640   38.9058 H   0  0  0  0  0  0  0  0  0  0  0  0
   39.6486   31.1486   39.3818 H   0  0  0  0  0  0  0  0  0  0  0  0
   41.3069   32.8134   39.0059 H   0  0  0  0  0  0  0  0  0  0  0  0
   42.1709   35.0937   39.1065 H   0  0  0  0  0  0  0  0  0  0  0  0
   40.6757   36.9449   39.9267 H   0  0  0  0  0  0  0  0  0  0  0  0
   38.3763   36.3668   40.5979 H   0  0  0  0  0  0  0  0  0  0  0  0
   37.4802   34.0825   40.5100 H   0  0  0  0  0  0  0  0  0  0  0  0
   39.3835   30.2194   42.7540 H   0  0  0  0  0  0  0  0  0  0  0  0
   35.6584   28.5969   41.1940 H   0  0  0  0  0  0  0  0  0  0  0  0
   38.1581   26.2871   43.7661 H   0  0  0  0  0  0  0  0  0  0  0  0
  1  9  1  0
  2  3  1  0
  2  1  1  0
  3  8  2  0
  4  5  2  0
  4  3  1  0
  5  6  1  0
  6  7  2  0
  8  7  1  0
  9 12  1  0
 10  9  2  0
 11 16  2  0
 12 11  1  0
 13 12  2  0
 13 14  1  0
 14 15  2  0
 15 16  1  0
  2 17  1  0
  2 18  1  0
  4 19  1  0
  5 20  1  0
  6 21  1  0
  7 22  1  0
  8 23  1  0
 11 24  1  0
 13 25  1  0
 15 26  1  0
M  ISO  8  17   8  18   8  19  14  20  14  21  14  22  14  23  14  24  14
M  ISO  2  25  14  26  14
M  END
>  <minimizedAffinity>  (1) 
-4.61144114

>  <minimizedRMSD>  (1) 
1.89656913

$$$$
