
     RDKit          3D

 23 24  0  0  0  0  0  0  0  0999 V2000
   36.2620   30.2860   40.8610 C   0  0  0  0  0  0  0  0  0  0  0  0
   35.3260   30.0100   40.1130 O   0  0  0  0  0  0  0  0  0  0  0  0
   38.1600   29.7190   42.4220 C   0  0  0  0  0  0  0  0  0  0  0  0
   36.9740   29.3630   41.7680 C   0  0  0  0  0  0  0  0  0  0  0  0
   36.4290   28.0980   41.9600 C   0  0  0  0  0  0  0  0  0  0  0  0
   37.1110   27.2750   42.7950 N   0  0  0  0  0  0  0  0  0  0  0  0
   38.2500   27.6190   43.4230 C   0  0  0  0  0  0  0  0  0  0  0  0
   38.7700   28.8460   43.2300 N   0  0  0  0  0  0  0  0  0  0  0  0
   36.7510   31.5920   40.9080 O   0  0  0  0  0  0  0  0  0  0  0  0
   37.1500   32.3090   39.8010 C   0  0  0  0  0  0  0  0  0  0  0  0
   38.4180   32.8980   39.6880 C   0  0  0  0  0  0  0  0  0  0  0  0
   39.6400   32.5460   39.1920 C   0  0  0  0  0  0  0  0  0  0  0  0
   40.7190   33.3610   39.2300 C   0  0  0  0  0  0  0  0  0  0  0  0
   40.5050   34.6440   39.8320 C   0  0  0  0  0  0  0  0  0  0  0  0
   38.7230   34.6190   40.3270 S   0  0  0  0  0  0  0  0  0  0  0  0
   38.5908   30.7197   42.2704 H   0  0  0  0  0  0  0  0  0  0  0  0
   35.4992   27.7833   41.4637 H   0  0  0  0  0  0  0  0  0  0  0  0
   38.7530   26.9029   44.0895 H   0  0  0  0  0  0  0  0  0  0  0  0
   37.0574   31.6229   38.9462 H   0  0  0  0  0  0  0  0  0  0  0  0
   36.5013   33.1949   39.8674 H   0  0  0  0  0  0  0  0  0  0  0  0
   39.7530   31.5501   38.7388 H   0  0  0  0  0  0  0  0  0  0  0  0
   41.6963   33.0589   38.8255 H   0  0  0  0  0  0  0  0  0  0  0  0
   41.2334   35.4570   39.9683 H   0  0  0  0  0  0  0  0  0  0  0  0
  1  9  1  0
  1  4  1  0
  2  1  2  0
  3  8  2  0
  4  5  2  0
  4  3  1  0
  5  6  1  0
  6  7  2  0
  8  7  1  0
 10  9  1  0
 11 10  1  0
 11 15  1  0
 12 13  1  0
 12 11  2  0
 13 14  2  0
 14 15  1  0
  3 16  1  0
  5 17  1  0
  7 18  1  0
 10 19  1  0
 10 20  1  0
 12 21  1  0
 13 22  1  0
 14 23  1  0
M  ISO  8  16  14  17  14  18  14  19   8  20   8  21  14  22  14  23  14
M  END
>  <minimizedAffinity>  (1) 
-4.05639458

>  <minimizedRMSD>  (1) 
2.12574816

$$$$
