
     RDKit          3D

 22 23  0  0  0  0  0  0  0  0999 V2000
   36.1210   30.0200   40.9390 C   0  0  0  0  0  0  0  0  0  0  0  0
   35.1660   29.6580   40.2510 O   0  0  0  0  0  0  0  0  0  0  0  0
   38.1660   29.6230   42.3740 C   0  0  0  0  0  0  0  0  0  0  0  0
   36.9540   29.1700   41.8140 C   0  0  0  0  0  0  0  0  0  0  0  0
   36.5040   27.8820   42.0730 C   0  0  0  0  0  0  0  0  0  0  0  0
   37.2840   27.1190   42.8750 N   0  0  0  0  0  0  0  0  0  0  0  0
   38.4490   27.5530   43.4140 C   0  0  0  0  0  0  0  0  0  0  0  0
   38.8840   28.8170   43.1540 N   0  0  0  0  0  0  0  0  0  0  0  0
   36.5110   31.3590   40.9400 O   0  0  0  0  0  0  0  0  0  0  0  0
   37.0230   32.0110   39.8500 C   0  0  0  0  0  0  0  0  0  0  0  0
   38.1260   32.8900   39.9930 N   0  0  0  0  0  0  0  0  0  0  0  0
   38.1040   34.2370   40.0520 C   0  0  0  0  0  0  0  0  0  0  0  0
   39.3590   34.7200   40.1910 N   0  0  0  0  0  0  0  0  0  0  0  0
   40.1540   33.6210   40.2160 C   0  0  0  0  0  0  0  0  0  0  0  0
   39.4020   32.5070   40.0960 N   0  0  0  0  0  0  0  0  0  0  0  0
   38.5191   30.6439   42.1663 H   0  0  0  0  0  0  0  0  0  0  0  0
   35.5631   27.5014   41.6488 H   0  0  0  0  0  0  0  0  0  0  0  0
   39.0410   26.8870   44.0590 H   0  0  0  0  0  0  0  0  0  0  0  0
   36.2010   32.6031   39.4214 H   0  0  0  0  0  0  0  0  0  0  0  0
   37.4347   31.1924   39.2414 H   0  0  0  0  0  0  0  0  0  0  0  0
   37.1953   34.8542   39.9952 H   0  0  0  0  0  0  0  0  0  0  0  0
   41.2491   33.6358   40.3188 H   0  0  0  0  0  0  0  0  0  0  0  0
  1  9  1  0
  1  4  1  0
  2  1  2  0
  3  8  2  0
  4  5  2  0
  4  3  1  0
  5  6  1  0
  6  7  2  0
  8  7  1  0
 10 11  1  0
 10  9  1  0
 11 12  1  0
 11 15  1  0
 12 13  2  0
 13 14  1  0
 15 14  2  0
  3 16  1  0
  5 17  1  0
  7 18  1  0
 10 19  1  0
 10 20  1  0
 12 21  1  0
 14 22  1  0
M  ISO  7  16  14  17  14  18  14  19   8  20   8  21  14  22  14
M  END
>  <minimizedAffinity>  (1) 
-4.05002689

>  <minimizedRMSD>  (1) 
2.0263257

$$$$
