
     RDKit          3D

 17 17  0  0  0  0  0  0  0  0999 V2000
   38.0700   29.6390   42.4330 C   0  0  0  0  0  0  0  0  0  0  0  0
   36.8900   29.2180   41.7910 C   0  0  0  0  0  0  0  0  0  0  0  0
   36.4020   27.9360   42.0060 C   0  0  0  0  0  0  0  0  0  0  0  0
   37.1260   27.1530   42.8490 N   0  0  0  0  0  0  0  0  0  0  0  0
   38.2550   27.5570   43.4620 C   0  0  0  0  0  0  0  0  0  0  0  0
   38.7290   28.8100   43.2510 N   0  0  0  0  0  0  0  0  0  0  0  0
   36.1360   30.0940   40.8800 C   0  0  0  0  0  0  0  0  0  0  0  0
   35.2140   29.7620   40.1330 O   0  0  0  0  0  0  0  0  0  0  0  0
   36.5490   31.4280   40.9030 O   0  0  0  0  0  0  0  0  0  0  0  0
   37.0840   32.0890   39.8160 C   0  0  0  0  0  0  0  0  0  0  0  0
   38.5210   33.0330   40.4900 S   0  0  0  0  0  0  0  0  0  0  0  0
   38.4527   30.6558   42.2611 H   0  0  0  0  0  0  0  0  0  0  0  0
   35.4826   27.5748   41.5221 H   0  0  0  0  0  0  0  0  0  0  0  0
   38.7924   26.8711   44.1334 H   0  0  0  0  0  0  0  0  0  0  0  0
   36.3434   32.7736   39.3770 H   0  0  0  0  0  0  0  0  0  0  0  0
   37.3839   31.3949   39.0171 H   0  0  0  0  0  0  0  0  0  0  0  0
   38.4823   33.0076   41.8592 H   0  0  0  0  0  0  0  0  0  0  0  0
  1  6  2  0
  2  3  2  0
  2  1  1  0
  3  4  1  0
  4  5  2  0
  6  5  1  0
  7  9  1  0
  7  2  1  0
  8  7  2  0
 10 11  1  0
 10  9  1  0
  1 12  1  0
  3 13  1  0
  5 14  1  0
 10 15  1  0
 10 16  1  0
 11 17  1  0
M  ISO  6  12  14  13  14  14  14  15   8  16   8  17  11
M  END
>  <minimizedAffinity>  (1) 
-3.25089216

>  <minimizedRMSD>  (1) 
0.394897401

$$$$
