
     RDKit          3D

 28 30  0  0  0  0  0  0  0  0999 V2000
   37.3410   32.0380   40.0370 C   0  0  0  0  0  0  0  0  0  0  0  0
   36.5760   31.3540   40.9130 O   0  0  0  0  0  0  0  0  0  0  0  0
   36.1390   30.0470   40.8450 C   0  0  0  0  0  0  0  0  0  0  0  0
   35.2180   29.7900   40.0810 O   0  0  0  0  0  0  0  0  0  0  0  0
   37.8350   29.5300   42.6190 C   0  0  0  0  0  0  0  0  0  0  0  0
   36.8530   29.0970   41.7220 C   0  0  0  0  0  0  0  0  0  0  0  0
   36.5120   27.7660   41.6200 C   0  0  0  0  0  0  0  0  0  0  0  0
   37.1980   26.9340   42.4470 N   0  0  0  0  0  0  0  0  0  0  0  0
   38.1400   27.3380   43.3070 C   0  0  0  0  0  0  0  0  0  0  0  0
   38.4660   28.6590   43.3970 N   0  0  0  0  0  0  0  0  0  0  0  0
   38.7740   32.7190   40.9610 S   0  0  0  0  0  0  0  0  0  0  0  0
   41.2730   36.6770   39.4980 N   0  0  0  0  0  0  0  0  0  0  0  0
   40.4170   36.8960   40.5230 C   0  0  0  0  0  0  0  0  0  0  0  0
   39.8090   35.7320   40.8130 N   0  0  0  0  0  0  0  0  0  0  0  0
   40.2720   34.7980   39.9860 C   0  0  0  0  0  0  0  0  0  0  0  0
   39.9750   33.4510   39.8680 C   0  0  0  0  0  0  0  0  0  0  0  0
   40.6180   32.7280   38.9120 N   0  0  0  0  0  0  0  0  0  0  0  0
   41.5240   33.3110   38.0980 C   0  0  0  0  0  0  0  0  0  0  0  0
   41.8100   34.6100   38.2120 N   0  0  0  0  0  0  0  0  0  0  0  0
   41.2020   35.3630   39.1390 C   0  0  0  0  0  0  0  0  0  0  0  0
   37.6936   31.3645   39.2420 H   0  0  0  0  0  0  0  0  0  0  0  0
   36.7621   32.8491   39.5712 H   0  0  0  0  0  0  0  0  0  0  0  0
   38.0860   30.5992   42.6801 H   0  0  0  0  0  0  0  0  0  0  0  0
   35.7427   27.4042   40.9220 H   0  0  0  0  0  0  0  0  0  0  0  0
   38.6531   26.6021   43.9435 H   0  0  0  0  0  0  0  0  0  0  0  0
   41.8787   37.3861   39.0607 H   0  0  0  0  0  0  0  0  0  0  0  0
   40.2481   37.8575   41.0300 H   0  0  0  0  0  0  0  0  0  0  0  0
   42.0327   32.7081   37.3314 H   0  0  0  0  0  0  0  0  0  0  0  0
  1  2  1  0
  1 11  1  0
  3  2  1  0
  3  6  1  0
  4  3  2  0
  5 10  2  0
  6  5  1  0
  7  6  2  0
  7  8  1  0
  8  9  2  0
  9 10  1  0
 12 13  1  0
 13 14  2  0
 15 14  1  0
 16 15  2  0
 16 11  1  0
 17 16  1  0
 18 19  1  0
 18 17  2  0
 19 20  2  0
 20 12  1  0
 20 15  1  0
  1 21  1  0
  1 22  1  0
  5 23  1  0
  7 24  1  0
  9 25  1  0
 12 26  1  0
 13 27  1  0
 18 28  1  0
M  ISO  8  21   8  22   8  23  14  24  14  25  14  26   9  27  14  28  14
M  END
>  <minimizedAffinity>  (1) 
-5.26262426

>  <minimizedRMSD>  (1) 
1.18819475

$$$$
