
     RDKit          3D

 24 25  0  0  0  0  0  0  0  0999 V2000
   35.8800   29.4340   41.0630 C   0  0  0  0  0  0  0  0  0  0  0  0
   34.8880   29.1690   40.3710 O   0  0  0  0  0  0  0  0  0  0  0  0
   37.3690   28.8100   42.9760 C   0  0  0  0  0  0  0  0  0  0  0  0
   36.7560   28.4660   41.7670 C   0  0  0  0  0  0  0  0  0  0  0  0
   36.9320   27.2330   41.1730 C   0  0  0  0  0  0  0  0  0  0  0  0
   37.7470   26.3990   41.8690 N   0  0  0  0  0  0  0  0  0  0  0  0
   38.3480   26.6950   43.0260 C   0  0  0  0  0  0  0  0  0  0  0  0
   38.1560   27.9200   43.5880 N   0  0  0  0  0  0  0  0  0  0  0  0
   36.2340   30.7650   41.2150 O   0  0  0  0  0  0  0  0  0  0  0  0
   36.8640   31.5580   40.3240 C   0  0  0  0  0  0  0  0  0  0  0  0
   38.6170   31.7080   40.9160 S   0  0  0  0  0  0  0  0  0  0  0  0
   39.2150   33.3490   40.5530 C   0  0  0  0  0  0  0  0  0  0  0  0
   40.1410   33.7930   39.6350 C   0  0  0  0  0  0  0  0  0  0  0  0
   40.2250   35.1220   39.7710 N   0  0  0  0  0  0  0  0  0  0  0  0
   39.3730   35.5280   40.7560 C   0  0  0  0  0  0  0  0  0  0  0  0
   38.7560   34.4170   41.2290 N   0  0  0  0  0  0  0  0  0  0  0  0
   37.2050   29.8034   43.4189 H   0  0  0  0  0  0  0  0  0  0  0  0
   36.4556   26.9513   40.2224 H   0  0  0  0  0  0  0  0  0  0  0  0
   38.9932   25.9538   43.5204 H   0  0  0  0  0  0  0  0  0  0  0  0
   36.3866   32.5484   40.2902 H   0  0  0  0  0  0  0  0  0  0  0  0
   36.8177   31.1371   39.3088 H   0  0  0  0  0  0  0  0  0  0  0  0
   40.7054   33.1721   38.9237 H   0  0  0  0  0  0  0  0  0  0  0  0
   39.2163   36.5606   41.1011 H   0  0  0  0  0  0  0  0  0  0  0  0
   38.0526   34.3948   41.9811 H   0  0  0  0  0  0  0  0  0  0  0  0
  1  9  1  0
  1  4  1  0
  2  1  2  0
  3  8  2  0
  4  3  1  0
  5  4  2  0
  5  6  1  0
  6  7  2  0
  7  8  1  0
 10 11  1  0
 10  9  1  0
 12 11  1  0
 12 16  1  0
 13 14  1  0
 13 12  2  0
 14 15  2  0
 15 16  1  0
  3 17  1  0
  5 18  1  0
  7 19  1  0
 10 20  1  0
 10 21  1  0
 13 22  1  0
 15 23  1  0
 16 24  1  0
M  ISO  8  17  14  18  14  19  14  20   8  21   8  22  14  23  14  24   9
M  END
>  <minimizedAffinity>  (1) 
-4.60141945

>  <minimizedRMSD>  (1) 
1.49884856

$$$$
