
     RDKit          3D

 30 31  0  0  0  0  0  0  0  0999 V2000
   35.9990   29.8450   40.8590 C   0  0  0  0  0  0  0  0  0  0  0  0
   35.0370   29.5860   40.1310 O   0  0  0  0  0  0  0  0  0  0  0  0
   37.6050   29.3390   42.7180 C   0  0  0  0  0  0  0  0  0  0  0  0
   36.7830   28.9120   41.6710 C   0  0  0  0  0  0  0  0  0  0  0  0
   36.6950   27.5670   41.3790 C   0  0  0  0  0  0  0  0  0  0  0  0
   37.4310   26.7350   42.1480 N   0  0  0  0  0  0  0  0  0  0  0  0
   38.2170   27.1480   43.1500 C   0  0  0  0  0  0  0  0  0  0  0  0
   38.3110   28.4630   43.4450 N   0  0  0  0  0  0  0  0  0  0  0  0
   36.4180   31.1660   40.9430 O   0  0  0  0  0  0  0  0  0  0  0  0
   37.0350   31.9030   40.0010 C   0  0  0  0  0  0  0  0  0  0  0  0
   38.6410   32.4500   40.7160 S   0  0  0  0  0  0  0  0  0  0  0  0
   39.2170   33.9550   39.9170 C   0  0  0  0  0  0  0  0  0  0  0  0
   40.7070   33.8490   39.7060 C   0  0  0  0  0  0  0  0  0  0  0  0
   41.1070   35.2860   39.4640 C   0  0  0  0  0  0  0  0  0  0  0  0
   39.9880   36.1570   39.9830 C   0  0  0  0  0  0  0  0  0  0  0  0
   39.0710   35.1910   40.7440 C   0  0  0  0  0  0  0  0  0  0  0  0
   37.6732   30.4124   42.9487 H   0  0  0  0  0  0  0  0  0  0  0  0
   36.0594   27.1916   40.5634 H   0  0  0  0  0  0  0  0  0  0  0  0
   38.7889   26.4133   43.7358 H   0  0  0  0  0  0  0  0  0  0  0  0
   36.4195   32.7769   39.7412 H   0  0  0  0  0  0  0  0  0  0  0  0
   37.1919   31.3172   39.0833 H   0  0  0  0  0  0  0  0  0  0  0  0
   38.6102   34.0400   39.0034 H   0  0  0  0  0  0  0  0  0  0  0  0
   41.2066   33.4422   40.5976 H   0  0  0  0  0  0  0  0  0  0  0  0
   40.9862   33.1722   38.8850 H   0  0  0  0  0  0  0  0  0  0  0  0
   42.0401   35.5125   40.0006 H   0  0  0  0  0  0  0  0  0  0  0  0
   41.2771   35.4678   38.3925 H   0  0  0  0  0  0  0  0  0  0  0  0
   40.3799   36.9332   40.6567 H   0  0  0  0  0  0  0  0  0  0  0  0
   39.4606   36.6859   39.1755 H   0  0  0  0  0  0  0  0  0  0  0  0
   38.0305   35.5476   40.7586 H   0  0  0  0  0  0  0  0  0  0  0  0
   39.3276   35.0611   41.8057 H   0  0  0  0  0  0  0  0  0  0  0  0
  1  9  1  0
  1  4  1  0
  2  1  2  0
  3  8  2  0
  4  3  1  0
  5  4  2  0
  5  6  1  0
  6  7  2  0
  7  8  1  0
 10 11  1  0
 10  9  1  0
 12 11  1  0
 12 16  1  0
 13 12  1  0
 14 13  1  0
 14 15  1  0
 15 16  1  0
  3 17  1  0
  5 18  1  0
  7 19  1  0
 10 20  1  0
 10 21  1  0
 12 22  1  0
 13 23  1  0
 13 24  1  0
 14 25  1  0
 14 26  1  0
 15 27  1  0
 15 28  1  0
 16 29  1  0
 16 30  1  0
M  ISO  8  17  14  18  14  19  14  20   8  21   8  22  13  23  13  24  13
M  ISO  6  25  13  26  13  27  13  28  13  29  13  30  13
M  END
>  <minimizedAffinity>  (1) 
-4.4818821

>  <minimizedRMSD>  (1) 
2.07379293

$$$$
