
     RDKit          3D

 24 25  0  0  0  0  0  0  0  0999 V2000
   37.2560   28.4300   41.6190 O   0  0  0  0  0  0  0  0  0  0  0  0
   36.0740   28.8810   41.1740 C   0  0  0  0  0  0  0  0  0  0  0  0
   36.2570   30.6790   40.8400 S   0  0  0  0  0  0  0  0  0  0  0  0
   36.8470   30.9470   39.1840 C   0  0  0  0  0  0  0  0  0  0  0  0
   37.5030   32.0070   38.5970 C   0  0  0  0  0  0  0  0  0  0  0  0
   37.6970   31.6180   37.2710 C   0  0  0  0  0  0  0  0  0  0  0  0
   37.1660   30.3800   37.1210 N   0  0  0  0  0  0  0  0  0  0  0  0
   36.6480   29.9600   38.2700 N   0  0  0  0  0  0  0  0  0  0  0  0
   37.6450   28.0340   42.8780 C   0  0  0  0  0  0  0  0  0  0  0  0
   37.3640   28.7850   43.7950 O   0  0  0  0  0  0  0  0  0  0  0  0
   37.8690   25.6090   42.2730 C   0  0  0  0  0  0  0  0  0  0  0  0
   38.3600   26.7400   42.9520 C   0  0  0  0  0  0  0  0  0  0  0  0
   39.5130   26.7060   43.7180 C   0  0  0  0  0  0  0  0  0  0  0  0
   40.1240   25.4960   43.7570 N   0  0  0  0  0  0  0  0  0  0  0  0
   39.6670   24.4130   43.1150 C   0  0  0  0  0  0  0  0  0  0  0  0
   38.5430   24.4580   42.3730 N   0  0  0  0  0  0  0  0  0  0  0  0
   35.7951   28.3540   40.2496 H   0  0  0  0  0  0  0  0  0  0  0  0
   35.2864   28.7046   41.9214 H   0  0  0  0  0  0  0  0  0  0  0  0
   37.8071   32.9525   39.0699 H   0  0  0  0  0  0  0  0  0  0  0  0
   38.1923   32.2102   36.4875 H   0  0  0  0  0  0  0  0  0  0  0  0
   37.1643   29.8422   36.2425 H   0  0  0  0  0  0  0  0  0  0  0  0
   36.9496   25.6705   41.6723 H   0  0  0  0  0  0  0  0  0  0  0  0
   39.9009   27.5869   44.2504 H   0  0  0  0  0  0  0  0  0  0  0  0
   40.2212   23.4662   43.1952 H   0  0  0  0  0  0  0  0  0  0  0  0
  1  9  1  0
  2  1  1  0
  3  2  1  0
  4  3  1  0
  5  4  1  0
  6  5  2  0
  7  6  1  0
  7  8  1  0
  8  4  2  0
  9 12  1  0
  9 10  2  0
 11 16  2  0
 11 12  1  0
 12 13  2  0
 13 14  1  0
 15 14  2  0
 16 15  1  0
  2 17  1  0
  2 18  1  0
  5 19  1  0
  6 20  1  0
  7 21  1  0
 11 22  1  0
 13 23  1  0
 15 24  1  0
M  ISO  8  17   8  18   8  19  14  20  14  21   9  22  14  23  14  24  14
M  END
>  <minimizedAffinity>  (1) 
-4.17144537

>  <minimizedRMSD>  (1) 
4.03762007

$$$$
