
     RDKit          3D

 53 57  0  0  1  0  0  0  0  0999 V2000
   37.7270   27.4410   42.8560 C   0  0  2  0  0  0  0  0  0  0  0  0
   39.4900   25.8070   42.1740 C   0  0  1  0  0  0  0  0  0  0  0  0
   39.3340   24.3710   41.5940 C   0  0  0  0  0  0  0  0  0  0  0  0
   37.9750   23.9300   41.9270 C   0  0  0  0  0  0  0  0  0  0  0  0
   37.2160   25.2630   42.1610 C   0  0  0  0  0  0  0  0  0  0  0  0
   38.2060   26.0210   42.8440 C   0  0  2  0  0  0  0  0  0  0  0  0
   41.9990   26.8200   44.7650 C   0  0  0  0  0  0  0  0  0  0  0  0
   40.7900   26.7290   44.0750 C   0  0  0  0  0  0  0  0  0  0  0  0
   40.7000   25.9370   42.9290 C   0  0  0  0  0  0  0  0  0  0  0  0
   41.8110   25.2650   42.5120 N   0  0  0  0  0  0  0  0  0  0  0  0
   42.9770   25.3550   43.1830 C   0  0  0  0  0  0  0  0  0  0  0  0
   43.0780   26.1210   44.2980 N   0  0  0  0  0  0  0  0  0  0  0  0
   36.6170   27.7620   43.7770 C   0  0  0  0  0  0  0  0  0  0  0  0
   37.3880   27.7290   41.4780 C   0  0  0  0  0  0  0  0  0  0  0  0
   37.0840   29.1090   41.3190 N   0  0  0  0  0  0  0  0  0  0  0  0
   35.9050   29.6590   40.9330 C   0  0  0  0  0  0  0  0  0  0  0  0
   36.0870   30.9970   40.7360 C   0  0  0  0  0  0  0  0  0  0  0  0
   37.3820   31.2110   41.0140 N   0  0  0  0  0  0  0  0  0  0  0  0
   38.0000   30.0650   41.3730 C   0  0  0  0  0  0  0  0  0  0  0  0
   39.3320   30.4430   41.6400 N   0  0  0  0  0  0  0  0  0  0  0  0
   40.3510   29.7890   42.2960 C   0  0  0  0  0  0  0  0  0  0  0  0
   41.4670   30.5320   42.3410 N   0  0  0  0  0  0  0  0  0  0  0  0
   41.2390   31.7050   41.7210 C   0  0  0  0  0  0  0  0  0  0  0  0
   42.0390   32.8030   41.5000 C   0  0  0  0  0  0  0  0  0  0  0  0
   43.2240   32.7410   41.9370 O   0  0  0  0  0  0  0  0  0  0  0  0
   41.5430   33.8670   40.8440 N   0  0  0  0  0  0  0  0  0  0  0  0
   40.2670   33.8160   40.4250 C   0  0  0  0  0  0  0  0  0  0  0  0
   39.7620   34.9520   39.7330 N   0  0  0  0  0  0  0  0  0  0  0  0
   39.4980   32.7370   40.6480 N   0  0  0  0  0  0  0  0  0  0  0  0
   39.9280   31.6200   41.3050 C   0  0  0  0  0  0  0  0  0  0  0  0
   38.5266   28.0793   43.2600 H   0  0  0  0  0  0  0  0  0  0  0  0
   39.6468   26.6191   41.4488 H   0  0  0  0  0  0  0  0  0  0  0  0
   40.0741   23.6957   42.0481 H   0  0  0  0  0  0  0  0  0  0  0  0
   39.4986   24.3623   40.5064 H   0  0  0  0  0  0  0  0  0  0  0  0
   37.5296   23.3633   41.0960 H   0  0  0  0  0  0  0  0  0  0  0  0
   37.9412   23.2565   42.7960 H   0  0  0  0  0  0  0  0  0  0  0  0
   36.9285   25.7366   41.2107 H   0  0  0  0  0  0  0  0  0  0  0  0
   36.2682   25.1556   42.7089 H   0  0  0  0  0  0  0  0  0  0  0  0
   38.3623   25.7193   43.8902 H   0  0  0  0  0  0  0  0  0  0  0  0
   42.0830   27.4425   45.6680 H   0  0  0  0  0  0  0  0  0  0  0  0
   39.9085   27.2808   44.4336 H   0  0  0  0  0  0  0  0  0  0  0  0
   43.8562   24.8011   42.8222 H   0  0  0  0  0  0  0  0  0  0  0  0
   36.9625   27.6621   44.8165 H   0  0  0  0  0  0  0  0  0  0  0  0
   36.2806   28.7942   43.6000 H   0  0  0  0  0  0  0  0  0  0  0  0
   35.7816   27.0687   43.6000 H   0  0  0  0  0  0  0  0  0  0  0  0
   38.2407   27.4693   40.8334 H   0  0  0  0  0  0  0  0  0  0  0  0
   36.5059   27.1352   41.1966 H   0  0  0  0  0  0  0  0  0  0  0  0
   34.9579   29.1154   40.8006 H   0  0  0  0  0  0  0  0  0  0  0  0
   35.3373   31.7369   40.4191 H   0  0  0  0  0  0  0  0  0  0  0  0
   40.2610   28.7820   42.7294 H   0  0  0  0  0  0  0  0  0  0  0  0
   42.1250   34.6982   40.6675 H   0  0  0  0  0  0  0  0  0  0  0  0
   40.3685   35.7689   39.5726 H   0  0  0  0  0  0  0  0  0  0  0  0
   38.7899   34.9575   39.3924 H   0  0  0  0  0  0  0  0  0  0  0  0
  1 13  1  0
  2  6  1  0
  2  9  1  0
  3  4  1  0
  3  2  1  0
  4  5  1  0
  5  6  1  0
  6  1  1  0
  8  7  2  0
  9  8  1  0
 10  9  2  0
 10 11  1  0
 11 12  2  0
 12  7  1  0
 14  1  1  0
 15 19  1  0
 15 14  1  0
 16 15  1  0
 17 16  2  0
 17 18  1  0
 18 19  2  0
 19 20  1  0
 20 21  1  0
 21 22  2  0
 23 22  1  0
 24 23  1  0
 24 25  2  0
 26 24  1  0
 27 29  2  0
 27 26  1  0
 28 27  1  0
 29 30  1  0
 30 20  1  0
 30 23  2  0
  1 31  1  1
  2 32  1  6
  3 33  1  0
  3 34  1  0
  4 35  1  0
  4 36  1  0
  5 37  1  0
  5 38  1  0
  6 39  1  1
  7 40  1  0
  8 41  1  0
 11 42  1  0
 13 43  1  0
 13 44  1  0
 13 45  1  0
 14 46  1  0
 14 47  1  0
 16 48  1  0
 17 49  1  0
 21 50  1  0
 26 51  1  0
 28 52  1  0
 28 53  1  0
M  ISO  8  31   8  32  13  33  13  34  13  35  13  36  13  37  13  38  13
M  ISO  8  39  13  40  14  41  14  42  14  43   8  44   8  45   8  46   8
M  ISO  5  47   8  48  14  49  14  50  14  51   9
M  END
>  <minimizedAffinity>  (1) 
-7.10826826

>  <minimizedRMSD>  (1) 
1.19267607

$$$$
