
     RDKit          3D

 24 25  0  0  0  0  0  0  0  0999 V2000
   36.7740   30.1400   40.8070 C   0  0  0  0  0  0  0  0  0  0  0  0
   36.0530   31.0650   41.2030 O   0  0  0  0  0  0  0  0  0  0  0  0
   37.2460   27.6850   41.0420 C   0  0  0  0  0  0  0  0  0  0  0  0
   37.2360   28.9690   41.5930 C   0  0  0  0  0  0  0  0  0  0  0  0
   37.6470   29.2210   42.8850 C   0  0  0  0  0  0  0  0  0  0  0  0
   38.0590   28.1080   43.5670 N   0  0  0  0  0  0  0  0  0  0  0  0
   38.0720   26.8740   43.0530 C   0  0  0  0  0  0  0  0  0  0  0  0
   37.6630   26.6500   41.7750 N   0  0  0  0  0  0  0  0  0  0  0  0
   37.2120   30.1750   39.4940 O   0  0  0  0  0  0  0  0  0  0  0  0
   37.9140   31.1510   38.8870 C   0  0  0  0  0  0  0  0  0  0  0  0
   39.6540   30.5610   38.7710 S   0  0  0  0  0  0  0  0  0  0  0  0
   40.3430   30.3410   40.3960 C   0  0  0  0  0  0  0  0  0  0  0  0
   40.4360   31.3520   41.4690 C   0  0  0  0  0  0  0  0  0  0  0  0
   41.0160   30.9060   42.6260 C   0  0  0  0  0  0  0  0  0  0  0  0
   41.4580   29.6350   42.7440 C   0  0  0  0  0  0  0  0  0  0  0  0
   41.1120   28.8430   41.1890 S   0  0  0  0  0  0  0  0  0  0  0  0
   36.9109   27.5272   40.0062 H   0  0  0  0  0  0  0  0  0  0  0  0
   37.6440   30.2277   43.3284 H   0  0  0  0  0  0  0  0  0  0  0  0
   38.4170   26.0310   43.6698 H   0  0  0  0  0  0  0  0  0  0  0  0
   37.5099   31.3387   37.8813 H   0  0  0  0  0  0  0  0  0  0  0  0
   37.8531   32.0919   39.4536 H   0  0  0  0  0  0  0  0  0  0  0  0
   40.0683   32.3816   41.3479 H   0  0  0  0  0  0  0  0  0  0  0  0
   41.1242   31.5959   43.4759 H   0  0  0  0  0  0  0  0  0  0  0  0
   41.9358   29.1809   43.6246 H   0  0  0  0  0  0  0  0  0  0  0  0
  1  2  2  0
  1  4  1  0
  3  4  2  0
  3  8  1  0
  4  5  1  0
  5  6  2  0
  7  6  1  0
  8  7  2  0
  9  1  1  0
 10  9  1  0
 11 10  1  0
 11 12  1  0
 12 16  1  0
 12 13  2  0
 13 14  1  0
 14 15  2  0
 16 15  1  0
  3 17  1  0
  5 18  1  0
  7 19  1  0
 10 20  1  0
 10 21  1  0
 13 22  1  0
 14 23  1  0
 15 24  1  0
M  ISO  8  17  14  18  14  19  14  20   8  21   8  22  14  23  14  24  14
M  END
>  <minimizedAffinity>  (1) 
-3.19078898

>  <minimizedRMSD>  (1) 
3.8502636

$$$$
