
     RDKit          3D

 39 40  0  0  0  0  0  0  0  0999 V2000
   39.9460   33.1090   39.7930 C   0  0  0  0  0  0  0  0  0  0  0  0
   39.9680   32.1660   38.5790 C   0  0  0  0  0  0  0  0  0  0  0  0
   40.4870   32.3460   40.9550 C   0  0  0  0  0  0  0  0  0  0  0  0
   40.7020   34.3440   39.4470 C   0  0  0  0  0  0  0  0  0  0  0  0
   41.3620   35.0240   40.5060 N   0  0  0  0  0  0  0  0  0  0  0  0
   42.5310   34.6520   41.0570 C   0  0  0  0  0  0  0  0  0  0  0  0
   43.1190   35.3550   42.0980 C   0  0  0  0  0  0  0  0  0  0  0  0
   42.4830   36.4950   42.6020 C   0  0  0  0  0  0  0  0  0  0  0  0
   43.0040   37.1350   43.5390 O   0  0  0  0  0  0  0  0  0  0  0  0
   41.3010   36.8350   42.0110 N   0  0  0  0  0  0  0  0  0  0  0  0
   40.7490   36.1390   41.0040 C   0  0  0  0  0  0  0  0  0  0  0  0
   39.6440   36.6480   40.6140 O   0  0  0  0  0  0  0  0  0  0  0  0
   38.2060   33.5260   40.0560 S   0  0  0  0  0  0  0  0  0  0  0  0
   37.1030   32.1400   39.5650 C   0  0  0  0  0  0  0  0  0  0  0  0
   36.8150   31.4430   40.6440 O   0  0  0  0  0  0  0  0  0  0  0  0
   36.2590   30.2000   40.8320 C   0  0  0  0  0  0  0  0  0  0  0  0
   35.2290   29.9380   40.2060 O   0  0  0  0  0  0  0  0  0  0  0  0
   38.1650   29.7430   42.3830 C   0  0  0  0  0  0  0  0  0  0  0  0
   36.9810   29.3010   41.7830 C   0  0  0  0  0  0  0  0  0  0  0  0
   36.4170   28.0560   41.9920 C   0  0  0  0  0  0  0  0  0  0  0  0
   37.1180   27.2680   42.8450 N   0  0  0  0  0  0  0  0  0  0  0  0
   38.2660   27.6710   43.4370 C   0  0  0  0  0  0  0  0  0  0  0  0
   38.8010   28.9220   43.2070 N   0  0  0  0  0  0  0  0  0  0  0  0
   39.9923   31.1224   38.9258 H   0  0  0  0  0  0  0  0  0  0  0  0
   39.0658   32.3295   37.9713 H   0  0  0  0  0  0  0  0  0  0  0  0
   40.8616   32.3714   37.9713 H   0  0  0  0  0  0  0  0  0  0  0  0
   40.1527   32.8175   41.8909 H   0  0  0  0  0  0  0  0  0  0  0  0
   40.1210   31.3094   40.9155 H   0  0  0  0  0  0  0  0  0  0  0  0
   41.5863   32.3484   40.9155 H   0  0  0  0  0  0  0  0  0  0  0  0
   41.4661   34.0666   38.7059 H   0  0  0  0  0  0  0  0  0  0  0  0
   39.9385   35.0512   39.0907 H   0  0  0  0  0  0  0  0  0  0  0  0
   43.0394   33.7575   40.6679 H   0  0  0  0  0  0  0  0  0  0  0  0
   44.0763   35.0196   42.5234 H   0  0  0  0  0  0  0  0  0  0  0  0
   40.8059   37.6699   42.3556 H   0  0  0  0  0  0  0  0  0  0  0  0
   36.1788   32.5386   39.1212 H   0  0  0  0  0  0  0  0  0  0  0  0
   37.6023   31.5014   38.8215 H   0  0  0  0  0  0  0  0  0  0  0  0
   38.5592   30.7488   42.1758 H   0  0  0  0  0  0  0  0  0  0  0  0
   35.4827   27.7332   41.5094 H   0  0  0  0  0  0  0  0  0  0  0  0
   38.7865   26.9832   44.1196 H   0  0  0  0  0  0  0  0  0  0  0  0
  1 13  1  0
  1  3  1  0
  2  1  1  0
  4  1  1  0
  4  5  1  0
  5 11  1  0
  5  6  1  0
  6  7  2  0
  7  8  1  0
  8  9  2  0
 10  8  1  0
 11 10  1  0
 12 11  2  0
 14 13  1  0
 14 15  1  0
 15 16  1  0
 16 19  1  0
 17 16  2  0
 18 23  2  0
 19 20  2  0
 19 18  1  0
 20 21  1  0
 21 22  2  0
 23 22  1  0
  2 24  1  0
  2 25  1  0
  2 26  1  0
  3 27  1  0
  3 28  1  0
  3 29  1  0
  4 30  1  0
  4 31  1  0
  6 32  1  0
  7 33  1  0
 10 34  1  0
 14 35  1  0
 14 36  1  0
 18 37  1  0
 20 38  1  0
 22 39  1  0
M  ISO  8  24   8  25   8  26   8  27   8  28   8  29   8  30   8  31   8
M  ISO  8  32  14  33  14  34   9  35   8  36   8  37  14  38  14  39  14
M  END
>  <minimizedAffinity>  (1) 
-5.84375334

>  <minimizedRMSD>  (1) 
1.41038811

$$$$
