
     RDKit          3D

 36 37  0  0  0  0  0  0  0  0999 V2000
   40.1420   33.4570   39.8430 C   0  0  0  0  0  0  0  0  0  0  0  0
   40.1180   32.5410   38.6440 C   0  0  0  0  0  0  0  0  0  0  0  0
   40.8500   32.7370   40.9740 C   0  0  0  0  0  0  0  0  0  0  0  0
   40.8930   34.7150   39.4670 C   0  0  0  0  0  0  0  0  0  0  0  0
   41.2660   35.4760   40.6660 C   0  0  0  0  0  0  0  0  0  0  0  0
   42.4590   35.4660   41.3790 C   0  0  0  0  0  0  0  0  0  0  0  0
   42.4270   36.3190   42.4510 C   0  0  0  0  0  0  0  0  0  0  0  0
   41.1800   36.8550   42.3810 N   0  0  0  0  0  0  0  0  0  0  0  0
   40.5020   36.3600   41.3360 N   0  0  0  0  0  0  0  0  0  0  0  0
   38.4570   33.8350   40.3270 S   0  0  0  0  0  0  0  0  0  0  0  0
   37.3240   32.4850   39.7340 C   0  0  0  0  0  0  0  0  0  0  0  0
   37.0950   31.6910   40.7530 O   0  0  0  0  0  0  0  0  0  0  0  0
   36.4850   30.4640   40.8520 C   0  0  0  0  0  0  0  0  0  0  0  0
   35.4720   30.2770   40.1820 O   0  0  0  0  0  0  0  0  0  0  0  0
   38.3590   29.8100   42.3830 C   0  0  0  0  0  0  0  0  0  0  0  0
   37.1370   29.4850   41.7770 C   0  0  0  0  0  0  0  0  0  0  0  0
   36.4780   28.2810   41.9540 C   0  0  0  0  0  0  0  0  0  0  0  0
   37.1210   27.4190   42.7790 N   0  0  0  0  0  0  0  0  0  0  0  0
   38.3010   27.7130   43.3730 C   0  0  0  0  0  0  0  0  0  0  0  0
   38.9260   28.9080   43.1790 N   0  0  0  0  0  0  0  0  0  0  0  0
   40.0906   31.4947   38.9824 H   0  0  0  0  0  0  0  0  0  0  0  0
   39.2251   32.7538   38.0378 H   0  0  0  0  0  0  0  0  0  0  0  0
   41.0208   32.7068   38.0378 H   0  0  0  0  0  0  0  0  0  0  0  0
   40.4788   33.1145   41.9382 H   0  0  0  0  0  0  0  0  0  0  0  0
   40.6520   31.6573   40.9022 H   0  0  0  0  0  0  0  0  0  0  0  0
   41.9328   32.9168   40.9022 H   0  0  0  0  0  0  0  0  0  0  0  0
   41.8045   34.4401   38.9160 H   0  0  0  0  0  0  0  0  0  0  0  0
   40.2414   35.3412   38.8398 H   0  0  0  0  0  0  0  0  0  0  0  0
   43.3277   34.8456   41.1137 H   0  0  0  0  0  0  0  0  0  0  0  0
   43.2179   36.5207   43.1885 H   0  0  0  0  0  0  0  0  0  0  0  0
   40.8056   37.5495   43.0431 H   0  0  0  0  0  0  0  0  0  0  0  0
   36.3788   32.9179   39.3745 H   0  0  0  0  0  0  0  0  0  0  0  0
   37.7828   31.9291   38.9031 H   0  0  0  0  0  0  0  0  0  0  0  0
   38.8360   30.7851   42.2048 H   0  0  0  0  0  0  0  0  0  0  0  0
   35.5193   28.0450   41.4691 H   0  0  0  0  0  0  0  0  0  0  0  0
   38.7688   26.9659   44.0311 H   0  0  0  0  0  0  0  0  0  0  0  0
  1 10  1  0
  1  3  1  0
  2  1  1  0
  4  1  1  0
  4  5  1  0
  5  9  2  0
  5  6  1  0
  6  7  2  0
  8  7  1  0
  9  8  1  0
 11 10  1  0
 11 12  1  0
 12 13  1  0
 13 16  1  0
 14 13  2  0
 15 20  2  0
 16 17  2  0
 16 15  1  0
 17 18  1  0
 18 19  2  0
 20 19  1  0
  2 21  1  0
  2 22  1  0
  2 23  1  0
  3 24  1  0
  3 25  1  0
  3 26  1  0
  4 27  1  0
  4 28  1  0
  6 29  1  0
  7 30  1  0
  8 31  1  0
 11 32  1  0
 11 33  1  0
 15 34  1  0
 17 35  1  0
 19 36  1  0
M  ISO  8  21   8  22   8  23   8  24   8  25   8  26   8  27   8  28   8
M  ISO  8  29  14  30  14  31   9  32   8  33   8  34  14  35  14  36  14
M  END
>  <minimizedAffinity>  (1) 
-5.03087187

>  <minimizedRMSD>  (1) 
1.51420116

$$$$
