
     RDKit          3D

 50 54  0  0  1  0  0  0  0  0999 V2000
   37.7000   27.4360   42.8700 C   0  0  2  0  0  0  0  0  0  0  0  0
   39.4540   25.8100   42.1530 C   0  0  1  0  0  0  0  0  0  0  0  0
   39.2910   24.3860   41.5410 C   0  0  0  0  0  0  0  0  0  0  0  0
   37.9330   23.9460   41.8610 C   0  0  0  0  0  0  0  0  0  0  0  0
   37.1790   25.2720   42.1440 C   0  0  0  0  0  0  0  0  0  0  0  0
   38.1780   26.0170   42.8290 C   0  0  2  0  0  0  0  0  0  0  0  0
   41.9780   26.7630   44.7470 C   0  0  0  0  0  0  0  0  0  0  0  0
   40.7660   26.6860   44.0630 C   0  0  0  0  0  0  0  0  0  0  0  0
   40.6690   25.9220   42.8980 C   0  0  0  0  0  0  0  0  0  0  0  0
   41.7800   25.2610   42.4580 N   0  0  0  0  0  0  0  0  0  0  0  0
   42.9490   25.3370   43.1240 C   0  0  0  0  0  0  0  0  0  0  0  0
   43.0570   26.0760   44.2550 N   0  0  0  0  0  0  0  0  0  0  0  0
   36.5580   27.7270   43.7650 C   0  0  0  0  0  0  0  0  0  0  0  0
   37.4080   27.7680   41.4930 C   0  0  0  0  0  0  0  0  0  0  0  0
   37.1520   29.1600   41.3620 N   0  0  0  0  0  0  0  0  0  0  0  0
   36.0030   29.7590   40.9600 C   0  0  0  0  0  0  0  0  0  0  0  0
   36.2300   31.0920   40.7950 C   0  0  0  0  0  0  0  0  0  0  0  0
   37.5330   31.2590   41.1120 N   0  0  0  0  0  0  0  0  0  0  0  0
   38.0980   30.0870   41.4600 C   0  0  0  0  0  0  0  0  0  0  0  0
   39.4330   30.4030   41.7710 N   0  0  0  0  0  0  0  0  0  0  0  0
   40.3800   29.7770   42.5010 C   0  0  0  0  0  0  0  0  0  0  0  0
   41.5470   30.4350   42.5130 N   0  0  0  0  0  0  0  0  0  0  0  0
   41.4360   31.5390   41.7870 C   0  0  0  0  0  0  0  0  0  0  0  0
   42.2430   32.5960   41.4210 C   0  0  0  0  0  0  0  0  0  0  0  0
   41.7600   33.5800   40.6360 N   0  0  0  0  0  0  0  0  0  0  0  0
   40.4680   33.5220   40.2070 C   0  0  0  0  0  0  0  0  0  0  0  0
   39.6500   32.5070   40.5430 N   0  0  0  0  0  0  0  0  0  0  0  0
   40.1340   31.5060   41.3390 C   0  0  0  0  0  0  0  0  0  0  0  0
   38.4854   28.0613   43.3196 H   0  0  0  0  0  0  0  0  0  0  0  0
   39.6086   26.6384   41.4460 H   0  0  0  0  0  0  0  0  0  0  0  0
   40.0268   23.6971   41.9816 H   0  0  0  0  0  0  0  0  0  0  0  0
   39.4573   24.4003   40.4537 H   0  0  0  0  0  0  0  0  0  0  0  0
   37.4827   23.4113   41.0117 H   0  0  0  0  0  0  0  0  0  0  0  0
   37.8986   23.2448   42.7078 H   0  0  0  0  0  0  0  0  0  0  0  0
   36.8739   25.7692   41.2114 H   0  0  0  0  0  0  0  0  0  0  0  0
   36.2427   25.1475   42.7077 H   0  0  0  0  0  0  0  0  0  0  0  0
   38.3444   25.6981   43.8685 H   0  0  0  0  0  0  0  0  0  0  0  0
   42.0668   27.3637   45.6642 H   0  0  0  0  0  0  0  0  0  0  0  0
   39.8859   27.2270   44.4408 H   0  0  0  0  0  0  0  0  0  0  0  0
   43.8265   24.7925   42.7450 H   0  0  0  0  0  0  0  0  0  0  0  0
   36.8829   27.6442   44.8127 H   0  0  0  0  0  0  0  0  0  0  0  0
   36.1929   28.7469   43.5738 H   0  0  0  0  0  0  0  0  0  0  0  0
   35.7494   27.0062   43.5738 H   0  0  0  0  0  0  0  0  0  0  0  0
   38.2692   27.4972   40.8645 H   0  0  0  0  0  0  0  0  0  0  0  0
   36.5159   27.2097   41.1730 H   0  0  0  0  0  0  0  0  0  0  0  0
   35.0422   29.2499   40.7939 H   0  0  0  0  0  0  0  0  0  0  0  0
   35.5121   31.8615   40.4748 H   0  0  0  0  0  0  0  0  0  0  0  0
   40.2116   28.8274   43.0300 H   0  0  0  0  0  0  0  0  0  0  0  0
   43.2850   32.6363   41.7710 H   0  0  0  0  0  0  0  0  0  0  0  0
   40.0818   34.3289   39.5668 H   0  0  0  0  0  0  0  0  0  0  0  0
  1 13  1  0
  2  6  1  0
  2  9  1  0
  3  4  1  0
  3  2  1  0
  4  5  1  0
  5  6  1  0
  6  1  1  0
  8  7  2  0
  9  8  1  0
 10  9  2  0
 10 11  1  0
 11 12  2  0
 12  7  1  0
 14  1  1  0
 15 19  1  0
 15 14  1  0
 16 15  1  0
 17 16  2  0
 17 18  1  0
 18 19  2  0
 19 20  1  0
 20 21  1  0
 21 22  2  0
 23 22  1  0
 24 23  2  0
 25 24  1  0
 26 27  1  0
 26 25  2  0
 27 28  2  0
 28 20  1  0
 28 23  1  0
  1 29  1  1
  2 30  1  6
  3 31  1  0
  3 32  1  0
  4 33  1  0
  4 34  1  0
  5 35  1  0
  5 36  1  0
  6 37  1  1
  7 38  1  0
  8 39  1  0
 11 40  1  0
 13 41  1  0
 13 42  1  0
 13 43  1  0
 14 44  1  0
 14 45  1  0
 16 46  1  0
 17 47  1  0
 21 48  1  0
 24 49  1  0
 26 50  1  0
M  ISO  8  29   8  30  13  31  13  32  13  33  13  34  13  35  13  36  13
M  ISO  8  37  13  38  14  39  14  40  14  41   8  42   8  43   8  44   8
M  ISO  6  45   8  46  14  47  14  48  14  49  14  50  14
M  END
>  <minimizedAffinity>  (1) 
-6.45185232

>  <minimizedRMSD>  (1) 
0.951727092

$$$$
