
     RDKit          3D

 36 37  0  0  0  0  0  0  0  0999 V2000
   40.2950   33.2960   39.9250 C   0  0  0  0  0  0  0  0  0  0  0  0
   40.0970   32.4290   38.7060 C   0  0  0  0  0  0  0  0  0  0  0  0
   40.9670   32.4470   40.9780 C   0  0  0  0  0  0  0  0  0  0  0  0
   41.1650   34.4780   39.5520 C   0  0  0  0  0  0  0  0  0  0  0  0
   41.6490   35.2380   40.6590 N   0  0  0  0  0  0  0  0  0  0  0  0
   42.7660   35.0000   41.4080 C   0  0  0  0  0  0  0  0  0  0  0  0
   42.9320   35.9330   42.3990 C   0  0  0  0  0  0  0  0  0  0  0  0
   41.8970   36.7830   42.2780 N   0  0  0  0  0  0  0  0  0  0  0  0
   41.1280   36.3630   41.2320 C   0  0  0  0  0  0  0  0  0  0  0  0
   38.6940   33.8490   40.5200 S   0  0  0  0  0  0  0  0  0  0  0  0
   37.3860   32.6320   40.0140 C   0  0  0  0  0  0  0  0  0  0  0  0
   37.3590   31.6830   40.9210 O   0  0  0  0  0  0  0  0  0  0  0  0
   36.6540   30.5020   40.9970 C   0  0  0  0  0  0  0  0  0  0  0  0
   35.5980   30.4270   40.3710 O   0  0  0  0  0  0  0  0  0  0  0  0
   38.5150   29.6560   42.4450 C   0  0  0  0  0  0  0  0  0  0  0  0
   37.2660   29.4350   41.8470 C   0  0  0  0  0  0  0  0  0  0  0  0
   36.5540   28.2700   41.9780 C   0  0  0  0  0  0  0  0  0  0  0  0
   37.1530   27.3240   42.7420 N   0  0  0  0  0  0  0  0  0  0  0  0
   38.3570   27.5180   43.3250 C   0  0  0  0  0  0  0  0  0  0  0  0
   39.0510   28.6980   43.1780 N   0  0  0  0  0  0  0  0  0  0  0  0
   39.8624   31.4015   39.0210 H   0  0  0  0  0  0  0  0  0  0  0  0
   39.2666   32.8267   38.1042 H   0  0  0  0  0  0  0  0  0  0  0  0
   41.0178   32.4268   38.1042 H   0  0  0  0  0  0  0  0  0  0  0  0
   40.6814   32.8078   41.9771 H   0  0  0  0  0  0  0  0  0  0  0  0
   40.6503   31.4000   40.8619 H   0  0  0  0  0  0  0  0  0  0  0  0
   42.0587   32.5148   40.8619 H   0  0  0  0  0  0  0  0  0  0  0  0
   42.0324   34.1007   38.9905 H   0  0  0  0  0  0  0  0  0  0  0  0
   40.5296   35.1570   38.9645 H   0  0  0  0  0  0  0  0  0  0  0  0
   43.4525   34.1579   41.2362 H   0  0  0  0  0  0  0  0  0  0  0  0
   43.7439   35.9771   43.1398 H   0  0  0  0  0  0  0  0  0  0  0  0
   40.2091   36.8647   40.8945 H   0  0  0  0  0  0  0  0  0  0  0  0
   36.4073   33.1316   39.9636 H   0  0  0  0  0  0  0  0  0  0  0  0
   37.6088   32.2136   39.0214 H   0  0  0  0  0  0  0  0  0  0  0  0
   39.0398   30.6126   42.3054 H   0  0  0  0  0  0  0  0  0  0  0  0
   35.5749   28.1157   41.5010 H   0  0  0  0  0  0  0  0  0  0  0  0
   38.7938   26.7119   43.9328 H   0  0  0  0  0  0  0  0  0  0  0  0
  1 10  1  0
  1  3  1  0
  2  1  1  0
  4  1  1  0
  4  5  1  0
  5  9  1  0
  5  6  1  0
  6  7  2  0
  8  7  1  0
  9  8  2  0
 11 10  1  0
 11 12  1  0
 12 13  1  0
 13 16  1  0
 14 13  2  0
 15 20  2  0
 16 17  2  0
 16 15  1  0
 17 18  1  0
 18 19  2  0
 20 19  1  0
  2 21  1  0
  2 22  1  0
  2 23  1  0
  3 24  1  0
  3 25  1  0
  3 26  1  0
  4 27  1  0
  4 28  1  0
  6 29  1  0
  7 30  1  0
  9 31  1  0
 11 32  1  0
 11 33  1  0
 15 34  1  0
 17 35  1  0
 19 36  1  0
M  ISO  8  21   8  22   8  23   8  24   8  25   8  26   8  27   8  28   8
M  ISO  8  29  14  30  14  31  14  32   8  33   8  34  14  35  14  36  14
M  END
>  <minimizedAffinity>  (1) 
-4.77181339

>  <minimizedRMSD>  (1) 
1.39771855

$$$$
