
     RDKit          3D

 36 37  0  0  0  0  0  0  0  0999 V2000
   40.0300   32.3600   39.6540 C   0  0  0  0  0  0  0  0  0  0  0  0
   39.5480   31.3970   38.6050 C   0  0  0  0  0  0  0  0  0  0  0  0
   40.9550   31.6210   40.5960 C   0  0  0  0  0  0  0  0  0  0  0  0
   40.7640   33.4970   38.9680 C   0  0  0  0  0  0  0  0  0  0  0  0
   40.8710   34.6880   39.8200 C   0  0  0  0  0  0  0  0  0  0  0  0
   40.0800   35.8200   39.8600 C   0  0  0  0  0  0  0  0  0  0  0  0
   40.3800   36.8000   40.7430 C   0  0  0  0  0  0  0  0  0  0  0  0
   41.5030   36.5920   41.5800 C   0  0  0  0  0  0  0  0  0  0  0  0
   42.1320   34.9480   41.0760 S   0  0  0  0  0  0  0  0  0  0  0  0
   38.6290   32.9920   40.5710 S   0  0  0  0  0  0  0  0  0  0  0  0
   37.0640   32.1980   39.9760 C   0  0  0  0  0  0  0  0  0  0  0  0
   36.6270   31.4120   40.9420 O   0  0  0  0  0  0  0  0  0  0  0  0
   36.2270   30.1000   40.9520 C   0  0  0  0  0  0  0  0  0  0  0  0
   35.2720   29.7920   40.2410 O   0  0  0  0  0  0  0  0  0  0  0  0
   38.2250   29.6250   42.3840 C   0  0  0  0  0  0  0  0  0  0  0  0
   37.0110   29.1850   41.8390 C   0  0  0  0  0  0  0  0  0  0  0  0
   36.4760   27.9300   42.0430 C   0  0  0  0  0  0  0  0  0  0  0  0
   37.2370   27.1330   42.8320 N   0  0  0  0  0  0  0  0  0  0  0  0
   38.4130   27.5350   43.3690 C   0  0  0  0  0  0  0  0  0  0  0  0
   38.9220   28.7880   43.1500 N   0  0  0  0  0  0  0  0  0  0  0  0
   39.1065   30.5150   39.0920 H   0  0  0  0  0  0  0  0  0  0  0  0
   38.7892   31.8877   37.9777 H   0  0  0  0  0  0  0  0  0  0  0  0
   40.3955   31.0837   37.9777 H   0  0  0  0  0  0  0  0  0  0  0  0
   40.6747   31.8449   41.6358 H   0  0  0  0  0  0  0  0  0  0  0  0
   40.8708   30.5387   40.4185 H   0  0  0  0  0  0  0  0  0  0  0  0
   41.9920   31.9421   40.4185 H   0  0  0  0  0  0  0  0  0  0  0  0
   41.7771   33.1571   38.7069 H   0  0  0  0  0  0  0  0  0  0  0  0
   40.1894   33.7755   38.0723 H   0  0  0  0  0  0  0  0  0  0  0  0
   39.2187   35.9230   39.1836 H   0  0  0  0  0  0  0  0  0  0  0  0
   39.7779   37.7183   40.8079 H   0  0  0  0  0  0  0  0  0  0  0  0
   41.9045   37.2628   42.3538 H   0  0  0  0  0  0  0  0  0  0  0  0
   36.3132   32.9697   39.7508 H   0  0  0  0  0  0  0  0  0  0  0  0
   37.2470   31.6198   39.0583 H   0  0  0  0  0  0  0  0  0  0  0  0
   38.5946   30.6414   42.1830 H   0  0  0  0  0  0  0  0  0  0  0  0
   35.5201   27.6060   41.6057 H   0  0  0  0  0  0  0  0  0  0  0  0
   38.9775   26.8336   44.0010 H   0  0  0  0  0  0  0  0  0  0  0  0
  1 10  1  0
  1  3  1  0
  2  1  1  0
  4  1  1  0
  4  5  1  0
  5  6  2  0
  5  9  1  0
  6  7  1  0
  7  8  2  0
  9  8  1  0
 11 10  1  0
 11 12  1  0
 12 13  1  0
 13 16  1  0
 14 13  2  0
 15 20  2  0
 16 17  2  0
 16 15  1  0
 17 18  1  0
 18 19  2  0
 20 19  1  0
  2 21  1  0
  2 22  1  0
  2 23  1  0
  3 24  1  0
  3 25  1  0
  3 26  1  0
  4 27  1  0
  4 28  1  0
  6 29  1  0
  7 30  1  0
  8 31  1  0
 11 32  1  0
 11 33  1  0
 15 34  1  0
 17 35  1  0
 19 36  1  0
M  ISO  8  21   8  22   8  23   8  24   8  25   8  26   8  27   8  28   8
M  ISO  8  29  14  30  14  31  14  32   8  33   8  34  14  35  14  36  14
M  END
>  <minimizedAffinity>  (1) 
-4.75735569

>  <minimizedRMSD>  (1) 
1.55678475

$$$$
