
     RDKit          3D

 42 43  0  0  0  0  0  0  0  0999 V2000
   37.8390   31.4990   39.8790 C   0  0  0  0  0  0  0  0  0  0  0  0
   37.1840   32.0500   38.6470 C   0  0  0  0  0  0  0  0  0  0  0  0
   38.6250   30.2720   39.5180 C   0  0  0  0  0  0  0  0  0  0  0  0
   38.6820   32.5360   40.5630 C   0  0  0  0  0  0  0  0  0  0  0  0
   39.0070   33.7160   39.8990 N   0  0  0  0  0  0  0  0  0  0  0  0
   38.9040   34.9720   40.5820 C   0  0  0  0  0  0  0  0  0  0  0  0
   39.9520   35.9470   39.9760 C   0  0  0  0  0  0  0  0  0  0  0  0
   41.2080   35.6320   40.4810 O   0  0  0  0  0  0  0  0  0  0  0  0
   41.2820   34.2580   40.5640 C   0  0  0  0  0  0  0  0  0  0  0  0
   40.4040   33.6170   39.4800 C   0  0  0  0  0  0  0  0  0  0  0  0
   36.5070   31.0360   41.0230 S   0  0  0  0  0  0  0  0  0  0  0  0
   35.5920   29.5640   40.4360 C   0  0  0  0  0  0  0  0  0  0  0  0
   35.9350   28.5310   41.1850 O   0  0  0  0  0  0  0  0  0  0  0  0
   36.6720   27.4040   40.9120 C   0  0  0  0  0  0  0  0  0  0  0  0
   36.4070   26.7750   39.8780 O   0  0  0  0  0  0  0  0  0  0  0  0
   38.3560   28.0970   42.6200 C   0  0  0  0  0  0  0  0  0  0  0  0
   37.7280   27.0630   41.9140 C   0  0  0  0  0  0  0  0  0  0  0  0
   38.0280   25.7340   42.0600 C   0  0  0  0  0  0  0  0  0  0  0  0
   39.0020   25.4690   42.9580 N   0  0  0  0  0  0  0  0  0  0  0  0
   39.6300   26.4410   43.6560 C   0  0  0  0  0  0  0  0  0  0  0  0
   39.3100   27.7730   43.4910 N   0  0  0  0  0  0  0  0  0  0  0  0
   36.3721   32.7330   38.9376 H   0  0  0  0  0  0  0  0  0  0  0  0
   37.9280   32.5978   38.0500 H   0  0  0  0  0  0  0  0  0  0  0  0
   36.7716   31.2232   38.0500 H   0  0  0  0  0  0  0  0  0  0  0  0
   38.9515   29.7623   40.4365 H   0  0  0  0  0  0  0  0  0  0  0  0
   37.9934   29.5928   38.9265 H   0  0  0  0  0  0  0  0  0  0  0  0
   39.5060   30.5618   38.9265 H   0  0  0  0  0  0  0  0  0  0  0  0
   38.1486   32.8243   41.4808 H   0  0  0  0  0  0  0  0  0  0  0  0
   39.6543   32.0351   40.6803 H   0  0  0  0  0  0  0  0  0  0  0  0
   37.8929   35.3847   40.4504 H   0  0  0  0  0  0  0  0  0  0  0  0
   39.0928   34.8344   41.6569 H   0  0  0  0  0  0  0  0  0  0  0  0
   39.6940   36.9812   40.2477 H   0  0  0  0  0  0  0  0  0  0  0  0
   39.9576   35.8524   38.8801 H   0  0  0  0  0  0  0  0  0  0  0  0
   42.3256   33.9404   40.4221 H   0  0  0  0  0  0  0  0  0  0  0  0
   40.9249   33.9369   41.5536 H   0  0  0  0  0  0  0  0  0  0  0  0
   40.6804   32.5596   39.3554 H   0  0  0  0  0  0  0  0  0  0  0  0
   40.5485   34.1361   38.5210 H   0  0  0  0  0  0  0  0  0  0  0  0
   34.5098   29.7413   40.5216 H   0  0  0  0  0  0  0  0  0  0  0  0
   35.8367   29.3635   39.3825 H   0  0  0  0  0  0  0  0  0  0  0  0
   38.0694   29.1468   42.4596 H   0  0  0  0  0  0  0  0  0  0  0  0
   37.5158   24.9445   41.4905 H   0  0  0  0  0  0  0  0  0  0  0  0
   40.4160   26.1633   44.3737 H   0  0  0  0  0  0  0  0  0  0  0  0
  1  4  1  0
  1 11  1  0
  2  1  1  0
  3  1  1  0
  5  4  1  0
  5  6  1  0
  7  8  1  0
  7  6  1  0
  8  9  1  0
 10  5  1  0
 10  9  1  0
 12 11  1  0
 12 13  1  0
 14 13  1  0
 14 17  1  0
 15 14  2  0
 16 21  2  0
 17 18  2  0
 17 16  1  0
 18 19  1  0
 19 20  2  0
 21 20  1  0
  2 22  1  0
  2 23  1  0
  2 24  1  0
  3 25  1  0
  3 26  1  0
  3 27  1  0
  4 28  1  0
  4 29  1  0
  6 30  1  0
  6 31  1  0
  7 32  1  0
  7 33  1  0
  9 34  1  0
  9 35  1  0
 10 36  1  0
 10 37  1  0
 12 38  1  0
 12 39  1  0
 16 40  1  0
 18 41  1  0
 20 42  1  0
M  ISO  8  22   8  23   8  24   8  25   8  26   8  27   8  28   8  29   8
M  ISO  8  30  13  31  13  32  13  33  13  34  13  35  13  36  13  37  13
M  ISO  5  38   8  39   8  40  14  41  14  42  14
M  END
>  <minimizedAffinity>  (1) 
-4.67977047

>  <minimizedRMSD>  (1) 
2.55126381

$$$$
