
     RDKit          3D

 44 45  0  0  0  0  0  0  0  0999 V2000
   39.4380   33.2250   39.9150 C   0  0  0  0  0  0  0  0  0  0  0  0
   39.9550   32.4790   38.7150 C   0  0  0  0  0  0  0  0  0  0  0  0
   39.7510   32.4630   41.1620 C   0  0  0  0  0  0  0  0  0  0  0  0
   40.0100   34.6200   39.9700 C   0  0  0  0  0  0  0  0  0  0  0  0
   41.2970   34.6980   40.4960 N   0  0  0  0  0  0  0  0  0  0  0  0
   41.7460   35.7490   41.2980 C   0  0  0  0  0  0  0  0  0  0  0  0
   43.0470   35.3000   41.9870 C   0  0  0  0  0  0  0  0  0  0  0  0
   43.9790   34.5890   41.0510 C   0  0  0  0  0  0  0  0  0  0  0  0
   43.3000   33.3960   40.3900 C   0  0  0  0  0  0  0  0  0  0  0  0
   41.8700   33.4230   40.8870 C   0  0  0  0  0  0  0  0  0  0  0  0
   37.6340   33.3350   39.6980 S   0  0  0  0  0  0  0  0  0  0  0  0
   36.9050   31.6980   39.3400 C   0  0  0  0  0  0  0  0  0  0  0  0
   36.4850   31.1650   40.4890 O   0  0  0  0  0  0  0  0  0  0  0  0
   36.0000   29.9030   40.7640 C   0  0  0  0  0  0  0  0  0  0  0  0
   34.9580   29.5480   40.1900 O   0  0  0  0  0  0  0  0  0  0  0  0
   37.8650   29.7050   42.4090 C   0  0  0  0  0  0  0  0  0  0  0  0
   36.8080   29.1040   41.7370 C   0  0  0  0  0  0  0  0  0  0  0  0
   36.4380   27.7780   41.8840 C   0  0  0  0  0  0  0  0  0  0  0  0
   37.2100   27.0900   42.7590 N   0  0  0  0  0  0  0  0  0  0  0  0
   38.2460   27.6410   43.4280 C   0  0  0  0  0  0  0  0  0  0  0  0
   38.5790   28.9660   43.2520 N   0  0  0  0  0  0  0  0  0  0  0  0
   40.5521   31.6174   39.0482 H   0  0  0  0  0  0  0  0  0  0  0  0
   39.1072   32.1255   38.1098 H   0  0  0  0  0  0  0  0  0  0  0  0
   40.5836   33.1487   38.1098 H   0  0  0  0  0  0  0  0  0  0  0  0
   39.4990   33.0765   42.0396 H   0  0  0  0  0  0  0  0  0  0  0  0
   39.1614   31.5346   41.1821 H   0  0  0  0  0  0  0  0  0  0  0  0
   40.8230   32.2171   41.1821 H   0  0  0  0  0  0  0  0  0  0  0  0
   40.0326   35.0223   38.9464 H   0  0  0  0  0  0  0  0  0  0  0  0
   39.3613   35.1967   40.6457 H   0  0  0  0  0  0  0  0  0  0  0  0
   41.9395   36.6360   40.6769 H   0  0  0  0  0  0  0  0  0  0  0  0
   40.9855   36.0078   42.0495 H   0  0  0  0  0  0  0  0  0  0  0  0
   43.5586   36.1879   42.3868 H   0  0  0  0  0  0  0  0  0  0  0  0
   42.7749   34.5948   42.7861 H   0  0  0  0  0  0  0  0  0  0  0  0
   44.3073   35.2915   40.2708 H   0  0  0  0  0  0  0  0  0  0  0  0
   44.8379   34.2207   41.6312 H   0  0  0  0  0  0  0  0  0  0  0  0
   43.7933   32.4588   40.6871 H   0  0  0  0  0  0  0  0  0  0  0  0
   43.3534   33.4504   39.2926 H   0  0  0  0  0  0  0  0  0  0  0  0
   41.8509   33.3226   41.9822 H   0  0  0  0  0  0  0  0  0  0  0  0
   41.2940   32.5907   40.4563 H   0  0  0  0  0  0  0  0  0  0  0  0
   36.0554   31.8121   38.6506 H   0  0  0  0  0  0  0  0  0  0  0  0
   37.6549   31.0440   38.8711 H   0  0  0  0  0  0  0  0  0  0  0  0
   38.1051   30.7662   42.2474 H   0  0  0  0  0  0  0  0  0  0  0  0
   35.5954   27.3252   41.3408 H   0  0  0  0  0  0  0  0  0  0  0  0
   38.8324   27.0226   44.1235 H   0  0  0  0  0  0  0  0  0  0  0  0
  1  4  1  0
  1  3  1  0
  2  1  1  0
  4  5  1  0
  5 10  1  0
  5  6  1  0
  6  7  1  0
  8  7  1  0
  9 10  1  0
  9  8  1  0
 11  1  1  0
 12 11  1  0
 12 13  1  0
 13 14  1  0
 14 17  1  0
 15 14  2  0
 16 21  2  0
 17 18  2  0
 17 16  1  0
 18 19  1  0
 19 20  2  0
 21 20  1  0
  2 22  1  0
  2 23  1  0
  2 24  1  0
  3 25  1  0
  3 26  1  0
  3 27  1  0
  4 28  1  0
  4 29  1  0
  6 30  1  0
  6 31  1  0
  7 32  1  0
  7 33  1  0
  8 34  1  0
  8 35  1  0
  9 36  1  0
  9 37  1  0
 10 38  1  0
 10 39  1  0
 12 40  1  0
 12 41  1  0
 16 42  1  0
 18 43  1  0
 20 44  1  0
M  ISO  8  22   8  23   8  24   8  25   8  26   8  27   8  28   8  29   8
M  ISO  8  30  13  31  13  32  13  33  13  34  13  35  13  36  13  37  13
M  ISO  7  38  13  39  13  40   8  41   8  42  14  43  14  44  14
M  END
>  <minimizedAffinity>  (1) 
-4.63042593

>  <minimizedRMSD>  (1) 
0.434710383

$$$$
