
     RDKit          3D

 36 37  0  0  0  0  0  0  0  0999 V2000
   37.4240   33.3460   39.4080 S   0  0  0  0  0  0  0  0  0  0  0  0
   38.6450   34.1820   40.5320 C   0  0  0  0  0  0  0  0  0  0  0  0
   39.1650   35.1830   39.8620 O   0  0  0  0  0  0  0  0  0  0  0  0
   39.8960   36.2780   40.2520 C   0  0  0  0  0  0  0  0  0  0  0  0
   39.4450   37.3900   39.9780 O   0  0  0  0  0  0  0  0  0  0  0  0
   41.9710   34.9090   40.5740 C   0  0  0  0  0  0  0  0  0  0  0  0
   41.1720   35.9860   40.9770 C   0  0  0  0  0  0  0  0  0  0  0  0
   41.4790   36.8010   42.0280 C   0  0  0  0  0  0  0  0  0  0  0  0
   42.6300   36.5020   42.6740 N   0  0  0  0  0  0  0  0  0  0  0  0
   43.4110   35.4630   42.2990 C   0  0  0  0  0  0  0  0  0  0  0  0
   43.0830   34.6510   41.2340 N   0  0  0  0  0  0  0  0  0  0  0  0
   38.1960   31.9220   38.6350 C   0  0  0  0  0  0  0  0  0  0  0  0
   39.6930   32.1040   38.6710 C   0  0  0  0  0  0  0  0  0  0  0  0
   37.7640   31.8170   37.1890 C   0  0  0  0  0  0  0  0  0  0  0  0
   37.8360   30.6710   39.4050 C   0  0  0  0  0  0  0  0  0  0  0  0
   36.5620   30.9710   40.1690 C   0  0  0  0  0  0  0  0  0  0  0  0
   36.2600   30.3150   41.4590 C   0  0  0  0  0  0  0  0  0  0  0  0
   35.6000   29.8060   40.2480 C   0  0  0  0  0  0  0  0  0  0  0  0
   38.1347   34.5553   41.4321 H   0  0  0  0  0  0  0  0  0  0  0  0
   39.4269   33.4779   40.8527 H   0  0  0  0  0  0  0  0  0  0  0  0
   41.6747   34.2858   39.7174 H   0  0  0  0  0  0  0  0  0  0  0  0
   40.8362   37.6415   42.3287 H   0  0  0  0  0  0  0  0  0  0  0  0
   44.3350   35.2600   42.8603 H   0  0  0  0  0  0  0  0  0  0  0  0
   40.0323   32.1453   39.7165 H   0  0  0  0  0  0  0  0  0  0  0  0
   40.1776   31.2582   38.1614 H   0  0  0  0  0  0  0  0  0  0  0  0
   39.9608   33.0413   38.1614 H   0  0  0  0  0  0  0  0  0  0  0  0
   36.6960   31.5574   37.1433 H   0  0  0  0  0  0  0  0  0  0  0  0
   37.9288   32.7813   36.6861 H   0  0  0  0  0  0  0  0  0  0  0  0
   38.3530   31.0359   36.6861 H   0  0  0  0  0  0  0  0  0  0  0  0
   37.6715   29.8342   38.7102 H   0  0  0  0  0  0  0  0  0  0  0  0
   38.6470   30.3860   40.0914 H   0  0  0  0  0  0  0  0  0  0  0  0
   36.5616   32.0252   39.8549 H   0  0  0  0  0  0  0  0  0  0  0  0
   37.0313   29.7079   41.9556 H   0  0  0  0  0  0  0  0  0  0  0  0
   35.9018   30.6716   42.4360 H   0  0  0  0  0  0  0  0  0  0  0  0
   34.5227   29.9690   40.0970 H   0  0  0  0  0  0  0  0  0  0  0  0
   35.5183   28.8255   39.7562 H   0  0  0  0  0  0  0  0  0  0  0  0
  1  2  1  0
  3  4  1  0
  3  2  1  0
  4  7  1  0
  5  4  2  0
  6  7  2  0
  6 11  1  0
  7  8  1  0
  8  9  2  0
 10  9  1  0
 11 10  2  0
 12 13  1  0
 12 15  1  0
 12  1  1  0
 14 12  1  0
 15 16  1  0
 16 18  1  0
 16 17  1  0
 18 17  1  0
  2 19  1  0
  2 20  1  0
  6 21  1  0
  8 22  1  0
 10 23  1  0
 13 24  1  0
 13 25  1  0
 13 26  1  0
 14 27  1  0
 14 28  1  0
 14 29  1  0
 15 30  1  0
 15 31  1  0
 16 32  1  0
 17 33  1  0
 17 34  1  0
 18 35  1  0
 18 36  1  0
M  ISO  8  19   8  20   8  21  14  22  14  23  14  24   8  25   8  26   8
M  ISO  8  27   8  28   8  29   8  30   8  31   8  32  13  33  13  34  13
M  ISO  2  35  13  36  13
M  END
>  <minimizedAffinity>  (1) 
-4.62609196

>  <minimizedRMSD>  (1) 
6.86259222

$$$$
