
     RDKit          3D

 53 57  0  0  1  0  0  0  0  0999 V2000
   37.8640   27.4710   42.8430 C   0  0  2  0  0  0  0  0  0  0  0  0
   39.6640   25.8560   42.2160 C   0  0  1  0  0  0  0  0  0  0  0  0
   39.5400   24.4100   41.6500 C   0  0  0  0  0  0  0  0  0  0  0  0
   38.1800   23.9550   41.9540 C   0  0  0  0  0  0  0  0  0  0  0  0
   37.3990   25.2760   42.1760 C   0  0  0  0  0  0  0  0  0  0  0  0
   38.3670   26.0650   42.8590 C   0  0  2  0  0  0  0  0  0  0  0  0
   42.1290   26.9940   44.7910 C   0  0  0  0  0  0  0  0  0  0  0  0
   40.9360   26.8780   44.0820 C   0  0  0  0  0  0  0  0  0  0  0  0
   40.8540   26.0130   42.9900 C   0  0  0  0  0  0  0  0  0  0  0  0
   41.9650   25.2930   42.6480 N   0  0  0  0  0  0  0  0  0  0  0  0
   43.1160   25.4060   43.3370 C   0  0  0  0  0  0  0  0  0  0  0  0
   43.2070   26.2480   44.4000 N   0  0  0  0  0  0  0  0  0  0  0  0
   36.6900   27.7640   43.6950 C   0  0  0  0  0  0  0  0  0  0  0  0
   37.6120   27.7620   41.4510 C   0  0  0  0  0  0  0  0  0  0  0  0
   37.1140   29.0800   41.2870 N   0  0  0  0  0  0  0  0  0  0  0  0
   35.8880   29.4560   40.8560 C   0  0  0  0  0  0  0  0  0  0  0  0
   35.8820   30.8180   40.6910 C   0  0  0  0  0  0  0  0  0  0  0  0
   37.1230   31.2110   41.0380 N   0  0  0  0  0  0  0  0  0  0  0  0
   37.8810   30.1630   41.4040 C   0  0  0  0  0  0  0  0  0  0  0  0
   39.1510   30.7450   41.7480 C   0  0  0  0  0  0  0  0  0  0  0  0
   39.8840   30.8550   42.9130 C   0  0  0  0  0  0  0  0  0  0  0  0
   41.0340   31.5210   42.7180 N   0  0  0  0  0  0  0  0  0  0  0  0
   41.1590   31.9030   41.4360 C   0  0  0  0  0  0  0  0  0  0  0  0
   42.0520   32.5790   40.6330 C   0  0  0  0  0  0  0  0  0  0  0  0
   41.8580   32.8030   39.2870 C   0  0  0  0  0  0  0  0  0  0  0  0
   40.7090   32.3330   38.6850 C   0  0  0  0  0  0  0  0  0  0  0  0
   39.8140   31.6550   39.4870 C   0  0  0  0  0  0  0  0  0  0  0  0
   40.0040   31.4230   40.8540 C   0  0  0  0  0  0  0  0  0  0  0  0
   38.6239   28.1237   43.2975 H   0  0  0  0  0  0  0  0  0  0  0  0
   39.8223   26.6590   41.4810 H   0  0  0  0  0  0  0  0  0  0  0  0
   40.2771   23.7500   42.1307 H   0  0  0  0  0  0  0  0  0  0  0  0
   39.7313   24.3908   40.5669 H   0  0  0  0  0  0  0  0  0  0  0  0
   37.7584   23.3854   41.1127 H   0  0  0  0  0  0  0  0  0  0  0  0
   38.1373   23.2804   42.8218 H   0  0  0  0  0  0  0  0  0  0  0  0
   37.1071   25.7360   41.2204 H   0  0  0  0  0  0  0  0  0  0  0  0
   36.4533   25.1519   42.7239 H   0  0  0  0  0  0  0  0  0  0  0  0
   38.5145   25.7881   43.9133 H   0  0  0  0  0  0  0  0  0  0  0  0
   42.2034   27.6747   45.6519 H   0  0  0  0  0  0  0  0  0  0  0  0
   40.0580   27.4684   44.3829 H   0  0  0  0  0  0  0  0  0  0  0  0
   43.9912   24.8112   43.0368 H   0  0  0  0  0  0  0  0  0  0  0  0
   36.9784   27.6920   44.7541 H   0  0  0  0  0  0  0  0  0  0  0  0
   36.3269   28.7803   43.4821 H   0  0  0  0  0  0  0  0  0  0  0  0
   35.8920   27.0375   43.4821 H   0  0  0  0  0  0  0  0  0  0  0  0
   38.5508   27.6599   40.8869 H   0  0  0  0  0  0  0  0  0  0  0  0
   36.8574   27.0543   41.0771 H   0  0  0  0  0  0  0  0  0  0  0  0
   35.0385   28.7827   40.6692 H   0  0  0  0  0  0  0  0  0  0  0  0
   35.0482   31.4496   40.3506 H   0  0  0  0  0  0  0  0  0  0  0  0
   39.5648   30.4467   43.8832 H   0  0  0  0  0  0  0  0  0  0  0  0
   41.7283   31.7134   43.4541 H   0  0  0  0  0  0  0  0  0  0  0  0
   42.9743   32.9625   41.0937 H   0  0  0  0  0  0  0  0  0  0  0  0
   42.6103   33.3500   38.6997 H   0  0  0  0  0  0  0  0  0  0  0  0
   40.5151   32.4916   37.6139 H   0  0  0  0  0  0  0  0  0  0  0  0
   38.8930   31.2727   39.0226 H   0  0  0  0  0  0  0  0  0  0  0  0
  1  6  1  0
  1 13  1  0
  2  6  1  0
  2  9  1  0
  3  4  1  0
  3  2  1  0
  4  5  1  0
  5  6  1  0
  8  7  2  0
  9  8  1  0
 10  9  2  0
 10 11  1  0
 11 12  2  0
 12  7  1  0
 14  1  1  0
 15 19  1  0
 15 14  1  0
 16 15  1  0
 17 16  2  0
 17 18  1  0
 18 19  2  0
 19 20  1  0
 20 21  2  0
 22 21  1  0
 23 22  1  0
 24 23  2  0
 25 24  1  0
 26 25  2  0
 26 27  1  0
 27 28  2  0
 28 23  1  0
 28 20  1  0
  1 29  1  1
  2 30  1  6
  3 31  1  0
  3 32  1  0
  4 33  1  0
  4 34  1  0
  5 35  1  0
  5 36  1  0
  6 37  1  1
  7 38  1  0
  8 39  1  0
 11 40  1  0
 13 41  1  0
 13 42  1  0
 13 43  1  0
 14 44  1  0
 14 45  1  0
 16 46  1  0
 17 47  1  0
 21 48  1  0
 22 49  1  0
 24 50  1  0
 25 51  1  0
 26 52  1  0
 27 53  1  0
M  ISO  8  29   8  30  13  31  13  32  13  33  13  34  13  35  13  36  13
M  ISO  8  37  13  38  14  39  14  40  14  41   8  42   8  43   8  44   8
M  ISO  8  45   8  46  14  47  14  48  14  49   9  50  14  51  14  52  14
M  ISO  1  53  14
M  END
>  <minimizedAffinity>  (1) 
-6.239007

>  <minimizedRMSD>  (1) 
1.15255201

$$$$
