
     RDKit          3D

 38 39  0  0  0  0  0  0  0  0999 V2000
   40.5590   33.7520   40.0390 C   0  0  0  0  0  0  0  0  0  0  0  0
   40.3260   33.0240   38.7550 C   0  0  0  0  0  0  0  0  0  0  0  0
   41.0080   32.7200   41.0510 C   0  0  0  0  0  0  0  0  0  0  0  0
   41.6620   34.7690   39.8280 C   0  0  0  0  0  0  0  0  0  0  0  0
   42.0070   35.4880   41.0200 N   0  0  0  0  0  0  0  0  0  0  0  0
   43.0860   35.1300   41.7600 C   0  0  0  0  0  0  0  0  0  0  0  0
   43.1970   35.9430   42.8140 N   0  0  0  0  0  0  0  0  0  0  0  0
   42.1820   36.8350   42.7520 C   0  0  0  0  0  0  0  0  0  0  0  0
   41.4970   36.5270   41.6690 N   0  0  0  0  0  0  0  0  0  0  0  0
   39.0510   34.5320   40.5600 S   0  0  0  0  0  0  0  0  0  0  0  0
   37.6170   33.9290   39.5670 C   0  0  0  0  0  0  0  0  0  0  0  0
   37.1330   32.8420   40.1470 O   0  0  0  0  0  0  0  0  0  0  0  0
   37.0600   31.5370   39.7430 C   0  0  0  0  0  0  0  0  0  0  0  0
   36.9660   31.3150   38.5240 O   0  0  0  0  0  0  0  0  0  0  0  0
   38.1340   30.5500   41.7500 C   0  0  0  0  0  0  0  0  0  0  0  0
   37.1030   30.5120   40.8240 C   0  0  0  0  0  0  0  0  0  0  0  0
   36.1100   29.5780   40.8500 C   0  0  0  0  0  0  0  0  0  0  0  0
   36.1930   28.6790   41.8450 N   0  0  0  0  0  0  0  0  0  0  0  0
   37.1800   28.6720   42.7740 C   0  0  0  0  0  0  0  0  0  0  0  0
   38.1670   29.6340   42.7170 N   0  0  0  0  0  0  0  0  0  0  0  0
   37.1950   27.6390   43.8440 C   0  0  0  0  0  0  0  0  0  0  0  0
   38.4550   27.1560   44.1090 F   0  0  0  0  0  0  0  0  0  0  0  0
   36.2900   26.6700   43.5390 F   0  0  0  0  0  0  0  0  0  0  0  0
   36.7400   28.2630   45.0130 F   0  0  0  0  0  0  0  0  0  0  0  0
   39.9972   31.9966   38.9704 H   0  0  0  0  0  0  0  0  0  0  0  0
   39.5492   33.5435   38.1747 H   0  0  0  0  0  0  0  0  0  0  0  0
   41.2600   32.9960   38.1747 H   0  0  0  0  0  0  0  0  0  0  0  0
   40.8401   33.1059   42.0673 H   0  0  0  0  0  0  0  0  0  0  0  0
   40.4315   31.7937   40.9106 H   0  0  0  0  0  0  0  0  0  0  0  0
   42.0787   32.5104   40.9106 H   0  0  0  0  0  0  0  0  0  0  0  0
   42.5576   34.2426   39.4664 H   0  0  0  0  0  0  0  0  0  0  0  0
   41.2911   35.5051   39.0996 H   0  0  0  0  0  0  0  0  0  0  0  0
   43.7659   34.2971   41.5275 H   0  0  0  0  0  0  0  0  0  0  0  0
   41.9715   37.6501   43.4601 H   0  0  0  0  0  0  0  0  0  0  0  0
   37.9474   33.6890   38.5456 H   0  0  0  0  0  0  0  0  0  0  0  0
   36.8405   34.7064   39.5150 H   0  0  0  0  0  0  0  0  0  0  0  0
   38.9127   31.3244   41.6874 H   0  0  0  0  0  0  0  0  0  0  0  0
   35.2978   29.5617   40.1083 H   0  0  0  0  0  0  0  0  0  0  0  0
  1 10  1  0
  1  3  1  0
  2  1  1  0
  4  1  1  0
  4  5  1  0
  5  9  1  0
  5  6  1  0
  6  7  2  0
  8  7  1  0
  9  8  2  0
 11 12  1  0
 11 10  1  0
 13 12  1  0
 13 16  1  0
 14 13  2  0
 15 20  2  0
 16 17  2  0
 16 15  1  0
 17 18  1  0
 18 19  2  0
 19 21  1  0
 20 19  1  0
 21 22  1  0
 21 24  1  0
 23 21  1  0
  2 25  1  0
  2 26  1  0
  2 27  1  0
  3 28  1  0
  3 29  1  0
  3 30  1  0
  4 31  1  0
  4 32  1  0
  6 33  1  0
  8 34  1  0
 11 35  1  0
 11 36  1  0
 15 37  1  0
 17 38  1  0
M  ISO  8  25   8  26   8  27   8  28   8  29   8  30   8  31   8  32   8
M  ISO  6  33  14  34  14  35   8  36   8  37  14  38  14
M  END
>  <minimizedAffinity>  (1) 
-5.86689854

>  <minimizedRMSD>  (1) 
1.37753379

$$$$
