
     RDKit          3D

 47 48  0  0  0  0  0  0  0  0999 V2000
   40.6220   33.6200   40.0090 C   0  0  0  0  0  0  0  0  0  0  0  0
   40.4520   32.8470   38.7440 C   0  0  0  0  0  0  0  0  0  0  0  0
   41.2030   32.6710   41.0330 C   0  0  0  0  0  0  0  0  0  0  0  0
   41.5930   34.7600   39.7660 C   0  0  0  0  0  0  0  0  0  0  0  0
   41.9410   35.4770   40.9560 N   0  0  0  0  0  0  0  0  0  0  0  0
   43.0320   35.1190   41.6810 C   0  0  0  0  0  0  0  0  0  0  0  0
   43.1490   35.9270   42.7420 N   0  0  0  0  0  0  0  0  0  0  0  0
   42.1280   36.8150   42.7060 C   0  0  0  0  0  0  0  0  0  0  0  0
   41.4300   36.5110   41.6250 N   0  0  0  0  0  0  0  0  0  0  0  0
   39.0450   34.2250   40.5540 S   0  0  0  0  0  0  0  0  0  0  0  0
   37.6960   33.0430   40.1200 C   0  0  0  0  0  0  0  0  0  0  0  0
   37.7870   31.9970   40.9290 O   0  0  0  0  0  0  0  0  0  0  0  0
   37.0580   30.8350   41.0150 C   0  0  0  0  0  0  0  0  0  0  0  0
   35.8600   30.8880   40.7270 O   0  0  0  0  0  0  0  0  0  0  0  0
   38.7500   29.7430   42.4780 C   0  0  0  0  0  0  0  0  0  0  0  0
   37.8190   29.6240   41.4560 C   0  0  0  0  0  0  0  0  0  0  0  0
   37.5320   28.4610   40.8150 C   0  0  0  0  0  0  0  0  0  0  0  0
   38.2470   27.3910   41.2640 N   0  0  0  0  0  0  0  0  0  0  0  0
   39.1610   27.4550   42.2530 C   0  0  0  0  0  0  0  0  0  0  0  0
   39.4060   28.6680   42.8620 N   0  0  0  0  0  0  0  0  0  0  0  0
   39.8850   26.2190   42.6640 C   0  0  0  0  0  0  0  0  0  0  0  0
   40.2850   26.3970   44.1330 C   0  0  0  0  0  0  0  0  0  0  0  0
   38.9720   25.0120   42.6410 C   0  0  0  0  0  0  0  0  0  0  0  0
   41.1290   25.9660   41.8750 C   0  0  0  0  0  0  0  0  0  0  0  0
   40.2214   31.7984   38.9832 H   0  0  0  0  0  0  0  0  0  0  0  0
   39.6275   33.2793   38.1581 H   0  0  0  0  0  0  0  0  0  0  0  0
   41.3818   32.8935   38.1581 H   0  0  0  0  0  0  0  0  0  0  0  0
   40.9772   33.0398   42.0444 H   0  0  0  0  0  0  0  0  0  0  0  0
   40.7612   31.6725   40.8997 H   0  0  0  0  0  0  0  0  0  0  0  0
   42.2932   32.6104   40.8997 H   0  0  0  0  0  0  0  0  0  0  0  0
   42.5129   34.3463   39.3271 H   0  0  0  0  0  0  0  0  0  0  0  0
   41.0937   35.4726   39.0930 H   0  0  0  0  0  0  0  0  0  0  0  0
   43.7145   34.2924   41.4344 H   0  0  0  0  0  0  0  0  0  0  0  0
   41.9221   37.6210   43.4256 H   0  0  0  0  0  0  0  0  0  0  0  0
   36.7181   33.5299   40.2492 H   0  0  0  0  0  0  0  0  0  0  0  0
   37.7931   32.7230   39.0721 H   0  0  0  0  0  0  0  0  0  0  0  0
   38.9361   30.7154   42.9574 H   0  0  0  0  0  0  0  0  0  0  0  0
   36.7895   28.3894   40.0065 H   0  0  0  0  0  0  0  0  0  0  0  0
   39.4726   26.0355   44.7806 H   0  0  0  0  0  0  0  0  0  0  0  0
   41.1999   25.8211   44.3363 H   0  0  0  0  0  0  0  0  0  0  0  0
   40.4696   27.4622   44.3363 H   0  0  0  0  0  0  0  0  0  0  0  0
   38.7413   24.7070   43.6724 H   0  0  0  0  0  0  0  0  0  0  0  0
   38.0393   25.2677   42.1169 H   0  0  0  0  0  0  0  0  0  0  0  0
   39.4719   24.1841   42.1169 H   0  0  0  0  0  0  0  0  0  0  0  0
   41.9706   25.7948   42.5623 H   0  0  0  0  0  0  0  0  0  0  0  0
   40.9869   25.0784   41.2410 H   0  0  0  0  0  0  0  0  0  0  0  0
   41.3449   26.8386   41.2410 H   0  0  0  0  0  0  0  0  0  0  0  0
  1 10  1  0
  1  3  1  0
  2  1  1  0
  4  1  1  0
  4  5  1  0
  5  9  1  0
  5  6  1  0
  6  7  2  0
  8  7  1  0
  9  8  2  0
 11 10  1  0
 11 12  1  0
 12 13  1  0
 13 16  1  0
 14 13  2  0
 15 20  2  0
 16 15  1  0
 17 18  1  0
 17 16  2  0
 18 19  2  0
 19 21  1  0
 19 20  1  0
 21 22  1  0
 23 21  1  0
 24 21  1  0
  2 25  1  0
  2 26  1  0
  2 27  1  0
  3 28  1  0
  3 29  1  0
  3 30  1  0
  4 31  1  0
  4 32  1  0
  6 33  1  0
  8 34  1  0
 11 35  1  0
 11 36  1  0
 15 37  1  0
 17 38  1  0
 22 39  1  0
 22 40  1  0
 22 41  1  0
 23 42  1  0
 23 43  1  0
 23 44  1  0
 24 45  1  0
 24 46  1  0
 24 47  1  0
M  ISO  8  25   8  26   8  27   8  28   8  29   8  30   8  31   8  32   8
M  ISO  8  33  14  34  14  35   8  36   8  37  14  38  14  39   8  40   8
M  ISO  7  41   8  42   8  43   8  44   8  45   8  46   8  47   8
M  END
>  <minimizedAffinity>  (1) 
-5.13141584

>  <minimizedRMSD>  (1) 
1.03178227

$$$$
