
     RDKit          3D

 42 44  0  0  0  0  0  0  0  0999 V2000
   39.2650   34.5310   40.6600 S   0  0  0  0  0  0  0  0  0  0  0  0
   37.7480   33.9080   39.8120 C   0  0  0  0  0  0  0  0  0  0  0  0
   37.5390   32.6600   40.1900 O   0  0  0  0  0  0  0  0  0  0  0  0
   37.3240   31.5020   39.4870 C   0  0  0  0  0  0  0  0  0  0  0  0
   36.8210   31.5960   38.3600 O   0  0  0  0  0  0  0  0  0  0  0  0
   38.0160   30.2650   41.5280 C   0  0  0  0  0  0  0  0  0  0  0  0
   37.7270   30.2480   40.1680 C   0  0  0  0  0  0  0  0  0  0  0  0
   37.7960   29.1040   39.4260 C   0  0  0  0  0  0  0  0  0  0  0  0
   38.1600   27.9910   40.0900 N   0  0  0  0  0  0  0  0  0  0  0  0
   38.4470   27.9710   41.4080 C   0  0  0  0  0  0  0  0  0  0  0  0
   38.3680   29.1400   42.1240 N   0  0  0  0  0  0  0  0  0  0  0  0
   38.8420   26.6940   42.0600 C   0  0  0  0  0  0  0  0  0  0  0  0
   38.2550   25.4610   41.7320 C   0  0  0  0  0  0  0  0  0  0  0  0
   38.6830   24.3530   42.3830 C   0  0  0  0  0  0  0  0  0  0  0  0
   39.7080   24.4580   43.3760 C   0  0  0  0  0  0  0  0  0  0  0  0
   40.0360   26.3490   43.3140 S   0  0  0  0  0  0  0  0  0  0  0  0
   40.7150   33.6940   40.0650 C   0  0  0  0  0  0  0  0  0  0  0  0
   40.4240   33.0740   38.7370 C   0  0  0  0  0  0  0  0  0  0  0  0
   41.1090   32.5810   40.9980 C   0  0  0  0  0  0  0  0  0  0  0  0
   41.8740   34.6630   39.9060 C   0  0  0  0  0  0  0  0  0  0  0  0
   42.1360   35.4400   41.0890 N   0  0  0  0  0  0  0  0  0  0  0  0
   43.1840   35.1240   41.8890 C   0  0  0  0  0  0  0  0  0  0  0  0
   43.2200   35.9800   42.9210 N   0  0  0  0  0  0  0  0  0  0  0  0
   42.1880   36.8440   42.7750 C   0  0  0  0  0  0  0  0  0  0  0  0
   41.5640   36.4900   41.6690 N   0  0  0  0  0  0  0  0  0  0  0  0
   37.8900   33.9466   38.7219 H   0  0  0  0  0  0  0  0  0  0  0  0
   36.8831   34.5327   40.0799 H   0  0  0  0  0  0  0  0  0  0  0  0
   37.9524   31.2026   42.0998 H   0  0  0  0  0  0  0  0  0  0  0  0
   37.5678   29.0925   38.3500 H   0  0  0  0  0  0  0  0  0  0  0  0
   37.4680   25.3968   40.9662 H   0  0  0  0  0  0  0  0  0  0  0  0
   38.2427   23.3726   42.1484 H   0  0  0  0  0  0  0  0  0  0  0  0
   40.1743   23.6788   43.9968 H   0  0  0  0  0  0  0  0  0  0  0  0
   39.9610   32.0875   38.8865 H   0  0  0  0  0  0  0  0  0  0  0  0
   39.7354   33.7207   38.1734 H   0  0  0  0  0  0  0  0  0  0  0  0
   41.3614   32.9574   38.1734 H   0  0  0  0  0  0  0  0  0  0  0  0
   40.9904   32.9160   42.0390 H   0  0  0  0  0  0  0  0  0  0  0  0
   40.4656   31.7070   40.8185 H   0  0  0  0  0  0  0  0  0  0  0  0
   42.1590   32.3064   40.8185 H   0  0  0  0  0  0  0  0  0  0  0  0
   42.7784   34.0874   39.6595 H   0  0  0  0  0  0  0  0  0  0  0  0
   41.6000   35.3688   39.1080 H   0  0  0  0  0  0  0  0  0  0  0  0
   43.8909   34.2985   41.7191 H   0  0  0  0  0  0  0  0  0  0  0  0
   41.9231   37.6751   43.4452 H   0  0  0  0  0  0  0  0  0  0  0  0
  2  3  1  0
  2  1  1  0
  4  7  1  0
  4  3  1  0
  5  4  2  0
  6 11  2  0
  7  6  1  0
  8  9  1  0
  8  7  2  0
  9 10  2  0
 10 12  1  0
 10 11  1  0
 12 16  1  0
 13 12  2  0
 13 14  1  0
 14 15  2  0
 16 15  1  0
 17  1  1  0
 17 19  1  0
 18 17  1  0
 20 17  1  0
 20 21  1  0
 21 25  1  0
 21 22  1  0
 22 23  2  0
 24 23  1  0
 25 24  2  0
  2 26  1  0
  2 27  1  0
  6 28  1  0
  8 29  1  0
 13 30  1  0
 14 31  1  0
 15 32  1  0
 18 33  1  0
 18 34  1  0
 18 35  1  0
 19 36  1  0
 19 37  1  0
 19 38  1  0
 20 39  1  0
 20 40  1  0
 22 41  1  0
 24 42  1  0
M  ISO  8  26   8  27   8  28  14  29  14  30  14  31  14  32  14  33   8
M  ISO  8  34   8  35   8  36   8  37   8  38   8  39   8  40   8  41  14
M  ISO  1  42  14
M  END
>  <minimizedAffinity>  (1) 
-5.1181469

>  <minimizedRMSD>  (1) 
1.62981153

$$$$
