
     RDKit          3D

 53 57  0  0  1  0  0  0  0  0999 V2000
   37.5270   27.7820   43.2510 C   0  0  2  0  0  0  0  0  0  0  0  0
   39.1440   26.1150   42.3180 C   0  0  1  0  0  0  0  0  0  0  0  0
   38.8760   24.7350   41.6410 C   0  0  0  0  0  0  0  0  0  0  0  0
   37.5200   24.3380   42.0510 C   0  0  0  0  0  0  0  0  0  0  0  0
   36.8550   25.6860   42.4310 C   0  0  0  0  0  0  0  0  0  0  0  0
   37.9310   26.3450   43.0810 C   0  0  2  0  0  0  0  0  0  0  0  0
   41.9410   26.9600   44.6530 C   0  0  0  0  0  0  0  0  0  0  0  0
   40.6840   26.9780   44.0570 C   0  0  0  0  0  0  0  0  0  0  0  0
   40.4070   26.1320   42.9880 C   0  0  0  0  0  0  0  0  0  0  0  0
   41.3990   25.2930   42.5540 N   0  0  0  0  0  0  0  0  0  0  0  0
   42.6110   25.2730   43.1300 C   0  0  0  0  0  0  0  0  0  0  0  0
   42.8880   26.1050   44.1780 N   0  0  0  0  0  0  0  0  0  0  0  0
   36.7730   28.1280   44.4690 C   0  0  0  0  0  0  0  0  0  0  0  0
   36.8050   28.0860   42.0460 C   0  0  0  0  0  0  0  0  0  0  0  0
   37.0250   29.4420   41.6550 N   0  0  0  0  0  0  0  0  0  0  0  0
   36.1130   30.2690   41.0620 C   0  0  0  0  0  0  0  0  0  0  0  0
   36.7520   31.3660   40.6290 C   0  0  0  0  0  0  0  0  0  0  0  0
   38.0280   31.1610   40.9820 N   0  0  0  0  0  0  0  0  0  0  0  0
   38.2310   29.9850   41.6260 C   0  0  0  0  0  0  0  0  0  0  0  0
   39.6420   30.1440   41.8390 C   0  0  0  0  0  0  0  0  0  0  0  0
   40.3180   30.8200   42.7270 N   0  0  0  0  0  0  0  0  0  0  0  0
   41.5630   30.8380   43.0250 C   0  0  0  0  0  0  0  0  0  0  0  0
   42.3790   30.0430   42.3490 N   0  0  0  0  0  0  0  0  0  0  0  0
   41.9440   29.2350   41.3780 C   0  0  0  0  0  0  0  0  0  0  0  0
   42.8260   28.4060   40.7450 C   0  0  0  0  0  0  0  0  0  0  0  0
   42.3450   27.5470   39.7860 C   0  0  0  0  0  0  0  0  0  0  0  0
   40.9970   27.5510   39.5000 C   0  0  0  0  0  0  0  0  0  0  0  0
   40.1910   28.4250   40.1940 C   0  0  0  0  0  0  0  0  0  0  0  0
   40.6060   29.3350   41.1840 C   0  0  0  0  0  0  0  0  0  0  0  0
   38.4260   28.3976   43.4019 H   0  0  0  0  0  0  0  0  0  0  0  0
   39.2931   26.9723   41.6451 H   0  0  0  0  0  0  0  0  0  0  0  0
   39.6115   23.9922   41.9834 H   0  0  0  0  0  0  0  0  0  0  0  0
   38.9629   24.7999   40.5464 H   0  0  0  0  0  0  0  0  0  0  0  0
   36.9834   23.8535   41.2220 H   0  0  0  0  0  0  0  0  0  0  0  0
   37.5148   23.6078   42.8736 H   0  0  0  0  0  0  0  0  0  0  0  0
   36.5226   26.2380   41.5395 H   0  0  0  0  0  0  0  0  0  0  0  0
   35.9471   25.5868   43.0442 H   0  0  0  0  0  0  0  0  0  0  0  0
   38.1520   25.9593   44.0872 H   0  0  0  0  0  0  0  0  0  0  0  0
   42.1668   27.6281   45.4972 H   0  0  0  0  0  0  0  0  0  0  0  0
   39.9082   27.6620   44.4315 H   0  0  0  0  0  0  0  0  0  0  0  0
   43.3839   24.5847   42.7573 H   0  0  0  0  0  0  0  0  0  0  0  0
   37.3644   27.8566   45.3559 H   0  0  0  0  0  0  0  0  0  0  0  0
   36.5705   29.2091   44.4801 H   0  0  0  0  0  0  0  0  0  0  0  0
   35.8213   27.5765   44.4801 H   0  0  0  0  0  0  0  0  0  0  0  0
   37.1470   27.4181   41.2417 H   0  0  0  0  0  0  0  0  0  0  0  0
   35.7304   27.9408   42.2310 H   0  0  0  0  0  0  0  0  0  0  0  0
   35.0364   30.0689   40.9574 H   0  0  0  0  0  0  0  0  0  0  0  0
   36.3263   32.2342   40.1047 H   0  0  0  0  0  0  0  0  0  0  0  0
   41.9445   31.4953   43.8202 H   0  0  0  0  0  0  0  0  0  0  0  0
   43.8966   28.4255   40.9970 H   0  0  0  0  0  0  0  0  0  0  0  0
   43.0262   26.8662   39.2545 H   0  0  0  0  0  0  0  0  0  0  0  0
   40.5774   26.8758   38.7397 H   0  0  0  0  0  0  0  0  0  0  0  0
   39.1183   28.4107   39.9511 H   0  0  0  0  0  0  0  0  0  0  0  0
  1 13  1  0
  2  9  1  0
  2  6  1  0
  3  4  1  0
  3  2  1  0
  4  5  1  0
  5  6  1  0
  6  1  1  0
  8  7  2  0
  9  8  1  0
 10  9  2  0
 10 11  1  0
 11 12  2  0
 12  7  1  0
 14  1  1  0
 15 14  1  0
 16 15  1  0
 17 18  1  0
 17 16  2  0
 18 19  2  0
 19 15  1  0
 19 20  1  0
 20 21  2  0
 21 22  1  0
 23 22  2  0
 24 23  1  0
 25 24  2  0
 26 25  1  0
 27 26  2  0
 27 28  1  0
 28 29  2  0
 29 24  1  0
 29 20  1  0
  1 30  1  6
  2 31  1  6
  3 32  1  0
  3 33  1  0
  4 34  1  0
  4 35  1  0
  5 36  1  0
  5 37  1  0
  6 38  1  1
  7 39  1  0
  8 40  1  0
 11 41  1  0
 13 42  1  0
 13 43  1  0
 13 44  1  0
 14 45  1  0
 14 46  1  0
 16 47  1  0
 17 48  1  0
 22 49  1  0
 25 50  1  0
 26 51  1  0
 27 52  1  0
 28 53  1  0
M  ISO  8  30   8  31  13  32  13  33  13  34  13  35  13  36  13  37  13
M  ISO  8  38  13  39  14  40  14  41  14  42   8  43   8  44   8  45   8
M  ISO  8  46   8  47  14  48  14  49  14  50  14  51  14  52  14  53  14
M  END
>  <minimizedAffinity>  (1) 
-5.98042297

>  <minimizedRMSD>  (1) 
1.16352713

$$$$
