
     RDKit          3D

 30 32  0  0  1  0  0  0  0  0999 V2000
   37.4890   28.1310   43.3220 C   0  0  2  0  0  0  0  0  0  0  0  0
   38.6280   24.6680   42.2470 C   0  0  0  0  0  0  0  0  0  0  0  0
   37.8220   25.8270   42.3390 C   0  0  0  0  0  0  0  0  0  0  0  0
   38.2860   26.8790   43.1770 C   0  0  0  0  0  0  0  0  0  0  0  0
   39.4830   26.6990   43.8400 N   0  0  0  0  0  0  0  0  0  0  0  0
   40.2080   25.5660   43.7110 C   0  0  0  0  0  0  0  0  0  0  0  0
   39.7830   24.5630   42.9210 N   0  0  0  0  0  0  0  0  0  0  0  0
   36.6850   28.1360   44.5960 C   0  0  0  0  0  0  0  0  0  0  0  0
   36.5810   28.2090   42.0770 C   0  0  0  0  0  0  0  0  0  0  0  0
   36.8490   29.4000   41.3090 N   0  0  0  0  0  0  0  0  0  0  0  0
   36.2320   30.6070   41.3000 C   0  0  0  0  0  0  0  0  0  0  0  0
   36.8050   31.4490   40.4270 N   0  0  0  0  0  0  0  0  0  0  0  0
   37.8160   30.8210   39.8360 C   0  0  0  0  0  0  0  0  0  0  0  0
   38.7880   31.0830   38.8790 C   0  0  0  0  0  0  0  0  0  0  0  0
   39.6890   30.1670   38.5140 N   0  0  0  0  0  0  0  0  0  0  0  0
   39.7070   28.9520   39.0450 C   0  0  0  0  0  0  0  0  0  0  0  0
   38.7650   28.6840   39.9780 N   0  0  0  0  0  0  0  0  0  0  0  0
   37.8360   29.5570   40.3870 C   0  0  0  0  0  0  0  0  0  0  0  0
   38.1467   29.0103   43.3874 H   0  0  0  0  0  0  0  0  0  0  0  0
   38.3003   23.8344   41.6085 H   0  0  0  0  0  0  0  0  0  0  0  0
   36.8753   25.9114   41.7853 H   0  0  0  0  0  0  0  0  0  0  0  0
   41.1566   25.4624   44.2581 H   0  0  0  0  0  0  0  0  0  0  0  0
   37.3663   28.1318   45.4596 H   0  0  0  0  0  0  0  0  0  0  0  0
   36.0564   29.0381   44.6293 H   0  0  0  0  0  0  0  0  0  0  0  0
   36.0452   27.2418   44.6293 H   0  0  0  0  0  0  0  0  0  0  0  0
   36.7617   27.3267   41.4454 H   0  0  0  0  0  0  0  0  0  0  0  0
   35.5335   28.2390   42.4115 H   0  0  0  0  0  0  0  0  0  0  0  0
   35.3682   30.8642   41.9306 H   0  0  0  0  0  0  0  0  0  0  0  0
   38.8167   32.0761   38.4068 H   0  0  0  0  0  0  0  0  0  0  0  0
   40.4505   28.2000   38.7420 H   0  0  0  0  0  0  0  0  0  0  0  0
  1  8  1  0
  2  3  2  0
  2  7  1  0
  3  4  1  0
  4  1  1  0
  4  5  2  0
  6  5  1  0
  7  6  2  0
  9  1  1  0
 10  9  1  0
 11 10  1  0
 12 11  2  0
 13 18  2  0
 13 12  1  0
 14 13  1  0
 15 14  2  0
 15 16  1  0
 16 17  2  0
 17 18  1  0
 18 10  1  0
  1 19  1  1
  2 20  1  0
  3 21  1  0
  6 22  1  0
  8 23  1  0
  8 24  1  0
  8 25  1  0
  9 26  1  0
  9 27  1  0
 11 28  1  0
 14 29  1  0
 16 30  1  0
M  ISO  8  19   8  20  14  21  14  22  14  23   8  24   8  25   8  26   8
M  ISO  4  27   8  28  14  29  14  30  14
M  END
>  <minimizedAffinity>  (1) 
-4.84269238

>  <minimizedRMSD>  (1) 
6.58890486

$$$$
