
     RDKit          3D

 33 34  0  0  1  0  0  0  0  0999 V2000
   37.2680   27.8570   43.1780 C   0  0  2  0  0  0  0  0  0  0  0  0
   38.9430   30.9420   41.7330 C   0  0  0  0  0  0  0  0  0  0  0  0
   38.7530   29.7610   42.4570 C   0  0  0  0  0  0  0  0  0  0  0  0
   37.4940   29.1110   42.4190 C   0  0  0  0  0  0  0  0  0  0  0  0
   36.5420   29.7060   41.6540 N   0  0  0  0  0  0  0  0  0  0  0  0
   36.7350   30.8350   40.9650 C   0  0  0  0  0  0  0  0  0  0  0  0
   37.9230   31.4520   40.9990 N   0  0  0  0  0  0  0  0  0  0  0  0
   36.8580   28.1230   44.6040 C   0  0  0  0  0  0  0  0  0  0  0  0
   38.5720   27.0510   43.1380 C   0  0  0  0  0  0  0  0  0  0  0  0
   38.3970   25.6720   42.8400 N   0  0  0  0  0  0  0  0  0  0  0  0
   37.1440   25.5050   42.1720 C   0  0  0  0  0  0  0  0  0  0  0  0
   36.9690   24.2090   41.4510 C   0  0  0  0  0  0  0  0  0  0  0  0
   38.1360   23.3560   41.5060 N   0  0  0  0  0  0  0  0  0  0  0  0
   39.2310   24.1870   41.0400 C   0  0  0  0  0  0  0  0  0  0  0  0
   39.5330   25.1590   42.1380 C   0  0  0  0  0  0  0  0  0  0  0  0
   36.4420   27.2959   42.7166 H   0  0  0  0  0  0  0  0  0  0  0  0
   39.9156   31.4552   41.7587 H   0  0  0  0  0  0  0  0  0  0  0  0
   39.5758   29.3388   43.0526 H   0  0  0  0  0  0  0  0  0  0  0  0
   35.9145   31.2591   40.3675 H   0  0  0  0  0  0  0  0  0  0  0  0
   37.5813   27.6537   45.2871 H   0  0  0  0  0  0  0  0  0  0  0  0
   36.8356   29.2081   44.7827 H   0  0  0  0  0  0  0  0  0  0  0  0
   35.8579   27.7012   44.7827 H   0  0  0  0  0  0  0  0  0  0  0  0
   39.2250   27.4897   42.3692 H   0  0  0  0  0  0  0  0  0  0  0  0
   39.0064   27.1031   44.1473 H   0  0  0  0  0  0  0  0  0  0  0  0
   36.3453   25.5852   42.9241 H   0  0  0  0  0  0  0  0  0  0  0  0
   37.1057   26.2881   41.4004 H   0  0  0  0  0  0  0  0  0  0  0  0
   36.7450   24.4250   40.3959 H   0  0  0  0  0  0  0  0  0  0  0  0
   36.1501   23.6695   41.9493 H   0  0  0  0  0  0  0  0  0  0  0  0
   38.3074   23.0388   42.4708 H   0  0  0  0  0  0  0  0  0  0  0  0
   40.1146   23.5665   40.8298 H   0  0  0  0  0  0  0  0  0  0  0  0
   38.9615   24.7113   40.1113 H   0  0  0  0  0  0  0  0  0  0  0  0
   40.1820   24.6535   42.8683 H   0  0  0  0  0  0  0  0  0  0  0  0
   40.0023   26.0265   41.6509 H   0  0  0  0  0  0  0  0  0  0  0  0
  1  8  1  0
  2  3  2  0
  4  3  1  0
  4  1  1  0
  5  4  2  0
  6  7  2  0
  6  5  1  0
  7  2  1  0
  9  1  1  0
 10  9  1  0
 11 10  1  0
 12 13  1  0
 12 11  1  0
 14 13  1  0
 14 15  1  0
 15 10  1  0
  1 16  1  6
  2 17  1  0
  3 18  1  0
  6 19  1  0
  8 20  1  0
  8 21  1  0
  8 22  1  0
  9 23  1  0
  9 24  1  0
 11 25  1  0
 11 26  1  0
 12 27  1  0
 12 28  1  0
 13 29  1  0
 14 30  1  0
 14 31  1  0
 15 32  1  0
 15 33  1  0
M  ISO  8  16   8  17  14  18  14  19  14  20   8  21   8  22   8  23   8
M  ISO  8  24   8  25  13  26  13  27  13  28  13  29   5  30  13  31  13
M  ISO  2  32  13  33  13
M  END
>  <minimizedAffinity>  (1) 
-4.42806196

>  <minimizedRMSD>  (1) 
2.18710947

$$$$
