
     RDKit          3D

 34 35  0  0  1  0  0  0  0  0999 V2000
   37.1480   27.9110   43.0160 C   0  0  2  0  0  0  0  0  0  0  0  0
   39.1190   30.9220   41.8550 C   0  0  0  0  0  0  0  0  0  0  0  0
   38.7880   29.7190   42.5020 C   0  0  0  0  0  0  0  0  0  0  0  0
   37.4880   29.1780   42.3370 C   0  0  0  0  0  0  0  0  0  0  0  0
   36.6170   29.8670   41.5460 N   0  0  0  0  0  0  0  0  0  0  0  0
   36.9760   31.0250   40.9400 C   0  0  0  0  0  0  0  0  0  0  0  0
   38.2050   31.5430   41.0910 N   0  0  0  0  0  0  0  0  0  0  0  0
   36.8420   28.0810   44.4820 C   0  0  0  0  0  0  0  0  0  0  0  0
   38.3330   26.9470   42.8180 C   0  0  0  0  0  0  0  0  0  0  0  0
   38.1730   26.0100   41.8010 N   0  0  0  0  0  0  0  0  0  0  0  0
   37.6160   26.3950   40.5600 C   0  0  0  0  0  0  0  0  0  0  0  0
   36.7190   25.2570   40.1170 C   0  0  0  0  0  0  0  0  0  0  0  0
   36.6180   24.1940   41.1810 C   0  0  0  0  0  0  0  0  0  0  0  0
   37.9240   23.6610   41.6620 C   0  0  0  0  0  0  0  0  0  0  0  0
   38.9030   24.8000   41.8180 C   0  0  0  0  0  0  0  0  0  0  0  0
   36.2250   27.5115   42.5705 H   0  0  0  0  0  0  0  0  0  0  0  0
   40.1237   31.3538   41.9739 H   0  0  0  0  0  0  0  0  0  0  0  0
   39.5295   29.2029   43.1295 H   0  0  0  0  0  0  0  0  0  0  0  0
   36.2439   31.5520   40.3105 H   0  0  0  0  0  0  0  0  0  0  0  0
   37.6494   27.6325   45.0795 H   0  0  0  0  0  0  0  0  0  0  0  0
   36.7628   29.1524   44.7182 H   0  0  0  0  0  0  0  0  0  0  0  0
   35.8905   27.5822   44.7182 H   0  0  0  0  0  0  0  0  0  0  0  0
   39.2256   27.5479   42.5894 H   0  0  0  0  0  0  0  0  0  0  0  0
   38.4169   26.3717   43.7518 H   0  0  0  0  0  0  0  0  0  0  0  0
   37.0287   27.3177   40.6774 H   0  0  0  0  0  0  0  0  0  0  0  0
   38.4021   26.5933   39.8165 H   0  0  0  0  0  0  0  0  0  0  0  0
   35.7139   25.6528   39.9092 H   0  0  0  0  0  0  0  0  0  0  0  0
   37.1530   24.8040   39.2134 H   0  0  0  0  0  0  0  0  0  0  0  0
   36.0857   24.6228   42.0429 H   0  0  0  0  0  0  0  0  0  0  0  0
   36.0897   23.3461   40.7206 H   0  0  0  0  0  0  0  0  0  0  0  0
   37.7823   23.1632   42.6326 H   0  0  0  0  0  0  0  0  0  0  0  0
   38.3162   22.9363   40.9333 H   0  0  0  0  0  0  0  0  0  0  0  0
   39.6247   24.7880   40.9880 H   0  0  0  0  0  0  0  0  0  0  0  0
   39.4561   24.7011   42.7637 H   0  0  0  0  0  0  0  0  0  0  0  0
  1  8  1  0
  2  3  2  0
  4  3  1  0
  4  1  1  0
  5  4  2  0
  6  7  2  0
  6  5  1  0
  7  2  1  0
  9  1  1  0
 10 15  1  0
 10  9  1  0
 11 10  1  0
 12 11  1  0
 12 13  1  0
 13 14  1  0
 14 15  1  0
  1 16  1  6
  2 17  1  0
  3 18  1  0
  6 19  1  0
  8 20  1  0
  8 21  1  0
  8 22  1  0
  9 23  1  0
  9 24  1  0
 11 25  1  0
 11 26  1  0
 12 27  1  0
 12 28  1  0
 13 29  1  0
 13 30  1  0
 14 31  1  0
 14 32  1  0
 15 33  1  0
 15 34  1  0
M  ISO  8  16   8  17  14  18  14  19  14  20   8  21   8  22   8  23   8
M  ISO  8  24   8  25  13  26  13  27  13  28  13  29  13  30  13  31  13
M  ISO  3  32  13  33  13  34  13
M  END
>  <minimizedAffinity>  (1) 
-4.42550945

>  <minimizedRMSD>  (1) 
1.33885086

$$$$
