
     RDKit          3D

 26 27  0  0  1  0  0  0  0  0999 V2000
   36.9520   27.9100   43.2000 C   0  0  2  0  0  0  0  0  0  0  0  0
   39.2710   30.7190   42.1680 C   0  0  0  0  0  0  0  0  0  0  0  0
   38.8030   29.5720   42.8300 C   0  0  0  0  0  0  0  0  0  0  0  0
   37.4900   29.1100   42.5310 C   0  0  0  0  0  0  0  0  0  0  0  0
   36.7540   29.8170   41.6070 N   0  0  0  0  0  0  0  0  0  0  0  0
   37.2580   30.9180   41.0000 C   0  0  0  0  0  0  0  0  0  0  0  0
   38.5070   31.3670   41.2780 N   0  0  0  0  0  0  0  0  0  0  0  0
   36.8010   28.0940   44.6880 C   0  0  0  0  0  0  0  0  0  0  0  0
   37.9410   26.7580   42.9070 C   0  0  0  0  0  0  0  0  0  0  0  0
   37.3960   25.8470   41.9500 N   0  0  0  0  0  0  0  0  0  0  0  0
   37.1560   26.1490   40.6930 N   0  0  0  0  0  0  0  0  0  0  0  0
   36.6470   25.0840   40.0580 C   0  0  0  0  0  0  0  0  0  0  0  0
   36.5460   24.0200   40.9470 C   0  0  0  0  0  0  0  0  0  0  0  0
   37.0350   24.5640   42.1320 C   0  0  0  0  0  0  0  0  0  0  0  0
   35.9435   27.6976   42.8156 H   0  0  0  0  0  0  0  0  0  0  0  0
   40.2830   31.0921   42.3840 H   0  0  0  0  0  0  0  0  0  0  0  0
   39.4344   29.0446   43.5602 H   0  0  0  0  0  0  0  0  0  0  0  0
   36.6417   31.4588   40.2667 H   0  0  0  0  0  0  0  0  0  0  0  0
   37.4139   27.3471   45.2139 H   0  0  0  0  0  0  0  0  0  0  0  0
   37.1337   29.1044   44.9682 H   0  0  0  0  0  0  0  0  0  0  0  0
   35.7451   27.9648   44.9682 H   0  0  0  0  0  0  0  0  0  0  0  0
   38.8767   27.1791   42.5107 H   0  0  0  0  0  0  0  0  0  0  0  0
   38.1306   26.2119   43.8428 H   0  0  0  0  0  0  0  0  0  0  0  0
   36.3546   25.0562   38.9979 H   0  0  0  0  0  0  0  0  0  0  0  0
   36.1728   23.0021   40.7608 H   0  0  0  0  0  0  0  0  0  0  0  0
   37.1150   24.0200   43.0847 H   0  0  0  0  0  0  0  0  0  0  0  0
  1  8  1  0
  2  3  2  0
  4  3  1  0
  4  1  1  0
  5  4  2  0
  6  7  2  0
  6  5  1  0
  7  2  1  0
  9  1  1  0
 10 14  1  0
 10  9  1  0
 11 10  1  0
 12 11  2  0
 12 13  1  0
 13 14  2  0
  1 15  1  6
  2 16  1  0
  3 17  1  0
  6 18  1  0
  8 19  1  0
  8 20  1  0
  8 21  1  0
  9 22  1  0
  9 23  1  0
 12 24  1  0
 13 25  1  0
 14 26  1  0
M  ISO  8  15   8  16  14  17  14  18  14  19   8  20   8  21   8  22   8
M  ISO  4  23   8  24  14  25  14  26  14
M  END
>  <minimizedAffinity>  (1) 
-4.32424831

>  <minimizedRMSD>  (1) 
1.27470195

$$$$
