
     RDKit          3D

 52 55  0  0  1  0  0  0  0  0999 V2000
   39.2000   26.1310   42.2260 C   0  0  1  0  0  0  0  0  0  0  0  0
   38.9380   24.7290   41.6050 C   0  0  0  0  0  0  0  0  0  0  0  0
   37.5750   24.3460   41.9640 C   0  0  0  0  0  0  0  0  0  0  0  0
   36.9060   25.6920   42.3280 C   0  0  0  0  0  0  0  0  0  0  0  0
   37.9790   26.3760   42.9840 C   0  0  2  0  0  0  0  0  0  0  0  0
   41.9390   26.9640   44.6720 C   0  0  0  0  0  0  0  0  0  0  0  0
   40.6970   26.9970   44.0300 C   0  0  0  0  0  0  0  0  0  0  0  0
   40.4470   26.1550   42.9430 C   0  0  0  0  0  0  0  0  0  0  0  0
   41.4440   25.3060   42.5360 N   0  0  0  0  0  0  0  0  0  0  0  0
   42.6360   25.2810   43.1610 C   0  0  0  0  0  0  0  0  0  0  0  0
   42.8910   26.1020   44.2250 N   0  0  0  0  0  0  0  0  0  0  0  0
   37.5580   27.7860   43.1660 C   0  0  2  0  0  0  0  0  0  0  0  0
   36.8260   28.1000   44.4130 C   0  0  0  0  0  0  0  0  0  0  0  0
   36.7370   28.0420   41.9540 C   0  0  0  0  0  0  0  0  0  0  0  0
   37.0110   29.3700   41.5230 N   0  0  0  0  0  0  0  0  0  0  0  0
   36.1210   30.3020   41.0960 C   0  0  0  0  0  0  0  0  0  0  0  0
   36.7890   31.4190   40.6770 C   0  0  0  0  0  0  0  0  0  0  0  0
   38.1020   31.1260   40.8680 N   0  0  0  0  0  0  0  0  0  0  0  0
   38.2150   29.8750   41.3840 C   0  0  0  0  0  0  0  0  0  0  0  0
   39.5850   29.7860   41.4920 N   0  0  0  0  0  0  0  0  0  0  0  0
   40.5640   29.1630   40.5770 C   0  0  0  0  0  0  0  0  0  0  0  0
   41.3960   30.2770   39.9610 C   0  0  0  0  0  0  0  0  0  0  0  0
   41.2870   31.4700   40.6230 O   0  0  0  0  0  0  0  0  0  0  0  0
   41.3250   31.4190   41.9910 C   0  0  0  0  0  0  0  0  0  0  0  0
   40.3640   30.4230   42.5910 C   0  0  0  0  0  0  0  0  0  0  0  0
   39.3599   26.9545   41.5145 H   0  0  0  0  0  0  0  0  0  0  0  0
   39.6538   23.9980   42.0091 H   0  0  0  0  0  0  0  0  0  0  0  0
   39.0611   24.7565   40.5123 H   0  0  0  0  0  0  0  0  0  0  0  0
   37.0637   23.8698   41.1144 H   0  0  0  0  0  0  0  0  0  0  0  0
   37.5376   23.6134   42.7837 H   0  0  0  0  0  0  0  0  0  0  0  0
   36.5752   26.2324   41.4288 H   0  0  0  0  0  0  0  0  0  0  0  0
   35.9980   25.5903   42.9406 H   0  0  0  0  0  0  0  0  0  0  0  0
   38.2110   26.0148   43.9968 H   0  0  0  0  0  0  0  0  0  0  0  0
   42.1429   27.6260   45.5265 H   0  0  0  0  0  0  0  0  0  0  0  0
   39.9155   27.6869   44.3812 H   0  0  0  0  0  0  0  0  0  0  0  0
   43.4168   24.5899   42.8108 H   0  0  0  0  0  0  0  0  0  0  0  0
   38.4369   28.4383   43.2760 H   0  0  0  0  0  0  0  0  0  0  0  0
   37.4478   27.8333   45.2803 H   0  0  0  0  0  0  0  0  0  0  0  0
   36.5971   29.1755   44.4429 H   0  0  0  0  0  0  0  0  0  0  0  0
   35.8889   27.5247   44.4429 H   0  0  0  0  0  0  0  0  0  0  0  0
   37.0046   27.3275   41.1616 H   0  0  0  0  0  0  0  0  0  0  0  0
   35.6670   27.9212   42.1789 H   0  0  0  0  0  0  0  0  0  0  0  0
   35.0281   30.1774   41.0883 H   0  0  0  0  0  0  0  0  0  0  0  0
   36.3591   32.3482   40.2747 H   0  0  0  0  0  0  0  0  0  0  0  0
   41.2148   28.4752   41.1368 H   0  0  0  0  0  0  0  0  0  0  0  0
   40.0476   28.5896   39.7931 H   0  0  0  0  0  0  0  0  0  0  0  0
   42.4519   29.9688   39.9704 H   0  0  0  0  0  0  0  0  0  0  0  0
   41.0172   30.4374   38.9408 H   0  0  0  0  0  0  0  0  0  0  0  0
   42.3449   31.1458   42.2995 H   0  0  0  0  0  0  0  0  0  0  0  0
   41.0259   32.4124   42.3566 H   0  0  0  0  0  0  0  0  0  0  0  0
   39.6784   30.9390   43.2792 H   0  0  0  0  0  0  0  0  0  0  0  0
   40.9207   29.6553   43.1484 H   0  0  0  0  0  0  0  0  0  0  0  0
  1  8  1  0
  1  5  1  0
  2  3  1  0
  2  1  1  0
  3  4  1  0
  4  5  1  0
  5 12  1  0
  7  6  2  0
  8  7  1  0
  9  8  2  0
  9 10  1  0
 10 11  2  0
 11  6  1  0
 12 13  1  0
 14 12  1  0
 15 14  1  0
 16 15  1  0
 17 18  1  0
 17 16  2  0
 18 19  2  0
 19 20  1  0
 19 15  1  0
 20 25  1  0
 21 20  1  0
 22 21  1  0
 22 23  1  0
 23 24  1  0
 24 25  1  0
  1 26  1  6
  2 27  1  0
  2 28  1  0
  3 29  1  0
  3 30  1  0
  4 31  1  0
  4 32  1  0
  5 33  1  1
  6 34  1  0
  7 35  1  0
 10 36  1  0
 12 37  1  6
 13 38  1  0
 13 39  1  0
 13 40  1  0
 14 41  1  0
 14 42  1  0
 16 43  1  0
 17 44  1  0
 21 45  1  0
 21 46  1  0
 22 47  1  0
 22 48  1  0
 24 49  1  0
 24 50  1  0
 25 51  1  0
 25 52  1  0
M  ISO  8  26  13  27  13  28  13  29  13  30  13  31  13  32  13  33  13
M  ISO  8  34  14  35  14  36  14  37   8  38   8  39   8  40   8  41   8
M  ISO  8  42   8  43  14  44  14  45  13  46  13  47  13  48  13  49  13
M  ISO  3  50  13  51  13  52  13
M  END
>  <minimizedAffinity>  (1) 
-5.97499657

>  <minimizedRMSD>  (1) 
0.344542027

$$$$
