
     RDKit          3D

 25 26  0  0  1  0  0  0  0  0999 V2000
   36.9630   27.8180   43.2330 C   0  0  2  0  0  0  0  0  0  0  0  0
   39.1530   30.6750   42.0480 C   0  0  0  0  0  0  0  0  0  0  0  0
   38.7800   29.5250   42.7640 C   0  0  0  0  0  0  0  0  0  0  0  0
   37.4640   29.0320   42.5320 C   0  0  0  0  0  0  0  0  0  0  0  0
   36.6780   29.7160   41.6380 N   0  0  0  0  0  0  0  0  0  0  0  0
   37.0840   30.8080   40.9830 C   0  0  0  0  0  0  0  0  0  0  0  0
   38.3270   31.2870   41.1900 N   0  0  0  0  0  0  0  0  0  0  0  0
   36.7590   28.0740   44.7050 C   0  0  0  0  0  0  0  0  0  0  0  0
   38.0490   26.7360   43.0320 C   0  0  0  0  0  0  0  0  0  0  0  0
   37.6280   25.8020   42.0200 N   0  0  0  0  0  0  0  0  0  0  0  0
   37.9570   25.8340   40.7170 C   0  0  0  0  0  0  0  0  0  0  0  0
   37.3340   24.7690   40.1680 N   0  0  0  0  0  0  0  0  0  0  0  0
   36.6500   24.1140   41.1130 C   0  0  0  0  0  0  0  0  0  0  0  0
   36.8450   24.7760   42.2690 N   0  0  0  0  0  0  0  0  0  0  0  0
   35.9878   27.5100   42.8280 H   0  0  0  0  0  0  0  0  0  0  0  0
   40.1614   31.0880   42.1979 H   0  0  0  0  0  0  0  0  0  0  0  0
   39.4678   29.0316   43.4664 H   0  0  0  0  0  0  0  0  0  0  0  0
   36.4072   31.3134   40.2784 H   0  0  0  0  0  0  0  0  0  0  0  0
   37.3403   27.3445   45.2880 H   0  0  0  0  0  0  0  0  0  0  0  0
   37.0963   29.0918   44.9504 H   0  0  0  0  0  0  0  0  0  0  0  0
   35.6915   27.9724   44.9504 H   0  0  0  0  0  0  0  0  0  0  0  0
   38.9880   27.2154   42.7181 H   0  0  0  0  0  0  0  0  0  0  0  0
   38.2048   26.1985   43.9790 H   0  0  0  0  0  0  0  0  0  0  0  0
   38.5964   26.5698   40.2073 H   0  0  0  0  0  0  0  0  0  0  0  0
   36.0436   23.2071   40.9723 H   0  0  0  0  0  0  0  0  0  0  0  0
  1  8  1  0
  2  3  2  0
  4  3  1  0
  4  1  1  0
  5  4  2  0
  6  7  2  0
  6  5  1  0
  7  2  1  0
  9  1  1  0
 10 14  1  0
 10  9  1  0
 11 10  1  0
 12 11  2  0
 12 13  1  0
 13 14  2  0
  1 15  1  6
  2 16  1  0
  3 17  1  0
  6 18  1  0
  8 19  1  0
  8 20  1  0
  8 21  1  0
  9 22  1  0
  9 23  1  0
 11 24  1  0
 13 25  1  0
M  ISO  8  15   8  16  14  17  14  18  14  19   8  20   8  21   8  22   8
M  ISO  3  23   8  24  14  25  14
M  END
>  <minimizedAffinity>  (1) 
-4.13217258

>  <minimizedRMSD>  (1) 
1.81559706

$$$$
