
     RDKit          3D

 46 49  0  0  1  0  0  0  0  0999 V2000
   37.6620   27.5630   42.9570 C   0  0  2  0  0  0  0  0  0  0  0  0
   39.4240   25.9560   42.1980 C   0  0  1  0  0  0  0  0  0  0  0  0
   39.2640   24.5370   41.5740 C   0  0  0  0  0  0  0  0  0  0  0  0
   37.9100   24.0820   41.9390 C   0  0  0  0  0  0  0  0  0  0  0  0
   37.1510   25.4120   42.1730 C   0  0  0  0  0  0  0  0  0  0  0  0
   38.1490   26.1600   42.8660 C   0  0  2  0  0  0  0  0  0  0  0  0
   41.9750   26.9800   44.7430 C   0  0  0  0  0  0  0  0  0  0  0  0
   40.7700   26.9130   44.0470 C   0  0  0  0  0  0  0  0  0  0  0  0
   40.6360   26.0570   42.9540 C   0  0  0  0  0  0  0  0  0  0  0  0
   41.7090   25.2910   42.5880 N   0  0  0  0  0  0  0  0  0  0  0  0
   42.8720   25.3590   43.2660 C   0  0  0  0  0  0  0  0  0  0  0  0
   43.0140   26.1890   44.3300 N   0  0  0  0  0  0  0  0  0  0  0  0
   36.7330   27.8830   44.0680 C   0  0  0  0  0  0  0  0  0  0  0  0
   37.0620   27.8130   41.6600 C   0  0  0  0  0  0  0  0  0  0  0  0
   37.0460   29.2150   41.4060 N   0  0  0  0  0  0  0  0  0  0  0  0
   36.0010   29.9370   40.9270 C   0  0  0  0  0  0  0  0  0  0  0  0
   36.4350   31.2160   40.6740 C   0  0  0  0  0  0  0  0  0  0  0  0
   37.7310   31.2040   41.0180 N   0  0  0  0  0  0  0  0  0  0  0  0
   38.1190   29.9870   41.4700 C   0  0  0  0  0  0  0  0  0  0  0  0
   39.4630   30.1220   41.7970 N   0  0  0  0  0  0  0  0  0  0  0  0
   40.4830   29.3600   41.3370 N   0  0  0  0  0  0  0  0  0  0  0  0
   41.6520   29.7400   41.8750 C   0  0  0  0  0  0  0  0  0  0  0  0
   41.4410   30.7980   42.7330 C   0  0  0  0  0  0  0  0  0  0  0  0
   40.0810   30.9760   42.6350 C   0  0  0  0  0  0  0  0  0  0  0  0
   38.5082   28.2218   43.2017 H   0  0  0  0  0  0  0  0  0  0  0  0
   39.5829   26.7899   41.4984 H   0  0  0  0  0  0  0  0  0  0  0  0
   40.0207   23.8519   41.9838 H   0  0  0  0  0  0  0  0  0  0  0  0
   39.4007   24.5594   40.4828 H   0  0  0  0  0  0  0  0  0  0  0  0
   37.4531   23.5037   41.1225 H   0  0  0  0  0  0  0  0  0  0  0  0
   37.8964   23.4139   42.8127 H   0  0  0  0  0  0  0  0  0  0  0  0
   36.8694   25.8917   41.2240 H   0  0  0  0  0  0  0  0  0  0  0  0
   36.1979   25.3081   42.7122 H   0  0  0  0  0  0  0  0  0  0  0  0
   38.3245   25.8339   43.9018 H   0  0  0  0  0  0  0  0  0  0  0  0
   42.0894   27.6534   45.6053 H   0  0  0  0  0  0  0  0  0  0  0  0
   39.9208   27.5378   44.3608 H   0  0  0  0  0  0  0  0  0  0  0  0
   43.7193   24.7318   42.9518 H   0  0  0  0  0  0  0  0  0  0  0  0
   37.2378   27.7091   45.0297 H   0  0  0  0  0  0  0  0  0  0  0  0
   36.4286   28.9378   43.9991 H   0  0  0  0  0  0  0  0  0  0  0  0
   35.8436   27.2394   43.9991 H   0  0  0  0  0  0  0  0  0  0  0  0
   37.6494   27.3059   40.8804 H   0  0  0  0  0  0  0  0  0  0  0  0
   36.0319   27.4273   41.6522 H   0  0  0  0  0  0  0  0  0  0  0  0
   34.9793   29.5616   40.7682 H   0  0  0  0  0  0  0  0  0  0  0  0
   35.8507   32.0598   40.2783 H   0  0  0  0  0  0  0  0  0  0  0  0
   42.6280   29.2785   41.6640 H   0  0  0  0  0  0  0  0  0  0  0  0
   42.1709   31.3551   43.3387 H   0  0  0  0  0  0  0  0  0  0  0  0
   39.5414   31.7533   43.1959 H   0  0  0  0  0  0  0  0  0  0  0  0
  1 13  1  0
  2  6  1  0
  2  9  1  0
  3  4  1  0
  3  2  1  0
  4  5  1  0
  5  6  1  0
  6  1  1  0
  8  7  2  0
  9  8  1  0
 10  9  2  0
 10 11  1  0
 11 12  2  0
 12  7  1  0
 14  1  1  0
 15 19  1  0
 15 14  1  0
 16 15  1  0
 17 16  2  0
 17 18  1  0
 18 19  2  0
 19 20  1  0
 20 24  1  0
 21 20  1  0
 21 22  2  0
 22 23  1  0
 24 23  2  0
  1 25  1  1
  2 26  1  6
  3 27  1  0
  3 28  1  0
  4 29  1  0
  4 30  1  0
  5 31  1  0
  5 32  1  0
  6 33  1  1
  7 34  1  0
  8 35  1  0
 11 36  1  0
 13 37  1  0
 13 38  1  0
 13 39  1  0
 14 40  1  0
 14 41  1  0
 16 42  1  0
 17 43  1  0
 22 44  1  0
 23 45  1  0
 24 46  1  0
M  ISO  8  25   8  26  13  27  13  28  13  29  13  30  13  31  13  32  13
M  ISO  8  33  13  34  14  35  14  36  14  37   8  38   8  39   8  40   8
M  ISO  6  41   8  42  14  43  14  44  14  45  14  46  14
M  END
>  <minimizedAffinity>  (1) 
-5.92558289

>  <minimizedRMSD>  (1) 
0.419774503

$$$$
