
     RDKit          3D

 51 54  0  0  1  0  0  0  0  0999 V2000
   39.2210   25.7670   41.9620 C   0  0  1  0  0  0  0  0  0  0  0  0
   39.1550   24.3450   41.3320 C   0  0  0  0  0  0  0  0  0  0  0  0
   37.8160   23.8210   41.5960 C   0  0  0  0  0  0  0  0  0  0  0  0
   36.9840   25.0960   41.8670 C   0  0  0  0  0  0  0  0  0  0  0  0
   37.9240   25.8820   42.6160 C   0  0  2  0  0  0  0  0  0  0  0  0
   41.6600   26.8730   44.6110 C   0  0  0  0  0  0  0  0  0  0  0  0
   40.4740   26.7820   43.8690 C   0  0  0  0  0  0  0  0  0  0  0  0
   40.4000   25.9210   42.7720 C   0  0  0  0  0  0  0  0  0  0  0  0
   41.5060   25.1790   42.4520 N   0  0  0  0  0  0  0  0  0  0  0  0
   42.6410   25.2720   43.1700 C   0  0  0  0  0  0  0  0  0  0  0  0
   42.7270   26.1120   44.2460 N   0  0  0  0  0  0  0  0  0  0  0  0
   37.3490   27.2420   42.7670 C   0  0  2  0  0  0  0  0  0  0  0  0
   36.2750   27.3930   43.7670 C   0  0  0  0  0  0  0  0  0  0  0  0
   36.8750   27.5400   41.3810 C   0  0  0  0  0  0  0  0  0  0  0  0
   36.8480   28.9490   41.2340 N   0  0  0  0  0  0  0  0  0  0  0  0
   35.8120   29.7310   40.8450 C   0  0  0  0  0  0  0  0  0  0  0  0
   36.2160   31.0290   40.7490 C   0  0  0  0  0  0  0  0  0  0  0  0
   37.5340   31.0110   41.0910 N   0  0  0  0  0  0  0  0  0  0  0  0
   37.8920   29.7320   41.3820 C   0  0  0  0  0  0  0  0  0  0  0  0
   39.2170   29.9320   41.6930 N   0  0  0  0  0  0  0  0  0  0  0  0
   39.9750   30.8360   42.5950 C   0  0  0  0  0  0  0  0  0  0  0  0
   40.6280   31.6930   41.4890 C   0  0  0  0  0  0  0  0  0  0  0  0
   41.1140   30.5430   40.5850 C   0  0  0  0  0  0  0  0  0  0  0  0
   40.4250   29.3010   41.1350 C   0  0  0  0  0  0  0  0  0  0  0  0
   39.3513   26.6056   41.2621 H   0  0  0  0  0  0  0  0  0  0  0  0
   39.9128   23.6931   41.7911 H   0  0  0  0  0  0  0  0  0  0  0  0
   39.3540   24.3855   40.2509 H   0  0  0  0  0  0  0  0  0  0  0  0
   37.4274   23.2745   40.7240 H   0  0  0  0  0  0  0  0  0  0  0  0
   37.7903   23.1041   42.4299 H   0  0  0  0  0  0  0  0  0  0  0  0
   36.6944   25.5960   40.9310 H   0  0  0  0  0  0  0  0  0  0  0  0
   36.0306   24.9140   42.3847 H   0  0  0  0  0  0  0  0  0  0  0  0
   38.1039   25.5383   43.6453 H   0  0  0  0  0  0  0  0  0  0  0  0
   41.7269   27.5498   45.4756 H   0  0  0  0  0  0  0  0  0  0  0  0
   39.6012   27.3892   44.1511 H   0  0  0  0  0  0  0  0  0  0  0  0
   43.5124   24.6632   42.8870 H   0  0  0  0  0  0  0  0  0  0  0  0
   38.0978   27.9417   43.1667 H   0  0  0  0  0  0  0  0  0  0  0  0
   36.7042   27.3327   44.7780 H   0  0  0  0  0  0  0  0  0  0  0  0
   35.7850   28.3689   43.6343 H   0  0  0  0  0  0  0  0  0  0  0  0
   35.5349   26.5901   43.6343 H   0  0  0  0  0  0  0  0  0  0  0  0
   37.5637   27.0988   40.6455 H   0  0  0  0  0  0  0  0  0  0  0  0
   35.8749   27.1137   41.2135 H   0  0  0  0  0  0  0  0  0  0  0  0
   34.7937   29.3708   40.6371 H   0  0  0  0  0  0  0  0  0  0  0  0
   35.6103   31.9002   40.4589 H   0  0  0  0  0  0  0  0  0  0  0  0
   39.3175   31.4247   43.2516 H   0  0  0  0  0  0  0  0  0  0  0  0
   40.6547   30.3583   43.3160 H   0  0  0  0  0  0  0  0  0  0  0  0
   39.9001   32.3429   40.9813 H   0  0  0  0  0  0  0  0  0  0  0  0
   41.3985   32.4043   41.8213 H   0  0  0  0  0  0  0  0  0  0  0  0
   42.2074   30.4384   40.6445 H   0  0  0  0  0  0  0  0  0  0  0  0
   40.8746   30.7169   39.5255 H   0  0  0  0  0  0  0  0  0  0  0  0
   40.1833   28.5785   40.3415 H   0  0  0  0  0  0  0  0  0  0  0  0
   41.0188   28.7077   41.8459 H   0  0  0  0  0  0  0  0  0  0  0  0
  1  5  1  0
  1  8  1  0
  2  3  1  0
  2  1  1  0
  3  4  1  0
  4  5  1  0
  5 12  1  0
  7  6  2  0
  8  7  1  0
  9  8  2  0
  9 10  1  0
 10 11  2  0
 11  6  1  0
 12 13  1  0
 14 12  1  0
 15 14  1  0
 15 19  1  0
 16 15  1  0
 17 16  2  0
 17 18  1  0
 18 19  2  0
 19 20  1  0
 20 21  1  0
 22 21  1  0
 23 24  1  0
 23 22  1  0
 24 20  1  0
  1 25  1  6
  2 26  1  0
  2 27  1  0
  3 28  1  0
  3 29  1  0
  4 30  1  0
  4 31  1  0
  5 32  1  1
  6 33  1  0
  7 34  1  0
 10 35  1  0
 12 36  1  1
 13 37  1  0
 13 38  1  0
 13 39  1  0
 14 40  1  0
 14 41  1  0
 16 42  1  0
 17 43  1  0
 21 44  1  0
 21 45  1  0
 22 46  1  0
 22 47  1  0
 23 48  1  0
 23 49  1  0
 24 50  1  0
 24 51  1  0
M  ISO  8  25  13  26  13  27  13  28  13  29  13  30  13  31  13  32  13
M  ISO  8  33  14  34  14  35  14  36   8  37   8  38   8  39   8  40   8
M  ISO  8  41   8  42  14  43  14  44  13  45  13  46  13  47  13  48  13
M  ISO  3  49  13  50  13  51  13
M  END
>  <minimizedAffinity>  (1) 
-5.89921284

>  <minimizedRMSD>  (1) 
0.595984221

$$$$
