
     RDKit          3D

 46 49  0  0  1  0  0  0  0  0999 V2000
   37.3650   25.5980   42.3320 C   0  0  2  0  0  0  0  0  0  0  0  0
   38.0870   24.3120   42.3900 C   0  0  0  0  0  0  0  0  0  0  0  0
   37.9740   23.6780   41.0080 C   0  0  0  0  0  0  0  0  0  0  0  0
   37.0870   24.6190   40.2030 C   0  0  0  0  0  0  0  0  0  0  0  0
   37.3140   25.9470   40.8760 C   0  0  2  0  0  0  0  0  0  0  0  0
   38.4720   26.6320   40.3680 N   0  0  0  0  0  0  0  0  0  0  0  0
   38.6150   27.5800   39.4350 C   0  0  0  0  0  0  0  0  0  0  0  0
   39.8930   27.9610   39.2610 N   0  0  0  0  0  0  0  0  0  0  0  0
   40.6240   27.2210   40.1300 C   0  0  0  0  0  0  0  0  0  0  0  0
   41.9890   27.2530   40.3250 C   0  0  0  0  0  0  0  0  0  0  0  0
   42.7620   28.0020   39.6970 O   0  0  0  0  0  0  0  0  0  0  0  0
   42.5190   26.4300   41.2470 N   0  0  0  0  0  0  0  0  0  0  0  0
   41.6740   25.6270   41.9180 C   0  0  0  0  0  0  0  0  0  0  0  0
   42.0690   24.6850   42.9370 N   0  0  0  0  0  0  0  0  0  0  0  0
   40.3470   25.6220   41.7020 N   0  0  0  0  0  0  0  0  0  0  0  0
   39.7520   26.4180   40.7960 C   0  0  0  0  0  0  0  0  0  0  0  0
   37.9680   26.7400   43.0920 C   0  0  0  0  0  0  0  0  0  0  0  0
   36.8930   27.8300   43.2690 C   0  0  2  0  0  0  0  0  0  0  0  0
   39.1060   30.6380   42.0280 C   0  0  0  0  0  0  0  0  0  0  0  0
   38.6980   29.4910   42.7450 C   0  0  0  0  0  0  0  0  0  0  0  0
   37.3780   29.0260   42.5510 C   0  0  0  0  0  0  0  0  0  0  0  0
   36.5990   29.7340   41.6750 N   0  0  0  0  0  0  0  0  0  0  0  0
   37.0050   30.8090   41.0140 C   0  0  0  0  0  0  0  0  0  0  0  0
   38.2560   31.2660   41.1860 N   0  0  0  0  0  0  0  0  0  0  0  0
   36.6610   28.0940   44.7430 C   0  0  0  0  0  0  0  0  0  0  0  0
   36.3877   25.4569   42.8168 H   0  0  0  0  0  0  0  0  0  0  0  0
   39.1439   24.4826   42.6426 H   0  0  0  0  0  0  0  0  0  0  0  0
   37.6589   23.6545   43.1610 H   0  0  0  0  0  0  0  0  0  0  0  0
   38.9666   23.5917   40.5418 H   0  0  0  0  0  0  0  0  0  0  0  0
   37.5548   22.6622   41.0568 H   0  0  0  0  0  0  0  0  0  0  0  0
   36.0307   24.3184   40.2654 H   0  0  0  0  0  0  0  0  0  0  0  0
   37.3235   24.6286   39.1288 H   0  0  0  0  0  0  0  0  0  0  0  0
   36.5206   26.6827   40.6780 H   0  0  0  0  0  0  0  0  0  0  0  0
   37.7733   28.0045   38.8681 H   0  0  0  0  0  0  0  0  0  0  0  0
   43.5321   26.4151   41.4321 H   0  0  0  0  0  0  0  0  0  0  0  0
   41.3584   24.1047   43.4052 H   0  0  0  0  0  0  0  0  0  0  0  0
   43.0616   24.5928   43.1962 H   0  0  0  0  0  0  0  0  0  0  0  0
   38.3087   26.3910   44.0780 H   0  0  0  0  0  0  0  0  0  0  0  0
   38.8300   27.1459   42.5422 H   0  0  0  0  0  0  0  0  0  0  0  0
   35.9215   27.5219   42.8552 H   0  0  0  0  0  0  0  0  0  0  0  0
   40.1278   31.0244   42.1568 H   0  0  0  0  0  0  0  0  0  0  0  0
   39.3859   28.9766   43.4322 H   0  0  0  0  0  0  0  0  0  0  0  0
   36.3190   31.3253   40.3264 H   0  0  0  0  0  0  0  0  0  0  0  0
   37.2708   27.4001   45.3402 H   0  0  0  0  0  0  0  0  0  0  0  0
   36.9466   29.1297   44.9794 H   0  0  0  0  0  0  0  0  0  0  0  0
   35.5972   27.9439   44.9794 H   0  0  0  0  0  0  0  0  0  0  0  0
  1  2  1  0
  1 17  1  0
  3  2  1  0
  4  5  1  0
  4  3  1  0
  5  1  1  0
  6 16  1  0
  6  5  1  0
  7  6  1  0
  8  7  2  0
  8  9  1  0
  9 10  1  0
  9 16  2  0
 10 12  1  0
 11 10  2  0
 12 13  1  0
 13 14  1  0
 15 13  2  0
 16 15  1  0
 17 18  1  0
 18 25  1  0
 19 20  2  0
 21 20  1  0
 21 18  1  0
 22 21  2  0
 23 24  2  0
 23 22  1  0
 24 19  1  0
  1 26  1  1
  2 27  1  0
  2 28  1  0
  3 29  1  0
  3 30  1  0
  4 31  1  0
  4 32  1  0
  5 33  1  1
  7 34  1  0
 12 35  1  0
 14 36  1  0
 14 37  1  0
 17 38  1  0
 17 39  1  0
 18 40  1  6
 19 41  1  0
 20 42  1  0
 23 43  1  0
 25 44  1  0
 25 45  1  0
 25 46  1  0
M  ISO  8  26  13  27  13  28  13  29  13  30  13  31  13  32  13  33  13
M  ISO  8  34  14  35   9  38   8  39   8  40   8  41  14  42  14  43  14
M  ISO  3  44   8  45   8  46   8
M  END
>  <minimizedAffinity>  (1) 
-5.89710569

>  <minimizedRMSD>  (1) 
0.753474712

$$$$
