
     RDKit          3D

 48 51  0  0  1  0  0  0  0  0999 V2000
   36.9260   25.7180   42.2130 C   0  0  2  0  0  0  0  0  0  0  0  0
   37.2200   24.2920   42.1990 C   0  0  0  0  0  0  0  0  0  0  0  0
   37.3530   23.8470   40.7630 C   0  0  0  0  0  0  0  0  0  0  0  0
   36.7890   25.0100   39.9610 C   0  0  0  0  0  0  0  0  0  0  0  0
   37.1500   26.2130   40.8160 C   0  0  2  0  0  0  0  0  0  0  0  0
   38.4840   26.6070   40.4270 C   0  0  0  0  0  0  0  0  0  0  0  0
   38.7460   27.4660   39.3800 C   0  0  0  0  0  0  0  0  0  0  0  0
   40.0170   27.8540   39.0040 C   0  0  0  0  0  0  0  0  0  0  0  0
   41.1240   27.3920   39.6750 C   0  0  0  0  0  0  0  0  0  0  0  0
   40.9060   26.5460   40.7120 C   0  0  0  0  0  0  0  0  0  0  0  0
   42.0340   26.0870   41.3860 C   0  0  0  0  0  0  0  0  0  0  0  0
   41.9100   25.2260   42.4540 C   0  0  0  0  0  0  0  0  0  0  0  0
   40.6410   24.8370   42.8320 C   0  0  0  0  0  0  0  0  0  0  0  0
   39.5510   25.3160   42.1370 C   0  0  0  0  0  0  0  0  0  0  0  0
   39.6270   26.1720   41.0690 C   0  0  0  0  0  0  0  0  0  0  0  0
   37.6090   26.6000   43.1980 C   0  0  0  0  0  0  0  0  0  0  0  0
   36.7140   27.8470   43.4350 C   0  0  2  0  0  0  0  0  0  0  0  0
   39.3210   30.3510   42.2780 C   0  0  0  0  0  0  0  0  0  0  0  0
   38.7430   29.2790   42.9940 C   0  0  0  0  0  0  0  0  0  0  0  0
   37.3730   28.9660   42.7150 C   0  0  0  0  0  0  0  0  0  0  0  0
   36.7370   29.7290   41.7760 N   0  0  0  0  0  0  0  0  0  0  0  0
   37.3090   30.7290   41.1210 C   0  0  0  0  0  0  0  0  0  0  0  0
   38.5910   31.0430   41.3630 N   0  0  0  0  0  0  0  0  0  0  0  0
   36.5710   28.1170   44.9050 C   0  0  0  0  0  0  0  0  0  0  0  0
   35.8885   25.7903   42.5712 H   0  0  0  0  0  0  0  0  0  0  0  0
   38.1611   24.1014   42.7356 H   0  0  0  0  0  0  0  0  0  0  0  0
   36.4112   23.7345   42.6940 H   0  0  0  0  0  0  0  0  0  0  0  0
   38.4075   23.6697   40.5051 H   0  0  0  0  0  0  0  0  0  0  0  0
   36.8271   22.9017   40.5633 H   0  0  0  0  0  0  0  0  0  0  0  0
   37.2601   25.0729   38.9690 H   0  0  0  0  0  0  0  0  0  0  0  0
   35.7101   24.9221   39.7652 H   0  0  0  0  0  0  0  0  0  0  0  0
   36.5653   27.1384   40.7071 H   0  0  0  0  0  0  0  0  0  0  0  0
   37.8931   27.8652   38.8115 H   0  0  0  0  0  0  0  0  0  0  0  0
   40.1452   28.5424   38.1557 H   0  0  0  0  0  0  0  0  0  0  0  0
   42.1407   27.6948   39.3840 H   0  0  0  0  0  0  0  0  0  0  0  0
   43.0331   26.4147   41.0630 H   0  0  0  0  0  0  0  0  0  0  0  0
   42.7974   24.8589   42.9904 H   0  0  0  0  0  0  0  0  0  0  0  0
   40.5005   24.1509   43.6802 H   0  0  0  0  0  0  0  0  0  0  0  0
   38.5522   24.9890   42.4616 H   0  0  0  0  0  0  0  0  0  0  0  0
   37.7527   26.0593   44.1451 H   0  0  0  0  0  0  0  0  0  0  0  0
   38.5937   26.9062   42.8151 H   0  0  0  0  0  0  0  0  0  0  0  0
   35.6911   27.7026   43.0572 H   0  0  0  0  0  0  0  0  0  0  0  0
   40.3695   30.6280   42.4621 H   0  0  0  0  0  0  0  0  0  0  0  0
   39.3212   28.7080   43.7354 H   0  0  0  0  0  0  0  0  0  0  0  0
   36.7330   31.3015   40.3791 H   0  0  0  0  0  0  0  0  0  0  0  0
   37.0113   27.2856   45.4750 H   0  0  0  0  0  0  0  0  0  0  0  0
   37.0922   29.0520   45.1585 H   0  0  0  0  0  0  0  0  0  0  0  0
   35.5048   28.2112   45.1585 H   0  0  0  0  0  0  0  0  0  0  0  0
  1 16  1  0
  2  1  1  0
  3  2  1  0
  4  3  1  0
  4  5  1  0
  5  1  1  0
  6  5  1  0
  6 15  1  0
  7  6  2  0
  8  7  1  0
  8  9  2  0
  9 10  1  0
 10 15  2  0
 10 11  1  0
 11 12  2  0
 12 13  1  0
 14 13  2  0
 15 14  1  0
 16 17  1  0
 17 24  1  0
 18 19  2  0
 20 19  1  0
 20 17  1  0
 21 20  2  0
 22 23  2  0
 22 21  1  0
 23 18  1  0
  1 25  1  1
  2 26  1  0
  2 27  1  0
  3 28  1  0
  3 29  1  0
  4 30  1  0
  4 31  1  0
  5 32  1  6
  7 33  1  0
  8 34  1  0
  9 35  1  0
 11 36  1  0
 12 37  1  0
 13 38  1  0
 14 39  1  0
 16 40  1  0
 16 41  1  0
 17 42  1  6
 18 43  1  0
 19 44  1  0
 22 45  1  0
 24 46  1  0
 24 47  1  0
 24 48  1  0
M  ISO  8  25  13  26  13  27  13  28  13  29  13  30  13  31  13  32  13
M  ISO  8  33  14  34  14  35  14  36  14  37  14  38  14  39  14  40   8
M  ISO  8  41   8  42   8  43  14  44  14  45  14  46   8  47   8  48   8
M  END
>  <minimizedAffinity>  (1) 
-5.84216642

>  <minimizedRMSD>  (1) 
1.33328009

$$$$
