
     RDKit          3D

 42 44  0  0  1  0  0  0  0  0999 V2000
   37.0060   25.9620   41.8140 C   0  0  2  0  0  0  0  0  0  0  0  0
   37.0250   24.4830   42.1560 C   0  0  0  0  0  0  0  0  0  0  0  0
   37.3060   23.7320   40.8740 C   0  0  0  0  0  0  0  0  0  0  0  0
   37.3210   24.8020   39.8180 C   0  0  0  0  0  0  0  0  0  0  0  0
   37.7850   26.0440   40.5460 C   0  0  1  0  0  0  0  0  0  0  0  0
   37.4170   27.1180   39.6230 N   0  0  0  0  0  0  0  0  0  0  0  0
   36.1920   27.3590   39.1210 C   0  0  0  0  0  0  0  0  0  0  0  0
   35.9750   28.3920   38.2320 C   0  0  0  0  0  0  0  0  0  0  0  0
   36.9970   29.2250   37.8150 C   0  0  0  0  0  0  0  0  0  0  0  0
   36.7930   30.1660   37.0030 O   0  0  0  0  0  0  0  0  0  0  0  0
   38.2210   28.9830   38.3180 N   0  0  0  0  0  0  0  0  0  0  0  0
   38.3690   27.9620   39.1800 C   0  0  0  0  0  0  0  0  0  0  0  0
   39.5530   27.7800   39.6240 O   0  0  0  0  0  0  0  0  0  0  0  0
   37.7530   26.7730   42.8720 C   0  0  0  0  0  0  0  0  0  0  0  0
   36.8510   27.9490   43.2440 C   0  0  2  0  0  0  0  0  0  0  0  0
   39.1860   30.6630   41.9940 C   0  0  0  0  0  0  0  0  0  0  0  0
   38.7380   29.5180   42.7010 C   0  0  0  0  0  0  0  0  0  0  0  0
   37.3910   29.1350   42.5420 C   0  0  0  0  0  0  0  0  0  0  0  0
   36.6280   29.9110   41.7100 N   0  0  0  0  0  0  0  0  0  0  0  0
   37.0470   30.9770   41.0510 C   0  0  0  0  0  0  0  0  0  0  0  0
   38.3340   31.3590   41.1920 N   0  0  0  0  0  0  0  0  0  0  0  0
   36.8290   28.1320   44.7500 C   0  0  0  0  0  0  0  0  0  0  0  0
   35.9794   26.3514   41.7470 H   0  0  0  0  0  0  0  0  0  0  0  0
   37.8139   24.2769   42.8943 H   0  0  0  0  0  0  0  0  0  0  0  0
   36.0639   24.1698   42.5897 H   0  0  0  0  0  0  0  0  0  0  0  0
   38.2787   23.2210   40.9260 H   0  0  0  0  0  0  0  0  0  0  0  0
   36.5604   22.9491   40.6712 H   0  0  0  0  0  0  0  0  0  0  0  0
   36.3146   24.9496   39.3993 H   0  0  0  0  0  0  0  0  0  0  0  0
   37.9734   24.5449   38.9705 H   0  0  0  0  0  0  0  0  0  0  0  0
   38.8456   26.1834   40.8024 H   0  0  0  0  0  0  0  0  0  0  0  0
   35.3487   26.7213   39.4246 H   0  0  0  0  0  0  0  0  0  0  0  0
   34.9592   28.5576   37.8437 H   0  0  0  0  0  0  0  0  0  0  0  0
   39.0261   29.5664   38.0489 H   0  0  0  0  0  0  0  0  0  0  0  0
   37.9489   26.1508   43.7577 H   0  0  0  0  0  0  0  0  0  0  0  0
   38.7223   27.1245   42.4887 H   0  0  0  0  0  0  0  0  0  0  0  0
   35.8077   27.7801   42.9391 H   0  0  0  0  0  0  0  0  0  0  0  0
   40.2310   30.9916   42.0945 H   0  0  0  0  0  0  0  0  0  0  0  0
   39.4185   28.9485   43.3511 H   0  0  0  0  0  0  0  0  0  0  0  0
   36.3616   31.5411   40.4013 H   0  0  0  0  0  0  0  0  0  0  0  0
   36.9466   27.1542   45.2399 H   0  0  0  0  0  0  0  0  0  0  0  0
   37.6540   28.7945   45.0510 H   0  0  0  0  0  0  0  0  0  0  0  0
   35.8705   28.5800   45.0510 H   0  0  0  0  0  0  0  0  0  0  0  0
  1  2  1  0
  1 14  1  0
  3  2  1  0
  4  5  1  0
  4  3  1  0
  5  1  1  0
  6  5  1  0
  7  6  1  0
  8  7  2  0
  9  8  1  0
  9 11  1  0
 10  9  2  0
 11 12  1  0
 12  6  1  0
 12 13  2  0
 14 15  1  0
 15 22  1  0
 16 17  2  0
 18 17  1  0
 18 15  1  0
 19 18  2  0
 20 21  2  0
 20 19  1  0
 21 16  1  0
  1 23  1  6
  2 24  1  0
  2 25  1  0
  3 26  1  0
  3 27  1  0
  4 28  1  0
  4 29  1  0
  5 30  1  1
  7 31  1  0
  8 32  1  0
 11 33  1  0
 14 34  1  0
 14 35  1  0
 15 36  1  6
 16 37  1  0
 17 38  1  0
 20 39  1  0
 22 40  1  0
 22 41  1  0
 22 42  1  0
M  ISO  8  23  13  24  13  25  13  26  13  27  13  28  13  29  13  30  13
M  ISO  8  31  14  32  14  33   9  34   8  35   8  36   8  37  14  38  14
M  ISO  4  39  14  40   8  41   8  42   8
M  END
>  <minimizedAffinity>  (1) 
-5.44974041

>  <minimizedRMSD>  (1) 
2.04574418

$$$$
