
     RDKit          3D

 42 44  0  0  1  0  0  0  0  0999 V2000
   37.1110   25.5750   42.1800 C   0  0  2  0  0  0  0  0  0  0  0  0
   37.7310   24.2400   42.2970 C   0  0  0  0  0  0  0  0  0  0  0  0
   37.4690   23.5180   40.9890 C   0  0  0  0  0  0  0  0  0  0  0  0
   36.6640   24.4790   40.1390 C   0  0  0  0  0  0  0  0  0  0  0  0
   36.9970   25.8270   40.7170 C   0  0  2  0  0  0  0  0  0  0  0  0
   38.1170   26.4870   40.0550 C   0  0  0  0  0  0  0  0  0  0  0  0
   39.4480   26.0520   40.1230 C   0  0  0  0  0  0  0  0  0  0  0  0
   40.5190   26.6290   39.5340 C   0  0  0  0  0  0  0  0  0  0  0  0
   40.3310   27.7470   38.7900 C   0  0  0  0  0  0  0  0  0  0  0  0
   39.0630   28.2720   38.6480 C   0  0  0  0  0  0  0  0  0  0  0  0
   38.0220   27.6240   39.2820 C   0  0  0  0  0  0  0  0  0  0  0  0
   37.8600   26.7160   42.8120 C   0  0  0  0  0  0  0  0  0  0  0  0
   36.8560   27.8220   43.1560 C   0  0  2  0  0  0  0  0  0  0  0  0
   39.0920   30.5930   41.8620 C   0  0  0  0  0  0  0  0  0  0  0  0
   38.7040   29.4350   42.5620 C   0  0  0  0  0  0  0  0  0  0  0  0
   37.3340   29.0380   42.4480 C   0  0  0  0  0  0  0  0  0  0  0  0
   36.4870   29.8120   41.6650 N   0  0  0  0  0  0  0  0  0  0  0  0
   36.9080   30.8950   41.0270 C   0  0  0  0  0  0  0  0  0  0  0  0
   38.1940   31.2930   41.1150 N   0  0  0  0  0  0  0  0  0  0  0  0
   36.7600   28.0250   44.6470 C   0  0  0  0  0  0  0  0  0  0  0  0
   36.1574   25.5481   42.7277 H   0  0  0  0  0  0  0  0  0  0  0  0
   38.8137   24.3388   42.4646 H   0  0  0  0  0  0  0  0  0  0  0  0
   37.3095   23.6825   43.1464 H   0  0  0  0  0  0  0  0  0  0  0  0
   38.4184   23.2703   40.4917 H   0  0  0  0  0  0  0  0  0  0  0  0
   36.9304   22.5725   41.1502 H   0  0  0  0  0  0  0  0  0  0  0  0
   35.5872   24.2706   40.2235 H   0  0  0  0  0  0  0  0  0  0  0  0
   36.9009   24.4032   39.0675 H   0  0  0  0  0  0  0  0  0  0  0  0
   36.2236   26.5883   40.5376 H   0  0  0  0  0  0  0  0  0  0  0  0
   39.6408   25.1469   40.7176 H   0  0  0  0  0  0  0  0  0  0  0  0
   41.5244   26.1997   39.6559 H   0  0  0  0  0  0  0  0  0  0  0  0
   41.1874   28.2342   38.3009 H   0  0  0  0  0  0  0  0  0  0  0  0
   38.8873   29.1777   38.0489 H   0  0  0  0  0  0  0  0  0  0  0  0
   37.0186   28.0575   39.1581 H   0  0  0  0  0  0  0  0  0  0  0  0
   38.3600   26.3698   43.7286 H   0  0  0  0  0  0  0  0  0  0  0  0
   38.6215   27.0995   42.1169 H   0  0  0  0  0  0  0  0  0  0  0  0
   35.8363   27.5636   42.8343 H   0  0  0  0  0  0  0  0  0  0  0  0
   40.1352   30.9373   41.9192 H   0  0  0  0  0  0  0  0  0  0  0  0
   39.4207   28.8619   43.1685 H   0  0  0  0  0  0  0  0  0  0  0  0
   36.1999   31.4764   40.4182 H   0  0  0  0  0  0  0  0  0  0  0  0
   37.1751   27.1473   45.1640 H   0  0  0  0  0  0  0  0  0  0  0  0
   37.3294   28.9219   44.9324 H   0  0  0  0  0  0  0  0  0  0  0  0
   35.7055   28.1539   44.9324 H   0  0  0  0  0  0  0  0  0  0  0  0
  1  2  1  0
  1 12  1  0
  3  2  1  0
  4  5  1  0
  4  3  1  0
  5  1  1  0
  6  7  2  0
  6  5  1  0
  8  7  1  0
  9  8  2  0
 10  9  1  0
 10 11  2  0
 11  6  1  0
 12 13  1  0
 13 20  1  0
 14 15  2  0
 16 15  1  0
 16 13  1  0
 17 16  2  0
 18 19  2  0
 18 17  1  0
 19 14  1  0
  1 21  1  1
  2 22  1  0
  2 23  1  0
  3 24  1  0
  3 25  1  0
  4 26  1  0
  4 27  1  0
  5 28  1  1
  7 29  1  0
  8 30  1  0
  9 31  1  0
 10 32  1  0
 11 33  1  0
 12 34  1  0
 12 35  1  0
 13 36  1  6
 14 37  1  0
 15 38  1  0
 18 39  1  0
 20 40  1  0
 20 41  1  0
 20 42  1  0
M  ISO  8  21  13  22  13  23  13  24  13  25  13  26  13  27  13  28  13
M  ISO  8  29  14  30  14  31  14  32  14  33  14  34   8  35   8  36   8
M  ISO  6  37  14  38  14  39  14  40   8  41   8  42   8
M  END
>  <minimizedAffinity>  (1) 
-5.1211462

>  <minimizedRMSD>  (1) 
0.193602026

$$$$
