
     RDKit          3D

 46 48  0  0  1  0  0  0  0  0999 V2000
   37.1160   25.6460   42.1410 C   0  0  2  0  0  0  0  0  0  0  0  0
   37.6030   24.2690   42.3200 C   0  0  0  0  0  0  0  0  0  0  0  0
   37.4280   23.5580   40.9880 C   0  0  0  0  0  0  0  0  0  0  0  0
   36.6240   24.5350   40.1310 C   0  0  0  0  0  0  0  0  0  0  0  0
   37.0440   25.8870   40.6670 C   0  0  2  0  0  0  0  0  0  0  0  0
   38.1570   26.4480   40.0060 N   0  0  0  0  0  0  0  0  0  0  0  0
   37.8160   27.5720   39.1790 C   0  0  0  0  0  0  0  0  0  0  0  0
   38.0060   27.4360   37.7220 C   0  0  0  0  0  0  0  0  0  0  0  0
   39.2810   26.8500   37.3550 N   0  0  0  0  0  0  0  0  0  0  0  0
   39.3750   25.5870   38.0110 C   0  0  0  0  0  0  0  0  0  0  0  0
   39.1990   25.6780   39.5090 C   0  0  0  0  0  0  0  0  0  0  0  0
   37.8750   26.7430   42.8130 C   0  0  0  0  0  0  0  0  0  0  0  0
   36.8800   27.8840   43.1660 C   0  0  2  0  0  0  0  0  0  0  0  0
   39.1890   30.6840   42.0310 C   0  0  0  0  0  0  0  0  0  0  0  0
   38.7450   29.5280   42.7060 C   0  0  0  0  0  0  0  0  0  0  0  0
   37.3970   29.1010   42.4810 C   0  0  0  0  0  0  0  0  0  0  0  0
   36.6330   29.8480   41.6230 N   0  0  0  0  0  0  0  0  0  0  0  0
   37.1050   30.9430   41.0030 C   0  0  0  0  0  0  0  0  0  0  0  0
   38.3680   31.3610   41.2000 N   0  0  0  0  0  0  0  0  0  0  0  0
   36.7980   28.0500   44.6560 C   0  0  0  0  0  0  0  0  0  0  0  0
   36.1425   25.6954   42.6508 H   0  0  0  0  0  0  0  0  0  0  0  0
   38.6650   24.2783   42.6064 H   0  0  0  0  0  0  0  0  0  0  0  0
   37.0430   23.7553   43.1153 H   0  0  0  0  0  0  0  0  0  0  0  0
   38.4051   23.3509   40.5273 H   0  0  0  0  0  0  0  0  0  0  0  0
   36.9234   22.5867   41.0972 H   0  0  0  0  0  0  0  0  0  0  0  0
   35.5431   24.3771   40.2607 H   0  0  0  0  0  0  0  0  0  0  0  0
   36.8109   24.4199   39.0531 H   0  0  0  0  0  0  0  0  0  0  0  0
   36.3429   26.7096   40.4626 H   0  0  0  0  0  0  0  0  0  0  0  0
   36.7531   27.7962   39.3519 H   0  0  0  0  0  0  0  0  0  0  0  0
   38.5218   28.3608   39.4783 H   0  0  0  0  0  0  0  0  0  0  0  0
   37.2028   26.7981   37.3246 H   0  0  0  0  0  0  0  0  0  0  0  0
   37.9831   28.4506   37.2976 H   0  0  0  0  0  0  0  0  0  0  0  0
   39.3282   26.7208   36.3342 H   0  0  0  0  0  0  0  0  0  0  0  0
   38.5950   24.9248   37.6072 H   0  0  0  0  0  0  0  0  0  0  0  0
   40.3865   25.1970   37.8245 H   0  0  0  0  0  0  0  0  0  0  0  0
   39.0528   24.6535   39.8820 H   0  0  0  0  0  0  0  0  0  0  0  0
   40.1060   26.1942   39.8567 H   0  0  0  0  0  0  0  0  0  0  0  0
   38.3437   26.3614   43.7321 H   0  0  0  0  0  0  0  0  0  0  0  0
   38.6625   27.1218   42.1448 H   0  0  0  0  0  0  0  0  0  0  0  0
   35.8544   27.6709   42.8303 H   0  0  0  0  0  0  0  0  0  0  0  0
   40.2188   31.0391   42.1837 H   0  0  0  0  0  0  0  0  0  0  0  0
   39.4118   28.9732   43.3825 H   0  0  0  0  0  0  0  0  0  0  0  0
   36.4480   31.5061   40.3238 H   0  0  0  0  0  0  0  0  0  0  0  0
   37.2338   27.1678   45.1478 H   0  0  0  0  0  0  0  0  0  0  0  0
   37.3553   28.9497   44.9559 H   0  0  0  0  0  0  0  0  0  0  0  0
   35.7448   28.1541   44.9559 H   0  0  0  0  0  0  0  0  0  0  0  0
  1  2  1  0
  1 12  1  0
  3  2  1  0
  4  5  1  0
  4  3  1  0
  5  1  1  0
  6  5  1  0
  7  6  1  0
  8  7  1  0
  9  8  1  0
  9 10  1  0
 10 11  1  0
 11  6  1  0
 12 13  1  0
 13 20  1  0
 14 15  2  0
 16 15  1  0
 16 13  1  0
 17 16  2  0
 18 19  2  0
 18 17  1  0
 19 14  1  0
  1 21  1  1
  2 22  1  0
  2 23  1  0
  3 24  1  0
  3 25  1  0
  4 26  1  0
  4 27  1  0
  5 28  1  1
  7 29  1  0
  7 30  1  0
  8 31  1  0
  8 32  1  0
  9 33  1  0
 10 34  1  0
 10 35  1  0
 11 36  1  0
 11 37  1  0
 12 38  1  0
 12 39  1  0
 13 40  1  6
 14 41  1  0
 15 42  1  0
 18 43  1  0
 20 44  1  0
 20 45  1  0
 20 46  1  0
M  ISO  8  21  13  22  13  23  13  24  13  25  13  26  13  27  13  28  13
M  ISO  8  29  13  30  13  31  13  32  13  33   5  34  13  35  13  36  13
M  ISO  8  37  13  38   8  39   8  40   8  41  14  42  14  43  14  44   8
M  ISO  2  45   8  46   8
M  END
>  <minimizedAffinity>  (1) 
-4.99057055

>  <minimizedRMSD>  (1) 
0.278540969

$$$$
