
     RDKit          3D

 39 41  0  0  1  0  0  0  0  0999 V2000
   37.7880   26.6990   42.9740 C   0  0  0  0  0  0  0  0  0  0  0  0
   37.0250   25.6760   42.1920 C   0  0  2  0  0  0  0  0  0  0  0  0
   37.5190   24.2880   42.2720 C   0  0  0  0  0  0  0  0  0  0  0  0
   37.3570   23.6770   40.8900 C   0  0  0  0  0  0  0  0  0  0  0  0
   36.7040   24.7560   40.0410 C   0  0  0  0  0  0  0  0  0  0  0  0
   37.0870   26.0300   40.7400 C   0  0  2  0  0  0  0  0  0  0  0  0
   38.3310   26.5790   40.2850 N   0  0  0  0  0  0  0  0  0  0  0  0
   39.5920   26.1890   40.5480 C   0  0  0  0  0  0  0  0  0  0  0  0
   40.5490   26.9650   39.9290 C   0  0  0  0  0  0  0  0  0  0  0  0
   39.8310   27.8930   39.2390 N   0  0  0  0  0  0  0  0  0  0  0  0
   38.5100   27.6470   39.4650 C   0  0  0  0  0  0  0  0  0  0  0  0
   36.8570   27.8750   43.2890 C   0  0  2  0  0  0  0  0  0  0  0  0
   39.2350   30.5820   42.1350 C   0  0  0  0  0  0  0  0  0  0  0  0
   38.7620   29.4520   42.8290 C   0  0  0  0  0  0  0  0  0  0  0  0
   37.4230   29.0520   42.5970 C   0  0  0  0  0  0  0  0  0  0  0  0
   36.7080   29.8130   41.7080 N   0  0  0  0  0  0  0  0  0  0  0  0
   37.1750   30.8740   41.0660 C   0  0  0  0  0  0  0  0  0  0  0  0
   38.4490   31.2600   41.2830 N   0  0  0  0  0  0  0  0  0  0  0  0
   36.7540   28.0800   44.7860 C   0  0  0  0  0  0  0  0  0  0  0  0
   38.6445   27.0538   42.3819 H   0  0  0  0  0  0  0  0  0  0  0  0
   38.1584   26.2545   43.9095 H   0  0  0  0  0  0  0  0  0  0  0  0
   36.0201   25.6993   42.6389 H   0  0  0  0  0  0  0  0  0  0  0  0
   38.5789   24.2809   42.5661 H   0  0  0  0  0  0  0  0  0  0  0  0
   36.9560   23.7142   43.0228 H   0  0  0  0  0  0  0  0  0  0  0  0
   38.3376   23.4020   40.4742 H   0  0  0  0  0  0  0  0  0  0  0  0
   36.7515   22.7591   40.9188 H   0  0  0  0  0  0  0  0  0  0  0  0
   35.6112   24.6322   40.0196 H   0  0  0  0  0  0  0  0  0  0  0  0
   37.0275   24.7293   38.9900 H   0  0  0  0  0  0  0  0  0  0  0  0
   36.4070   26.8651   40.5159 H   0  0  0  0  0  0  0  0  0  0  0  0
   39.8358   25.3333   41.1947 H   0  0  0  0  0  0  0  0  0  0  0  0
   41.6426   26.8585   39.9809 H   0  0  0  0  0  0  0  0  0  0  0  0
   37.6892   28.2405   39.0360 H   0  0  0  0  0  0  0  0  0  0  0  0
   35.8304   27.6920   42.9387 H   0  0  0  0  0  0  0  0  0  0  0  0
   40.2707   30.9167   42.2941 H   0  0  0  0  0  0  0  0  0  0  0  0
   39.4090   28.8996   43.5263 H   0  0  0  0  0  0  0  0  0  0  0  0
   36.5338   31.4311   40.3671 H   0  0  0  0  0  0  0  0  0  0  0  0
   37.1893   27.2136   45.3055 H   0  0  0  0  0  0  0  0  0  0  0  0
   37.3015   28.9909   45.0699 H   0  0  0  0  0  0  0  0  0  0  0  0
   35.6964   28.1844   45.0699 H   0  0  0  0  0  0  0  0  0  0  0  0
  1 12  1  0
  2  3  1  0
  2  1  1  0
  4  3  1  0
  5  6  1  0
  5  4  1  0
  6  2  1  0
  7  8  1  0
  7  6  1  0
  9  8  2  0
 10 11  2  0
 10  9  1  0
 11  7  1  0
 12 19  1  0
 13 14  2  0
 15 14  1  0
 15 12  1  0
 16 15  2  0
 17 18  2  0
 17 16  1  0
 18 13  1  0
  1 20  1  0
  1 21  1  0
  2 22  1  1
  3 23  1  0
  3 24  1  0
  4 25  1  0
  4 26  1  0
  5 27  1  0
  5 28  1  0
  6 29  1  1
  8 30  1  0
  9 31  1  0
 11 32  1  0
 12 33  1  6
 13 34  1  0
 14 35  1  0
 17 36  1  0
 19 37  1  0
 19 38  1  0
 19 39  1  0
M  ISO  8  20   8  21   8  22  13  23  13  24  13  25  13  26  13  27  13
M  ISO  8  28  13  29  13  30  14  31  14  32  14  33   8  34  14  35  14
M  ISO  4  36  14  37   8  38   8  39   8
M  END
>  <minimizedAffinity>  (1) 
-4.97585058

>  <minimizedRMSD>  (1) 
0.623993278

$$$$
