
     RDKit          3D

 45 47  0  0  1  0  0  0  0  0999 V2000
   36.9650   25.8300   41.8670 C   0  0  2  0  0  0  0  0  0  0  0  0
   37.2560   24.3880   42.2220 C   0  0  0  0  0  0  0  0  0  0  0  0
   37.2720   23.6210   40.9090 C   0  0  0  0  0  0  0  0  0  0  0  0
   36.9390   24.6550   39.8560 C   0  0  0  0  0  0  0  0  0  0  0  0
   37.4910   25.9430   40.4660 C   0  0  1  0  0  0  0  0  0  0  0  0
   37.1650   27.0830   39.7100 N   0  0  0  0  0  0  0  0  0  0  0  0
   36.1060   27.0400   38.7820 C   0  0  0  0  0  0  0  0  0  0  0  0
   36.5400   27.3700   37.3600 C   0  0  0  0  0  0  0  0  0  0  0  0
   37.7330   26.7320   37.0340 O   0  0  0  0  0  0  0  0  0  0  0  0
   38.7520   27.2240   37.8150 C   0  0  0  0  0  0  0  0  0  0  0  0
   38.3540   27.6990   39.1720 C   0  0  0  0  0  0  0  0  0  0  0  0
   37.7990   26.7860   42.7140 C   0  0  0  0  0  0  0  0  0  0  0  0
   36.8790   27.9390   43.1130 C   0  0  2  0  0  0  0  0  0  0  0  0
   39.1880   30.7420   42.0300 C   0  0  0  0  0  0  0  0  0  0  0  0
   38.7480   29.5770   42.6950 C   0  0  0  0  0  0  0  0  0  0  0  0
   37.4150   29.1500   42.4590 C   0  0  0  0  0  0  0  0  0  0  0  0
   36.6420   29.9120   41.5930 N   0  0  0  0  0  0  0  0  0  0  0  0
   37.0880   31.0020   40.9870 C   0  0  0  0  0  0  0  0  0  0  0  0
   38.3650   31.4350   41.1950 N   0  0  0  0  0  0  0  0  0  0  0  0
   36.8480   28.0750   44.6230 C   0  0  0  0  0  0  0  0  0  0  0  0
   35.9018   26.0748   42.0072 H   0  0  0  0  0  0  0  0  0  0  0  0
   38.2327   24.3083   42.7218 H   0  0  0  0  0  0  0  0  0  0  0  0
   36.4995   23.9852   42.9116 H   0  0  0  0  0  0  0  0  0  0  0  0
   38.2659   23.1867   40.7256 H   0  0  0  0  0  0  0  0  0  0  0  0
   36.5603   22.7822   40.9083 H   0  0  0  0  0  0  0  0  0  0  0  0
   35.8527   24.7246   39.6976 H   0  0  0  0  0  0  0  0  0  0  0  0
   37.3614   24.4236   38.8671 H   0  0  0  0  0  0  0  0  0  0  0  0
   38.5839   26.0674   40.4697 H   0  0  0  0  0  0  0  0  0  0  0  0
   35.6752   26.0279   38.7900 H   0  0  0  0  0  0  0  0  0  0  0  0
   35.3743   27.8032   39.0857 H   0  0  0  0  0  0  0  0  0  0  0  0
   35.7561   27.0427   36.6611 H   0  0  0  0  0  0  0  0  0  0  0  0
   36.6967   28.4564   37.2884 H   0  0  0  0  0  0  0  0  0  0  0  0
   39.4972   26.4248   37.9415 H   0  0  0  0  0  0  0  0  0  0  0  0
   39.1343   28.1100   37.2868 H   0  0  0  0  0  0  0  0  0  0  0  0
   39.1859   27.4953   39.8623 H   0  0  0  0  0  0  0  0  0  0  0  0
   38.1248   28.7698   39.0676 H   0  0  0  0  0  0  0  0  0  0  0  0
   38.1712   26.2704   43.6116 H   0  0  0  0  0  0  0  0  0  0  0  0
   38.6709   27.1528   42.1526 H   0  0  0  0  0  0  0  0  0  0  0  0
   35.8407   27.7686   42.7922 H   0  0  0  0  0  0  0  0  0  0  0  0
   40.2167   31.0973   42.1896 H   0  0  0  0  0  0  0  0  0  0  0  0
   39.4137   29.0206   43.3712 H   0  0  0  0  0  0  0  0  0  0  0  0
   36.4244   31.5619   40.3115 H   0  0  0  0  0  0  0  0  0  0  0  0
   37.0700   27.1010   45.0835 H   0  0  0  0  0  0  0  0  0  0  0  0
   37.6014   28.8109   44.9404 H   0  0  0  0  0  0  0  0  0  0  0  0
   35.8501   28.4117   44.9404 H   0  0  0  0  0  0  0  0  0  0  0  0
  1  2  1  0
  1 12  1  0
  3  2  1  0
  4  5  1  0
  4  3  1  0
  5  1  1  0
  6  5  1  0
  7  6  1  0
  8  7  1  0
  9  8  1  0
  9 10  1  0
 10 11  1  0
 11  6  1  0
 12 13  1  0
 13 20  1  0
 14 15  2  0
 16 15  1  0
 16 13  1  0
 17 16  2  0
 18 19  2  0
 18 17  1  0
 19 14  1  0
  1 21  1  6
  2 22  1  0
  2 23  1  0
  3 24  1  0
  3 25  1  0
  4 26  1  0
  4 27  1  0
  5 28  1  1
  7 29  1  0
  7 30  1  0
  8 31  1  0
  8 32  1  0
 10 33  1  0
 10 34  1  0
 11 35  1  0
 11 36  1  0
 12 37  1  0
 12 38  1  0
 13 39  1  6
 14 40  1  0
 15 41  1  0
 18 42  1  0
 20 43  1  0
 20 44  1  0
 20 45  1  0
M  ISO  8  21  13  22  13  23  13  24  13  25  13  26  13  27  13  28  13
M  ISO  8  29  13  30  13  31  13  32  13  33  13  34  13  35  13  36  13
M  ISO  8  37   8  38   8  39   8  40  14  41  14  42  14  43   8  44   8
M  ISO  1  45   8
M  END
>  <minimizedAffinity>  (1) 
-4.94405985

>  <minimizedRMSD>  (1) 
0.788903654

$$$$
