
     RDKit          3D

 39 40  0  0  1  0  0  0  0  0999 V2000
   37.0720   25.7150   42.0850 C   0  0  2  0  0  0  0  0  0  0  0  0
   37.6870   24.3490   42.2920 C   0  0  0  0  0  0  0  0  0  0  0  0
   37.3830   23.5610   41.0480 C   0  0  0  0  0  0  0  0  0  0  0  0
   36.6970   24.5150   40.1040 C   0  0  0  0  0  0  0  0  0  0  0  0
   37.2010   25.8710   40.5910 C   0  0  1  0  0  0  0  0  0  0  0  0
   36.4240   26.9360   40.0190 N   0  0  0  0  0  0  0  0  0  0  0  0
   37.3700   27.7600   39.2940 C   0  0  0  0  0  0  0  0  0  0  0  0
   38.6550   27.9780   39.2980 N   0  0  0  0  0  0  0  0  0  0  0  0
   37.2130   28.7000   38.2390 N   0  0  0  0  0  0  0  0  0  0  0  0
   39.3370   27.5320   39.9160 H   0  0  0  0  0  0  0  0  0  0  0  0
   37.9260   26.8150   42.7020 C   0  0  0  0  0  0  0  0  0  0  0  0
   36.9750   27.9620   43.0780 C   0  0  2  0  0  0  0  0  0  0  0  0
   39.2950   30.8280   42.2180 C   0  0  0  0  0  0  0  0  0  0  0  0
   38.8160   29.6550   42.8330 C   0  0  0  0  0  0  0  0  0  0  0  0
   37.5150   29.1820   42.4630 C   0  0  0  0  0  0  0  0  0  0  0  0
   36.8450   29.9270   41.5270 N   0  0  0  0  0  0  0  0  0  0  0  0
   37.3150   31.0290   40.9600 C   0  0  0  0  0  0  0  0  0  0  0  0
   38.5510   31.4840   41.3070 N   0  0  0  0  0  0  0  0  0  0  0  0
   36.8600   28.0700   44.5840 C   0  0  0  0  0  0  0  0  0  0  0  0
   36.0625   25.7894   42.5155 H   0  0  0  0  0  0  0  0  0  0  0  0
   38.7745   24.4373   42.4316 H   0  0  0  0  0  0  0  0  0  0  0  0
   37.2805   23.8573   43.1881 H   0  0  0  0  0  0  0  0  0  0  0  0
   38.3133   23.1830   40.5990 H   0  0  0  0  0  0  0  0  0  0  0  0
   36.7484   22.6903   41.2697 H   0  0  0  0  0  0  0  0  0  0  0  0
   35.6027   24.4424   40.1894 H   0  0  0  0  0  0  0  0  0  0  0  0
   36.9141   24.3187   39.0437 H   0  0  0  0  0  0  0  0  0  0  0  0
   38.2264   26.1398   40.2974 H   0  0  0  0  0  0  0  0  0  0  0  0
   35.4082   27.0827   40.1061 H   0  0  0  0  0  0  0  0  0  0  0  0
   36.2767   28.8910   37.8545 H   0  0  0  0  0  0  0  0  0  0  0  0
   38.0355   29.1900   37.8592 H   0  0  0  0  0  0  0  0  0  0  0  0
   38.4372   26.4379   43.6000 H   0  0  0  0  0  0  0  0  0  0  0  0
   38.6960   27.1582   41.9954 H   0  0  0  0  0  0  0  0  0  0  0  0
   35.9543   27.7878   42.7067 H   0  0  0  0  0  0  0  0  0  0  0  0
   40.2900   31.2135   42.4853 H   0  0  0  0  0  0  0  0  0  0  0  0
   39.4232   29.1174   43.5761 H   0  0  0  0  0  0  0  0  0  0  0  0
   36.7125   31.5710   40.2162 H   0  0  0  0  0  0  0  0  0  0  0  0
   37.5840   27.3901   45.0567 H   0  0  0  0  0  0  0  0  0  0  0  0
   37.0711   29.1039   44.8946 H   0  0  0  0  0  0  0  0  0  0  0  0
   35.8414   27.7945   44.8946 H   0  0  0  0  0  0  0  0  0  0  0  0
  1  2  1  0
  1 11  1  0
  3  2  1  0
  4  5  1  0
  4  3  1  0
  5  1  1  0
  6  5  1  0
  7  8  2  0
  7  6  1  0
  8 10  1  0
  9  7  1  0
 11 12  1  0
 12 19  1  0
 13 14  2  0
 15 14  1  0
 15 12  1  0
 16 15  2  0
 17 18  2  0
 17 16  1  0
 18 13  1  0
  1 20  1  6
  2 21  1  0
  2 22  1  0
  3 23  1  0
  3 24  1  0
  4 25  1  0
  4 26  1  0
  5 27  1  1
  6 28  1  0
  9 29  1  0
  9 30  1  0
 11 31  1  0
 11 32  1  0
 12 33  1  6
 13 34  1  0
 14 35  1  0
 17 36  1  0
 19 37  1  0
 19 38  1  0
 19 39  1  0
M  ISO  8  20  13  21  13  22  13  23  13  24  13  25  13  26  13  27  13
M  ISO  8  31   8  32   8  33   8  34  14  35  14  36  14  37   8  38   8
M  ISO  1  39   8
M  END
>  <minimizedAffinity>  (1) 
-4.94257593

>  <minimizedRMSD>  (1) 
0.33227551

$$$$
