
     RDKit          3D

 38 39  0  0  1  0  0  0  0  0999 V2000
   37.9060   26.6880   42.8670 C   0  0  0  0  0  0  0  0  0  0  0  0
   37.1530   25.5480   42.2430 C   0  0  2  0  0  0  0  0  0  0  0  0
   37.8670   24.2400   42.2760 C   0  0  0  0  0  0  0  0  0  0  0  0
   37.4660   23.5090   41.0050 C   0  0  0  0  0  0  0  0  0  0  0  0
   36.5470   24.4600   40.2460 C   0  0  0  0  0  0  0  0  0  0  0  0
   36.9790   25.8100   40.7690 C   0  0  2  0  0  0  0  0  0  0  0  0
   38.1760   26.3290   40.0570 C   0  0  0  0  0  0  0  0  0  0  0  0
   39.4240   25.7820   40.7800 C   0  0  0  0  0  0  0  0  0  0  0  0
   36.9070   27.8220   43.1650 C   0  0  2  0  0  0  0  0  0  0  0  0
   39.1630   30.6550   42.0780 C   0  0  0  0  0  0  0  0  0  0  0  0
   38.7350   29.4930   42.7600 C   0  0  0  0  0  0  0  0  0  0  0  0
   37.4280   29.0290   42.4960 C   0  0  0  0  0  0  0  0  0  0  0  0
   36.6720   29.7530   41.5880 N   0  0  0  0  0  0  0  0  0  0  0  0
   37.1130   30.8420   40.9680 C   0  0  0  0  0  0  0  0  0  0  0  0
   38.3630   31.2970   41.2130 N   0  0  0  0  0  0  0  0  0  0  0  0
   36.7400   28.0100   44.6580 C   0  0  0  0  0  0  0  0  0  0  0  0
   38.6799   27.0470   42.1726 H   0  0  0  0  0  0  0  0  0  0  0  0
   38.3923   26.3573   43.7966 H   0  0  0  0  0  0  0  0  0  0  0  0
   36.2215   25.4884   42.8250 H   0  0  0  0  0  0  0  0  0  0  0  0
   38.9552   24.3994   42.2976 H   0  0  0  0  0  0  0  0  0  0  0  0
   37.6034   23.6606   43.1731 H   0  0  0  0  0  0  0  0  0  0  0  0
   38.3556   23.2744   40.4020 H   0  0  0  0  0  0  0  0  0  0  0  0
   36.9638   22.5563   41.2292 H   0  0  0  0  0  0  0  0  0  0  0  0
   35.4900   24.2625   40.4778 H   0  0  0  0  0  0  0  0  0  0  0  0
   36.6219   24.3664   39.1526 H   0  0  0  0  0  0  0  0  0  0  0  0
   36.2595   26.6239   40.5959 H   0  0  0  0  0  0  0  0  0  0  0  0
   38.1682   25.9866   39.0117 H   0  0  0  0  0  0  0  0  0  0  0  0
   38.1797   27.4290   40.0598 H   0  0  0  0  0  0  0  0  0  0  0  0
   39.2754   25.8471   41.8680 H   0  0  0  0  0  0  0  0  0  0  0  0
   39.5827   24.7318   40.4938 H   0  0  0  0  0  0  0  0  0  0  0  0
   40.3038   26.3770   40.4938 H   0  0  0  0  0  0  0  0  0  0  0  0
   35.9021   27.5895   42.7827 H   0  0  0  0  0  0  0  0  0  0  0  0
   40.1762   31.0422   42.2609 H   0  0  0  0  0  0  0  0  0  0  0  0
   39.3946   28.9708   43.4687 H   0  0  0  0  0  0  0  0  0  0  0  0
   36.4629   31.3726   40.2568 H   0  0  0  0  0  0  0  0  0  0  0  0
   37.3787   27.2909   45.1918 H   0  0  0  0  0  0  0  0  0  0  0  0
   37.0314   29.0343   44.9335 H   0  0  0  0  0  0  0  0  0  0  0  0
   35.6885   27.8414   44.9335 H   0  0  0  0  0  0  0  0  0  0  0  0
  1  9  1  0
  2  3  1  0
  2  1  1  0
  4  3  1  0
  5  6  1  0
  5  4  1  0
  6  2  1  0
  7  6  1  0
  7  8  1  0
  9 16  1  0
 10 11  2  0
 12 11  1  0
 12  9  1  0
 13 12  2  0
 14 15  2  0
 14 13  1  0
 15 10  1  0
  1 17  1  0
  1 18  1  0
  2 19  1  1
  3 20  1  0
  3 21  1  0
  4 22  1  0
  4 23  1  0
  5 24  1  0
  5 25  1  0
  6 26  1  1
  7 27  1  0
  7 28  1  0
  8 29  1  0
  8 30  1  0
  8 31  1  0
  9 32  1  6
 10 33  1  0
 11 34  1  0
 14 35  1  0
 16 36  1  0
 16 37  1  0
 16 38  1  0
M  ISO  8  17   8  18   8  19  13  20  13  21  13  22  13  23  13  24  13
M  ISO  8  25  13  26  13  27   8  28   8  29   8  30   8  31   8  32   8
M  ISO  6  33  14  34  14  35  14  36   8  37   8  38   8
M  END
>  <minimizedAffinity>  (1) 
-4.82317066

>  <minimizedRMSD>  (1) 
0.0371121801

$$$$
