
     RDKit          3D

 34 35  0  0  1  0  0  0  0  0999 V2000
   37.8620   26.6590   42.9240 C   0  0  0  0  0  0  0  0  0  0  0  0
   37.1240   25.5420   42.2530 C   0  0  2  0  0  0  0  0  0  0  0  0
   37.8260   24.2220   42.2630 C   0  0  0  0  0  0  0  0  0  0  0  0
   37.4870   23.5480   40.9460 C   0  0  0  0  0  0  0  0  0  0  0  0
   36.5980   24.5280   40.1910 C   0  0  0  0  0  0  0  0  0  0  0  0
   36.9890   25.8540   40.7850 C   0  0  2  0  0  0  0  0  0  0  0  0
   38.2700   26.2400   40.1390 C   0  0  0  0  0  0  0  0  0  0  0  0
   39.4680   26.4340   40.1660 O   0  0  0  0  0  0  0  0  0  0  0  0
   36.8770   27.7990   43.2080 C   0  0  2  0  0  0  0  0  0  0  0  0
   39.1940   30.6020   42.1610 C   0  0  0  0  0  0  0  0  0  0  0  0
   38.7310   29.4530   42.8290 C   0  0  0  0  0  0  0  0  0  0  0  0
   37.4260   28.9990   42.5400 C   0  0  0  0  0  0  0  0  0  0  0  0
   36.7240   29.7330   41.6230 N   0  0  0  0  0  0  0  0  0  0  0  0
   37.1740   30.8130   41.0020 C   0  0  0  0  0  0  0  0  0  0  0  0
   38.4230   31.2520   41.2730 N   0  0  0  0  0  0  0  0  0  0  0  0
   36.7130   27.9920   44.7020 C   0  0  0  0  0  0  0  0  0  0  0  0
   38.6657   27.0198   42.2653 H   0  0  0  0  0  0  0  0  0  0  0  0
   38.3044   26.3029   43.8660 H   0  0  0  0  0  0  0  0  0  0  0  0
   36.1810   25.4663   42.8143 H   0  0  0  0  0  0  0  0  0  0  0  0
   38.9129   24.3695   42.3465 H   0  0  0  0  0  0  0  0  0  0  0  0
   37.5096   23.6079   43.1190 H   0  0  0  0  0  0  0  0  0  0  0  0
   38.4039   23.3442   40.3735 H   0  0  0  0  0  0  0  0  0  0  0  0
   36.9812   22.5841   41.1045 H   0  0  0  0  0  0  0  0  0  0  0  0
   35.5334   24.3135   40.3657 H   0  0  0  0  0  0  0  0  0  0  0  0
   36.7274   24.4833   39.0996 H   0  0  0  0  0  0  0  0  0  0  0  0
   36.2901   26.6908   40.6389 H   0  0  0  0  0  0  0  0  0  0  0  0
   37.9868   26.4672   39.1006 H   0  0  0  0  0  0  0  0  0  0  0  0
   35.8708   27.5822   42.8201 H   0  0  0  0  0  0  0  0  0  0  0  0
   40.2073   30.9754   42.3701 H   0  0  0  0  0  0  0  0  0  0  0  0
   39.3670   28.9246   43.5545 H   0  0  0  0  0  0  0  0  0  0  0  0
   36.5405   31.3445   40.2766 H   0  0  0  0  0  0  0  0  0  0  0  0
   37.3354   27.2595   45.2368 H   0  0  0  0  0  0  0  0  0  0  0  0
   37.0267   29.0099   44.9768 H   0  0  0  0  0  0  0  0  0  0  0  0
   35.6578   27.8467   44.9768 H   0  0  0  0  0  0  0  0  0  0  0  0
  1  9  1  0
  2  3  1  0
  2  1  1  0
  4  3  1  0
  5  6  1  0
  5  4  1  0
  6  2  1  0
  7  8  2  0
  7  6  1  0
  9 16  1  0
 10 11  2  0
 12 11  1  0
 12  9  1  0
 13 12  2  0
 14 15  2  0
 14 13  1  0
 15 10  1  0
  1 17  1  0
  1 18  1  0
  2 19  1  1
  3 20  1  0
  3 21  1  0
  4 22  1  0
  4 23  1  0
  5 24  1  0
  5 25  1  0
  6 26  1  1
  7 27  1  0
  9 28  1  6
 10 29  1  0
 11 30  1  0
 14 31  1  0
 16 32  1  0
 16 33  1  0
 16 34  1  0
M  ISO  8  17   8  18   8  19  13  20  13  21  13  22  13  23  13  24  13
M  ISO  8  25  13  26  13  27   6  28   8  29  14  30  14  31  14  32   8
M  ISO  2  33   8  34   8
M  END
>  <minimizedAffinity>  (1) 
-4.78644371

>  <minimizedRMSD>  (1) 
0.0683145374

$$$$
