
     RDKit          3D

 41 43  0  0  1  0  0  0  0  0999 V2000
   37.6410   27.3240   40.9010 C   0  0  0  0  0  0  0  0  0  0  0  0
   36.7130   26.1800   40.7170 C   0  0  2  0  0  0  0  0  0  0  0  0
   37.0500   24.9400   41.4830 C   0  0  0  0  0  0  0  0  0  0  0  0
   36.6200   23.7800   40.6020 C   0  0  0  0  0  0  0  0  0  0  0  0
   36.0940   24.3880   39.3090 C   0  0  0  0  0  0  0  0  0  0  0  0
   36.7760   25.7300   39.2880 C   0  0  2  0  0  0  0  0  0  0  0  0
   38.1600   25.4790   38.7890 C   0  0  0  0  0  0  0  0  0  0  0  0
   38.9260   24.7680   38.1550 O   0  0  0  0  0  0  0  0  0  0  0  0
   36.9080   28.5000   41.5150 C   0  0  2  0  0  0  0  0  0  0  0  0
   36.9060   31.9780   40.0250 C   0  0  0  0  0  0  0  0  0  0  0  0
   36.8210   30.9530   40.9840 C   0  0  0  0  0  0  0  0  0  0  0  0
   36.9880   29.6080   40.5530 C   0  0  0  0  0  0  0  0  0  0  0  0
   37.2200   29.4510   39.2140 N   0  0  0  0  0  0  0  0  0  0  0  0
   37.2970   30.4250   38.3240 C   0  0  0  0  0  0  0  0  0  0  0  0
   37.1390   31.7020   38.7310 N   0  0  0  0  0  0  0  0  0  0  0  0
   37.4950   28.8730   42.8610 C   0  0  0  0  0  0  0  0  0  0  0  0
   37.3870   27.8120   43.8870 C   0  0  0  0  0  0  0  0  0  0  0  0
   36.6250   28.2490   45.1710 C   0  0  0  0  0  0  0  0  0  0  0  0
   36.0760   27.2530   44.2120 C   0  0  0  0  0  0  0  0  0  0  0  0
   38.0498   27.6208   39.9239 H   0  0  0  0  0  0  0  0  0  0  0  0
   38.4569   27.0195   41.5730 H   0  0  0  0  0  0  0  0  0  0  0  0
   35.7435   26.5693   41.0614 H   0  0  0  0  0  0  0  0  0  0  0  0
   38.1315   24.8924   41.6783 H   0  0  0  0  0  0  0  0  0  0  0  0
   36.5433   24.9167   42.4591 H   0  0  0  0  0  0  0  0  0  0  0  0
   37.4780   23.1246   40.3918 H   0  0  0  0  0  0  0  0  0  0  0  0
   35.8491   23.1707   41.0964 H   0  0  0  0  0  0  0  0  0  0  0  0
   36.3807   23.7812   38.4374 H   0  0  0  0  0  0  0  0  0  0  0  0
   34.9966   24.4497   39.2645 H   0  0  0  0  0  0  0  0  0  0  0  0
   36.3352   26.5044   38.6430 H   0  0  0  0  0  0  0  0  0  0  0  0
   38.7686   26.3159   39.1621 H   0  0  0  0  0  0  0  0  0  0  0  0
   35.8558   28.2450   41.7098 H   0  0  0  0  0  0  0  0  0  0  0  0
   36.7795   33.0243   40.3399 H   0  0  0  0  0  0  0  0  0  0  0  0
   36.6300   31.1859   42.0420 H   0  0  0  0  0  0  0  0  0  0  0  0
   37.4875   30.1977   37.2647 H   0  0  0  0  0  0  0  0  0  0  0  0
   38.5602   29.1081   42.7192 H   0  0  0  0  0  0  0  0  0  0  0  0
   36.9139   29.7303   43.2317 H   0  0  0  0  0  0  0  0  0  0  0  0
   38.3547   27.3587   43.6260 H   0  0  0  0  0  0  0  0  0  0  0  0
   36.9775   27.9314   46.1634 H   0  0  0  0  0  0  0  0  0  0  0  0
   36.2862   29.2004   45.6070 H   0  0  0  0  0  0  0  0  0  0  0  0
   35.2066   27.5215   43.5938 H   0  0  0  0  0  0  0  0  0  0  0  0
   35.6990   26.2256   44.3227 H   0  0  0  0  0  0  0  0  0  0  0  0
  1  9  1  0
  2  1  1  0
  2  3  1  0
  4  3  1  0
  5  4  1  0
  6  5  1  0
  6  2  1  0
  7  6  1  0
  8  7  2  0
  9 16  1  0
 10 11  2  0
 12 11  1  0
 12  9  1  0
 13 12  2  0
 14 15  2  0
 14 13  1  0
 15 10  1  0
 16 17  1  0
 17 19  1  0
 17 18  1  0
 19 18  1  0
  1 20  1  0
  1 21  1  0
  2 22  1  1
  3 23  1  0
  3 24  1  0
  4 25  1  0
  4 26  1  0
  5 27  1  0
  5 28  1  0
  6 29  1  6
  7 30  1  0
  9 31  1  1
 10 32  1  0
 11 33  1  0
 14 34  1  0
 16 35  1  0
 16 36  1  0
 17 37  1  0
 18 38  1  0
 18 39  1  0
 19 40  1  0
 19 41  1  0
M  ISO  8  20   8  21   8  22  13  23  13  24  13  25  13  26  13  27  13
M  ISO  8  28  13  29  13  30   6  31   8  32  14  33  14  34  14  35   8
M  ISO  6  36   8  37  13  38  13  39  13  40  13  41  13
M  END
>  <minimizedAffinity>  (1) 
-4.61305666

>  <minimizedRMSD>  (1) 
2.20086122

$$$$
