
     RDKit          3D

 40 42  0  0  1  0  0  0  0  0999 V2000
   37.4820   26.3570   40.8950 C   0  0  1  0  0  0  0  0  0  0  0  0
   39.9690   27.7810   43.3650 C   0  0  0  0  0  0  0  0  0  0  0  0
   39.0100   27.7460   42.3330 C   0  0  0  0  0  0  0  0  0  0  0  0
   38.4920   26.4740   41.9730 C   0  0  0  0  0  0  0  0  0  0  0  0
   38.9690   25.3910   42.6640 N   0  0  0  0  0  0  0  0  0  0  0  0
   39.8780   25.4630   43.6370 C   0  0  0  0  0  0  0  0  0  0  0  0
   40.3770   26.6590   43.9860 N   0  0  0  0  0  0  0  0  0  0  0  0
   37.2860   27.7570   40.3310 C   0  0  0  0  0  0  0  0  0  0  0  0
   35.9430   27.8620   39.7060 C   0  0  2  0  0  0  0  0  0  0  0  0
   35.9310   28.2180   38.2560 C   0  0  0  0  0  0  0  0  0  0  0  0
   34.7060   29.0960   38.0360 C   0  0  0  0  0  0  0  0  0  0  0  0
   34.0420   29.2200   39.4060 C   0  0  0  0  0  0  0  0  0  0  0  0
   35.1970   28.9900   40.3430 C   0  0  2  0  0  0  0  0  0  0  0  0
   35.9390   30.2720   40.4020 C   0  0  0  0  0  0  0  0  0  0  0  0
   36.3390   31.2150   41.0720 O   0  0  0  0  0  0  0  0  0  0  0  0
   37.9240   25.4070   39.7930 C   0  0  0  0  0  0  0  0  0  0  0  0
   36.7510   24.5810   39.3280 C   0  0  0  0  0  0  0  0  0  0  0  0
   36.1300   23.7520   40.3040 C   0  0  0  0  0  0  0  0  0  0  0  0
   34.7980   22.9490   39.3500 S   0  0  0  0  0  0  0  0  0  0  0  0
   35.3070   23.8760   37.7760 C   0  0  0  0  0  0  0  0  0  0  0  0
   36.1860   24.4950   38.1230 N   0  0  0  0  0  0  0  0  0  0  0  0
   36.5479   25.9428   41.3023 H   0  0  0  0  0  0  0  0  0  0  0  0
   40.3942   28.7485   43.6702 H   0  0  0  0  0  0  0  0  0  0  0  0
   38.6770   28.6648   41.8280 H   0  0  0  0  0  0  0  0  0  0  0  0
   40.2159   24.5500   44.1492 H   0  0  0  0  0  0  0  0  0  0  0  0
   37.3695   28.4935   41.1438 H   0  0  0  0  0  0  0  0  0  0  0  0
   38.0572   27.9549   39.5720 H   0  0  0  0  0  0  0  0  0  0  0  0
   35.5111   26.8594   39.8409 H   0  0  0  0  0  0  0  0  0  0  0  0
   36.8458   28.7692   37.9925 H   0  0  0  0  0  0  0  0  0  0  0  0
   35.8930   27.3173   37.6257 H   0  0  0  0  0  0  0  0  0  0  0  0
   35.0049   30.0865   37.6625 H   0  0  0  0  0  0  0  0  0  0  0  0
   34.0234   28.6647   37.2890 H   0  0  0  0  0  0  0  0  0  0  0  0
   33.6061   30.2198   39.5486 H   0  0  0  0  0  0  0  0  0  0  0  0
   33.2066   28.5203   39.5560 H   0  0  0  0  0  0  0  0  0  0  0  0
   34.9580   28.7191   41.3820 H   0  0  0  0  0  0  0  0  0  0  0  0
   36.2898   30.4626   39.3770 H   0  0  0  0  0  0  0  0  0  0  0  0
   38.3193   25.9882   38.9469 H   0  0  0  0  0  0  0  0  0  0  0  0
   38.7064   24.7389   40.1823 H   0  0  0  0  0  0  0  0  0  0  0  0
   36.3880   23.6269   41.3660 H   0  0  0  0  0  0  0  0  0  0  0  0
   34.8576   23.8239   36.7733 H   0  0  0  0  0  0  0  0  0  0  0  0
  1  4  1  0
  2  7  2  0
  3  2  1  0
  4  3  2  0
  4  5  1  0
  5  6  2  0
  6  7  1  0
  8  1  1  0
  9  8  1  0
  9 13  1  0
 10  9  1  0
 11 10  1  0
 11 12  1  0
 12 13  1  0
 13 14  1  0
 14 15  2  0
 16  1  1  0
 17 16  1  0
 17 18  2  0
 19 18  1  0
 20 21  2  0
 20 19  1  0
 21 17  1  0
  1 22  1  1
  2 23  1  0
  3 24  1  0
  6 25  1  0
  8 26  1  0
  8 27  1  0
  9 28  1  6
 10 29  1  0
 10 30  1  0
 11 31  1  0
 11 32  1  0
 12 33  1  0
 12 34  1  0
 13 35  1  1
 14 36  1  0
 16 37  1  0
 16 38  1  0
 18 39  1  0
 20 40  1  0
M  ISO  8  22   8  23  14  24  14  25  14  26   8  27   8  28  13  29  13
M  ISO  8  30  13  31  13  32  13  33  13  34  13  35  13  36   6  37   8
M  ISO  3  38   8  39  14  40  14
M  END
>  <minimizedAffinity>  (1) 
-4.29785395

>  <minimizedRMSD>  (1) 
6.03973103

$$$$
