
     RDKit          3D

 35 36  0  0  1  0  0  0  0  0999 V2000
   37.9900   26.7580   42.6880 C   0  0  0  0  0  0  0  0  0  0  0  0
   37.2300   25.5840   42.1930 C   0  0  2  0  0  0  0  0  0  0  0  0
   37.9570   24.2770   42.2570 C   0  0  0  0  0  0  0  0  0  0  0  0
   37.4870   23.4770   41.0480 C   0  0  0  0  0  0  0  0  0  0  0  0
   36.5160   24.3890   40.2930 C   0  0  0  0  0  0  0  0  0  0  0  0
   36.9570   25.7560   40.7360 C   0  0  2  0  0  0  0  0  0  0  0  0
   38.1650   26.0880   39.9200 C   0  0  0  0  0  0  0  0  0  0  0  0
   38.7600   25.9830   38.8620 O   0  0  0  0  0  0  0  0  0  0  0  0
   37.0280   27.8350   43.1680 C   0  0  2  0  0  0  0  0  0  0  0  0
   38.8420   30.7900   41.6600 C   0  0  0  0  0  0  0  0  0  0  0  0
   38.6240   29.6280   42.4290 C   0  0  0  0  0  0  0  0  0  0  0  0
   37.3390   29.0580   42.3880 C   0  0  0  0  0  0  0  0  0  0  0  0
   36.4000   29.6830   41.6020 N   0  0  0  0  0  0  0  0  0  0  0  0
   36.6360   30.7750   40.8910 C   0  0  0  0  0  0  0  0  0  0  0  0
   37.8610   31.3350   40.9180 N   0  0  0  0  0  0  0  0  0  0  0  0
   37.1890   28.0540   44.6670 C   0  0  0  0  0  0  0  0  0  0  0  0
   35.9970   28.4350   45.2710 O   0  0  0  0  0  0  0  0  0  0  0  0
   38.6104   27.1602   41.8736 H   0  0  0  0  0  0  0  0  0  0  0  0
   38.6310   26.4465   43.5259 H   0  0  0  0  0  0  0  0  0  0  0  0
   36.3446   25.5476   42.8447 H   0  0  0  0  0  0  0  0  0  0  0  0
   39.0436   24.4410   42.2082 H   0  0  0  0  0  0  0  0  0  0  0  0
   37.7500   23.7457   43.1977 H   0  0  0  0  0  0  0  0  0  0  0  0
   38.3417   23.2142   40.4073 H   0  0  0  0  0  0  0  0  0  0  0  0
   37.0050   22.5353   41.3494 H   0  0  0  0  0  0  0  0  0  0  0  0
   35.4741   24.1916   40.5852 H   0  0  0  0  0  0  0  0  0  0  0  0
   36.5364   24.2498   39.2020 H   0  0  0  0  0  0  0  0  0  0  0  0
   36.2413   26.5796   40.5966 H   0  0  0  0  0  0  0  0  0  0  0  0
   38.8056   26.7058   40.5666 H   0  0  0  0  0  0  0  0  0  0  0  0
   35.9784   27.5465   43.0098 H   0  0  0  0  0  0  0  0  0  0  0  0
   39.8360   31.2611   41.6671 H   0  0  0  0  0  0  0  0  0  0  0  0
   39.4270   29.1852   43.0366 H   0  0  0  0  0  0  0  0  0  0  0  0
   35.8365   31.2222   40.2820 H   0  0  0  0  0  0  0  0  0  0  0  0
   37.5360   27.1170   45.1270 H   0  0  0  0  0  0  0  0  0  0  0  0
   37.9175   28.8649   44.8143 H   0  0  0  0  0  0  0  0  0  0  0  0
   36.1004   28.4020   46.2550 H   0  0  0  0  0  0  0  0  0  0  0  0
  1  9  1  0
  2  3  1  0
  2  1  1  0
  4  3  1  0
  5  6  1  0
  5  4  1  0
  6  2  1  0
  7  6  1  0
  8  7  2  0
  9 16  1  0
 10 11  2  0
 12 11  1  0
 12  9  1  0
 13 12  2  0
 14 15  2  0
 14 13  1  0
 15 10  1  0
 16 17  1  0
  1 18  1  0
  1 19  1  0
  2 20  1  1
  3 21  1  0
  3 22  1  0
  4 23  1  0
  4 24  1  0
  5 25  1  0
  5 26  1  0
  6 27  1  1
  7 28  1  0
  9 29  1  1
 10 30  1  0
 11 31  1  0
 14 32  1  0
 16 33  1  0
 16 34  1  0
 17 35  1  0
M  ISO  8  18   8  19   8  20  13  21  13  22  13  23  13  24  13  25  13
M  ISO  8  26  13  27  13  28   6  29   8  30  14  31  14  32  14  33   8
M  ISO  2  34   8  35   3
M  END
>  <minimizedAffinity>  (1) 
-4.7765708

>  <minimizedRMSD>  (1) 
0.53872025

$$$$
