
     RDKit          3D

 46 49  0  0  1  0  0  0  0  0999 V2000
   37.5000   27.2670   42.8220 C   0  0  2  0  0  0  0  0  0  0  0  0
   39.3400   25.7510   42.0700 C   0  0  1  0  0  0  0  0  0  0  0  0
   39.2540   24.3430   41.4150 C   0  0  0  0  0  0  0  0  0  0  0  0
   37.9150   23.8230   41.7240 C   0  0  0  0  0  0  0  0  0  0  0  0
   37.0930   25.1060   42.0130 C   0  0  0  0  0  0  0  0  0  0  0  0
   38.0450   25.8720   42.7360 C   0  0  2  0  0  0  0  0  0  0  0  0
   41.7990   26.8000   44.6950 C   0  0  0  0  0  0  0  0  0  0  0  0
   40.6040   26.6960   43.9880 C   0  0  0  0  0  0  0  0  0  0  0  0
   40.5350   25.8990   42.8450 C   0  0  0  0  0  0  0  0  0  0  0  0
   41.6600   25.2310   42.4510 N   0  0  0  0  0  0  0  0  0  0  0  0
   42.8140   25.3310   43.1360 C   0  0  0  0  0  0  0  0  0  0  0  0
   42.8940   26.1070   44.2500 N   0  0  0  0  0  0  0  0  0  0  0  0
   36.3460   27.4870   43.7180 C   0  0  0  0  0  0  0  0  0  0  0  0
   37.1920   27.6290   41.4560 C   0  0  0  0  0  0  0  0  0  0  0  0
   36.9880   29.0290   41.3340 N   0  0  0  0  0  0  0  0  0  0  0  0
   35.8960   29.6710   40.8540 C   0  0  0  0  0  0  0  0  0  0  0  0
   36.1890   31.0090   40.7450 C   0  0  0  0  0  0  0  0  0  0  0  0
   37.4670   31.1190   41.1730 N   0  0  0  0  0  0  0  0  0  0  0  0
   37.9540   29.9260   41.5330 C   0  0  0  0  0  0  0  0  0  0  0  0
   39.3100   30.1950   41.9630 C   0  0  0  0  0  0  0  0  0  0  0  0
   40.4670   29.4690   41.7490 C   0  0  0  0  0  0  0  0  0  0  0  0
   41.5760   30.0350   42.3400 C   0  0  0  0  0  0  0  0  0  0  0  0
   41.0730   31.1350   42.9280 N   0  0  0  0  0  0  0  0  0  0  0  0
   39.7740   31.2180   42.7060 N   0  0  0  0  0  0  0  0  0  0  0  0
   38.2589   27.9056   43.2977 H   0  0  0  0  0  0  0  0  0  0  0  0
   39.4669   26.6039   41.3870 H   0  0  0  0  0  0  0  0  0  0  0  0
   40.0255   23.6805   41.8344 H   0  0  0  0  0  0  0  0  0  0  0  0
   39.4198   24.3975   40.3289 H   0  0  0  0  0  0  0  0  0  0  0  0
   37.4985   23.2726   40.8675 H   0  0  0  0  0  0  0  0  0  0  0  0
   37.9122   23.1114   42.5629 H   0  0  0  0  0  0  0  0  0  0  0  0
   36.7887   25.6101   41.0839 H   0  0  0  0  0  0  0  0  0  0  0  0
   36.1473   24.9314   42.5471 H   0  0  0  0  0  0  0  0  0  0  0  0
   38.2124   25.5231   43.7657 H   0  0  0  0  0  0  0  0  0  0  0  0
   41.8629   27.4281   45.5958 H   0  0  0  0  0  0  0  0  0  0  0  0
   39.7133   27.2428   44.3310 H   0  0  0  0  0  0  0  0  0  0  0  0
   43.7013   24.7797   42.7915 H   0  0  0  0  0  0  0  0  0  0  0  0
   36.6774   27.4238   44.7650 H   0  0  0  0  0  0  0  0  0  0  0  0
   35.9189   28.4827   43.5281 H   0  0  0  0  0  0  0  0  0  0  0  0
   35.5825   26.7182   43.5281 H   0  0  0  0  0  0  0  0  0  0  0  0
   38.0283   27.3295   40.8072 H   0  0  0  0  0  0  0  0  0  0  0  0
   36.2679   27.1129   41.1566 H   0  0  0  0  0  0  0  0  0  0  0  0
   34.9361   29.2003   40.5950 H   0  0  0  0  0  0  0  0  0  0  0  0
   35.5292   31.8136   40.3881 H   0  0  0  0  0  0  0  0  0  0  0  0
   40.4991   28.5360   41.1672 H   0  0  0  0  0  0  0  0  0  0  0  0
   42.6157   29.6758   42.3326 H   0  0  0  0  0  0  0  0  0  0  0  0
   41.6221   31.8149   43.4731 H   0  0  0  0  0  0  0  0  0  0  0  0
  1 13  1  0
  2  6  1  0
  2  9  1  0
  3  4  1  0
  3  2  1  0
  4  5  1  0
  5  6  1  0
  6  1  1  0
  8  7  2  0
  9  8  1  0
 10  9  2  0
 10 11  1  0
 11 12  2  0
 12  7  1  0
 14  1  1  0
 15 14  1  0
 15 19  1  0
 16 15  1  0
 17 16  2  0
 17 18  1  0
 18 19  2  0
 19 20  1  0
 20 24  2  0
 21 20  1  0
 21 22  2  0
 22 23  1  0
 24 23  1  0
  1 25  1  1
  2 26  1  6
  3 27  1  0
  3 28  1  0
  4 29  1  0
  4 30  1  0
  5 31  1  0
  5 32  1  0
  6 33  1  1
  7 34  1  0
  8 35  1  0
 11 36  1  0
 13 37  1  0
 13 38  1  0
 13 39  1  0
 14 40  1  0
 14 41  1  0
 16 42  1  0
 17 43  1  0
 21 44  1  0
 22 45  1  0
 23 46  1  0
M  ISO  8  25   8  26  13  27  13  28  13  29  13  30  13  31  13  32  13
M  ISO  8  33  13  34  14  35  14  36  14  37   8  38   8  39   8  40   8
M  ISO  6  41   8  42  14  43  14  44  14  45  14  46   9
M  END
>  <minimizedAffinity>  (1) 
-5.69556046

>  <minimizedRMSD>  (1) 
0.685412407

$$$$
