
     RDKit          3D

 39 40  0  0  1  0  0  0  0  0999 V2000
   37.3740   28.2550   41.2210 C   0  0  1  0  0  0  0  0  0  0  0  0
   36.8460   30.7410   38.4230 C   0  0  0  0  0  0  0  0  0  0  0  0
   36.9810   29.5060   39.0830 C   0  0  0  0  0  0  0  0  0  0  0  0
   37.2190   29.5260   40.4560 C   0  0  0  0  0  0  0  0  0  0  0  0
   37.3030   30.7550   41.0690 N   0  0  0  0  0  0  0  0  0  0  0  0
   37.1690   31.9050   40.4110 C   0  0  0  0  0  0  0  0  0  0  0  0
   36.9390   31.8980   39.0860 N   0  0  0  0  0  0  0  0  0  0  0  0
   37.9500   27.2320   40.2730 C   0  0  0  0  0  0  0  0  0  0  0  0
   38.2100   25.9610   40.9720 C   0  0  2  0  0  0  0  0  0  0  0  0
   39.2520   25.0970   40.3270 C   0  0  0  0  0  0  0  0  0  0  0  0
   38.8150   23.6590   40.5910 C   0  0  0  0  0  0  0  0  0  0  0  0
   37.5030   23.7590   41.3650 C   0  0  0  0  0  0  0  0  0  0  0  0
   37.0010   25.1080   40.9660 C   0  0  2  0  0  0  0  0  0  0  0  0
   36.3640   24.9530   39.6200 C   0  0  0  0  0  0  0  0  0  0  0  0
   35.5880   24.2920   38.9270 O   0  0  0  0  0  0  0  0  0  0  0  0
   38.2870   28.4350   42.4370 C   0  0  0  0  0  0  0  0  0  0  0  0
   37.5840   28.7780   43.5780 O   0  0  0  0  0  0  0  0  0  0  0  0
   36.7060   27.9990   44.2710 C   0  0  0  0  0  0  0  0  0  0  0  0
   36.3230   28.4380   45.5670 N   0  0  0  0  0  0  0  0  0  0  0  0
   36.2590   26.9290   43.7690 O   0  0  0  0  0  0  0  0  0  0  0  0
   36.3975   27.9291   41.6087 H   0  0  0  0  0  0  0  0  0  0  0  0
   36.6601   30.7549   37.3389 H   0  0  0  0  0  0  0  0  0  0  0  0
   36.9014   28.5563   38.5337 H   0  0  0  0  0  0  0  0  0  0  0  0
   37.2464   32.8602   40.9510 H   0  0  0  0  0  0  0  0  0  0  0  0
   38.8939   27.6154   39.8582 H   0  0  0  0  0  0  0  0  0  0  0  0
   37.2244   27.0497   39.4666 H   0  0  0  0  0  0  0  0  0  0  0  0
   38.5386   26.2804   41.9720 H   0  0  0  0  0  0  0  0  0  0  0  0
   40.2387   25.2866   40.7748 H   0  0  0  0  0  0  0  0  0  0  0  0
   39.3419   25.3035   39.2503 H   0  0  0  0  0  0  0  0  0  0  0  0
   38.6601   23.1252   39.6417 H   0  0  0  0  0  0  0  0  0  0  0  0
   39.5768   23.1013   41.1555 H   0  0  0  0  0  0  0  0  0  0  0  0
   36.8012   22.9674   41.0636 H   0  0  0  0  0  0  0  0  0  0  0  0
   37.6219   23.6366   42.4517 H   0  0  0  0  0  0  0  0  0  0  0  0
   36.2408   25.5574   41.6219 H   0  0  0  0  0  0  0  0  0  0  0  0
   36.7477   25.7665   38.9868 H   0  0  0  0  0  0  0  0  0  0  0  0
   38.8204   27.4908   42.6212 H   0  0  0  0  0  0  0  0  0  0  0  0
   38.9851   29.2553   42.2138 H   0  0  0  0  0  0  0  0  0  0  0  0
   35.6616   27.8796   46.1253 H   0  0  0  0  0  0  0  0  0  0  0  0
   36.7067   29.3146   45.9481 H   0  0  0  0  0  0  0  0  0  0  0  0
  1 16  1  0
  2  3  2  0
  2  7  1  0
  3  4  1  0
  4  5  2  0
  4  1  1  0
  6  5  1  0
  7  6  2  0
  8  9  1  0
  8  1  1  0
 10 11  1  0
 10  9  1  0
 11 12  1  0
 13  9  1  0
 13 12  1  0
 14 13  1  0
 15 14  2  0
 16 17  1  0
 17 18  1  0
 18 19  1  0
 20 18  2  0
  1 21  1  1
  2 22  1  0
  3 23  1  0
  6 24  1  0
  8 25  1  0
  8 26  1  0
  9 27  1  1
 10 28  1  0
 10 29  1  0
 11 30  1  0
 11 31  1  0
 12 32  1  0
 12 33  1  0
 13 34  1  1
 14 35  1  0
 16 36  1  0
 16 37  1  0
 19 38  1  0
 19 39  1  0
M  ISO  8  21   8  22  14  23  14  24  14  25   8  26   8  27  13  28  13
M  ISO  8  29  13  30  13  31  13  32  13  33  13  34  13  35   6  36   8
M  ISO  1  37   8
M  END
>  <minimizedAffinity>  (1) 
-4.39591455

>  <minimizedRMSD>  (1) 
2.33894348

$$$$
