
     RDKit          3D

 53 56  0  0  1  0  0  0  0  0999 V2000
   37.9400   27.7120   41.5750 C   0  0  1  0  0  0  0  0  0  0  0  0
   37.6270   30.0990   38.6800 C   0  0  0  0  0  0  0  0  0  0  0  0
   38.0740   29.0190   39.4550 C   0  0  0  0  0  0  0  0  0  0  0  0
   37.4710   28.8030   40.6900 C   0  0  0  0  0  0  0  0  0  0  0  0
   36.4780   29.6630   41.0630 N   0  0  0  0  0  0  0  0  0  0  0  0
   36.0770   30.6800   40.3000 C   0  0  0  0  0  0  0  0  0  0  0  0
   36.6530   30.8980   39.1070 N   0  0  0  0  0  0  0  0  0  0  0  0
   38.7870   26.7640   40.8200 C   0  0  0  0  0  0  0  0  0  0  0  0
   38.5530   25.3700   41.1880 C   0  0  2  0  0  0  0  0  0  0  0  0
   39.3910   24.4140   40.3860 C   0  0  0  0  0  0  0  0  0  0  0  0
   38.5390   23.1520   40.2840 C   0  0  0  0  0  0  0  0  0  0  0  0
   37.2020   23.4910   40.9490 C   0  0  0  0  0  0  0  0  0  0  0  0
   37.1510   24.9910   40.8270 C   0  0  2  0  0  0  0  0  0  0  0  0
   36.7750   25.3130   39.4230 C   0  0  0  0  0  0  0  0  0  0  0  0
   35.7960   25.1120   38.6880 O   0  0  0  0  0  0  0  0  0  0  0  0
   38.5990   28.2040   42.8520 C   0  0  1  0  0  0  0  0  0  0  0  0
   39.7980   28.7890   42.7270 N   0  0  0  0  0  0  0  0  0  0  0  0
   41.0300   28.2870   42.9410 C   0  0  0  0  0  0  0  0  0  0  0  0
   41.9900   29.2000   42.7070 N   0  0  0  0  0  0  0  0  0  0  0  0
   41.3830   30.3460   42.3250 C   0  0  0  0  0  0  0  0  0  0  0  0
   41.9460   31.5450   41.9860 C   0  0  0  0  0  0  0  0  0  0  0  0
   43.2050   31.7290   41.9910 O   0  0  0  0  0  0  0  0  0  0  0  0
   41.1440   32.5600   41.6370 N   0  0  0  0  0  0  0  0  0  0  0  0
   39.8190   32.3220   41.6460 C   0  0  0  0  0  0  0  0  0  0  0  0
   38.8540   33.3340   41.2900 N   0  0  0  0  0  0  0  0  0  0  0  0
   39.2780   31.1380   41.9820 N   0  0  0  0  0  0  0  0  0  0  0  0
   40.0290   30.0820   42.3400 C   0  0  0  0  0  0  0  0  0  0  0  0
   37.6410   28.7230   43.7340 O   0  0  0  0  0  0  0  0  0  0  0  0
   36.6790   28.0630   44.3590 C   0  0  0  0  0  0  0  0  0  0  0  0
   36.3270   28.5010   45.6530 N   0  0  0  0  0  0  0  0  0  0  0  0
   36.1290   27.1030   43.7800 O   0  0  0  0  0  0  0  0  0  0  0  0
   37.0477   27.1697   41.9209 H   0  0  0  0  0  0  0  0  0  0  0  0
   38.0905   30.2889   37.7007 H   0  0  0  0  0  0  0  0  0  0  0  0
   38.8791   28.3609   39.0963 H   0  0  0  0  0  0  0  0  0  0  0  0
   35.2715   31.3428   40.6491 H   0  0  0  0  0  0  0  0  0  0  0  0
   39.8424   27.0053   41.0149 H   0  0  0  0  0  0  0  0  0  0  0  0
   38.5306   26.8703   39.7556 H   0  0  0  0  0  0  0  0  0  0  0  0
   38.7822   25.3019   42.2617 H   0  0  0  0  0  0  0  0  0  0  0  0
   39.5998   24.8239   39.3868 H   0  0  0  0  0  0  0  0  0  0  0  0
   40.3686   24.2221   40.8523 H   0  0  0  0  0  0  0  0  0  0  0  0
   38.3834   22.8800   39.2296 H   0  0  0  0  0  0  0  0  0  0  0  0
   39.0267   22.2958   40.7729 H   0  0  0  0  0  0  0  0  0  0  0  0
   36.3623   23.0198   40.4172 H   0  0  0  0  0  0  0  0  0  0  0  0
   37.1232   23.1315   41.9856 H   0  0  0  0  0  0  0  0  0  0  0  0
   36.4233   25.5246   41.4561 H   0  0  0  0  0  0  0  0  0  0  0  0
   37.5680   25.8721   38.9048 H   0  0  0  0  0  0  0  0  0  0  0  0
   38.9983   27.3373   43.3991 H   0  0  0  0  0  0  0  0  0  0  0  0
   41.2270   27.2552   43.2676 H   0  0  0  0  0  0  0  0  0  0  0  0
   41.5239   33.4805   41.3738 H   0  0  0  0  0  0  0  0  0  0  0  0
   37.8477   33.1152   41.3085 H   0  0  0  0  0  0  0  0  0  0  0  0
   39.1715   34.2752   41.0174 H   0  0  0  0  0  0  0  0  0  0  0  0
   35.5836   28.0167   46.1762 H   0  0  0  0  0  0  0  0  0  0  0  0
   36.8134   29.3051   46.0746 H   0  0  0  0  0  0  0  0  0  0  0  0
  1 16  1  0
  2  7  2  0
  2  3  1  0
  3  4  2  0
  4  5  1  0
  4  1  1  0
  6  5  2  0
  7  6  1  0
  8  9  1  0
  8  1  1  0
 10  9  1  0
 11 10  1  0
 11 12  1  0
 13 12  1  0
 13  9  1  0
 14 13  1  0
 15 14  2  0
 16 28  1  0
 17 16  1  0
 17 18  1  0
 19 18  2  0
 20 27  2  0
 20 19  1  0
 21 22  2  0
 21 20  1  0
 23 24  1  0
 23 21  1  0
 24 26  2  0
 25 24  1  0
 26 27  1  0
 27 17  1  0
 28 29  1  0
 29 30  1  0
 31 29  2  0
  1 32  1  1
  2 33  1  0
  3 34  1  0
  6 35  1  0
  8 36  1  0
  8 37  1  0
  9 38  1  1
 10 39  1  0
 10 40  1  0
 11 41  1  0
 11 42  1  0
 12 43  1  0
 12 44  1  0
 13 45  1  1
 14 46  1  0
 16 47  1  1
 18 48  1  0
 23 49  1  0
 25 50  1  0
 25 51  1  0
 30 52  1  0
 30 53  1  0
M  ISO  8  32   8  33  14  34  14  35  14  36   8  37   8  38  13  39  13
M  ISO  8  40  13  41  13  42  13  43  13  44  13  45  13  46   6  47   8
M  ISO  2  48  14  49   9
M  END
>  <minimizedAffinity>  (1) 
-5.74227762

>  <minimizedRMSD>  (1) 
1.04970586

$$$$
