
     RDKit          3D

 48 52  0  0  1  0  0  0  0  0999 V2000
   39.1490   26.2150   42.2210 C   0  0  1  0  0  0  0  0  0  0  0  0
   38.8920   24.8160   41.5850 C   0  0  0  0  0  0  0  0  0  0  0  0
   37.5310   24.4260   41.9180 C   0  0  0  0  0  0  0  0  0  0  0  0
   36.8590   25.7500   42.3380 C   0  0  0  0  0  0  0  0  0  0  0  0
   37.9310   26.4000   43.0020 C   0  0  2  0  0  0  0  0  0  0  0  0
   41.9890   27.1230   44.5250 C   0  0  0  0  0  0  0  0  0  0  0  0
   40.7370   27.1700   43.8950 C   0  0  0  0  0  0  0  0  0  0  0  0
   40.4100   26.2390   42.9120 C   0  0  0  0  0  0  0  0  0  0  0  0
   41.3400   25.2860   42.5880 N   0  0  0  0  0  0  0  0  0  0  0  0
   42.5380   25.2420   43.1960 C   0  0  0  0  0  0  0  0  0  0  0  0
   42.8720   26.1450   44.1550 N   0  0  0  0  0  0  0  0  0  0  0  0
   37.5060   27.8210   43.2440 C   0  0  2  0  0  0  0  0  0  0  0  0
   36.8110   28.0990   44.5110 C   0  0  0  0  0  0  0  0  0  0  0  0
   36.6550   28.1060   42.0580 C   0  0  0  0  0  0  0  0  0  0  0  0
   37.0300   29.4220   41.6060 N   0  0  0  0  0  0  0  0  0  0  0  0
   36.1590   30.3750   41.1440 C   0  0  0  0  0  0  0  0  0  0  0  0
   36.8730   31.4180   40.6730 C   0  0  0  0  0  0  0  0  0  0  0  0
   38.1630   31.0560   40.8710 N   0  0  0  0  0  0  0  0  0  0  0  0
   38.2440   29.8370   41.4470 C   0  0  0  0  0  0  0  0  0  0  0  0
   39.6100   29.8380   41.4710 C   0  0  1  0  0  0  0  0  0  0  0  0
   39.9580   30.7650   42.6180 C   0  0  0  0  0  0  0  0  0  0  0  0
   41.2620   31.0930   42.9200 N   0  0  0  0  0  0  0  0  0  0  0  0
   41.9350   30.3840   41.9580 C   0  0  0  0  0  0  0  0  0  0  0  0
   40.8960   29.8670   41.3920 N   0  0  0  0  0  0  0  0  0  0  0  0
   39.2877   27.0648   41.5364 H   0  0  0  0  0  0  0  0  0  0  0  0
   39.6030   24.0822   41.9924 H   0  0  0  0  0  0  0  0  0  0  0  0
   39.0268   24.8565   40.4940 H   0  0  0  0  0  0  0  0  0  0  0  0
   37.0241   23.9893   41.0449 H   0  0  0  0  0  0  0  0  0  0  0  0
   37.4896   23.6600   42.7064 H   0  0  0  0  0  0  0  0  0  0  0  0
   36.5175   26.3244   41.4643 H   0  0  0  0  0  0  0  0  0  0  0  0
   35.9551   25.6244   42.9522 H   0  0  0  0  0  0  0  0  0  0  0  0
   38.1694   25.9775   43.9892 H   0  0  0  0  0  0  0  0  0  0  0  0
   42.2557   27.8566   45.3001 H   0  0  0  0  0  0  0  0  0  0  0  0
   40.0101   27.9454   44.1784 H   0  0  0  0  0  0  0  0  0  0  0  0
   43.2600   24.4621   42.9126 H   0  0  0  0  0  0  0  0  0  0  0  0
   38.3848   28.4729   43.3565 H   0  0  0  0  0  0  0  0  0  0  0  0
   37.4669   27.8367   45.3542 H   0  0  0  0  0  0  0  0  0  0  0  0
   36.5569   29.1680   44.5629 H   0  0  0  0  0  0  0  0  0  0  0  0
   35.8897   27.5002   44.5629 H   0  0  0  0  0  0  0  0  0  0  0  0
   36.8400   27.3635   41.2678 H   0  0  0  0  0  0  0  0  0  0  0  0
   35.5851   28.0562   42.3089 H   0  0  0  0  0  0  0  0  0  0  0  0
   35.0615   30.3013   41.1556 H   0  0  0  0  0  0  0  0  0  0  0  0
   36.4939   32.3503   40.2291 H   0  0  0  0  0  0  0  0  0  0  0  0
   39.6216   30.6918   40.7775 H   0  0  0  0  0  0  0  0  0  0  0  0
   40.0177   29.9019   43.2974 H   0  0  0  0  0  0  0  0  0  0  0  0
   41.4286   32.1055   42.8307 H   0  0  0  0  0  0  0  0  0  0  0  0
   42.5059   31.0334   41.2780 H   0  0  0  0  0  0  0  0  0  0  0  0
   42.7055   29.6825   42.3104 H   0  0  0  0  0  0  0  0  0  0  0  0
  1  8  1  0
  1  5  1  0
  2  3  1  0
  2  1  1  0
  3  4  1  0
  4  5  1  0
  5 12  1  0
  7  6  2  0
  8  7  1  0
  9  8  2  0
  9 10  1  0
 10 11  2  0
 11  6  1  0
 12 13  1  0
 14 12  1  0
 15 14  1  0
 16 15  1  0
 17 18  1  0
 17 16  2  0
 18 19  2  0
 19 15  1  0
 20 19  1  0
 20 21  1  0
 21 22  1  0
 23 22  1  0
 24 20  1  0
 24 23  1  0
 24 21  1  0
  1 25  1  6
  2 26  1  0
  2 27  1  0
  3 28  1  0
  3 29  1  0
  4 30  1  0
  4 31  1  0
  5 32  1  1
  6 33  1  0
  7 34  1  0
 10 35  1  0
 12 36  1  6
 13 37  1  0
 13 38  1  0
 13 39  1  0
 14 40  1  0
 14 41  1  0
 16 42  1  0
 17 43  1  0
 20 44  1  1
 21 45  1  0
 22 46  1  0
 23 47  1  0
 23 48  1  0
M  ISO  8  25  13  26  13  27  13  28  13  29  13  30  13  31  13  32  13
M  ISO  8  33  14  34  14  35  14  36   8  37   8  38   8  39   8  40   8
M  ISO  8  41   8  42  14  43  14  44  13  45  13  46   5  47  13  48  13
M  END
>  <minimizedAffinity>  (1) 
-5.65224838

>  <minimizedRMSD>  (1) 
0.596304893

$$$$
