
     RDKit          3D

 46 49  0  0  1  0  0  0  0  0999 V2000
   39.2710   25.9680   42.1760 C   0  0  1  0  0  0  0  0  0  0  0  0
   39.0840   24.5320   41.6030 C   0  0  0  0  0  0  0  0  0  0  0  0
   37.7210   24.1140   41.9170 C   0  0  0  0  0  0  0  0  0  0  0  0
   36.9940   25.4380   42.2390 C   0  0  0  0  0  0  0  0  0  0  0  0
   38.0240   26.1860   42.8990 C   0  0  2  0  0  0  0  0  0  0  0  0
   41.8840   26.9310   44.7100 C   0  0  0  0  0  0  0  0  0  0  0  0
   40.6650   26.8920   44.0320 C   0  0  0  0  0  0  0  0  0  0  0  0
   40.4960   26.0650   42.9210 C   0  0  0  0  0  0  0  0  0  0  0  0
   41.5610   25.2950   42.5180 N   0  0  0  0  0  0  0  0  0  0  0  0
   42.7350   25.3380   43.1800 C   0  0  0  0  0  0  0  0  0  0  0  0
   42.9040   26.1420   44.2610 N   0  0  0  0  0  0  0  0  0  0  0  0
   37.5420   27.5800   43.0310 C   0  0  2  0  0  0  0  0  0  0  0  0
   36.6310   27.8570   44.1650 C   0  0  0  0  0  0  0  0  0  0  0  0
   36.8860   27.8240   41.7230 C   0  0  0  0  0  0  0  0  0  0  0  0
   37.0370   29.2160   41.4220 N   0  0  0  0  0  0  0  0  0  0  0  0
   36.0610   30.0780   41.0330 C   0  0  0  0  0  0  0  0  0  0  0  0
   36.6200   31.2920   40.7550 C   0  0  0  0  0  0  0  0  0  0  0  0
   37.9170   31.1190   40.9880 N   0  0  0  0  0  0  0  0  0  0  0  0
   38.1970   29.8600   41.3960 C   0  0  0  0  0  0  0  0  0  0  0  0
   39.6140   29.8080   41.5860 C   0  0  0  0  0  0  0  0  0  0  0  0
   40.3330   30.3040   42.5790 C   0  0  0  0  0  0  0  0  0  0  0  0
   41.6470   30.1950   42.7080 C   0  0  0  0  0  0  0  0  0  0  0  0
   42.2420   29.5140   41.7150 C   0  0  0  0  0  0  0  0  0  0  0  0
   40.9040   28.9590   40.4760 S   0  0  0  0  0  0  0  0  0  0  0  0
   39.4113   26.7722   41.4387 H   0  0  0  0  0  0  0  0  0  0  0  0
   39.8054   23.8441   42.0682 H   0  0  0  0  0  0  0  0  0  0  0  0
   39.2544   24.5208   40.5163 H   0  0  0  0  0  0  0  0  0  0  0  0
   37.2569   23.6117   41.0554 H   0  0  0  0  0  0  0  0  0  0  0  0
   37.6779   23.3927   42.7463 H   0  0  0  0  0  0  0  0  0  0  0  0
   36.6574   25.9433   41.3217 H   0  0  0  0  0  0  0  0  0  0  0  0
   36.0818   25.3102   42.8403 H   0  0  0  0  0  0  0  0  0  0  0  0
   38.2475   25.8656   43.9273 H   0  0  0  0  0  0  0  0  0  0  0  0
   42.0201   27.5823   45.5859 H   0  0  0  0  0  0  0  0  0  0  0  0
   39.8295   27.5191   44.3766 H   0  0  0  0  0  0  0  0  0  0  0  0
   43.5710   24.7102   42.8380 H   0  0  0  0  0  0  0  0  0  0  0  0
   38.3789   28.2543   43.2654 H   0  0  0  0  0  0  0  0  0  0  0  0
   37.1653   27.6945   45.1127 H   0  0  0  0  0  0  0  0  0  0  0  0
   36.2868   28.9004   44.1124 H   0  0  0  0  0  0  0  0  0  0  0  0
   35.7642   27.1818   44.1124 H   0  0  0  0  0  0  0  0  0  0  0  0
   37.3663   27.2161   40.9421 H   0  0  0  0  0  0  0  0  0  0  0  0
   35.8219   27.5485   41.7645 H   0  0  0  0  0  0  0  0  0  0  0  0
   34.9908   29.8360   40.9546 H   0  0  0  0  0  0  0  0  0  0  0  0
   36.1119   32.2065   40.4151 H   0  0  0  0  0  0  0  0  0  0  0  0
   39.7941   30.8538   43.3647 H   0  0  0  0  0  0  0  0  0  0  0  0
   42.2023   30.6248   43.5547 H   0  0  0  0  0  0  0  0  0  0  0  0
   43.3198   29.3108   41.6309 H   0  0  0  0  0  0  0  0  0  0  0  0
  1  5  1  0
  1  8  1  0
  2  3  1  0
  2  1  1  0
  3  4  1  0
  4  5  1  0
  5 12  1  0
  7  6  2  0
  8  7  1  0
  9  8  2  0
  9 10  1  0
 10 11  2  0
 11  6  1  0
 12 13  1  0
 14 12  1  0
 15 14  1  0
 16 15  1  0
 17 18  1  0
 17 16  2  0
 18 19  2  0
 19 15  1  0
 19 20  1  0
 20 21  2  0
 21 22  1  0
 23 22  2  0
 24 20  1  0
 24 23  1  0
  1 25  1  6
  2 26  1  0
  2 27  1  0
  3 28  1  0
  3 29  1  0
  4 30  1  0
  4 31  1  0
  5 32  1  1
  6 33  1  0
  7 34  1  0
 10 35  1  0
 12 36  1  1
 13 37  1  0
 13 38  1  0
 13 39  1  0
 14 40  1  0
 14 41  1  0
 16 42  1  0
 17 43  1  0
 21 44  1  0
 22 45  1  0
 23 46  1  0
M  ISO  8  25  13  26  13  27  13  28  13  29  13  30  13  31  13  32  13
M  ISO  8  33  14  34  14  35  14  36   8  37   8  38   8  39   8  40   8
M  ISO  6  41   8  42  14  43  14  44  14  45  14  46  14
M  END
>  <minimizedAffinity>  (1) 
-5.60191298

>  <minimizedRMSD>  (1) 
0.478147537

$$$$
