
     RDKit          3D

 54 56  0  0  1  0  0  0  0  0999 V2000
   37.7310   28.3780   41.3250 C   0  0  1  0  0  0  0  0  0  0  0  0
   38.2930   30.9680   38.6410 C   0  0  0  0  0  0  0  0  0  0  0  0
   38.3750   29.7550   39.3370 C   0  0  0  0  0  0  0  0  0  0  0  0
   37.6230   29.6110   40.5020 C   0  0  0  0  0  0  0  0  0  0  0  0
   36.8530   30.6710   40.8850 N   0  0  0  0  0  0  0  0  0  0  0  0
   36.7980   31.8120   40.2010 C   0  0  0  0  0  0  0  0  0  0  0  0
   37.5180   31.9610   39.0770 N   0  0  0  0  0  0  0  0  0  0  0  0
   38.2790   27.2690   40.5210 C   0  0  0  0  0  0  0  0  0  0  0  0
   38.3070   26.0030   41.2580 C   0  0  2  0  0  0  0  0  0  0  0  0
   39.3380   25.0450   40.7290 C   0  0  0  0  0  0  0  0  0  0  0  0
   38.7430   23.6630   40.9770 C   0  0  0  0  0  0  0  0  0  0  0  0
   37.3370   23.9050   41.5450 C   0  0  0  0  0  0  0  0  0  0  0  0
   37.0170   25.2840   41.0320 C   0  0  2  0  0  0  0  0  0  0  0  0
   36.6380   25.1510   39.5980 C   0  0  0  0  0  0  0  0  0  0  0  0
   35.7730   24.5480   38.9560 O   0  0  0  0  0  0  0  0  0  0  0  0
   38.4290   28.5870   42.6510 C   0  0  1  0  0  0  0  0  0  0  0  0
   39.6070   29.1940   42.6760 N   0  0  0  0  0  0  0  0  0  0  0  0
   40.8020   28.4190   42.3740 C   0  0  0  0  0  0  0  0  0  0  0  0
   41.6020   29.1690   41.3300 C   0  0  0  0  0  0  0  0  0  0  0  0
   42.2960   30.2870   42.1030 C   0  0  0  0  0  0  0  0  0  0  0  0
   41.2660   30.9790   42.9640 C   0  0  0  0  0  0  0  0  0  0  0  0
   39.8500   30.5780   42.5790 C   0  0  0  0  0  0  0  0  0  0  0  0
   37.4950   28.9170   43.6520 O   0  0  0  0  0  0  0  0  0  0  0  0
   36.6850   28.1160   44.3040 C   0  0  0  0  0  0  0  0  0  0  0  0
   36.3650   28.4560   45.6330 N   0  0  0  0  0  0  0  0  0  0  0  0
   36.2350   27.1070   43.7200 O   0  0  0  0  0  0  0  0  0  0  0  0
   36.7124   28.0886   41.6228 H   0  0  0  0  0  0  0  0  0  0  0  0
   38.8779   31.1033   37.7193 H   0  0  0  0  0  0  0  0  0  0  0  0
   39.0157   28.9379   38.9739 H   0  0  0  0  0  0  0  0  0  0  0  0
   36.1611   32.6350   40.5575 H   0  0  0  0  0  0  0  0  0  0  0  0
   39.3056   27.5250   40.2201 H   0  0  0  0  0  0  0  0  0  0  0  0
   37.6240   27.1333   39.6478 H   0  0  0  0  0  0  0  0  0  0  0  0
   38.5120   26.2679   42.3058 H   0  0  0  0  0  0  0  0  0  0  0  0
   40.2891   25.1609   41.2694 H   0  0  0  0  0  0  0  0  0  0  0  0
   39.5613   25.2181   39.6659 H   0  0  0  0  0  0  0  0  0  0  0  0
   38.6830   23.0978   40.0352 H   0  0  0  0  0  0  0  0  0  0  0  0
   39.3627   23.0753   41.6703 H   0  0  0  0  0  0  0  0  0  0  0  0
   36.6204   23.1622   41.1647 H   0  0  0  0  0  0  0  0  0  0  0  0
   37.2835   23.8190   42.6403 H   0  0  0  0  0  0  0  0  0  0  0  0
   36.1820   25.8165   41.5107 H   0  0  0  0  0  0  0  0  0  0  0  0
   37.2971   25.7406   38.9438 H   0  0  0  0  0  0  0  0  0  0  0  0
   38.8474   27.6036   42.9114 H   0  0  0  0  0  0  0  0  0  0  0  0
   41.4047   28.2938   43.2857 H   0  0  0  0  0  0  0  0  0  0  0  0
   40.5238   27.4240   41.9965 H   0  0  0  0  0  0  0  0  0  0  0  0
   40.9383   29.5853   40.5579 H   0  0  0  0  0  0  0  0  0  0  0  0
   42.3181   28.5178   40.8074 H   0  0  0  0  0  0  0  0  0  0  0  0
   43.0880   29.8637   42.7383 H   0  0  0  0  0  0  0  0  0  0  0  0
   42.7501   31.0052   41.4044 H   0  0  0  0  0  0  0  0  0  0  0  0
   41.4399   30.7075   44.0157 H   0  0  0  0  0  0  0  0  0  0  0  0
   41.3676   32.0641   42.8151 H   0  0  0  0  0  0  0  0  0  0  0  0
   39.6713   30.8899   41.5394 H   0  0  0  0  0  0  0  0  0  0  0  0
   39.1714   31.0739   43.2886 H   0  0  0  0  0  0  0  0  0  0  0  0
   35.7329   27.8547   46.1805 H   0  0  0  0  0  0  0  0  0  0  0  0
   36.7631   29.3059   46.0573 H   0  0  0  0  0  0  0  0  0  0  0  0
  1 16  1  0
  2  7  2  0
  2  3  1  0
  3  4  2  0
  4  5  1  0
  4  1  1  0
  6  5  2  0
  7  6  1  0
  8  9  1  0
  8  1  1  0
 10 11  1  0
 10  9  1  0
 11 12  1  0
 13  9  1  0
 13 12  1  0
 14 13  1  0
 15 14  2  0
 16 17  1  0
 16 23  1  0
 18 17  1  0
 19 20  1  0
 19 18  1  0
 20 21  1  0
 22 17  1  0
 22 21  1  0
 23 24  1  0
 24 25  1  0
 26 24  2  0
  1 27  1  1
  2 28  1  0
  3 29  1  0
  6 30  1  0
  8 31  1  0
  8 32  1  0
  9 33  1  1
 10 34  1  0
 10 35  1  0
 11 36  1  0
 11 37  1  0
 12 38  1  0
 12 39  1  0
 13 40  1  1
 14 41  1  0
 16 42  1  1
 18 43  1  0
 18 44  1  0
 19 45  1  0
 19 46  1  0
 20 47  1  0
 20 48  1  0
 21 49  1  0
 21 50  1  0
 22 51  1  0
 22 52  1  0
 25 53  1  0
 25 54  1  0
M  ISO  8  27   8  28  14  29  14  30  14  31   8  32   8  33  13  34  13
M  ISO  8  35  13  36  13  37  13  38  13  39  13  40  13  41   6  42   8
M  ISO  8  43  13  44  13  45  13  46  13  47  13  48  13  49  13  50  13
M  ISO  2  51  13  52  13
M  END
>  <minimizedAffinity>  (1) 
-4.94965076

>  <minimizedRMSD>  (1) 
0.896088481

$$$$
