
     RDKit          3D

 53 55  0  0  1  0  0  0  0  0999 V2000
   37.0460   28.3770   40.6360 C   0  0  1  0  0  0  0  0  0  0  0  0
   37.8340   29.9820   37.3200 C   0  0  0  0  0  0  0  0  0  0  0  0
   37.6900   28.9880   38.3020 C   0  0  0  0  0  0  0  0  0  0  0  0
   37.1560   29.3650   39.5350 C   0  0  0  0  0  0  0  0  0  0  0  0
   36.8110   30.6740   39.6980 N   0  0  0  0  0  0  0  0  0  0  0  0
   36.9620   31.5890   38.7430 C   0  0  0  0  0  0  0  0  0  0  0  0
   37.4750   31.2430   37.5510 N   0  0  0  0  0  0  0  0  0  0  0  0
   37.0370   27.0050   40.1030 C   0  0  0  0  0  0  0  0  0  0  0  0
   37.7850   26.0700   40.9450 C   0  0  2  0  0  0  0  0  0  0  0  0
   38.9280   25.4200   40.2080 C   0  0  0  0  0  0  0  0  0  0  0  0
   39.0550   24.0370   40.8320 C   0  0  0  0  0  0  0  0  0  0  0  0
   37.9180   23.9350   41.8500 C   0  0  0  0  0  0  0  0  0  0  0  0
   36.9110   24.9190   41.3170 C   0  0  2  0  0  0  0  0  0  0  0  0
   36.2310   24.2790   40.1570 C   0  0  0  0  0  0  0  0  0  0  0  0
   35.3260   23.4530   40.0040 O   0  0  0  0  0  0  0  0  0  0  0  0
   38.0470   28.5990   41.7540 C   0  0  1  0  0  0  0  0  0  0  0  0
   39.1580   29.2750   41.4980 N   0  0  0  0  0  0  0  0  0  0  0  0
   40.4160   28.6460   41.3530 C   0  0  0  0  0  0  0  0  0  0  0  0
   41.5890   29.5690   41.6600 C   0  0  0  0  0  0  0  0  0  0  0  0
   41.3280   30.8660   41.0710 N   0  0  0  0  0  0  0  0  0  0  0  0
   40.2810   31.4520   41.8840 C   0  0  0  0  0  0  0  0  0  0  0  0
   39.2400   30.4830   42.3190 C   0  0  0  0  0  0  0  0  0  0  0  0
   37.3890   28.8580   42.9690 O   0  0  0  0  0  0  0  0  0  0  0  0
   37.3640   28.1220   44.0580 C   0  0  0  0  0  0  0  0  0  0  0  0
   36.3570   28.4050   45.0000 N   0  0  0  0  0  0  0  0  0  0  0  0
   38.2150   27.2220   44.1940 O   0  0  0  0  0  0  0  0  0  0  0  0
   36.0744   28.5368   41.1263 H   0  0  0  0  0  0  0  0  0  0  0  0
   38.2524   29.7127   36.3390 H   0  0  0  0  0  0  0  0  0  0  0  0
   37.9881   27.9475   38.1057 H   0  0  0  0  0  0  0  0  0  0  0  0
   36.6657   32.6316   38.9307 H   0  0  0  0  0  0  0  0  0  0  0  0
   35.9946   26.6606   40.0338 H   0  0  0  0  0  0  0  0  0  0  0  0
   37.5228   27.0273   39.1163 H   0  0  0  0  0  0  0  0  0  0  0  0
   38.1405   26.6622   41.8011 H   0  0  0  0  0  0  0  0  0  0  0  0
   39.8556   25.9947   40.3468 H   0  0  0  0  0  0  0  0  0  0  0  0
   38.7498   25.3721   39.1236 H   0  0  0  0  0  0  0  0  0  0  0  0
   38.9513   23.2581   40.0622 H   0  0  0  0  0  0  0  0  0  0  0  0
   40.0375   23.8945   41.3057 H   0  0  0  0  0  0  0  0  0  0  0  0
   37.5016   22.9173   41.8796 H   0  0  0  0  0  0  0  0  0  0  0  0
   38.2341   24.1480   42.8819 H   0  0  0  0  0  0  0  0  0  0  0  0
   36.1059   25.2339   41.9972 H   0  0  0  0  0  0  0  0  0  0  0  0
   36.6362   24.6297   39.1964 H   0  0  0  0  0  0  0  0  0  0  0  0
   38.5583   27.6320   41.8702 H   0  0  0  0  0  0  0  0  0  0  0  0
   40.4583   27.7872   42.0390 H   0  0  0  0  0  0  0  0  0  0  0  0
   40.5084   28.3399   40.3005 H   0  0  0  0  0  0  0  0  0  0  0  0
   41.7022   29.6735   42.7492 H   0  0  0  0  0  0  0  0  0  0  0  0
   42.5155   29.1481   41.2422 H   0  0  0  0  0  0  0  0  0  0  0  0
   42.1752   31.4512   41.0973 H   0  0  0  0  0  0  0  0  0  0  0  0
   40.7434   31.8891   42.7813 H   0  0  0  0  0  0  0  0  0  0  0  0
   39.7757   32.2034   41.2595 H   0  0  0  0  0  0  0  0  0  0  0  0
   38.2637   30.9887   42.2854 H   0  0  0  0  0  0  0  0  0  0  0  0
   39.5190   30.1560   43.3316 H   0  0  0  0  0  0  0  0  0  0  0  0
   36.2959   27.8559   45.8693 H   0  0  0  0  0  0  0  0  0  0  0  0
   35.6812   29.1612   44.8200 H   0  0  0  0  0  0  0  0  0  0  0  0
  1 16  1  0
  2  7  2  0
  2  3  1  0
  3  4  2  0
  4  5  1  0
  4  1  1  0
  6  5  2  0
  7  6  1  0
  8  1  1  0
  8  9  1  0
  9 13  1  0
 10 11  1  0
 10  9  1  0
 11 12  1  0
 13 12  1  0
 14 13  1  0
 15 14  2  0
 16 23  1  0
 17 16  1  0
 17 22  1  0
 18 17  1  0
 18 19  1  0
 20 19  1  0
 20 21  1  0
 21 22  1  0
 23 24  1  0
 24 26  2  0
 24 25  1  0
  1 27  1  1
  2 28  1  0
  3 29  1  0
  6 30  1  0
  8 31  1  0
  8 32  1  0
  9 33  1  1
 10 34  1  0
 10 35  1  0
 11 36  1  0
 11 37  1  0
 12 38  1  0
 12 39  1  0
 13 40  1  1
 14 41  1  0
 16 42  1  1
 18 43  1  0
 18 44  1  0
 19 45  1  0
 19 46  1  0
 20 47  1  0
 21 48  1  0
 21 49  1  0
 22 50  1  0
 22 51  1  0
 25 52  1  0
 25 53  1  0
M  ISO  8  27   8  28  14  29  14  30  14  31   8  32   8  33  13  34  13
M  ISO  8  35  13  36  13  37  13  38  13  39  13  40  13  41   6  42   8
M  ISO  8  43  13  44  13  45  13  46  13  47   5  48  13  49  13  50  13
M  ISO  1  51  13
M  END
>  <minimizedAffinity>  (1) 
-4.90222216

>  <minimizedRMSD>  (1) 
1.28989327

$$$$
