
     RDKit          3D

 46 48  0  0  1  0  0  0  0  0999 V2000
   37.8670   28.2790   41.3790 C   0  0  1  0  0  0  0  0  0  0  0  0
   38.5720   30.9360   38.8090 C   0  0  0  0  0  0  0  0  0  0  0  0
   38.6080   29.6910   39.4630 C   0  0  0  0  0  0  0  0  0  0  0  0
   37.8350   29.5440   40.6160 C   0  0  0  0  0  0  0  0  0  0  0  0
   37.1030   30.6200   41.0200 N   0  0  0  0  0  0  0  0  0  0  0  0
   37.0860   31.7890   40.3840 C   0  0  0  0  0  0  0  0  0  0  0  0
   37.8340   31.9410   39.2640 N   0  0  0  0  0  0  0  0  0  0  0  0
   38.4890   27.2060   40.5740 C   0  0  0  0  0  0  0  0  0  0  0  0
   38.3530   25.8840   41.1900 C   0  0  2  0  0  0  0  0  0  0  0  0
   39.3010   24.8760   40.6020 C   0  0  0  0  0  0  0  0  0  0  0  0
   38.5650   23.5460   40.7140 C   0  0  0  0  0  0  0  0  0  0  0  0
   37.1830   23.8780   41.2770 C   0  0  0  0  0  0  0  0  0  0  0  0
   37.0040   25.3190   40.8790 C   0  0  2  0  0  0  0  0  0  0  0  0
   36.6570   25.3430   39.4310 C   0  0  0  0  0  0  0  0  0  0  0  0
   35.7490   24.8890   38.7280 O   0  0  0  0  0  0  0  0  0  0  0  0
   38.4970   28.4190   42.7580 C   0  0  1  0  0  0  0  0  0  0  0  0
   39.7390   28.9060   42.7730 N   0  0  0  0  0  0  0  0  0  0  0  0
   40.1460   30.1590   42.6520 N   0  0  0  0  0  0  0  0  0  0  0  0
   41.4840   30.2510   42.7180 C   0  0  0  0  0  0  0  0  0  0  0  0
   42.0010   28.9650   42.8960 C   0  0  0  0  0  0  0  0  0  0  0  0
   40.8620   28.1810   42.9210 C   0  0  0  0  0  0  0  0  0  0  0  0
   37.5520   28.8250   43.7050 O   0  0  0  0  0  0  0  0  0  0  0  0
   36.6660   28.0710   44.3370 C   0  0  0  0  0  0  0  0  0  0  0  0
   36.3020   28.4550   45.6430 N   0  0  0  0  0  0  0  0  0  0  0  0
   36.1920   27.0720   43.7540 O   0  0  0  0  0  0  0  0  0  0  0  0
   36.8235   27.9935   41.5781 H   0  0  0  0  0  0  0  0  0  0  0  0
   39.1706   31.0802   37.8975 H   0  0  0  0  0  0  0  0  0  0  0  0
   39.2230   28.8634   39.0797 H   0  0  0  0  0  0  0  0  0  0  0  0
   36.4732   32.6205   40.7622 H   0  0  0  0  0  0  0  0  0  0  0  0
   39.5594   27.4305   40.4560 H   0  0  0  0  0  0  0  0  0  0  0  0
   37.9697   27.1752   39.6048 H   0  0  0  0  0  0  0  0  0  0  0  0
   38.5412   26.0374   42.2629 H   0  0  0  0  0  0  0  0  0  0  0  0
   40.2415   24.8487   41.1719 H   0  0  0  0  0  0  0  0  0  0  0  0
   39.5740   25.1158   39.5638 H   0  0  0  0  0  0  0  0  0  0  0  0
   38.4719   23.0756   39.7240 H   0  0  0  0  0  0  0  0  0  0  0  0
   39.1052   22.8387   41.3605 H   0  0  0  0  0  0  0  0  0  0  0  0
   36.4071   23.2421   40.8258 H   0  0  0  0  0  0  0  0  0  0  0  0
   37.1001   23.7098   42.3609 H   0  0  0  0  0  0  0  0  0  0  0  0
   36.2087   25.8873   41.3836 H   0  0  0  0  0  0  0  0  0  0  0  0
   37.3940   25.9061   38.8397 H   0  0  0  0  0  0  0  0  0  0  0  0
   38.7767   27.4263   43.1405 H   0  0  0  0  0  0  0  0  0  0  0  0
   42.0714   31.1781   42.6447 H   0  0  0  0  0  0  0  0  0  0  0  0
   43.0517   28.6539   42.9922 H   0  0  0  0  0  0  0  0  0  0  0  0
   40.8733   27.0884   43.0476 H   0  0  0  0  0  0  0  0  0  0  0  0
   35.6161   27.8972   46.1715 H   0  0  0  0  0  0  0  0  0  0  0  0
   36.7219   29.2935   46.0692 H   0  0  0  0  0  0  0  0  0  0  0  0
  1 16  1  0
  2  7  2  0
  2  3  1  0
  3  4  2  0
  4  5  1  0
  4  1  1  0
  6  5  2  0
  7  6  1  0
  8  9  1  0
  8  1  1  0
 10 11  1  0
 10  9  1  0
 11 12  1  0
 13  9  1  0
 13 12  1  0
 14 13  1  0
 15 14  2  0
 16 17  1  0
 16 22  1  0
 17 21  1  0
 18 19  2  0
 18 17  1  0
 19 20  1  0
 20 21  2  0
 22 23  1  0
 23 24  1  0
 25 23  2  0
  1 26  1  1
  2 27  1  0
  3 28  1  0
  6 29  1  0
  8 30  1  0
  8 31  1  0
  9 32  1  1
 10 33  1  0
 10 34  1  0
 11 35  1  0
 11 36  1  0
 12 37  1  0
 12 38  1  0
 13 39  1  1
 14 40  1  0
 16 41  1  1
 19 42  1  0
 20 43  1  0
 21 44  1  0
 24 45  1  0
 24 46  1  0
M  ISO  8  26   8  27  14  28  14  29  14  30   8  31   8  32  13  33  13
M  ISO  8  34  13  35  13  36  13  37  13  38  13  39  13  40   6  41   8
M  ISO  3  42  14  43  14  44  14
M  END
>  <minimizedAffinity>  (1) 
-4.85500383

>  <minimizedRMSD>  (1) 
0.752118289

$$$$
