
     RDKit          3D

 45 47  0  0  1  0  0  0  0  0999 V2000
   37.8620   28.2750   41.3740 C   0  0  1  0  0  0  0  0  0  0  0  0
   38.5700   30.9410   38.8100 C   0  0  0  0  0  0  0  0  0  0  0  0
   38.5910   29.7000   39.4620 C   0  0  0  0  0  0  0  0  0  0  0  0
   37.8220   29.5450   40.6110 C   0  0  0  0  0  0  0  0  0  0  0  0
   37.0930   30.6190   41.0280 N   0  0  0  0  0  0  0  0  0  0  0  0
   37.0930   31.7890   40.3870 C   0  0  0  0  0  0  0  0  0  0  0  0
   37.8320   31.9500   39.2780 N   0  0  0  0  0  0  0  0  0  0  0  0
   38.4780   27.2030   40.5640 C   0  0  0  0  0  0  0  0  0  0  0  0
   38.3500   25.8800   41.1840 C   0  0  2  0  0  0  0  0  0  0  0  0
   39.2960   24.8760   40.5860 C   0  0  0  0  0  0  0  0  0  0  0  0
   38.5620   23.5430   40.7010 C   0  0  0  0  0  0  0  0  0  0  0  0
   37.1820   23.8730   41.2760 C   0  0  0  0  0  0  0  0  0  0  0  0
   37.0000   25.3140   40.8780 C   0  0  2  0  0  0  0  0  0  0  0  0
   36.6410   25.3360   39.4330 C   0  0  0  0  0  0  0  0  0  0  0  0
   35.7460   24.8510   38.7250 O   0  0  0  0  0  0  0  0  0  0  0  0
   38.5110   28.4150   42.7490 C   0  0  1  0  0  0  0  0  0  0  0  0
   39.7450   28.9110   42.7650 N   0  0  0  0  0  0  0  0  0  0  0  0
   40.8990   28.2010   42.9010 C   0  0  0  0  0  0  0  0  0  0  0  0
   41.9910   28.9840   42.8790 N   0  0  0  0  0  0  0  0  0  0  0  0
   41.5060   30.2370   42.7220 C   0  0  0  0  0  0  0  0  0  0  0  0
   40.1440   30.1660   42.6550 N   0  0  0  0  0  0  0  0  0  0  0  0
   37.5650   28.8190   43.6980 O   0  0  0  0  0  0  0  0  0  0  0  0
   36.6760   28.0710   44.3290 C   0  0  0  0  0  0  0  0  0  0  0  0
   36.3150   28.4590   45.6340 N   0  0  0  0  0  0  0  0  0  0  0  0
   36.2000   27.0750   43.7430 O   0  0  0  0  0  0  0  0  0  0  0  0
   36.8202   27.9895   41.5815 H   0  0  0  0  0  0  0  0  0  0  0  0
   39.1704   31.0853   37.8996 H   0  0  0  0  0  0  0  0  0  0  0  0
   39.2001   28.8699   39.0749 H   0  0  0  0  0  0  0  0  0  0  0  0
   36.4861   32.6236   40.7681 H   0  0  0  0  0  0  0  0  0  0  0  0
   39.5467   27.4293   40.4353 H   0  0  0  0  0  0  0  0  0  0  0  0
   37.9498   27.1703   39.5996 H   0  0  0  0  0  0  0  0  0  0  0  0
   38.5448   26.0308   42.2561 H   0  0  0  0  0  0  0  0  0  0  0  0
   40.2410   24.8492   41.1484 H   0  0  0  0  0  0  0  0  0  0  0  0
   39.5612   25.1189   39.5465 H   0  0  0  0  0  0  0  0  0  0  0  0
   38.4620   23.0744   39.7108 H   0  0  0  0  0  0  0  0  0  0  0  0
   39.1080   22.8349   41.3417 H   0  0  0  0  0  0  0  0  0  0  0  0
   36.4032   23.2362   40.8311 H   0  0  0  0  0  0  0  0  0  0  0  0
   37.1067   23.7044   42.3604 H   0  0  0  0  0  0  0  0  0  0  0  0
   36.2081   25.8844   41.3855 H   0  0  0  0  0  0  0  0  0  0  0  0
   37.3505   25.9351   38.8435 H   0  0  0  0  0  0  0  0  0  0  0  0
   38.8126   27.4226   43.1154 H   0  0  0  0  0  0  0  0  0  0  0  0
   40.9335   27.1076   43.0161 H   0  0  0  0  0  0  0  0  0  0  0  0
   42.1065   31.1565   42.6590 H   0  0  0  0  0  0  0  0  0  0  0  0
   35.6260   27.9061   46.1636 H   0  0  0  0  0  0  0  0  0  0  0  0
   36.7400   29.2956   46.0587 H   0  0  0  0  0  0  0  0  0  0  0  0
  1 16  1  0
  2  7  2  0
  2  3  1  0
  3  4  2  0
  4  5  1  0
  4  1  1  0
  6  5  2  0
  7  6  1  0
  8  9  1  0
  8  1  1  0
 10 11  1  0
 10  9  1  0
 11 12  1  0
 13  9  1  0
 13 12  1  0
 14 13  1  0
 15 14  2  0
 16 17  1  0
 16 22  1  0
 17 18  1  0
 19 18  2  0
 20 19  1  0
 21 20  2  0
 21 17  1  0
 22 23  1  0
 23 24  1  0
 25 23  2  0
  1 26  1  1
  2 27  1  0
  3 28  1  0
  6 29  1  0
  8 30  1  0
  8 31  1  0
  9 32  1  1
 10 33  1  0
 10 34  1  0
 11 35  1  0
 11 36  1  0
 12 37  1  0
 12 38  1  0
 13 39  1  1
 14 40  1  0
 16 41  1  1
 18 42  1  0
 20 43  1  0
 24 44  1  0
 24 45  1  0
M  ISO  8  26   8  27  14  28  14  29  14  30   8  31   8  32  13  33  13
M  ISO  8  34  13  35  13  36  13  37  13  38  13  39  13  40   6  41   8
M  ISO  2  42  14  43  14
M  END
>  <minimizedAffinity>  (1) 
-4.80429554

>  <minimizedRMSD>  (1) 
0.730477452

$$$$
