
     RDKit          3D

 26 28  0  0  0  0  0  0  0  0999 V2000
   38.5480   29.7720   42.1440 C   0  0  0  0  0  0  0  0  0  0  0  0
   37.7520   29.1660   43.0530 N   0  0  0  0  0  0  0  0  0  0  0  0
   38.3810   28.1050   43.5060 O   0  0  0  0  0  0  0  0  0  0  0  0
   39.5500   27.9930   42.9310 C   0  0  0  0  0  0  0  0  0  0  0  0
   39.6720   29.0380   42.0680 N   0  0  0  0  0  0  0  0  0  0  0  0
   40.6120   27.0600   43.0410 N   0  0  0  0  0  0  0  0  0  0  0  0
   41.4410   27.3290   44.0670 C   0  0  0  0  0  0  0  0  0  0  0  0
   42.5350   26.5190   44.3220 C   0  0  0  0  0  0  0  0  0  0  0  0
   42.6860   25.4420   43.4430 C   0  0  0  0  0  0  0  0  0  0  0  0
   43.8090   24.5930   43.6890 N   0  0  0  0  0  0  0  0  0  0  0  0
   41.8670   25.1750   42.4290 N   0  0  0  0  0  0  0  0  0  0  0  0
   40.8050   26.0080   42.2260 C   0  0  0  0  0  0  0  0  0  0  0  0
   39.9350   25.9020   41.3140 O   0  0  0  0  0  0  0  0  0  0  0  0
   39.1410   32.0930   41.3050 C   0  0  0  0  0  0  0  0  0  0  0  0
   38.2860   30.9840   41.3710 C   0  0  0  0  0  0  0  0  0  0  0  0
   37.0870   31.0230   40.6480 C   0  0  0  0  0  0  0  0  0  0  0  0
   36.8140   32.1520   39.9090 N   0  0  0  0  0  0  0  0  0  0  0  0
   37.6600   33.2000   39.8700 C   0  0  0  0  0  0  0  0  0  0  0  0
   38.8120   33.1570   40.5660 N   0  0  0  0  0  0  0  0  0  0  0  0
   41.2475   28.2009   44.7092 H   0  0  0  0  0  0  0  0  0  0  0  0
   43.2315   26.7083   45.1521 H   0  0  0  0  0  0  0  0  0  0  0  0
   43.9828   23.7798   43.0812 H   0  0  0  0  0  0  0  0  0  0  0  0
   44.4446   24.7943   44.4741 H   0  0  0  0  0  0  0  0  0  0  0  0
   40.0880   32.0875   41.8646 H   0  0  0  0  0  0  0  0  0  0  0  0
   36.3845   30.1768   40.6700 H   0  0  0  0  0  0  0  0  0  0  0  0
   37.4103   34.0883   39.2712 H   0  0  0  0  0  0  0  0  0  0  0  0
  1  2  2  0
  2  3  1  0
  4  6  1  0
  4  3  1  0
  5  1  1  0
  5  4  2  0
  6  7  1  0
  7  8  2  0
  9 10  1  0
  9  8  1  0
 11  9  2  0
 12 11  1  0
 12  6  1  0
 13 12  2  0
 14 15  2  0
 15  1  1  0
 16 15  1  0
 17 16  2  0
 18 17  1  0
 18 19  2  0
 19 14  1  0
  7 20  1  0
  8 21  1  0
 10 22  1  0
 10 23  1  0
 14 24  1  0
 16 25  1  0
 18 26  1  0
M  ISO  5  20  14  21  14  24  14  25  14  26  14
M  END
>  <minimizedAffinity>  (1) 
-5.48699808

>  <minimizedRMSD>  (1) 
2.99680471

$$$$
