
     RDKit          3D

 22 23  0  0  0  0  0  0  0  0999 V2000
   38.6320   27.4340   42.6680 C   0  0  0  0  0  0  0  0  0  0  0  0
   38.5730   26.0760   42.6260 N   0  0  0  0  0  0  0  0  0  0  0  0
   39.5800   25.6170   43.3300 O   0  0  0  0  0  0  0  0  0  0  0  0
   40.2890   26.5870   43.8260 C   0  0  0  0  0  0  0  0  0  0  0  0
   39.7000   27.7380   43.4150 N   0  0  0  0  0  0  0  0  0  0  0  0
   41.4540   26.5310   44.6400 N   0  0  0  0  0  0  0  0  0  0  0  0
   42.6220   25.8860   44.1590 C   0  0  0  0  0  0  0  0  0  0  0  0
   42.5340   24.8520   43.4030 N   0  0  0  0  0  0  0  0  0  0  0  0
   43.9110   26.3560   44.4940 N   0  0  0  0  0  0  0  0  0  0  0  0
   41.6380   24.4470   43.1130 H   0  0  0  0  0  0  0  0  0  0  0  0
   38.0040   29.7920   41.9410 C   0  0  0  0  0  0  0  0  0  0  0  0
   37.7420   28.4110   42.0470 C   0  0  0  0  0  0  0  0  0  0  0  0
   36.5400   27.9090   41.5230 C   0  0  0  0  0  0  0  0  0  0  0  0
   35.6720   28.7870   40.9310 N   0  0  0  0  0  0  0  0  0  0  0  0
   35.9670   30.1190   40.8490 C   0  0  0  0  0  0  0  0  0  0  0  0
   37.1360   30.6080   41.3580 N   0  0  0  0  0  0  0  0  0  0  0  0
   41.4495   26.9582   45.5772 H   0  0  0  0  0  0  0  0  0  0  0  0
   44.7455   25.8719   44.1333 H   0  0  0  0  0  0  0  0  0  0  0  0
   44.0165   27.1829   45.0990 H   0  0  0  0  0  0  0  0  0  0  0  0
   38.9417   30.1987   42.3476 H   0  0  0  0  0  0  0  0  0  0  0  0
   36.3016   26.8370   41.5865 H   0  0  0  0  0  0  0  0  0  0  0  0
   35.2546   30.8050   40.3675 H   0  0  0  0  0  0  0  0  0  0  0  0
  1  5  1  0
  2  1  2  0
  2  3  1  0
  3  4  1  0
  4  6  1  0
  5  4  2  0
  7  9  1  0
  7  6  1  0
  8  7  2  0
 10  8  1  0
 11 12  2  0
 12  1  1  0
 13 12  1  0
 14 13  2  0
 15 14  1  0
 15 16  2  0
 16 11  1  0
  6 17  1  0
  9 18  1  0
  9 19  1  0
 11 20  1  0
 13 21  1  0
 15 22  1  0
M  ISO  3  20  14  21  14  22  14
M  END
>  <minimizedAffinity>  (1) 
-4.93394136

>  <minimizedRMSD>  (1) 
0.183292523

$$$$
