
     RDKit          3D

 24 26  0  0  0  0  0  0  0  0999 V2000
   38.8300   32.3250   40.0240 C   0  0  0  0  0  0  0  0  0  0  0  0
   37.5190   32.6770   40.1400 N   0  0  0  0  0  0  0  0  0  0  0  0
   36.8990   31.7060   40.7890 O   0  0  0  0  0  0  0  0  0  0  0  0
   37.7410   30.7550   41.0930 C   0  0  0  0  0  0  0  0  0  0  0  0
   38.9560   31.1310   40.6180 N   0  0  0  0  0  0  0  0  0  0  0  0
   40.3560   34.3410   39.8390 C   0  0  0  0  0  0  0  0  0  0  0  0
   39.9080   33.0800   39.3820 C   0  0  0  0  0  0  0  0  0  0  0  0
   40.5070   32.5120   38.2680 C   0  0  0  0  0  0  0  0  0  0  0  0
   41.5260   33.2180   37.6570 N   0  0  0  0  0  0  0  0  0  0  0  0
   41.9290   34.4180   38.1170 C   0  0  0  0  0  0  0  0  0  0  0  0
   41.3470   34.9750   39.2030 N   0  0  0  0  0  0  0  0  0  0  0  0
   37.4450   29.5170   41.8070 C   0  0  0  0  0  0  0  0  0  0  0  0
   36.7860   28.5140   41.1230 C   0  0  0  0  0  0  0  0  0  0  0  0
   36.4810   27.3150   41.7590 C   0  0  0  0  0  0  0  0  0  0  0  0
   36.9000   27.2630   43.0870 C   0  0  0  0  0  0  0  0  0  0  0  0
   37.5590   28.2510   43.7910 C   0  0  0  0  0  0  0  0  0  0  0  0
   37.8160   29.3860   43.0940 N   0  0  0  0  0  0  0  0  0  0  0  0
   39.8876   34.8022   40.7210 H   0  0  0  0  0  0  0  0  0  0  0  0
   40.1825   31.5336   37.8839 H   0  0  0  0  0  0  0  0  0  0  0  0
   42.7419   34.9517   37.6027 H   0  0  0  0  0  0  0  0  0  0  0  0
   36.5012   28.6640   40.0711 H   0  0  0  0  0  0  0  0  0  0  0  0
   35.9581   26.4856   41.2603 H   0  0  0  0  0  0  0  0  0  0  0  0
   36.6820   26.3338   43.6338 H   0  0  0  0  0  0  0  0  0  0  0  0
   37.8549   28.1266   44.8431 H   0  0  0  0  0  0  0  0  0  0  0  0
  1  2  2  0
  1  5  1  0
  2  3  1  0
  3  4  1  0
  4 12  1  0
  5  4  2  0
  7  6  2  0
  7  1  1  0
  8  7  1  0
  9 10  1  0
  9  8  2  0
 10 11  2  0
 11  6  1  0
 12 17  2  0
 13 14  2  0
 13 12  1  0
 14 15  1  0
 15 16  2  0
 17 16  1  0
  6 18  1  0
  8 19  1  0
 10 20  1  0
 13 21  1  0
 14 22  1  0
 15 23  1  0
 16 24  1  0
M  ISO  7  18  14  19  14  20  14  21  14  22  14  23  14  24  14
M  END
>  <minimizedAffinity>  (1) 
-4.9219451

>  <minimizedRMSD>  (1) 
6.56241274

$$$$
