
     RDKit          3D

 28 31  0  0  0  0  0  0  0  0999 V2000
   38.7480   28.0010   42.9700 C   0  0  0  0  0  0  0  0  0  0  0  0
   38.4700   27.0080   43.8680 N   0  0  0  0  0  0  0  0  0  0  0  0
   39.6180   26.5560   44.3360 O   0  0  0  0  0  0  0  0  0  0  0  0
   40.6170   27.2020   43.7880 C   0  0  0  0  0  0  0  0  0  0  0  0
   40.1000   28.1150   42.9280 N   0  0  0  0  0  0  0  0  0  0  0  0
   41.9740   26.9210   44.1090 N   0  0  0  0  0  0  0  0  0  0  0  0
   42.4990   27.0850   45.3520 C   0  0  0  0  0  0  0  0  0  0  0  0
   43.8040   26.7310   45.3180 N   0  0  0  0  0  0  0  0  0  0  0  0
   44.1290   26.3390   44.0620 C   0  0  0  0  0  0  0  0  0  0  0  0
   45.2570   25.8840   43.4160 C   0  0  0  0  0  0  0  0  0  0  0  0
   45.2640   25.5630   42.1100 N   0  0  0  0  0  0  0  0  0  0  0  0
   44.1050   25.6980   41.4040 C   0  0  0  0  0  0  0  0  0  0  0  0
   42.9930   26.1440   42.0230 N   0  0  0  0  0  0  0  0  0  0  0  0
   42.9570   26.4670   43.3130 C   0  0  0  0  0  0  0  0  0  0  0  0
   38.0300   30.1380   41.8000 C   0  0  0  0  0  0  0  0  0  0  0  0
   37.8250   28.8070   42.1890 C   0  0  0  0  0  0  0  0  0  0  0  0
   36.6390   28.1950   41.7990 C   0  0  0  0  0  0  0  0  0  0  0  0
   35.7300   28.9030   41.0610 N   0  0  0  0  0  0  0  0  0  0  0  0
   35.9770   30.1970   40.7080 C   0  0  0  0  0  0  0  0  0  0  0  0
   37.1270   30.7970   41.0840 N   0  0  0  0  0  0  0  0  0  0  0  0
   46.3950   25.7890   44.2670 N   0  0  0  0  0  0  0  0  0  0  0  0
   41.9540   27.4452   46.2370 H   0  0  0  0  0  0  0  0  0  0  0  0
   44.0773   25.4441   40.3341 H   0  0  0  0  0  0  0  0  0  0  0  0
   38.9593   30.6475   42.0944 H   0  0  0  0  0  0  0  0  0  0  0  0
   36.4335   27.1518   42.0810 H   0  0  0  0  0  0  0  0  0  0  0  0
   35.2368   30.7540   40.1148 H   0  0  0  0  0  0  0  0  0  0  0  0
   47.2946   25.4594   43.8890 H   0  0  0  0  0  0  0  0  0  0  0  0
   46.3184   26.0499   45.2604 H   0  0  0  0  0  0  0  0  0  0  0  0
  1  2  2  0
  2  3  1  0
  4  6  1  0
  4  3  1  0
  5  1  1  0
  5  4  2  0
  6  7  1  0
  8  7  2  0
  9  8  1  0
 10  9  2  0
 10 21  1  0
 11 10  1  0
 12 13  1  0
 12 11  2  0
 13 14  2  0
 14  9  1  0
 14  6  1  0
 15 16  2  0
 16  1  1  0
 17 16  1  0
 18 17  2  0
 19 18  1  0
 19 20  2  0
 20 15  1  0
  7 22  1  0
 12 23  1  0
 15 24  1  0
 17 25  1  0
 19 26  1  0
 21 27  1  0
 21 28  1  0
M  ISO  5  22  14  23  14  24  14  25  14  26  14
M  END
>  <minimizedAffinity>  (1) 
-4.88113165

>  <minimizedRMSD>  (1) 
1.6020956

$$$$
