
     RDKit          3D

 22 24  0  0  0  0  0  0  0  0999 V2000
   37.7920   30.2570   41.3960 C   0  0  0  0  0  0  0  0  0  0  0  0
   36.5830   29.6560   41.5460 N   0  0  0  0  0  0  0  0  0  0  0  0
   36.7920   28.4290   41.9940 O   0  0  0  0  0  0  0  0  0  0  0  0
   38.0640   28.2150   42.1390 C   0  0  0  0  0  0  0  0  0  0  0  0
   38.7210   29.3410   41.7710 N   0  0  0  0  0  0  0  0  0  0  0  0
   39.2690   32.3100   41.2080 C   0  0  0  0  0  0  0  0  0  0  0  0
   38.0850   31.6090   40.9290 C   0  0  0  0  0  0  0  0  0  0  0  0
   37.1070   32.2290   40.1540 C   0  0  0  0  0  0  0  0  0  0  0  0
   37.3350   33.4980   39.6910 N   0  0  0  0  0  0  0  0  0  0  0  0
   38.4920   34.1430   39.9820 C   0  0  0  0  0  0  0  0  0  0  0  0
   39.4590   33.5470   40.7420 N   0  0  0  0  0  0  0  0  0  0  0  0
   38.7050   27.0190   42.5990 C   0  0  0  0  0  0  0  0  0  0  0  0
   39.6940   26.8470   43.5970 C   0  0  0  0  0  0  0  0  0  0  0  0
   40.1200   25.5780   43.8210 C   0  0  0  0  0  0  0  0  0  0  0  0
   39.5840   24.5090   43.0780 C   0  0  0  0  0  0  0  0  0  0  0  0
   38.3610   25.4150   41.9630 S   0  0  0  0  0  0  0  0  0  0  0  0
   40.0505   31.8340   41.8185 H   0  0  0  0  0  0  0  0  0  0  0  0
   36.1674   31.7081   39.9179 H   0  0  0  0  0  0  0  0  0  0  0  0
   38.6547   35.1618   39.6004 H   0  0  0  0  0  0  0  0  0  0  0  0
   40.0973   27.6996   44.1630 H   0  0  0  0  0  0  0  0  0  0  0  0
   40.8866   25.3841   44.5856 H   0  0  0  0  0  0  0  0  0  0  0  0
   39.8158   23.4351   43.1328 H   0  0  0  0  0  0  0  0  0  0  0  0
  1  2  2  0
  1  5  1  0
  2  3  1  0
  3  4  1  0
  4 12  1  0
  5  4  2  0
  7  6  2  0
  7  1  1  0
  8  7  1  0
  9 10  1  0
  9  8  2  0
 10 11  2  0
 11  6  1  0
 12 13  2  0
 13 14  1  0
 15 14  2  0
 16 12  1  0
 16 15  1  0
  6 17  1  0
  8 18  1  0
 10 19  1  0
 13 20  1  0
 14 21  1  0
 15 22  1  0
M  ISO  6  17  14  18  14  19  14  20  14  21  14  22  14
M  END
>  <minimizedAffinity>  (1) 
-4.58420515

>  <minimizedRMSD>  (1) 
4.0306201

$$$$
