
     RDKit          3D

 22 24  0  0  0  0  0  0  0  0999 V2000
   38.9970   31.5370   40.0420 C   0  0  0  0  0  0  0  0  0  0  0  0
   38.3860   30.7220   39.1330 N   0  0  0  0  0  0  0  0  0  0  0  0
   37.8200   29.7350   39.7920 O   0  0  0  0  0  0  0  0  0  0  0  0
   38.0260   29.8600   41.0740 C   0  0  0  0  0  0  0  0  0  0  0  0
   38.7660   30.9920   41.2420 N   0  0  0  0  0  0  0  0  0  0  0  0
   37.5800   29.0020   42.1250 N   0  0  0  0  0  0  0  0  0  0  0  0
   36.6120   28.0640   41.9990 C   0  0  0  0  0  0  0  0  0  0  0  0
   36.4640   27.4490   43.2080 C   0  0  0  0  0  0  0  0  0  0  0  0
   37.3590   28.0370   44.0460 N   0  0  0  0  0  0  0  0  0  0  0  0
   38.0330   28.9790   43.3820 C   0  0  0  0  0  0  0  0  0  0  0  0
   39.6190   33.9370   40.5110 C   0  0  0  0  0  0  0  0  0  0  0  0
   39.7480   32.7510   39.7890 C   0  0  0  0  0  0  0  0  0  0  0  0
   40.6720   32.7280   38.7390 C   0  0  0  0  0  0  0  0  0  0  0  0
   41.3930   33.8610   38.4800 N   0  0  0  0  0  0  0  0  0  0  0  0
   41.2350   34.9840   39.2060 C   0  0  0  0  0  0  0  0  0  0  0  0
   40.3390   35.0170   40.2300 N   0  0  0  0  0  0  0  0  0  0  0  0
   36.0451   27.8377   41.0839 H   0  0  0  0  0  0  0  0  0  0  0  0
   35.7613   26.6396   43.4553 H   0  0  0  0  0  0  0  0  0  0  0  0
   38.8225   29.6230   43.7967 H   0  0  0  0  0  0  0  0  0  0  0  0
   38.8975   33.9794   41.3402 H   0  0  0  0  0  0  0  0  0  0  0  0
   40.8154   31.8196   38.1355 H   0  0  0  0  0  0  0  0  0  0  0  0
   41.8319   35.8775   38.9708 H   0  0  0  0  0  0  0  0  0  0  0  0
  1  5  1  0
  2  3  1  0
  2  1  2  0
  3  4  1  0
  4  5  2  0
  4  6  1  0
  6 10  1  0
  7  6  1  0
  7  8  2  0
  8  9  1  0
 10  9  2  0
 12  1  1  0
 12 11  2  0
 13 12  1  0
 14 13  2  0
 14 15  1  0
 15 16  2  0
 16 11  1  0
  7 17  1  0
  8 18  1  0
 10 19  1  0
 11 20  1  0
 13 21  1  0
 15 22  1  0
M  ISO  6  17  14  18  14  19  14  20  14  21  14  22  14
M  END
>  <minimizedAffinity>  (1) 
-4.49072838

>  <minimizedRMSD>  (1) 
5.92025709

$$$$
