
     RDKit          3D

 45 47  0  0  1  0  0  0  0  0999 V2000
   39.2140   26.0290   42.2680 C   0  0  1  0  0  0  0  0  0  0  0  0
   39.0100   24.6480   41.5700 C   0  0  0  0  0  0  0  0  0  0  0  0
   37.6550   24.2090   41.9090 C   0  0  0  0  0  0  0  0  0  0  0  0
   36.9320   25.5270   42.2950 C   0  0  0  0  0  0  0  0  0  0  0  0
   37.9650   26.2040   42.9940 C   0  0  2  0  0  0  0  0  0  0  0  0
   41.9050   26.9500   44.6910 C   0  0  0  0  0  0  0  0  0  0  0  0
   40.6710   26.9340   44.0450 C   0  0  0  0  0  0  0  0  0  0  0  0
   40.4580   26.0780   42.9660 C   0  0  0  0  0  0  0  0  0  0  0  0
   41.4790   25.2670   42.5690 N   0  0  0  0  0  0  0  0  0  0  0  0
   42.6720   25.2810   43.1960 C   0  0  0  0  0  0  0  0  0  0  0  0
   42.8910   26.1090   44.2440 N   0  0  0  0  0  0  0  0  0  0  0  0
   37.5050   27.6240   43.1460 C   0  0  2  0  0  0  0  0  0  0  0  0
   36.6690   27.9370   44.3280 C   0  0  0  0  0  0  0  0  0  0  0  0
   36.8770   27.9480   41.9150 C   0  0  0  0  0  0  0  0  0  0  0  0
   36.9930   29.2990   41.5780 N   0  0  0  0  0  0  0  0  0  0  0  0
   36.0430   30.1270   41.0690 C   0  0  0  0  0  0  0  0  0  0  0  0
   36.6280   31.2860   40.6800 C   0  0  0  0  0  0  0  0  0  0  0  0
   37.9280   31.1060   40.9800 N   0  0  0  0  0  0  0  0  0  0  0  0
   38.1870   29.9180   41.5300 C   0  0  0  0  0  0  0  0  0  0  0  0
   39.5820   29.7500   41.8890 C   0  0  0  0  0  0  0  0  0  0  0  0
   40.1850   30.9050   42.7400 C   0  0  0  0  0  0  0  0  0  0  0  0
   39.3550   26.9057   41.6188 H   0  0  0  0  0  0  0  0  0  0  0  0
   39.7488   23.9219   41.9401 H   0  0  0  0  0  0  0  0  0  0  0  0
   39.1421   24.7285   40.4809 H   0  0  0  0  0  0  0  0  0  0  0  0
   37.1686   23.7324   41.0451 H   0  0  0  0  0  0  0  0  0  0  0  0
   37.6367   23.4592   42.7137 H   0  0  0  0  0  0  0  0  0  0  0  0
   36.6109   26.0879   41.4049 H   0  0  0  0  0  0  0  0  0  0  0  0
   36.0077   25.3858   42.8744 H   0  0  0  0  0  0  0  0  0  0  0  0
   38.1644   25.8090   44.0011 H   0  0  0  0  0  0  0  0  0  0  0  0
   42.0846   27.6234   45.5421 H   0  0  0  0  0  0  0  0  0  0  0  0
   39.8634   27.5980   44.3870 H   0  0  0  0  0  0  0  0  0  0  0  0
   43.4756   24.6129   42.8526 H   0  0  0  0  0  0  0  0  0  0  0  0
   38.3792   28.2568   43.3590 H   0  0  0  0  0  0  0  0  0  0  0  0
   37.2371   27.7243   45.2456 H   0  0  0  0  0  0  0  0  0  0  0  0
   36.3894   29.0007   44.3081 H   0  0  0  0  0  0  0  0  0  0  0  0
   35.7596   27.3184   44.3081 H   0  0  0  0  0  0  0  0  0  0  0  0
   37.3394   27.3476   41.1177 H   0  0  0  0  0  0  0  0  0  0  0  0
   35.8048   27.7294   42.0269 H   0  0  0  0  0  0  0  0  0  0  0  0
   34.9712   29.8939   40.9861 H   0  0  0  0  0  0  0  0  0  0  0  0
   36.1520   32.1674   40.2255 H   0  0  0  0  0  0  0  0  0  0  0  0
   39.6766   28.8170   42.4640 H   0  0  0  0  0  0  0  0  0  0  0  0
   40.1439   29.7387   40.9434 H   0  0  0  0  0  0  0  0  0  0  0  0
   40.0646   30.6744   43.8088 H   0  0  0  0  0  0  0  0  0  0  0  0
   41.2545   31.0128   42.5064 H   0  0  0  0  0  0  0  0  0  0  0  0
   39.6621   31.8442   42.5064 H   0  0  0  0  0  0  0  0  0  0  0  0
  1  8  1  0
  1  5  1  0
  2  3  1  0
  2  1  1  0
  3  4  1  0
  4  5  1  0
  5 12  1  0
  7  6  2  0
  8  7  1  0
  9  8  2  0
  9 10  1  0
 10 11  2  0
 11  6  1  0
 12 13  1  0
 14 12  1  0
 15 14  1  0
 16 15  1  0
 17 18  1  0
 17 16  2  0
 18 19  2  0
 19 15  1  0
 19 20  1  0
 20 21  1  0
  1 22  1  6
  2 23  1  0
  2 24  1  0
  3 25  1  0
  3 26  1  0
  4 27  1  0
  4 28  1  0
  5 29  1  1
  6 30  1  0
  7 31  1  0
 10 32  1  0
 12 33  1  1
 13 34  1  0
 13 35  1  0
 13 36  1  0
 14 37  1  0
 14 38  1  0
 16 39  1  0
 17 40  1  0
 20 41  1  0
 20 42  1  0
 21 43  1  0
 21 44  1  0
 21 45  1  0
M  ISO  8  22  13  23  13  24  13  25  13  26  13  27  13  28  13  29  13
M  ISO  8  30  14  31  14  32  14  33   8  34   8  35   8  36   8  37   8
M  ISO  8  38   8  39  14  40  14  41   8  42   8  43   8  44   8  45   8
M  END
>  <minimizedAffinity>  (1) 
-5.39573336

>  <minimizedRMSD>  (1) 
0.160356134

$$$$
