
     RDKit          3D

 39 43  0  0  0  0  0  0  0  0999 V2000
   40.4010   31.3940   40.5960 C   0  0  0  0  0  0  0  0  0  0  0  0
   40.3720   32.7650   40.8260 C   0  0  0  0  0  0  0  0  0  0  0  0
   39.1390   33.4480   40.7720 C   0  0  0  0  0  0  0  0  0  0  0  0
   38.0230   32.7050   40.4910 N   0  0  0  0  0  0  0  0  0  0  0  0
   38.0980   31.3810   40.2760 C   0  0  0  0  0  0  0  0  0  0  0  0
   39.2710   30.7370   40.3280 N   0  0  0  0  0  0  0  0  0  0  0  0
   41.5220   33.6240   41.1300 C   0  0  0  0  0  0  0  0  0  0  0  0
   41.7820   34.9020   40.8010 N   0  0  0  0  0  0  0  0  0  0  0  0
   42.9430   35.2380   41.3050 O   0  0  0  0  0  0  0  0  0  0  0  0
   43.4640   34.2350   41.9560 C   0  0  0  0  0  0  0  0  0  0  0  0
   42.5860   33.2160   41.8560 N   0  0  0  0  0  0  0  0  0  0  0  0
   44.6770   34.0650   42.6740 N   0  0  0  0  0  0  0  0  0  0  0  0
   44.6540   33.1050   43.6220 C   0  0  0  0  0  0  0  0  0  0  0  0
   45.7740   32.8480   44.3830 C   0  0  0  0  0  0  0  0  0  0  0  0
   46.8810   33.6510   44.0850 C   0  0  0  0  0  0  0  0  0  0  0  0
   47.9460   33.4640   44.7530 O   0  0  0  0  0  0  0  0  0  0  0  0
   46.8810   34.6080   43.1320 N   0  0  0  0  0  0  0  0  0  0  0  0
   45.7580   34.8080   42.4240 C   0  0  0  0  0  0  0  0  0  0  0  0
   45.7220   35.6890   41.5300 O   0  0  0  0  0  0  0  0  0  0  0  0
   36.8820   30.6120   39.9780 C   0  0  0  0  0  0  0  0  0  0  0  0
   35.9120   30.2030   40.8990 C   0  0  0  0  0  0  0  0  0  0  0  0
   34.9800   29.5320   40.2120 N   0  0  0  0  0  0  0  0  0  0  0  0
   35.3070   29.4940   38.9070 C   0  0  0  0  0  0  0  0  0  0  0  0
   34.7000   28.9390   37.7900 C   0  0  0  0  0  0  0  0  0  0  0  0
   35.2360   29.0310   36.5200 C   0  0  0  0  0  0  0  0  0  0  0  0
   36.4440   29.7080   36.3290 C   0  0  0  0  0  0  0  0  0  0  0  0
   37.0320   30.2530   37.4510 C   0  0  0  0  0  0  0  0  0  0  0  0
   36.5080   30.1680   38.7160 C   0  0  0  0  0  0  0  0  0  0  0  0
   41.3565   30.8504   40.6350 H   0  0  0  0  0  0  0  0  0  0  0  0
   39.0763   34.5320   40.9482 H   0  0  0  0  0  0  0  0  0  0  0  0
   43.7352   32.5236   43.7886 H   0  0  0  0  0  0  0  0  0  0  0  0
   45.7962   32.0728   45.1631 H   0  0  0  0  0  0  0  0  0  0  0  0
   47.7240   35.1720   42.9524 H   0  0  0  0  0  0  0  0  0  0  0  0
   35.9147   30.3961   41.9819 H   0  0  0  0  0  0  0  0  0  0  0  0
   34.1361   29.1069   40.6219 H   0  0  0  0  0  0  0  0  0  0  0  0
   33.7493   28.4015   37.9213 H   0  0  0  0  0  0  0  0  0  0  0  0
   34.7158   28.5746   35.6650 H   0  0  0  0  0  0  0  0  0  0  0  0
   36.9026   29.8013   35.3335 H   0  0  0  0  0  0  0  0  0  0  0  0
   37.9830   30.7909   37.3234 H   0  0  0  0  0  0  0  0  0  0  0  0
  1  2  2  0
  2  7  1  0
  3  2  1  0
  4  3  2  0
  5  6  2  0
  5  4  1  0
  6  1  1  0
  7 11  1  0
  8  7  2  0
  8  9  1  0
  9 10  1  0
 10 12  1  0
 11 10  2  0
 12 13  1  0
 13 14  2  0
 15 14  1  0
 15 16  2  0
 17 15  1  0
 18 12  1  0
 18 17  1  0
 19 18  2  0
 20  5  1  0
 20 21  2  0
 22 21  1  0
 23 22  1  0
 24 23  2  0
 25 24  1  0
 26 25  2  0
 26 27  1  0
 27 28  2  0
 28 23  1  0
 28 20  1  0
  1 29  1  0
  3 30  1  0
 13 31  1  0
 14 32  1  0
 17 33  1  0
 21 34  1  0
 22 35  1  0
 24 36  1  0
 25 37  1  0
 26 38  1  0
 27 39  1  0
M  ISO  8  29  14  30  14  31  14  32  14  33   9  34  14  35   9  36  14
M  ISO  3  37  14  38  14  39  14
M  END
>  <minimizedAffinity>  (1) 
-7.04668522

>  <minimizedRMSD>  (1) 
7.04990053

$$$$
