
     RDKit          3D

 38 42  0  0  0  0  0  0  0  0999 V2000
   41.0230   28.8090   41.2660 C   0  0  0  0  0  0  0  0  0  0  0  0
   39.6790   28.4610   41.1680 C   0  0  0  0  0  0  0  0  0  0  0  0
   38.7170   29.4690   40.9400 C   0  0  0  0  0  0  0  0  0  0  0  0
   39.1880   30.7600   40.8290 N   0  0  0  0  0  0  0  0  0  0  0  0
   40.5150   31.0390   40.9340 C   0  0  0  0  0  0  0  0  0  0  0  0
   41.4290   30.0720   41.1510 N   0  0  0  0  0  0  0  0  0  0  0  0
   40.9920   32.3730   40.8170 N   0  0  0  0  0  0  0  0  0  0  0  0
   42.2730   32.8270   40.9490 C   0  0  0  0  0  0  0  0  0  0  0  0
   42.2800   34.1750   40.7580 N   0  0  0  0  0  0  0  0  0  0  0  0
   41.0120   34.5810   40.5080 C   0  0  0  0  0  0  0  0  0  0  0  0
   40.3990   35.7880   40.2430 C   0  0  0  0  0  0  0  0  0  0  0  0
   39.0950   35.9450   40.0220 N   0  0  0  0  0  0  0  0  0  0  0  0
   38.3400   34.8240   40.0660 C   0  0  0  0  0  0  0  0  0  0  0  0
   38.8910   33.6200   40.3200 N   0  0  0  0  0  0  0  0  0  0  0  0
   40.2060   33.4470   40.5460 C   0  0  0  0  0  0  0  0  0  0  0  0
   39.1230   27.1060   41.2780 C   0  0  0  0  0  0  0  0  0  0  0  0
   39.2860   26.1700   42.2240 N   0  0  0  0  0  0  0  0  0  0  0  0
   38.5860   25.1170   41.8860 O   0  0  0  0  0  0  0  0  0  0  0  0
   37.9660   25.3220   40.7540 C   0  0  0  0  0  0  0  0  0  0  0  0
   38.2930   26.5640   40.3590 N   0  0  0  0  0  0  0  0  0  0  0  0
   37.0990   24.5160   39.9700 N   0  0  0  0  0  0  0  0  0  0  0  0
   36.2950   25.1990   39.1250 C   0  0  0  0  0  0  0  0  0  0  0  0
   35.4080   24.5180   38.3110 C   0  0  0  0  0  0  0  0  0  0  0  0
   35.4290   23.1250   38.4470 C   0  0  0  0  0  0  0  0  0  0  0  0
   34.6390   22.4460   37.7300 O   0  0  0  0  0  0  0  0  0  0  0  0
   36.2480   22.4740   39.3050 N   0  0  0  0  0  0  0  0  0  0  0  0
   37.0830   23.1840   40.0650 C   0  0  0  0  0  0  0  0  0  0  0  0
   37.8550   22.6090   40.8690 O   0  0  0  0  0  0  0  0  0  0  0  0
   41.2570   36.9380   40.2110 N   0  0  0  0  0  0  0  0  0  0  0  0
   41.7691   28.0204   41.4430 H   0  0  0  0  0  0  0  0  0  0  0  0
   37.6453   29.2360   40.8552 H   0  0  0  0  0  0  0  0  0  0  0  0
   43.1533   32.2065   41.1726 H   0  0  0  0  0  0  0  0  0  0  0  0
   37.2563   34.8958   39.8913 H   0  0  0  0  0  0  0  0  0  0  0  0
   36.3461   26.2971   39.0847 H   0  0  0  0  0  0  0  0  0  0  0  0
   34.7359   25.0329   37.6088 H   0  0  0  0  0  0  0  0  0  0  0  0
   36.2270   21.4463   39.3702 H   0  0  0  0  0  0  0  0  0  0  0  0
   40.8624   37.8697   40.0185 H   0  0  0  0  0  0  0  0  0  0  0  0
   42.2674   36.8316   40.3806 H   0  0  0  0  0  0  0  0  0  0  0  0
  2  1  2  0
  2 16  1  0
  3  2  1  0
  4  5  1  0
  4  3  2  0
  5  6  2  0
  6  1  1  0
  7  5  1  0
  7  8  1  0
  9  8  2  0
 10 15  2  0
 10  9  1  0
 11 10  1  0
 12 13  1  0
 12 11  2  0
 13 14  2  0
 14 15  1  0
 15  7  1  0
 16 17  2  0
 18 17  1  0
 19 18  1  0
 20 19  2  0
 20 16  1  0
 21 27  1  0
 21 19  1  0
 22 21  1  0
 23 24  1  0
 23 22  2  0
 24 26  1  0
 25 24  2  0
 26 27  1  0
 27 28  2  0
 29 11  1  0
  1 30  1  0
  3 31  1  0
  8 32  1  0
 13 33  1  0
 22 34  1  0
 23 35  1  0
 26 36  1  0
 29 37  1  0
 29 38  1  0
M  ISO  7  30  14  31  14  32  14  33  14  34  14  35  14  36   9
M  END
>  <minimizedAffinity>  (1) 
-6.3871665

>  <minimizedRMSD>  (1) 
6.12952995

$$$$
