
     RDKit          3D

 32 35  0  0  0  0  0  0  0  0999 V2000
   37.7610   30.8630   41.0060 C   0  0  0  0  0  0  0  0  0  0  0  0
   36.5210   30.3610   40.9110 N   0  0  0  0  0  0  0  0  0  0  0  0
   36.5640   29.0870   41.2220 O   0  0  0  0  0  0  0  0  0  0  0  0
   37.7940   28.7350   41.5170 C   0  0  0  0  0  0  0  0  0  0  0  0
   38.5520   29.8380   41.3860 N   0  0  0  0  0  0  0  0  0  0  0  0
   38.3800   27.5040   41.9110 N   0  0  0  0  0  0  0  0  0  0  0  0
   39.7000   27.3810   41.6580 C   0  0  0  0  0  0  0  0  0  0  0  0
   40.3640   26.2300   42.0010 C   0  0  0  0  0  0  0  0  0  0  0  0
   39.5810   25.2400   42.6080 C   0  0  0  0  0  0  0  0  0  0  0  0
   40.1400   24.1560   42.9450 O   0  0  0  0  0  0  0  0  0  0  0  0
   38.2590   25.3880   42.8500 N   0  0  0  0  0  0  0  0  0  0  0  0
   37.6570   26.5330   42.4960 C   0  0  0  0  0  0  0  0  0  0  0  0
   36.4360   26.6970   42.7070 O   0  0  0  0  0  0  0  0  0  0  0  0
   39.4970   32.7300   41.1700 C   0  0  0  0  0  0  0  0  0  0  0  0
   38.2610   32.2210   40.7690 C   0  0  0  0  0  0  0  0  0  0  0  0
   37.3700   33.0610   40.0650 C   0  0  0  0  0  0  0  0  0  0  0  0
   37.7940   34.3490   39.8180 N   0  0  0  0  0  0  0  0  0  0  0  0
   39.0120   34.7870   40.2340 C   0  0  0  0  0  0  0  0  0  0  0  0
   39.8540   33.9870   40.9020 N   0  0  0  0  0  0  0  0  0  0  0  0
   39.4440   36.1810   39.9520 C   0  0  0  0  0  0  0  0  0  0  0  0
   40.5250   36.7900   40.7760 C   0  0  0  0  0  0  0  0  0  0  0  0
   40.8640   36.3140   39.4270 C   0  0  0  0  0  0  0  0  0  0  0  0
   40.2451   28.2056   41.1755 H   0  0  0  0  0  0  0  0  0  0  0  0
   41.4391   26.0941   41.8119 H   0  0  0  0  0  0  0  0  0  0  0  0
   37.7222   24.6326   43.2996 H   0  0  0  0  0  0  0  0  0  0  0  0
   40.1930   32.0795   41.7199 H   0  0  0  0  0  0  0  0  0  0  0  0
   36.3849   32.7043   39.7299 H   0  0  0  0  0  0  0  0  0  0  0  0
   38.4348   36.5063   39.6591 H   0  0  0  0  0  0  0  0  0  0  0  0
   40.5084   37.8699   40.9847 H   0  0  0  0  0  0  0  0  0  0  0  0
   40.9255   36.5945   41.7817 H   0  0  0  0  0  0  0  0  0  0  0  0
   41.4904   35.4187   39.3001 H   0  0  0  0  0  0  0  0  0  0  0  0
   41.3266   36.7627   38.5355 H   0  0  0  0  0  0  0  0  0  0  0  0
  1  5  1  0
  2  1  2  0
  2  3  1  0
  3  4  1  0
  4  6  1  0
  5  4  2  0
  6 12  1  0
  7  6  1  0
  7  8  2  0
  8  9  1  0
  9 11  1  0
  9 10  2  0
 12 13  2  0
 12 11  1  0
 15  1  1  0
 15 14  2  0
 16 15  1  0
 17 16  2  0
 17 18  1  0
 18 19  2  0
 19 14  1  0
 20 18  1  0
 20 21  1  0
 22 20  1  0
 22 21  1  0
  7 23  1  0
  8 24  1  0
 11 25  1  0
 14 26  1  0
 16 27  1  0
 20 28  1  0
 21 29  1  0
 21 30  1  0
 22 31  1  0
 22 32  1  0
M  ISO  8  23  14  24  14  25   9  26  14  27  14  28  13  29  13  30  13
M  ISO  2  31  13  32  13
M  END
>  <minimizedAffinity>  (1) 
-5.65776157

>  <minimizedRMSD>  (1) 
2.73479128

$$$$
