
     RDKit          3D

 35 38  0  0  0  0  0  0  0  0999 V2000
   42.0820   31.6220   41.0970 C   0  0  0  0  0  0  0  0  0  0  0  0
   41.0660   30.6880   41.2200 C   0  0  0  0  0  0  0  0  0  0  0  0
   39.7250   31.1090   41.1120 C   0  0  0  0  0  0  0  0  0  0  0  0
   39.5200   32.4570   40.8840 N   0  0  0  0  0  0  0  0  0  0  0  0
   40.5530   33.3250   40.7720 C   0  0  0  0  0  0  0  0  0  0  0  0
   41.8280   32.9130   40.8780 N   0  0  0  0  0  0  0  0  0  0  0  0
   41.2310   29.2520   41.4600 C   0  0  0  0  0  0  0  0  0  0  0  0
   40.4030   28.2210   41.2050 N   0  0  0  0  0  0  0  0  0  0  0  0
   40.9860   27.1200   41.5940 O   0  0  0  0  0  0  0  0  0  0  0  0
   42.1650   27.3760   42.0970 C   0  0  0  0  0  0  0  0  0  0  0  0
   42.3370   28.7080   42.0220 N   0  0  0  0  0  0  0  0  0  0  0  0
   43.1830   26.5530   42.6510 N   0  0  0  0  0  0  0  0  0  0  0  0
   44.4280   27.0780   42.6050 C   0  0  0  0  0  0  0  0  0  0  0  0
   45.4950   26.3620   43.1170 C   0  0  0  0  0  0  0  0  0  0  0  0
   45.1730   25.1110   43.6550 C   0  0  0  0  0  0  0  0  0  0  0  0
   46.1180   24.4190   44.1350 O   0  0  0  0  0  0  0  0  0  0  0  0
   43.9210   24.6170   43.6850 N   0  0  0  0  0  0  0  0  0  0  0  0
   42.9190   25.3500   43.1750 C   0  0  0  0  0  0  0  0  0  0  0  0
   41.7410   24.9210   43.1860 O   0  0  0  0  0  0  0  0  0  0  0  0
   40.2380   34.7270   40.5330 C   0  0  0  0  0  0  0  0  0  0  0  0
   41.1600   35.7250   40.7540 C   0  0  0  0  0  0  0  0  0  0  0  0
   40.9190   37.0580   40.5460 C   0  0  0  0  0  0  0  0  0  0  0  0
   39.6440   37.3870   40.0800 C   0  0  0  0  0  0  0  0  0  0  0  0
   38.6950   36.4080   39.8490 C   0  0  0  0  0  0  0  0  0  0  0  0
   38.9750   35.0590   40.0710 C   0  0  0  0  0  0  0  0  0  0  0  0
   43.1271   31.2896   41.1823 H   0  0  0  0  0  0  0  0  0  0  0  0
   38.8867   30.4028   41.2042 H   0  0  0  0  0  0  0  0  0  0  0  0
   44.5919   28.0713   42.1618 H   0  0  0  0  0  0  0  0  0  0  0  0
   46.5246   26.7489   43.1023 H   0  0  0  0  0  0  0  0  0  0  0  0
   43.7348   23.6900   44.0934 H   0  0  0  0  0  0  0  0  0  0  0  0
   42.1550   35.4336   41.1215 H   0  0  0  0  0  0  0  0  0  0  0  0
   41.6852   37.8243   40.7351 H   0  0  0  0  0  0  0  0  0  0  0  0
   39.3909   38.4412   39.8939 H   0  0  0  0  0  0  0  0  0  0  0  0
   37.6992   36.6985   39.4828 H   0  0  0  0  0  0  0  0  0  0  0  0
   38.2169   34.2840   39.8850 H   0  0  0  0  0  0  0  0  0  0  0  0
  1  2  2  0
  2  7  1  0
  3  2  1  0
  4  3  2  0
  5  6  2  0
  5  4  1  0
  6  1  1  0
  7 11  1  0
  8  7  2  0
  8  9  1  0
  9 10  1  0
 10 12  1  0
 11 10  2  0
 12 18  1  0
 13 12  1  0
 13 14  2  0
 14 15  1  0
 15 17  1  0
 15 16  2  0
 18 19  2  0
 18 17  1  0
 20 21  2  0
 20  5  1  0
 22 21  1  0
 23 22  2  0
 24 25  2  0
 24 23  1  0
 25 20  1  0
  1 26  1  0
  3 27  1  0
 13 28  1  0
 14 29  1  0
 17 30  1  0
 21 31  1  0
 22 32  1  0
 23 33  1  0
 24 34  1  0
 25 35  1  0
M  ISO  8  26  14  27  14  28  14  29  14  30   9  31  14  32  14  33  14
M  ISO  2  34  14  35  14
M  END
>  <minimizedAffinity>  (1) 
-5.45256567

>  <minimizedRMSD>  (1) 
3.15484476

$$$$
