
     RDKit          3D

 34 37  0  0  0  0  0  0  0  0999 V2000
   41.2440   29.2160   41.3740 C   0  0  0  0  0  0  0  0  0  0  0  0
   40.4240   28.1870   41.1210 N   0  0  0  0  0  0  0  0  0  0  0  0
   41.0020   27.0800   41.5200 O   0  0  0  0  0  0  0  0  0  0  0  0
   42.1750   27.3400   42.0280 C   0  0  0  0  0  0  0  0  0  0  0  0
   42.3510   28.6810   41.9470 N   0  0  0  0  0  0  0  0  0  0  0  0
   43.2080   26.5420   42.5990 N   0  0  0  0  0  0  0  0  0  0  0  0
   44.4390   27.0500   42.5720 C   0  0  0  0  0  0  0  0  0  0  0  0
   45.4880   26.3370   43.1160 C   0  0  0  0  0  0  0  0  0  0  0  0
   45.1550   25.1070   43.6660 C   0  0  0  0  0  0  0  0  0  0  0  0
   46.1050   24.4470   44.1680 O   0  0  0  0  0  0  0  0  0  0  0  0
   43.9010   24.6170   43.6810 N   0  0  0  0  0  0  0  0  0  0  0  0
   42.9100   25.3410   43.1410 C   0  0  0  0  0  0  0  0  0  0  0  0
   41.7320   24.8940   43.1470 O   0  0  0  0  0  0  0  0  0  0  0  0
   42.0880   31.5380   40.7090 C   0  0  0  0  0  0  0  0  0  0  0  0
   41.0930   30.6580   41.1270 C   0  0  0  0  0  0  0  0  0  0  0  0
   39.7830   31.1380   41.3530 C   0  0  0  0  0  0  0  0  0  0  0  0
   39.5760   32.4870   41.1350 N   0  0  0  0  0  0  0  0  0  0  0  0
   40.5890   33.2980   40.7250 C   0  0  0  0  0  0  0  0  0  0  0  0
   41.8350   32.8310   40.5130 N   0  0  0  0  0  0  0  0  0  0  0  0
   40.2820   34.7190   40.5180 C   0  0  0  0  0  0  0  0  0  0  0  0
   39.0210   35.0700   40.0560 C   0  0  0  0  0  0  0  0  0  0  0  0
   38.6910   36.4070   39.8460 C   0  0  0  0  0  0  0  0  0  0  0  0
   39.7180   37.2810   40.1400 C   0  0  0  0  0  0  0  0  0  0  0  0
   40.9730   36.9640   40.5970 C   0  0  0  0  0  0  0  0  0  0  0  0
   41.2200   35.6340   40.7780 N   0  0  0  0  0  0  0  0  0  0  0  0
   44.6191   28.0353   42.1173 H   0  0  0  0  0  0  0  0  0  0  0  0
   46.5198   26.7183   43.1138 H   0  0  0  0  0  0  0  0  0  0  0  0
   43.7054   23.6975   44.1020 H   0  0  0  0  0  0  0  0  0  0  0  0
   43.1054   31.1569   40.5369 H   0  0  0  0  0  0  0  0  0  0  0  0
   38.9716   30.4735   41.6847 H   0  0  0  0  0  0  0  0  0  0  0  0
   38.2763   34.2861   39.8541 H   0  0  0  0  0  0  0  0  0  0  0  0
   37.7065   36.7347   39.4809 H   0  0  0  0  0  0  0  0  0  0  0  0
   39.5074   38.3504   39.9916 H   0  0  0  0  0  0  0  0  0  0  0  0
   41.7315   37.7332   40.8042 H   0  0  0  0  0  0  0  0  0  0  0  0
  1  5  1  0
  2  1  2  0
  2  3  1  0
  3  4  1  0
  4  6  1  0
  5  4  2  0
  6 12  1  0
  7  6  1  0
  7  8  2  0
  8  9  1  0
  9 11  1  0
  9 10  2  0
 12 13  2  0
 12 11  1  0
 14 15  2  0
 15 16  1  0
 15  1  1  0
 17 16  2  0
 18 17  1  0
 19 14  1  0
 19 18  2  0
 20 18  1  0
 20 25  1  0
 21 20  2  0
 22 21  1  0
 22 23  2  0
 23 24  1  0
 24 25  2  0
  7 26  1  0
  8 27  1  0
 11 28  1  0
 14 29  1  0
 16 30  1  0
 21 31  1  0
 22 32  1  0
 23 33  1  0
 24 34  1  0
M  ISO  8  26  14  27  14  28   9  29  14  30  14  31  14  32  14  33  14
M  ISO  1  34  14
M  END
>  <minimizedAffinity>  (1) 
-5.33384514

>  <minimizedRMSD>  (1) 
3.20713496

$$$$
