
     RDKit          3D

 33 36  0  0  0  0  0  0  0  0999 V2000
   41.1430   29.2570   41.4300 C   0  0  0  0  0  0  0  0  0  0  0  0
   40.3020   28.2280   41.2040 N   0  0  0  0  0  0  0  0  0  0  0  0
   40.8860   27.1270   41.5960 O   0  0  0  0  0  0  0  0  0  0  0  0
   42.0770   27.3830   42.0700 C   0  0  0  0  0  0  0  0  0  0  0  0
   42.2530   28.7130   41.9730 N   0  0  0  0  0  0  0  0  0  0  0  0
   43.1030   26.5650   42.6130 N   0  0  0  0  0  0  0  0  0  0  0  0
   44.3520   27.0710   42.5180 C   0  0  0  0  0  0  0  0  0  0  0  0
   45.4220   26.3560   43.0160 C   0  0  0  0  0  0  0  0  0  0  0  0
   45.1010   25.1230   43.5960 C   0  0  0  0  0  0  0  0  0  0  0  0
   46.0470   24.4260   44.0700 O   0  0  0  0  0  0  0  0  0  0  0  0
   43.8400   24.6420   43.6780 N   0  0  0  0  0  0  0  0  0  0  0  0
   42.8340   25.3780   43.1790 C   0  0  0  0  0  0  0  0  0  0  0  0
   41.6570   24.9610   43.2390 O   0  0  0  0  0  0  0  0  0  0  0  0
   41.9920   31.5910   40.8410 C   0  0  0  0  0  0  0  0  0  0  0  0
   40.9880   30.6980   41.1770 C   0  0  0  0  0  0  0  0  0  0  0  0
   39.6590   31.1600   41.3060 C   0  0  0  0  0  0  0  0  0  0  0  0
   39.4380   32.5020   41.0830 N   0  0  0  0  0  0  0  0  0  0  0  0
   40.4500   33.3260   40.7590 C   0  0  0  0  0  0  0  0  0  0  0  0
   41.7180   32.8810   40.6360 N   0  0  0  0  0  0  0  0  0  0  0  0
   40.1610   34.7380   40.5330 C   0  0  0  0  0  0  0  0  0  0  0  0
   38.9390   35.1510   40.0470 C   0  0  0  0  0  0  0  0  0  0  0  0
   38.7490   36.5050   39.8630 C   0  0  0  0  0  0  0  0  0  0  0  0
   39.7290   37.3580   40.1540 N   0  0  0  0  0  0  0  0  0  0  0  0
   40.9200   36.9690   40.6260 C   0  0  0  0  0  0  0  0  0  0  0  0
   41.0990   35.6650   40.8010 N   0  0  0  0  0  0  0  0  0  0  0  0
   44.5156   28.0505   42.0449 H   0  0  0  0  0  0  0  0  0  0  0  0
   46.4554   26.7290   42.9611 H   0  0  0  0  0  0  0  0  0  0  0  0
   43.6546   23.7280   44.1151 H   0  0  0  0  0  0  0  0  0  0  0  0
   43.0273   31.2328   40.7420 H   0  0  0  0  0  0  0  0  0  0  0  0
   38.8373   30.4790   41.5725 H   0  0  0  0  0  0  0  0  0  0  0  0
   38.1441   34.4272   39.8143 H   0  0  0  0  0  0  0  0  0  0  0  0
   37.7895   36.8792   39.4765 H   0  0  0  0  0  0  0  0  0  0  0  0
   41.7128   37.6954   40.8579 H   0  0  0  0  0  0  0  0  0  0  0  0
  1  5  1  0
  2  1  2  0
  2  3  1  0
  3  4  1  0
  4  6  1  0
  5  4  2  0
  6 12  1  0
  7  6  1  0
  7  8  2  0
  8  9  1  0
  9 11  1  0
  9 10  2  0
 12 13  2  0
 12 11  1  0
 14 15  2  0
 15 16  1  0
 15  1  1  0
 17 16  2  0
 18 17  1  0
 19 18  2  0
 19 14  1  0
 20 18  1  0
 20 25  1  0
 21 20  2  0
 22 21  1  0
 22 23  2  0
 23 24  1  0
 24 25  2  0
  7 26  1  0
  8 27  1  0
 11 28  1  0
 14 29  1  0
 16 30  1  0
 21 31  1  0
 22 32  1  0
 24 33  1  0
M  ISO  8  26  14  27  14  28   9  29  14  30  14  31  14  32  14  33  14
M  END
>  <minimizedAffinity>  (1) 
-5.28628159

>  <minimizedRMSD>  (1) 
3.10065103

$$$$
