
     RDKit          3D

 32 35  0  0  0  0  0  0  0  0999 V2000
   40.8150   29.2050   41.4740 C   0  0  0  0  0  0  0  0  0  0  0  0
   39.9690   28.1660   41.3230 N   0  0  0  0  0  0  0  0  0  0  0  0
   40.5830   27.0780   41.7100 O   0  0  0  0  0  0  0  0  0  0  0  0
   41.7940   27.3490   42.1090 C   0  0  0  0  0  0  0  0  0  0  0  0
   41.9550   28.6770   41.9670 N   0  0  0  0  0  0  0  0  0  0  0  0
   42.8430   26.5440   42.6100 N   0  0  0  0  0  0  0  0  0  0  0  0
   44.0880   27.0470   42.4430 C   0  0  0  0  0  0  0  0  0  0  0  0
   45.1910   26.3510   42.8930 C   0  0  0  0  0  0  0  0  0  0  0  0
   44.9110   25.1400   43.5040 C   0  0  0  0  0  0  0  0  0  0  0  0
   45.8810   24.4500   43.9400 O   0  0  0  0  0  0  0  0  0  0  0  0
   43.6640   24.6580   43.6600 N   0  0  0  0  0  0  0  0  0  0  0  0
   42.6240   25.3690   43.2070 C   0  0  0  0  0  0  0  0  0  0  0  0
   41.4520   24.9420   43.3400 O   0  0  0  0  0  0  0  0  0  0  0  0
   41.6290   31.5180   40.7540 C   0  0  0  0  0  0  0  0  0  0  0  0
   40.6350   30.6420   41.1920 C   0  0  0  0  0  0  0  0  0  0  0  0
   39.3160   31.1000   41.4080 C   0  0  0  0  0  0  0  0  0  0  0  0
   39.0780   32.4270   41.1660 N   0  0  0  0  0  0  0  0  0  0  0  0
   40.0600   33.2420   40.7450 C   0  0  0  0  0  0  0  0  0  0  0  0
   41.3310   32.8020   40.5370 N   0  0  0  0  0  0  0  0  0  0  0  0
   39.8640   34.6420   40.4780 C   0  0  0  0  0  0  0  0  0  0  0  0
   38.8390   35.4100   40.0560 C   0  0  0  0  0  0  0  0  0  0  0  0
   38.9450   36.7410   39.8900 C   0  0  0  0  0  0  0  0  0  0  0  0
   40.2740   37.2860   40.2090 C   0  0  0  0  0  0  0  0  0  0  0  0
   41.2200   35.7340   40.7250 S   0  0  0  0  0  0  0  0  0  0  0  0
   44.2218   28.0184   41.9446 H   0  0  0  0  0  0  0  0  0  0  0  0
   46.2170   26.7299   42.7752 H   0  0  0  0  0  0  0  0  0  0  0  0
   43.5114   23.7509   44.1234 H   0  0  0  0  0  0  0  0  0  0  0  0
   42.6533   31.1529   40.5882 H   0  0  0  0  0  0  0  0  0  0  0  0
   38.5196   30.4243   41.7534 H   0  0  0  0  0  0  0  0  0  0  0  0
   37.8748   34.9276   39.8381 H   0  0  0  0  0  0  0  0  0  0  0  0
   38.1096   37.3681   39.5453 H   0  0  0  0  0  0  0  0  0  0  0  0
   40.6256   38.3271   40.1598 H   0  0  0  0  0  0  0  0  0  0  0  0
  1  5  1  0
  2  1  2  0
  2  3  1  0
  3  4  1  0
  4  6  1  0
  5  4  2  0
  6 12  1  0
  7  6  1  0
  7  8  2  0
  8  9  1  0
  9 11  1  0
  9 10  2  0
 12 13  2  0
 12 11  1  0
 14 15  2  0
 15 16  1  0
 15  1  1  0
 17 16  2  0
 18 17  1  0
 19 18  2  0
 19 14  1  0
 20 24  1  0
 20 18  1  0
 21 20  2  0
 22 21  1  0
 22 23  2  0
 23 24  1  0
  7 25  1  0
  8 26  1  0
 11 27  1  0
 14 28  1  0
 16 29  1  0
 21 30  1  0
 22 31  1  0
 23 32  1  0
M  ISO  8  25  14  26  14  27   9  28  14  29  14  30  14  31  14  32  14
M  END
>  <minimizedAffinity>  (1) 
-5.19626284

>  <minimizedRMSD>  (1) 
2.81472349

$$$$
