
     RDKit          3D

 39 42  0  0  0  0  0  0  0  0999 V2000
   38.5110   29.7000   39.9170 C   0  0  0  0  0  0  0  0  0  0  0  0
   39.1140   28.8980   40.8090 N   0  0  0  0  0  0  0  0  0  0  0  0
   40.1270   29.5480   41.3330 O   0  0  0  0  0  0  0  0  0  0  0  0
   40.2110   30.7460   40.8180 C   0  0  0  0  0  0  0  0  0  0  0  0
   39.2020   30.8640   39.9230 N   0  0  0  0  0  0  0  0  0  0  0  0
   41.1050   31.8380   41.0270 N   0  0  0  0  0  0  0  0  0  0  0  0
   41.2240   32.6830   40.0020 C   0  0  0  0  0  0  0  0  0  0  0  0
   42.0610   33.7800   40.0900 C   0  0  0  0  0  0  0  0  0  0  0  0
   42.7360   33.8980   41.3130 C   0  0  0  0  0  0  0  0  0  0  0  0
   43.5190   34.8930   41.4400 O   0  0  0  0  0  0  0  0  0  0  0  0
   42.5950   33.0280   42.3300 N   0  0  0  0  0  0  0  0  0  0  0  0
   41.7700   31.9860   42.1860 C   0  0  0  0  0  0  0  0  0  0  0  0
   41.6160   31.1560   43.1150 O   0  0  0  0  0  0  0  0  0  0  0  0
   37.1630   29.9330   37.7610 C   0  0  0  0  0  0  0  0  0  0  0  0
   37.3400   29.4630   39.0600 C   0  0  0  0  0  0  0  0  0  0  0  0
   36.3330   28.6810   39.6610 C   0  0  0  0  0  0  0  0  0  0  0  0
   35.2100   28.4150   38.9260 N   0  0  0  0  0  0  0  0  0  0  0  0
   35.0840   28.8940   37.6650 C   0  0  0  0  0  0  0  0  0  0  0  0
   36.0480   29.6400   37.0970 N   0  0  0  0  0  0  0  0  0  0  0  0
   33.9330   28.6370   36.8740 N   0  0  0  0  0  0  0  0  0  0  0  0
   33.8850   27.6960   35.7710 C   0  0  0  0  0  0  0  0  0  0  0  0
   32.8050   26.6990   36.1240 C   0  0  0  0  0  0  0  0  0  0  0  0
   31.5330   27.3410   36.1850 N   0  0  0  0  0  0  0  0  0  0  0  0
   31.5370   28.7530   36.3620 C   0  0  0  0  0  0  0  0  0  0  0  0
   32.6820   29.3250   37.1230 C   0  0  0  0  0  0  0  0  0  0  0  0
   40.6518   32.5058   39.0794 H   0  0  0  0  0  0  0  0  0  0  0  0
   42.1868   34.5005   39.2684 H   0  0  0  0  0  0  0  0  0  0  0  0
   43.1161   33.1632   43.2081 H   0  0  0  0  0  0  0  0  0  0  0  0
   37.9433   30.5451   37.2851 H   0  0  0  0  0  0  0  0  0  0  0  0
   36.4461   28.2977   40.6858 H   0  0  0  0  0  0  0  0  0  0  0  0
   34.8539   27.1872   35.6596 H   0  0  0  0  0  0  0  0  0  0  0  0
   33.6720   28.2016   34.8176 H   0  0  0  0  0  0  0  0  0  0  0  0
   32.7760   25.9103   35.3578 H   0  0  0  0  0  0  0  0  0  0  0  0
   33.0311   26.2633   37.1084 H   0  0  0  0  0  0  0  0  0  0  0  0
   31.0387   27.1384   35.3044 H   0  0  0  0  0  0  0  0  0  0  0  0
   31.5355   29.2148   35.3636 H   0  0  0  0  0  0  0  0  0  0  0  0
   30.6461   28.9724   36.9688 H   0  0  0  0  0  0  0  0  0  0  0  0
   32.4551   29.2602   38.1974 H   0  0  0  0  0  0  0  0  0  0  0  0
   32.8090   30.3656   36.7898 H   0  0  0  0  0  0  0  0  0  0  0  0
  1  5  1  0
  1  2  2  0
  2  3  1  0
  4  6  1  0
  4  3  1  0
  5  4  2  0
  6 12  1  0
  7  8  2  0
  7  6  1  0
  8  9  1  0
  9 10  2  0
  9 11  1  0
 12 11  1  0
 12 13  2  0
 14 15  2  0
 15 16  1  0
 15  1  1  0
 17 16  2  0
 18 17  1  0
 19 18  2  0
 19 14  1  0
 20 25  1  0
 20 18  1  0
 21 22  1  0
 21 20  1  0
 22 23  1  0
 23 24  1  0
 24 25  1  0
  7 26  1  0
  8 27  1  0
 11 28  1  0
 14 29  1  0
 16 30  1  0
 21 31  1  0
 21 32  1  0
 22 33  1  0
 22 34  1  0
 23 35  1  0
 24 36  1  0
 24 37  1  0
 25 38  1  0
 25 39  1  0
M  ISO  8  26  14  27  14  28   9  29  14  30  14  31  13  32  13  33  13
M  ISO  6  34  13  35   5  36  13  37  13  38  13  39  13
M  END
>  <minimizedAffinity>  (1) 
-5.00111103

>  <minimizedRMSD>  (1) 
6.39458323

$$$$
