
     RDKit          3D

 44 48  0  0  0  0  0  0  0  0999 V2000
   39.2260   30.0500   40.8570 C   0  0  0  0  0  0  0  0  0  0  0  0
   39.1050   28.7400   41.2670 C   0  0  0  0  0  0  0  0  0  0  0  0
   38.1530   27.9020   40.6490 C   0  0  0  0  0  0  0  0  0  0  0  0
   37.3910   28.4710   39.6510 N   0  0  0  0  0  0  0  0  0  0  0  0
   37.5470   29.7520   39.2900 C   0  0  0  0  0  0  0  0  0  0  0  0
   38.4600   30.5410   39.8880 N   0  0  0  0  0  0  0  0  0  0  0  0
   39.8830   28.0720   42.3200 C   0  0  0  0  0  0  0  0  0  0  0  0
   39.5710   27.7510   43.5820 N   0  0  0  0  0  0  0  0  0  0  0  0
   40.6020   27.1570   44.1410 O   0  0  0  0  0  0  0  0  0  0  0  0
   41.5980   27.0740   43.2790 C   0  0  0  0  0  0  0  0  0  0  0  0
   41.1480   27.6410   42.1550 N   0  0  0  0  0  0  0  0  0  0  0  0
   42.8920   26.5390   43.3750 N   0  0  0  0  0  0  0  0  0  0  0  0
   43.4550   26.1820   42.2100 C   0  0  0  0  0  0  0  0  0  0  0  0
   44.7240   25.6430   42.1900 C   0  0  0  0  0  0  0  0  0  0  0  0
   45.3380   25.5110   43.4340 C   0  0  0  0  0  0  0  0  0  0  0  0
   46.5020   25.0230   43.4900 O   0  0  0  0  0  0  0  0  0  0  0  0
   44.7620   25.8710   44.5800 N   0  0  0  0  0  0  0  0  0  0  0  0
   43.5210   26.3920   44.5460 C   0  0  0  0  0  0  0  0  0  0  0  0
   42.9490   26.7430   45.6130 O   0  0  0  0  0  0  0  0  0  0  0  0
   37.9010   26.5020   40.9590 C   0  0  0  0  0  0  0  0  0  0  0  0
   37.0090   26.1490   41.9490 C   0  0  0  0  0  0  0  0  0  0  0  0
   36.7610   24.8370   42.2510 C   0  0  0  0  0  0  0  0  0  0  0  0
   37.4310   23.8400   41.5370 C   0  0  0  0  0  0  0  0  0  0  0  0
   38.3280   24.2110   40.5400 C   0  0  0  0  0  0  0  0  0  0  0  0
   38.9780   23.2030   39.8460 C   0  0  0  0  0  0  0  0  0  0  0  0
   39.8730   23.4960   38.8530 C   0  0  0  0  0  0  0  0  0  0  0  0
   40.1410   24.8200   38.5270 C   0  0  0  0  0  0  0  0  0  0  0  0
   39.4970   25.8290   39.2150 C   0  0  0  0  0  0  0  0  0  0  0  0
   38.5940   25.5400   40.2170 C   0  0  0  0  0  0  0  0  0  0  0  0
   36.6780   30.2540   38.2100 C   0  0  0  0  0  0  0  0  0  0  0  0
   36.6580   31.6240   38.1990 F   0  0  0  0  0  0  0  0  0  0  0  0
   37.1310   29.8190   36.9730 F   0  0  0  0  0  0  0  0  0  0  0  0
   35.3820   29.8240   38.4000 F   0  0  0  0  0  0  0  0  0  0  0  0
   39.9696   30.7009   41.3401 H   0  0  0  0  0  0  0  0  0  0  0  0
   42.9026   26.3198   41.2688 H   0  0  0  0  0  0  0  0  0  0  0  0
   45.2180   25.3380   41.2557 H   0  0  0  0  0  0  0  0  0  0  0  0
   45.2569   25.7529   45.4756 H   0  0  0  0  0  0  0  0  0  0  0  0
   36.4854   26.9384   42.5082 H   0  0  0  0  0  0  0  0  0  0  0  0
   36.0455   24.5717   43.0433 H   0  0  0  0  0  0  0  0  0  0  0  0
   37.2520   22.7778   41.7598 H   0  0  0  0  0  0  0  0  0  0  0  0
   38.7716   22.1521   40.0969 H   0  0  0  0  0  0  0  0  0  0  0  0
   40.3804   22.6832   38.3127 H   0  0  0  0  0  0  0  0  0  0  0  0
   40.8587   25.0616   37.7292 H   0  0  0  0  0  0  0  0  0  0  0  0
   39.7070   26.8784   38.9605 H   0  0  0  0  0  0  0  0  0  0  0  0
  1  2  2  0
  2  7  1  0
  3 20  1  0
  3  2  1  0
  4  3  2  0
  5  4  1  0
  5  6  2  0
  6  1  1  0
  7  8  2  0
  8  9  1  0
 10 12  1  0
 10  9  1  0
 11  7  1  0
 11 10  2  0
 12 18  1  0
 13 12  1  0
 14 13  2  0
 14 15  1  0
 15 16  2  0
 15 17  1  0
 18 17  1  0
 18 19  2  0
 20 21  2  0
 21 22  1  0
 23 22  2  0
 24 23  1  0
 25 24  2  0
 26 25  1  0
 27 26  2  0
 27 28  1  0
 28 29  2  0
 29 24  1  0
 29 20  1  0
 30 33  1  0
 30  5  1  0
 31 30  1  0
 32 30  1  0
  1 34  1  0
 13 35  1  0
 14 36  1  0
 17 37  1  0
 21 38  1  0
 22 39  1  0
 23 40  1  0
 25 41  1  0
 26 42  1  0
 27 43  1  0
 28 44  1  0
M  ISO  8  34  14  35  14  36  14  37   9  38  14  39  14  40  14  41  14
M  ISO  3  42  14  43  14  44  14
M  END
>  <minimizedAffinity>  (1) 
-6.34242868

>  <minimizedRMSD>  (1) 
2.39069772

$$$$
