
     RDKit          3D

 41 43  0  0  1  0  0  0  0  0999 V2000
   39.1980   25.7620   42.0300 C   0  0  1  0  0  0  0  0  0  0  0  0
   39.1400   24.3860   41.2970 C   0  0  0  0  0  0  0  0  0  0  0  0
   37.8110   23.8260   41.5820 C   0  0  0  0  0  0  0  0  0  0  0  0
   36.9670   25.0800   41.9390 C   0  0  0  0  0  0  0  0  0  0  0  0
   37.9050   25.8300   42.6970 C   0  0  2  0  0  0  0  0  0  0  0  0
   41.6850   26.8480   44.6050 C   0  0  0  0  0  0  0  0  0  0  0  0
   40.4880   26.7480   43.8960 C   0  0  0  0  0  0  0  0  0  0  0  0
   40.4000   25.8910   42.7970 C   0  0  0  0  0  0  0  0  0  0  0  0
   41.4960   25.1710   42.4460 N   0  0  0  0  0  0  0  0  0  0  0  0
   42.6490   25.2660   43.1310 C   0  0  0  0  0  0  0  0  0  0  0  0
   42.7590   26.0970   44.2070 N   0  0  0  0  0  0  0  0  0  0  0  0
   37.3310   27.2100   42.8360 C   0  0  2  0  0  0  0  0  0  0  0  0
   36.2420   27.3820   43.8230 C   0  0  0  0  0  0  0  0  0  0  0  0
   36.9200   27.5760   41.5010 C   0  0  0  0  0  0  0  0  0  0  0  0
   36.8960   28.9750   41.3320 N   0  0  0  0  0  0  0  0  0  0  0  0
   35.9200   29.8010   40.9210 C   0  0  0  0  0  0  0  0  0  0  0  0
   36.3760   31.0610   40.7520 C   0  0  0  0  0  0  0  0  0  0  0  0
   37.6900   30.9900   41.0800 N   0  0  0  0  0  0  0  0  0  0  0  0
   37.9910   29.7290   41.4290 C   0  0  0  0  0  0  0  0  0  0  0  0
   39.3680   29.6830   41.7510 C   0  0  0  0  0  0  0  0  0  0  0  0
   40.1880   30.0140   42.6200 O   0  0  0  0  0  0  0  0  0  0  0  0
   39.3006   26.6580   41.4002 H   0  0  0  0  0  0  0  0  0  0  0  0
   39.9256   23.7172   41.6785 H   0  0  0  0  0  0  0  0  0  0  0  0
   39.3035   24.5005   40.2153 H   0  0  0  0  0  0  0  0  0  0  0  0
   37.4015   23.3130   40.6993 H   0  0  0  0  0  0  0  0  0  0  0  0
   37.8232   23.0718   42.3826 H   0  0  0  0  0  0  0  0  0  0  0  0
   36.6494   25.6236   41.0370 H   0  0  0  0  0  0  0  0  0  0  0  0
   36.0283   24.8596   42.4684 H   0  0  0  0  0  0  0  0  0  0  0  0
   38.0800   25.4414   43.7111 H   0  0  0  0  0  0  0  0  0  0  0  0
   41.7653   27.5206   45.4717 H   0  0  0  0  0  0  0  0  0  0  0  0
   39.6150   27.3431   44.2020 H   0  0  0  0  0  0  0  0  0  0  0  0
   43.5160   24.6650   42.8192 H   0  0  0  0  0  0  0  0  0  0  0  0
   38.1006   27.8729   43.2582 H   0  0  0  0  0  0  0  0  0  0  0  0
   36.6554   27.3167   44.8403 H   0  0  0  0  0  0  0  0  0  0  0  0
   35.7706   28.3657   43.6812 H   0  0  0  0  0  0  0  0  0  0  0  0
   35.4904   26.5914   43.6812 H   0  0  0  0  0  0  0  0  0  0  0  0
   37.6258   27.1409   40.7781 H   0  0  0  0  0  0  0  0  0  0  0  0
   35.9027   27.1915   41.3361 H   0  0  0  0  0  0  0  0  0  0  0  0
   34.8797   29.4903   40.7442 H   0  0  0  0  0  0  0  0  0  0  0  0
   35.8098   31.9448   40.4228 H   0  0  0  0  0  0  0  0  0  0  0  0
   39.9030   29.1691   40.9388 H   0  0  0  0  0  0  0  0  0  0  0  0
  1  5  1  0
  1  8  1  0
  2  3  1  0
  2  1  1  0
  3  4  1  0
  4  5  1  0
  5 12  1  0
  7  6  2  0
  8  7  1  0
  9  8  2  0
  9 10  1  0
 10 11  2  0
 11  6  1  0
 12 13  1  0
 14 12  1  0
 15 19  1  0
 15 14  1  0
 16 15  1  0
 17 16  2  0
 17 18  1  0
 18 19  2  0
 19 20  1  0
 20 21  2  0
  1 22  1  6
  2 23  1  0
  2 24  1  0
  3 25  1  0
  3 26  1  0
  4 27  1  0
  4 28  1  0
  5 29  1  1
  6 30  1  0
  7 31  1  0
 10 32  1  0
 12 33  1  1
 13 34  1  0
 13 35  1  0
 13 36  1  0
 14 37  1  0
 14 38  1  0
 16 39  1  0
 17 40  1  0
 20 41  1  0
M  ISO  8  22  13  23  13  24  13  25  13  26  13  27  13  28  13  29  13
M  ISO  8  30  14  31  14  32  14  33   8  34   8  35   8  36   8  37   8
M  ISO  4  38   8  39  14  40  14  41   6
M  END
>  <minimizedAffinity>  (1) 
-5.17645597

>  <minimizedRMSD>  (1) 
0.540389359

$$$$
