
     RDKit          3D

 42 46  0  0  0  0  0  0  0  0999 V2000
   39.6650   31.4390   42.1520 C   0  0  0  0  0  0  0  0  0  0  0  0
   39.6930   30.4430   41.1990 C   0  0  0  0  0  0  0  0  0  0  0  0
   39.3950   30.7670   39.8680 C   0  0  0  0  0  0  0  0  0  0  0  0
   39.0890   32.0870   39.6060 N   0  0  0  0  0  0  0  0  0  0  0  0
   39.0770   33.0180   40.5740 C   0  0  0  0  0  0  0  0  0  0  0  0
   39.3630   32.6980   41.8360 N   0  0  0  0  0  0  0  0  0  0  0  0
   40.0090   29.0210   41.4110 C   0  0  0  0  0  0  0  0  0  0  0  0
   39.3030   27.9150   41.1920 N   0  0  0  0  0  0  0  0  0  0  0  0
   40.0230   26.8770   41.5430 O   0  0  0  0  0  0  0  0  0  0  0  0
   41.1840   27.2560   41.9890 C   0  0  0  0  0  0  0  0  0  0  0  0
   41.1920   28.5920   41.9120 N   0  0  0  0  0  0  0  0  0  0  0  0
   42.2990   26.5420   42.4790 N   0  0  0  0  0  0  0  0  0  0  0  0
   43.4900   27.1900   42.3740 C   0  0  0  0  0  0  0  0  0  0  0  0
   44.6480   26.5930   42.8190 C   0  0  0  0  0  0  0  0  0  0  0  0
   44.4920   25.3200   43.3610 C   0  0  0  0  0  0  0  0  0  0  0  0
   45.5020   24.7020   43.7930 O   0  0  0  0  0  0  0  0  0  0  0  0
   43.3000   24.7000   43.4540 N   0  0  0  0  0  0  0  0  0  0  0  0
   42.2060   25.3270   43.0060 C   0  0  0  0  0  0  0  0  0  0  0  0
   41.0790   24.7740   43.0780 O   0  0  0  0  0  0  0  0  0  0  0  0
   39.3680   29.8770   38.7150 C   0  0  0  0  0  0  0  0  0  0  0  0
   40.4290   29.3540   38.0800 N   0  0  0  0  0  0  0  0  0  0  0  0
   40.3670   28.5440   37.0320 C   0  0  0  0  0  0  0  0  0  0  0  0
   39.1890   28.1850   36.5200 N   0  0  0  0  0  0  0  0  0  0  0  0
   38.0570   28.6430   37.0680 C   0  0  0  0  0  0  0  0  0  0  0  0
   36.8860   28.2340   36.4930 C   0  0  0  0  0  0  0  0  0  0  0  0
   35.7110   28.7020   37.0520 C   0  0  0  0  0  0  0  0  0  0  0  0
   35.7540   29.5440   38.1430 C   0  0  0  0  0  0  0  0  0  0  0  0
   36.9570   29.9490   38.7120 C   0  0  0  0  0  0  0  0  0  0  0  0
   38.1450   29.4900   38.1660 C   0  0  0  0  0  0  0  0  0  0  0  0
   38.7350   34.3980   40.1730 C   0  0  0  0  0  0  0  0  0  0  0  0
   38.6420   35.2050   41.2780 F   0  0  0  0  0  0  0  0  0  0  0  0
   39.7010   34.9060   39.3170 F   0  0  0  0  0  0  0  0  0  0  0  0
   37.5060   34.4190   39.5380 F   0  0  0  0  0  0  0  0  0  0  0  0
   39.8974   31.1886   43.1976 H   0  0  0  0  0  0  0  0  0  0  0  0
   43.5283   28.1962   41.9313 H   0  0  0  0  0  0  0  0  0  0  0  0
   45.6283   27.0873   42.7511 H   0  0  0  0  0  0  0  0  0  0  0  0
   43.2315   23.7575   43.8638 H   0  0  0  0  0  0  0  0  0  0  0  0
   41.2957   28.1647   36.5808 H   0  0  0  0  0  0  0  0  0  0  0  0
   36.8788   27.5613   35.6227 H   0  0  0  0  0  0  0  0  0  0  0  0
   34.7419   28.4025   36.6263 H   0  0  0  0  0  0  0  0  0  0  0  0
   34.8098   29.9059   38.5759 H   0  0  0  0  0  0  0  0  0  0  0  0
   36.9651   30.6228   39.5814 H   0  0  0  0  0  0  0  0  0  0  0  0
  2  7  1  0
  2  1  2  0
  3  2  1  0
  4  3  2  0
  4  5  1  0
  5  6  2  0
  6  1  1  0
  7 11  1  0
  8  7  2  0
  8  9  1  0
  9 10  1  0
 10 12  1  0
 11 10  2  0
 12 18  1  0
 13 12  1  0
 13 14  2  0
 14 15  1  0
 15 17  1  0
 15 16  2  0
 18 19  2  0
 18 17  1  0
 20  3  1  0
 21 20  2  0
 22 21  1  0
 23 22  2  0
 23 24  1  0
 24 29  2  0
 25 26  2  0
 25 24  1  0
 26 27  1  0
 27 28  2  0
 29 28  1  0
 29 20  1  0
 30  5  1  0
 30 31  1  0
 32 30  1  0
 33 30  1  0
  1 34  1  0
 13 35  1  0
 14 36  1  0
 17 37  1  0
 22 38  1  0
 25 39  1  0
 26 40  1  0
 27 41  1  0
 28 42  1  0
M  ISO  8  34  14  35  14  36  14  37   9  38  14  39  14  40  14  41  14
M  ISO  1  42  14
M  END
>  <minimizedAffinity>  (1) 
-6.30385733

>  <minimizedRMSD>  (1) 
3.85262346

$$$$
