
     RDKit          3D

 36 39  0  0  0  0  0  0  0  0999 V2000
   38.6770   29.7430   40.8260 C   0  0  0  0  0  0  0  0  0  0  0  0
   38.7430   28.4110   41.2110 C   0  0  0  0  0  0  0  0  0  0  0  0
   37.9900   27.4660   40.4870 C   0  0  0  0  0  0  0  0  0  0  0  0
   37.2310   27.9240   39.4380 N   0  0  0  0  0  0  0  0  0  0  0  0
   37.2050   29.2320   39.1080 C   0  0  0  0  0  0  0  0  0  0  0  0
   37.9250   30.1320   39.8010 N   0  0  0  0  0  0  0  0  0  0  0  0
   39.5270   27.8590   42.3130 C   0  0  0  0  0  0  0  0  0  0  0  0
   39.1820   27.5850   43.5820 N   0  0  0  0  0  0  0  0  0  0  0  0
   40.2330   27.0950   44.2040 O   0  0  0  0  0  0  0  0  0  0  0  0
   41.2590   27.0380   43.3860 C   0  0  0  0  0  0  0  0  0  0  0  0
   40.8230   27.5110   42.2120 N   0  0  0  0  0  0  0  0  0  0  0  0
   42.5810   26.6000   43.5630 N   0  0  0  0  0  0  0  0  0  0  0  0
   43.2030   26.2020   42.4220 C   0  0  0  0  0  0  0  0  0  0  0  0
   44.5070   25.7490   42.4590 C   0  0  0  0  0  0  0  0  0  0  0  0
   45.0990   25.7430   43.7350 C   0  0  0  0  0  0  0  0  0  0  0  0
   46.2880   25.3400   43.8350 O   0  0  0  0  0  0  0  0  0  0  0  0
   44.4540   26.1430   44.8370 N   0  0  0  0  0  0  0  0  0  0  0  0
   43.1970   26.5700   44.7390 C   0  0  0  0  0  0  0  0  0  0  0  0
   42.5740   26.9510   45.7620 O   0  0  0  0  0  0  0  0  0  0  0  0
   37.9490   26.0290   40.7600 C   0  0  0  0  0  0  0  0  0  0  0  0
   37.1210   25.3180   41.6020 C   0  0  0  0  0  0  0  0  0  0  0  0
   37.2770   23.9490   41.6890 C   0  0  0  0  0  0  0  0  0  0  0  0
   38.2030   23.2870   40.9870 N   0  0  0  0  0  0  0  0  0  0  0  0
   38.9910   24.0190   40.1760 C   0  0  0  0  0  0  0  0  0  0  0  0
   38.8950   25.3630   40.0400 N   0  0  0  0  0  0  0  0  0  0  0  0
   36.3610   29.6220   37.9670 C   0  0  0  0  0  0  0  0  0  0  0  0
   36.6400   30.9080   37.5820 F   0  0  0  0  0  0  0  0  0  0  0  0
   36.5340   28.7700   36.9110 F   0  0  0  0  0  0  0  0  0  0  0  0
   35.0190   29.6140   38.3560 F   0  0  0  0  0  0  0  0  0  0  0  0
   39.2596   30.4930   41.3811 H   0  0  0  0  0  0  0  0  0  0  0  0
   42.6646   26.2409   41.4636 H   0  0  0  0  0  0  0  0  0  0  0  0
   45.0430   25.4174   41.5575 H   0  0  0  0  0  0  0  0  0  0  0  0
   44.9256   26.1207   45.7524 H   0  0  0  0  0  0  0  0  0  0  0  0
   36.3496   25.8322   42.1941 H   0  0  0  0  0  0  0  0  0  0  0  0
   36.6154   23.3820   42.3603 H   0  0  0  0  0  0  0  0  0  0  0  0
   39.7586   23.4935   39.5889 H   0  0  0  0  0  0  0  0  0  0  0  0
  1  2  2  0
  2  7  1  0
  3 20  1  0
  3  2  1  0
  4  3  2  0
  5  4  1  0
  5  6  2  0
  6  1  1  0
  7  8  2  0
  8  9  1  0
 10 12  1  0
 10  9  1  0
 11  7  1  0
 11 10  2  0
 12 18  1  0
 13 14  2  0
 13 12  1  0
 14 15  1  0
 15 16  2  0
 15 17  1  0
 18 17  1  0
 18 19  2  0
 20 21  2  0
 21 22  1  0
 23 22  2  0
 24 23  1  0
 25 24  2  0
 25 20  1  0
 26 29  1  0
 26  5  1  0
 27 26  1  0
 28 26  1  0
  1 30  1  0
 13 31  1  0
 14 32  1  0
 17 33  1  0
 21 34  1  0
 22 35  1  0
 24 36  1  0
M  ISO  7  30  14  31  14  32  14  33   9  34  14  35  14  36  14
M  END
>  <minimizedAffinity>  (1) 
-5.57079268

>  <minimizedRMSD>  (1) 
2.36199951

$$$$
