
     RDKit          3D

 28 30  0  0  1  0  0  0  0  0999 V2000
   37.9870   30.3780   41.5890 C   0  0  0  0  0  0  0  0  0  0  0  0
   38.2300   31.4900   41.0990 N   0  0  0  0  0  0  0  0  0  0  0  0
   38.3160   32.5900   40.5730 C   0  0  0  0  0  0  0  0  0  0  0  0
   39.6080   32.6510   40.8970 N   0  0  0  0  0  0  0  0  0  0  0  0
   40.2020   31.6190   41.5720 C   0  0  0  0  0  0  0  0  0  0  0  0
   41.6000   31.8060   41.7880 C   0  0  0  0  0  0  0  0  0  0  0  0
   42.2390   30.7590   42.3940 C   0  0  0  0  0  0  0  0  0  0  0  0
   41.6830   29.5870   42.7980 C   0  0  0  0  0  0  0  0  0  0  0  0
   40.3150   29.5740   42.5140 C   0  0  0  0  0  0  0  0  0  0  0  0
   39.4040   30.4890   41.9150 C   0  0  0  0  0  0  0  0  0  0  0  0
   37.7050   29.0830   42.1620 C   0  0  0  0  0  0  0  0  0  0  0  0
   37.4420   28.7910   43.5020 C   0  0  0  0  0  0  0  0  0  0  0  0
   37.0100   27.5160   43.8030 C   0  0  0  0  0  0  0  0  0  0  0  0
   36.8820   26.6790   42.7640 N   0  0  0  0  0  0  0  0  0  0  0  0
   37.1170   26.9120   41.4810 C   0  0  0  0  0  0  0  0  0  0  0  0
   37.5340   28.1500   41.2250 N   0  0  0  0  0  0  0  0  0  0  0  0
   38.2445   29.8989   40.6329 H   0  0  0  0  0  0  0  0  0  0  0  0
   38.6071   31.8434   41.9899 H   0  0  0  0  0  0  0  0  0  0  0  0
   37.6974   33.3644   41.0502 H   0  0  0  0  0  0  0  0  0  0  0  0
   37.9990   32.7316   39.5292 H   0  0  0  0  0  0  0  0  0  0  0  0
   40.1623   33.4796   40.6378 H   0  0  0  0  0  0  0  0  0  0  0  0
   42.1256   32.7249   41.4891 H   0  0  0  0  0  0  0  0  0  0  0  0
   43.3177   30.8788   42.5732 H   0  0  0  0  0  0  0  0  0  0  0  0
   42.2320   28.7649   43.2803 H   0  0  0  0  0  0  0  0  0  0  0  0
   39.8285   28.6382   42.8262 H   0  0  0  0  0  0  0  0  0  0  0  0
   37.5743   29.5492   44.2879 H   0  0  0  0  0  0  0  0  0  0  0  0
   36.7842   27.2049   44.8337 H   0  0  0  0  0  0  0  0  0  0  0  0
   36.9799   26.1513   40.6983 H   0  0  0  0  0  0  0  0  0  0  0  0
  1 10  1  0
  1 11  1  0
  2  1  1  0
  3  4  1  0
  3  2  1  0
  4  5  1  0
  5  6  2  0
  5 10  1  0
  6  7  1  0
  7  8  2  0
  9  8  1  0
 10  9  2  0
 11 12  2  0
 12 13  1  0
 14 13  2  0
 15 14  1  0
 16 15  2  0
 16 11  1  0
  1 17  1  0
  2 18  1  0
  3 19  1  0
  3 20  1  0
  4 21  1  0
  6 22  1  0
  7 23  1  0
  8 24  1  0
  9 25  1  0
 12 26  1  0
 13 27  1  0
 15 28  1  0
M  ISO  8  17  13  18   5  19  13  20  13  22  14  23  14  24  14  25  14
M  ISO  3  26  14  27  14  28  14
M  END
>  <minimizedAffinity>  (1) 
-4.25699759

>  <minimizedRMSD>  (1) 
3.31930637

$$$$
