
     RDKit          3D

 34 37  0  0  0  0  0  0  0  0999 V2000
   40.1580   28.5850   42.6600 C   0  0  0  0  0  0  0  0  0  0  0  0
   39.7580   27.6370   43.5290 N   0  0  0  0  0  0  0  0  0  0  0  0
   40.8090   27.1940   44.1760 O   0  0  0  0  0  0  0  0  0  0  0  0
   41.8960   27.8140   43.7670 C   0  0  0  0  0  0  0  0  0  0  0  0
   41.4890   28.6720   42.8300 N   0  0  0  0  0  0  0  0  0  0  0  0
   43.2440   27.6980   44.1450 N   0  0  0  0  0  0  0  0  0  0  0  0
   44.1330   28.0990   43.1910 C   0  0  0  0  0  0  0  0  0  0  0  0
   45.4920   28.0340   43.4370 C   0  0  0  0  0  0  0  0  0  0  0  0
   45.8400   27.5390   44.7030 C   0  0  0  0  0  0  0  0  0  0  0  0
   47.0670   27.4530   44.9950 O   0  0  0  0  0  0  0  0  0  0  0  0
   44.9400   27.1520   45.6220 N   0  0  0  0  0  0  0  0  0  0  0  0
   43.6320   27.2370   45.3270 C   0  0  0  0  0  0  0  0  0  0  0  0
   42.7760   26.8860   46.1580 O   0  0  0  0  0  0  0  0  0  0  0  0
   39.2150   30.7550   41.7490 C   0  0  0  0  0  0  0  0  0  0  0  0
   39.4010   29.3920   41.7050 C   0  0  0  0  0  0  0  0  0  0  0  0
   38.8190   28.6520   40.6510 C   0  0  0  0  0  0  0  0  0  0  0  0
   38.0890   29.3430   39.7140 N   0  0  0  0  0  0  0  0  0  0  0  0
   37.9430   30.6880   39.8110 C   0  0  0  0  0  0  0  0  0  0  0  0
   38.5000   31.3840   40.8160 N   0  0  0  0  0  0  0  0  0  0  0  0
   38.9160   27.2450   40.4650 N   0  0  0  0  0  0  0  0  0  0  0  0
   40.1500   26.7070   40.2330 C   0  0  0  0  0  0  0  0  0  0  0  0
   40.0140   25.3730   40.0870 N   0  0  0  0  0  0  0  0  0  0  0  0
   38.7020   25.0790   40.2280 C   0  0  0  0  0  0  0  0  0  0  0  0
   38.0710   26.2200   40.4530 N   0  0  0  0  0  0  0  0  0  0  0  0
   37.1410   31.3370   38.7530 C   0  0  0  0  0  0  0  0  0  0  0  0
   36.6390   32.5420   39.2230 F   0  0  0  0  0  0  0  0  0  0  0  0
   37.8930   31.5550   37.6320 F   0  0  0  0  0  0  0  0  0  0  0  0
   36.0330   30.5430   38.4390 F   0  0  0  0  0  0  0  0  0  0  0  0
   43.7678   28.4749   42.2239 H   0  0  0  0  0  0  0  0  0  0  0  0
   46.2432   28.3465   42.6967 H   0  0  0  0  0  0  0  0  0  0  0  0
   45.2477   26.7958   46.5382 H   0  0  0  0  0  0  0  0  0  0  0  0
   39.6641   31.3355   42.5683 H   0  0  0  0  0  0  0  0  0  0  0  0
   41.0950   27.2671   40.1750 H   0  0  0  0  0  0  0  0  0  0  0  0
   38.2454   24.0801   40.1672 H   0  0  0  0  0  0  0  0  0  0  0  0
  1  5  1  0
  1  2  2  0
  2  3  1  0
  4  6  1  0
  4  3  1  0
  5  4  2  0
  6 12  1  0
  7  8  2  0
  7  6  1  0
  8  9  1  0
  9 10  2  0
  9 11  1  0
 12 11  1  0
 12 13  2  0
 15 14  2  0
 15  1  1  0
 16 15  1  0
 17 18  1  0
 17 16  2  0
 18 19  2  0
 19 14  1  0
 20 16  1  0
 21 20  1  0
 22 23  1  0
 22 21  2  0
 23 24  2  0
 24 20  1  0
 25 26  1  0
 25 18  1  0
 27 25  1  0
 28 25  1  0
  7 29  1  0
  8 30  1  0
 11 31  1  0
 14 32  1  0
 21 33  1  0
 23 34  1  0
M  ISO  6  29  14  30  14  31   9  32  14  33  14  34  14
M  END
>  <minimizedAffinity>  (1) 
-5.28730679

>  <minimizedRMSD>  (1) 
0.707825124

$$$$
