
     RDKit          3D

 35 38  0  0  0  0  0  0  0  0999 V2000
   39.5840   27.9510   42.2300 C   0  0  0  0  0  0  0  0  0  0  0  0
   39.2180   27.6590   43.4800 N   0  0  0  0  0  0  0  0  0  0  0  0
   40.2490   27.1460   44.1060 O   0  0  0  0  0  0  0  0  0  0  0  0
   41.2940   27.0890   43.3090 C   0  0  0  0  0  0  0  0  0  0  0  0
   40.8810   27.5890   42.1430 N   0  0  0  0  0  0  0  0  0  0  0  0
   42.6120   26.6300   43.5010 N   0  0  0  0  0  0  0  0  0  0  0  0
   43.2620   26.2600   42.3730 C   0  0  0  0  0  0  0  0  0  0  0  0
   44.5490   25.7970   42.4280 C   0  0  0  0  0  0  0  0  0  0  0  0
   45.1070   25.7440   43.7230 C   0  0  0  0  0  0  0  0  0  0  0  0
   46.2920   25.3270   43.8570 O   0  0  0  0  0  0  0  0  0  0  0  0
   44.4370   26.1200   44.8380 N   0  0  0  0  0  0  0  0  0  0  0  0
   43.1850   26.5610   44.6950 C   0  0  0  0  0  0  0  0  0  0  0  0
   42.5360   26.9160   45.7140 O   0  0  0  0  0  0  0  0  0  0  0  0
   38.6940   29.8810   40.8080 C   0  0  0  0  0  0  0  0  0  0  0  0
   38.8430   28.5370   41.1040 C   0  0  0  0  0  0  0  0  0  0  0  0
   38.2340   27.5840   40.2620 C   0  0  0  0  0  0  0  0  0  0  0  0
   37.5220   28.0490   39.1860 N   0  0  0  0  0  0  0  0  0  0  0  0
   37.4070   29.3610   38.9430 C   0  0  0  0  0  0  0  0  0  0  0  0
   37.9850   30.2510   39.7440 N   0  0  0  0  0  0  0  0  0  0  0  0
   38.3310   26.2000   40.4820 C   0  0  0  0  0  0  0  0  0  0  0  0
   39.1660   25.2080   40.0800 C   0  0  0  0  0  0  0  0  0  0  0  0
   39.0060   23.9060   40.4710 C   0  0  0  0  0  0  0  0  0  0  0  0
   37.8760   23.6770   41.3450 C   0  0  0  0  0  0  0  0  0  0  0  0
   37.1290   25.3510   41.5410 S   0  0  0  0  0  0  0  0  0  0  0  0
   36.6210   29.7680   37.7600 C   0  0  0  0  0  0  0  0  0  0  0  0
   36.9270   31.0620   37.4050 F   0  0  0  0  0  0  0  0  0  0  0  0
   36.8420   28.9230   36.7030 F   0  0  0  0  0  0  0  0  0  0  0  0
   35.2590   29.7620   38.0840 F   0  0  0  0  0  0  0  0  0  0  0  0
   42.7507   26.3321   41.4018 H   0  0  0  0  0  0  0  0  0  0  0  0
   45.1060   25.4895   41.5307 H   0  0  0  0  0  0  0  0  0  0  0  0
   44.8791   26.0675   45.7668 H   0  0  0  0  0  0  0  0  0  0  0  0
   39.1607   30.6418   41.4509 H   0  0  0  0  0  0  0  0  0  0  0  0
   40.0042   25.4604   39.4138 H   0  0  0  0  0  0  0  0  0  0  0  0
   39.6811   23.1001   40.1473 H   0  0  0  0  0  0  0  0  0  0  0  0
   37.5413   22.7275   41.7882 H   0  0  0  0  0  0  0  0  0  0  0  0
  1  2  2  0
  2  3  1  0
  4  6  1  0
  4  3  1  0
  5  1  1  0
  5  4  2  0
  6 12  1  0
  7  8  2  0
  7  6  1  0
  8  9  1  0
  9 10  2  0
  9 11  1  0
 12 11  1  0
 12 13  2  0
 14 15  2  0
 15  1  1  0
 16 20  1  0
 16 15  1  0
 17 16  2  0
 18 17  1  0
 18 19  2  0
 19 14  1  0
 20 24  1  0
 21 22  1  0
 21 20  2  0
 22 23  2  0
 23 24  1  0
 25 28  1  0
 25 18  1  0
 26 25  1  0
 27 25  1  0
  7 29  1  0
  8 30  1  0
 11 31  1  0
 14 32  1  0
 21 33  1  0
 22 34  1  0
 23 35  1  0
M  ISO  7  29  14  30  14  31   9  32  14  33  14  34  14  35  14
M  END
>  <minimizedAffinity>  (1) 
-5.25740957

>  <minimizedRMSD>  (1) 
2.3036046

$$$$
