
     RDKit          3D

 29 31  0  0  0  0  0  0  0  0999 V2000
   40.1630   28.5660   42.6550 C   0  0  0  0  0  0  0  0  0  0  0  0
   39.8030   27.6290   43.5270 N   0  0  0  0  0  0  0  0  0  0  0  0
   40.8770   27.1830   44.1430 O   0  0  0  0  0  0  0  0  0  0  0  0
   41.9480   27.8060   43.6960 C   0  0  0  0  0  0  0  0  0  0  0  0
   41.5070   28.6620   42.7750 N   0  0  0  0  0  0  0  0  0  0  0  0
   43.3130   27.6910   44.0270 N   0  0  0  0  0  0  0  0  0  0  0  0
   44.1670   28.0840   43.0540 C   0  0  0  0  0  0  0  0  0  0  0  0
   45.5310   28.0190   43.2600 C   0  0  0  0  0  0  0  0  0  0  0  0
   45.9210   27.5310   44.5120 C   0  0  0  0  0  0  0  0  0  0  0  0
   47.1530   27.4490   44.7580 O   0  0  0  0  0  0  0  0  0  0  0  0
   45.0490   27.1530   45.4480 N   0  0  0  0  0  0  0  0  0  0  0  0
   43.7330   27.2310   45.2100 C   0  0  0  0  0  0  0  0  0  0  0  0
   42.8960   26.8850   46.0650 O   0  0  0  0  0  0  0  0  0  0  0  0
   38.9460   30.6780   41.8940 C   0  0  0  0  0  0  0  0  0  0  0  0
   39.3900   29.3870   41.7170 C   0  0  0  0  0  0  0  0  0  0  0  0
   39.0910   28.7200   40.5000 C   0  0  0  0  0  0  0  0  0  0  0  0
   38.3670   29.4270   39.5670 N   0  0  0  0  0  0  0  0  0  0  0  0
   37.9610   30.6890   39.8000 C   0  0  0  0  0  0  0  0  0  0  0  0
   38.2470   31.3090   40.9500 N   0  0  0  0  0  0  0  0  0  0  0  0
   37.1890   31.3570   38.7320 C   0  0  0  0  0  0  0  0  0  0  0  0
   36.6860   32.5520   39.1770 F   0  0  0  0  0  0  0  0  0  0  0  0
   37.9740   31.5640   37.6190 F   0  0  0  0  0  0  0  0  0  0  0  0
   36.0940   30.5610   38.3800 F   0  0  0  0  0  0  0  0  0  0  0  0
   39.5870   27.0500   40.1050 S   0  0  0  0  0  0  0  0  0  0  0  0
   43.7739   28.4562   42.0964 H   0  0  0  0  0  0  0  0  0  0  0  0
   46.2583   28.3285   42.4950 H   0  0  0  0  0  0  0  0  0  0  0  0
   45.3879   26.8008   46.3547 H   0  0  0  0  0  0  0  0  0  0  0  0
   39.1729   31.2006   42.8350 H   0  0  0  0  0  0  0  0  0  0  0  0
   39.7951   26.3493   41.2637 H   0  0  0  0  0  0  0  0  0  0  0  0
  1  5  1  0
  1  2  2  0
  2  3  1  0
  4  6  1  0
  4  3  1  0
  5  4  2  0
  6 12  1  0
  7  8  2  0
  7  6  1  0
  8  9  1  0
  9 10  2  0
  9 11  1  0
 12 11  1  0
 12 13  2  0
 15 14  2  0
 15  1  1  0
 16 15  1  0
 17 18  1  0
 17 16  2  0
 18 19  2  0
 19 14  1  0
 20 21  1  0
 20 18  1  0
 22 20  1  0
 23 20  1  0
 24 16  1  0
  7 25  1  0
  8 26  1  0
 11 27  1  0
 14 28  1  0
 24 29  1  0
M  ISO  5  25  14  26  14  27   9  28  14  29  11
M  END
>  <minimizedAffinity>  (1) 
-4.6672883

>  <minimizedRMSD>  (1) 
0.81497246

$$$$
