
     RDKit          3D

 53 56  0  0  0  0  0  0  0  0999 V2000
   39.1870   30.9320   41.7690 C   0  0  0  0  0  0  0  0  0  0  0  0
   39.4290   29.5790   41.6190 C   0  0  0  0  0  0  0  0  0  0  0  0
   38.9420   28.9170   40.4660 C   0  0  0  0  0  0  0  0  0  0  0  0
   38.2540   29.7180   39.5850 N   0  0  0  0  0  0  0  0  0  0  0  0
   38.0490   31.0200   39.7790 C   0  0  0  0  0  0  0  0  0  0  0  0
   38.5100   31.6250   40.8610 N   0  0  0  0  0  0  0  0  0  0  0  0
   40.1560   28.7410   42.5570 C   0  0  0  0  0  0  0  0  0  0  0  0
   39.7440   27.8480   43.4350 N   0  0  0  0  0  0  0  0  0  0  0  0
   40.7300   27.3210   44.0680 O   0  0  0  0  0  0  0  0  0  0  0  0
   41.8540   27.8370   43.6440 C   0  0  0  0  0  0  0  0  0  0  0  0
   41.5100   28.7260   42.7000 N   0  0  0  0  0  0  0  0  0  0  0  0
   43.2240   27.6510   43.9660 N   0  0  0  0  0  0  0  0  0  0  0  0
   44.1080   28.0240   43.0320 C   0  0  0  0  0  0  0  0  0  0  0  0
   45.4560   27.8850   43.2780 C   0  0  0  0  0  0  0  0  0  0  0  0
   45.7830   27.3440   44.5320 C   0  0  0  0  0  0  0  0  0  0  0  0
   47.0060   27.2020   44.7990 O   0  0  0  0  0  0  0  0  0  0  0  0
   44.8690   26.9780   45.4470 N   0  0  0  0  0  0  0  0  0  0  0  0
   43.5770   27.1310   45.1650 C   0  0  0  0  0  0  0  0  0  0  0  0
   42.7110   26.8040   45.9870 O   0  0  0  0  0  0  0  0  0  0  0  0
   37.2890   31.7420   38.7370 C   0  0  0  0  0  0  0  0  0  0  0  0
   36.7120   32.8660   39.2650 F   0  0  0  0  0  0  0  0  0  0  0  0
   38.1060   32.0970   37.7010 F   0  0  0  0  0  0  0  0  0  0  0  0
   36.2480   30.9290   38.2590 F   0  0  0  0  0  0  0  0  0  0  0  0
   39.0860   27.4650   40.1110 C   0  0  0  0  0  0  0  0  0  0  0  0
   40.4860   26.9580   40.1610 C   0  0  0  0  0  0  0  0  0  0  0  0
   38.7440   27.3780   38.5830 C   0  0  0  0  0  0  0  0  0  0  0  0
   38.0940   26.6030   40.8110 C   0  0  0  0  0  0  0  0  0  0  0  0
   38.4230   25.2300   41.2120 C   0  0  0  0  0  0  0  0  0  0  0  0
   37.2160   24.6660   42.0180 C   0  0  0  0  0  0  0  0  0  0  0  0
   36.3750   23.9080   41.0500 C   0  0  0  0  0  0  0  0  0  0  0  0
   37.0870   23.9370   39.7060 C   0  0  0  0  0  0  0  0  0  0  0  0
   38.5070   24.1660   40.1560 C   0  0  0  0  0  0  0  0  0  0  0  0
   39.5652   31.4478   42.6639 H   0  0  0  0  0  0  0  0  0  0  0  0
   43.7599   28.4387   42.0745 H   0  0  0  0  0  0  0  0  0  0  0  0
   46.2219   28.1770   42.5444 H   0  0  0  0  0  0  0  0  0  0  0  0
   45.1637   26.5852   46.3524 H   0  0  0  0  0  0  0  0  0  0  0  0
   40.7978   26.8451   41.2098 H   0  0  0  0  0  0  0  0  0  0  0  0
   40.5411   25.9828   39.6551 H   0  0  0  0  0  0  0  0  0  0  0  0
   41.1527   27.6718   39.6551 H   0  0  0  0  0  0  0  0  0  0  0  0
   37.6847   27.1085   38.4591 H   0  0  0  0  0  0  0  0  0  0  0  0
   38.9323   28.3526   38.1090 H   0  0  0  0  0  0  0  0  0  0  0  0
   39.3751   26.6118   38.1090 H   0  0  0  0  0  0  0  0  0  0  0  0
   37.8127   27.1366   41.7309 H   0  0  0  0  0  0  0  0  0  0  0  0
   37.3268   26.4476   40.0382 H   0  0  0  0  0  0  0  0  0  0  0  0
   39.4040   25.3708   41.6892 H   0  0  0  0  0  0  0  0  0  0  0  0
   37.5716   23.9980   42.8163 H   0  0  0  0  0  0  0  0  0  0  0  0
   36.6426   25.4759   42.4925 H   0  0  0  0  0  0  0  0  0  0  0  0
   36.2556   22.8685   41.3896 H   0  0  0  0  0  0  0  0  0  0  0  0
   35.3751   24.3592   40.9688 H   0  0  0  0  0  0  0  0  0  0  0  0
   36.7241   24.7588   39.0712 H   0  0  0  0  0  0  0  0  0  0  0  0
   36.9398   23.0387   39.0884 H   0  0  0  0  0  0  0  0  0  0  0  0
   38.9323   23.2416   40.5738 H   0  0  0  0  0  0  0  0  0  0  0  0
   39.1573   24.4676   39.3217 H   0  0  0  0  0  0  0  0  0  0  0  0
  2  1  2  0
  2  7  1  0
  3  2  1  0
  4  5  1  0
  4  3  2  0
  5  6  2  0
  6  1  1  0
  7 11  1  0
  7  8  2  0
  8  9  1  0
 10 12  1  0
 10  9  1  0
 11 10  2  0
 12 18  1  0
 13 14  2  0
 13 12  1  0
 14 15  1  0
 15 16  2  0
 15 17  1  0
 18 17  1  0
 18 19  2  0
 20 21  1  0
 20  5  1  0
 22 20  1  0
 23 20  1  0
 24 25  1  0
 24  3  1  0
 24 27  1  0
 26 24  1  0
 27 28  1  0
 28 29  1  0
 30 29  1  0
 31 32  1  0
 31 30  1  0
 32 28  1  0
  1 33  1  0
 13 34  1  0
 14 35  1  0
 17 36  1  0
 25 37  1  0
 25 38  1  0
 25 39  1  0
 26 40  1  0
 26 41  1  0
 26 42  1  0
 27 43  1  0
 27 44  1  0
 28 45  1  0
 29 46  1  0
 29 47  1  0
 30 48  1  0
 30 49  1  0
 31 50  1  0
 31 51  1  0
 32 52  1  0
 32 53  1  0
M  ISO  8  33  14  34  14  35  14  36   9  37   8  38   8  39   8  40   8
M  ISO  8  41   8  42   8  43   8  44   8  45  13  46  13  47  13  48  13
M  ISO  5  49  13  50  13  51  13  52  13  53  13
M  END
>  <minimizedAffinity>  (1) 
-5.55117273

>  <minimizedRMSD>  (1) 
0.441944182

$$$$
