
     RDKit          3D

 47 50  0  0  0  0  0  0  0  0999 V2000
   39.5830   30.9480   40.8080 C   0  0  0  0  0  0  0  0  0  0  0  0
   39.4790   29.5750   40.8780 C   0  0  0  0  0  0  0  0  0  0  0  0
   38.7490   28.8890   39.8750 C   0  0  0  0  0  0  0  0  0  0  0  0
   38.2000   29.6990   38.9020 N   0  0  0  0  0  0  0  0  0  0  0  0
   38.3330   31.0210   38.8850 C   0  0  0  0  0  0  0  0  0  0  0  0
   39.0170   31.6460   39.8270 N   0  0  0  0  0  0  0  0  0  0  0  0
   40.0580   28.7290   41.9060 C   0  0  0  0  0  0  0  0  0  0  0  0
   39.6000   28.3250   43.0740 N   0  0  0  0  0  0  0  0  0  0  0  0
   40.4480   27.5700   43.6740 O   0  0  0  0  0  0  0  0  0  0  0  0
   41.5180   27.4270   42.9440 C   0  0  0  0  0  0  0  0  0  0  0  0
   41.2800   28.1470   41.8430 N   0  0  0  0  0  0  0  0  0  0  0  0
   42.7450   26.7270   43.0910 N   0  0  0  0  0  0  0  0  0  0  0  0
   43.4070   26.4530   41.9520 C   0  0  0  0  0  0  0  0  0  0  0  0
   44.6060   25.7770   42.0090 C   0  0  0  0  0  0  0  0  0  0  0  0
   45.0380   25.4280   43.2890 C   0  0  0  0  0  0  0  0  0  0  0  0
   46.1300   24.8080   43.3930 O   0  0  0  0  0  0  0  0  0  0  0  0
   44.3460   25.7190   44.4280 N   0  0  0  0  0  0  0  0  0  0  0  0
   43.1910   26.3750   44.3110 C   0  0  0  0  0  0  0  0  0  0  0  0
   42.5380   26.6560   45.3220 O   0  0  0  0  0  0  0  0  0  0  0  0
   37.6840   31.7440   37.7720 C   0  0  0  0  0  0  0  0  0  0  0  0
   37.0440   32.8620   38.2420 F   0  0  0  0  0  0  0  0  0  0  0  0
   38.5960   32.0990   36.8230 F   0  0  0  0  0  0  0  0  0  0  0  0
   36.7030   30.9410   37.1950 F   0  0  0  0  0  0  0  0  0  0  0  0
   38.5120   27.4130   39.7580 C   0  0  0  0  0  0  0  0  0  0  0  0
   39.7390   26.6320   39.4020 C   0  0  0  0  0  0  0  0  0  0  0  0
   37.5850   27.2260   38.5100 C   0  0  0  0  0  0  0  0  0  0  0  0
   37.7090   26.8560   40.8840 C   0  0  0  0  0  0  0  0  0  0  0  0
   37.7400   25.3820   40.9920 C   0  0  0  0  0  0  0  0  0  0  0  0
   37.3490   24.2080   40.4050 C   0  0  0  0  0  0  0  0  0  0  0  0
   37.7550   23.0870   41.0920 C   0  0  0  0  0  0  0  0  0  0  0  0
   38.4160   23.6250   42.1300 N   0  0  0  0  0  0  0  0  0  0  0  0
   38.4180   24.9230   42.0900 N   0  0  0  0  0  0  0  0  0  0  0  0
   40.1500   31.4814   41.5852 H   0  0  0  0  0  0  0  0  0  0  0  0
   42.9936   26.7666   40.9821 H   0  0  0  0  0  0  0  0  0  0  0  0
   45.1838   25.5291   41.1064 H   0  0  0  0  0  0  0  0  0  0  0  0
   44.7054   25.4400   45.3520 H   0  0  0  0  0  0  0  0  0  0  0  0
   40.2475   26.3084   40.3222 H   0  0  0  0  0  0  0  0  0  0  0  0
   39.4532   25.7493   38.8111 H   0  0  0  0  0  0  0  0  0  0  0  0
   40.4177   27.2646   38.8111 H   0  0  0  0  0  0  0  0  0  0  0  0
   36.5577   27.0188   38.8441 H   0  0  0  0  0  0  0  0  0  0  0  0
   37.5955   28.1443   37.9046 H   0  0  0  0  0  0  0  0  0  0  0  0
   37.9507   26.3835   37.9046 H   0  0  0  0  0  0  0  0  0  0  0  0
   38.0970   27.2770   41.8232 H   0  0  0  0  0  0  0  0  0  0  0  0
   36.6626   27.1321   40.6871 H   0  0  0  0  0  0  0  0  0  0  0  0
   36.7660   24.1653   39.4732 H   0  0  0  0  0  0  0  0  0  0  0  0
   37.5831   22.0270   40.8534 H   0  0  0  0  0  0  0  0  0  0  0  0
   38.8688   23.0722   42.8718 H   0  0  0  0  0  0  0  0  0  0  0  0
  1  2  2  0
  2  7  1  0
  3  2  1  0
  4  3  2  0
  5  4  1  0
  5  6  2  0
  6  1  1  0
  7  8  2  0
  8  9  1  0
 10 12  1  0
 10  9  1  0
 11  7  1  0
 11 10  2  0
 12 18  1  0
 13 14  2  0
 13 12  1  0
 14 15  1  0
 15 16  2  0
 15 17  1  0
 18 17  1  0
 18 19  2  0
 20 21  1  0
 20  5  1  0
 22 20  1  0
 23 20  1  0
 24  3  1  0
 24 27  1  0
 25 24  1  0
 26 24  1  0
 27 28  1  0
 28 32  2  0
 29 28  1  0
 29 30  2  0
 30 31  1  0
 32 31  1  0
  1 33  1  0
 13 34  1  0
 14 35  1  0
 17 36  1  0
 25 37  1  0
 25 38  1  0
 25 39  1  0
 26 40  1  0
 26 41  1  0
 26 42  1  0
 27 43  1  0
 27 44  1  0
 29 45  1  0
 30 46  1  0
 31 47  1  0
M  ISO  8  33  14  34  14  35  14  36   9  37   8  38   8  39   8  40   8
M  ISO  7  41   8  42   8  43   8  44   8  45  14  46  14  47   9
M  END
>  <minimizedAffinity>  (1) 
-5.53264618

>  <minimizedRMSD>  (1) 
1.34751093

$$$$
