
     RDKit          3D

 41 43  0  0  0  0  0  0  0  0999 V2000
   39.0380   30.6300   41.7960 C   0  0  0  0  0  0  0  0  0  0  0  0
   39.4060   29.2960   41.6650 C   0  0  0  0  0  0  0  0  0  0  0  0
   38.9980   28.5920   40.5210 C   0  0  0  0  0  0  0  0  0  0  0  0
   38.2480   29.3230   39.6150 N   0  0  0  0  0  0  0  0  0  0  0  0
   37.9250   30.6000   39.7930 C   0  0  0  0  0  0  0  0  0  0  0  0
   38.3150   31.2500   40.8710 N   0  0  0  0  0  0  0  0  0  0  0  0
   40.1910   28.5380   42.6160 C   0  0  0  0  0  0  0  0  0  0  0  0
   39.8400   27.6550   43.5310 N   0  0  0  0  0  0  0  0  0  0  0  0
   40.8660   27.2130   44.1720 O   0  0  0  0  0  0  0  0  0  0  0  0
   41.9540   27.7770   43.7160 C   0  0  0  0  0  0  0  0  0  0  0  0
   41.5460   28.6050   42.7470 N   0  0  0  0  0  0  0  0  0  0  0  0
   43.3380   27.6880   44.0250 N   0  0  0  0  0  0  0  0  0  0  0  0
   44.1880   28.0760   43.0740 C   0  0  0  0  0  0  0  0  0  0  0  0
   45.5450   28.0230   43.2970 C   0  0  0  0  0  0  0  0  0  0  0  0
   45.9240   27.5470   44.5590 C   0  0  0  0  0  0  0  0  0  0  0  0
   47.1530   27.4810   44.8100 O   0  0  0  0  0  0  0  0  0  0  0  0
   45.0360   27.1570   45.5130 N   0  0  0  0  0  0  0  0  0  0  0  0
   43.7400   27.2320   45.2360 C   0  0  0  0  0  0  0  0  0  0  0  0
   42.9030   26.8850   46.0830 O   0  0  0  0  0  0  0  0  0  0  0  0
   37.1190   31.2400   38.7310 C   0  0  0  0  0  0  0  0  0  0  0  0
   36.6510   32.4620   39.1690 F   0  0  0  0  0  0  0  0  0  0  0  0
   37.8610   31.4040   37.5920 F   0  0  0  0  0  0  0  0  0  0  0  0
   35.9970   30.4530   38.4400 F   0  0  0  0  0  0  0  0  0  0  0  0
   39.2700   27.1770   40.1840 C   0  0  0  0  0  0  0  0  0  0  0  0
   40.7370   26.8420   40.0270 C   0  0  0  0  0  0  0  0  0  0  0  0
   38.7340   26.9520   38.7230 C   0  0  0  0  0  0  0  0  0  0  0  0
   38.5360   26.1850   40.9940 C   0  0  0  0  0  0  0  0  0  0  0  0
   39.3680   25.2710   41.6530 O   0  0  0  0  0  0  0  0  0  0  0  0
   39.3543   31.1871   42.6902 H   0  0  0  0  0  0  0  0  0  0  0  0
   43.8040   28.4392   42.1093 H   0  0  0  0  0  0  0  0  0  0  0  0
   46.2794   28.3322   42.5387 H   0  0  0  0  0  0  0  0  0  0  0  0
   45.3612   26.8121   46.4274 H   0  0  0  0  0  0  0  0  0  0  0  0
   41.1975   26.7369   41.0204 H   0  0  0  0  0  0  0  0  0  0  0  0
   40.8401   25.8972   39.4732 H   0  0  0  0  0  0  0  0  0  0  0  0
   41.2400   27.6484   39.4732 H   0  0  0  0  0  0  0  0  0  0  0  0
   37.7205   26.5266   38.7657 H   0  0  0  0  0  0  0  0  0  0  0  0
   38.7056   27.9142   38.1906 H   0  0  0  0  0  0  0  0  0  0  0  0
   39.4009   26.2579   38.1906 H   0  0  0  0  0  0  0  0  0  0  0  0
   37.9437   26.7227   41.7490 H   0  0  0  0  0  0  0  0  0  0  0  0
   37.9067   25.6064   40.3018 H   0  0  0  0  0  0  0  0  0  0  0  0
   39.2684   25.3804   42.6319 H   0  0  0  0  0  0  0  0  0  0  0  0
  2  1  2  0
  2  7  1  0
  3  2  1  0
  4  5  1  0
  4  3  2  0
  5  6  2  0
  6  1  1  0
  7 11  1  0
  7  8  2  0
  8  9  1  0
 10 12  1  0
 10  9  1  0
 11 10  2  0
 12 18  1  0
 13 14  2  0
 13 12  1  0
 14 15  1  0
 15 16  2  0
 15 17  1  0
 18 17  1  0
 18 19  2  0
 20 21  1  0
 20  5  1  0
 22 20  1  0
 23 20  1  0
 24  3  1  0
 24 27  1  0
 25 24  1  0
 26 24  1  0
 27 28  1  0
  1 29  1  0
 13 30  1  0
 14 31  1  0
 17 32  1  0
 25 33  1  0
 25 34  1  0
 25 35  1  0
 26 36  1  0
 26 37  1  0
 26 38  1  0
 27 39  1  0
 27 40  1  0
 28 41  1  0
M  ISO  8  29  14  30  14  31  14  32   9  33   8  34   8  35   8  36   8
M  ISO  5  37   8  38   8  39   8  40   8  41   3
M  END
>  <minimizedAffinity>  (1) 
-4.6757884

>  <minimizedRMSD>  (1) 
0.398420006

$$$$
