
     RDKit          3D

 18 19  0  0  0  0  0  0  0  0999 V2000
   36.7220   31.2880   39.6160 C   0  0  0  0  0  0  0  0  0  0  0  0
   35.9260   30.6220   40.5600 C   0  0  0  0  0  0  0  0  0  0  0  0
   35.3370   29.4120   40.2000 C   0  0  0  0  0  0  0  0  0  0  0  0
   35.5670   28.9450   38.9450 N   0  0  0  0  0  0  0  0  0  0  0  0
   36.3410   29.6110   38.0510 C   0  0  0  0  0  0  0  0  0  0  0  0
   36.9160   30.7820   38.3890 N   0  0  0  0  0  0  0  0  0  0  0  0
   37.3800   32.5280   39.8540 N   0  0  0  0  0  0  0  0  0  0  0  0
   37.2800   33.8070   39.4750 C   0  0  0  0  0  0  0  0  0  0  0  0
   38.2700   34.5050   40.1050 N   0  0  0  0  0  0  0  0  0  0  0  0
   38.9660   33.6220   40.8680 C   0  0  0  0  0  0  0  0  0  0  0  0
   38.3920   32.4170   40.6890 N   0  0  0  0  0  0  0  0  0  0  0  0
   35.7690   31.2090   41.8160 N   0  0  0  0  0  0  0  0  0  0  0  0
   34.7070   28.8535   40.9079 H   0  0  0  0  0  0  0  0  0  0  0  0
   36.4997   29.1931   37.0459 H   0  0  0  0  0  0  0  0  0  0  0  0
   36.5344   34.2217   38.7807 H   0  0  0  0  0  0  0  0  0  0  0  0
   39.8314   33.8479   41.5084 H   0  0  0  0  0  0  0  0  0  0  0  0
   35.1912   30.7462   42.5321 H   0  0  0  0  0  0  0  0  0  0  0  0
   36.2309   32.1051   42.0271 H   0  0  0  0  0  0  0  0  0  0  0  0
  1  7  1  0
  1  2  2  0
  2 12  1  0
  3  2  1  0
  4  3  2  0
  5  6  2  0
  5  4  1  0
  6  1  1  0
  7 11  1  0
  8  7  1  0
  8  9  2  0
  9 10  1  0
 11 10  2  0
  3 13  1  0
  5 14  1  0
  8 15  1  0
 10 16  1  0
 12 17  1  0
 12 18  1  0
M  ISO  4  13  14  14  14  15  14  16  14
M  END
>  <minimizedAffinity>  (1) 
-3.93760777

>  <minimizedRMSD>  (1) 
0.898246229

$$$$
