
     RDKit          3D

 23 25  0  0  0  0  0  0  0  0999 V2000
   37.3190   29.2700   41.2370 C   0  0  0  0  0  0  0  0  0  0  0  0
   38.2430   29.6520   42.2400 C   0  0  0  0  0  0  0  0  0  0  0  0
   38.2010   28.9490   43.4600 C   0  0  0  0  0  0  0  0  0  0  0  0
   37.2890   27.9620   43.5940 N   0  0  0  0  0  0  0  0  0  0  0  0
   36.4220   27.6270   42.6060 C   0  0  0  0  0  0  0  0  0  0  0  0
   36.4410   28.2780   41.4420 N   0  0  0  0  0  0  0  0  0  0  0  0
   37.2520   29.8960   39.9620 N   0  0  0  0  0  0  0  0  0  0  0  0
   36.6360   30.9710   39.4110 C   0  0  0  0  0  0  0  0  0  0  0  0
   37.0090   31.0140   38.1080 N   0  0  0  0  0  0  0  0  0  0  0  0
   37.8540   29.9560   37.8800 C   0  0  0  0  0  0  0  0  0  0  0  0
   37.9750   29.2920   39.0570 N   0  0  0  0  0  0  0  0  0  0  0  0
   39.1770   30.7450   41.9510 C   0  0  0  0  0  0  0  0  0  0  0  0
   40.5570   30.2560   41.4810 C   0  0  0  0  0  0  0  0  0  0  0  0
   40.3770   31.0350   42.7350 C   0  0  0  0  0  0  0  0  0  0  0  0
   38.8912   29.1968   44.2799 H   0  0  0  0  0  0  0  0  0  0  0  0
   35.6989   26.8136   42.7657 H   0  0  0  0  0  0  0  0  0  0  0  0
   35.9624   31.6739   39.9231 H   0  0  0  0  0  0  0  0  0  0  0  0
   38.3390   29.6969   36.9273 H   0  0  0  0  0  0  0  0  0  0  0  0
   38.3563   31.4017   41.6265 H   0  0  0  0  0  0  0  0  0  0  0  0
   40.8117   29.1867   41.5224 H   0  0  0  0  0  0  0  0  0  0  0  0
   41.1625   30.3562   40.5681 H   0  0  0  0  0  0  0  0  0  0  0  0
   40.7520   32.0677   42.7901 H   0  0  0  0  0  0  0  0  0  0  0  0
   40.6601   30.8640   43.7841 H   0  0  0  0  0  0  0  0  0  0  0  0
  1  6  2  0
  1  2  1  0
  2  3  2  0
  3  4  1  0
  5  4  2  0
  6  5  1  0
  7  1  1  0
  8  7  1  0
  9  8  2  0
 10  9  1  0
 10 11  2  0
 11  7  1  0
 12  2  1  0
 12 14  1  0
 13 12  1  0
 13 14  1  0
  3 15  1  0
  5 16  1  0
  8 17  1  0
 10 18  1  0
 12 19  1  0
 13 20  1  0
 13 21  1  0
 14 22  1  0
 14 23  1  0
M  ISO  8  15  14  16  14  17  14  18  14  19  13  20  13  21  13  22  13
M  ISO  1  23  13
M  END
>  <minimizedAffinity>  (1) 
-3.6942699

>  <minimizedRMSD>  (1) 
4.15776825

$$$$
