
     RDKit          3D

 27 29  0  0  0  0  0  0  0  0999 V2000
   37.5120   28.5580   43.4890 C   0  0  0  0  0  0  0  0  0  0  0  0
   37.2310   27.2310   43.0860 C   0  0  0  0  0  0  0  0  0  0  0  0
   36.9230   27.0140   41.7480 C   0  0  0  0  0  0  0  0  0  0  0  0
   36.9040   28.0810   40.8830 N   0  0  0  0  0  0  0  0  0  0  0  0
   37.1780   29.3260   41.3150 C   0  0  0  0  0  0  0  0  0  0  0  0
   37.4760   29.5580   42.5910 N   0  0  0  0  0  0  0  0  0  0  0  0
   37.1710   30.4520   40.4590 N   0  0  0  0  0  0  0  0  0  0  0  0
   37.5900   31.5910   40.9830 N   0  0  0  0  0  0  0  0  0  0  0  0
   37.5260   32.5730   40.0540 C   0  0  0  0  0  0  0  0  0  0  0  0
   37.0400   31.9720   38.9160 C   0  0  0  0  0  0  0  0  0  0  0  0
   36.8110   30.6290   39.1610 C   0  0  0  0  0  0  0  0  0  0  0  0
   36.3420   29.5140   38.4540 N   0  0  0  0  0  0  0  0  0  0  0  0
   35.0120   29.2370   38.5570 C   0  0  0  0  0  0  0  0  0  0  0  0
   34.5650   28.1320   37.8520 C   0  0  0  0  0  0  0  0  0  0  0  0
   35.3820   27.3250   37.0750 C   0  0  0  0  0  0  0  0  0  0  0  0
   34.9520   26.3320   36.4490 O   0  0  0  0  0  0  0  0  0  0  0  0
   36.6760   27.6970   37.0510 N   0  0  0  0  0  0  0  0  0  0  0  0
   37.1660   28.7490   37.7070 C   0  0  0  0  0  0  0  0  0  0  0  0
   38.3930   29.0520   37.6480 O   0  0  0  0  0  0  0  0  0  0  0  0
   37.7604   28.7718   44.5390 H   0  0  0  0  0  0  0  0  0  0  0  0
   37.2554   26.4001   43.8064 H   0  0  0  0  0  0  0  0  0  0  0  0
   36.6972   26.0001   41.3862 H   0  0  0  0  0  0  0  0  0  0  0  0
   37.8041   33.6295   40.1819 H   0  0  0  0  0  0  0  0  0  0  0  0
   36.8607   32.4810   37.9575 H   0  0  0  0  0  0  0  0  0  0  0  0
   34.3335   29.8544   39.1641 H   0  0  0  0  0  0  0  0  0  0  0  0
   33.4962   27.8790   37.9121 H   0  0  0  0  0  0  0  0  0  0  0  0
   37.3293   27.1323   36.4896 H   0  0  0  0  0  0  0  0  0  0  0  0
  2  1  2  0
  3  2  1  0
  4  5  1  0
  4  3  2  0
  5  6  2  0
  6  1  1  0
  7  8  1  0
  7  5  1  0
  9  8  2  0
 10 11  2  0
 10  9  1  0
 11  7  1  0
 12 13  1  0
 12 11  1  0
 14 13  2  0
 15 14  1  0
 16 15  2  0
 17 15  1  0
 17 18  1  0
 18 12  1  0
 19 18  2  0
  1 20  1  0
  2 21  1  0
  3 22  1  0
  9 23  1  0
 10 24  1  0
 13 25  1  0
 14 26  1  0
 17 27  1  0
M  ISO  8  20  14  21  14  22  14  23  14  24  14  25  14  26  14  27   9
M  END
>  <minimizedAffinity>  (1) 
-4.67939568

>  <minimizedRMSD>  (1) 
2.28078294

$$$$
