
     RDKit          3D

 29 31  0  0  0  0  0  0  0  0999 V2000
   38.2260   30.4610   39.6080 C   0  0  0  0  0  0  0  0  0  0  0  0
   37.4250   31.4780   40.1230 C   0  0  0  0  0  0  0  0  0  0  0  0
   36.2870   31.1150   40.8560 C   0  0  0  0  0  0  0  0  0  0  0  0
   36.0380   29.7850   41.0190 N   0  0  0  0  0  0  0  0  0  0  0  0
   36.8280   28.8320   40.5110 C   0  0  0  0  0  0  0  0  0  0  0  0
   37.9260   29.1520   39.8040 N   0  0  0  0  0  0  0  0  0  0  0  0
   39.4030   30.6790   38.8500 N   0  0  0  0  0  0  0  0  0  0  0  0
   39.7620   30.9480   37.5940 C   0  0  0  0  0  0  0  0  0  0  0  0
   41.1070   31.0420   37.5180 N   0  0  0  0  0  0  0  0  0  0  0  0
   41.5840   30.8170   38.7900 C   0  0  0  0  0  0  0  0  0  0  0  0
   40.5130   30.6000   39.5710 N   0  0  0  0  0  0  0  0  0  0  0  0
   37.7620   32.8780   39.9030 C   0  0  0  0  0  0  0  0  0  0  0  0
   38.7200   33.3220   40.9960 C   0  0  0  0  0  0  0  0  0  0  0  0
   39.5480   34.3600   40.4080 N   0  0  0  0  0  0  0  0  0  0  0  0
   40.6600   34.1460   39.6990 N   0  0  0  0  0  0  0  0  0  0  0  0
   41.2010   35.3050   39.2910 C   0  0  0  0  0  0  0  0  0  0  0  0
   40.3850   36.3080   39.7710 C   0  0  0  0  0  0  0  0  0  0  0  0
   39.3630   35.6900   40.4620 C   0  0  0  0  0  0  0  0  0  0  0  0
   35.6186   31.8764   41.2845 H   0  0  0  0  0  0  0  0  0  0  0  0
   36.5761   27.7737   40.6738 H   0  0  0  0  0  0  0  0  0  0  0  0
   39.0687   31.0740   36.7493 H   0  0  0  0  0  0  0  0  0  0  0  0
   42.6378   30.8153   39.1054 H   0  0  0  0  0  0  0  0  0  0  0  0
   38.2416   32.9939   38.9199 H   0  0  0  0  0  0  0  0  0  0  0  0
   36.8504   33.4931   39.9287 H   0  0  0  0  0  0  0  0  0  0  0  0
   38.1607   33.7207   41.8552 H   0  0  0  0  0  0  0  0  0  0  0  0
   39.3283   32.4822   41.3630 H   0  0  0  0  0  0  0  0  0  0  0  0
   42.1150   35.4300   38.6919 H   0  0  0  0  0  0  0  0  0  0  0  0
   40.5223   37.3903   39.6303 H   0  0  0  0  0  0  0  0  0  0  0  0
   38.5338   36.2015   40.9727 H   0  0  0  0  0  0  0  0  0  0  0  0
  1  6  2  0
  1  2  1  0
  2  3  2  0
  3  4  1  0
  5  4  2  0
  6  5  1  0
  7 11  1  0
  7  1  1  0
  8  7  1  0
  9  8  2  0
  9 10  1  0
 10 11  2  0
 12  2  1  0
 12 13  1  0
 14 18  1  0
 14 13  1  0
 15 14  1  0
 16 15  2  0
 16 17  1  0
 17 18  2  0
  3 19  1  0
  5 20  1  0
  8 21  1  0
 10 22  1  0
 12 23  1  0
 12 24  1  0
 13 25  1  0
 13 26  1  0
 16 27  1  0
 17 28  1  0
 18 29  1  0
M  ISO  8  19  14  20  14  21  14  22  14  23   8  24   8  25   8  26   8
M  ISO  3  27  14  28  14  29  14
M  END
>  <minimizedAffinity>  (1) 
-4.40130997

>  <minimizedRMSD>  (1) 
2.65066123

$$$$
