
     RDKit          3D

 52 56  0  0  1  0  0  0  0  0999 V2000
   39.7460   30.1710   41.9050 C   0  0  0  0  0  0  0  0  0  0  0  0
   38.8710   30.7840   40.9750 C   0  0  0  0  0  0  0  0  0  0  0  0
   37.5140   30.5750   41.1250 C   0  0  0  0  0  0  0  0  0  0  0  0
   37.1150   29.7800   42.1750 N   0  0  0  0  0  0  0  0  0  0  0  0
   37.9700   29.2310   43.0130 C   0  0  0  0  0  0  0  0  0  0  0  0
   39.3020   29.4100   42.9040 N   0  0  0  0  0  0  0  0  0  0  0  0
   41.1590   30.3190   41.8380 N   0  0  0  0  0  0  0  0  0  0  0  0
   42.1780   29.7670   41.1450 C   0  0  0  0  0  0  0  0  0  0  0  0
   43.3230   30.3380   41.5510 N   0  0  0  0  0  0  0  0  0  0  0  0
   42.9940   31.2600   42.5130 C   0  0  0  0  0  0  0  0  0  0  0  0
   41.6440   31.2130   42.6560 N   0  0  0  0  0  0  0  0  0  0  0  0
   43.9270   32.1380   43.2530 C   0  0  0  0  0  0  0  0  0  0  0  0
   44.8530   31.7860   44.2090 C   0  0  0  0  0  0  0  0  0  0  0  0
   45.4660   32.9180   44.5940 N   0  0  0  0  0  0  0  0  0  0  0  0
   44.9740   33.9960   43.9230 C   0  0  0  0  0  0  0  0  0  0  0  0
   45.3060   35.3480   43.9970 C   0  0  0  0  0  0  0  0  0  0  0  0
   44.6070   36.2060   43.1690 C   0  0  0  0  0  0  0  0  0  0  0  0
   43.6150   35.7830   42.2890 C   0  0  0  0  0  0  0  0  0  0  0  0
   43.3630   34.4320   42.2930 C   0  0  0  0  0  0  0  0  0  0  0  0
   43.9990   33.4900   43.0760 C   0  0  0  0  0  0  0  0  0  0  0  0
   39.4030   31.6120   39.8990 C   0  0  0  0  0  0  0  0  0  0  0  0
   38.9520   33.0490   40.1030 C   0  0  0  0  0  0  0  0  0  0  0  0
   39.9790   33.9760   39.7340 N   0  0  0  0  0  0  0  0  0  0  0  0
   40.0170   35.1350   40.5440 C   0  0  0  0  0  0  0  0  0  0  0  0
   40.7120   36.2680   39.8680 C   0  0  0  0  0  0  0  0  0  0  0  0
   41.5460   35.8200   38.8110 N   0  0  0  0  0  0  0  0  0  0  0  0
   42.1870   34.5640   39.0610 C   0  0  0  0  0  0  0  0  0  0  0  0
   41.1750   33.4340   39.2750 C   0  0  2  0  0  0  0  0  0  0  0  0
   41.0110   32.8790   37.9090 C   0  0  0  0  0  0  0  0  0  0  0  0
   41.4490   33.4240   36.9010 O   0  0  0  0  0  0  0  0  0  0  0  0
   36.7842   31.0243   40.4354 H   0  0  0  0  0  0  0  0  0  0  0  0
   37.5839   28.6044   43.8305 H   0  0  0  0  0  0  0  0  0  0  0  0
   42.0856   28.9833   40.3787 H   0  0  0  0  0  0  0  0  0  0  0  0
   45.0528   30.7720   44.5856 H   0  0  0  0  0  0  0  0  0  0  0  0
   46.2108   32.9643   45.3040 H   0  0  0  0  0  0  0  0  0  0  0  0
   46.0860   35.7140   44.6808 H   0  0  0  0  0  0  0  0  0  0  0  0
   44.8471   37.2788   43.2075 H   0  0  0  0  0  0  0  0  0  0  0  0
   43.0708   36.4812   41.6360 H   0  0  0  0  0  0  0  0  0  0  0  0
   42.5823   34.0678   41.6090 H   0  0  0  0  0  0  0  0  0  0  0  0
   39.0297   31.2432   38.9323 H   0  0  0  0  0  0  0  0  0  0  0  0
   40.5020   31.5655   39.9064 H   0  0  0  0  0  0  0  0  0  0  0  0
   38.0619   33.2360   39.4844 H   0  0  0  0  0  0  0  0  0  0  0  0
   38.7232   33.1921   41.1694 H   0  0  0  0  0  0  0  0  0  0  0  0
   38.9859   35.4393   40.7767 H   0  0  0  0  0  0  0  0  0  0  0  0
   40.5767   34.8911   41.4590 H   0  0  0  0  0  0  0  0  0  0  0  0
   39.9570   36.9554   39.4588 H   0  0  0  0  0  0  0  0  0  0  0  0
   41.3452   36.7733   40.6121 H   0  0  0  0  0  0  0  0  0  0  0  0
   42.2759   36.5293   38.6527 H   0  0  0  0  0  0  0  0  0  0  0  0
   42.8229   34.3124   38.1994 H   0  0  0  0  0  0  0  0  0  0  0  0
   42.7827   34.6643   39.9803 H   0  0  0  0  0  0  0  0  0  0  0  0
   41.4865   32.6767   40.0095 H   0  0  0  0  0  0  0  0  0  0  0  0
   40.4683   31.9291   37.7940 H   0  0  0  0  0  0  0  0  0  0  0  0
  1  6  2  0
  2  3  2  0
  2  1  1  0
  3  4  1  0
  4  5  2  0
  6  5  1  0
  7  1  1  0
  7 11  1  0
  8  9  2  0
  8  7  1  0
  9 10  1  0
 10 11  2  0
 10 12  1  0
 12 13  2  0
 13 14  1  0
 15 16  2  0
 15 14  1  0
 17 16  1  0
 18 19  1  0
 18 17  2  0
 19 20  2  0
 20 12  1  0
 20 15  1  0
 21 22  1  0
 21  2  1  0
 23 22  1  0
 23 24  1  0
 25 24  1  0
 26 27  1  0
 26 25  1  0
 27 28  1  0
 28 23  1  0
 29 28  1  0
 30 29  2  0
  3 31  1  0
  5 32  1  0
  8 33  1  0
 13 34  1  0
 14 35  1  0
 16 36  1  0
 17 37  1  0
 18 38  1  0
 19 39  1  0
 21 40  1  0
 21 41  1  0
 22 42  1  0
 22 43  1  0
 24 44  1  0
 24 45  1  0
 25 46  1  0
 25 47  1  0
 26 48  1  0
 27 49  1  0
 27 50  1  0
 28 51  1  1
 29 52  1  0
M  ISO  8  31  14  32  14  33  14  34  14  35   9  36  14  37  14  38  14
M  ISO  8  39  14  40   8  41   8  42   8  43   8  44  13  45  13  46  13
M  ISO  6  47  13  48   5  49  13  50  13  51  13  52   6
M  END
>  <minimizedAffinity>  (1) 
-6.32680798

>  <minimizedRMSD>  (1) 
1.51183093

$$$$
