
     RDKit          3D

 45 48  0  0  1  0  0  0  0  0999 V2000
   38.5640   32.2370   39.4000 C   0  0  0  0  0  0  0  0  0  0  0  0
   38.6390   30.3420   41.0210 C   0  0  0  0  0  0  0  0  0  0  0  0
   37.8900   31.2430   40.2270 C   0  0  0  0  0  0  0  0  0  0  0  0
   36.5120   31.1500   40.2570 C   0  0  0  0  0  0  0  0  0  0  0  0
   35.9730   30.1770   41.0700 N   0  0  0  0  0  0  0  0  0  0  0  0
   36.7080   29.3640   41.7890 C   0  0  0  0  0  0  0  0  0  0  0  0
   38.0560   29.4200   41.7890 N   0  0  0  0  0  0  0  0  0  0  0  0
   40.0580   30.3530   41.0560 N   0  0  0  0  0  0  0  0  0  0  0  0
   41.0730   29.8800   40.3070 C   0  0  0  0  0  0  0  0  0  0  0  0
   42.2340   30.2250   40.8990 N   0  0  0  0  0  0  0  0  0  0  0  0
   41.9190   30.9180   42.0270 C   0  0  0  0  0  0  0  0  0  0  0  0
   40.5630   30.9750   42.0870 N   0  0  0  0  0  0  0  0  0  0  0  0
   42.9380   31.4360   42.8990 C   0  0  0  0  0  0  0  0  0  0  0  0
   43.3800   30.9420   44.1270 C   0  0  0  0  0  0  0  0  0  0  0  0
   44.3700   31.5960   44.7940 C   0  0  0  0  0  0  0  0  0  0  0  0
   44.9260   32.7500   44.2380 C   0  0  0  0  0  0  0  0  0  0  0  0
   43.9750   32.9460   42.6250 S   0  0  0  0  0  0  0  0  0  0  0  0
   38.2550   33.6270   39.9410 C   0  0  0  0  0  0  0  0  0  0  0  0
   39.3950   34.4810   39.8890 N   0  0  0  0  0  0  0  0  0  0  0  0
   39.2050   35.7250   40.5600 C   0  0  0  0  0  0  0  0  0  0  0  0
   40.1670   36.7590   40.0770 C   0  0  0  0  0  0  0  0  0  0  0  0
   41.3080   36.1700   39.4440 N   0  0  0  0  0  0  0  0  0  0  0  0
   41.7290   34.9360   40.0410 C   0  0  0  0  0  0  0  0  0  0  0  0
   40.6400   33.8620   39.9690 C   0  0  2  0  0  0  0  0  0  0  0  0
   40.9560   33.1550   38.7040 C   0  0  0  0  0  0  0  0  0  0  0  0
   41.5270   33.6910   37.7610 O   0  0  0  0  0  0  0  0  0  0  0  0
   38.2061   32.1573   38.3629 H   0  0  0  0  0  0  0  0  0  0  0  0
   39.6500   32.0633   39.4225 H   0  0  0  0  0  0  0  0  0  0  0  0
   35.8758   31.8204   39.6606 H   0  0  0  0  0  0  0  0  0  0  0  0
   36.2082   28.6096   42.4143 H   0  0  0  0  0  0  0  0  0  0  0  0
   40.9717   29.3096   39.3719 H   0  0  0  0  0  0  0  0  0  0  0  0
   42.9321   30.0318   44.5523 H   0  0  0  0  0  0  0  0  0  0  0  0
   44.7291   31.2187   45.7629 H   0  0  0  0  0  0  0  0  0  0  0  0
   45.7246   33.3886   44.6434 H   0  0  0  0  0  0  0  0  0  0  0  0
   37.4490   34.0722   39.3392 H   0  0  0  0  0  0  0  0  0  0  0  0
   37.9524   33.5246   40.9936 H   0  0  0  0  0  0  0  0  0  0  0  0
   38.1793   36.0773   40.3762 H   0  0  0  0  0  0  0  0  0  0  0  0
   39.3780   35.5676   41.6348 H   0  0  0  0  0  0  0  0  0  0  0  0
   39.6554   37.4108   39.3535 H   0  0  0  0  0  0  0  0  0  0  0  0
   40.5175   37.3328   40.9476 H   0  0  0  0  0  0  0  0  0  0  0  0
   42.0895   36.8390   39.4959 H   0  0  0  0  0  0  0  0  0  0  0  0
   42.6220   34.5721   39.5117 H   0  0  0  0  0  0  0  0  0  0  0  0
   41.9458   35.1289   41.1020 H   0  0  0  0  0  0  0  0  0  0  0  0
   40.6095   33.1883   40.8380 H   0  0  0  0  0  0  0  0  0  0  0  0
   40.6639   32.0989   38.6074 H   0  0  0  0  0  0  0  0  0  0  0  0
  1 18  1  0
  1  3  1  0
  2  8  1  0
  2  7  2  0
  3  4  2  0
  3  2  1  0
  4  5  1  0
  5  6  2  0
  7  6  1  0
  8 12  1  0
  9 10  2  0
  9  8  1  0
 10 11  1  0
 11 12  2  0
 11 13  1  0
 13 14  2  0
 14 15  1  0
 16 15  2  0
 17 13  1  0
 17 16  1  0
 19 18  1  0
 19 24  1  0
 19 20  1  0
 21 20  1  0
 22 23  1  0
 22 21  1  0
 24 23  1  0
 25 24  1  0
 26 25  2  0
  1 27  1  0
  1 28  1  0
  4 29  1  0
  6 30  1  0
  9 31  1  0
 14 32  1  0
 15 33  1  0
 16 34  1  0
 18 35  1  0
 18 36  1  0
 20 37  1  0
 20 38  1  0
 21 39  1  0
 21 40  1  0
 22 41  1  0
 23 42  1  0
 23 43  1  0
 24 44  1  1
 25 45  1  0
M  ISO  8  27   8  28   8  29  14  30  14  31  14  32  14  33  14  34  14
M  ISO  8  35   8  36   8  37  13  38  13  39  13  40  13  41   5  42  13
M  ISO  3  43  13  44  13  45   6
M  END
>  <minimizedAffinity>  (1) 
-5.40727758

>  <minimizedRMSD>  (1) 
0.771697283

$$$$
