
     RDKit          3D

 45 48  0  0  1  0  0  0  0  0999 V2000
   39.5060   31.4090   39.5450 C   0  0  0  0  0  0  0  0  0  0  0  0
   39.8290   30.3290   41.7610 C   0  0  0  0  0  0  0  0  0  0  0  0
   38.9680   30.7240   40.7090 C   0  0  0  0  0  0  0  0  0  0  0  0
   37.6170   30.4400   40.8300 C   0  0  0  0  0  0  0  0  0  0  0  0
   37.2160   29.7910   41.9730 N   0  0  0  0  0  0  0  0  0  0  0  0
   38.0590   29.4450   42.9240 C   0  0  0  0  0  0  0  0  0  0  0  0
   39.3830   29.7020   42.8470 N   0  0  0  0  0  0  0  0  0  0  0  0
   41.2330   30.5740   41.7310 N   0  0  0  0  0  0  0  0  0  0  0  0
   42.3140   30.0070   41.1920 C   0  0  0  0  0  0  0  0  0  0  0  0
   43.3960   30.7230   41.5440 N   0  0  0  0  0  0  0  0  0  0  0  0
   42.9520   31.7510   42.3190 C   0  0  0  0  0  0  0  0  0  0  0  0
   41.6030   31.6230   42.4100 N   0  0  0  0  0  0  0  0  0  0  0  0
   43.7990   32.7420   42.8940 N   0  0  0  0  0  0  0  0  0  0  0  0
   43.8410   34.0110   42.5450 N   0  0  0  0  0  0  0  0  0  0  0  0
   44.7470   34.6720   43.2840 C   0  0  0  0  0  0  0  0  0  0  0  0
   45.2720   33.7140   44.1250 C   0  0  0  0  0  0  0  0  0  0  0  0
   44.6790   32.4930   43.8850 C   0  0  0  0  0  0  0  0  0  0  0  0
   38.7930   32.7380   39.3670 C   0  0  0  0  0  0  0  0  0  0  0  0
   39.6990   33.8340   39.5500 N   0  0  0  0  0  0  0  0  0  0  0  0
   39.2870   34.7420   40.5690 C   0  0  0  0  0  0  0  0  0  0  0  0
   39.9280   36.0810   40.4040 C   0  0  0  0  0  0  0  0  0  0  0  0
   41.0900   36.0160   39.5750 N   0  0  0  0  0  0  0  0  0  0  0  0
   41.8520   34.8170   39.7650 C   0  0  0  0  0  0  0  0  0  0  0  0
   41.0550   33.5640   39.3980 C   0  0  2  0  0  0  0  0  0  0  0  0
   41.3910   33.3590   37.9620 C   0  0  0  0  0  0  0  0  0  0  0  0
   42.1540   34.1050   37.3560 O   0  0  0  0  0  0  0  0  0  0  0  0
   40.5821   31.5863   39.6884 H   0  0  0  0  0  0  0  0  0  0  0  0
   39.3535   30.7877   38.6502 H   0  0  0  0  0  0  0  0  0  0  0  0
   36.8981   30.7214   40.0465 H   0  0  0  0  0  0  0  0  0  0  0  0
   37.6706   28.9277   43.8137 H   0  0  0  0  0  0  0  0  0  0  0  0
   42.3190   29.1039   40.5640 H   0  0  0  0  0  0  0  0  0  0  0  0
   45.0109   35.7385   43.2303 H   0  0  0  0  0  0  0  0  0  0  0  0
   46.0517   33.8975   44.8789 H   0  0  0  0  0  0  0  0  0  0  0  0
   44.8781   31.5347   44.3870 H   0  0  0  0  0  0  0  0  0  0  0  0
   38.3696   32.7864   38.3529 H   0  0  0  0  0  0  0  0  0  0  0  0
   37.9953   32.8122   40.1208 H   0  0  0  0  0  0  0  0  0  0  0  0
   38.1945   34.8608   40.5209 H   0  0  0  0  0  0  0  0  0  0  0  0
   39.5949   34.3306   41.5416 H   0  0  0  0  0  0  0  0  0  0  0  0
   39.2021   36.7689   39.9459 H   0  0  0  0  0  0  0  0  0  0  0  0
   40.2374   36.4361   41.3981 H   0  0  0  0  0  0  0  0  0  0  0  0
   41.6915   36.8239   39.7904 H   0  0  0  0  0  0  0  0  0  0  0  0
   42.7505   34.8638   39.1321 H   0  0  0  0  0  0  0  0  0  0  0  0
   42.1171   34.7496   40.8304 H   0  0  0  0  0  0  0  0  0  0  0  0
   41.2844   32.6838   40.0165 H   0  0  0  0  0  0  0  0  0  0  0  0
   40.9402   32.5105   37.4264 H   0  0  0  0  0  0  0  0  0  0  0  0
  1  3  1  0
  2  7  2  0
  3  4  2  0
  3  2  1  0
  4  5  1  0
  5  6  2  0
  7  6  1  0
  8  2  1  0
  8 12  1  0
  9 10  2  0
  9  8  1  0
 10 11  1  0
 11 12  2  0
 11 13  1  0
 13 17  1  0
 14 13  1  0
 14 15  2  0
 15 16  1  0
 17 16  2  0
 18  1  1  0
 18 19  1  0
 19 20  1  0
 21 20  1  0
 22 23  1  0
 22 21  1  0
 24 19  1  0
 24 23  1  0
 25 24  1  0
 26 25  2  0
  1 27  1  0
  1 28  1  0
  4 29  1  0
  6 30  1  0
  9 31  1  0
 15 32  1  0
 16 33  1  0
 17 34  1  0
 18 35  1  0
 18 36  1  0
 20 37  1  0
 20 38  1  0
 21 39  1  0
 21 40  1  0
 22 41  1  0
 23 42  1  0
 23 43  1  0
 24 44  1  1
 25 45  1  0
M  ISO  8  27   8  28   8  29  14  30  14  31  14  32  14  33  14  34  14
M  ISO  8  35   8  36   8  37  13  38  13  39  13  40  13  41   5  42  13
M  ISO  3  43  13  44  13  45   6
M  END
>  <minimizedAffinity>  (1) 
-5.3918047

>  <minimizedRMSD>  (1) 
1.60863006

$$$$
