
     RDKit          3D

 47 51  0  0  1  0  0  0  0  0999 V2000
   39.3620   30.2150   40.6650 C   0  0  0  0  0  0  0  0  0  0  0  0
   38.8800   28.1400   41.9450 C   0  0  0  0  0  0  0  0  0  0  0  0
   38.4180   29.2850   41.2710 C   0  0  0  0  0  0  0  0  0  0  0  0
   37.0540   29.5060   41.1930 C   0  0  0  0  0  0  0  0  0  0  0  0
   36.2500   28.5630   41.7950 N   0  0  0  0  0  0  0  0  0  0  0  0
   36.7330   27.4950   42.4220 C   0  0  0  0  0  0  0  0  0  0  0  0
   38.0560   27.2570   42.5120 N   0  0  0  0  0  0  0  0  0  0  0  0
   40.2690   27.8290   42.0800 N   0  0  0  0  0  0  0  0  0  0  0  0
   41.2310   27.2620   41.3620 C   0  0  0  0  0  0  0  0  0  0  0  0
   42.3740   27.2460   42.0590 N   0  0  0  0  0  0  0  0  0  0  0  0
   42.1000   27.8260   43.2520 C   0  0  0  0  0  0  0  0  0  0  0  0
   40.7870   28.1770   43.2320 N   0  0  0  0  0  0  0  0  0  0  0  0
   42.8440   28.1180   44.4090 C   0  0  0  0  0  0  0  0  0  0  0  0
   42.6560   27.0380   45.4470 C   0  0  0  0  0  0  0  0  0  0  0  0
   43.3620   27.2610   46.6140 N   0  0  0  0  0  0  0  0  0  0  0  0
   44.0700   28.4630   46.4920 C   0  0  0  0  0  0  0  0  0  0  0  0
   43.4750   28.3640   45.3920 N   0  0  0  0  0  0  0  0  0  0  0  0
   38.6180   31.1410   39.7210 C   0  0  0  0  0  0  0  0  0  0  0  0
   39.1630   32.4660   39.7360 N   0  0  0  0  0  0  0  0  0  0  0  0
   38.7220   33.2430   40.8420 C   0  0  0  0  0  0  0  0  0  0  0  0
   38.9170   34.7060   40.6040 C   0  0  0  0  0  0  0  0  0  0  0  0
   39.8390   34.9430   39.5530 N   0  0  0  0  0  0  0  0  0  0  0  0
   40.9420   34.0330   39.5410 C   0  0  0  0  0  0  0  0  0  0  0  0
   40.4880   32.5930   39.3150 C   0  0  2  0  0  0  0  0  0  0  0  0
   40.5680   32.4460   37.8370 C   0  0  0  0  0  0  0  0  0  0  0  0
   41.5530   32.7910   37.1880 O   0  0  0  0  0  0  0  0  0  0  0  0
   39.8504   30.8080   41.4523 H   0  0  0  0  0  0  0  0  0  0  0  0
   40.1246   29.6535   40.1054 H   0  0  0  0  0  0  0  0  0  0  0  0
   36.6357   30.3844   40.6797 H   0  0  0  0  0  0  0  0  0  0  0  0
   36.0309   26.7837   42.8815 H   0  0  0  0  0  0  0  0  0  0  0  0
   41.1072   26.8639   40.3441 H   0  0  0  0  0  0  0  0  0  0  0  0
   41.9582   28.5895   44.8596 H   0  0  0  0  0  0  0  0  0  0  0  0
   43.5148   26.4899   45.0322 H   0  0  0  0  0  0  0  0  0  0  0  0
   42.7081   27.3237   47.4073 H   0  0  0  0  0  0  0  0  0  0  0  0
   43.7654   29.2897   47.1506 H   0  0  0  0  0  0  0  0  0  0  0  0
   45.1461   28.6220   46.6555 H   0  0  0  0  0  0  0  0  0  0  0  0
   37.5621   31.1868   40.0259 H   0  0  0  0  0  0  0  0  0  0  0  0
   38.7180   30.7417   38.7009 H   0  0  0  0  0  0  0  0  0  0  0  0
   37.6524   33.0488   41.0100 H   0  0  0  0  0  0  0  0  0  0  0  0
   39.3180   32.9566   41.7211 H   0  0  0  0  0  0  0  0  0  0  0  0
   37.9494   35.1572   40.3392 H   0  0  0  0  0  0  0  0  0  0  0  0
   39.3195   35.1548   41.5241 H   0  0  0  0  0  0  0  0  0  0  0  0
   39.3388   34.8598   38.6565 H   0  0  0  0  0  0  0  0  0  0  0  0
   41.6312   34.3198   38.7330 H   0  0  0  0  0  0  0  0  0  0  0  0
   41.4380   34.0847   40.5215 H   0  0  0  0  0  0  0  0  0  0  0  0
   41.0832   31.8430   39.8566 H   0  0  0  0  0  0  0  0  0  0  0  0
   39.7105   32.0107   37.3030 H   0  0  0  0  0  0  0  0  0  0  0  0
  1  3  1  0
  2  8  1  0
  2  7  2  0
  3  2  1  0
  4  3  2  0
  4  5  1  0
  5  6  2  0
  6  7  1  0
  8 12  1  0
  9 10  2  0
  9  8  1  0
 10 11  1  0
 12 11  2  0
 13 11  1  0
 13 17  1  0
 13 14  1  0
 14 15  1  0
 16 15  1  0
 17 14  1  0
 17 16  1  0
 18 19  1  0
 18  1  1  0
 19 20  1  0
 21 20  1  0
 22 21  1  0
 23 22  1  0
 24 23  1  0
 24 19  1  0
 25 24  1  0
 26 25  2  0
  1 27  1  0
  1 28  1  0
  4 29  1  0
  6 30  1  0
  9 31  1  0
 13 32  1  0
 14 33  1  0
 15 34  1  0
 16 35  1  0
 16 36  1  0
 18 37  1  0
 18 38  1  0
 20 39  1  0
 20 40  1  0
 21 41  1  0
 21 42  1  0
 22 43  1  0
 23 44  1  0
 23 45  1  0
 24 46  1  1
 25 47  1  0
M  ISO  8  27   8  28   8  29  14  30  14  31  14  32  13  33  13  34   5
M  ISO  8  35  13  36  13  37   8  38   8  39  13  40  13  41  13  42  13
M  ISO  5  43   5  44  13  45  13  46  13  47   6
M  END
>  <minimizedAffinity>  (1) 
-5.29071569

>  <minimizedRMSD>  (1) 
2.91848779

$$$$
