
     RDKit          3D

 52 55  0  0  1  0  0  0  0  0999 V2000
   38.2330   32.3250   39.1420 C   0  0  0  0  0  0  0  0  0  0  0  0
   38.2800   29.9010   39.7160 C   0  0  0  0  0  0  0  0  0  0  0  0
   37.7220   31.1840   39.8930 C   0  0  0  0  0  0  0  0  0  0  0  0
   36.6790   31.3310   40.7990 C   0  0  0  0  0  0  0  0  0  0  0  0
   36.2760   30.1890   41.4570 N   0  0  0  0  0  0  0  0  0  0  0  0
   36.8250   29.0160   41.2580 C   0  0  0  0  0  0  0  0  0  0  0  0
   37.8380   28.8360   40.3870 N   0  0  0  0  0  0  0  0  0  0  0  0
   39.3470   29.6500   38.8100 N   0  0  0  0  0  0  0  0  0  0  0  0
   39.4990   29.4360   37.4990 C   0  0  0  0  0  0  0  0  0  0  0  0
   40.8270   29.2430   37.2480 N   0  0  0  0  0  0  0  0  0  0  0  0
   41.4590   29.3480   38.4470 C   0  0  0  0  0  0  0  0  0  0  0  0
   40.5250   29.5960   39.3690 N   0  0  0  0  0  0  0  0  0  0  0  0
   42.8670   29.2010   38.5720 N   0  0  0  0  0  0  0  0  0  0  0  0
   43.5820   28.1280   37.9090 C   0  0  0  0  0  0  0  0  0  0  0  0
   44.4010   28.7770   36.8120 C   0  0  0  0  0  0  0  0  0  0  0  0
   45.1810   29.8260   37.3870 N   0  0  0  0  0  0  0  0  0  0  0  0
   45.1420   29.9060   38.8150 C   0  0  0  0  0  0  0  0  0  0  0  0
   43.7260   30.0730   39.3480 C   0  0  0  0  0  0  0  0  0  0  0  0
   38.1280   33.5810   39.9950 C   0  0  0  0  0  0  0  0  0  0  0  0
   39.2960   34.3900   39.8700 N   0  0  0  0  0  0  0  0  0  0  0  0
   39.1840   35.6540   40.5100 C   0  0  0  0  0  0  0  0  0  0  0  0
   40.1630   36.6400   39.9700 C   0  0  0  0  0  0  0  0  0  0  0  0
   41.2420   36.0010   39.3030 N   0  0  0  0  0  0  0  0  0  0  0  0
   41.6470   34.7680   39.9090 C   0  0  0  0  0  0  0  0  0  0  0  0
   40.5200   33.7300   39.9110 C   0  0  2  0  0  0  0  0  0  0  0  0
   40.7580   32.9870   38.6470 C   0  0  0  0  0  0  0  0  0  0  0  0
   41.3950   33.4630   37.7120 O   0  0  0  0  0  0  0  0  0  0  0  0
   39.2860   32.1482   38.8775 H   0  0  0  0  0  0  0  0  0  0  0  0
   37.6414   32.4546   38.2237 H   0  0  0  0  0  0  0  0  0  0  0  0
   36.2013   32.3050   40.9811 H   0  0  0  0  0  0  0  0  0  0  0  0
   36.4468   28.1495   41.8203 H   0  0  0  0  0  0  0  0  0  0  0  0
   38.6926   29.4185   36.7511 H   0  0  0  0  0  0  0  0  0  0  0  0
   44.2416   27.6121   38.6223 H   0  0  0  0  0  0  0  0  0  0  0  0
   42.8886   27.3784   37.5000 H   0  0  0  0  0  0  0  0  0  0  0  0
   43.7306   29.1914   36.0446 H   0  0  0  0  0  0  0  0  0  0  0  0
   45.0603   28.0314   36.3435 H   0  0  0  0  0  0  0  0  0  0  0  0
   46.1611   29.6858   37.1030 H   0  0  0  0  0  0  0  0  0  0  0  0
   45.5701   28.9827   39.2324 H   0  0  0  0  0  0  0  0  0  0  0  0
   45.7209   30.7911   39.1174 H   0  0  0  0  0  0  0  0  0  0  0  0
   43.4022   31.1181   39.2348 H   0  0  0  0  0  0  0  0  0  0  0  0
   43.6794   29.8150   40.4163 H   0  0  0  0  0  0  0  0  0  0  0  0
   37.2526   34.1626   39.6705 H   0  0  0  0  0  0  0  0  0  0  0  0
   38.0253   33.2789   41.0477 H   0  0  0  0  0  0  0  0  0  0  0  0
   38.1664   36.0420   40.3550 H   0  0  0  0  0  0  0  0  0  0  0  0
   39.3967   35.5140   41.5801 H   0  0  0  0  0  0  0  0  0  0  0  0
   39.6466   37.3016   39.2589 H   0  0  0  0  0  0  0  0  0  0  0  0
   40.5740   37.2117   40.8152 H   0  0  0  0  0  0  0  0  0  0  0  0
   42.0481   36.6422   39.3011 H   0  0  0  0  0  0  0  0  0  0  0  0
   42.5025   34.3618   39.3494 H   0  0  0  0  0  0  0  0  0  0  0  0
   41.9173   34.9769   40.9546 H   0  0  0  0  0  0  0  0  0  0  0  0
   40.5040   33.0763   40.7955 H   0  0  0  0  0  0  0  0  0  0  0  0
   40.3477   31.9715   38.5450 H   0  0  0  0  0  0  0  0  0  0  0  0
  1  3  1  0
  1 19  1  0
  2  3  1  0
  2  7  2  0
  3  4  2  0
  4  5  1  0
  6  5  2  0
  7  6  1  0
  8 12  1  0
  8  2  1  0
  9  8  1  0
 10  9  2  0
 10 11  1  0
 11 13  1  0
 11 12  2  0
 13 18  1  0
 14 13  1  0
 15 16  1  0
 15 14  1  0
 16 17  1  0
 17 18  1  0
 20 25  1  0
 20 19  1  0
 20 21  1  0
 22 21  1  0
 23 24  1  0
 23 22  1  0
 24 25  1  0
 26 25  1  0
 27 26  2  0
  1 28  1  0
  1 29  1  0
  4 30  1  0
  6 31  1  0
  9 32  1  0
 14 33  1  0
 14 34  1  0
 15 35  1  0
 15 36  1  0
 16 37  1  0
 17 38  1  0
 17 39  1  0
 18 40  1  0
 18 41  1  0
 19 42  1  0
 19 43  1  0
 21 44  1  0
 21 45  1  0
 22 46  1  0
 22 47  1  0
 23 48  1  0
 24 49  1  0
 24 50  1  0
 25 51  1  1
 26 52  1  0
M  ISO  8  28   8  29   8  30  14  31  14  32  14  33  13  34  13  35  13
M  ISO  8  36  13  37   5  38  13  39  13  40  13  41  13  42   8  43   8
M  ISO  8  44  13  45  13  46  13  47  13  48   5  49  13  50  13  51  13
M  ISO  1  52   6
M  END
>  <minimizedAffinity>  (1) 
-5.24069929

>  <minimizedRMSD>  (1) 
3.75591111

$$$$
