
     RDKit          3D

 47 49  0  0  1  0  0  0  0  0999 V2000
   38.2040   33.5050   39.9850 C   0  0  0  0  0  0  0  0  0  0  0  0
   39.3560   34.3560   39.8830 N   0  0  0  0  0  0  0  0  0  0  0  0
   39.1900   35.6130   40.5150 C   0  0  0  0  0  0  0  0  0  0  0  0
   40.1570   36.6300   40.0210 C   0  0  0  0  0  0  0  0  0  0  0  0
   41.2520   36.0270   39.3400 N   0  0  0  0  0  0  0  0  0  0  0  0
   41.6930   34.8120   39.9570 C   0  0  0  0  0  0  0  0  0  0  0  0
   40.6030   33.7360   39.9530 C   0  0  2  0  0  0  0  0  0  0  0  0
   40.8850   32.9920   38.6930 C   0  0  0  0  0  0  0  0  0  0  0  0
   41.4160   33.5200   37.7210 O   0  0  0  0  0  0  0  0  0  0  0  0
   38.4980   32.1340   39.4020 C   0  0  0  0  0  0  0  0  0  0  0  0
   38.4820   30.2440   41.0070 C   0  0  0  0  0  0  0  0  0  0  0  0
   37.7750   31.1210   40.1530 C   0  0  0  0  0  0  0  0  0  0  0  0
   36.4010   30.9790   40.0660 C   0  0  0  0  0  0  0  0  0  0  0  0
   35.8260   29.9880   40.8250 N   0  0  0  0  0  0  0  0  0  0  0  0
   36.5310   29.1940   41.6090 C   0  0  0  0  0  0  0  0  0  0  0  0
   37.8700   29.3000   41.7210 N   0  0  0  0  0  0  0  0  0  0  0  0
   39.8970   30.3040   41.1660 N   0  0  0  0  0  0  0  0  0  0  0  0
   40.9750   29.8630   40.5180 C   0  0  0  0  0  0  0  0  0  0  0  0
   42.0730   30.2470   41.1960 N   0  0  0  0  0  0  0  0  0  0  0  0
   41.6400   30.9390   42.2830 C   0  0  0  0  0  0  0  0  0  0  0  0
   40.2830   30.9540   42.2310 N   0  0  0  0  0  0  0  0  0  0  0  0
   42.5570   31.5340   43.2900 C   0  0  0  0  0  0  0  0  0  0  0  0
   43.3800   30.3970   43.8870 C   0  0  0  0  0  0  0  0  0  0  0  0
   43.5050   32.5160   42.6600 C   0  0  0  0  0  0  0  0  0  0  0  0
   37.9281   33.3957   41.0442 H   0  0  0  0  0  0  0  0  0  0  0  0
   37.3765   33.9599   39.4208 H   0  0  0  0  0  0  0  0  0  0  0  0
   38.1689   35.9734   40.3212 H   0  0  0  0  0  0  0  0  0  0  0  0
   39.3716   35.4733   41.5909 H   0  0  0  0  0  0  0  0  0  0  0  0
   39.6376   37.3097   39.3295 H   0  0  0  0  0  0  0  0  0  0  0  0
   40.5523   37.1780   40.8890 H   0  0  0  0  0  0  0  0  0  0  0  0
   42.0377   36.6929   39.3273 H   0  0  0  0  0  0  0  0  0  0  0  0
   42.5679   34.4328   39.4086 H   0  0  0  0  0  0  0  0  0  0  0  0
   41.9449   35.0355   41.0042 H   0  0  0  0  0  0  0  0  0  0  0  0
   40.5964   33.0901   40.8434 H   0  0  0  0  0  0  0  0  0  0  0  0
   40.6067   31.9295   38.6320 H   0  0  0  0  0  0  0  0  0  0  0  0
   38.1788   32.1073   38.3497 H   0  0  0  0  0  0  0  0  0  0  0  0
   39.5779   31.9341   39.4637 H   0  0  0  0  0  0  0  0  0  0  0  0
   35.7961   31.6304   39.4181 H   0  0  0  0  0  0  0  0  0  0  0  0
   36.0084   28.4201   42.1903 H   0  0  0  0  0  0  0  0  0  0  0  0
   40.9687   29.2817   39.5842 H   0  0  0  0  0  0  0  0  0  0  0  0
   41.9620   32.0638   44.0485 H   0  0  0  0  0  0  0  0  0  0  0  0
   43.3398   30.4525   44.9849 H   0  0  0  0  0  0  0  0  0  0  0  0
   42.9693   29.4326   43.5533 H   0  0  0  0  0  0  0  0  0  0  0  0
   44.4244   30.4859   43.5533 H   0  0  0  0  0  0  0  0  0  0  0  0
   44.0381   33.0682   43.4480 H   0  0  0  0  0  0  0  0  0  0  0  0
   44.2315   31.9754   42.0355 H   0  0  0  0  0  0  0  0  0  0  0  0
   42.9391   33.2230   42.0355 H   0  0  0  0  0  0  0  0  0  0  0  0
  2  7  1  0
  2  1  1  0
  2  3  1  0
  4  3  1  0
  5  6  1  0
  5  4  1  0
  7  6  1  0
  8  7  1  0
  9  8  2  0
 10  1  1  0
 10 12  1  0
 11 17  1  0
 11 16  2  0
 12 11  1  0
 13 12  2  0
 13 14  1  0
 14 15  2  0
 15 16  1  0
 17 21  1  0
 18 17  1  0
 18 19  2  0
 19 20  1  0
 20 22  1  0
 21 20  2  0
 22 23  1  0
 24 22  1  0
  1 25  1  0
  1 26  1  0
  3 27  1  0
  3 28  1  0
  4 29  1  0
  4 30  1  0
  5 31  1  0
  6 32  1  0
  6 33  1  0
  7 34  1  1
  8 35  1  0
 10 36  1  0
 10 37  1  0
 13 38  1  0
 15 39  1  0
 18 40  1  0
 22 41  1  0
 23 42  1  0
 23 43  1  0
 23 44  1  0
 24 45  1  0
 24 46  1  0
 24 47  1  0
M  ISO  8  25   8  26   8  27  13  28  13  29  13  30  13  31   5  32  13
M  ISO  8  33  13  34  13  35   6  36   8  37   8  38  14  39  14  40  14
M  ISO  7  41   8  42   8  43   8  44   8  45   8  46   8  47   8
M  END
>  <minimizedAffinity>  (1) 
-5.15129232

>  <minimizedRMSD>  (1) 
0.475940734

$$$$
