
     RDKit          3D

 41 43  0  0  1  0  0  0  0  0999 V2000
   38.2530   32.3490   39.2480 C   0  0  0  0  0  0  0  0  0  0  0  0
   38.1930   29.9050   39.7110 C   0  0  0  0  0  0  0  0  0  0  0  0
   37.6610   31.1930   39.9100 C   0  0  0  0  0  0  0  0  0  0  0  0
   36.5640   31.3320   40.7500 C   0  0  0  0  0  0  0  0  0  0  0  0
   36.0850   30.1710   41.3260 N   0  0  0  0  0  0  0  0  0  0  0  0
   36.6160   28.9920   41.1100 C   0  0  0  0  0  0  0  0  0  0  0  0
   37.6790   28.8250   40.3010 N   0  0  0  0  0  0  0  0  0  0  0  0
   39.3130   29.6600   38.8670 N   0  0  0  0  0  0  0  0  0  0  0  0
   39.5400   29.4980   37.5560 C   0  0  0  0  0  0  0  0  0  0  0  0
   40.8620   29.2790   37.3690 N   0  0  0  0  0  0  0  0  0  0  0  0
   41.4350   29.3130   38.6020 C   0  0  0  0  0  0  0  0  0  0  0  0
   40.4470   29.5510   39.5030 N   0  0  0  0  0  0  0  0  0  0  0  0
   42.8970   29.1150   38.8510 C   0  0  0  0  0  0  0  0  0  0  0  0
   43.2300   29.6480   40.0750 F   0  0  0  0  0  0  0  0  0  0  0  0
   43.6150   29.7170   37.8370 F   0  0  0  0  0  0  0  0  0  0  0  0
   43.2430   27.7630   38.8390 F   0  0  0  0  0  0  0  0  0  0  0  0
   38.2410   33.5410   40.1950 C   0  0  0  0  0  0  0  0  0  0  0  0
   39.3780   34.3770   39.9800 N   0  0  0  0  0  0  0  0  0  0  0  0
   39.2610   35.6580   40.5940 C   0  0  0  0  0  0  0  0  0  0  0  0
   40.1640   36.6570   39.9540 C   0  0  0  0  0  0  0  0  0  0  0  0
   41.2410   36.0210   39.2550 N   0  0  0  0  0  0  0  0  0  0  0  0
   41.7140   34.8280   39.8870 C   0  0  0  0  0  0  0  0  0  0  0  0
   40.6250   33.7570   39.9880 C   0  0  2  0  0  0  0  0  0  0  0  0
   40.8270   32.9660   38.7480 C   0  0  0  0  0  0  0  0  0  0  0  0
   41.3530   33.4340   37.7400 O   0  0  0  0  0  0  0  0  0  0  0  0
   39.2902   32.1171   38.9644 H   0  0  0  0  0  0  0  0  0  0  0  0
   37.6706   32.5921   38.3470 H   0  0  0  0  0  0  0  0  0  0  0  0
   36.1024   32.3111   40.9458 H   0  0  0  0  0  0  0  0  0  0  0  0
   36.1795   28.1120   41.6051 H   0  0  0  0  0  0  0  0  0  0  0  0
   38.7780   29.5367   36.7636 H   0  0  0  0  0  0  0  0  0  0  0  0
   37.3261   34.1272   40.0238 H   0  0  0  0  0  0  0  0  0  0  0  0
   38.2715   33.1672   41.2291 H   0  0  0  0  0  0  0  0  0  0  0  0
   38.2214   36.0051   40.5009 H   0  0  0  0  0  0  0  0  0  0  0  0
   39.5491   35.5608   41.6512 H   0  0  0  0  0  0  0  0  0  0  0  0
   39.5820   37.2596   39.2412 H   0  0  0  0  0  0  0  0  0  0  0  0
   40.5927   37.2904   40.7446 H   0  0  0  0  0  0  0  0  0  0  0  0
   42.0243   36.6867   39.1902 H   0  0  0  0  0  0  0  0  0  0  0  0
   42.5535   34.4256   39.3011 H   0  0  0  0  0  0  0  0  0  0  0  0
   42.0276   35.0884   40.9087 H   0  0  0  0  0  0  0  0  0  0  0  0
   40.6731   33.1423   40.8989 H   0  0  0  0  0  0  0  0  0  0  0  0
   40.4924   31.9183   38.7303 H   0  0  0  0  0  0  0  0  0  0  0  0
  1  3  1  0
  1 17  1  0
  2  3  1  0
  2  7  2  0
  3  4  2  0
  4  5  1  0
  6  5  2  0
  7  6  1  0
  8 12  1  0
  8  2  1  0
  9  8  1  0
 10  9  2  0
 10 11  1  0
 11 13  1  0
 11 12  2  0
 13 14  1  0
 15 13  1  0
 16 13  1  0
 18 23  1  0
 18 17  1  0
 18 19  1  0
 20 19  1  0
 21 22  1  0
 21 20  1  0
 22 23  1  0
 24 23  1  0
 25 24  2  0
  1 26  1  0
  1 27  1  0
  4 28  1  0
  6 29  1  0
  9 30  1  0
 17 31  1  0
 17 32  1  0
 19 33  1  0
 19 34  1  0
 20 35  1  0
 20 36  1  0
 21 37  1  0
 22 38  1  0
 22 39  1  0
 23 40  1  1
 24 41  1  0
M  ISO  8  26   8  27   8  28  14  29  14  30  14  31   8  32   8  33  13
M  ISO  8  34  13  35  13  36  13  37   5  38  13  39  13  40  13  41   6
M  END
>  <minimizedAffinity>  (1) 
-4.80767012

>  <minimizedRMSD>  (1) 
3.04242849

$$$$
