
     RDKit          3D

 37 40  0  0  1  0  0  0  0  0999 V2000
   39.5060   25.8390   43.0080 C   0  0  1  0  0  0  0  0  0  0  0  0
   40.8420   25.2540   43.3230 C   0  0  0  0  0  0  0  0  0  0  0  0
   41.4360   26.3860   44.1560 C   0  0  0  0  0  0  0  0  0  0  0  0
   40.9010   27.6530   43.4890 C   0  0  0  0  0  0  0  0  0  0  0  0
   39.8390   27.2090   42.4910 C   0  0  2  0  0  0  0  0  0  0  0  0
   38.6740   28.0980   42.6580 C   0  0  0  0  0  0  0  0  0  0  0  0
   37.7530   28.3480   43.6590 C   0  0  0  0  0  0  0  0  0  0  0  0
   36.8800   29.2800   43.2710 N   0  0  0  0  0  0  0  0  0  0  0  0
   37.1860   29.6790   42.0190 C   0  0  0  0  0  0  0  0  0  0  0  0
   36.5700   30.6120   41.2160 C   0  0  0  0  0  0  0  0  0  0  0  0
   37.0860   30.8380   39.9590 C   0  0  0  0  0  0  0  0  0  0  0  0
   38.1950   30.1440   39.5110 C   0  0  0  0  0  0  0  0  0  0  0  0
   38.7700   29.2190   40.3580 C   0  0  0  0  0  0  0  0  0  0  0  0
   38.2960   28.9570   41.6220 C   0  0  0  0  0  0  0  0  0  0  0  0
   38.7200   23.5000   40.2700 C   0  0  0  0  0  0  0  0  0  0  0  0
   37.2930   23.4010   40.3580 C   0  0  0  0  0  0  0  0  0  0  0  0
   36.6340   24.1480   41.3510 C   0  0  0  0  0  0  0  0  0  0  0  0
   37.3630   24.9260   42.1820 N   0  0  0  0  0  0  0  0  0  0  0  0
   38.7270   24.9920   42.0630 C   0  0  0  0  0  0  0  0  0  0  0  0
   39.3950   24.2900   41.1220 N   0  0  0  0  0  0  0  0  0  0  0  0
   38.8338   25.8940   43.8770 H   0  0  0  0  0  0  0  0  0  0  0  0
   40.7539   24.3232   43.9026 H   0  0  0  0  0  0  0  0  0  0  0  0
   41.4384   24.9612   42.4463 H   0  0  0  0  0  0  0  0  0  0  0  0
   41.0987   26.3215   45.2010 H   0  0  0  0  0  0  0  0  0  0  0  0
   42.5351   26.3561   44.1899 H   0  0  0  0  0  0  0  0  0  0  0  0
   40.4572   28.3196   44.2431 H   0  0  0  0  0  0  0  0  0  0  0  0
   41.7084   28.2062   42.9869 H   0  0  0  0  0  0  0  0  0  0  0  0
   40.1382   27.2262   41.4326 H   0  0  0  0  0  0  0  0  0  0  0  0
   37.7416   27.8481   44.6388 H   0  0  0  0  0  0  0  0  0  0  0  0
   36.0974   29.6377   43.8371 H   0  0  0  0  0  0  0  0  0  0  0  0
   35.6867   31.1640   41.5697 H   0  0  0  0  0  0  0  0  0  0  0  0
   36.6093   31.5808   39.3025 H   0  0  0  0  0  0  0  0  0  0  0  0
   38.6073   30.3244   38.5073 H   0  0  0  0  0  0  0  0  0  0  0  0
   39.6513   28.6636   40.0047 H   0  0  0  0  0  0  0  0  0  0  0  0
   39.2637   22.9282   39.5036 H   0  0  0  0  0  0  0  0  0  0  0  0
   36.7280   22.7578   39.6672 H   0  0  0  0  0  0  0  0  0  0  0  0
   35.5395   24.0997   41.4501 H   0  0  0  0  0  0  0  0  0  0  0  0
  1  2  1  0
  2  3  1  0
  4  3  1  0
  5  6  1  0
  5  1  1  0
  5  4  1  0
  6  7  2  0
  8  7  1  0
  9  8  1  0
 10  9  2  0
 11 10  1  0
 12 11  2  0
 12 13  1  0
 13 14  2  0
 14  9  1  0
 14  6  1  0
 15 16  2  0
 15 20  1  0
 16 17  1  0
 17 18  2  0
 19 18  1  0
 19  1  1  0
 20 19  2  0
  1 21  1  1
  2 22  1  0
  2 23  1  0
  3 24  1  0
  3 25  1  0
  4 26  1  0
  4 27  1  0
  5 28  1  6
  7 29  1  0
  8 30  1  0
 10 31  1  0
 11 32  1  0
 12 33  1  0
 13 34  1  0
 15 35  1  0
 16 36  1  0
 17 37  1  0
M  ISO  8  21  13  22  13  23  13  24  13  25  13  26  13  27  13  28  13
M  ISO  8  29  14  30   9  31  14  32  14  33  14  34  14  35  14  36  14
M  ISO  1  37  14
M  END
>  <minimizedAffinity>  (1) 
-5.79774189

>  <minimizedRMSD>  (1) 
5.83706093

$$$$
