
     RDKit          3D

 33 35  0  0  1  0  0  0  0  0999 V2000
   37.6470   31.2620   40.8120 C   0  0  1  0  0  0  0  0  0  0  0  0
   38.5060   32.4820   40.8920 C   0  0  0  0  0  0  0  0  0  0  0  0
   37.8140   33.3870   39.8790 C   0  0  0  0  0  0  0  0  0  0  0  0
   37.2750   32.4300   38.8300 C   0  0  0  0  0  0  0  0  0  0  0  0
   37.5160   31.0160   39.3440 C   0  0  2  0  0  0  0  0  0  0  0  0
   40.0090   28.6660   41.9450 C   0  0  0  0  0  0  0  0  0  0  0  0
   39.2850   28.0620   43.0280 C   0  0  0  0  0  0  0  0  0  0  0  0
   38.0030   28.5550   43.3380 C   0  0  0  0  0  0  0  0  0  0  0  0
   37.5030   29.5710   42.6140 N   0  0  0  0  0  0  0  0  0  0  0  0
   38.2180   30.1290   41.5840 C   0  0  0  0  0  0  0  0  0  0  0  0
   39.4390   29.6810   41.2660 N   0  0  0  0  0  0  0  0  0  0  0  0
   36.3620   30.2060   38.9360 C   0  0  0  0  0  0  0  0  0  0  0  0
   35.3620   29.8320   39.8340 C   0  0  0  0  0  0  0  0  0  0  0  0
   34.2600   29.0720   39.4990 C   0  0  0  0  0  0  0  0  0  0  0  0
   34.1610   28.6660   38.1830 C   0  0  0  0  0  0  0  0  0  0  0  0
   35.1180   28.9990   37.2280 C   0  0  0  0  0  0  0  0  0  0  0  0
   36.2050   29.7650   37.6220 C   0  0  0  0  0  0  0  0  0  0  0  0
   36.6578   31.3880   41.2763 H   0  0  0  0  0  0  0  0  0  0  0  0
   38.4936   32.9202   41.9009 H   0  0  0  0  0  0  0  0  0  0  0  0
   39.5718   32.3022   40.6879 H   0  0  0  0  0  0  0  0  0  0  0  0
   36.9949   33.9479   40.3528 H   0  0  0  0  0  0  0  0  0  0  0  0
   38.4942   34.1391   39.4528 H   0  0  0  0  0  0  0  0  0  0  0  0
   37.8029   32.5796   37.8766 H   0  0  0  0  0  0  0  0  0  0  0  0
   36.2030   32.6048   38.6559 H   0  0  0  0  0  0  0  0  0  0  0  0
   38.3905   30.4640   38.9692 H   0  0  0  0  0  0  0  0  0  0  0  0
   41.0125   28.3061   41.6740 H   0  0  0  0  0  0  0  0  0  0  0  0
   39.7223   27.2324   43.6029 H   0  0  0  0  0  0  0  0  0  0  0  0
   37.4195   28.1153   44.1603 H   0  0  0  0  0  0  0  0  0  0  0  0
   35.4583   30.1649   40.8780 H   0  0  0  0  0  0  0  0  0  0  0  0
   33.4972   28.8026   40.2444 H   0  0  0  0  0  0  0  0  0  0  0  0
   33.2961   28.0584   37.8785 H   0  0  0  0  0  0  0  0  0  0  0  0
   35.0144   28.6625   36.1859 H   0  0  0  0  0  0  0  0  0  0  0  0
   36.9669   30.0330   36.8752 H   0  0  0  0  0  0  0  0  0  0  0  0
  1  2  1  0
  1 10  1  0
  3  2  1  0
  4  5  1  0
  4  3  1  0
  5  1  1  0
  6  7  2  0
  7  8  1  0
  9  8  2  0
 10  9  1  0
 11 10  2  0
 11  6  1  0
 12  5  1  0
 12 13  2  0
 14 13  1  0
 15 14  2  0
 16 17  2  0
 16 15  1  0
 17 12  1  0
  1 18  1  1
  2 19  1  0
  2 20  1  0
  3 21  1  0
  3 22  1  0
  4 23  1  0
  4 24  1  0
  5 25  1  6
  6 26  1  0
  7 27  1  0
  8 28  1  0
 13 29  1  0
 14 30  1  0
 15 31  1  0
 16 32  1  0
 17 33  1  0
M  ISO  8  18  13  19  13  20  13  21  13  22  13  23  13  24  13  25  13
M  ISO  8  26  14  27  14  28  14  29  14  30  14  31  14  32  14  33  14
M  END
>  <minimizedAffinity>  (1) 
-5.12910748

>  <minimizedRMSD>  (1) 
1.25104594

$$$$
