
     RDKit          3D

 34 36  0  0  1  0  0  0  0  0999 V2000
   37.1240   30.7170   40.0010 C   0  0  1  0  0  0  0  0  0  0  0  0
   37.1930   32.1440   40.4490 C   0  0  0  0  0  0  0  0  0  0  0  0
   37.1900   32.8570   39.1010 C   0  0  0  0  0  0  0  0  0  0  0  0
   37.9680   31.9250   38.1910 C   0  0  0  0  0  0  0  0  0  0  0  0
   38.2020   30.6360   38.9720 C   0  0  2  0  0  0  0  0  0  0  0  0
   38.1180   29.5530   38.0480 N   0  0  0  0  0  0  0  0  0  0  0  0
   39.0880   28.7660   37.5570 C   0  0  0  0  0  0  0  0  0  0  0  0
   38.8100   27.7710   36.6730 C   0  0  0  0  0  0  0  0  0  0  0  0
   37.5340   27.5510   36.2630 C   0  0  0  0  0  0  0  0  0  0  0  0
   37.3310   26.4840   35.3310 N   0  0  0  0  0  0  0  0  0  0  0  0
   36.5730   28.3290   36.7480 N   0  0  0  0  0  0  0  0  0  0  0  0
   36.8390   29.3160   37.6240 C   0  0  0  0  0  0  0  0  0  0  0  0
   35.8090   29.9620   37.9850 O   0  0  0  0  0  0  0  0  0  0  0  0
   38.3890   29.2050   43.1120 C   0  0  0  0  0  0  0  0  0  0  0  0
   37.5440   28.0530   43.2600 C   0  0  0  0  0  0  0  0  0  0  0  0
   36.5640   27.8230   42.2780 C   0  0  0  0  0  0  0  0  0  0  0  0
   36.4550   28.6870   41.2420 N   0  0  0  0  0  0  0  0  0  0  0  0
   37.2750   29.7720   41.1330 C   0  0  0  0  0  0  0  0  0  0  0  0
   38.2200   30.0220   42.0500 N   0  0  0  0  0  0  0  0  0  0  0  0
   36.1495   30.4244   39.5829 H   0  0  0  0  0  0  0  0  0  0  0  0
   36.3197   32.4216   41.0575 H   0  0  0  0  0  0  0  0  0  0  0  0
   38.0529   32.3821   41.0924 H   0  0  0  0  0  0  0  0  0  0  0  0
   36.1623   32.9943   38.7336 H   0  0  0  0  0  0  0  0  0  0  0  0
   37.6312   33.8633   39.1534 H   0  0  0  0  0  0  0  0  0  0  0  0
   38.9307   32.3809   37.9165 H   0  0  0  0  0  0  0  0  0  0  0  0
   37.4125   31.7272   37.2624 H   0  0  0  0  0  0  0  0  0  0  0  0
   39.1758   30.4901   39.4623 H   0  0  0  0  0  0  0  0  0  0  0  0
   40.1280   28.9291   37.8759 H   0  0  0  0  0  0  0  0  0  0  0  0
   39.6242   27.1399   36.2872 H   0  0  0  0  0  0  0  0  0  0  0  0
   36.3831   26.2739   34.9872 H   0  0  0  0  0  0  0  0  0  0  0  0
   38.1328   25.9262   35.0041 H   0  0  0  0  0  0  0  0  0  0  0  0
   39.1681   29.4202   43.8582 H   0  0  0  0  0  0  0  0  0  0  0  0
   37.6599   27.3713   44.1155 H   0  0  0  0  0  0  0  0  0  0  0  0
   35.8952   26.9527   42.3509 H   0  0  0  0  0  0  0  0  0  0  0  0
  1  2  1  0
  1 18  1  0
  3  2  1  0
  4  5  1  0
  4  3  1  0
  5  1  1  0
  6  5  1  0
  7  6  1  0
  8  7  2  0
  9  8  1  0
  9 11  2  0
 10  9  1  0
 11 12  1  0
 12 13  2  0
 12  6  1  0
 14 15  2  0
 16 15  1  0
 17 16  2  0
 18 17  1  0
 18 19  2  0
 19 14  1  0
  1 20  1  6
  2 21  1  0
  2 22  1  0
  3 23  1  0
  3 24  1  0
  4 25  1  0
  4 26  1  0
  5 27  1  1
  7 28  1  0
  8 29  1  0
 10 30  1  0
 10 31  1  0
 14 32  1  0
 15 33  1  0
 16 34  1  0
M  ISO  8  20  13  21  13  22  13  23  13  24  13  25  13  26  13  27  13
M  ISO  5  28  14  29  14  32  14  33  14  34  14
M  END
>  <minimizedAffinity>  (1) 
-4.91840982

>  <minimizedRMSD>  (1) 
2.74969101

$$$$
