
     RDKit          3D

 34 37  0  0  1  0  0  0  0  0999 V2000
   36.9710   30.9880   40.1510 C   0  0  1  0  0  0  0  0  0  0  0  0
   37.4280   32.3510   40.5570 C   0  0  0  0  0  0  0  0  0  0  0  0
   37.2590   33.1220   39.2620 C   0  0  0  0  0  0  0  0  0  0  0  0
   37.4720   32.0810   38.1540 C   0  0  0  0  0  0  0  0  0  0  0  0
   37.6980   30.7570   38.8640 C   0  0  2  0  0  0  0  0  0  0  0  0
   37.1790   29.6850   38.0680 N   0  0  0  0  0  0  0  0  0  0  0  0
   35.8610   29.5890   37.8080 C   0  0  0  0  0  0  0  0  0  0  0  0
   35.6370   28.5070   37.0500 N   0  0  0  0  0  0  0  0  0  0  0  0
   36.7830   27.8890   36.8050 C   0  0  0  0  0  0  0  0  0  0  0  0
   37.2110   26.7590   36.1110 C   0  0  0  0  0  0  0  0  0  0  0  0
   38.5330   26.4220   36.0810 N   0  0  0  0  0  0  0  0  0  0  0  0
   39.4460   27.1910   36.7320 C   0  0  0  0  0  0  0  0  0  0  0  0
   39.0320   28.2850   37.4040 N   0  0  0  0  0  0  0  0  0  0  0  0
   37.7370   28.6490   37.4560 C   0  0  0  0  0  0  0  0  0  0  0  0
   38.5530   29.2460   42.9710 C   0  0  0  0  0  0  0  0  0  0  0  0
   37.6890   28.1150   43.1690 C   0  0  0  0  0  0  0  0  0  0  0  0
   36.5800   27.9820   42.3120 C   0  0  0  0  0  0  0  0  0  0  0  0
   36.3760   28.9080   41.3560 N   0  0  0  0  0  0  0  0  0  0  0  0
   37.2210   29.9710   41.1980 C   0  0  0  0  0  0  0  0  0  0  0  0
   38.2810   30.1340   41.9860 N   0  0  0  0  0  0  0  0  0  0  0  0
   35.8822   30.9072   40.0166 H   0  0  0  0  0  0  0  0  0  0  0  0
   36.7968   32.7652   41.3570 H   0  0  0  0  0  0  0  0  0  0  0  0
   38.4483   32.3793   40.9671 H   0  0  0  0  0  0  0  0  0  0  0  0
   36.2498   33.5550   39.1979 H   0  0  0  0  0  0  0  0  0  0  0  0
   37.9655   33.9615   39.1838 H   0  0  0  0  0  0  0  0  0  0  0  0
   38.3502   32.3438   37.5459 H   0  0  0  0  0  0  0  0  0  0  0  0
   36.6085   32.0324   37.4743 H   0  0  0  0  0  0  0  0  0  0  0  0
   38.7448   30.4656   39.0349 H   0  0  0  0  0  0  0  0  0  0  0  0
   35.0897   30.2888   38.1622 H   0  0  0  0  0  0  0  0  0  0  0  0
   36.4767   26.1331   35.5827 H   0  0  0  0  0  0  0  0  0  0  0  0
   40.5128   26.9234   36.7109 H   0  0  0  0  0  0  0  0  0  0  0  0
   39.4317   29.3896   43.6170 H   0  0  0  0  0  0  0  0  0  0  0  0
   37.8871   27.3791   43.9622 H   0  0  0  0  0  0  0  0  0  0  0  0
   35.8894   27.1329   42.4219 H   0  0  0  0  0  0  0  0  0  0  0  0
  1  2  1  0
  1 19  1  0
  3  2  1  0
  4  5  1  0
  4  3  1  0
  5  1  1  0
  6  5  1  0
  7  6  1  0
  8  7  2  0
  9  8  1  0
  9 14  2  0
 10  9  1  0
 11 10  2  0
 11 12  1  0
 12 13  2  0
 13 14  1  0
 14  6  1  0
 15 16  2  0
 17 16  1  0
 18 17  2  0
 19 18  1  0
 19 20  2  0
 20 15  1  0
  1 21  1  6
  2 22  1  0
  2 23  1  0
  3 24  1  0
  3 25  1  0
  4 26  1  0
  4 27  1  0
  5 28  1  1
  7 29  1  0
 10 30  1  0
 12 31  1  0
 15 32  1  0
 16 33  1  0
 17 34  1  0
M  ISO  8  21  13  22  13  23  13  24  13  25  13  26  13  27  13  28  13
M  ISO  6  29  14  30  14  31  14  32  14  33  14  34  14
M  END
>  <minimizedAffinity>  (1) 
-4.83623075

>  <minimizedRMSD>  (1) 
1.99121761

$$$$
