
     RDKit          3D

 33 35  0  0  1  0  0  0  0  0999 V2000
   36.6980   30.5520   40.4510 C   0  0  1  0  0  0  0  0  0  0  0  0
   37.4540   31.8320   40.6030 C   0  0  0  0  0  0  0  0  0  0  0  0
   37.1410   32.5190   39.2830 C   0  0  0  0  0  0  0  0  0  0  0  0
   37.0280   31.3810   38.2790 C   0  0  0  0  0  0  0  0  0  0  0  0
   37.0960   30.0980   39.0760 C   0  0  2  0  0  0  0  0  0  0  0  0
   38.3630   28.9810   43.3250 C   0  0  0  0  0  0  0  0  0  0  0  0
   37.5320   27.8390   43.5790 C   0  0  0  0  0  0  0  0  0  0  0  0
   36.4180   27.6340   42.7450 C   0  0  0  0  0  0  0  0  0  0  0  0
   36.1710   28.5150   41.7400 N   0  0  0  0  0  0  0  0  0  0  0  0
   36.9900   29.5870   41.5360 C   0  0  0  0  0  0  0  0  0  0  0  0
   38.0540   29.8130   42.3060 N   0  0  0  0  0  0  0  0  0  0  0  0
   36.2960   29.0440   38.5340 N   0  0  0  0  0  0  0  0  0  0  0  0
   34.9980   29.1810   38.2030 C   0  0  0  0  0  0  0  0  0  0  0  0
   34.2190   28.1670   37.6790 C   0  0  0  0  0  0  0  0  0  0  0  0
   34.8210   26.9430   37.4860 C   0  0  0  0  0  0  0  0  0  0  0  0
   34.1450   25.9970   37.0100 O   0  0  0  0  0  0  0  0  0  0  0  0
   36.1100   26.8020   37.8120 N   0  0  0  0  0  0  0  0  0  0  0  0
   36.8240   27.8290   38.3220 C   0  0  0  0  0  0  0  0  0  0  0  0
   38.0090   27.5310   38.5720 O   0  0  0  0  0  0  0  0  0  0  0  0
   35.6073   30.6616   40.5427 H   0  0  0  0  0  0  0  0  0  0  0  0
   37.0872   32.4175   41.4590 H   0  0  0  0  0  0  0  0  0  0  0  0
   38.5283   31.7010   40.8000 H   0  0  0  0  0  0  0  0  0  0  0  0
   36.1941   33.0749   39.3489 H   0  0  0  0  0  0  0  0  0  0  0  0
   37.9109   33.2519   38.9999 H   0  0  0  0  0  0  0  0  0  0  0  0
   37.8583   31.4256   37.5588 H   0  0  0  0  0  0  0  0  0  0  0  0
   36.0901   31.4456   37.7079 H   0  0  0  0  0  0  0  0  0  0  0  0
   38.0892   29.6253   39.0652 H   0  0  0  0  0  0  0  0  0  0  0  0
   39.2437   29.1774   43.9542 H   0  0  0  0  0  0  0  0  0  0  0  0
   37.7594   27.1447   44.4013 H   0  0  0  0  0  0  0  0  0  0  0  0
   35.7547   26.7710   42.9043 H   0  0  0  0  0  0  0  0  0  0  0  0
   34.5276   30.1629   38.3597 H   0  0  0  0  0  0  0  0  0  0  0  0
   33.1610   28.3306   37.4262 H   0  0  0  0  0  0  0  0  0  0  0  0
   36.5685   25.8905   37.6712 H   0  0  0  0  0  0  0  0  0  0  0  0
  1  2  1  0
  1 10  1  0
  3  2  1  0
  4  5  1  0
  4  3  1  0
  5  1  1  0
  6  7  2  0
  8  7  1  0
  9  8  2  0
 10  9  1  0
 10 11  2  0
 11  6  1  0
 12  5  1  0
 13 12  1  0
 14 13  2  0
 15 14  1  0
 15 17  1  0
 16 15  2  0
 17 18  1  0
 18 12  1  0
 18 19  2  0
  1 20  1  6
  2 21  1  0
  2 22  1  0
  3 23  1  0
  3 24  1  0
  4 25  1  0
  4 26  1  0
  5 27  1  1
  6 28  1  0
  7 29  1  0
  8 30  1  0
 13 31  1  0
 14 32  1  0
 17 33  1  0
M  ISO  8  20  13  21  13  22  13  23  13  24  13  25  13  26  13  27  13
M  ISO  6  28  14  29  14  30  14  31  14  32  14  33   9
M  END
>  <minimizedAffinity>  (1) 
-4.82237673

>  <minimizedRMSD>  (1) 
1.54042518

$$$$
