
     RDKit          3D

 31 33  0  0  1  0  0  0  0  0999 V2000
   37.9470   31.6960   38.8640 C   0  0  1  0  0  0  0  0  0  0  0  0
   37.7430   31.6950   37.3850 C   0  0  0  0  0  0  0  0  0  0  0  0
   37.0890   30.3280   37.2070 C   0  0  0  0  0  0  0  0  0  0  0  0
   37.7810   29.4520   38.2360 C   0  0  0  0  0  0  0  0  0  0  0  0
   38.6170   30.3760   39.1150 C   0  0  2  0  0  0  0  0  0  0  0  0
   40.7600   33.9870   39.4780 C   0  0  0  0  0  0  0  0  0  0  0  0
   40.1200   35.0830   40.1520 C   0  0  0  0  0  0  0  0  0  0  0  0
   38.7340   34.9990   40.3860 C   0  0  0  0  0  0  0  0  0  0  0  0
   38.0640   33.9000   39.9710 N   0  0  0  0  0  0  0  0  0  0  0  0
   38.7070   32.8790   39.3330 C   0  0  0  0  0  0  0  0  0  0  0  0
   40.0170   32.9220   39.0940 N   0  0  0  0  0  0  0  0  0  0  0  0
   38.3530   29.9750   40.5090 C   0  0  0  0  0  0  0  0  0  0  0  0
   39.2390   30.1570   41.5350 C   0  0  0  0  0  0  0  0  0  0  0  0
   38.9860   29.7790   42.8370 C   0  0  0  0  0  0  0  0  0  0  0  0
   37.7860   29.1990   43.0750 N   0  0  0  0  0  0  0  0  0  0  0  0
   36.9170   29.0260   42.0370 C   0  0  0  0  0  0  0  0  0  0  0  0
   37.1640   29.3980   40.7550 N   0  0  0  0  0  0  0  0  0  0  0  0
   37.0140   31.7887   39.4393 H   0  0  0  0  0  0  0  0  0  0  0  0
   37.0778   32.5103   37.0644 H   0  0  0  0  0  0  0  0  0  0  0  0
   38.6560   31.8519   36.7919 H   0  0  0  0  0  0  0  0  0  0  0  0
   36.0082   30.3832   37.4041 H   0  0  0  0  0  0  0  0  0  0  0  0
   37.1922   29.9398   36.1830 H   0  0  0  0  0  0  0  0  0  0  0  0
   37.0340   28.9233   38.8462 H   0  0  0  0  0  0  0  0  0  0  0  0
   38.4129   28.6956   37.7476 H   0  0  0  0  0  0  0  0  0  0  0  0
   39.7011   30.3749   38.9285 H   0  0  0  0  0  0  0  0  0  0  0  0
   41.8410   34.0129   39.2763 H   0  0  0  0  0  0  0  0  0  0  0  0
   40.6962   35.9623   40.4758 H   0  0  0  0  0  0  0  0  0  0  0  0
   38.2041   35.8152   40.8988 H   0  0  0  0  0  0  0  0  0  0  0  0
   40.2059   30.6306   41.3094 H   0  0  0  0  0  0  0  0  0  0  0  0
   39.7205   29.9403   43.6398 H   0  0  0  0  0  0  0  0  0  0  0  0
   35.9485   28.5519   42.2544 H   0  0  0  0  0  0  0  0  0  0  0  0
  1  5  1  0
  1 10  1  0
  2  1  1  0
  3  2  1  0
  3  4  1  0
  4  5  1  0
  5 12  1  0
  6  7  2  0
  7  8  1  0
  9  8  2  0
 10  9  1  0
 11 10  2  0
 11  6  1  0
 12 17  1  0
 12 13  2  0
 13 14  1  0
 14 15  2  0
 16 15  1  0
 17 16  2  0
  1 18  1  1
  2 19  1  0
  2 20  1  0
  3 21  1  0
  3 22  1  0
  4 23  1  0
  4 24  1  0
  5 25  1  6
  6 26  1  0
  7 27  1  0
  8 28  1  0
 13 29  1  0
 14 30  1  0
 16 31  1  0
M  ISO  8  18  13  19  13  20  13  21  13  22  13  23  13  24  13  25  13
M  ISO  6  26  14  27  14  28  14  29  14  30  14  31  14
M  END
>  <minimizedAffinity>  (1) 
-4.64086533

>  <minimizedRMSD>  (1) 
5.14670086

$$$$
