
     RDKit          3D

 30 32  0  0  1  0  0  0  0  0999 V2000
   37.1500   31.3780   40.7230 C   0  0  1  0  0  0  0  0  0  0  0  0
   38.2490   32.3540   40.9130 C   0  0  0  0  0  0  0  0  0  0  0  0
   37.9320   33.3890   39.8420 C   0  0  0  0  0  0  0  0  0  0  0  0
   37.1490   32.6520   38.7720 C   0  0  0  0  0  0  0  0  0  0  0  0
   36.9440   31.2490   39.2850 C   0  0  1  0  0  0  0  0  0  0  0  0
   38.5950   28.9230   43.0100 C   0  0  0  0  0  0  0  0  0  0  0  0
   37.6400   27.8530   42.9910 C   0  0  0  0  0  0  0  0  0  0  0  0
   36.5150   28.0090   42.1650 C   0  0  0  0  0  0  0  0  0  0  0  0
   36.3630   29.1490   41.4230 N   0  0  0  0  0  0  0  0  0  0  0  0
   37.3220   30.1330   41.4940 C   0  0  0  0  0  0  0  0  0  0  0  0
   38.4210   30.0190   42.2770 N   0  0  0  0  0  0  0  0  0  0  0  0
   37.7540   30.3230   38.5210 C   0  0  0  0  0  0  0  0  0  0  0  0
   37.3430   29.2810   37.7090 C   0  0  0  0  0  0  0  0  0  0  0  0
   38.4450   28.6360   37.1560 C   0  0  0  0  0  0  0  0  0  0  0  0
   39.4950   29.3660   37.6960 C   0  0  0  0  0  0  0  0  0  0  0  0
   39.0890   30.3120   38.4620 O   0  0  0  0  0  0  0  0  0  0  0  0
   36.2083   31.7383   41.1629 H   0  0  0  0  0  0  0  0  0  0  0  0
   38.2220   32.7973   41.9194 H   0  0  0  0  0  0  0  0  0  0  0  0
   39.2545   31.9163   40.8270 H   0  0  0  0  0  0  0  0  0  0  0  0
   37.3276   34.2049   40.2651 H   0  0  0  0  0  0  0  0  0  0  0  0
   38.8476   33.8416   39.4335 H   0  0  0  0  0  0  0  0  0  0  0  0
   37.7167   32.6335   37.8300 H   0  0  0  0  0  0  0  0  0  0  0  0
   36.1878   33.1469   38.5691 H   0  0  0  0  0  0  0  0  0  0  0  0
   35.9505   30.7983   39.1446 H   0  0  0  0  0  0  0  0  0  0  0  0
   39.4897   28.8353   43.6439 H   0  0  0  0  0  0  0  0  0  0  0  0
   37.7829   26.9472   43.5986 H   0  0  0  0  0  0  0  0  0  0  0  0
   35.7557   27.2147   42.1143 H   0  0  0  0  0  0  0  0  0  0  0  0
   36.2947   29.0022   37.5266 H   0  0  0  0  0  0  0  0  0  0  0  0
   38.4759   27.7752   36.4718 H   0  0  0  0  0  0  0  0  0  0  0  0
   40.5552   29.1571   37.4905 H   0  0  0  0  0  0  0  0  0  0  0  0
  1  2  1  0
  1 10  1  0
  3  2  1  0
  4  5  1  0
  4  3  1  0
  5  1  1  0
  7  6  2  0
  8  7  1  0
  9 10  1  0
  9  8  2  0
 10 11  2  0
 11  6  1  0
 12  5  1  0
 13 12  2  0
 14 15  2  0
 14 13  1  0
 15 16  1  0
 16 12  1  0
  1 17  1  1
  2 18  1  0
  2 19  1  0
  3 20  1  0
  3 21  1  0
  4 22  1  0
  4 23  1  0
  5 24  1  1
  6 25  1  0
  7 26  1  0
  8 27  1  0
 13 28  1  0
 14 29  1  0
 15 30  1  0
M  ISO  8  17  13  18  13  19  13  20  13  21  13  22  13  23  13  24  13
M  ISO  6  25  14  26  14  27  14  28  14  29  14  30  14
M  END
>  <minimizedAffinity>  (1) 
-4.40199423

>  <minimizedRMSD>  (1) 
0.489727825

$$$$
