
     RDKit          3D

 29 31  0  0  1  0  0  0  0  0999 V2000
   36.9410   31.0740   40.3700 C   0  0  1  0  0  0  0  0  0  0  0  0
   37.6760   32.3300   40.6940 C   0  0  0  0  0  0  0  0  0  0  0  0
   37.4520   33.1340   39.4150 C   0  0  0  0  0  0  0  0  0  0  0  0
   37.2270   32.0990   38.3210 C   0  0  0  0  0  0  0  0  0  0  0  0
   37.4460   30.7590   38.9860 C   0  0  2  0  0  0  0  0  0  0  0  0
   38.5450   29.1360   43.0690 C   0  0  0  0  0  0  0  0  0  0  0  0
   37.6480   28.0260   43.2320 C   0  0  0  0  0  0  0  0  0  0  0  0
   36.5190   27.9830   42.3930 C   0  0  0  0  0  0  0  0  0  0  0  0
   36.3170   28.9560   41.4860 N   0  0  0  0  0  0  0  0  0  0  0  0
   37.1970   30.0010   41.3610 C   0  0  0  0  0  0  0  0  0  0  0  0
   38.2940   30.0840   42.1440 N   0  0  0  0  0  0  0  0  0  0  0  0
   36.7460   29.6390   38.3310 C   0  0  0  0  0  0  0  0  0  0  0  0
   37.4820   28.4420   37.9540 C   0  0  0  0  0  0  0  0  0  0  0  0
   36.1790   27.4050   37.2030 S   0  0  0  0  0  0  0  0  0  0  0  0
   34.8610   28.7600   37.5230 C   0  0  0  0  0  0  0  0  0  0  0  0
   35.4610   29.5900   38.0270 N   0  0  0  0  0  0  0  0  0  0  0  0
   35.8460   31.1727   40.4061 H   0  0  0  0  0  0  0  0  0  0  0  0
   37.2451   32.8361   41.5705 H   0  0  0  0  0  0  0  0  0  0  0  0
   38.7335   32.1823   40.9585 H   0  0  0  0  0  0  0  0  0  0  0  0
   36.5699   33.7831   39.5180 H   0  0  0  0  0  0  0  0  0  0  0  0
   38.3061   33.7893   39.1888 H   0  0  0  0  0  0  0  0  0  0  0  0
   37.9453   32.2436   37.5006 H   0  0  0  0  0  0  0  0  0  0  0  0
   36.2214   32.1789   37.8824 H   0  0  0  0  0  0  0  0  0  0  0  0
   38.4831   30.3944   38.9485 H   0  0  0  0  0  0  0  0  0  0  0  0
   39.4412   29.2129   43.7021 H   0  0  0  0  0  0  0  0  0  0  0  0
   37.8357   27.2426   43.9811 H   0  0  0  0  0  0  0  0  0  0  0  0
   35.8015   27.1537   42.4788 H   0  0  0  0  0  0  0  0  0  0  0  0
   38.5508   28.2184   38.0872 H   0  0  0  0  0  0  0  0  0  0  0  0
   33.7883   28.7420   37.2802 H   0  0  0  0  0  0  0  0  0  0  0  0
  1  2  1  0
  1 10  1  0
  3  2  1  0
  4  5  1  0
  4  3  1  0
  5  1  1  0
  6  7  2  0
  8  7  1  0
  9  8  2  0
 10  9  1  0
 10 11  2  0
 11  6  1  0
 12  5  1  0
 13 12  2  0
 14 15  1  0
 14 13  1  0
 15 16  2  0
 16 12  1  0
  1 17  1  6
  2 18  1  0
  2 19  1  0
  3 20  1  0
  3 21  1  0
  4 22  1  0
  4 23  1  0
  5 24  1  1
  6 25  1  0
  7 26  1  0
  8 27  1  0
 13 28  1  0
 15 29  1  0
M  ISO  8  17  13  18  13  19  13  20  13  21  13  22  13  23  13  24  13
M  ISO  5  25  14  26  14  27  14  28  14  29  14
M  END
>  <minimizedAffinity>  (1) 
-4.36474848

>  <minimizedRMSD>  (1) 
0.809360683

$$$$
