
     RDKit          3D

 30 32  0  0  1  0  0  0  0  0999 V2000
   36.8010   30.9070   40.3140 C   0  0  1  0  0  0  0  0  0  0  0  0
   37.5090   32.1830   40.5980 C   0  0  0  0  0  0  0  0  0  0  0  0
   37.2480   32.9430   39.3010 C   0  0  0  0  0  0  0  0  0  0  0  0
   37.2300   31.8650   38.2340 C   0  0  0  0  0  0  0  0  0  0  0  0
   37.2730   30.5240   38.9450 C   0  0  1  0  0  0  0  0  0  0  0  0
   38.3150   29.1800   43.1990 C   0  0  0  0  0  0  0  0  0  0  0  0
   37.4990   28.0010   43.2950 C   0  0  0  0  0  0  0  0  0  0  0  0
   36.4580   27.8240   42.3660 C   0  0  0  0  0  0  0  0  0  0  0  0
   36.2630   28.7600   41.4250 N   0  0  0  0  0  0  0  0  0  0  0  0
   37.0560   29.8770   41.3540 C   0  0  0  0  0  0  0  0  0  0  0  0
   38.0560   30.0750   42.2250 N   0  0  0  0  0  0  0  0  0  0  0  0
   38.5500   29.8850   38.9120 N   0  0  0  0  0  0  0  0  0  0  0  0
   39.7080   30.5890   38.7560 C   0  0  0  0  0  0  0  0  0  0  0  0
   40.7640   29.7400   38.7590 C   0  0  0  0  0  0  0  0  0  0  0  0
   40.2560   28.5020   38.9160 N   0  0  0  0  0  0  0  0  0  0  0  0
   38.9080   28.5940   39.0090 C   0  0  0  0  0  0  0  0  0  0  0  0
   35.7061   31.0100   40.3401 H   0  0  0  0  0  0  0  0  0  0  0  0
   37.0771   32.7021   41.4664 H   0  0  0  0  0  0  0  0  0  0  0  0
   38.5724   32.0688   40.8554 H   0  0  0  0  0  0  0  0  0  0  0  0
   36.2812   33.4660   39.3433 H   0  0  0  0  0  0  0  0  0  0  0  0
   38.0063   33.7156   39.1060 H   0  0  0  0  0  0  0  0  0  0  0  0
   38.1060   31.9710   37.5772 H   0  0  0  0  0  0  0  0  0  0  0  0
   36.3258   31.9473   37.6130 H   0  0  0  0  0  0  0  0  0  0  0  0
   36.6548   29.7477   38.4705 H   0  0  0  0  0  0  0  0  0  0  0  0
   39.1379   29.3494   43.9091 H   0  0  0  0  0  0  0  0  0  0  0  0
   37.6848   27.2522   44.0791 H   0  0  0  0  0  0  0  0  0  0  0  0
   35.8145   26.9330   42.4103 H   0  0  0  0  0  0  0  0  0  0  0  0
   39.7745   31.6813   38.6446 H   0  0  0  0  0  0  0  0  0  0  0  0
   41.8256   30.0083   38.6541 H   0  0  0  0  0  0  0  0  0  0  0  0
   38.2177   27.7480   39.1424 H   0  0  0  0  0  0  0  0  0  0  0  0
  1  2  1  0
  1 10  1  0
  3  2  1  0
  4  5  1  0
  4  3  1  0
  5  1  1  0
  6  7  2  0
  8  7  1  0
  9  8  2  0
 10  9  1  0
 10 11  2  0
 11  6  1  0
 12  5  1  0
 12 16  1  0
 13 14  2  0
 13 12  1  0
 14 15  1  0
 15 16  2  0
  1 17  1  6
  2 18  1  0
  2 19  1  0
  3 20  1  0
  3 21  1  0
  4 22  1  0
  4 23  1  0
  5 24  1  6
  6 25  1  0
  7 26  1  0
  8 27  1  0
 13 28  1  0
 14 29  1  0
 16 30  1  0
M  ISO  8  17  13  18  13  19  13  20  13  21  13  22  13  23  13  24  13
M  ISO  6  25  14  26  14  27  14  28  14  29  14  30  14
M  END
>  <minimizedAffinity>  (1) 
-4.25731277

>  <minimizedRMSD>  (1) 
0.660975039

$$$$
