
     RDKit          3D

 25 26  0  0  1  0  0  0  0  0999 V2000
   36.9690   31.1780   40.4620 C   0  0  1  0  0  0  0  0  0  0  0  0
   37.9050   32.3140   40.7130 C   0  0  0  0  0  0  0  0  0  0  0  0
   37.5130   33.2190   39.5510 C   0  0  0  0  0  0  0  0  0  0  0  0
   37.2600   32.2510   38.4090 C   0  0  0  0  0  0  0  0  0  0  0  0
   37.1780   30.8600   39.0170 C   0  0  1  0  0  0  0  0  0  0  0  0
   38.4500   29.1130   43.1240 C   0  0  0  0  0  0  0  0  0  0  0  0
   37.5650   27.9790   43.1500 C   0  0  0  0  0  0  0  0  0  0  0  0
   36.4860   27.9490   42.2470 C   0  0  0  0  0  0  0  0  0  0  0  0
   36.3190   28.9810   41.3890 N   0  0  0  0  0  0  0  0  0  0  0  0
   37.1880   30.0440   41.3990 C   0  0  0  0  0  0  0  0  0  0  0  0
   38.2240   30.1060   42.2430 N   0  0  0  0  0  0  0  0  0  0  0  0
   38.3290   30.0070   38.7130 C   0  0  0  0  0  0  0  0  0  0  0  0
   39.2600   30.3740   37.9830 O   0  0  0  0  0  0  0  0  0  0  0  0
   35.9150   31.4254   40.6568 H   0  0  0  0  0  0  0  0  0  0  0  0
   37.7200   32.7916   41.6865 H   0  0  0  0  0  0  0  0  0  0  0  0
   38.9702   32.0435   40.7591 H   0  0  0  0  0  0  0  0  0  0  0  0
   36.6040   33.7909   39.7888 H   0  0  0  0  0  0  0  0  0  0  0  0
   38.2852   33.9655   39.3133 H   0  0  0  0  0  0  0  0  0  0  0  0
   38.0854   32.2983   37.6835 H   0  0  0  0  0  0  0  0  0  0  0  0
   36.3301   32.5035   37.8784 H   0  0  0  0  0  0  0  0  0  0  0  0
   36.3738   30.2335   38.6039 H   0  0  0  0  0  0  0  0  0  0  0  0
   39.3026   29.1683   43.8168 H   0  0  0  0  0  0  0  0  0  0  0  0
   37.7280   27.1543   43.8594 H   0  0  0  0  0  0  0  0  0  0  0  0
   35.7885   27.0984   42.2392 H   0  0  0  0  0  0  0  0  0  0  0  0
   38.3684   28.9987   39.1510 H   0  0  0  0  0  0  0  0  0  0  0  0
  1  2  1  0
  1 10  1  0
  3  2  1  0
  4  5  1  0
  4  3  1  0
  5  1  1  0
  6  7  2  0
  8  7  1  0
  9 10  1  0
  9  8  2  0
 10 11  2  0
 11  6  1  0
 12  5  1  0
 13 12  2  0
  1 14  1  6
  2 15  1  0
  2 16  1  0
  3 17  1  0
  3 18  1  0
  4 19  1  0
  4 20  1  0
  5 21  1  6
  6 22  1  0
  7 23  1  0
  8 24  1  0
 12 25  1  0
M  ISO  8  14  13  15  13  16  13  17  13  18  13  19  13  20  13  21  13
M  ISO  4  22  14  23  14  24  14  25   6
M  END
>  <minimizedAffinity>  (1) 
-3.98905277

>  <minimizedRMSD>  (1) 
0.560967386

$$$$
