
     RDKit          3D

 45 48  0  0  1  0  0  0  0  0999 V2000
   36.9270   30.7570   40.5350 C   0  0  1  0  0  0  0  0  0  0  0  0
   37.7500   31.9750   40.6840 C   0  0  0  0  0  0  0  0  0  0  0  0
   37.4940   32.7010   39.3590 C   0  0  0  0  0  0  0  0  0  0  0  0
   37.0440   31.6340   38.3880 C   0  0  0  0  0  0  0  0  0  0  0  0
   37.2240   30.3140   39.1110 C   0  0  2  0  0  0  0  0  0  0  0  0
   38.7630   28.8710   43.1280 C   0  0  0  0  0  0  0  0  0  0  0  0
   37.8090   27.8430   43.4680 C   0  0  0  0  0  0  0  0  0  0  0  0
   36.5680   27.8280   42.7840 C   0  0  0  0  0  0  0  0  0  0  0  0
   36.3010   28.7630   41.8390 N   0  0  0  0  0  0  0  0  0  0  0  0
   37.2490   29.7220   41.5570 C   0  0  0  0  0  0  0  0  0  0  0  0
   38.4500   29.7800   42.1800 N   0  0  0  0  0  0  0  0  0  0  0  0
   36.3380   29.2750   38.6390 C   0  0  0  0  0  0  0  0  0  0  0  0
   35.0290   29.1280   38.1820 C   0  0  0  0  0  0  0  0  0  0  0  0
   34.5860   27.9020   37.8310 C   0  0  0  0  0  0  0  0  0  0  0  0
   35.4290   26.8000   37.9230 C   0  0  0  0  0  0  0  0  0  0  0  0
   37.0180   27.5550   38.5770 S   0  0  0  0  0  0  0  0  0  0  0  0
   35.2010   25.4820   37.6020 N   0  0  0  0  0  0  0  0  0  0  0  0
   34.5070   24.7830   36.5410 C   0  0  0  0  0  0  0  0  0  0  0  0
   33.5200   23.8340   37.1680 C   0  0  0  0  0  0  0  0  0  0  0  0
   34.2020   22.8790   38.0860 C   0  0  0  0  0  0  0  0  0  0  0  0
   35.6390   23.2010   38.3850 C   0  0  0  0  0  0  0  0  0  0  0  0
   35.8360   24.6770   38.6360 C   0  0  0  0  0  0  0  0  0  0  0  0
   35.8544   30.9361   40.7007 H   0  0  0  0  0  0  0  0  0  0  0  0
   37.4172   32.5792   41.5409 H   0  0  0  0  0  0  0  0  0  0  0  0
   38.8132   31.7693   40.8772 H   0  0  0  0  0  0  0  0  0  0  0  0
   36.7091   33.4615   39.4839 H   0  0  0  0  0  0  0  0  0  0  0  0
   38.3943   33.2219   39.0011 H   0  0  0  0  0  0  0  0  0  0  0  0
   37.6614   31.6594   37.4780 H   0  0  0  0  0  0  0  0  0  0  0  0
   36.0001   31.7853   38.0760 H   0  0  0  0  0  0  0  0  0  0  0  0
   38.2084   29.8437   38.9701 H   0  0  0  0  0  0  0  0  0  0  0  0
   39.7372   28.9137   43.6370 H   0  0  0  0  0  0  0  0  0  0  0  0
   38.0389   27.0913   44.2374 H   0  0  0  0  0  0  0  0  0  0  0  0
   35.8201   27.0566   43.0201 H   0  0  0  0  0  0  0  0  0  0  0  0
   34.3645   30.0015   38.1082 H   0  0  0  0  0  0  0  0  0  0  0  0
   33.5545   27.7744   37.4709 H   0  0  0  0  0  0  0  0  0  0  0  0
   35.2293   24.2198   35.9318 H   0  0  0  0  0  0  0  0  0  0  0  0
   33.9836   25.5010   35.8926 H   0  0  0  0  0  0  0  0  0  0  0  0
   32.7780   24.4124   37.7380 H   0  0  0  0  0  0  0  0  0  0  0  0
   33.0309   23.2597   36.3674 H   0  0  0  0  0  0  0  0  0  0  0  0
   33.6500   22.8671   39.0374 H   0  0  0  0  0  0  0  0  0  0  0  0
   34.2058   21.9072   37.5707 H   0  0  0  0  0  0  0  0  0  0  0  0
   35.9518   22.6417   39.2791 H   0  0  0  0  0  0  0  0  0  0  0  0
   36.2448   22.9160   37.5122 H   0  0  0  0  0  0  0  0  0  0  0  0
   36.9137   24.8969   38.6492 H   0  0  0  0  0  0  0  0  0  0  0  0
   35.3741   24.9282   39.6022 H   0  0  0  0  0  0  0  0  0  0  0  0
  1  2  1  0
  1 10  1  0
  3  2  1  0
  4  5  1  0
  4  3  1  0
  5  1  1  0
  6  7  2  0
  8  7  1  0
  9  8  2  0
 10  9  1  0
 10 11  2  0
 11  6  1  0
 12  5  1  0
 13 12  2  0
 14 15  2  0
 14 13  1  0
 15 16  1  0
 16 12  1  0
 17 15  1  0
 17 22  1  0
 18 19  1  0
 18 17  1  0
 19 20  1  0
 20 21  1  0
 21 22  1  0
  1 23  1  6
  2 24  1  0
  2 25  1  0
  3 26  1  0
  3 27  1  0
  4 28  1  0
  4 29  1  0
  5 30  1  1
  6 31  1  0
  7 32  1  0
  8 33  1  0
 13 34  1  0
 14 35  1  0
 18 36  1  0
 18 37  1  0
 19 38  1  0
 19 39  1  0
 20 40  1  0
 20 41  1  0
 21 42  1  0
 21 43  1  0
 22 44  1  0
 22 45  1  0
M  ISO  8  23  13  24  13  25  13  26  13  27  13  28  13  29  13  30  13
M  ISO  8  31  14  32  14  33  14  34  14  35  14  36  13  37  13  38  13
M  ISO  7  39  13  40  13  41  13  42  13  43  13  44  13  45  13
M  END
>  <minimizedAffinity>  (1) 
-4.96216679

>  <minimizedRMSD>  (1) 
0.886946619

$$$$
