
     RDKit          3D

 40 43  0  0  1  0  0  0  0  0999 V2000
   36.9120   30.7540   40.5560 C   0  0  1  0  0  0  0  0  0  0  0  0
   37.7440   31.9620   40.6950 C   0  0  0  0  0  0  0  0  0  0  0  0
   37.4490   32.6960   39.4010 C   0  0  0  0  0  0  0  0  0  0  0  0
   37.0130   31.6310   38.4060 C   0  0  0  0  0  0  0  0  0  0  0  0
   37.2130   30.3150   39.1280 C   0  0  2  0  0  0  0  0  0  0  0  0
   38.7600   28.8730   43.1430 C   0  0  0  0  0  0  0  0  0  0  0  0
   37.8150   27.8360   43.4860 C   0  0  0  0  0  0  0  0  0  0  0  0
   36.5700   27.8100   42.8060 C   0  0  0  0  0  0  0  0  0  0  0  0
   36.3000   28.7490   41.8620 N   0  0  0  0  0  0  0  0  0  0  0  0
   37.2280   29.7070   41.5750 C   0  0  0  0  0  0  0  0  0  0  0  0
   38.4360   29.7760   42.1970 N   0  0  0  0  0  0  0  0  0  0  0  0
   36.3370   29.2590   38.6510 C   0  0  0  0  0  0  0  0  0  0  0  0
   35.0450   29.0890   38.2050 C   0  0  0  0  0  0  0  0  0  0  0  0
   34.5990   27.8680   37.8410 C   0  0  0  0  0  0  0  0  0  0  0  0
   35.4690   26.7850   37.9250 C   0  0  0  0  0  0  0  0  0  0  0  0
   37.0410   27.5570   38.5720 S   0  0  0  0  0  0  0  0  0  0  0  0
   35.2590   25.4380   37.6130 C   0  0  0  0  0  0  0  0  0  0  0  0
   34.6670   25.0280   36.4370 C   0  0  0  0  0  0  0  0  0  0  0  0
   34.5040   23.6880   36.2220 C   0  0  0  0  0  0  0  0  0  0  0  0
   34.8830   22.7040   37.0840 C   0  0  0  0  0  0  0  0  0  0  0  0
   35.4790   23.1110   38.2680 C   0  0  0  0  0  0  0  0  0  0  0  0
   35.6610   24.4720   38.5210 C   0  0  0  0  0  0  0  0  0  0  0  0
   35.8422   30.9393   40.7329 H   0  0  0  0  0  0  0  0  0  0  0  0
   37.4427   32.5568   41.5699 H   0  0  0  0  0  0  0  0  0  0  0  0
   38.8119   31.7503   40.8523 H   0  0  0  0  0  0  0  0  0  0  0  0
   36.6439   33.4300   39.5527 H   0  0  0  0  0  0  0  0  0  0  0  0
   38.3295   33.2482   39.0408 H   0  0  0  0  0  0  0  0  0  0  0  0
   37.6335   31.6724   37.4986 H   0  0  0  0  0  0  0  0  0  0  0  0
   35.9712   31.7702   38.0816 H   0  0  0  0  0  0  0  0  0  0  0  0
   38.2038   29.8581   38.9879 H   0  0  0  0  0  0  0  0  0  0  0  0
   39.7351   28.9251   43.6494 H   0  0  0  0  0  0  0  0  0  0  0  0
   38.0542   27.0860   44.2543 H   0  0  0  0  0  0  0  0  0  0  0  0
   35.8273   27.0336   43.0419 H   0  0  0  0  0  0  0  0  0  0  0  0
   34.3706   29.9559   38.1449 H   0  0  0  0  0  0  0  0  0  0  0  0
   33.5673   27.7316   37.4847 H   0  0  0  0  0  0  0  0  0  0  0  0
   34.3336   25.7625   35.6891 H   0  0  0  0  0  0  0  0  0  0  0  0
   34.0294   23.3802   35.2786 H   0  0  0  0  0  0  0  0  0  0  0  0
   34.7243   21.6404   36.8527 H   0  0  0  0  0  0  0  0  0  0  0  0
   35.8074   22.3640   39.0056 H   0  0  0  0  0  0  0  0  0  0  0  0
   36.1347   24.7845   39.4633 H   0  0  0  0  0  0  0  0  0  0  0  0
  1  2  1  0
  1 10  1  0
  3  2  1  0
  4  5  1  0
  4  3  1  0
  5  1  1  0
  6  7  2  0
  8  7  1  0
  9  8  2  0
 10  9  1  0
 10 11  2  0
 11  6  1  0
 12  5  1  0
 13 12  2  0
 14 15  2  0
 14 13  1  0
 15 16  1  0
 16 12  1  0
 17 15  1  0
 17 22  1  0
 18 17  2  0
 19 18  1  0
 19 20  2  0
 20 21  1  0
 21 22  2  0
  1 23  1  6
  2 24  1  0
  2 25  1  0
  3 26  1  0
  3 27  1  0
  4 28  1  0
  4 29  1  0
  5 30  1  1
  6 31  1  0
  7 32  1  0
  8 33  1  0
 13 34  1  0
 14 35  1  0
 18 36  1  0
 19 37  1  0
 20 38  1  0
 21 39  1  0
 22 40  1  0
M  ISO  8  23  13  24  13  25  13  26  13  27  13  28  13  29  13  30  13
M  ISO  8  31  14  32  14  33  14  34  14  35  14  36  14  37  14  38  14
M  ISO  2  39  14  40  14
M  END
>  <minimizedAffinity>  (1) 
-4.9475131

>  <minimizedRMSD>  (1) 
0.865715802

$$$$
