
     RDKit          3D

 41 44  0  0  1  0  0  0  0  0999 V2000
   36.9250   30.7520   40.5460 C   0  0  1  0  0  0  0  0  0  0  0  0
   37.7390   31.9690   40.6960 C   0  0  0  0  0  0  0  0  0  0  0  0
   37.4620   32.6960   39.3810 C   0  0  0  0  0  0  0  0  0  0  0  0
   37.0150   31.6260   38.3990 C   0  0  0  0  0  0  0  0  0  0  0  0
   37.2240   30.3130   39.1170 C   0  0  2  0  0  0  0  0  0  0  0  0
   38.7640   28.8760   43.1420 C   0  0  0  0  0  0  0  0  0  0  0  0
   37.8160   27.8380   43.4810 C   0  0  0  0  0  0  0  0  0  0  0  0
   36.5730   27.8110   42.7960 C   0  0  0  0  0  0  0  0  0  0  0  0
   36.3020   28.7500   41.8470 N   0  0  0  0  0  0  0  0  0  0  0  0
   37.2390   29.7070   41.5700 C   0  0  0  0  0  0  0  0  0  0  0  0
   38.4470   29.7800   42.1950 N   0  0  0  0  0  0  0  0  0  0  0  0
   36.3490   29.2530   38.6450 C   0  0  0  0  0  0  0  0  0  0  0  0
   35.0470   29.0920   38.2100 C   0  0  0  0  0  0  0  0  0  0  0  0
   34.6000   27.8700   37.8480 C   0  0  0  0  0  0  0  0  0  0  0  0
   35.4600   26.7790   37.9160 C   0  0  0  0  0  0  0  0  0  0  0  0
   37.0490   27.5540   38.5520 S   0  0  0  0  0  0  0  0  0  0  0  0
   35.2760   25.4670   37.6180 N   0  0  0  0  0  0  0  0  0  0  0  0
   36.2080   24.5340   37.8780 C   0  0  0  0  0  0  0  0  0  0  0  0
   35.8910   23.2180   37.5220 C   0  0  0  0  0  0  0  0  0  0  0  0
   34.6660   22.9040   36.9270 C   0  0  0  0  0  0  0  0  0  0  0  0
   34.3650   21.5680   36.5750 N   0  0  0  0  0  0  0  0  0  0  0  0
   33.7550   23.8920   36.6850 N   0  0  0  0  0  0  0  0  0  0  0  0
   34.0990   25.1550   37.0460 C   0  0  0  0  0  0  0  0  0  0  0  0
   33.1750   25.9770   36.7710 O   0  0  0  0  0  0  0  0  0  0  0  0
   35.8528   30.9302   40.7150 H   0  0  0  0  0  0  0  0  0  0  0  0
   37.4114   32.5657   41.5600 H   0  0  0  0  0  0  0  0  0  0  0  0
   38.8055   31.7712   40.8790 H   0  0  0  0  0  0  0  0  0  0  0  0
   36.6683   33.4451   39.5179 H   0  0  0  0  0  0  0  0  0  0  0  0
   38.3535   33.2290   39.0189 H   0  0  0  0  0  0  0  0  0  0  0  0
   37.6231   31.6653   37.4832 H   0  0  0  0  0  0  0  0  0  0  0  0
   35.9677   31.7632   38.0919 H   0  0  0  0  0  0  0  0  0  0  0  0
   38.2159   29.8602   38.9715 H   0  0  0  0  0  0  0  0  0  0  0  0
   39.7365   28.9270   43.6535 H   0  0  0  0  0  0  0  0  0  0  0  0
   38.0522   27.0881   44.2504 H   0  0  0  0  0  0  0  0  0  0  0  0
   35.8306   27.0340   43.0308 H   0  0  0  0  0  0  0  0  0  0  0  0
   34.3738   29.9604   38.1586 H   0  0  0  0  0  0  0  0  0  0  0  0
   33.5641   27.7386   37.5022 H   0  0  0  0  0  0  0  0  0  0  0  0
   37.1696   24.7913   38.3461 H   0  0  0  0  0  0  0  0  0  0  0  0
   36.6193   22.4163   37.7140 H   0  0  0  0  0  0  0  0  0  0  0  0
   33.4607   21.3421   36.1367 H   0  0  0  0  0  0  0  0  0  0  0  0
   35.0501   20.8207   36.7569 H   0  0  0  0  0  0  0  0  0  0  0  0
  1  2  1  0
  1 10  1  0
  3  2  1  0
  4  5  1  0
  4  3  1  0
  5  1  1  0
  6  7  2  0
  8  7  1  0
  9  8  2  0
 10  9  1  0
 10 11  2  0
 11  6  1  0
 12  5  1  0
 13 12  2  0
 14 15  2  0
 14 13  1  0
 15 16  1  0
 16 12  1  0
 17 18  1  0
 17 15  1  0
 19 18  2  0
 20 19  1  0
 21 20  1  0
 22 20  2  0
 22 23  1  0
 23 17  1  0
 24 23  2  0
  1 25  1  6
  2 26  1  0
  2 27  1  0
  3 28  1  0
  3 29  1  0
  4 30  1  0
  4 31  1  0
  5 32  1  1
  6 33  1  0
  7 34  1  0
  8 35  1  0
 13 36  1  0
 14 37  1  0
 18 38  1  0
 19 39  1  0
 21 40  1  0
 21 41  1  0
M  ISO  8  25  13  26  13  27  13  28  13  29  13  30  13  31  13  32  13
M  ISO  7  33  14  34  14  35  14  36  14  37  14  38  14  39  14
M  END
>  <minimizedAffinity>  (1) 
-4.93286562

>  <minimizedRMSD>  (1) 
0.919150233

$$$$
