
     RDKit          3D

 39 42  0  0  1  0  0  0  0  0999 V2000
   36.9200   30.9060   40.4270 C   0  0  1  0  0  0  0  0  0  0  0  0
   37.7310   32.1300   40.5460 C   0  0  0  0  0  0  0  0  0  0  0  0
   37.4430   32.8250   39.2300 C   0  0  0  0  0  0  0  0  0  0  0  0
   37.0550   31.7260   38.2530 C   0  0  0  0  0  0  0  0  0  0  0  0
   37.2350   30.4280   39.0140 C   0  0  2  0  0  0  0  0  0  0  0  0
   38.7360   29.1370   43.1170 C   0  0  0  0  0  0  0  0  0  0  0  0
   37.8140   28.0770   43.4530 C   0  0  0  0  0  0  0  0  0  0  0  0
   36.5970   27.9990   42.7320 C   0  0  0  0  0  0  0  0  0  0  0  0
   36.3240   28.9110   41.7520 N   0  0  0  0  0  0  0  0  0  0  0  0
   37.2380   29.8920   41.4810 C   0  0  0  0  0  0  0  0  0  0  0  0
   38.4210   30.0130   42.1400 N   0  0  0  0  0  0  0  0  0  0  0  0
   36.3710   29.3560   38.5650 C   0  0  0  0  0  0  0  0  0  0  0  0
   35.0700   29.1610   38.1610 C   0  0  0  0  0  0  0  0  0  0  0  0
   34.6180   27.9400   37.8110 C   0  0  0  0  0  0  0  0  0  0  0  0
   35.5090   26.8750   37.8720 C   0  0  0  0  0  0  0  0  0  0  0  0
   37.0980   27.6690   38.4650 S   0  0  0  0  0  0  0  0  0  0  0  0
   35.3130   25.4820   37.5640 C   0  0  0  0  0  0  0  0  0  0  0  0
   35.6590   24.5220   38.4840 C   0  0  0  0  0  0  0  0  0  0  0  0
   35.4400   23.2230   38.1130 C   0  0  0  0  0  0  0  0  0  0  0  0
   34.8990   22.9480   36.8680 C   0  0  0  0  0  0  0  0  0  0  0  0
   34.5630   23.9370   35.9670 C   0  0  0  0  0  0  0  0  0  0  0  0
   34.7930   25.2170   36.3690 N   0  0  0  0  0  0  0  0  0  0  0  0
   35.8458   31.0834   40.5841 H   0  0  0  0  0  0  0  0  0  0  0  0
   37.4082   32.7423   41.4009 H   0  0  0  0  0  0  0  0  0  0  0  0
   38.7997   31.9396   40.7235 H   0  0  0  0  0  0  0  0  0  0  0  0
   36.6162   33.5408   39.3485 H   0  0  0  0  0  0  0  0  0  0  0  0
   38.3158   33.3918   38.8737 H   0  0  0  0  0  0  0  0  0  0  0  0
   37.7098   31.7479   37.3694 H   0  0  0  0  0  0  0  0  0  0  0  0
   36.0238   31.8473   37.8898 H   0  0  0  0  0  0  0  0  0  0  0  0
   38.2257   29.9661   38.8909 H   0  0  0  0  0  0  0  0  0  0  0  0
   39.6908   29.2298   43.6552 H   0  0  0  0  0  0  0  0  0  0  0  0
   38.0499   27.3516   44.2455 H   0  0  0  0  0  0  0  0  0  0  0  0
   35.8719   27.2042   42.9612 H   0  0  0  0  0  0  0  0  0  0  0  0
   34.3840   30.0200   38.1228 H   0  0  0  0  0  0  0  0  0  0  0  0
   33.5772   27.7914   37.4875 H   0  0  0  0  0  0  0  0  0  0  0  0
   36.0876   24.7826   39.4630 H   0  0  0  0  0  0  0  0  0  0  0  0
   35.6923   22.4017   38.7999 H   0  0  0  0  0  0  0  0  0  0  0  0
   34.7304   21.8982   36.5862 H   0  0  0  0  0  0  0  0  0  0  0  0
   34.1341   23.7048   34.9810 H   0  0  0  0  0  0  0  0  0  0  0  0
  1  2  1  0
  1 10  1  0
  3  2  1  0
  4  5  1  0
  4  3  1  0
  5  1  1  0
  6  7  2  0
  8  7  1  0
  9  8  2  0
 10  9  1  0
 10 11  2  0
 11  6  1  0
 12  5  1  0
 13 12  2  0
 14 15  2  0
 14 13  1  0
 15 16  1  0
 16 12  1  0
 17 15  1  0
 17 18  2  0
 19 18  1  0
 20 19  2  0
 21 22  2  0
 21 20  1  0
 22 17  1  0
  1 23  1  6
  2 24  1  0
  2 25  1  0
  3 26  1  0
  3 27  1  0
  4 28  1  0
  4 29  1  0
  5 30  1  1
  6 31  1  0
  7 32  1  0
  8 33  1  0
 13 34  1  0
 14 35  1  0
 18 36  1  0
 19 37  1  0
 20 38  1  0
 21 39  1  0
M  ISO  8  23  13  24  13  25  13  26  13  27  13  28  13  29  13  30  13
M  ISO  8  31  14  32  14  33  14  34  14  35  14  36  14  37  14  38  14
M  ISO  1  39  14
M  END
>  <minimizedAffinity>  (1) 
-4.8702631

>  <minimizedRMSD>  (1) 
0.766040862

$$$$
