
     RDKit          3D

 38 41  0  0  1  0  0  0  0  0999 V2000
   36.8970   30.7560   40.5620 C   0  0  1  0  0  0  0  0  0  0  0  0
   37.6950   31.9810   40.7290 C   0  0  0  0  0  0  0  0  0  0  0  0
   37.4130   32.7200   39.4270 C   0  0  0  0  0  0  0  0  0  0  0  0
   37.0150   31.6580   38.4200 C   0  0  0  0  0  0  0  0  0  0  0  0
   37.2180   30.3390   39.1300 C   0  0  2  0  0  0  0  0  0  0  0  0
   38.7400   28.8800   43.1560 C   0  0  0  0  0  0  0  0  0  0  0  0
   37.8050   27.8230   43.4650 C   0  0  0  0  0  0  0  0  0  0  0  0
   36.5730   27.7770   42.7670 C   0  0  0  0  0  0  0  0  0  0  0  0
   36.2940   28.7240   41.8240 N   0  0  0  0  0  0  0  0  0  0  0  0
   37.2180   29.7030   41.5740 C   0  0  0  0  0  0  0  0  0  0  0  0
   38.4150   29.7900   42.2160 N   0  0  0  0  0  0  0  0  0  0  0  0
   36.3570   29.2780   38.6350 C   0  0  0  0  0  0  0  0  0  0  0  0
   35.0580   29.0840   38.2290 C   0  0  0  0  0  0  0  0  0  0  0  0
   34.6300   27.8710   37.8230 C   0  0  0  0  0  0  0  0  0  0  0  0
   35.5330   26.8130   37.8230 C   0  0  0  0  0  0  0  0  0  0  0  0
   37.1070   27.6060   38.4470 S   0  0  0  0  0  0  0  0  0  0  0  0
   35.3730   25.4760   37.4620 C   0  0  0  0  0  0  0  0  0  0  0  0
   35.5000   24.4470   38.3720 C   0  0  0  0  0  0  0  0  0  0  0  0
   35.3300   23.1570   37.9500 C   0  0  0  0  0  0  0  0  0  0  0  0
   35.0440   22.9040   36.6610 N   0  0  0  0  0  0  0  0  0  0  0  0
   34.9190   23.9120   35.7580 C   0  0  0  0  0  0  0  0  0  0  0  0
   35.0860   25.1750   36.1780 N   0  0  0  0  0  0  0  0  0  0  0  0
   35.8215   30.9173   40.7269 H   0  0  0  0  0  0  0  0  0  0  0  0
   37.3581   32.5623   41.6000 H   0  0  0  0  0  0  0  0  0  0  0  0
   38.7635   31.7939   40.9113 H   0  0  0  0  0  0  0  0  0  0  0  0
   36.5936   33.4405   39.5664 H   0  0  0  0  0  0  0  0  0  0  0  0
   38.2923   33.2871   39.0875 H   0  0  0  0  0  0  0  0  0  0  0  0
   37.6530   31.7165   37.5259 H   0  0  0  0  0  0  0  0  0  0  0  0
   35.9769   31.7847   38.0791 H   0  0  0  0  0  0  0  0  0  0  0  0
   38.2157   29.8963   38.9934 H   0  0  0  0  0  0  0  0  0  0  0  0
   39.7047   28.9415   43.6810 H   0  0  0  0  0  0  0  0  0  0  0  0
   38.0451   27.0679   44.2280 H   0  0  0  0  0  0  0  0  0  0  0  0
   35.8445   26.9818   42.9839 H   0  0  0  0  0  0  0  0  0  0  0  0
   34.3566   29.9313   38.2353 H   0  0  0  0  0  0  0  0  0  0  0  0
   33.5895   27.7217   37.4989 H   0  0  0  0  0  0  0  0  0  0  0  0
   35.7353   24.6614   39.4249 H   0  0  0  0  0  0  0  0  0  0  0  0
   35.4273   22.3269   38.6651 H   0  0  0  0  0  0  0  0  0  0  0  0
   34.6858   23.6967   34.7048 H   0  0  0  0  0  0  0  0  0  0  0  0
  1  2  1  0
  1 10  1  0
  3  2  1  0
  4  5  1  0
  4  3  1  0
  5  1  1  0
  6  7  2  0
  8  7  1  0
  9  8  2  0
 10  9  1  0
 10 11  2  0
 11  6  1  0
 12  5  1  0
 13 12  2  0
 14 13  1  0
 15 14  2  0
 15 16  1  0
 16 12  1  0
 17 15  1  0
 17 18  2  0
 19 18  1  0
 20 19  2  0
 21 22  2  0
 21 20  1  0
 22 17  1  0
  1 23  1  6
  2 24  1  0
  2 25  1  0
  3 26  1  0
  3 27  1  0
  4 28  1  0
  4 29  1  0
  5 30  1  1
  6 31  1  0
  7 32  1  0
  8 33  1  0
 13 34  1  0
 14 35  1  0
 18 36  1  0
 19 37  1  0
 21 38  1  0
M  ISO  8  23  13  24  13  25  13  26  13  27  13  28  13  29  13  30  13
M  ISO  8  31  14  32  14  33  14  34  14  35  14  36  14  37  14  38  14
M  END
>  <minimizedAffinity>  (1) 
-4.8217392

>  <minimizedRMSD>  (1) 
0.776916981

$$$$
