
     RDKit          3D

 39 41  0  0  1  0  0  0  0  0999 V2000
   36.8950   30.8760   40.4320 C   0  0  1  0  0  0  0  0  0  0  0  0
   37.7300   32.0810   40.5660 C   0  0  0  0  0  0  0  0  0  0  0  0
   37.4430   32.8000   39.2550 C   0  0  0  0  0  0  0  0  0  0  0  0
   37.0500   31.7120   38.2670 C   0  0  0  0  0  0  0  0  0  0  0  0
   37.2160   30.4100   39.0170 C   0  0  2  0  0  0  0  0  0  0  0  0
   38.6230   29.0950   43.1670 C   0  0  0  0  0  0  0  0  0  0  0  0
   37.6980   28.0150   43.4350 C   0  0  0  0  0  0  0  0  0  0  0  0
   36.5110   27.9230   42.6610 C   0  0  0  0  0  0  0  0  0  0  0  0
   36.2690   28.8470   41.6890 N   0  0  0  0  0  0  0  0  0  0  0  0
   37.1780   29.8480   41.4800 C   0  0  0  0  0  0  0  0  0  0  0  0
   38.3290   29.9780   42.1940 N   0  0  0  0  0  0  0  0  0  0  0  0
   36.3430   29.3540   38.5450 C   0  0  0  0  0  0  0  0  0  0  0  0
   35.0290   29.1660   38.1600 C   0  0  0  0  0  0  0  0  0  0  0  0
   34.5880   27.9510   37.7750 C   0  0  0  0  0  0  0  0  0  0  0  0
   35.4840   26.8870   37.7750 C   0  0  0  0  0  0  0  0  0  0  0  0
   37.0750   27.6720   38.3650 S   0  0  0  0  0  0  0  0  0  0  0  0
   35.2530   25.4920   37.4050 C   0  0  0  0  0  0  0  0  0  0  0  0
   35.6980   24.5070   38.4580 C   0  0  0  0  0  0  0  0  0  0  0  0
   33.8230   25.2950   37.0420 C   0  0  0  0  0  0  0  0  0  0  0  0
   35.8228   31.0698   40.5833 H   0  0  0  0  0  0  0  0  0  0  0  0
   37.4241   32.6871   41.4315 H   0  0  0  0  0  0  0  0  0  0  0  0
   38.7960   31.8699   40.7364 H   0  0  0  0  0  0  0  0  0  0  0  0
   36.6191   33.5175   39.3833 H   0  0  0  0  0  0  0  0  0  0  0  0
   38.3159   33.3705   38.9050 H   0  0  0  0  0  0  0  0  0  0  0  0
   37.7087   31.7356   37.3864 H   0  0  0  0  0  0  0  0  0  0  0  0
   36.0215   31.8446   37.9001 H   0  0  0  0  0  0  0  0  0  0  0  0
   38.2042   29.9406   38.9028 H   0  0  0  0  0  0  0  0  0  0  0  0
   39.5514   29.1930   43.7488 H   0  0  0  0  0  0  0  0  0  0  0  0
   37.9105   27.2786   44.2240 H   0  0  0  0  0  0  0  0  0  0  0  0
   35.7917   27.1113   42.8448 H   0  0  0  0  0  0  0  0  0  0  0  0
   34.3338   30.0184   38.1677 H   0  0  0  0  0  0  0  0  0  0  0  0
   33.5420   27.8046   37.4675 H   0  0  0  0  0  0  0  0  0  0  0  0
   35.8828   25.2820   36.5280 H   0  0  0  0  0  0  0  0  0  0  0  0
   35.5082   24.9272   39.4567 H   0  0  0  0  0  0  0  0  0  0  0  0
   35.1366   23.5681   38.3424 H   0  0  0  0  0  0  0  0  0  0  0  0
   36.7736   24.3077   38.3424 H   0  0  0  0  0  0  0  0  0  0  0  0
   33.2202   25.2120   37.9584 H   0  0  0  0  0  0  0  0  0  0  0  0
   33.4734   26.1535   36.4497 H   0  0  0  0  0  0  0  0  0  0  0  0
   33.7186   24.3740   36.4497 H   0  0  0  0  0  0  0  0  0  0  0  0
  1  2  1  0
  1 10  1  0
  3  2  1  0
  4  5  1  0
  4  3  1  0
  5  1  1  0
  6  7  2  0
  8  7  1  0
  9  8  2  0
 10  9  1  0
 10 11  2  0
 11  6  1  0
 12  5  1  0
 13 12  2  0
 14 15  2  0
 14 13  1  0
 15 16  1  0
 16 12  1  0
 17 15  1  0
 17 18  1  0
 19 17  1  0
  1 20  1  6
  2 21  1  0
  2 22  1  0
  3 23  1  0
  3 24  1  0
  4 25  1  0
  4 26  1  0
  5 27  1  1
  6 28  1  0
  7 29  1  0
  8 30  1  0
 13 31  1  0
 14 32  1  0
 17 33  1  0
 18 34  1  0
 18 35  1  0
 18 36  1  0
 19 37  1  0
 19 38  1  0
 19 39  1  0
M  ISO  8  20  13  21  13  22  13  23  13  24  13  25  13  26  13  27  13
M  ISO  8  28  14  29  14  30  14  31  14  32  14  33   8  34   8  35   8
M  ISO  4  36   8  37   8  38   8  39   8
M  END
>  <minimizedAffinity>  (1) 
-4.78494501

>  <minimizedRMSD>  (1) 
0.550794244

$$$$
