
     RDKit          3D

 37 40  0  0  1  0  0  0  0  0999 V2000
   36.9010   30.7510   40.5560 C   0  0  1  0  0  0  0  0  0  0  0  0
   37.7020   31.9740   40.7260 C   0  0  0  0  0  0  0  0  0  0  0  0
   37.4390   32.7080   39.4100 C   0  0  0  0  0  0  0  0  0  0  0  0
   37.0020   31.6500   38.4200 C   0  0  0  0  0  0  0  0  0  0  0  0
   37.2200   30.3310   39.1270 C   0  0  2  0  0  0  0  0  0  0  0  0
   38.7320   28.8730   43.1590 C   0  0  0  0  0  0  0  0  0  0  0  0
   37.8000   27.8140   43.4710 C   0  0  0  0  0  0  0  0  0  0  0  0
   36.5710   27.7750   42.7650 C   0  0  0  0  0  0  0  0  0  0  0  0
   36.2970   28.7200   41.8240 N   0  0  0  0  0  0  0  0  0  0  0  0
   37.2210   29.7000   41.5730 C   0  0  0  0  0  0  0  0  0  0  0  0
   38.4150   29.7870   42.2170 N   0  0  0  0  0  0  0  0  0  0  0  0
   36.3610   29.2670   38.6350 C   0  0  0  0  0  0  0  0  0  0  0  0
   35.0530   29.0720   38.2430 C   0  0  0  0  0  0  0  0  0  0  0  0
   34.6310   27.8580   37.8330 C   0  0  0  0  0  0  0  0  0  0  0  0
   35.5380   26.8030   37.8100 C   0  0  0  0  0  0  0  0  0  0  0  0
   37.1170   27.6020   38.4220 S   0  0  0  0  0  0  0  0  0  0  0  0
   35.4100   25.4960   37.4530 N   0  0  0  0  0  0  0  0  0  0  0  0
   35.1370   24.9160   36.2710 C   0  0  0  0  0  0  0  0  0  0  0  0
   35.1290   23.5440   36.4910 C   0  0  0  0  0  0  0  0  0  0  0  0
   35.3950   23.3060   37.7970 N   0  0  0  0  0  0  0  0  0  0  0  0
   35.5660   24.5090   38.3790 C   0  0  0  0  0  0  0  0  0  0  0  0
   35.8249   30.9143   40.7154 H   0  0  0  0  0  0  0  0  0  0  0  0
   37.3559   32.5624   41.5885 H   0  0  0  0  0  0  0  0  0  0  0  0
   38.7672   31.7840   40.9241 H   0  0  0  0  0  0  0  0  0  0  0  0
   36.6451   33.4577   39.5430 H   0  0  0  0  0  0  0  0  0  0  0  0
   38.3360   33.2400   39.0601 H   0  0  0  0  0  0  0  0  0  0  0  0
   37.6108   31.7026   37.5054 H   0  0  0  0  0  0  0  0  0  0  0  0
   35.9545   31.7830   38.1119 H   0  0  0  0  0  0  0  0  0  0  0  0
   38.2187   29.8915   38.9873 H   0  0  0  0  0  0  0  0  0  0  0  0
   39.6954   28.9344   43.6864 H   0  0  0  0  0  0  0  0  0  0  0  0
   38.0373   27.0590   44.2350 H   0  0  0  0  0  0  0  0  0  0  0  0
   35.8393   26.9816   42.9775 H   0  0  0  0  0  0  0  0  0  0  0  0
   34.3467   29.9150   38.2649 H   0  0  0  0  0  0  0  0  0  0  0  0
   33.5871   27.7047   37.5220 H   0  0  0  0  0  0  0  0  0  0  0  0
   34.9552   25.4285   35.3148 H   0  0  0  0  0  0  0  0  0  0  0  0
   34.9375   22.7756   35.7276 H   0  0  0  0  0  0  0  0  0  0  0  0
   35.7969   24.6701   39.4424 H   0  0  0  0  0  0  0  0  0  0  0  0
  1  2  1  0
  1 10  1  0
  3  2  1  0
  4  5  1  0
  4  3  1  0
  5  1  1  0
  6  7  2  0
  8  7  1  0
  9  8  2  0
 10  9  1  0
 10 11  2  0
 11  6  1  0
 12  5  1  0
 13 12  2  0
 14 13  1  0
 15 14  2  0
 15 16  1  0
 16 12  1  0
 17 15  1  0
 17 21  1  0
 18 19  2  0
 18 17  1  0
 19 20  1  0
 20 21  2  0
  1 22  1  6
  2 23  1  0
  2 24  1  0
  3 25  1  0
  3 26  1  0
  4 27  1  0
  4 28  1  0
  5 29  1  1
  6 30  1  0
  7 31  1  0
  8 32  1  0
 13 33  1  0
 14 34  1  0
 18 35  1  0
 19 36  1  0
 21 37  1  0
M  ISO  8  22  13  23  13  24  13  25  13  26  13  27  13  28  13  29  13
M  ISO  8  30  14  31  14  32  14  33  14  34  14  35  14  36  14  37  14
M  END
>  <minimizedAffinity>  (1) 
-4.68284321

>  <minimizedRMSD>  (1) 
0.674798965

$$$$
