
     RDKit          3D

 32 34  0  0  1  0  0  0  0  0999 V2000
   36.9140   31.0170   40.3850 C   0  0  1  0  0  0  0  0  0  0  0  0
   37.6710   32.2550   40.6330 C   0  0  0  0  0  0  0  0  0  0  0  0
   37.4490   33.0170   39.3320 C   0  0  0  0  0  0  0  0  0  0  0  0
   37.1760   31.9630   38.2740 C   0  0  0  0  0  0  0  0  0  0  0  0
   37.3480   30.6390   38.9740 C   0  0  2  0  0  0  0  0  0  0  0  0
   38.5970   29.1420   43.0880 C   0  0  0  0  0  0  0  0  0  0  0  0
   37.6820   28.0440   43.2990 C   0  0  0  0  0  0  0  0  0  0  0  0
   36.5160   27.9780   42.4950 C   0  0  0  0  0  0  0  0  0  0  0  0
   36.2840   28.9360   41.5510 N   0  0  0  0  0  0  0  0  0  0  0  0
   37.1860   29.9510   41.3980 C   0  0  0  0  0  0  0  0  0  0  0  0
   38.3200   30.0630   42.1410 N   0  0  0  0  0  0  0  0  0  0  0  0
   36.5570   29.5670   38.3990 C   0  0  0  0  0  0  0  0  0  0  0  0
   35.2780   29.3320   37.9540 C   0  0  0  0  0  0  0  0  0  0  0  0
   34.9100   28.1270   37.4710 C   0  0  0  0  0  0  0  0  0  0  0  0
   35.8600   27.1100   37.4290 C   0  0  0  0  0  0  0  0  0  0  0  0
   37.3850   27.9450   38.1320 S   0  0  0  0  0  0  0  0  0  0  0  0
   35.8840   25.7710   37.0170 C   0  0  0  0  0  0  0  0  0  0  0  0
   35.1430   24.9510   37.6200 O   0  0  0  0  0  0  0  0  0  0  0  0
   35.8257   31.1500   40.4739 H   0  0  0  0  0  0  0  0  0  0  0  0
   37.2671   32.8064   41.4949 H   0  0  0  0  0  0  0  0  0  0  0  0
   38.7303   32.0896   40.8791 H   0  0  0  0  0  0  0  0  0  0  0  0
   36.5881   33.6950   39.4278 H   0  0  0  0  0  0  0  0  0  0  0  0
   38.3214   33.6343   39.0715 H   0  0  0  0  0  0  0  0  0  0  0  0
   37.8925   32.0557   37.4445 H   0  0  0  0  0  0  0  0  0  0  0  0
   36.1704   32.0691   37.8409 H   0  0  0  0  0  0  0  0  0  0  0  0
   38.3635   30.2221   38.9037 H   0  0  0  0  0  0  0  0  0  0  0  0
   39.5113   29.2266   43.6938 H   0  0  0  0  0  0  0  0  0  0  0  0
   37.8846   27.2793   44.0633 H   0  0  0  0  0  0  0  0  0  0  0  0
   35.7989   27.1552   42.6320 H   0  0  0  0  0  0  0  0  0  0  0  0
   34.5376   30.1446   37.9925 H   0  0  0  0  0  0  0  0  0  0  0  0
   33.8828   27.9521   37.1184 H   0  0  0  0  0  0  0  0  0  0  0  0
   36.5320   25.4454   36.1899 H   0  0  0  0  0  0  0  0  0  0  0  0
  1  2  1  0
  1 10  1  0
  3  2  1  0
  4  5  1  0
  4  3  1  0
  5  1  1  0
  6  7  2  0
  8  7  1  0
  9  8  2  0
 10  9  1  0
 10 11  2  0
 11  6  1  0
 12  5  1  0
 13 12  2  0
 14 13  1  0
 15 14  2  0
 15 16  1  0
 16 12  1  0
 17 15  1  0
 17 18  2  0
  1 19  1  6
  2 20  1  0
  2 21  1  0
  3 22  1  0
  3 23  1  0
  4 24  1  0
  4 25  1  0
  5 26  1  1
  6 27  1  0
  7 28  1  0
  8 29  1  0
 13 30  1  0
 14 31  1  0
 17 32  1  0
M  ISO  8  19  13  20  13  21  13  22  13  23  13  24  13  25  13  26  13
M  ISO  6  27  14  28  14  29  14  30  14  31  14  32   6
M  END
>  <minimizedAffinity>  (1) 
-4.45074224

>  <minimizedRMSD>  (1) 
0.158598498

$$$$
