
     RDKit          3D

 33 35  0  0  1  0  0  0  0  0999 V2000
   37.0030   30.8700   40.6110 C   0  0  1  0  0  0  0  0  0  0  0  0
   37.8960   32.0310   40.7670 C   0  0  0  0  0  0  0  0  0  0  0  0
   37.6020   32.8220   39.4940 C   0  0  0  0  0  0  0  0  0  0  0  0
   37.0410   31.8210   38.5070 C   0  0  0  0  0  0  0  0  0  0  0  0
   37.2380   30.4660   39.1600 C   0  0  2  0  0  0  0  0  0  0  0  0
   38.7820   28.8680   43.1520 C   0  0  0  0  0  0  0  0  0  0  0  0
   37.8200   27.8250   43.4270 C   0  0  0  0  0  0  0  0  0  0  0  0
   36.5890   27.8350   42.7220 C   0  0  0  0  0  0  0  0  0  0  0  0
   36.3460   28.8150   41.8120 N   0  0  0  0  0  0  0  0  0  0  0  0
   37.2870   29.7770   41.5900 C   0  0  0  0  0  0  0  0  0  0  0  0
   38.4810   29.8110   42.2390 N   0  0  0  0  0  0  0  0  0  0  0  0
   36.2990   29.4650   38.6800 C   0  0  0  0  0  0  0  0  0  0  0  0
   34.9660   29.3480   38.3590 C   0  0  0  0  0  0  0  0  0  0  0  0
   34.4530   28.1780   37.9250 C   0  0  0  0  0  0  0  0  0  0  0  0
   35.3130   27.0910   37.8130 C   0  0  0  0  0  0  0  0  0  0  0  0
   36.9630   27.7760   38.3600 S   0  0  0  0  0  0  0  0  0  0  0  0
   35.0600   25.7460   37.3880 C   0  0  0  0  0  0  0  0  0  0  0  0
   35.6610   25.3710   36.2010 F   0  0  0  0  0  0  0  0  0  0  0  0
   35.5190   24.9280   38.3780 F   0  0  0  0  0  0  0  0  0  0  0  0
   33.6730   25.5680   37.2880 F   0  0  0  0  0  0  0  0  0  0  0  0
   35.9486   31.1009   40.8228 H   0  0  0  0  0  0  0  0  0  0  0  0
   37.6449   32.6118   41.6668 H   0  0  0  0  0  0  0  0  0  0  0  0
   38.9560   31.7650   40.8923 H   0  0  0  0  0  0  0  0  0  0  0  0
   36.8660   33.6140   39.6965 H   0  0  0  0  0  0  0  0  0  0  0  0
   38.5062   33.3121   39.1039 H   0  0  0  0  0  0  0  0  0  0  0  0
   37.5864   31.8725   37.5531 H   0  0  0  0  0  0  0  0  0  0  0  0
   35.9831   32.0175   38.2783 H   0  0  0  0  0  0  0  0  0  0  0  0
   38.2037   29.9781   38.9614 H   0  0  0  0  0  0  0  0  0  0  0  0
   39.7462   28.8912   43.6809 H   0  0  0  0  0  0  0  0  0  0  0  0
   38.0376   27.0406   44.1668 H   0  0  0  0  0  0  0  0  0  0  0  0
   35.8364   27.0552   42.9105 H   0  0  0  0  0  0  0  0  0  0  0  0
   34.3073   30.2234   38.4579 H   0  0  0  0  0  0  0  0  0  0  0  0
   33.3874   28.0868   37.6677 H   0  0  0  0  0  0  0  0  0  0  0  0
  1  2  1  0
  1 10  1  0
  3  2  1  0
  4  5  1  0
  4  3  1  0
  5  1  1  0
  6  7  2  0
  8  7  1  0
  9  8  2  0
 10  9  1  0
 10 11  2  0
 11  6  1  0
 12  5  1  0
 13 12  2  0
 14 13  1  0
 15 14  2  0
 15 16  1  0
 16 12  1  0
 17 15  1  0
 17 19  1  0
 18 17  1  0
 20 17  1  0
  1 21  1  6
  2 22  1  0
  2 23  1  0
  3 24  1  0
  3 25  1  0
  4 26  1  0
  4 27  1  0
  5 28  1  1
  6 29  1  0
  7 30  1  0
  8 31  1  0
 13 32  1  0
 14 33  1  0
M  ISO  8  21  13  22  13  23  13  24  13  25  13  26  13  27  13  28  13
M  ISO  5  29  14  30  14  31  14  32  14  33  14
M  END
>  <minimizedAffinity>  (1) 
-4.72048664

>  <minimizedRMSD>  (1) 
0.706026971

$$$$
