
     RDKit          3D

 44 47  0  0  1  0  0  0  0  0999 V2000
   39.1830   32.4560   40.5320 C   0  0  1  0  0  0  0  0  0  0  0  0
   38.9490   33.6850   39.7800 C   0  0  0  0  0  0  0  0  0  0  0  0
   37.4460   33.6510   39.5530 C   0  0  0  0  0  0  0  0  0  0  0  0
   37.0330   32.1910   39.7040 C   0  0  0  0  0  0  0  0  0  0  0  0
   38.3340   31.4270   39.7550 C   0  0  2  0  0  0  0  0  0  0  0  0
   42.6420   31.7390   39.4300 C   0  0  0  0  0  0  0  0  0  0  0  0
   43.2810   31.4280   40.6980 C   0  0  0  0  0  0  0  0  0  0  0  0
   42.4970   31.4630   41.8930 C   0  0  0  0  0  0  0  0  0  0  0  0
   41.1750   31.7860   41.8250 N   0  0  0  0  0  0  0  0  0  0  0  0
   40.6330   32.0680   40.6110 C   0  0  0  0  0  0  0  0  0  0  0  0
   41.3310   32.0500   39.4330 N   0  0  0  0  0  0  0  0  0  0  0  0
   38.2210   30.1520   40.4420 C   0  0  0  0  0  0  0  0  0  0  0  0
   38.4080   28.8050   40.1810 C   0  0  0  0  0  0  0  0  0  0  0  0
   38.1800   27.8790   41.1230 C   0  0  0  0  0  0  0  0  0  0  0  0
   37.7540   28.2970   42.3670 C   0  0  0  0  0  0  0  0  0  0  0  0
   37.6690   30.1450   42.1820 S   0  0  0  0  0  0  0  0  0  0  0  0
   38.3650   26.4850   40.8760 N   0  0  0  0  0  0  0  0  0  0  0  0
   39.4460   25.8050   41.2370 C   0  0  0  0  0  0  0  0  0  0  0  0
   39.5750   24.4530   40.9730 C   0  0  0  0  0  0  0  0  0  0  0  0
   38.5110   23.8670   40.3120 C   0  0  0  0  0  0  0  0  0  0  0  0
   38.6230   22.4780   40.0320 N   0  0  0  0  0  0  0  0  0  0  0  0
   37.4100   24.5730   39.9480 N   0  0  0  0  0  0  0  0  0  0  0  0
   37.3420   25.8950   40.2340 C   0  0  0  0  0  0  0  0  0  0  0  0
   36.2830   26.4540   39.8550 O   0  0  0  0  0  0  0  0  0  0  0  0
   37.4380   27.5600   43.5610 C   0  0  0  0  0  0  0  0  0  0  0  0
   38.5000   26.8460   44.1110 F   0  0  0  0  0  0  0  0  0  0  0  0
   36.9900   28.4570   44.4720 F   0  0  0  0  0  0  0  0  0  0  0  0
   36.4130   26.6640   43.2540 F   0  0  0  0  0  0  0  0  0  0  0  0
   38.9038   32.5468   41.5921 H   0  0  0  0  0  0  0  0  0  0  0  0
   39.2430   34.5700   40.3634 H   0  0  0  0  0  0  0  0  0  0  0  0
   39.5317   33.7471   38.8491 H   0  0  0  0  0  0  0  0  0  0  0  0
   37.2032   34.0148   38.5437 H   0  0  0  0  0  0  0  0  0  0  0  0
   36.9151   34.2967   40.2679 H   0  0  0  0  0  0  0  0  0  0  0  0
   36.4604   32.0440   40.6316 H   0  0  0  0  0  0  0  0  0  0  0  0
   36.3854   31.8548   38.8808 H   0  0  0  0  0  0  0  0  0  0  0  0
   38.7378   31.1214   38.7785 H   0  0  0  0  0  0  0  0  0  0  0  0
   43.2147   31.7209   38.4910 H   0  0  0  0  0  0  0  0  0  0  0  0
   44.3496   31.1701   40.7374 H   0  0  0  0  0  0  0  0  0  0  0  0
   42.9592   31.2301   42.8636 H   0  0  0  0  0  0  0  0  0  0  0  0
   38.7493   28.4896   39.1840 H   0  0  0  0  0  0  0  0  0  0  0  0
   40.2598   26.3294   41.7592 H   0  0  0  0  0  0  0  0  0  0  0  0
   40.4665   23.8810   41.2698 H   0  0  0  0  0  0  0  0  0  0  0  0
   37.8609   21.9884   39.5417 H   0  0  0  0  0  0  0  0  0  0  0  0
   39.4663   21.9611   40.3194 H   0  0  0  0  0  0  0  0  0  0  0  0
  1 10  1  0
  2  1  1  0
  3  4  1  0
  3  2  1  0
  4  5  1  0
  5 12  1  0
  5  1  1  0
  6 11  2  0
  6  7  1  0
  7  8  2  0
  9  8  1  0
 10  9  2  0
 11 10  1  0
 12 16  1  0
 13 12  2  0
 13 14  1  0
 14 15  2  0
 15 25  1  0
 16 15  1  0
 17 14  1  0
 17 18  1  0
 19 18  2  0
 20 19  1  0
 21 20  1  0
 22 23  1  0
 22 20  2  0
 23 17  1  0
 24 23  2  0
 25 26  1  0
 25 27  1  0
 28 25  1  0
  1 29  1  1
  2 30  1  0
  2 31  1  0
  3 32  1  0
  3 33  1  0
  4 34  1  0
  4 35  1  0
  5 36  1  6
  6 37  1  0
  7 38  1  0
  8 39  1  0
 13 40  1  0
 18 41  1  0
 19 42  1  0
 21 43  1  0
 21 44  1  0
M  ISO  8  29  13  30  13  31  13  32  13  33  13  34  13  35  13  36  13
M  ISO  6  37  14  38  14  39  14  40  14  41  14  42  14
M  END
>  <minimizedAffinity>  (1) 
-5.77512789

>  <minimizedRMSD>  (1) 
6.20769405

$$$$
