
     RDKit          3D

 46 49  0  0  1  0  0  0  0  0999 V2000
   38.4390   31.1650   40.9530 C   0  0  1  0  0  0  0  0  0  0  0  0
   39.4490   32.1670   41.2700 C   0  0  0  0  0  0  0  0  0  0  0  0
   39.4370   33.0510   40.0180 C   0  0  0  0  0  0  0  0  0  0  0  0
   38.7980   32.2190   38.9260 C   0  0  0  0  0  0  0  0  0  0  0  0
   38.7480   30.8170   39.4830 C   0  0  2  0  0  0  0  0  0  0  0  0
   39.8070   28.3190   42.8790 C   0  0  0  0  0  0  0  0  0  0  0  0
   38.6090   27.8180   43.5390 C   0  0  0  0  0  0  0  0  0  0  0  0
   37.3630   28.4760   43.2860 C   0  0  0  0  0  0  0  0  0  0  0  0
   37.3190   29.5480   42.4420 N   0  0  0  0  0  0  0  0  0  0  0  0
   38.4790   29.9660   41.8570 C   0  0  0  0  0  0  0  0  0  0  0  0
   39.7020   29.3810   42.0560 N   0  0  0  0  0  0  0  0  0  0  0  0
   37.7200   29.9960   38.8650 C   0  0  0  0  0  0  0  0  0  0  0  0
   36.4040   30.1250   38.4390 C   0  0  0  0  0  0  0  0  0  0  0  0
   35.7580   29.0800   37.8970 C   0  0  0  0  0  0  0  0  0  0  0  0
   36.4230   27.8780   37.7700 C   0  0  0  0  0  0  0  0  0  0  0  0
   38.1010   28.2570   38.4770 S   0  0  0  0  0  0  0  0  0  0  0  0
   34.4080   29.1760   37.4500 N   0  0  0  0  0  0  0  0  0  0  0  0
   33.9340   29.2600   36.1950 C   0  0  0  0  0  0  0  0  0  0  0  0
   32.5690   29.3460   36.0050 C   0  0  0  0  0  0  0  0  0  0  0  0
   32.1070   29.4370   34.5910 C   0  0  0  0  0  0  0  0  0  0  0  0
   31.6950   29.3450   37.0740 C   0  0  0  0  0  0  0  0  0  0  0  0
   30.4580   29.4250   36.8510 O   0  0  0  0  0  0  0  0  0  0  0  0
   32.2130   29.2600   38.3050 N   0  0  0  0  0  0  0  0  0  0  0  0
   33.5550   29.1750   38.5100 C   0  0  0  0  0  0  0  0  0  0  0  0
   33.8650   29.1020   39.7270 O   0  0  0  0  0  0  0  0  0  0  0  0
   36.0010   26.6130   37.2330 C   0  0  0  0  0  0  0  0  0  0  0  0
   35.7130   26.6190   35.8720 F   0  0  0  0  0  0  0  0  0  0  0  0
   37.0100   25.7370   37.4540 F   0  0  0  0  0  0  0  0  0  0  0  0
   34.8650   26.2050   37.9330 F   0  0  0  0  0  0  0  0  0  0  0  0
   37.4155   31.5393   41.1022 H   0  0  0  0  0  0  0  0  0  0  0  0
   39.1723   32.7418   42.1661 H   0  0  0  0  0  0  0  0  0  0  0  0
   40.4367   31.7398   41.4979 H   0  0  0  0  0  0  0  0  0  0  0  0
   38.8476   33.9620   40.1989 H   0  0  0  0  0  0  0  0  0  0  0  0
   40.4525   33.3696   39.7399 H   0  0  0  0  0  0  0  0  0  0  0  0
   39.4064   32.2498   38.0101 H   0  0  0  0  0  0  0  0  0  0  0  0
   37.7996   32.5914   38.6530 H   0  0  0  0  0  0  0  0  0  0  0  0
   39.6498   30.2089   39.3189 H   0  0  0  0  0  0  0  0  0  0  0  0
   40.7816   27.8383   43.0496 H   0  0  0  0  0  0  0  0  0  0  0  0
   38.6606   26.9532   44.2168 H   0  0  0  0  0  0  0  0  0  0  0  0
   36.4427   28.1184   43.7709 H   0  0  0  0  0  0  0  0  0  0  0  0
   35.8874   31.0902   38.5465 H   0  0  0  0  0  0  0  0  0  0  0  0
   34.6205   29.2602   35.3355 H   0  0  0  0  0  0  0  0  0  0  0  0
   31.0279   29.6495   34.5708 H   0  0  0  0  0  0  0  0  0  0  0  0
   32.6496   30.2455   34.0793 H   0  0  0  0  0  0  0  0  0  0  0  0
   32.3025   28.4831   34.0793 H   0  0  0  0  0  0  0  0  0  0  0  0
   31.5798   29.2589   39.1174 H   0  0  0  0  0  0  0  0  0  0  0  0
  1  2  1  0
  1 10  1  0
  3  2  1  0
  4  5  1  0
  4  3  1  0
  5  1  1  0
  6  7  2  0
  8  7  1  0
  9  8  2  0
 10 11  2  0
 10  9  1  0
 11  6  1  0
 12  5  1  0
 13 12  2  0
 14 13  1  0
 15 14  2  0
 15 16  1  0
 16 12  1  0
 17 14  1  0
 17 24  1  0
 18 17  1  0
 19 18  2  0
 19 21  1  0
 20 19  1  0
 21 23  1  0
 22 21  2  0
 23 24  1  0
 24 25  2  0
 26 28  1  0
 26 15  1  0
 26 29  1  0
 27 26  1  0
  1 30  1  6
  2 31  1  0
  2 32  1  0
  3 33  1  0
  3 34  1  0
  4 35  1  0
  4 36  1  0
  5 37  1  1
  6 38  1  0
  7 39  1  0
  8 40  1  0
 13 41  1  0
 18 42  1  0
 20 43  1  0
 20 44  1  0
 20 45  1  0
 23 46  1  0
M  ISO  8  30  13  31  13  32  13  33  13  34  13  35  13  36  13  37  13
M  ISO  8  38  14  39  14  40  14  41  14  42  14  43   8  44   8  45   8
M  ISO  1  46   9
M  END
>  <minimizedAffinity>  (1) 
-5.43516159

>  <minimizedRMSD>  (1) 
1.65320647

$$$$
