
     RDKit          3D

 41 44  0  0  1  0  0  0  0  0999 V2000
   37.0290   30.9730   40.5450 C   0  0  1  0  0  0  0  0  0  0  0  0
   37.8400   32.1540   40.8170 C   0  0  0  0  0  0  0  0  0  0  0  0
   37.6250   32.9880   39.5650 C   0  0  0  0  0  0  0  0  0  0  0  0
   37.1850   32.0090   38.4950 C   0  0  0  0  0  0  0  0  0  0  0  0
   37.4290   30.6370   39.0940 C   0  0  2  0  0  0  0  0  0  0  0  0
   38.7440   28.8800   43.0600 C   0  0  0  0  0  0  0  0  0  0  0  0
   37.7570   27.8420   43.2860 C   0  0  0  0  0  0  0  0  0  0  0  0
   36.5300   27.8860   42.5560 C   0  0  0  0  0  0  0  0  0  0  0  0
   36.3130   28.8940   41.6680 N   0  0  0  0  0  0  0  0  0  0  0  0
   37.2790   29.8420   41.4990 C   0  0  0  0  0  0  0  0  0  0  0  0
   38.4670   29.8500   42.1670 N   0  0  0  0  0  0  0  0  0  0  0  0
   36.5850   29.6120   38.4910 C   0  0  0  0  0  0  0  0  0  0  0  0
   35.3070   29.4730   37.9890 C   0  0  0  0  0  0  0  0  0  0  0  0
   34.8830   28.2890   37.5160 C   0  0  0  0  0  0  0  0  0  0  0  0
   35.7350   27.2210   37.5350 C   0  0  0  0  0  0  0  0  0  0  0  0
   37.2880   27.9430   38.2940 S   0  0  0  0  0  0  0  0  0  0  0  0
   33.5040   28.3490   37.0250 C   0  0  0  0  0  0  0  0  0  0  0  0
   32.5560   29.3080   37.3150 C   0  0  0  0  0  0  0  0  0  0  0  0
   31.2520   29.3890   36.8820 C   0  0  0  0  0  0  0  0  0  0  0  0
   30.8540   28.3980   36.0650 N   0  0  0  0  0  0  0  0  0  0  0  0
   31.7060   27.4190   35.7260 C   0  0  0  0  0  0  0  0  0  0  0  0
   32.9080   27.4900   36.2230 N   0  0  0  0  0  0  0  0  0  0  0  0
   35.5880   25.8760   37.0960 C   0  0  0  0  0  0  0  0  0  0  0  0
   35.4050   25.6940   35.7270 F   0  0  0  0  0  0  0  0  0  0  0  0
   36.7410   25.2140   37.4300 F   0  0  0  0  0  0  0  0  0  0  0  0
   34.5470   25.2830   37.7740 F   0  0  0  0  0  0  0  0  0  0  0  0
   35.9512   31.1504   40.6752 H   0  0  0  0  0  0  0  0  0  0  0  0
   37.4856   32.6829   41.7140 H   0  0  0  0  0  0  0  0  0  0  0  0
   38.8970   31.9262   41.0191 H   0  0  0  0  0  0  0  0  0  0  0  0
   36.8457   33.7451   39.7369 H   0  0  0  0  0  0  0  0  0  0  0  0
   38.5381   33.5275   39.2730 H   0  0  0  0  0  0  0  0  0  0  0  0
   37.7806   32.1429   37.5800 H   0  0  0  0  0  0  0  0  0  0  0  0
   36.1326   32.1541   38.2097 H   0  0  0  0  0  0  0  0  0  0  0  0
   38.4357   30.2142   38.9605 H   0  0  0  0  0  0  0  0  0  0  0  0
   39.6988   28.8755   43.6062 H   0  0  0  0  0  0  0  0  0  0  0  0
   37.9499   27.0343   44.0074 H   0  0  0  0  0  0  0  0  0  0  0  0
   35.7656   27.1102   42.7106 H   0  0  0  0  0  0  0  0  0  0  0  0
   34.6293   30.3394   37.9760 H   0  0  0  0  0  0  0  0  0  0  0  0
   32.8868   30.1174   37.9825 H   0  0  0  0  0  0  0  0  0  0  0  0
   30.5819   30.2076   37.1834 H   0  0  0  0  0  0  0  0  0  0  0  0
   31.4044   26.5964   35.0608 H   0  0  0  0  0  0  0  0  0  0  0  0
  1  2  1  0
  1 10  1  0
  3  2  1  0
  4  5  1  0
  4  3  1  0
  5  1  1  0
  6  7  2  0
  8  7  1  0
  9  8  2  0
 10  9  1  0
 10 11  2  0
 11  6  1  0
 12  5  1  0
 13 12  2  0
 14 15  2  0
 14 13  1  0
 15 16  1  0
 16 12  1  0
 17 18  2  0
 17 14  1  0
 19 18  1  0
 20 19  2  0
 21 20  1  0
 21 22  2  0
 22 17  1  0
 23 25  1  0
 23 15  1  0
 23 26  1  0
 24 23  1  0
  1 27  1  6
  2 28  1  0
  2 29  1  0
  3 30  1  0
  3 31  1  0
  4 32  1  0
  4 33  1  0
  5 34  1  1
  6 35  1  0
  7 36  1  0
  8 37  1  0
 13 38  1  0
 18 39  1  0
 19 40  1  0
 21 41  1  0
M  ISO  8  27  13  28  13  29  13  30  13  31  13  32  13  33  13  34  13
M  ISO  7  35  14  36  14  37  14  38  14  39  14  40  14  41  14
M  END
>  <minimizedAffinity>  (1) 
-5.26211882

>  <minimizedRMSD>  (1) 
0.684806526

$$$$
