
     RDKit          3D

 40 43  0  0  1  0  0  0  0  0999 V2000
   36.9820   31.0380   40.4700 C   0  0  1  0  0  0  0  0  0  0  0  0
   37.7750   32.2280   40.7480 C   0  0  0  0  0  0  0  0  0  0  0  0
   37.6180   33.0270   39.4610 C   0  0  0  0  0  0  0  0  0  0  0  0
   37.2200   32.0210   38.3970 C   0  0  0  0  0  0  0  0  0  0  0  0
   37.4260   30.6650   39.0430 C   0  0  2  0  0  0  0  0  0  0  0  0
   38.5900   29.0340   43.1290 C   0  0  0  0  0  0  0  0  0  0  0  0
   37.6240   27.9630   43.3080 C   0  0  0  0  0  0  0  0  0  0  0  0
   36.4480   27.9580   42.4920 C   0  0  0  0  0  0  0  0  0  0  0  0
   36.2580   28.9500   41.5720 N   0  0  0  0  0  0  0  0  0  0  0  0
   37.2080   29.9270   41.4590 C   0  0  0  0  0  0  0  0  0  0  0  0
   38.3540   29.9890   42.2060 N   0  0  0  0  0  0  0  0  0  0  0  0
   36.5950   29.6320   38.4390 C   0  0  0  0  0  0  0  0  0  0  0  0
   35.3240   29.4820   37.9250 C   0  0  0  0  0  0  0  0  0  0  0  0
   34.9030   28.2950   37.4610 C   0  0  0  0  0  0  0  0  0  0  0  0
   35.7590   27.2260   37.5020 C   0  0  0  0  0  0  0  0  0  0  0  0
   37.2940   27.9610   38.2670 S   0  0  0  0  0  0  0  0  0  0  0  0
   33.5090   28.3200   36.9360 C   0  0  0  0  0  0  0  0  0  0  0  0
   32.4990   29.2430   37.1100 C   0  0  0  0  0  0  0  0  0  0  0  0
   31.3330   28.9200   36.4620 C   0  0  0  0  0  0  0  0  0  0  0  0
   31.6830   27.7330   35.8710 C   0  0  0  0  0  0  0  0  0  0  0  0
   32.8890   27.4840   36.1860 O   0  0  0  0  0  0  0  0  0  0  0  0
   35.6130   25.8770   37.0740 C   0  0  0  0  0  0  0  0  0  0  0  0
   35.4210   25.6850   35.7070 F   0  0  0  0  0  0  0  0  0  0  0  0
   36.7620   25.2220   37.4120 F   0  0  0  0  0  0  0  0  0  0  0  0
   34.5690   25.2890   37.7610 F   0  0  0  0  0  0  0  0  0  0  0  0
   35.9003   31.2182   40.5561 H   0  0  0  0  0  0  0  0  0  0  0  0
   37.3761   32.7804   41.6116 H   0  0  0  0  0  0  0  0  0  0  0  0
   38.8215   32.0105   41.0079 H   0  0  0  0  0  0  0  0  0  0  0  0
   36.8356   33.7914   39.5775 H   0  0  0  0  0  0  0  0  0  0  0  0
   38.5468   33.5527   39.1945 H   0  0  0  0  0  0  0  0  0  0  0  0
   37.8581   32.1264   37.5072 H   0  0  0  0  0  0  0  0  0  0  0  0
   36.1830   32.1648   38.0595 H   0  0  0  0  0  0  0  0  0  0  0  0
   38.4334   30.2319   38.9561 H   0  0  0  0  0  0  0  0  0  0  0  0
   39.5042   29.0655   43.7399 H   0  0  0  0  0  0  0  0  0  0  0  0
   37.7930   27.1731   44.0546 H   0  0  0  0  0  0  0  0  0  0  0  0
   35.7005   27.1590   42.6051 H   0  0  0  0  0  0  0  0  0  0  0  0
   34.6457   30.3474   37.8949 H   0  0  0  0  0  0  0  0  0  0  0  0
   32.6172   30.1552   37.7133 H   0  0  0  0  0  0  0  0  0  0  0  0
   30.3780   29.4648   36.4264 H   0  0  0  0  0  0  0  0  0  0  0  0
   31.0359   27.1083   35.2378 H   0  0  0  0  0  0  0  0  0  0  0  0
  1  2  1  0
  1 10  1  0
  3  2  1  0
  4  5  1  0
  4  3  1  0
  5  1  1  0
  6  7  2  0
  8  7  1  0
  9  8  2  0
 10  9  1  0
 10 11  2  0
 11  6  1  0
 12  5  1  0
 13 12  2  0
 14 15  2  0
 14 13  1  0
 15 16  1  0
 16 12  1  0
 17 18  2  0
 17 14  1  0
 19 18  1  0
 20 21  1  0
 20 19  2  0
 21 17  1  0
 22 24  1  0
 22 15  1  0
 22 25  1  0
 23 22  1  0
  1 26  1  6
  2 27  1  0
  2 28  1  0
  3 29  1  0
  3 30  1  0
  4 31  1  0
  4 32  1  0
  5 33  1  1
  6 34  1  0
  7 35  1  0
  8 36  1  0
 13 37  1  0
 18 38  1  0
 19 39  1  0
 20 40  1  0
M  ISO  8  26  13  27  13  28  13  29  13  30  13  31  13  32  13  33  13
M  ISO  7  34  14  35  14  36  14  37  14  38  14  39  14  40  14
M  END
>  <minimizedAffinity>  (1) 
-5.18696451

>  <minimizedRMSD>  (1) 
0.704634905

$$$$
