
     RDKit          3D

 38 41  0  0  1  0  0  0  0  0999 V2000
   36.9790   31.0440   40.4720 C   0  0  1  0  0  0  0  0  0  0  0  0
   37.7800   32.2320   40.7400 C   0  0  0  0  0  0  0  0  0  0  0  0
   37.6080   33.0290   39.4520 C   0  0  0  0  0  0  0  0  0  0  0  0
   37.2180   32.0200   38.3890 C   0  0  0  0  0  0  0  0  0  0  0  0
   37.4090   30.6650   39.0400 C   0  0  2  0  0  0  0  0  0  0  0  0
   38.6020   29.0460   43.1270 C   0  0  0  0  0  0  0  0  0  0  0  0
   37.6340   27.9720   43.3010 C   0  0  0  0  0  0  0  0  0  0  0  0
   36.4560   27.9630   42.4910 C   0  0  0  0  0  0  0  0  0  0  0  0
   36.2610   28.9530   41.5750 N   0  0  0  0  0  0  0  0  0  0  0  0
   37.2040   29.9320   41.4600 C   0  0  0  0  0  0  0  0  0  0  0  0
   38.3490   29.9940   42.2050 N   0  0  0  0  0  0  0  0  0  0  0  0
   36.5640   29.6350   38.4450 C   0  0  0  0  0  0  0  0  0  0  0  0
   35.2930   29.4870   37.9490 C   0  0  0  0  0  0  0  0  0  0  0  0
   34.8590   28.3040   37.4790 C   0  0  0  0  0  0  0  0  0  0  0  0
   35.7190   27.2380   37.5010 C   0  0  0  0  0  0  0  0  0  0  0  0
   37.2640   27.9660   38.2500 S   0  0  0  0  0  0  0  0  0  0  0  0
   33.4560   28.3530   36.9790 C   0  0  0  0  0  0  0  0  0  0  0  0
   32.7920   27.4830   36.2280 N   0  0  0  0  0  0  0  0  0  0  0  0
   31.5800   27.8480   35.9840 O   0  0  0  0  0  0  0  0  0  0  0  0
   31.3390   28.9940   36.5560 C   0  0  0  0  0  0  0  0  0  0  0  0
   32.4960   29.2600   37.1430 N   0  0  0  0  0  0  0  0  0  0  0  0
   35.5720   25.8890   37.0700 C   0  0  0  0  0  0  0  0  0  0  0  0
   35.3720   25.7000   35.7020 F   0  0  0  0  0  0  0  0  0  0  0  0
   36.7280   25.2310   37.3960 F   0  0  0  0  0  0  0  0  0  0  0  0
   34.5370   25.2960   37.7580 F   0  0  0  0  0  0  0  0  0  0  0  0
   35.8994   31.2315   40.5689 H   0  0  0  0  0  0  0  0  0  0  0  0
   37.3937   32.7869   41.6077 H   0  0  0  0  0  0  0  0  0  0  0  0
   38.8289   32.0124   40.9883 H   0  0  0  0  0  0  0  0  0  0  0  0
   36.8170   33.7840   39.5717 H   0  0  0  0  0  0  0  0  0  0  0  0
   38.5299   33.5648   39.1820 H   0  0  0  0  0  0  0  0  0  0  0  0
   37.8669   32.1190   37.5063 H   0  0  0  0  0  0  0  0  0  0  0  0
   36.1850   32.1674   38.0408 H   0  0  0  0  0  0  0  0  0  0  0  0
   38.4119   30.2227   38.9472 H   0  0  0  0  0  0  0  0  0  0  0  0
   39.5183   29.0819   43.7345 H   0  0  0  0  0  0  0  0  0  0  0  0
   37.8066   27.1798   44.0443 H   0  0  0  0  0  0  0  0  0  0  0  0
   35.7114   27.1616   42.6065 H   0  0  0  0  0  0  0  0  0  0  0  0
   34.6155   30.3535   37.9356 H   0  0  0  0  0  0  0  0  0  0  0  0
   30.4129   29.5876   36.5522 H   0  0  0  0  0  0  0  0  0  0  0  0
  1  2  1  0
  1 10  1  0
  3  2  1  0
  4  5  1  0
  4  3  1  0
  5  1  1  0
  6  7  2  0
  8  7  1  0
  9  8  2  0
 10  9  1  0
 10 11  2  0
 11  6  1  0
 12  5  1  0
 13 12  2  0
 14 15  2  0
 14 13  1  0
 15 16  1  0
 16 12  1  0
 17 21  1  0
 17 14  1  0
 18 17  2  0
 19 18  1  0
 19 20  1  0
 20 21  2  0
 22 24  1  0
 22 15  1  0
 22 25  1  0
 23 22  1  0
  1 26  1  6
  2 27  1  0
  2 28  1  0
  3 29  1  0
  3 30  1  0
  4 31  1  0
  4 32  1  0
  5 33  1  1
  6 34  1  0
  7 35  1  0
  8 36  1  0
 13 37  1  0
 20 38  1  0
M  ISO  8  26  13  27  13  28  13  29  13  30  13  31  13  32  13  33  13
M  ISO  5  34  14  35  14  36  14  37  14  38  14
M  END
>  <minimizedAffinity>  (1) 
-5.08713055

>  <minimizedRMSD>  (1) 
0.673758507

$$$$
