
     RDKit          3D

 47 50  0  0  1  0  0  0  0  0999 V2000
   37.0470   31.1330   40.3990 C   0  0  1  0  0  0  0  0  0  0  0  0
   37.7720   32.3370   40.7820 C   0  0  0  0  0  0  0  0  0  0  0  0
   37.6910   33.1870   39.5200 C   0  0  0  0  0  0  0  0  0  0  0  0
   37.3900   32.2160   38.3880 C   0  0  0  0  0  0  0  0  0  0  0  0
   37.5960   30.8420   38.9870 C   0  0  2  0  0  0  0  0  0  0  0  0
   38.6090   29.0180   43.0030 C   0  0  0  0  0  0  0  0  0  0  0  0
   37.6280   27.9510   43.1280 C   0  0  0  0  0  0  0  0  0  0  0  0
   36.4630   27.9900   42.3010 C   0  0  0  0  0  0  0  0  0  0  0  0
   36.2930   29.0150   41.4180 N   0  0  0  0  0  0  0  0  0  0  0  0
   37.2460   29.9830   41.3480 C   0  0  0  0  0  0  0  0  0  0  0  0
   38.3830   30.0030   42.1110 N   0  0  0  0  0  0  0  0  0  0  0  0
   36.8440   29.8100   38.2920 C   0  0  0  0  0  0  0  0  0  0  0  0
   35.5970   29.6410   37.6950 C   0  0  0  0  0  0  0  0  0  0  0  0
   35.2640   28.4560   37.1410 C   0  0  0  0  0  0  0  0  0  0  0  0
   36.1770   27.4250   37.1760 C   0  0  0  0  0  0  0  0  0  0  0  0
   37.6220   28.1770   38.0600 S   0  0  0  0  0  0  0  0  0  0  0  0
   33.9220   28.4380   36.5860 N   0  0  0  0  0  0  0  0  0  0  0  0
   33.5370   27.9760   35.2440 C   0  0  0  0  0  0  0  0  0  0  0  0
   32.4460   28.8060   34.6670 C   0  0  0  0  0  0  0  0  0  0  0  0
   31.3280   28.8610   35.5840 N   0  0  0  0  0  0  0  0  0  0  0  0
   31.6630   29.4200   36.8490 C   0  0  0  0  0  0  0  0  0  0  0  0
   32.9130   28.9310   37.4880 C   0  0  0  0  0  0  0  0  0  0  0  0
   36.1010   26.0970   36.6660 C   0  0  0  0  0  0  0  0  0  0  0  0
   36.1500   25.9770   35.2770 F   0  0  0  0  0  0  0  0  0  0  0  0
   37.1730   25.4170   37.1710 F   0  0  0  0  0  0  0  0  0  0  0  0
   34.9360   25.4970   37.1210 F   0  0  0  0  0  0  0  0  0  0  0  0
   35.9562   31.2731   40.4228 H   0  0  0  0  0  0  0  0  0  0  0  0
   37.2868   32.8397   41.6316 H   0  0  0  0  0  0  0  0  0  0  0  0
   38.8025   32.1413   41.1132 H   0  0  0  0  0  0  0  0  0  0  0  0
   36.8867   33.9319   39.6103 H   0  0  0  0  0  0  0  0  0  0  0  0
   38.6250   33.7403   39.3426 H   0  0  0  0  0  0  0  0  0  0  0  0
   38.0789   32.3781   37.5459 H   0  0  0  0  0  0  0  0  0  0  0  0
   36.3723   32.3459   37.9912 H   0  0  0  0  0  0  0  0  0  0  0  0
   38.6224   30.4485   38.9450 H   0  0  0  0  0  0  0  0  0  0  0  0
   39.5170   29.0209   43.6240 H   0  0  0  0  0  0  0  0  0  0  0  0
   37.7799   27.1305   43.8448 H   0  0  0  0  0  0  0  0  0  0  0  0
   35.7059   27.1956   42.3766 H   0  0  0  0  0  0  0  0  0  0  0  0
   34.8812   30.4760   37.6749 H   0  0  0  0  0  0  0  0  0  0  0  0
   34.4144   28.0314   34.5829 H   0  0  0  0  0  0  0  0  0  0  0  0
   33.1717   26.9420   35.3297 H   0  0  0  0  0  0  0  0  0  0  0  0
   32.8198   29.8247   34.4868 H   0  0  0  0  0  0  0  0  0  0  0  0
   32.1138   28.3573   33.7192 H   0  0  0  0  0  0  0  0  0  0  0  0
   30.5853   29.4348   35.1596 H   0  0  0  0  0  0  0  0  0  0  0  0
   31.7602   30.5077   36.7169 H   0  0  0  0  0  0  0  0  0  0  0  0
   30.8532   29.1083   37.5250 H   0  0  0  0  0  0  0  0  0  0  0  0
   32.6449   28.1145   38.1747 H   0  0  0  0  0  0  0  0  0  0  0  0
   33.3571   29.8047   37.9874 H   0  0  0  0  0  0  0  0  0  0  0  0
  1  2  1  0
  1 10  1  0
  3  2  1  0
  4  5  1  0
  4  3  1  0
  5  1  1  0
  6  7  2  0
  8  7  1  0
  9  8  2  0
 10  9  1  0
 10 11  2  0
 11  6  1  0
 12  5  1  0
 13 12  2  0
 14 15  2  0
 14 13  1  0
 15 16  1  0
 16 12  1  0
 17 14  1  0
 17 22  1  0
 18 17  1  0
 19 18  1  0
 19 20  1  0
 20 21  1  0
 21 22  1  0
 23 26  1  0
 23 25  1  0
 23 15  1  0
 24 23  1  0
  1 27  1  6
  2 28  1  0
  2 29  1  0
  3 30  1  0
  3 31  1  0
  4 32  1  0
  4 33  1  0
  5 34  1  1
  6 35  1  0
  7 36  1  0
  8 37  1  0
 13 38  1  0
 18 39  1  0
 18 40  1  0
 19 41  1  0
 19 42  1  0
 20 43  1  0
 21 44  1  0
 21 45  1  0
 22 46  1  0
 22 47  1  0
M  ISO  8  27  13  28  13  29  13  30  13  31  13  32  13  33  13  34  13
M  ISO  8  35  14  36  14  37  14  38  14  39  13  40  13  41  13  42  13
M  ISO  5  43   5  44  13  45  13  46  13  47  13
M  END
>  <minimizedAffinity>  (1) 
-4.88517284

>  <minimizedRMSD>  (1) 
1.13131452

$$$$
