
     RDKit          3D

 39 42  0  0  1  0  0  0  0  0999 V2000
   36.9690   31.1980   40.2410 C   0  0  1  0  0  0  0  0  0  0  0  0
   37.5390   32.4660   40.6850 C   0  0  0  0  0  0  0  0  0  0  0  0
   37.4470   33.3220   39.4310 C   0  0  0  0  0  0  0  0  0  0  0  0
   37.3770   32.3390   38.2710 C   0  0  0  0  0  0  0  0  0  0  0  0
   37.6810   30.9920   38.8870 C   0  0  2  0  0  0  0  0  0  0  0  0
   38.5910   29.1800   42.8820 C   0  0  0  0  0  0  0  0  0  0  0  0
   37.6580   28.0710   43.0010 C   0  0  0  0  0  0  0  0  0  0  0  0
   36.5020   28.0440   42.1580 C   0  0  0  0  0  0  0  0  0  0  0  0
   36.2980   29.0550   41.2640 N   0  0  0  0  0  0  0  0  0  0  0  0
   37.2030   30.0650   41.1980 C   0  0  0  0  0  0  0  0  0  0  0  0
   38.3270   30.1440   41.9780 N   0  0  0  0  0  0  0  0  0  0  0  0
   37.1430   29.8830   38.1190 C   0  0  0  0  0  0  0  0  0  0  0  0
   35.9180   29.4570   37.6230 C   0  0  0  0  0  0  0  0  0  0  0  0
   35.8270   28.3090   36.9330 C   0  0  0  0  0  0  0  0  0  0  0  0
   36.9680   27.5610   36.7250 C   0  0  0  0  0  0  0  0  0  0  0  0
   38.2840   28.5640   37.5780 S   0  0  0  0  0  0  0  0  0  0  0  0
   34.5890   27.8350   36.4070 N   0  0  0  0  0  0  0  0  0  0  0  0
   34.0340   28.2800   35.2410 C   0  0  0  0  0  0  0  0  0  0  0  0
   32.8700   27.6350   35.0300 N   0  0  0  0  0  0  0  0  0  0  0  0
   32.6900   26.7750   36.0710 C   0  0  0  0  0  0  0  0  0  0  0  0
   33.7630   26.9410   36.8750 N   0  0  0  0  0  0  0  0  0  0  0  0
   37.1800   26.3180   36.0320 C   0  0  0  0  0  0  0  0  0  0  0  0
   36.5820   26.2350   34.7780 F   0  0  0  0  0  0  0  0  0  0  0  0
   38.5180   26.1660   35.8970 F   0  0  0  0  0  0  0  0  0  0  0  0
   36.6770   25.2930   36.8320 F   0  0  0  0  0  0  0  0  0  0  0  0
   35.8714   31.2189   40.1708 H   0  0  0  0  0  0  0  0  0  0  0  0
   36.9515   32.9003   41.5073 H   0  0  0  0  0  0  0  0  0  0  0  0
   38.5613   32.3740   41.0804 H   0  0  0  0  0  0  0  0  0  0  0  0
   36.5433   33.9486   39.4588 H   0  0  0  0  0  0  0  0  0  0  0  0
   38.3063   34.0024   39.3377 H   0  0  0  0  0  0  0  0  0  0  0  0
   38.1236   32.5915   37.5036 H   0  0  0  0  0  0  0  0  0  0  0  0
   36.3971   32.3554   37.7715 H   0  0  0  0  0  0  0  0  0  0  0  0
   38.7459   30.7232   38.9479 H   0  0  0  0  0  0  0  0  0  0  0  0
   39.4898   29.2308   43.5141 H   0  0  0  0  0  0  0  0  0  0  0  0
   37.8381   27.2652   43.7279 H   0  0  0  0  0  0  0  0  0  0  0  0
   35.7831   27.2146   42.2299 H   0  0  0  0  0  0  0  0  0  0  0  0
   35.0170   30.0637   37.7964 H   0  0  0  0  0  0  0  0  0  0  0  0
   34.4684   29.0438   34.5792 H   0  0  0  0  0  0  0  0  0  0  0  0
   31.8454   26.0874   36.2252 H   0  0  0  0  0  0  0  0  0  0  0  0
  1  2  1  0
  1 10  1  0
  3  2  1  0
  4  5  1  0
  4  3  1  0
  5  1  1  0
  6  7  2  0
  8  7  1  0
  9  8  2  0
 10  9  1  0
 10 11  2  0
 11  6  1  0
 12  5  1  0
 13 12  2  0
 14 13  1  0
 15 14  2  0
 15 16  1  0
 16 12  1  0
 17 21  1  0
 17 14  1  0
 18 17  1  0
 19 18  2  0
 19 20  1  0
 20 21  2  0
 22 15  1  0
 22 25  1  0
 23 22  1  0
 24 22  1  0
  1 26  1  6
  2 27  1  0
  2 28  1  0
  3 29  1  0
  3 30  1  0
  4 31  1  0
  4 32  1  0
  5 33  1  1
  6 34  1  0
  7 35  1  0
  8 36  1  0
 13 37  1  0
 18 38  1  0
 20 39  1  0
M  ISO  8  26  13  27  13  28  13  29  13  30  13  31  13  32  13  33  13
M  ISO  6  34  14  35  14  36  14  37  14  38  14  39  14
M  END
>  <minimizedAffinity>  (1) 
-4.83118343

>  <minimizedRMSD>  (1) 
1.79224944

$$$$
