
     RDKit          3D

 34 36  0  0  1  0  0  0  0  0999 V2000
   36.9090   31.0310   40.3650 C   0  0  1  0  0  0  0  0  0  0  0  0
   37.6140   32.2750   40.6510 C   0  0  0  0  0  0  0  0  0  0  0  0
   37.4340   33.0500   39.3510 C   0  0  0  0  0  0  0  0  0  0  0  0
   37.1910   32.0030   38.2790 C   0  0  0  0  0  0  0  0  0  0  0  0
   37.4270   30.6730   38.9590 C   0  0  2  0  0  0  0  0  0  0  0  0
   38.5850   29.1460   43.0710 C   0  0  0  0  0  0  0  0  0  0  0  0
   37.6620   28.0400   43.2620 C   0  0  0  0  0  0  0  0  0  0  0  0
   36.4950   27.9740   42.4440 C   0  0  0  0  0  0  0  0  0  0  0  0
   36.2620   28.9390   41.5010 N   0  0  0  0  0  0  0  0  0  0  0  0
   37.1660   29.9480   41.3730 C   0  0  0  0  0  0  0  0  0  0  0  0
   38.3040   30.0680   42.1270 N   0  0  0  0  0  0  0  0  0  0  0  0
   36.7060   29.5740   38.3460 C   0  0  0  0  0  0  0  0  0  0  0  0
   35.4580   29.3040   37.8400 C   0  0  0  0  0  0  0  0  0  0  0  0
   35.1470   28.0990   37.3280 C   0  0  0  0  0  0  0  0  0  0  0  0
   36.1300   27.1310   37.3270 C   0  0  0  0  0  0  0  0  0  0  0  0
   37.5750   27.9900   38.0990 S   0  0  0  0  0  0  0  0  0  0  0  0
   36.1190   25.7650   36.8580 C   0  0  0  0  0  0  0  0  0  0  0  0
   35.7460   25.5970   35.5280 F   0  0  0  0  0  0  0  0  0  0  0  0
   37.3730   25.2820   37.0190 F   0  0  0  0  0  0  0  0  0  0  0  0
   35.2430   25.0430   37.6830 F   0  0  0  0  0  0  0  0  0  0  0  0
   33.5320   27.7200   36.6630 S   0  0  0  0  0  0  0  0  0  0  0  0
   35.8157   31.1419   40.4149 H   0  0  0  0  0  0  0  0  0  0  0  0
   37.1579   32.8065   41.4992 H   0  0  0  0  0  0  0  0  0  0  0  0
   38.6660   32.1315   40.9388 H   0  0  0  0  0  0  0  0  0  0  0  0
   36.5723   33.7296   39.4258 H   0  0  0  0  0  0  0  0  0  0  0  0
   38.3141   33.6689   39.1220 H   0  0  0  0  0  0  0  0  0  0  0  0
   37.8926   32.1379   37.4426 H   0  0  0  0  0  0  0  0  0  0  0  0
   36.1770   32.0743   37.8586 H   0  0  0  0  0  0  0  0  0  0  0  0
   38.4619   30.3026   38.9168 H   0  0  0  0  0  0  0  0  0  0  0  0
   39.4946   29.2298   43.6838 H   0  0  0  0  0  0  0  0  0  0  0  0
   37.8591   27.2694   44.0218 H   0  0  0  0  0  0  0  0  0  0  0  0
   35.7813   27.1466   42.5711 H   0  0  0  0  0  0  0  0  0  0  0  0
   34.6924   30.0937   37.8536 H   0  0  0  0  0  0  0  0  0  0  0  0
   32.6514   27.5134   37.6920 H   0  0  0  0  0  0  0  0  0  0  0  0
  1  2  1  0
  1 10  1  0
  3  2  1  0
  4  5  1  0
  4  3  1  0
  5  1  1  0
  6  7  2  0
  8  7  1  0
  9  8  2  0
 10  9  1  0
 10 11  2  0
 11  6  1  0
 12  5  1  0
 13 12  2  0
 14 13  1  0
 15 14  2  0
 15 16  1  0
 16 12  1  0
 17 19  1  0
 17 15  1  0
 17 20  1  0
 18 17  1  0
 21 14  1  0
  1 22  1  6
  2 23  1  0
  2 24  1  0
  3 25  1  0
  3 26  1  0
  4 27  1  0
  4 28  1  0
  5 29  1  1
  6 30  1  0
  7 31  1  0
  8 32  1  0
 13 33  1  0
 21 34  1  0
M  ISO  8  22  13  23  13  24  13  25  13  26  13  27  13  28  13  29  13
M  ISO  5  30  14  31  14  32  14  33  14  34  11
M  END
>  <minimizedAffinity>  (1) 
-4.63487482

>  <minimizedRMSD>  (1) 
0.870436251

$$$$
