
     RDKit          3D

 41 44  0  0  1  0  0  0  0  0999 V2000
   36.9170   31.0530   40.4000 C   0  0  1  0  0  0  0  0  0  0  0  0
   37.6600   32.2640   40.6600 C   0  0  0  0  0  0  0  0  0  0  0  0
   37.4710   33.0410   39.3560 C   0  0  0  0  0  0  0  0  0  0  0  0
   37.1930   31.9950   38.2950 C   0  0  0  0  0  0  0  0  0  0  0  0
   37.4000   30.6650   38.9720 C   0  0  2  0  0  0  0  0  0  0  0  0
   38.6230   29.1110   43.0590 C   0  0  0  0  0  0  0  0  0  0  0  0
   37.6820   28.0340   43.2640 C   0  0  0  0  0  0  0  0  0  0  0  0
   36.4860   27.9950   42.4760 C   0  0  0  0  0  0  0  0  0  0  0  0
   36.2350   28.9720   41.5340 N   0  0  0  0  0  0  0  0  0  0  0  0
   37.1660   29.9500   41.3990 C   0  0  0  0  0  0  0  0  0  0  0  0
   38.3370   30.0460   42.1250 N   0  0  0  0  0  0  0  0  0  0  0  0
   36.6350   29.5870   38.3860 C   0  0  0  0  0  0  0  0  0  0  0  0
   35.3790   29.3780   37.8620 C   0  0  0  0  0  0  0  0  0  0  0  0
   34.9750   28.1960   37.3860 C   0  0  0  0  0  0  0  0  0  0  0  0
   35.8930   27.1650   37.4440 C   0  0  0  0  0  0  0  0  0  0  0  0
   37.3720   27.9480   38.2090 S   0  0  0  0  0  0  0  0  0  0  0  0
   35.8130   25.7720   37.0290 C   0  0  0  0  0  0  0  0  0  0  0  0
   35.4850   25.5860   35.6830 F   0  0  0  0  0  0  0  0  0  0  0  0
   37.0350   25.2230   37.2390 F   0  0  0  0  0  0  0  0  0  0  0  0
   34.8760   25.1450   37.8470 F   0  0  0  0  0  0  0  0  0  0  0  0
   33.3790   27.8580   36.6920 S   0  0  0  0  0  0  0  0  0  0  0  0
   32.2480   29.0990   36.7340 C   0  0  0  0  0  0  0  0  0  0  0  0
   31.2920   29.9010   37.3400 C   0  0  0  0  0  0  0  0  0  0  0  0
   30.6350   30.9090   36.6980 C   0  0  0  0  0  0  0  0  0  0  0  0
   30.9450   31.1400   35.3490 C   0  0  0  0  0  0  0  0  0  0  0  0
   32.2640   29.8100   35.0330 S   0  0  0  0  0  0  0  0  0  0  0  0
   35.8312   31.2086   40.4826 H   0  0  0  0  0  0  0  0  0  0  0  0
   37.2417   32.8132   41.5164 H   0  0  0  0  0  0  0  0  0  0  0  0
   38.7138   32.0893   40.9228 H   0  0  0  0  0  0  0  0  0  0  0  0
   36.6223   33.7354   39.4423 H   0  0  0  0  0  0  0  0  0  0  0  0
   38.3569   33.6449   39.1100 H   0  0  0  0  0  0  0  0  0  0  0  0
   37.8900   32.1090   37.4517 H   0  0  0  0  0  0  0  0  0  0  0  0
   36.1758   32.0898   37.8871 H   0  0  0  0  0  0  0  0  0  0  0  0
   38.4210   30.2610   38.9064 H   0  0  0  0  0  0  0  0  0  0  0  0
   39.5498   29.1690   43.6486 H   0  0  0  0  0  0  0  0  0  0  0  0
   37.8810   27.2549   44.0146 H   0  0  0  0  0  0  0  0  0  0  0  0
   35.7621   27.1799   42.6230 H   0  0  0  0  0  0  0  0  0  0  0  0
   34.6753   30.2230   37.8338 H   0  0  0  0  0  0  0  0  0  0  0  0
   31.0505   29.7136   38.3967 H   0  0  0  0  0  0  0  0  0  0  0  0
   29.8858   31.5215   37.2210 H   0  0  0  0  0  0  0  0  0  0  0  0
   30.5338   31.8911   34.6585 H   0  0  0  0  0  0  0  0  0  0  0  0
  1  2  1  0
  1 10  1  0
  3  2  1  0
  4  5  1  0
  4  3  1  0
  5  1  1  0
  6  7  2  0
  8  7  1  0
  9  8  2  0
 10  9  1  0
 10 11  2  0
 11  6  1  0
 12  5  1  0
 13 12  2  0
 14 15  2  0
 14 13  1  0
 15 16  1  0
 16 12  1  0
 17 19  1  0
 17 15  1  0
 17 20  1  0
 18 17  1  0
 21 22  1  0
 21 14  1  0
 22 23  2  0
 24 23  1  0
 25 24  2  0
 26 25  1  0
 26 22  1  0
  1 27  1  6
  2 28  1  0
  2 29  1  0
  3 30  1  0
  3 31  1  0
  4 32  1  0
  4 33  1  0
  5 34  1  1
  6 35  1  0
  7 36  1  0
  8 37  1  0
 13 38  1  0
 23 39  1  0
 24 40  1  0
 25 41  1  0
M  ISO  8  27  13  28  13  29  13  30  13  31  13  32  13  33  13  34  13
M  ISO  7  35  14  36  14  37  14  38  14  39  14  40  14  41  14
M  END
>  <minimizedAffinity>  (1) 
-5.35095644

>  <minimizedRMSD>  (1) 
0.4677338

$$$$
