
     RDKit          3D

 45 49  0  0  1  0  0  0  0  0999 V2000
   36.9130   30.8260   40.2360 C   0  0  1  0  0  0  0  0  0  0  0  0
   37.3290   32.1800   40.5380 C   0  0  0  0  0  0  0  0  0  0  0  0
   37.2310   32.8670   39.1820 C   0  0  0  0  0  0  0  0  0  0  0  0
   37.3400   31.7560   38.1530 C   0  0  0  0  0  0  0  0  0  0  0  0
   37.7200   30.5240   38.9390 C   0  0  2  0  0  0  0  0  0  0  0  0
   38.7170   29.2180   43.0470 C   0  0  0  0  0  0  0  0  0  0  0  0
   37.8090   28.1250   43.3650 C   0  0  0  0  0  0  0  0  0  0  0  0
   36.6090   27.9720   42.5940 C   0  0  0  0  0  0  0  0  0  0  0  0
   36.3230   28.8420   41.5730 N   0  0  0  0  0  0  0  0  0  0  0  0
   37.2140   29.8380   41.3310 C   0  0  0  0  0  0  0  0  0  0  0  0
   38.3840   30.0430   42.0330 N   0  0  0  0  0  0  0  0  0  0  0  0
   37.3320   29.2840   38.3030 C   0  0  0  0  0  0  0  0  0  0  0  0
   36.1950   28.5430   38.1190 C   0  0  0  0  0  0  0  0  0  0  0  0
   36.2080   27.3750   37.4260 C   0  0  0  0  0  0  0  0  0  0  0  0
   37.4070   26.9650   36.9160 C   0  0  0  0  0  0  0  0  0  0  0  0
   38.5650   28.2900   37.4410 S   0  0  0  0  0  0  0  0  0  0  0  0
   37.7670   25.7940   36.1580 C   0  0  0  0  0  0  0  0  0  0  0  0
   37.0980   25.6170   34.9660 F   0  0  0  0  0  0  0  0  0  0  0  0
   39.0930   25.8700   35.9020 F   0  0  0  0  0  0  0  0  0  0  0  0
   37.5370   24.6610   36.9760 F   0  0  0  0  0  0  0  0  0  0  0  0
   34.7360   26.3720   37.1900 S   0  0  0  0  0  0  0  0  0  0  0  0
   31.4880   27.9490   33.6970 N   0  0  0  0  0  0  0  0  0  0  0  0
   32.1300   26.8030   33.3280 C   0  0  0  0  0  0  0  0  0  0  0  0
   32.9610   26.4770   34.3300 N   0  0  0  0  0  0  0  0  0  0  0  0
   32.8060   27.4090   35.2560 C   0  0  0  0  0  0  0  0  0  0  0  0
   33.5000   27.3970   36.4380 C   0  0  0  0  0  0  0  0  0  0  0  0
   33.2230   28.4260   37.2980 N   0  0  0  0  0  0  0  0  0  0  0  0
   32.3100   29.3900   36.9730 C   0  0  0  0  0  0  0  0  0  0  0  0
   31.6490   29.3490   35.7780 N   0  0  0  0  0  0  0  0  0  0  0  0
   31.8860   28.3650   34.9080 C   0  0  0  0  0  0  0  0  0  0  0  0
   35.8225   30.7343   40.1243 H   0  0  0  0  0  0  0  0  0  0  0  0
   36.6551   32.6486   41.2703 H   0  0  0  0  0  0  0  0  0  0  0  0
   38.3310   32.2402   40.9879 H   0  0  0  0  0  0  0  0  0  0  0  0
   36.2671   33.3879   39.0841 H   0  0  0  0  0  0  0  0  0  0  0  0
   38.0195   33.6226   39.0504 H   0  0  0  0  0  0  0  0  0  0  0  0
   38.1152   31.9935   37.4096 H   0  0  0  0  0  0  0  0  0  0  0  0
   36.4006   31.6160   37.5981 H   0  0  0  0  0  0  0  0  0  0  0  0
   38.8004   30.3651   39.0714 H   0  0  0  0  0  0  0  0  0  0  0  0
   39.6464   29.3665   43.6164 H   0  0  0  0  0  0  0  0  0  0  0  0
   38.0396   27.4275   44.1837 H   0  0  0  0  0  0  0  0  0  0  0  0
   35.9134   27.1513   42.8232 H   0  0  0  0  0  0  0  0  0  0  0  0
   35.2464   28.9033   38.5436 H   0  0  0  0  0  0  0  0  0  0  0  0
   30.7866   28.4332   33.1187 H   0  0  0  0  0  0  0  0  0  0  0  0
   31.9924   26.2506   32.3868 H   0  0  0  0  0  0  0  0  0  0  0  0
   32.1054   30.2069   37.6807 H   0  0  0  0  0  0  0  0  0  0  0  0
  1  2  1  0
  1 10  1  0
  3  2  1  0
  4  5  1  0
  4  3  1  0
  5  1  1  0
  6  7  2  0
  8  7  1  0
  9  8  2  0
 10  9  1  0
 10 11  2  0
 11  6  1  0
 12  5  1  0
 13 12  2  0
 14 13  1  0
 15 14  2  0
 15 16  1  0
 16 12  1  0
 17 15  1  0
 17 20  1  0
 18 17  1  0
 19 17  1  0
 21 14  1  0
 22 30  1  0
 23 22  1  0
 23 24  2  0
 24 25  1  0
 25 26  1  0
 26 21  1  0
 26 27  2  0
 28 27  1  0
 29 28  2  0
 30 25  2  0
 30 29  1  0
  1 31  1  6
  2 32  1  0
  2 33  1  0
  3 34  1  0
  3 35  1  0
  4 36  1  0
  4 37  1  0
  5 38  1  1
  6 39  1  0
  7 40  1  0
  8 41  1  0
 13 42  1  0
 22 43  1  0
 23 44  1  0
 28 45  1  0
M  ISO  8  31  13  32  13  33  13  34  13  35  13  36  13  37  13  38  13
M  ISO  7  39  14  40  14  41  14  42  14  43   9  44  14  45  14
M  END
>  <minimizedAffinity>  (1) 
-5.04835558

>  <minimizedRMSD>  (1) 
1.60946822

$$$$
