
     RDKit          3D

 41 44  0  0  1  0  0  0  0  0999 V2000
   36.6860   30.4340   40.4270 C   0  0  1  0  0  0  0  0  0  0  0  0
   37.2560   31.7540   40.5940 C   0  0  0  0  0  0  0  0  0  0  0  0
   37.0880   32.3620   39.2050 C   0  0  0  0  0  0  0  0  0  0  0  0
   37.0040   31.1840   38.2510 C   0  0  0  0  0  0  0  0  0  0  0  0
   37.3250   29.9660   39.0850 C   0  0  2  0  0  0  0  0  0  0  0  0
   38.4170   28.9670   43.3510 C   0  0  0  0  0  0  0  0  0  0  0  0
   37.5610   27.8480   43.6600 C   0  0  0  0  0  0  0  0  0  0  0  0
   36.4220   27.6270   42.8450 C   0  0  0  0  0  0  0  0  0  0  0  0
   36.1380   28.4490   41.7940 N   0  0  0  0  0  0  0  0  0  0  0  0
   36.9830   29.4940   41.5460 C   0  0  0  0  0  0  0  0  0  0  0  0
   38.0960   29.7510   42.3010 N   0  0  0  0  0  0  0  0  0  0  0  0
   36.7280   28.7500   38.5800 C   0  0  0  0  0  0  0  0  0  0  0  0
   37.0340   27.3950   38.4830 C   0  0  0  0  0  0  0  0  0  0  0  0
   36.1720   26.5230   37.9260 C   0  0  0  0  0  0  0  0  0  0  0  0
   34.9780   27.0240   37.4520 C   0  0  0  0  0  0  0  0  0  0  0  0
   35.0730   28.8410   37.8150 S   0  0  0  0  0  0  0  0  0  0  0  0
   33.8480   26.3780   36.8070 C   0  0  0  0  0  0  0  0  0  0  0  0
   33.3290   25.2850   37.4810 F   0  0  0  0  0  0  0  0  0  0  0  0
   32.8750   27.2970   36.6610 F   0  0  0  0  0  0  0  0  0  0  0  0
   34.2790   25.9730   35.5260 F   0  0  0  0  0  0  0  0  0  0  0  0
   36.4900   24.7870   37.7620 S   0  0  0  0  0  0  0  0  0  0  0  0
   36.0950   23.9330   39.3350 C   0  0  0  0  0  0  0  0  0  0  0  0
   34.8620   23.1160   39.4730 C   0  0  0  0  0  0  0  0  0  0  0  0
   36.1130   22.3780   39.1170 C   0  0  0  0  0  0  0  0  0  0  0  0
   35.5862   30.4545   40.4220 H   0  0  0  0  0  0  0  0  0  0  0  0
   36.7055   32.3323   41.3507 H   0  0  0  0  0  0  0  0  0  0  0  0
   38.2985   31.7412   40.9448 H   0  0  0  0  0  0  0  0  0  0  0  0
   36.1669   32.9613   39.1571 H   0  0  0  0  0  0  0  0  0  0  0  0
   37.9219   33.0329   38.9508 H   0  0  0  0  0  0  0  0  0  0  0  0
   37.7349   31.2959   37.4366 H   0  0  0  0  0  0  0  0  0  0  0  0
   36.0116   31.1080   37.7825 H   0  0  0  0  0  0  0  0  0  0  0  0
   38.3898   29.6930   39.1263 H   0  0  0  0  0  0  0  0  0  0  0  0
   39.3107   29.1763   43.9573 H   0  0  0  0  0  0  0  0  0  0  0  0
   37.7862   27.1828   44.5066 H   0  0  0  0  0  0  0  0  0  0  0  0
   35.7565   26.7789   43.0638 H   0  0  0  0  0  0  0  0  0  0  0  0
   37.9975   27.0302   38.8684 H   0  0  0  0  0  0  0  0  0  0  0  0
   36.5291   24.7063   39.9858 H   0  0  0  0  0  0  0  0  0  0  0  0
   34.4167   22.9747   40.4689 H   0  0  0  0  0  0  0  0  0  0  0  0
   33.8622   23.1731   39.0179 H   0  0  0  0  0  0  0  0  0  0  0  0
   36.2435   21.9598   38.1080 H   0  0  0  0  0  0  0  0  0  0  0  0
   36.6745   21.5285   39.5330 H   0  0  0  0  0  0  0  0  0  0  0  0
  1  2  1  0
  1 10  1  0
  3  2  1  0
  4  5  1  0
  4  3  1  0
  5  1  1  0
  6  7  2  0
  8  7  1  0
  9  8  2  0
 10  9  1  0
 10 11  2  0
 11  6  1  0
 12  5  1  0
 13 12  2  0
 14 13  1  0
 15 16  1  0
 15 14  2  0
 16 12  1  0
 17 15  1  0
 17 18  1  0
 19 17  1  0
 20 17  1  0
 21 14  1  0
 21 22  1  0
 22 23  1  0
 24 22  1  0
 24 23  1  0
  1 25  1  6
  2 26  1  0
  2 27  1  0
  3 28  1  0
  3 29  1  0
  4 30  1  0
  4 31  1  0
  5 32  1  1
  6 33  1  0
  7 34  1  0
  8 35  1  0
 13 36  1  0
 22 37  1  0
 23 38  1  0
 23 39  1  0
 24 40  1  0
 24 41  1  0
M  ISO  8  25  13  26  13  27  13  28  13  29  13  30  13  31  13  32  13
M  ISO  8  33  14  34  14  35  14  36  14  37  13  38  13  39  13  40  13
M  ISO  1  41  13
M  END
>  <minimizedAffinity>  (1) 
-4.87540722

>  <minimizedRMSD>  (1) 
3.15160561

$$$$
