
     RDKit          3D

 37 39  0  0  1  0  0  0  0  0999 V2000
   36.9760   31.0950   40.4690 C   0  0  1  0  0  0  0  0  0  0  0  0
   37.7410   32.2870   40.7570 C   0  0  0  0  0  0  0  0  0  0  0  0
   37.5460   33.1030   39.4730 C   0  0  0  0  0  0  0  0  0  0  0  0
   37.2680   32.0830   38.3830 C   0  0  0  0  0  0  0  0  0  0  0  0
   37.4550   30.7330   39.0330 C   0  0  2  0  0  0  0  0  0  0  0  0
   38.6520   29.0730   43.0870 C   0  0  0  0  0  0  0  0  0  0  0  0
   37.6910   27.9950   43.2660 C   0  0  0  0  0  0  0  0  0  0  0  0
   36.5010   27.9950   42.4720 C   0  0  0  0  0  0  0  0  0  0  0  0
   36.2670   28.9950   41.5530 N   0  0  0  0  0  0  0  0  0  0  0  0
   37.2190   29.9770   41.4390 C   0  0  0  0  0  0  0  0  0  0  0  0
   38.3860   30.0360   42.1740 N   0  0  0  0  0  0  0  0  0  0  0  0
   36.6690   29.6820   38.4260 C   0  0  0  0  0  0  0  0  0  0  0  0
   35.4060   29.5020   37.9070 C   0  0  0  0  0  0  0  0  0  0  0  0
   35.0050   28.3200   37.4050 C   0  0  0  0  0  0  0  0  0  0  0  0
   35.8960   27.2840   37.4230 C   0  0  0  0  0  0  0  0  0  0  0  0
   37.3830   28.0360   38.1970 S   0  0  0  0  0  0  0  0  0  0  0  0
   35.7820   25.9150   36.9690 C   0  0  0  0  0  0  0  0  0  0  0  0
   35.4150   25.7600   35.6350 F   0  0  0  0  0  0  0  0  0  0  0  0
   37.0100   25.3480   37.1360 F   0  0  0  0  0  0  0  0  0  0  0  0
   34.8620   25.2680   37.7900 F   0  0  0  0  0  0  0  0  0  0  0  0
   33.3630   28.0600   36.7170 S   0  0  0  0  0  0  0  0  0  0  0  0
   33.3790   28.6740   34.9940 C   0  0  0  0  0  0  0  0  0  0  0  0
   32.9160   29.9640   34.9020 F   0  0  0  0  0  0  0  0  0  0  0  0
   34.6670   28.6000   34.5080 F   0  0  0  0  0  0  0  0  0  0  0  0
   32.5430   27.8730   34.2330 F   0  0  0  0  0  0  0  0  0  0  0  0
   35.8918   31.2613   40.5522 H   0  0  0  0  0  0  0  0  0  0  0  0
   37.3408   32.8177   41.6335 H   0  0  0  0  0  0  0  0  0  0  0  0
   38.7947   32.0910   41.0045 H   0  0  0  0  0  0  0  0  0  0  0  0
   36.6954   33.7921   39.5808 H   0  0  0  0  0  0  0  0  0  0  0  0
   38.4286   33.7174   39.2417 H   0  0  0  0  0  0  0  0  0  0  0  0
   37.9749   32.2092   37.5497 H   0  0  0  0  0  0  0  0  0  0  0  0
   36.2563   32.1977   37.9667 H   0  0  0  0  0  0  0  0  0  0  0  0
   38.4704   30.3167   38.9577 H   0  0  0  0  0  0  0  0  0  0  0  0
   39.5766   29.1046   43.6821 H   0  0  0  0  0  0  0  0  0  0  0  0
   37.8761   27.1951   43.9981 H   0  0  0  0  0  0  0  0  0  0  0  0
   35.7643   27.1876   42.5964 H   0  0  0  0  0  0  0  0  0  0  0  0
   34.7047   30.3494   37.9028 H   0  0  0  0  0  0  0  0  0  0  0  0
  1  2  1  0
  1 10  1  0
  3  2  1  0
  4  5  1  0
  4  3  1  0
  5  1  1  0
  6  7  2  0
  8  7  1  0
  9  8  2  0
 10  9  1  0
 10 11  2  0
 11  6  1  0
 12  5  1  0
 13 12  2  0
 14 15  2  0
 14 13  1  0
 15 16  1  0
 16 12  1  0
 17 19  1  0
 17 15  1  0
 17 20  1  0
 18 17  1  0
 21 14  1  0
 22 21  1  0
 23 22  1  0
 24 22  1  0
 25 22  1  0
  1 26  1  6
  2 27  1  0
  2 28  1  0
  3 29  1  0
  3 30  1  0
  4 31  1  0
  4 32  1  0
  5 33  1  1
  6 34  1  0
  7 35  1  0
  8 36  1  0
 13 37  1  0
M  ISO  8  26  13  27  13  28  13  29  13  30  13  31  13  32  13  33  13
M  ISO  4  34  14  35  14  36  14  37  14
M  END
>  <minimizedAffinity>  (1) 
-4.78280354

>  <minimizedRMSD>  (1) 
0.403694421

$$$$
