
     RDKit          3D

 43 45  0  0  1  0  0  0  0  0999 V2000
   36.8620   30.8820   40.3670 C   0  0  1  0  0  0  0  0  0  0  0  0
   37.5170   32.1570   40.5570 C   0  0  0  0  0  0  0  0  0  0  0  0
   37.3250   32.8310   39.2050 C   0  0  0  0  0  0  0  0  0  0  0  0
   37.0900   31.7070   38.2140 C   0  0  0  0  0  0  0  0  0  0  0  0
   37.4050   30.4420   38.9750 C   0  0  2  0  0  0  0  0  0  0  0  0
   38.7070   29.2050   43.1110 C   0  0  0  0  0  0  0  0  0  0  0  0
   37.7900   28.1220   43.4370 C   0  0  0  0  0  0  0  0  0  0  0  0
   36.5650   27.9960   42.6920 C   0  0  0  0  0  0  0  0  0  0  0  0
   36.2660   28.8860   41.6860 N   0  0  0  0  0  0  0  0  0  0  0  0
   37.1730   29.8710   41.4420 C   0  0  0  0  0  0  0  0  0  0  0  0
   38.3650   30.0490   42.1160 N   0  0  0  0  0  0  0  0  0  0  0  0
   36.7360   29.2670   38.4510 C   0  0  0  0  0  0  0  0  0  0  0  0
   35.5360   28.9460   37.8600 C   0  0  0  0  0  0  0  0  0  0  0  0
   35.2350   27.6990   37.4720 C   0  0  0  0  0  0  0  0  0  0  0  0
   36.1920   26.7340   37.6950 C   0  0  0  0  0  0  0  0  0  0  0  0
   37.5650   27.6660   38.4890 S   0  0  0  0  0  0  0  0  0  0  0  0
   36.2120   25.3120   37.4230 C   0  0  0  0  0  0  0  0  0  0  0  0
   35.9840   24.9470   36.1120 F   0  0  0  0  0  0  0  0  0  0  0  0
   37.4200   24.8380   37.8000 F   0  0  0  0  0  0  0  0  0  0  0  0
   35.2160   24.7140   38.2310 F   0  0  0  0  0  0  0  0  0  0  0  0
   33.6840   27.2290   36.7230 S   0  0  0  0  0  0  0  0  0  0  0  0
   33.5490   27.9170   35.0780 C   0  0  0  0  0  0  0  0  0  0  0  0
   34.8900   27.6890   34.3870 C   0  0  0  0  0  0  0  0  0  0  0  0
   33.1490   29.3500   35.0600 C   0  0  0  0  0  0  0  0  0  0  0  0
   35.7660   30.9593   40.4208 H   0  0  0  0  0  0  0  0  0  0  0  0
   37.0371   32.7346   41.3608 H   0  0  0  0  0  0  0  0  0  0  0  0
   38.5716   32.0678   40.8566 H   0  0  0  0  0  0  0  0  0  0  0  0
   36.4564   33.5053   39.2328 H   0  0  0  0  0  0  0  0  0  0  0  0
   38.1983   33.4398   38.9279 H   0  0  0  0  0  0  0  0  0  0  0  0
   37.7569   31.8118   37.3455 H   0  0  0  0  0  0  0  0  0  0  0  0
   36.0615   31.7089   37.8238 H   0  0  0  0  0  0  0  0  0  0  0  0
   38.4569   30.1216   38.9459 H   0  0  0  0  0  0  0  0  0  0  0  0
   39.6516   29.3313   43.6604 H   0  0  0  0  0  0  0  0  0  0  0  0
   38.0299   27.4105   44.2409 H   0  0  0  0  0  0  0  0  0  0  0  0
   35.8630   27.1828   42.9284 H   0  0  0  0  0  0  0  0  0  0  0  0
   34.7952   29.7432   37.6998 H   0  0  0  0  0  0  0  0  0  0  0  0
   32.7362   27.4085   34.5387 H   0  0  0  0  0  0  0  0  0  0  0  0
   35.6753   27.5555   35.1456 H   0  0  0  0  0  0  0  0  0  0  0  0
   34.8302   26.7881   33.7586 H   0  0  0  0  0  0  0  0  0  0  0  0
   35.1313   28.5590   33.7586 H   0  0  0  0  0  0  0  0  0  0  0  0
   33.0471   29.7152   36.0926 H   0  0  0  0  0  0  0  0  0  0  0  0
   33.9172   29.9386   34.5371 H   0  0  0  0  0  0  0  0  0  0  0  0
   32.1870   29.4556   34.5371 H   0  0  0  0  0  0  0  0  0  0  0  0
  1  2  1  0
  1 10  1  0
  3  2  1  0
  4  5  1  0
  4  3  1  0
  5  1  1  0
  6  7  2  0
  8  7  1  0
  9  8  2  0
 10  9  1  0
 10 11  2  0
 11  6  1  0
 12 16  1  0
 12  5  1  0
 13 12  2  0
 14 15  2  0
 14 13  1  0
 15 16  1  0
 17 15  1  0
 17 19  1  0
 17 20  1  0
 18 17  1  0
 21 14  1  0
 22 21  1  0
 23 22  1  0
 24 22  1  0
  1 25  1  6
  2 26  1  0
  2 27  1  0
  3 28  1  0
  3 29  1  0
  4 30  1  0
  4 31  1  0
  5 32  1  1
  6 33  1  0
  7 34  1  0
  8 35  1  0
 13 36  1  0
 22 37  1  0
 23 38  1  0
 23 39  1  0
 23 40  1  0
 24 41  1  0
 24 42  1  0
 24 43  1  0
M  ISO  8  25  13  26  13  27  13  28  13  29  13  30  13  31  13  32  13
M  ISO  8  33  14  34  14  35  14  36  14  37   8  38   8  39   8  40   8
M  ISO  3  41   8  42   8  43   8
M  END
>  <minimizedAffinity>  (1) 
-4.66243505

>  <minimizedRMSD>  (1) 
0.486942679

$$$$
