
     RDKit          3D

 23 23  0  0  0  0  0  0  0  0999 V2000
   37.0890   28.7710   42.0740 C   0  0  0  0  0  0  0  0  0  0  0  0
   35.9190   28.6490   41.3160 C   0  0  0  0  0  0  0  0  0  0  0  0
   35.5770   29.6470   40.4000 C   0  0  0  0  0  0  0  0  0  0  0  0
   36.4200   30.7070   40.2920 N   0  0  0  0  0  0  0  0  0  0  0  0
   37.5520   30.8120   41.0360 C   0  0  0  0  0  0  0  0  0  0  0  0
   37.8680   29.8540   41.9050 N   0  0  0  0  0  0  0  0  0  0  0  0
   37.5000   27.7400   43.0620 C   0  0  0  0  0  0  0  0  0  0  0  0
   37.1160   26.3650   42.5680 C   0  0  0  0  0  0  0  0  0  0  0  0
   38.9880   27.8250   43.2890 C   0  0  0  0  0  0  0  0  0  0  0  0
   36.8330   28.0370   44.3920 C   0  0  0  0  0  0  0  0  0  0  0  0
   38.6080   32.2560   40.8230 S   0  0  0  0  0  0  0  0  0  0  0  0
   35.2702   27.7696   41.4410 H   0  0  0  0  0  0  0  0  0  0  0  0
   34.6632   29.5774   39.7916 H   0  0  0  0  0  0  0  0  0  0  0  0
   36.9316   25.7046   43.4282 H   0  0  0  0  0  0  0  0  0  0  0  0
   36.2034   26.4362   41.9581 H   0  0  0  0  0  0  0  0  0  0  0  0
   37.9335   25.9530   41.9581 H   0  0  0  0  0  0  0  0  0  0  0  0
   39.1940   27.8368   44.3695 H   0  0  0  0  0  0  0  0  0  0  0  0
   39.4791   26.9534   42.8316 H   0  0  0  0  0  0  0  0  0  0  0  0
   39.3766   28.7468   42.8316 H   0  0  0  0  0  0  0  0  0  0  0  0
   37.5023   27.7390   45.2125 H   0  0  0  0  0  0  0  0  0  0  0  0
   36.6219   29.1142   44.4639 H   0  0  0  0  0  0  0  0  0  0  0  0
   35.8912   27.4732   44.4639 H   0  0  0  0  0  0  0  0  0  0  0  0
   38.9658   32.7453   42.0516 H   0  0  0  0  0  0  0  0  0  0  0  0
  1  7  1  0
  2  1  2  0
  3  2  1  0
  4  3  2  0
  4  5  1  0
  5  6  2  0
  6  1  1  0
  7  9  1  0
  7 10  1  0
  8  7  1  0
 11  5  1  0
  2 12  1  0
  3 13  1  0
  8 14  1  0
  8 15  1  0
  8 16  1  0
  9 17  1  0
  9 18  1  0
  9 19  1  0
 10 20  1  0
 10 21  1  0
 10 22  1  0
 11 23  1  0
M  ISO  8  12  14  13  14  14   8  15   8  16   8  17   8  18   8  19   8
M  ISO  4  20   8  21   8  22   8  23  11
M  END
>  <minimizedAffinity>  (1) 
-4.10916328

>  <minimizedRMSD>  (1) 
3.16391921

$$$$
