
     RDKit          3D

 22 24  0  0  0  0  0  0  0  0999 V2000
   38.2730   28.6710   41.6410 C   0  0  0  0  0  0  0  0  0  0  0  0
   37.3100   28.9860   42.6100 C   0  0  0  0  0  0  0  0  0  0  0  0
   37.3370   28.2980   43.8140 C   0  0  0  0  0  0  0  0  0  0  0  0
   38.3030   27.3440   44.0010 N   0  0  0  0  0  0  0  0  0  0  0  0
   39.2080   27.0700   43.0480 C   0  0  0  0  0  0  0  0  0  0  0  0
   39.1970   27.7300   41.8710 N   0  0  0  0  0  0  0  0  0  0  0  0
   38.3620   29.3030   40.3520 N   0  0  0  0  0  0  0  0  0  0  0  0
   38.0650   28.9050   39.0820 C   0  0  0  0  0  0  0  0  0  0  0  0
   38.3570   29.9370   38.2560 N   0  0  0  0  0  0  0  0  0  0  0  0
   38.8260   30.9620   38.9890 C   0  0  0  0  0  0  0  0  0  0  0  0
   39.2450   32.2080   38.5600 C   0  0  0  0  0  0  0  0  0  0  0  0
   39.6730   33.0500   39.5290 N   0  0  0  0  0  0  0  0  0  0  0  0
   39.6940   32.7080   40.8210 C   0  0  0  0  0  0  0  0  0  0  0  0
   39.2800   31.4890   41.2010 N   0  0  0  0  0  0  0  0  0  0  0  0
   38.8360   30.5740   40.3220 C   0  0  0  0  0  0  0  0  0  0  0  0
   40.4510   25.8120   43.3440 S   0  0  0  0  0  0  0  0  0  0  0  0
   36.5516   29.7598   42.4201 H   0  0  0  0  0  0  0  0  0  0  0  0
   36.5995   28.5133   44.6012 H   0  0  0  0  0  0  0  0  0  0  0  0
   37.6623   27.9258   38.7837 H   0  0  0  0  0  0  0  0  0  0  0  0
   39.2313   32.4964   37.4986 H   0  0  0  0  0  0  0  0  0  0  0  0
   40.0510   33.4263   41.5737 H   0  0  0  0  0  0  0  0  0  0  0  0
   40.6177   25.6433   44.6933 H   0  0  0  0  0  0  0  0  0  0  0  0
  1  6  1  0
  1  2  2  0
  2  3  1  0
  3  4  2  0
  5 16  1  0
  5  4  1  0
  6  5  2  0
  7  1  1  0
  8  7  1  0
  9 10  1  0
  9  8  2  0
 10 15  2  0
 11 10  1  0
 11 12  2  0
 12 13  1  0
 13 14  2  0
 15  7  1  0
 15 14  1  0
  2 17  1  0
  3 18  1  0
  8 19  1  0
 11 20  1  0
 13 21  1  0
 16 22  1  0
M  ISO  6  17  14  18  14  19  14  20  14  21  14  22  11
M  END
>  <minimizedAffinity>  (1) 
-3.96091056

>  <minimizedRMSD>  (1) 
5.21984148

$$$$
