
     RDKit          3D

 21 22  0  0  0  0  0  0  0  0999 V2000
   38.6810   28.8040   42.6120 C   0  0  0  0  0  0  0  0  0  0  0  0
   38.2560   27.7280   43.3880 C   0  0  0  0  0  0  0  0  0  0  0  0
   36.9600   27.2170   43.1820 C   0  0  0  0  0  0  0  0  0  0  0  0
   36.1850   27.8100   42.2230 N   0  0  0  0  0  0  0  0  0  0  0  0
   36.6410   28.8440   41.5030 C   0  0  0  0  0  0  0  0  0  0  0  0
   37.8800   29.3460   41.6880 N   0  0  0  0  0  0  0  0  0  0  0  0
   40.0040   29.3810   42.7730 C   0  0  0  0  0  0  0  0  0  0  0  0
   41.0660   28.5400   43.0350 C   0  0  0  0  0  0  0  0  0  0  0  0
   42.3770   28.9730   43.2080 C   0  0  0  0  0  0  0  0  0  0  0  0
   42.6540   30.3210   43.1160 C   0  0  0  0  0  0  0  0  0  0  0  0
   41.6050   31.1780   42.8530 C   0  0  0  0  0  0  0  0  0  0  0  0
   40.3150   30.7210   42.6860 C   0  0  0  0  0  0  0  0  0  0  0  0
   35.5750   29.5750   40.2620 S   0  0  0  0  0  0  0  0  0  0  0  0
   38.9193   27.2864   44.1463 H   0  0  0  0  0  0  0  0  0  0  0  0
   36.5832   26.3690   43.7727 H   0  0  0  0  0  0  0  0  0  0  0  0
   40.8639   27.4614   43.1118 H   0  0  0  0  0  0  0  0  0  0  0  0
   43.1806   28.2509   43.4151 H   0  0  0  0  0  0  0  0  0  0  0  0
   43.6780   30.7006   43.2480 H   0  0  0  0  0  0  0  0  0  0  0  0
   41.8037   32.2570   42.7743 H   0  0  0  0  0  0  0  0  0  0  0  0
   39.5131   31.4446   42.4779 H   0  0  0  0  0  0  0  0  0  0  0  0
   34.5656   30.2672   40.8775 H   0  0  0  0  0  0  0  0  0  0  0  0
  1  7  1  0
  1  2  2  0
  3  2  1  0
  4  3  2  0
  5  6  2  0
  5  4  1  0
  6  1  1  0
  7  8  2  0
  8  9  1  0
 10  9  2  0
 11 10  1  0
 12  7  1  0
 12 11  2  0
 13  5  1  0
  2 14  1  0
  3 15  1  0
  8 16  1  0
  9 17  1  0
 10 18  1  0
 11 19  1  0
 12 20  1  0
 13 21  1  0
M  ISO  8  14  14  15  14  16  14  17  14  18  14  19  14  20  14  21  11
M  END
>  <minimizedAffinity>  (1) 
-3.78872538

>  <minimizedRMSD>  (1) 
1.37832093

$$$$
