
     RDKit          3D

 31 33  0  0  1  0  0  0  0  0999 V2000
   37.9530   30.7990   40.8460 N   0  0  0  0  0  0  0  0  0  0  0  0
   38.0650   32.2590   40.6190 C   0  0  0  0  0  0  0  0  0  0  0  0
   39.5660   32.4710   40.4570 C   0  0  0  0  0  0  0  0  0  0  0  0
   40.1580   32.2990   41.7550 N   0  0  0  0  0  0  0  0  0  0  0  0
   39.7190   31.1670   42.4950 C   0  0  0  0  0  0  0  0  0  0  0  0
   38.8580   30.1930   41.7440 C   0  0  1  0  0  0  0  0  0  0  0  0
   36.9940   29.9990   40.1840 C   0  0  0  0  0  0  0  0  0  0  0  0
   35.6300   30.0310   40.5110 C   0  0  0  0  0  0  0  0  0  0  0  0
   34.7970   29.1680   39.7730 C   0  0  0  0  0  0  0  0  0  0  0  0
   35.3630   28.3630   38.7970 N   0  0  0  0  0  0  0  0  0  0  0  0
   36.6840   28.3810   38.5300 C   0  0  0  0  0  0  0  0  0  0  0  0
   37.5140   29.1900   39.2110 N   0  0  0  0  0  0  0  0  0  0  0  0
   38.4210   29.1070   42.6100 C   0  0  0  0  0  0  0  0  0  0  0  0
   38.7630   27.7620   42.7970 C   0  0  0  0  0  0  0  0  0  0  0  0
   38.0210   27.1800   43.7490 N   0  0  0  0  0  0  0  0  0  0  0  0
   37.1820   28.1250   44.2050 C   0  0  0  0  0  0  0  0  0  0  0  0
   37.4210   29.2630   43.5310 N   0  0  0  0  0  0  0  0  0  0  0  0
   37.5236   32.5597   39.7099 H   0  0  0  0  0  0  0  0  0  0  0  0
   37.6298   32.8572   41.4330 H   0  0  0  0  0  0  0  0  0  0  0  0
   39.9779   31.7326   39.7533 H   0  0  0  0  0  0  0  0  0  0  0  0
   39.7797   33.4737   40.0583 H   0  0  0  0  0  0  0  0  0  0  0  0
   41.1769   32.2170   41.6283 H   0  0  0  0  0  0  0  0  0  0  0  0
   40.6102   30.6278   42.8484 H   0  0  0  0  0  0  0  0  0  0  0  0
   39.0880   31.5636   43.3040 H   0  0  0  0  0  0  0  0  0  0  0  0
   39.4569   29.6519   40.9967 H   0  0  0  0  0  0  0  0  0  0  0  0
   35.2347   30.6910   41.2972 H   0  0  0  0  0  0  0  0  0  0  0  0
   33.7150   29.1334   39.9680 H   0  0  0  0  0  0  0  0  0  0  0  0
   37.0881   27.7253   37.7447 H   0  0  0  0  0  0  0  0  0  0  0  0
   39.5492   27.2436   42.2286 H   0  0  0  0  0  0  0  0  0  0  0  0
   36.4284   27.9904   44.9949 H   0  0  0  0  0  0  0  0  0  0  0  0
   36.9132   30.1452   43.6885 H   0  0  0  0  0  0  0  0  0  0  0  0
  1  6  1  0
  2  1  1  0
  3  2  1  0
  3  4  1  0
  4  5  1  0
  6  5  1  0
  6 13  1  0
  7  8  2  0
  7  1  1  0
  9  8  1  0
 10  9  2  0
 11 10  1  0
 11 12  2  0
 12  7  1  0
 13 14  2  0
 13 17  1  0
 14 15  1  0
 15 16  2  0
 17 16  1  0
  2 18  1  0
  2 19  1  0
  3 20  1  0
  3 21  1  0
  4 22  1  0
  5 23  1  0
  5 24  1  0
  6 25  1  6
  8 26  1  0
  9 27  1  0
 11 28  1  0
 14 29  1  0
 16 30  1  0
 17 31  1  0
M  ISO  8  18  13  19  13  20  13  21  13  22   5  23  13  24  13  25  13
M  ISO  6  26  14  27  14  28  14  29  14  30  14  31   9
M  END
>  <minimizedAffinity>  (1) 
-4.7852025

>  <minimizedRMSD>  (1) 
3.37834311

$$$$
