
     RDKit          3D

 20 21  0  0  0  0  0  0  0  0999 V2000
   38.0120   29.2140   41.4980 C   0  0  0  0  0  0  0  0  0  0  0  0
   37.4120   29.2300   42.7570 C   0  0  0  0  0  0  0  0  0  0  0  0
   37.7070   28.2000   43.6650 C   0  0  0  0  0  0  0  0  0  0  0  0
   38.5810   27.2250   43.2530 N   0  0  0  0  0  0  0  0  0  0  0  0
   39.1400   27.2460   42.0280 C   0  0  0  0  0  0  0  0  0  0  0  0
   38.8560   28.2300   41.1650 N   0  0  0  0  0  0  0  0  0  0  0  0
   37.7050   30.2860   40.5550 C   0  0  0  0  0  0  0  0  0  0  0  0
   37.8650   31.5970   40.9460 C   0  0  0  0  0  0  0  0  0  0  0  0
   37.5890   32.6460   40.0940 C   0  0  0  0  0  0  0  0  0  0  0  0
   37.1480   32.2770   38.8450 C   0  0  0  0  0  0  0  0  0  0  0  0
   36.9770   30.9520   38.4260 C   0  0  0  0  0  0  0  0  0  0  0  0
   37.2690   29.9780   39.3190 N   0  0  0  0  0  0  0  0  0  0  0  0
   40.2720   25.9430   41.5590 S   0  0  0  0  0  0  0  0  0  0  0  0
   36.7182   30.0372   43.0346 H   0  0  0  0  0  0  0  0  0  0  0  0
   37.2551   28.1755   44.6676 H   0  0  0  0  0  0  0  0  0  0  0  0
   38.2220   31.8129   41.9638 H   0  0  0  0  0  0  0  0  0  0  0  0
   37.7123   33.6979   40.3912 H   0  0  0  0  0  0  0  0  0  0  0  0
   36.9138   33.0765   38.1267 H   0  0  0  0  0  0  0  0  0  0  0  0
   36.6202   30.7128   37.4133 H   0  0  0  0  0  0  0  0  0  0  0  0
   40.7831   25.3547   42.6857 H   0  0  0  0  0  0  0  0  0  0  0  0
  1  2  2  0
  2  3  1  0
  4  3  2  0
  5  4  1  0
  6  1  1  0
  6  5  2  0
  7  8  2  0
  7  1  1  0
  9  8  1  0
 10  9  2  0
 11 10  1  0
 11 12  2  0
 12  7  1  0
 13  5  1  0
  2 14  1  0
  3 15  1  0
  8 16  1  0
  9 17  1  0
 10 18  1  0
 11 19  1  0
 13 20  1  0
M  ISO  7  14  14  15  14  16  14  17  14  18  14  19  14  20  11
M  END
>  <minimizedAffinity>  (1) 
-3.62752175

>  <minimizedRMSD>  (1) 
4.98514223

$$$$
