
     RDKit          3D

 18 19  0  0  0  0  0  0  0  0999 V2000
   36.7570   28.0560   41.7890 C   0  0  0  0  0  0  0  0  0  0  0  0
   36.6070   27.2800   40.6350 C   0  0  0  0  0  0  0  0  0  0  0  0
   36.6100   27.9240   39.3960 C   0  0  0  0  0  0  0  0  0  0  0  0
   36.7590   29.2840   39.3750 N   0  0  0  0  0  0  0  0  0  0  0  0
   36.9000   29.9950   40.5050 C   0  0  0  0  0  0  0  0  0  0  0  0
   36.9010   29.4020   41.7040 N   0  0  0  0  0  0  0  0  0  0  0  0
   36.7580   27.4050   43.1270 C   0  0  0  0  0  0  0  0  0  0  0  0
   38.1030   27.3400   43.8540 C   0  0  0  0  0  0  0  0  0  0  0  0
   36.9420   28.1450   44.3700 C   0  0  0  0  0  0  0  0  0  0  0  0
   37.0920   31.7730   40.4020 S   0  0  0  0  0  0  0  0  0  0  0  0
   36.4895   26.1883   40.7019 H   0  0  0  0  0  0  0  0  0  0  0  0
   36.4957   27.3536   38.4624 H   0  0  0  0  0  0  0  0  0  0  0  0
   35.9781   26.7042   42.7945 H   0  0  0  0  0  0  0  0  0  0  0  0
   38.4143   26.4187   44.3681 H   0  0  0  0  0  0  0  0  0  0  0  0
   39.1536   27.5396   43.5964 H   0  0  0  0  0  0  0  0  0  0  0  0
   36.9890   29.2438   44.3469 H   0  0  0  0  0  0  0  0  0  0  0  0
   36.4004   28.1795   45.3268 H   0  0  0  0  0  0  0  0  0  0  0  0
   37.1489   32.3001   41.6653 H   0  0  0  0  0  0  0  0  0  0  0  0
  1  7  1  0
  2  1  2  0
  3  2  1  0
  4  3  2  0
  4  5  1  0
  5  6  2  0
  6  1  1  0
  7  8  1  0
  7  9  1  0
  8  9  1  0
 10  5  1  0
  2 11  1  0
  3 12  1  0
  7 13  1  0
  8 14  1  0
  8 15  1  0
  9 16  1  0
  9 17  1  0
 10 18  1  0
M  ISO  8  11  14  12  14  13  13  14  13  15  13  16  13  17  13  18  11
M  END
>  <minimizedAffinity>  (1) 
-3.48480868

>  <minimizedRMSD>  (1) 
2.95039773

$$$$
