
     RDKit          3D

 16 17  0  0  0  0  0  0  0  0999 V2000
   39.3120   32.4660   39.8870 C   0  0  0  0  0  0  0  0  0  0  0  0
   40.0860   32.1090   38.7750 C   0  0  0  0  0  0  0  0  0  0  0  0
   41.0310   33.0130   38.3070 C   0  0  0  0  0  0  0  0  0  0  0  0
   41.1540   34.2070   38.9560 N   0  0  0  0  0  0  0  0  0  0  0  0
   40.3990   34.5280   40.0240 C   0  0  0  0  0  0  0  0  0  0  0  0
   39.4820   33.6670   40.4910 N   0  0  0  0  0  0  0  0  0  0  0  0
   38.3100   31.5380   40.4050 C   0  0  0  0  0  0  0  0  0  0  0  0
   38.3530   30.2560   40.8620 N   0  0  0  0  0  0  0  0  0  0  0  0
   37.1500   29.8930   41.2110 O   0  0  0  0  0  0  0  0  0  0  0  0
   36.3020   30.8720   41.0070 C   0  0  0  0  0  0  0  0  0  0  0  0
   37.0120   31.9040   40.5040 N   0  0  0  0  0  0  0  0  0  0  0  0
   40.6240   36.1160   40.8220 S   0  0  0  0  0  0  0  0  0  0  0  0
   39.9483   31.1346   38.2836 H   0  0  0  0  0  0  0  0  0  0  0  0
   41.6619   32.7734   37.4384 H   0  0  0  0  0  0  0  0  0  0  0  0
   35.2205   30.8555   41.2072 H   0  0  0  0  0  0  0  0  0  0  0  0
   40.6006   35.9511   42.1818 H   0  0  0  0  0  0  0  0  0  0  0  0
  1  7  1  0
  1  6  1  0
  2  1  2  0
  3  2  1  0
  3  4  2  0
  4  5  1  0
  5  6  2  0
  5 12  1  0
  7 11  1  0
  7  8  2  0
  8  9  1  0
 10  9  1  0
 11 10  2  0
  2 13  1  0
  3 14  1  0
 10 15  1  0
 12 16  1  0
M  ISO  4  13  14  14  14  15  14  16  11
M  END
>  <minimizedAffinity>  (1) 
-3.37742615

>  <minimizedRMSD>  (1) 
6.23285151

$$$$
