
     RDKit          3D

 33 35  0  0  1  0  0  0  0  0999 V2000
   38.3720   31.3310   40.4840 N   0  0  0  0  0  0  0  0  0  0  0  0
   39.5130   32.2040   40.4060 C   0  0  0  0  0  0  0  0  0  0  0  0
   38.9550   33.5760   40.8340 C   0  0  0  0  0  0  0  0  0  0  0  0
   38.1050   34.0390   39.8020 N   0  0  0  0  0  0  0  0  0  0  0  0
   37.2140   33.1050   39.2490 C   0  0  0  0  0  0  0  0  0  0  0  0
   37.1800   31.7380   39.8290 C   0  0  1  0  0  0  0  0  0  0  0  0
   38.3530   30.0960   41.1850 C   0  0  0  0  0  0  0  0  0  0  0  0
   39.2180   29.0540   40.9210 C   0  0  0  0  0  0  0  0  0  0  0  0
   39.1630   27.8700   41.6260 C   0  0  0  0  0  0  0  0  0  0  0  0
   38.2030   27.7940   42.5990 N   0  0  0  0  0  0  0  0  0  0  0  0
   37.3630   28.8070   42.8530 C   0  0  0  0  0  0  0  0  0  0  0  0
   37.4380   29.9500   42.1520 N   0  0  0  0  0  0  0  0  0  0  0  0
   36.7390   30.8490   38.7040 C   0  0  0  0  0  0  0  0  0  0  0  0
   37.3400   30.8780   37.4600 C   0  0  0  0  0  0  0  0  0  0  0  0
   36.9850   30.0510   36.4150 C   0  0  0  0  0  0  0  0  0  0  0  0
   35.9730   29.1360   36.6050 C   0  0  0  0  0  0  0  0  0  0  0  0
   35.4100   29.1490   37.8640 C   0  0  0  0  0  0  0  0  0  0  0  0
   35.7320   29.9400   38.9010 N   0  0  0  0  0  0  0  0  0  0  0  0
   40.3075   31.8729   41.0910 H   0  0  0  0  0  0  0  0  0  0  0  0
   39.9671   32.2227   39.4043 H   0  0  0  0  0  0  0  0  0  0  0  0
   38.3857   33.4729   41.7695 H   0  0  0  0  0  0  0  0  0  0  0  0
   39.7759   34.2883   41.0038 H   0  0  0  0  0  0  0  0  0  0  0  0
   37.5457   34.8152   40.1836 H   0  0  0  0  0  0  0  0  0  0  0  0
   36.2016   33.5246   39.3436 H   0  0  0  0  0  0  0  0  0  0  0  0
   37.5784   32.9560   38.2219 H   0  0  0  0  0  0  0  0  0  0  0  0
   36.4746   31.6871   40.6715 H   0  0  0  0  0  0  0  0  0  0  0  0
   39.9710   29.1707   40.1277 H   0  0  0  0  0  0  0  0  0  0  0  0
   39.8498   27.0361   41.4188 H   0  0  0  0  0  0  0  0  0  0  0  0
   36.6050   28.7012   43.6431 H   0  0  0  0  0  0  0  0  0  0  0  0
   38.1496   31.6038   37.2934 H   0  0  0  0  0  0  0  0  0  0  0  0
   37.5012   30.1209   35.4462 H   0  0  0  0  0  0  0  0  0  0  0  0
   35.6397   28.4482   35.8139 H   0  0  0  0  0  0  0  0  0  0  0  0
   34.6006   28.4252   38.0400 H   0  0  0  0  0  0  0  0  0  0  0  0
  1  7  1  0
  2  1  1  0
  2  3  1  0
  4  3  1  0
  5  4  1  0
  5  6  1  0
  6  1  1  0
  7 12  1  0
  8  7  2  0
  8  9  1  0
  9 10  2  0
 10 11  1  0
 12 11  2  0
 13 18  1  0
 13  6  1  0
 14 13  2  0
 15 16  2  0
 15 14  1  0
 16 17  1  0
 17 18  2  0
  2 19  1  0
  2 20  1  0
  3 21  1  0
  3 22  1  0
  4 23  1  0
  5 24  1  0
  5 25  1  0
  6 26  1  1
  8 27  1  0
  9 28  1  0
 11 29  1  0
 14 30  1  0
 15 31  1  0
 16 32  1  0
 17 33  1  0
M  ISO  8  19  13  20  13  21  13  22  13  23   5  24  13  25  13  26  13
M  ISO  7  27  14  28  14  29  14  30  14  31  14  32  14  33  14
M  END
>  <minimizedAffinity>  (1) 
-4.72284174

>  <minimizedRMSD>  (1) 
6.29869032

$$$$
