
     RDKit          3D

 37 40  0  0  1  0  0  0  0  0999 V2000
   40.3440   31.7890   39.8600 N   0  0  0  0  0  0  0  0  0  0  0  0
   39.7750   31.6880   41.1970 C   0  0  0  0  0  0  0  0  0  0  0  0
   38.4610   32.4540   41.1090 C   0  0  0  0  0  0  0  0  0  0  0  0
   38.8190   33.8290   41.0360 N   0  0  0  0  0  0  0  0  0  0  0  0
   39.6880   34.1570   39.9750 C   0  0  0  0  0  0  0  0  0  0  0  0
   40.4220   33.0700   39.2690 C   0  0  1  0  0  0  0  0  0  0  0  0
   40.8030   30.6710   39.1260 C   0  0  0  0  0  0  0  0  0  0  0  0
   41.9440   29.9580   39.4390 C   0  0  0  0  0  0  0  0  0  0  0  0
   42.3290   28.8760   38.6730 C   0  0  0  0  0  0  0  0  0  0  0  0
   41.5330   28.5540   37.6080 N   0  0  0  0  0  0  0  0  0  0  0  0
   40.4270   29.2480   37.3070 C   0  0  0  0  0  0  0  0  0  0  0  0
   40.0760   30.2930   38.0650 N   0  0  0  0  0  0  0  0  0  0  0  0
   41.7870   33.5460   39.1160 N   0  0  0  0  0  0  0  0  0  0  0  0
   42.4440   33.8540   37.9540 C   0  0  0  0  0  0  0  0  0  0  0  0
   43.6880   34.2760   38.2280 N   0  0  0  0  0  0  0  0  0  0  0  0
   43.8690   34.2530   39.5550 C   0  0  0  0  0  0  0  0  0  0  0  0
   44.8840   34.5550   40.4320 C   0  0  0  0  0  0  0  0  0  0  0  0
   44.7810   34.4310   41.7580 N   0  0  0  0  0  0  0  0  0  0  0  0
   43.6220   33.9860   42.2910 C   0  0  0  0  0  0  0  0  0  0  0  0
   42.6360   33.6930   41.4540 N   0  0  0  0  0  0  0  0  0  0  0  0
   42.6890   33.8000   40.1130 C   0  0  0  0  0  0  0  0  0  0  0  0
   46.1250   35.0300   39.8810 N   0  0  0  0  0  0  0  0  0  0  0  0
   39.5952   30.6364   41.4650 H   0  0  0  0  0  0  0  0  0  0  0  0
   40.4453   32.0930   41.9694 H   0  0  0  0  0  0  0  0  0  0  0  0
   37.9027   32.1551   40.2096 H   0  0  0  0  0  0  0  0  0  0  0  0
   37.8138   32.2492   41.9746 H   0  0  0  0  0  0  0  0  0  0  0  0
   37.9556   34.3797   40.9253 H   0  0  0  0  0  0  0  0  0  0  0  0
   39.0862   34.6814   39.2182 H   0  0  0  0  0  0  0  0  0  0  0  0
   40.4866   34.7353   40.4627 H   0  0  0  0  0  0  0  0  0  0  0  0
   39.9396   32.8843   38.2980 H   0  0  0  0  0  0  0  0  0  0  0  0
   42.5514   30.2551   40.3066 H   0  0  0  0  0  0  0  0  0  0  0  0
   43.2352   28.2986   38.9084 H   0  0  0  0  0  0  0  0  0  0  0  0
   39.8114   28.9603   36.4420 H   0  0  0  0  0  0  0  0  0  0  0  0
   42.0149   33.7680   36.9448 H   0  0  0  0  0  0  0  0  0  0  0  0
   43.5008   33.8711   43.3782 H   0  0  0  0  0  0  0  0  0  0  0  0
   46.9088   35.2666   40.5059 H   0  0  0  0  0  0  0  0  0  0  0  0
   46.2297   35.1335   38.8616 H   0  0  0  0  0  0  0  0  0  0  0  0
  1  2  1  0
  3  2  1  0
  4  3  1  0
  5  4  1  0
  6  1  1  0
  6  5  1  0
  7  8  2  0
  7  1  1  0
  9  8  1  0
 10  9  2  0
 11 10  1  0
 11 12  2  0
 12  7  1  0
 13  6  1  0
 13 21  1  0
 14 15  2  0
 14 13  1  0
 15 16  1  0
 16 21  2  0
 16 17  1  0
 17 18  2  0
 18 19  1  0
 20 19  2  0
 21 20  1  0
 22 17  1  0
  2 23  1  0
  2 24  1  0
  3 25  1  0
  3 26  1  0
  4 27  1  0
  5 28  1  0
  5 29  1  0
  6 30  1  6
  8 31  1  0
  9 32  1  0
 11 33  1  0
 14 34  1  0
 19 35  1  0
 22 36  1  0
 22 37  1  0
M  ISO  8  23  13  24  13  25  13  26  13  27   5  28  13  29  13  30  13
M  ISO  5  31  14  32  14  33  14  34  14  35  14
M  END
>  <minimizedAffinity>  (1) 
-4.65363121

>  <minimizedRMSD>  (1) 
7.49755478

$$$$
