
     RDKit          3D

 17 17  0  0  0  0  0  0  0  0999 V2000
   37.6860   30.5580   41.2140 C   0  0  0  0  0  0  0  0  0  0  0  0
   36.8790   30.1650   40.1590 C   0  0  0  0  0  0  0  0  0  0  0  0
   36.6520   31.0560   39.1100 C   0  0  0  0  0  0  0  0  0  0  0  0
   37.2500   32.2840   39.1860 N   0  0  0  0  0  0  0  0  0  0  0  0
   38.0220   32.6260   40.2180 C   0  0  0  0  0  0  0  0  0  0  0  0
   38.2540   31.7790   41.2450 N   0  0  0  0  0  0  0  0  0  0  0  0
   38.7850   34.2510   40.2750 S   0  0  0  0  0  0  0  0  0  0  0  0
   37.9190   29.6230   42.3060 C   0  0  0  0  0  0  0  0  0  0  0  0
   38.9010   29.7400   43.0780 O   0  0  0  0  0  0  0  0  0  0  0  0
   37.0670   28.5710   42.5320 O   0  0  0  0  0  0  0  0  0  0  0  0
   37.1060   27.8850   43.7750 C   0  0  0  0  0  0  0  0  0  0  0  0
   36.9170   28.7190   44.8500 F   0  0  0  0  0  0  0  0  0  0  0  0
   36.0200   27.0090   43.7500 F   0  0  0  0  0  0  0  0  0  0  0  0
   38.2590   27.1470   43.8920 F   0  0  0  0  0  0  0  0  0  0  0  0
   36.4233   29.1639   40.1486 H   0  0  0  0  0  0  0  0  0  0  0  0
   36.0168   30.7818   38.2548 H   0  0  0  0  0  0  0  0  0  0  0  0
   38.9616   34.6271   41.5805 H   0  0  0  0  0  0  0  0  0  0  0  0
  1  6  2  0
  1  8  1  0
  2  1  1  0
  3  4  1  0
  3  2  2  0
  4  5  2  0
  5  7  1  0
  5  6  1  0
  8 10  1  0
  8  9  2  0
 10 11  1  0
 11 14  1  0
 11 12  1  0
 13 11  1  0
  2 15  1  0
  3 16  1  0
  7 17  1  0
M  ISO  3  15  14  16  14  17  11
M  END
>  <minimizedAffinity>  (1) 
-4.39117956

>  <minimizedRMSD>  (1) 
2.1025517

$$$$
