
     RDKit          3D

 38 41  0  0  1  0  0  0  0  0999 V2000
   39.1990   28.7040   42.3040 N   0  0  0  0  0  0  0  0  0  0  0  0
   40.0490   29.7900   42.7080 C   0  0  0  0  0  0  0  0  0  0  0  0
   41.4570   29.2790   42.4890 C   0  0  0  0  0  0  0  0  0  0  0  0
   41.7280   28.2570   43.4430 N   0  0  0  0  0  0  0  0  0  0  0  0
   40.7100   27.3150   43.6590 C   0  0  0  0  0  0  0  0  0  0  0  0
   39.4730   27.3870   42.8410 C   0  0  2  0  0  0  0  0  0  0  0  0
   39.6070   26.4400   41.7000 C   0  0  0  0  0  0  0  0  0  0  0  0
   40.7160   26.5710   40.9230 N   0  0  0  0  0  0  0  0  0  0  0  0
   40.9710   25.7930   39.8570 C   0  0  0  0  0  0  0  0  0  0  0  0
   40.1120   24.8010   39.4780 N   0  0  0  0  0  0  0  0  0  0  0  0
   39.0050   24.6460   40.2280 C   0  0  0  0  0  0  0  0  0  0  0  0
   38.0870   23.6750   39.9250 C   0  0  0  0  0  0  0  0  0  0  0  0
   36.9380   23.5080   40.6960 C   0  0  0  0  0  0  0  0  0  0  0  0
   36.7010   24.3280   41.7950 C   0  0  0  0  0  0  0  0  0  0  0  0
   37.6150   25.3120   42.1160 C   0  0  0  0  0  0  0  0  0  0  0  0
   38.7360   25.4400   41.3230 C   0  0  0  0  0  0  0  0  0  0  0  0
   38.1000   28.8300   41.4100 C   0  0  0  0  0  0  0  0  0  0  0  0
   36.7670   28.6710   41.8520 C   0  0  0  0  0  0  0  0  0  0  0  0
   35.7510   28.8130   40.9020 C   0  0  0  0  0  0  0  0  0  0  0  0
   36.1220   29.0970   39.6020 N   0  0  0  0  0  0  0  0  0  0  0  0
   37.4010   29.2360   39.2420 C   0  0  0  0  0  0  0  0  0  0  0  0
   38.3920   29.1050   40.1290 N   0  0  0  0  0  0  0  0  0  0  0  0
   39.8595   30.6809   42.0912 H   0  0  0  0  0  0  0  0  0  0  0  0
   39.8730   30.0898   43.7516 H   0  0  0  0  0  0  0  0  0  0  0  0
   41.5475   28.8690   41.4723 H   0  0  0  0  0  0  0  0  0  0  0  0
   42.1763   30.1025   42.6090 H   0  0  0  0  0  0  0  0  0  0  0  0
   42.5643   27.7465   43.1254 H   0  0  0  0  0  0  0  0  0  0  0  0
   41.1502   26.3212   43.4898 H   0  0  0  0  0  0  0  0  0  0  0  0
   40.3627   27.5336   44.6796 H   0  0  0  0  0  0  0  0  0  0  0  0
   38.6371   27.1311   43.5086 H   0  0  0  0  0  0  0  0  0  0  0  0
   41.8911   25.9588   39.2775 H   0  0  0  0  0  0  0  0  0  0  0  0
   38.2594   23.0174   39.0602 H   0  0  0  0  0  0  0  0  0  0  0  0
   36.2136   22.7227   40.4340 H   0  0  0  0  0  0  0  0  0  0  0  0
   35.7939   24.1936   42.4025 H   0  0  0  0  0  0  0  0  0  0  0  0
   37.4537   25.9745   42.9792 H   0  0  0  0  0  0  0  0  0  0  0  0
   36.5375   28.4441   42.9036 H   0  0  0  0  0  0  0  0  0  0  0  0
   34.6925   28.7024   41.1802 H   0  0  0  0  0  0  0  0  0  0  0  0
   37.6435   29.4631   38.1934 H   0  0  0  0  0  0  0  0  0  0  0  0
  1  2  1  0
  1  6  1  0
  3  2  1  0
  3  4  1  0
  4  5  1  0
  6  5  1  0
  7  6  1  0
  8  7  2  0
  9  8  1  0
 10  9  2  0
 10 11  1  0
 11 16  2  0
 12 11  1  0
 12 13  2  0
 13 14  1  0
 14 15  2  0
 16  7  1  0
 16 15  1  0
 17 18  2  0
 17  1  1  0
 19 18  1  0
 20 19  2  0
 21 20  1  0
 21 22  2  0
 22 17  1  0
  2 23  1  0
  2 24  1  0
  3 25  1  0
  3 26  1  0
  4 27  1  0
  5 28  1  0
  5 29  1  0
  6 30  1  1
  9 31  1  0
 12 32  1  0
 13 33  1  0
 14 34  1  0
 15 35  1  0
 18 36  1  0
 19 37  1  0
 21 38  1  0
M  ISO  8  23  13  24  13  25  13  26  13  27   5  28  13  29  13  30  13
M  ISO  8  31  14  32  14  33  14  34  14  35  14  36  14  37  14  38  14
M  END
>  <minimizedAffinity>  (1) 
-4.65307283

>  <minimizedRMSD>  (1) 
2.87483692

$$$$
