
     RDKit          3D

 21 22  0  0  0  0  0  0  0  0999 V2000
   36.7690   28.6200   41.8970 C   0  0  0  0  0  0  0  0  0  0  0  0
   35.6920   28.7640   41.0170 C   0  0  0  0  0  0  0  0  0  0  0  0
   35.6650   29.8750   40.1780 C   0  0  0  0  0  0  0  0  0  0  0  0
   36.6980   30.7740   40.2570 N   0  0  0  0  0  0  0  0  0  0  0  0
   37.7100   30.6000   41.1120 C   0  0  0  0  0  0  0  0  0  0  0  0
   37.7520   29.5260   41.9360 N   0  0  0  0  0  0  0  0  0  0  0  0
   39.0340   31.8040   41.1780 S   0  0  0  0  0  0  0  0  0  0  0  0
   36.7950   27.4550   42.7740 C   0  0  0  0  0  0  0  0  0  0  0  0
   36.2720   27.4810   43.8970 O   0  0  0  0  0  0  0  0  0  0  0  0
   37.4070   26.2860   42.3710 O   0  0  0  0  0  0  0  0  0  0  0  0
   38.7100   26.0180   42.7690 C   0  0  0  0  0  0  0  0  0  0  0  0
   39.2690   26.8500   43.7470 C   0  0  0  0  0  0  0  0  0  0  0  0
   40.5710   26.4040   43.9940 C   0  0  0  0  0  0  0  0  0  0  0  0
   40.7130   25.3100   43.1340 C   0  0  0  0  0  0  0  0  0  0  0  0
   39.6010   25.1160   42.4330 O   0  0  0  0  0  0  0  0  0  0  0  0
   34.8849   28.0171   40.9882 H   0  0  0  0  0  0  0  0  0  0  0  0
   34.8368   30.0277   39.4703 H   0  0  0  0  0  0  0  0  0  0  0  0
   39.3364   32.0790   42.4856 H   0  0  0  0  0  0  0  0  0  0  0  0
   38.7725   27.7022   44.2340 H   0  0  0  0  0  0  0  0  0  0  0  0
   41.3090   26.8160   44.6980 H   0  0  0  0  0  0  0  0  0  0  0  0
   41.6208   24.6946   43.0496 H   0  0  0  0  0  0  0  0  0  0  0  0
  1  6  1  0
  1  8  1  0
  2  1  2  0
  3  4  2  0
  3  2  1  0
  4  5  1  0
  5  7  1  0
  5  6  2  0
  8  9  2  0
 10 11  1  0
 10  8  1  0
 11 12  2  0
 12 13  1  0
 14 13  2  0
 15 11  1  0
 15 14  1  0
  2 16  1  0
  3 17  1  0
  7 18  1  0
 12 19  1  0
 13 20  1  0
 14 21  1  0
M  ISO  6  16  14  17  14  18  11  19  14  20  14  21  14
M  END
>  <minimizedAffinity>  (1) 
-4.28740692

>  <minimizedRMSD>  (1) 
2.97558331

$$$$
