
     RDKit          3D

 23 23  0  0  0  0  0  0  0  0999 V2000
   37.5440   30.7670   41.0300 C   0  0  0  0  0  0  0  0  0  0  0  0
   36.7020   31.5050   40.1880 C   0  0  0  0  0  0  0  0  0  0  0  0
   37.2430   32.5950   39.5050 C   0  0  0  0  0  0  0  0  0  0  0  0
   38.5600   32.8870   39.6910 N   0  0  0  0  0  0  0  0  0  0  0  0
   39.3510   32.1550   40.5140 C   0  0  0  0  0  0  0  0  0  0  0  0
   38.8250   31.1070   41.1680 N   0  0  0  0  0  0  0  0  0  0  0  0
   41.0640   32.5860   40.7220 S   0  0  0  0  0  0  0  0  0  0  0  0
   36.9990   29.6330   41.7470 C   0  0  0  0  0  0  0  0  0  0  0  0
   36.0770   28.9450   41.2950 O   0  0  0  0  0  0  0  0  0  0  0  0
   37.5100   29.2810   42.9890 O   0  0  0  0  0  0  0  0  0  0  0  0
   37.2470   28.0300   43.5790 C   0  0  0  0  0  0  0  0  0  0  0  0
   38.5900   27.3240   43.6700 C   0  0  0  0  0  0  0  0  0  0  0  0
   36.6560   28.0870   44.9460 C   0  0  0  0  0  0  0  0  0  0  0  0
   35.6430   31.2326   40.0685 H   0  0  0  0  0  0  0  0  0  0  0  0
   36.6206   33.2037   38.8326 H   0  0  0  0  0  0  0  0  0  0  0  0
   41.3573   32.6598   42.0582 H   0  0  0  0  0  0  0  0  0  0  0  0
   36.4980   27.5161   42.9587 H   0  0  0  0  0  0  0  0  0  0  0  0
   38.8590   27.1826   44.7272 H   0  0  0  0  0  0  0  0  0  0  0  0
   38.5235   26.3443   43.1743 H   0  0  0  0  0  0  0  0  0  0  0  0
   39.3594   27.9342   43.1743 H   0  0  0  0  0  0  0  0  0  0  0  0
   37.4574   28.0097   45.6955 H   0  0  0  0  0  0  0  0  0  0  0  0
   36.1234   29.0407   45.0757 H   0  0  0  0  0  0  0  0  0  0  0  0
   35.9510   27.2527   45.0757 H   0  0  0  0  0  0  0  0  0  0  0  0
  1  6  2  0
  1  8  1  0
  2  1  1  0
  3  4  1  0
  3  2  2  0
  4  5  2  0
  5  7  1  0
  5  6  1  0
  8 10  1  0
  9  8  2  0
 10 11  1  0
 11 12  1  0
 11 13  1  0
  2 14  1  0
  3 15  1  0
  7 16  1  0
 11 17  1  0
 12 18  1  0
 12 19  1  0
 12 20  1  0
 13 21  1  0
 13 22  1  0
 13 23  1  0
M  ISO  8  14  14  15  14  16  11  17   8  18   8  19   8  20   8  21   8
M  ISO  2  22   8  23   8
M  END
>  <minimizedAffinity>  (1) 
-4.06003475

>  <minimizedRMSD>  (1) 
2.9482646

$$$$
