
     RDKit          3D

 40 42  0  0  1  0  0  0  0  0999 V2000
   37.4480   28.5510   41.4080 N   0  0  0  0  0  0  0  0  0  0  0  0
   37.5460   29.3930   42.6070 C   0  0  0  0  0  0  0  0  0  0  0  0
   39.0770   29.4770   42.8010 C   0  0  0  0  0  0  0  0  0  0  0  0
   39.4930   28.2060   43.2830 N   0  0  0  0  0  0  0  0  0  0  0  0
   38.9680   27.0870   42.5940 C   0  0  0  0  0  0  0  0  0  0  0  0
   38.2630   27.3860   41.2880 C   0  0  1  0  0  0  0  0  0  0  0  0
   36.5950   28.8760   40.3300 C   0  0  0  0  0  0  0  0  0  0  0  0
   35.2210   28.8510   40.3740 C   0  0  0  0  0  0  0  0  0  0  0  0
   34.4630   29.1470   39.2660 C   0  0  0  0  0  0  0  0  0  0  0  0
   35.1510   29.4660   38.1310 N   0  0  0  0  0  0  0  0  0  0  0  0
   36.4940   29.4950   38.0820 C   0  0  0  0  0  0  0  0  0  0  0  0
   37.2330   29.2030   39.1730 N   0  0  0  0  0  0  0  0  0  0  0  0
   37.6450   26.1260   40.7760 C   0  0  0  0  0  0  0  0  0  0  0  0
   38.7740   25.3050   40.1340 C   0  0  0  0  0  0  0  0  0  0  0  0
   38.9590   23.9550   40.7430 C   0  0  0  0  0  0  0  0  0  0  0  0
   37.6980   23.1190   40.7770 C   0  0  0  0  0  0  0  0  0  0  0  0
   36.5230   24.0150   41.1160 C   0  0  0  0  0  0  0  0  0  0  0  0
   37.1030   25.2230   41.8520 C   0  0  0  0  0  0  0  0  0  0  0  0
   37.1075   30.3873   42.4366 H   0  0  0  0  0  0  0  0  0  0  0  0
   37.0048   28.9964   43.4787 H   0  0  0  0  0  0  0  0  0  0  0  0
   39.5698   29.7001   41.8432 H   0  0  0  0  0  0  0  0  0  0  0  0
   39.3453   30.2773   43.5064 H   0  0  0  0  0  0  0  0  0  0  0  0
   40.5201   28.1639   43.2189 H   0  0  0  0  0  0  0  0  0  0  0  0
   39.8016   26.4026   42.3780 H   0  0  0  0  0  0  0  0  0  0  0  0
   38.1995   26.6628   43.2569 H   0  0  0  0  0  0  0  0  0  0  0  0
   38.9532   27.6843   40.4851 H   0  0  0  0  0  0  0  0  0  0  0  0
   34.7174   28.5885   41.3161 H   0  0  0  0  0  0  0  0  0  0  0  0
   33.3635   29.1279   39.2926 H   0  0  0  0  0  0  0  0  0  0  0  0
   36.9973   29.7602   37.1405 H   0  0  0  0  0  0  0  0  0  0  0  0
   36.8237   26.4287   40.1098 H   0  0  0  0  0  0  0  0  0  0  0  0
   39.7144   25.8655   40.2411 H   0  0  0  0  0  0  0  0  0  0  0  0
   38.4958   25.1461   39.0817 H   0  0  0  0  0  0  0  0  0  0  0  0
   39.7180   23.4131   40.1597 H   0  0  0  0  0  0  0  0  0  0  0  0
   39.2638   24.1153   41.7877 H   0  0  0  0  0  0  0  0  0  0  0  0
   37.5363   22.6547   39.7930 H   0  0  0  0  0  0  0  0  0  0  0  0
   37.7952   22.3291   41.5363 H   0  0  0  0  0  0  0  0  0  0  0  0
   36.0127   24.3381   40.1967 H   0  0  0  0  0  0  0  0  0  0  0  0
   35.7831   23.4869   41.7353 H   0  0  0  0  0  0  0  0  0  0  0  0
   37.9084   24.9087   42.5321 H   0  0  0  0  0  0  0  0  0  0  0  0
   36.3445   25.7297   42.4668 H   0  0  0  0  0  0  0  0  0  0  0  0
  1  2  1  0
  2  3  1  0
  3  4  1  0
  5  4  1  0
  6  1  1  0
  6  5  1  0
  7  8  2  0
  7  1  1  0
  9  8  1  0
 10  9  2  0
 11 10  1  0
 11 12  2  0
 12  7  1  0
 13  6  1  0
 13 18  1  0
 14 15  1  0
 14 13  1  0
 15 16  1  0
 16 17  1  0
 17 18  1  0
  2 19  1  0
  2 20  1  0
  3 21  1  0
  3 22  1  0
  4 23  1  0
  5 24  1  0
  5 25  1  0
  6 26  1  6
  8 27  1  0
  9 28  1  0
 11 29  1  0
 13 30  1  0
 14 31  1  0
 14 32  1  0
 15 33  1  0
 15 34  1  0
 16 35  1  0
 16 36  1  0
 17 37  1  0
 17 38  1  0
 18 39  1  0
 18 40  1  0
M  ISO  8  19  13  20  13  21  13  22  13  23   5  24  13  25  13  26  13
M  ISO  8  27  14  28  14  29  14  30  13  31  13  32  13  33  13  34  13
M  ISO  6  35  13  36  13  37  13  38  13  39  13  40  13
M  END
>  <minimizedAffinity>  (1) 
-4.63296461

>  <minimizedRMSD>  (1) 
3.97886419

$$$$
