
     RDKit          3D

 25 27  0  0  0  0  0  0  0  0999 V2000
   35.8010   28.7430   40.2250 C   0  0  0  0  0  0  0  0  0  0  0  0
   34.6210   29.1290   40.2870 O   0  0  0  0  0  0  0  0  0  0  0  0
   36.6810   28.7860   41.3840 C   0  0  0  0  0  0  0  0  0  0  0  0
   36.4420   27.9040   42.4350 C   0  0  0  0  0  0  0  0  0  0  0  0
   37.2790   27.9380   43.5470 C   0  0  0  0  0  0  0  0  0  0  0  0
   38.2990   28.8430   43.5450 N   0  0  0  0  0  0  0  0  0  0  0  0
   38.5070   29.6810   42.5180 C   0  0  0  0  0  0  0  0  0  0  0  0
   37.6990   29.6570   41.4310 N   0  0  0  0  0  0  0  0  0  0  0  0
   39.8610   30.8560   42.5560 S   0  0  0  0  0  0  0  0  0  0  0  0
   36.2570   28.2660   39.0090 O   0  0  0  0  0  0  0  0  0  0  0  0
   36.3200   23.7160   38.8870 N   0  0  0  0  0  0  0  0  0  0  0  0
   37.2530   24.1950   39.7350 C   0  0  0  0  0  0  0  0  0  0  0  0
   37.1860   25.5430   39.7270 N   0  0  0  0  0  0  0  0  0  0  0  0
   36.2160   25.9080   38.8790 C   0  0  0  0  0  0  0  0  0  0  0  0
   35.6830   27.1290   38.4540 C   0  0  0  0  0  0  0  0  0  0  0  0
   34.6690   27.1120   37.5530 N   0  0  0  0  0  0  0  0  0  0  0  0
   34.1630   25.9860   37.0590 C   0  0  0  0  0  0  0  0  0  0  0  0
   34.6610   24.7870   37.4550 N   0  0  0  0  0  0  0  0  0  0  0  0
   35.6740   24.7530   38.3540 C   0  0  0  0  0  0  0  0  0  0  0  0
   35.6051   27.1917   42.3873 H   0  0  0  0  0  0  0  0  0  0  0  0
   37.1229   27.2584   44.3977 H   0  0  0  0  0  0  0  0  0  0  0  0
   40.1852   31.1373   43.8570 H   0  0  0  0  0  0  0  0  0  0  0  0
   36.1383   22.7222   38.6863 H   0  0  0  0  0  0  0  0  0  0  0  0
   37.9506   23.5894   40.3322 H   0  0  0  0  0  0  0  0  0  0  0  0
   33.3408   26.0261   36.3294 H   0  0  0  0  0  0  0  0  0  0  0  0
  1  2  2  0
  1  3  1  0
  3  8  1  0
  3  4  2  0
  4  5  1  0
  6  5  2  0
  7  9  1  0
  7  6  1  0
  8  7  2  0
 10  1  1  0
 11 12  1  0
 13 12  2  0
 14 13  1  0
 15 14  2  0
 15 10  1  0
 16 15  1  0
 17 18  1  0
 17 16  2  0
 18 19  2  0
 19 14  1  0
 19 11  1  0
  4 20  1  0
  5 21  1  0
  9 22  1  0
 11 23  1  0
 12 24  1  0
 17 25  1  0
M  ISO  6  20  14  21  14  22  11  23   9  24  14  25  14
M  END
>  <minimizedAffinity>  (1) 
-3.95043278

>  <minimizedRMSD>  (1) 
6.79132795

$$$$
