
     RDKit          3D

 26 27  0  0  1  0  0  0  0  0999 V2000
   38.1960   30.2280   40.9940 C   0  0  0  0  0  0  0  0  0  0  0  0
   37.8440   29.4620   42.0910 C   0  0  0  0  0  0  0  0  0  0  0  0
   36.7240   28.6210   41.9800 C   0  0  0  0  0  0  0  0  0  0  0  0
   36.0460   28.6100   40.7950 N   0  0  0  0  0  0  0  0  0  0  0  0
   36.4240   29.3670   39.7620 C   0  0  0  0  0  0  0  0  0  0  0  0
   37.5000   30.1810   39.8530 N   0  0  0  0  0  0  0  0  0  0  0  0
   35.5010   29.3190   38.2220 S   0  0  0  0  0  0  0  0  0  0  0  0
   39.3580   31.1050   41.0960 C   0  0  0  0  0  0  0  0  0  0  0  0
   40.5210   30.6910   40.9100 O   0  0  0  0  0  0  0  0  0  0  0  0
   39.2060   32.4450   41.4070 O   0  0  0  0  0  0  0  0  0  0  0  0
   38.4400   34.5230   40.5010 N   0  0  0  0  0  0  0  0  0  0  0  0
   39.1510   35.7520   40.2140 C   0  0  0  0  0  0  0  0  0  0  0  0
   40.4900   35.3210   39.6430 C   0  0  0  0  0  0  0  0  0  0  0  0
   40.7640   34.0980   40.5330 C   0  0  0  0  0  0  0  0  0  0  0  0
   39.3860   33.4530   40.4580 C   0  0  1  0  0  0  0  0  0  0  0  0
   38.4247   29.5101   43.0240 H   0  0  0  0  0  0  0  0  0  0  0  0
   36.4031   27.9905   42.8223 H   0  0  0  0  0  0  0  0  0  0  0  0
   34.1603   29.2493   38.4951 H   0  0  0  0  0  0  0  0  0  0  0  0
   38.0123   34.5756   41.4365 H   0  0  0  0  0  0  0  0  0  0  0  0
   38.5961   36.3549   39.4802 H   0  0  0  0  0  0  0  0  0  0  0  0
   39.2716   36.3737   41.1134 H   0  0  0  0  0  0  0  0  0  0  0  0
   40.4137   35.0464   38.5806 H   0  0  0  0  0  0  0  0  0  0  0  0
   41.2737   36.0928   39.6539 H   0  0  0  0  0  0  0  0  0  0  0  0
   41.5487   33.4494   40.1164 H   0  0  0  0  0  0  0  0  0  0  0  0
   41.1354   34.3166   41.5451 H   0  0  0  0  0  0  0  0  0  0  0  0
   39.2456   32.8964   39.5196 H   0  0  0  0  0  0  0  0  0  0  0  0
  1  8  1  0
  1  2  2  0
  3  2  1  0
  4  3  2  0
  5  6  2  0
  5  4  1  0
  6  1  1  0
  7  5  1  0
  8 10  1  0
  9  8  2  0
 12 11  1  0
 13 12  1  0
 13 14  1  0
 15 11  1  0
 15 14  1  0
 15 10  1  0
  2 16  1  0
  3 17  1  0
  7 18  1  0
 11 19  1  0
 12 20  1  0
 12 21  1  0
 13 22  1  0
 13 23  1  0
 14 24  1  0
 14 25  1  0
 15 26  1  6
M  ISO  8  16  14  17  14  18  11  19   5  20  13  21  13  22  13  23  13
M  ISO  3  24  13  25  13  26  13
M  END
>  <minimizedAffinity>  (1) 
-3.86979222

>  <minimizedRMSD>  (1) 
6.37004662

$$$$
