
     RDKit          3D

 22 23  0  0  0  0  0  0  0  0999 V2000
   37.3980   29.4820   39.5760 C   0  0  0  0  0  0  0  0  0  0  0  0
   36.0380   29.3000   39.7500 C   0  0  0  0  0  0  0  0  0  0  0  0
   35.6120   28.7320   40.9620 C   0  0  0  0  0  0  0  0  0  0  0  0
   36.5610   28.3920   41.9010 N   0  0  0  0  0  0  0  0  0  0  0  0
   37.8650   28.5890   41.6820 C   0  0  0  0  0  0  0  0  0  0  0  0
   38.2850   29.1310   40.5220 N   0  0  0  0  0  0  0  0  0  0  0  0
   39.0410   28.1270   42.9320 S   0  0  0  0  0  0  0  0  0  0  0  0
   37.8850   30.0720   38.3220 C   0  0  0  0  0  0  0  0  0  0  0  0
   38.5370   29.3940   37.4940 O   0  0  0  0  0  0  0  0  0  0  0  0
   37.6350   31.3840   38.0280 O   0  0  0  0  0  0  0  0  0  0  0  0
   38.2450   32.3990   38.7940 C   0  0  0  0  0  0  0  0  0  0  0  0
   37.5880   33.3410   39.5890 C   0  0  0  0  0  0  0  0  0  0  0  0
   38.3690   34.2500   40.2580 C   0  0  0  0  0  0  0  0  0  0  0  0
   39.7090   34.2360   40.1540 N   0  0  0  0  0  0  0  0  0  0  0  0
   40.3270   33.3240   39.3840 C   0  0  0  0  0  0  0  0  0  0  0  0
   39.6090   32.4190   38.7140 N   0  0  0  0  0  0  0  0  0  0  0  0
   35.3182   29.5887   38.9699 H   0  0  0  0  0  0  0  0  0  0  0  0
   34.5429   28.5622   41.1573 H   0  0  0  0  0  0  0  0  0  0  0  0
   38.4976   28.3405   44.1714 H   0  0  0  0  0  0  0  0  0  0  0  0
   36.4915   33.3538   39.6752 H   0  0  0  0  0  0  0  0  0  0  0  0
   37.8872   35.0073   40.8939 H   0  0  0  0  0  0  0  0  0  0  0  0
   41.4242   33.3231   39.3057 H   0  0  0  0  0  0  0  0  0  0  0  0
  1  2  2  0
  1  6  1  0
  2  3  1  0
  3  4  2  0
  5  4  1  0
  5  7  1  0
  6  5  2  0
  8  1  1  0
  9  8  2  0
 10  8  1  0
 10 11  1  0
 11 12  2  0
 12 13  1  0
 14 13  2  0
 15 14  1  0
 16 11  1  0
 16 15  2  0
  2 17  1  0
  3 18  1  0
  7 19  1  0
 12 20  1  0
 13 21  1  0
 15 22  1  0
M  ISO  6  17  14  18  14  19  11  20  14  21  14  22  14
M  END
>  <minimizedAffinity>  (1) 
-3.82498193

>  <minimizedRMSD>  (1) 
6.63588619

$$$$
