
     RDKit          3D

 22 23  0  0  0  0  0  0  0  0999 V2000
   37.8170   29.4810   41.5580 C   0  0  0  0  0  0  0  0  0  0  0  0
   39.0250   28.8130   41.3750 C   0  0  0  0  0  0  0  0  0  0  0  0
   39.4580   27.9090   42.3360 C   0  0  0  0  0  0  0  0  0  0  0  0
   38.6660   27.7170   43.4290 N   0  0  0  0  0  0  0  0  0  0  0  0
   37.4980   28.3760   43.5830 C   0  0  0  0  0  0  0  0  0  0  0  0
   37.0790   29.2550   42.6480 N   0  0  0  0  0  0  0  0  0  0  0  0
   36.5000   28.0830   45.0380 S   0  0  0  0  0  0  0  0  0  0  0  0
   37.3770   30.4230   40.5470 C   0  0  0  0  0  0  0  0  0  0  0  0
   36.7600   31.4590   40.8270 O   0  0  0  0  0  0  0  0  0  0  0  0
   37.6410   30.1810   39.2070 O   0  0  0  0  0  0  0  0  0  0  0  0
   36.6140   29.7080   38.3960 C   0  0  0  0  0  0  0  0  0  0  0  0
   35.5510   29.1420   39.0780 C   0  0  0  0  0  0  0  0  0  0  0  0
   34.5030   28.6570   38.3170 C   0  0  0  0  0  0  0  0  0  0  0  0
   34.4930   28.7210   36.9540 N   0  0  0  0  0  0  0  0  0  0  0  0
   35.5630   29.2880   36.3320 C   0  0  0  0  0  0  0  0  0  0  0  0
   36.5800   29.7580   37.0690 N   0  0  0  0  0  0  0  0  0  0  0  0
   39.6314   28.9999   40.4764 H   0  0  0  0  0  0  0  0  0  0  0  0
   40.4077   27.3663   42.2194 H   0  0  0  0  0  0  0  0  0  0  0  0
   37.2534   28.3042   46.1607 H   0  0  0  0  0  0  0  0  0  0  0  0
   35.5402   29.0806   40.1762 H   0  0  0  0  0  0  0  0  0  0  0  0
   33.6435   28.2017   38.8308 H   0  0  0  0  0  0  0  0  0  0  0  0
   35.5931   29.3600   35.2348 H   0  0  0  0  0  0  0  0  0  0  0  0
  1  6  1  0
  2  1  2  0
  2  3  1  0
  3  4  2  0
  4  5  1  0
  5  7  1  0
  6  5  2  0
  8  9  2  0
  8  1  1  0
 10  8  1  0
 11 12  2  0
 11 10  1  0
 13 12  1  0
 14 13  2  0
 15 14  1  0
 15 16  2  0
 16 11  1  0
  2 17  1  0
  3 18  1  0
  7 19  1  0
 12 20  1  0
 13 21  1  0
 15 22  1  0
M  ISO  6  17  14  18  14  19  11  20  14  21  14  22  14
M  END
>  <minimizedAffinity>  (1) 
-3.54792285

>  <minimizedRMSD>  (1) 
6.93621445

$$$$
