
     RDKit          3D

 44 46  0  0  1  0  0  0  0  0999 V2000
   37.3640   29.3260   43.5460 N   0  0  0  0  0  0  0  0  0  0  0  0
   37.0770   28.1190   44.2520 C   0  0  0  0  0  0  0  0  0  0  0  0
   37.8480   26.9150   43.6850 C   0  0  0  0  0  0  0  0  0  0  0  0
   37.4160   26.8820   42.2140 C   0  0  1  0  0  0  0  0  0  0  0  0
   38.0570   28.0970   41.5700 C   0  0  0  0  0  0  0  0  0  0  0  0
   37.2520   29.2770   42.1180 C   0  0  2  0  0  0  0  0  0  0  0  0
   37.4200   30.4720   41.4400 N   0  0  0  0  0  0  0  0  0  0  0  0
   38.6610   31.1200   41.4710 C   0  0  0  0  0  0  0  0  0  0  0  0
   38.6510   32.3910   40.6730 C   0  0  0  0  0  0  0  0  0  0  0  0
   38.1630   32.0110   39.2700 C   0  0  0  0  0  0  0  0  0  0  0  0
   36.8000   31.3960   39.3310 C   0  0  0  0  0  0  0  0  0  0  0  0
   36.3640   31.0880   40.7630 C   0  0  0  0  0  0  0  0  0  0  0  0
   37.7720   25.7210   41.6360 O   0  0  0  0  0  0  0  0  0  0  0  0
   37.1030   24.9480   40.7150 C   0  0  0  0  0  0  0  0  0  0  0  0
   36.4130   24.0120   41.1150 O   0  0  0  0  0  0  0  0  0  0  0  0
   37.2310   25.2620   39.2810 C   0  0  0  0  0  0  0  0  0  0  0  0
   36.0710   25.5610   38.6220 C   0  0  0  0  0  0  0  0  0  0  0  0
   36.1760   25.9610   37.2710 C   0  0  0  0  0  0  0  0  0  0  0  0
   37.4340   26.0220   36.7130 N   0  0  0  0  0  0  0  0  0  0  0  0
   38.5300   25.7130   37.4300 C   0  0  0  0  0  0  0  0  0  0  0  0
   38.4440   25.3230   38.7460 N   0  0  0  0  0  0  0  0  0  0  0  0
   40.1270   25.8080   36.6460 S   0  0  0  0  0  0  0  0  0  0  0  0
   36.7136   30.0488   43.8857 H   0  0  0  0  0  0  0  0  0  0  0  0
   37.3551   28.2519   45.3079 H   0  0  0  0  0  0  0  0  0  0  0  0
   36.0021   27.9124   44.1432 H   0  0  0  0  0  0  0  0  0  0  0  0
   38.9341   27.0651   43.7737 H   0  0  0  0  0  0  0  0  0  0  0  0
   37.6344   25.9768   44.2180 H   0  0  0  0  0  0  0  0  0  0  0  0
   36.3234   26.9281   42.0956 H   0  0  0  0  0  0  0  0  0  0  0  0
   37.9780   28.0456   40.4740 H   0  0  0  0  0  0  0  0  0  0  0  0
   39.1308   28.1773   41.7948 H   0  0  0  0  0  0  0  0  0  0  0  0
   36.1896   29.0922   41.9008 H   0  0  0  0  0  0  0  0  0  0  0  0
   38.9114   31.3582   42.5153 H   0  0  0  0  0  0  0  0  0  0  0  0
   39.4079   30.4456   41.0269 H   0  0  0  0  0  0  0  0  0  0  0  0
   37.9678   33.1224   41.1293 H   0  0  0  0  0  0  0  0  0  0  0  0
   39.6496   32.8511   40.6393 H   0  0  0  0  0  0  0  0  0  0  0  0
   38.8650   31.2893   38.8270 H   0  0  0  0  0  0  0  0  0  0  0  0
   38.1122   32.9217   38.6552 H   0  0  0  0  0  0  0  0  0  0  0  0
   36.0770   32.0941   38.8839 H   0  0  0  0  0  0  0  0  0  0  0  0
   36.8358   30.4451   38.7792 H   0  0  0  0  0  0  0  0  0  0  0  0
   36.0939   32.0233   41.2750 H   0  0  0  0  0  0  0  0  0  0  0  0
   35.4918   30.4179   40.7488 H   0  0  0  0  0  0  0  0  0  0  0  0
   35.0945   25.4928   39.1238 H   0  0  0  0  0  0  0  0  0  0  0  0
   35.2816   26.2156   36.6834 H   0  0  0  0  0  0  0  0  0  0  0  0
   41.1037   25.8661   37.6049 H   0  0  0  0  0  0  0  0  0  0  0  0
  1  2  1  0
  3  2  1  0
  4  3  1  0
  5  6  1  0
  5  4  1  0
  6  1  1  0
  7  8  1  0
  7  6  1  0
  9  8  1  0
 10 11  1  0
 10  9  1  0
 11 12  1  0
 12  7  1  0
 13  4  1  0
 14 15  2  0
 14 13  1  0
 16 14  1  0
 17 16  2  0
 18 17  1  0
 19 18  2  0
 19 20  1  0
 20 21  2  0
 21 16  1  0
 22 20  1  0
  1 23  1  0
  2 24  1  0
  2 25  1  0
  3 26  1  0
  3 27  1  0
  4 28  1  1
  5 29  1  0
  5 30  1  0
  6 31  1  1
  8 32  1  0
  8 33  1  0
  9 34  1  0
  9 35  1  0
 10 36  1  0
 10 37  1  0
 11 38  1  0
 11 39  1  0
 12 40  1  0
 12 41  1  0
 17 42  1  0
 18 43  1  0
 22 44  1  0
M  ISO  8  23   5  24  13  25  13  26  13  27  13  28  13  29  13  30  13
M  ISO  8  31  13  32  13  33  13  34  13  35  13  36  13  37  13  38  13
M  ISO  6  39  13  40  13  41  13  42  14  43  14  44  11
M  END
>  <minimizedAffinity>  (1) 
-4.86124945

>  <minimizedRMSD>  (1) 
3.44918609

$$$$
