
     RDKit          3D

 35 37  0  0  1  0  0  0  0  0999 V2000
   37.3220   29.3540   43.2720 N   0  0  0  0  0  0  0  0  0  0  0  0
   37.2180   28.1280   43.9950 C   0  0  0  0  0  0  0  0  0  0  0  0
   37.9590   26.9700   43.3080 C   0  0  0  0  0  0  0  0  0  0  0  0
   37.3260   26.9270   41.9120 C   0  0  1  0  0  0  0  0  0  0  0  0
   37.8150   28.1710   41.2010 C   0  0  0  0  0  0  0  0  0  0  0  0
   37.0540   29.3160   41.8650 C   0  0  2  0  0  0  0  0  0  0  0  0
   37.3960   30.5820   41.2930 N   0  0  0  0  0  0  0  0  0  0  0  0
   38.6450   31.0830   41.3840 C   0  0  0  0  0  0  0  0  0  0  0  0
   38.6910   32.2870   40.7610 N   0  0  0  0  0  0  0  0  0  0  0  0
   37.4670   32.5250   40.2850 C   0  0  0  0  0  0  0  0  0  0  0  0
   36.6920   31.4760   40.6180 N   0  0  0  0  0  0  0  0  0  0  0  0
   37.6540   25.7870   41.2740 O   0  0  0  0  0  0  0  0  0  0  0  0
   36.8560   24.8760   40.6220 C   0  0  0  0  0  0  0  0  0  0  0  0
   36.3700   23.9460   41.2630 O   0  0  0  0  0  0  0  0  0  0  0  0
   36.6070   25.0410   39.1810 C   0  0  0  0  0  0  0  0  0  0  0  0
   35.5380   24.3540   38.6750 C   0  0  0  0  0  0  0  0  0  0  0  0
   35.2100   24.5680   37.3150 C   0  0  0  0  0  0  0  0  0  0  0  0
   35.9890   25.4500   36.5990 N   0  0  0  0  0  0  0  0  0  0  0  0
   37.0240   26.0890   37.1730 C   0  0  0  0  0  0  0  0  0  0  0  0
   37.3550   25.8920   38.4920 N   0  0  0  0  0  0  0  0  0  0  0  0
   38.0040   27.2110   36.1910 S   0  0  0  0  0  0  0  0  0  0  0  0
   36.6586   30.0189   43.6948 H   0  0  0  0  0  0  0  0  0  0  0  0
   37.6454   28.2736   44.9981 H   0  0  0  0  0  0  0  0  0  0  0  0
   36.1524   27.8593   44.0422 H   0  0  0  0  0  0  0  0  0  0  0  0
   39.0381   27.1742   43.2455 H   0  0  0  0  0  0  0  0  0  0  0  0
   37.8691   26.0179   43.8516 H   0  0  0  0  0  0  0  0  0  0  0  0
   36.2266   26.9232   41.9489 H   0  0  0  0  0  0  0  0  0  0  0  0
   37.5829   28.1214   40.1269 H   0  0  0  0  0  0  0  0  0  0  0  0
   38.9054   28.2944   41.2770 H   0  0  0  0  0  0  0  0  0  0  0  0
   35.9835   29.1291   41.6945 H   0  0  0  0  0  0  0  0  0  0  0  0
   39.4928   30.5924   41.8846 H   0  0  0  0  0  0  0  0  0  0  0  0
   37.1495   33.4158   39.7231 H   0  0  0  0  0  0  0  0  0  0  0  0
   34.9557   23.6619   39.3010 H   0  0  0  0  0  0  0  0  0  0  0  0
   34.3620   24.0478   36.8458 H   0  0  0  0  0  0  0  0  0  0  0  0
   38.7225   28.0336   37.0181 H   0  0  0  0  0  0  0  0  0  0  0  0
  1  2  1  0
  3  2  1  0
  4  3  1  0
  5  6  1  0
  5  4  1  0
  6  1  1  0
  7  8  1  0
  7  6  1  0
  9  8  2  0
 10 11  2  0
 10  9  1  0
 11  7  1  0
 12  4  1  0
 13 14  2  0
 13 12  1  0
 15 13  1  0
 16 15  2  0
 17 16  1  0
 18 19  1  0
 18 17  2  0
 19 20  2  0
 20 15  1  0
 21 19  1  0
  1 22  1  0
  2 23  1  0
  2 24  1  0
  3 25  1  0
  3 26  1  0
  4 27  1  1
  5 28  1  0
  5 29  1  0
  6 30  1  1
  8 31  1  0
 10 32  1  0
 16 33  1  0
 17 34  1  0
 21 35  1  0
M  ISO  8  22   5  23  13  24  13  25  13  26  13  27  13  28  13  29  13
M  ISO  6  30  13  31  14  32  14  33  14  34  14  35  11
M  END
>  <minimizedAffinity>  (1) 
-4.70765257

>  <minimizedRMSD>  (1) 
3.28809309

$$$$
