
     RDKit          3D

 31 32  0  0  1  0  0  0  0  0999 V2000
   36.0980   28.3700   41.9940 N   0  0  0  0  0  0  0  0  0  0  0  0
   35.5030   28.8960   40.8100 C   0  0  0  0  0  0  0  0  0  0  0  0
   36.5300   29.1930   39.7060 C   0  0  0  0  0  0  0  0  0  0  0  0
   37.5210   30.1420   40.3910 C   0  0  1  0  0  0  0  0  0  0  0  0
   38.2710   29.2970   41.4010 C   0  0  0  0  0  0  0  0  0  0  0  0
   37.2550   29.0300   42.5070 C   0  0  2  0  0  0  0  0  0  0  0  0
   37.8210   28.2790   43.6220 C   0  0  0  0  0  0  0  0  0  0  0  0
   38.8260   27.6020   43.4750 O   0  0  0  0  0  0  0  0  0  0  0  0
   38.3260   30.7300   39.4850 O   0  0  0  0  0  0  0  0  0  0  0  0
   38.2340   31.9640   38.8860 C   0  0  0  0  0  0  0  0  0  0  0  0
   37.4940   32.1000   37.9140 O   0  0  0  0  0  0  0  0  0  0  0  0
   39.0220   33.0860   39.4250 C   0  0  0  0  0  0  0  0  0  0  0  0
   38.3140   34.0720   40.0500 C   0  0  0  0  0  0  0  0  0  0  0  0
   39.0480   35.1150   40.6610 C   0  0  0  0  0  0  0  0  0  0  0  0
   40.4230   35.0630   40.5850 N   0  0  0  0  0  0  0  0  0  0  0  0
   41.0470   34.0530   39.9530 C   0  0  0  0  0  0  0  0  0  0  0  0
   40.3470   33.0320   39.3530 N   0  0  0  0  0  0  0  0  0  0  0  0
   42.8270   34.0580   39.8900 S   0  0  0  0  0  0  0  0  0  0  0  0
   36.3628   27.3942   41.7974 H   0  0  0  0  0  0  0  0  0  0  0  0
   34.7774   28.1636   40.4266 H   0  0  0  0  0  0  0  0  0  0  0  0
   35.0211   29.8480   41.0775 H   0  0  0  0  0  0  0  0  0  0  0  0
   36.0513   29.6791   38.8431 H   0  0  0  0  0  0  0  0  0  0  0  0
   37.0082   28.2858   39.3080 H   0  0  0  0  0  0  0  0  0  0  0  0
   37.0178   30.9763   40.9015 H   0  0  0  0  0  0  0  0  0  0  0  0
   38.6066   28.3536   40.9456 H   0  0  0  0  0  0  0  0  0  0  0  0
   39.1750   29.7988   41.7764 H   0  0  0  0  0  0  0  0  0  0  0  0
   36.9565   30.0134   42.8993 H   0  0  0  0  0  0  0  0  0  0  0  0
   37.3358   28.3233   44.6082 H   0  0  0  0  0  0  0  0  0  0  0  0
   37.2145   34.0557   40.0773 H   0  0  0  0  0  0  0  0  0  0  0  0
   38.5383   35.9404   41.1797 H   0  0  0  0  0  0  0  0  0  0  0  0
   43.3291   34.0594   41.1647 H   0  0  0  0  0  0  0  0  0  0  0  0
  1  6  1  0
  2  1  1  0
  3  4  1  0
  3  2  1  0
  4  5  1  0
  5  6  1  0
  6  7  1  0
  8  7  2  0
  9  4  1  0
 10 12  1  0
 10  9  1  0
 11 10  2  0
 12 13  2  0
 13 14  1  0
 15 14  2  0
 16 15  1  0
 17 12  1  0
 17 16  2  0
 18 16  1  0
  1 19  1  0
  2 20  1  0
  2 21  1  0
  3 22  1  0
  3 23  1  0
  4 24  1  1
  5 25  1  0
  5 26  1  0
  6 27  1  1
  7 28  1  0
 13 29  1  0
 14 30  1  0
 18 31  1  0
M  ISO  8  19   5  20  13  21  13  22  13  23  13  24  13  25  13  26  13
M  ISO  5  27  13  28   6  29  14  30  14  31  11
M  END
>  <minimizedAffinity>  (1) 
-4.59515429

>  <minimizedRMSD>  (1) 
5.08464956

$$$$
