
     RDKit          3D

 42 44  0  0  1  0  0  0  0  0999 V2000
   37.4210   28.8670   43.9850 N   0  0  0  0  0  0  0  0  0  0  0  0
   36.4050   27.8650   44.0110 C   0  0  0  0  0  0  0  0  0  0  0  0
   36.7580   26.6470   43.1420 C   0  0  0  0  0  0  0  0  0  0  0  0
   36.9880   27.2600   41.7550 C   0  0  1  0  0  0  0  0  0  0  0  0
   38.2750   28.0540   41.8610 C   0  0  0  0  0  0  0  0  0  0  0  0
   37.9030   29.2740   42.6980 C   0  0  2  0  0  0  0  0  0  0  0  0
   38.9970   30.2610   42.8030 C   0  0  0  0  0  0  0  0  0  0  0  0
   40.3750   29.5930   42.7000 C   0  0  0  0  0  0  0  0  0  0  0  0
   41.2660   30.7050   42.2460 C   0  0  0  0  0  0  0  0  0  0  0  0
   40.4120   31.5190   41.2680 C   0  0  0  0  0  0  0  0  0  0  0  0
   38.9970   31.1500   41.5820 C   0  0  0  0  0  0  0  0  0  0  0  0
   37.0250   26.3040   40.8090 O   0  0  0  0  0  0  0  0  0  0  0  0
   36.5530   26.3160   39.5180 C   0  0  0  0  0  0  0  0  0  0  0  0
   36.1780   25.2600   39.0070 O   0  0  0  0  0  0  0  0  0  0  0  0
   36.5050   27.5910   38.7800 C   0  0  0  0  0  0  0  0  0  0  0  0
   35.2640   28.0170   38.3980 C   0  0  0  0  0  0  0  0  0  0  0  0
   35.1730   29.2830   37.7740 C   0  0  0  0  0  0  0  0  0  0  0  0
   36.3390   29.9960   37.5960 N   0  0  0  0  0  0  0  0  0  0  0  0
   37.5230   29.5070   38.0030 C   0  0  0  0  0  0  0  0  0  0  0  0
   37.6270   28.2780   38.6120 N   0  0  0  0  0  0  0  0  0  0  0  0
   38.9990   30.4710   37.7340 S   0  0  0  0  0  0  0  0  0  0  0  0
   37.0444   29.7031   44.4541 H   0  0  0  0  0  0  0  0  0  0  0  0
   36.2668   27.5295   45.0494 H   0  0  0  0  0  0  0  0  0  0  0  0
   35.4851   28.3107   43.6045 H   0  0  0  0  0  0  0  0  0  0  0  0
   37.6683   26.1508   43.5097 H   0  0  0  0  0  0  0  0  0  0  0  0
   35.9765   25.8728   43.1470 H   0  0  0  0  0  0  0  0  0  0  0  0
   36.1660   27.9235   41.4483 H   0  0  0  0  0  0  0  0  0  0  0  0
   39.0565   27.4630   42.3610 H   0  0  0  0  0  0  0  0  0  0  0  0
   38.6787   28.3299   40.8757 H   0  0  0  0  0  0  0  0  0  0  0  0
   37.0902   29.7950   42.1709 H   0  0  0  0  0  0  0  0  0  0  0  0
   38.8382   30.7810   43.7592 H   0  0  0  0  0  0  0  0  0  0  0  0
   40.6978   29.2038   43.6769 H   0  0  0  0  0  0  0  0  0  0  0  0
   40.3840   28.7298   42.0182 H   0  0  0  0  0  0  0  0  0  0  0  0
   41.5755   31.3262   43.0994 H   0  0  0  0  0  0  0  0  0  0  0  0
   42.1892   30.3319   41.7787 H   0  0  0  0  0  0  0  0  0  0  0  0
   40.6580   31.2549   40.2289 H   0  0  0  0  0  0  0  0  0  0  0  0
   40.5874   32.6001   41.3705 H   0  0  0  0  0  0  0  0  0  0  0  0
   38.4119   32.0593   41.7842 H   0  0  0  0  0  0  0  0  0  0  0  0
   38.5456   30.6217   40.7293 H   0  0  0  0  0  0  0  0  0  0  0  0
   34.3702   27.3991   38.5692 H   0  0  0  0  0  0  0  0  0  0  0  0
   34.2044   29.6850   37.4420 H   0  0  0  0  0  0  0  0  0  0  0  0
   39.5401   30.8244   38.9420 H   0  0  0  0  0  0  0  0  0  0  0  0
  1  2  1  0
  3  2  1  0
  4  5  1  0
  4  3  1  0
  5  6  1  0
  6  7  1  0
  6  1  1  0
  8  7  1  0
  9  8  1  0
 10 11  1  0
 10  9  1  0
 11  7  1  0
 12  4  1  0
 13 12  1  0
 14 13  2  0
 15 13  1  0
 16 15  2  0
 17 16  1  0
 18 17  2  0
 18 19  1  0
 19 20  2  0
 20 15  1  0
 21 19  1  0
  1 22  1  0
  2 23  1  0
  2 24  1  0
  3 25  1  0
  3 26  1  0
  4 27  1  6
  5 28  1  0
  5 29  1  0
  6 30  1  6
  7 31  1  0
  8 32  1  0
  8 33  1  0
  9 34  1  0
  9 35  1  0
 10 36  1  0
 10 37  1  0
 11 38  1  0
 11 39  1  0
 16 40  1  0
 17 41  1  0
 21 42  1  0
M  ISO  8  22   5  23  13  24  13  25  13  26  13  27  13  28  13  29  13
M  ISO  8  30  13  31  13  32  13  33  13  34  13  35  13  36  13  37  13
M  ISO  5  38  13  39  13  40  14  41  14  42  11
M  END
>  <minimizedAffinity>  (1) 
-4.59132528

>  <minimizedRMSD>  (1) 
1.33510184

$$$$
