
     RDKit          3D

 30 31  0  0  1  0  0  0  0  0999 V2000
   37.1810   28.6940   43.8830 N   0  0  0  0  0  0  0  0  0  0  0  0
   36.4140   27.5270   43.6000 C   0  0  0  0  0  0  0  0  0  0  0  0
   37.1760   26.5060   42.7420 C   0  0  0  0  0  0  0  0  0  0  0  0
   37.5710   27.3140   41.5010 C   0  0  1  0  0  0  0  0  0  0  0  0
   38.6260   28.2980   41.9630 C   0  0  0  0  0  0  0  0  0  0  0  0
   37.8610   29.3220   42.7930 C   0  0  2  0  0  0  0  0  0  0  0  0
   38.7270   30.2730   43.2520 O   0  0  0  0  0  0  0  0  0  0  0  0
   37.9930   26.4930   40.5210 O   0  0  0  0  0  0  0  0  0  0  0  0
   37.5810   26.3940   39.2120 C   0  0  0  0  0  0  0  0  0  0  0  0
   37.8030   25.3540   38.5940 O   0  0  0  0  0  0  0  0  0  0  0  0
   36.8840   27.5340   38.5900 C   0  0  0  0  0  0  0  0  0  0  0  0
   35.5350   27.3970   38.4210 C   0  0  0  0  0  0  0  0  0  0  0  0
   34.8240   28.5120   37.9160 C   0  0  0  0  0  0  0  0  0  0  0  0
   35.5440   29.6550   37.6310 N   0  0  0  0  0  0  0  0  0  0  0  0
   36.8750   29.7090   37.8270 C   0  0  0  0  0  0  0  0  0  0  0  0
   37.5760   28.6330   38.3170 N   0  0  0  0  0  0  0  0  0  0  0  0
   37.7470   31.2120   37.4280 S   0  0  0  0  0  0  0  0  0  0  0  0
   36.5415   29.3915   44.2897 H   0  0  0  0  0  0  0  0  0  0  0  0
   36.1373   27.0493   44.5514 H   0  0  0  0  0  0  0  0  0  0  0  0
   35.5287   27.8436   43.0290 H   0  0  0  0  0  0  0  0  0  0  0  0
   38.0664   26.1340   43.2699 H   0  0  0  0  0  0  0  0  0  0  0  0
   36.5790   25.6136   42.5028 H   0  0  0  0  0  0  0  0  0  0  0  0
   36.7234   27.8633   41.0652 H   0  0  0  0  0  0  0  0  0  0  0  0
   39.3868   27.7922   42.5756 H   0  0  0  0  0  0  0  0  0  0  0  0
   39.1617   28.7605   41.1209 H   0  0  0  0  0  0  0  0  0  0  0  0
   37.1014   29.7989   42.1562 H   0  0  0  0  0  0  0  0  0  0  0  0
   38.7250   30.2708   44.2420 H   0  0  0  0  0  0  0  0  0  0  0  0
   35.0212   26.4562   38.6679 H   0  0  0  0  0  0  0  0  0  0  0  0
   33.7365   28.4693   37.7563 H   0  0  0  0  0  0  0  0  0  0  0  0
   38.1154   31.8470   38.5847 H   0  0  0  0  0  0  0  0  0  0  0  0
  2  1  1  0
  3  2  1  0
  4  5  1  0
  4  3  1  0
  5  6  1  0
  6  7  1  0
  6  1  1  0
  8  4  1  0
  9  8  1  0
 10  9  2  0
 11  9  1  0
 12 11  2  0
 13 12  1  0
 14 15  1  0
 14 13  2  0
 15 16  2  0
 16 11  1  0
 17 15  1  0
  1 18  1  0
  2 19  1  0
  2 20  1  0
  3 21  1  0
  3 22  1  0
  4 23  1  6
  5 24  1  0
  5 25  1  0
  6 26  1  6
  7 27  1  0
 12 28  1  0
 13 29  1  0
 17 30  1  0
M  ISO  8  18   5  19  13  20  13  21  13  22  13  23  13  24  13  25  13
M  ISO  5  26  13  27   3  28  14  29  14  30  11
M  END
>  <minimizedAffinity>  (1) 
-4.09015989

>  <minimizedRMSD>  (1) 
0.501682043

$$$$
