
     RDKit          3D

 31 32  0  0  1  0  0  0  0  0999 V2000
   37.2400   28.6950   43.8390 N   0  0  0  0  0  0  0  0  0  0  0  0
   36.4080   27.5660   43.5890 C   0  0  0  0  0  0  0  0  0  0  0  0
   37.1110   26.4910   42.7450 C   0  0  0  0  0  0  0  0  0  0  0  0
   37.5190   27.2550   41.4800 C   0  0  1  0  0  0  0  0  0  0  0  0
   38.6230   28.2030   41.9030 C   0  0  0  0  0  0  0  0  0  0  0  0
   37.9090   29.2770   42.7150 C   0  0  2  0  0  0  0  0  0  0  0  0
   38.7590   30.3410   43.0970 N   0  0  0  0  0  0  0  0  0  0  0  0
   37.8980   26.4000   40.5130 O   0  0  0  0  0  0  0  0  0  0  0  0
   37.5420   26.3470   39.1840 C   0  0  0  0  0  0  0  0  0  0  0  0
   37.7970   25.3320   38.5410 O   0  0  0  0  0  0  0  0  0  0  0  0
   36.8680   27.5070   38.5750 C   0  0  0  0  0  0  0  0  0  0  0  0
   35.5180   27.3890   38.3950 C   0  0  0  0  0  0  0  0  0  0  0  0
   34.8250   28.5190   37.9030 C   0  0  0  0  0  0  0  0  0  0  0  0
   35.5570   29.6580   37.6390 N   0  0  0  0  0  0  0  0  0  0  0  0
   36.8850   29.6930   37.8460 C   0  0  0  0  0  0  0  0  0  0  0  0
   37.5720   28.6020   38.3240 N   0  0  0  0  0  0  0  0  0  0  0  0
   37.7630   31.1960   37.4760 S   0  0  0  0  0  0  0  0  0  0  0  0
   36.6508   29.4265   44.2616 H   0  0  0  0  0  0  0  0  0  0  0  0
   36.1162   27.1228   44.5525 H   0  0  0  0  0  0  0  0  0  0  0  0
   35.5324   27.9155   43.0223 H   0  0  0  0  0  0  0  0  0  0  0  0
   37.9931   26.0927   43.2677 H   0  0  0  0  0  0  0  0  0  0  0  0
   36.4737   25.6188   42.5371 H   0  0  0  0  0  0  0  0  0  0  0  0
   36.6839   27.8255   41.0474 H   0  0  0  0  0  0  0  0  0  0  0  0
   39.3696   27.6809   42.5194 H   0  0  0  0  0  0  0  0  0  0  0  0
   39.1696   28.6202   41.0444 H   0  0  0  0  0  0  0  0  0  0  0  0
   37.1514   29.7287   42.0578 H   0  0  0  0  0  0  0  0  0  0  0  0
   38.8016   30.3944   44.1247 H   0  0  0  0  0  0  0  0  0  0  0  0
   39.7042   30.1768   42.7222 H   0  0  0  0  0  0  0  0  0  0  0  0
   34.9911   26.4510   38.6241 H   0  0  0  0  0  0  0  0  0  0  0  0
   33.7381   28.4908   37.7363 H   0  0  0  0  0  0  0  0  0  0  0  0
   38.1238   31.8136   38.6445 H   0  0  0  0  0  0  0  0  0  0  0  0
  2  1  1  0
  3  2  1  0
  4  5  1  0
  4  3  1  0
  5  6  1  0
  6  7  1  0
  6  1  1  0
  8  4  1  0
  9  8  1  0
 10  9  2  0
 11  9  1  0
 12 11  2  0
 13 12  1  0
 14 15  1  0
 14 13  2  0
 15 16  2  0
 16 11  1  0
 17 15  1  0
  1 18  1  0
  2 19  1  0
  2 20  1  0
  3 21  1  0
  3 22  1  0
  4 23  1  6
  5 24  1  0
  5 25  1  0
  6 26  1  6
  7 27  1  0
  7 28  1  0
 12 29  1  0
 13 30  1  0
 17 31  1  0
M  ISO  8  18   5  19  13  20  13  21  13  22  13  23  13  24  13  25  13
M  ISO  6  26  13  27   5  28   5  29  14  30  14  31  11
M  END
>  <minimizedAffinity>  (1) 
-3.98787355

>  <minimizedRMSD>  (1) 
0.549736738

$$$$
