
     RDKit          3D

 33 34  0  0  1  0  0  0  0  0999 V2000
   37.8830   28.5170   40.9880 N   0  0  0  0  0  0  0  0  0  0  0  0
   38.2540   27.6100   39.8980 C   0  0  0  0  0  0  0  0  0  0  0  0
   36.9700   26.7850   39.6980 C   0  0  0  0  0  0  0  0  0  0  0  0
   36.8710   25.9160   40.8170 N   0  0  0  0  0  0  0  0  0  0  0  0
   37.1490   26.4830   42.0720 C   0  0  0  0  0  0  0  0  0  0  0  0
   37.2770   27.9790   42.1440 C   0  0  1  0  0  0  0  0  0  0  0  0
   38.0850   29.9180   40.9160 C   0  0  0  0  0  0  0  0  0  0  0  0
   39.2430   30.5610   41.2820 C   0  0  0  0  0  0  0  0  0  0  0  0
   39.3660   31.9210   41.2150 C   0  0  0  0  0  0  0  0  0  0  0  0
   38.2740   32.6190   40.7620 N   0  0  0  0  0  0  0  0  0  0  0  0
   37.1440   31.9910   40.4030 C   0  0  0  0  0  0  0  0  0  0  0  0
   37.0270   30.6500   40.4700 N   0  0  0  0  0  0  0  0  0  0  0  0
   37.8660   28.2160   43.4940 C   0  0  0  0  0  0  0  0  0  0  0  0
   38.9390   27.2250   43.8930 C   0  0  0  0  0  0  0  0  0  0  0  0
   36.7750   28.0070   44.5510 C   0  0  0  0  0  0  0  0  0  0  0  0
   38.5131   28.1690   38.9867 H   0  0  0  0  0  0  0  0  0  0  0  0
   39.1390   26.9959   40.1211 H   0  0  0  0  0  0  0  0  0  0  0  0
   36.0944   27.4493   39.6541 H   0  0  0  0  0  0  0  0  0  0  0  0
   37.0039   26.2183   38.7558 H   0  0  0  0  0  0  0  0  0  0  0  0
   35.9092   25.5485   40.8448 H   0  0  0  0  0  0  0  0  0  0  0  0
   36.3376   26.1884   42.7538 H   0  0  0  0  0  0  0  0  0  0  0  0
   38.1468   26.1030   42.3367 H   0  0  0  0  0  0  0  0  0  0  0  0
   36.3414   28.5554   42.0957 H   0  0  0  0  0  0  0  0  0  0  0  0
   40.0954   29.9644   41.6391 H   0  0  0  0  0  0  0  0  0  0  0  0
   40.2949   32.4312   41.5098 H   0  0  0  0  0  0  0  0  0  0  0  0
   36.2910   32.5860   40.0447 H   0  0  0  0  0  0  0  0  0  0  0  0
   38.2904   29.2295   43.4428 H   0  0  0  0  0  0  0  0  0  0  0  0
   38.9981   27.1704   44.9901 H   0  0  0  0  0  0  0  0  0  0  0  0
   38.6899   26.2325   43.4894 H   0  0  0  0  0  0  0  0  0  0  0  0
   39.9086   27.5521   43.4894 H   0  0  0  0  0  0  0  0  0  0  0  0
   37.2163   28.0915   45.5551 H   0  0  0  0  0  0  0  0  0  0  0  0
   35.9941   28.7719   44.4281 H   0  0  0  0  0  0  0  0  0  0  0  0
   36.3320   27.0077   44.4281 H   0  0  0  0  0  0  0  0  0  0  0  0
  1  6  1  0
  2  1  1  0
  3  2  1  0
  3  4  1  0
  4  5  1  0
  5  6  1  0
  6 13  1  0
  7  1  1  0
  7  8  2  0
  9  8  1  0
 10  9  2  0
 11 12  2  0
 11 10  1  0
 12  7  1  0
 13 14  1  0
 13 15  1  0
  2 16  1  0
  2 17  1  0
  3 18  1  0
  3 19  1  0
  4 20  1  0
  5 21  1  0
  5 22  1  0
  6 23  1  1
  8 24  1  0
  9 25  1  0
 11 26  1  0
 13 27  1  0
 14 28  1  0
 14 29  1  0
 14 30  1  0
 15 31  1  0
 15 32  1  0
 15 33  1  0
M  ISO  8  16  13  17  13  18  13  19  13  20   5  21  13  22  13  23  13
M  ISO  8  24  14  25  14  26  14  27   8  28   8  29   8  30   8  31   8
M  ISO  2  32   8  33   8
M  END
>  <minimizedAffinity>  (1) 
-4.27689886

>  <minimizedRMSD>  (1) 
4.47723436

$$$$
