
     RDKit          3D

 32 33  0  0  0  0  0  0  0  0999 V2000
   37.2320   30.6490   40.9830 C   0  0  0  0  0  0  0  0  0  0  0  0
   37.6350   29.7780   42.0010 C   0  0  0  0  0  0  0  0  0  0  0  0
   36.8880   28.5930   42.2380 C   0  0  0  0  0  0  0  0  0  0  0  0
   35.8060   28.3960   41.4280 N   0  0  0  0  0  0  0  0  0  0  0  0
   35.4470   29.2520   40.4610 C   0  0  0  0  0  0  0  0  0  0  0  0
   36.1570   30.3830   40.2320 N   0  0  0  0  0  0  0  0  0  0  0  0
   39.4860   34.1940   40.1930 C   0  0  0  0  0  0  0  0  0  0  0  0
   40.0780   33.0710   40.7610 C   0  0  0  0  0  0  0  0  0  0  0  0
   39.3020   31.9330   41.0020 C   0  0  0  0  0  0  0  0  0  0  0  0
   37.9590   31.8790   40.6960 C   0  0  0  0  0  0  0  0  0  0  0  0
   37.4250   33.0190   40.1360 C   0  0  0  0  0  0  0  0  0  0  0  0
   38.1540   34.1410   39.8880 C   0  0  0  0  0  0  0  0  0  0  0  0
   40.4400   35.6130   39.8880 S   0  0  0  0  0  0  0  0  0  0  0  0
   39.6220   36.8710   39.9520 O   0  0  0  0  0  0  0  0  0  0  0  0
   41.5150   35.7290   40.9350 O   0  0  0  0  0  0  0  0  0  0  0  0
   37.2840   27.6460   43.3000 C   0  0  0  0  0  0  0  0  0  0  0  0
   36.7320   28.0320   44.6470 C   0  0  0  0  0  0  0  0  0  0  0  0
   38.8300   27.6550   43.3350 C   0  0  0  0  0  0  0  0  0  0  0  0
   38.5207   30.0082   42.6113 H   0  0  0  0  0  0  0  0  0  0  0  0
   34.5629   29.0330   39.8442 H   0  0  0  0  0  0  0  0  0  0  0  0
   41.1474   33.0779   41.0184 H   0  0  0  0  0  0  0  0  0  0  0  0
   39.7799   31.0501   41.4515 H   0  0  0  0  0  0  0  0  0  0  0  0
   36.3561   33.0224   39.8764 H   0  0  0  0  0  0  0  0  0  0  0  0
   37.6654   35.0169   39.4362 H   0  0  0  0  0  0  0  0  0  0  0  0
   40.9631   35.4784   38.6290 H   0  0  0  0  0  0  0  0  0  0  0  0
   36.8801   26.6466   43.0809 H   0  0  0  0  0  0  0  0  0  0  0  0
   37.3578   27.5944   45.4388 H   0  0  0  0  0  0  0  0  0  0  0  0
   36.7322   29.1278   44.7430 H   0  0  0  0  0  0  0  0  0  0  0  0
   35.7028   27.6557   44.7430 H   0  0  0  0  0  0  0  0  0  0  0  0
   39.1731   27.6570   44.3801 H   0  0  0  0  0  0  0  0  0  0  0  0
   39.2135   26.7591   42.8249 H   0  0  0  0  0  0  0  0  0  0  0  0
   39.2031   28.5553   42.8249 H   0  0  0  0  0  0  0  0  0  0  0  0
  1  2  2  0
  2  3  1  0
  3 16  1  0
  4  3  2  0
  5  4  1  0
  6  5  2  0
  6  1  1  0
  7  8  2  0
  8  9  1  0
 10  1  1  0
 10  9  2  0
 11 10  1  0
 12 11  2  0
 12  7  1  0
 13 14  2  0
 13  7  1  0
 13 15  2  0
 16 18  1  0
 16 17  1  0
  2 19  1  0
  5 20  1  0
  8 21  1  0
  9 22  1  0
 11 23  1  0
 12 24  1  0
 13 25  1  0
 16 26  1  0
 17 27  1  0
 17 28  1  0
 17 29  1  0
 18 30  1  0
 18 31  1  0
 18 32  1  0
M  ISO  8  19  14  20  14  21  14  22  14  23  14  24  14  25  11  26   8
M  ISO  6  27   8  28   8  29   8  30   8  31   8  32   8
M  END
>  <minimizedAffinity>  (1) 
-5.80269766

>  <minimizedRMSD>  (1) 
4.20650244

$$$$
