
     RDKit          3D

 29 30  0  0  0  0  0  0  0  0999 V2000
   38.1910   31.7820   40.8290 C   0  0  0  0  0  0  0  0  0  0  0  0
   38.7510   30.8940   41.7640 C   0  0  0  0  0  0  0  0  0  0  0  0
   37.9320   29.8070   42.1850 C   0  0  0  0  0  0  0  0  0  0  0  0
   36.6620   29.6910   41.6600 N   0  0  0  0  0  0  0  0  0  0  0  0
   36.1950   30.5870   40.7620 C   0  0  0  0  0  0  0  0  0  0  0  0
   36.9410   31.6240   40.3450 N   0  0  0  0  0  0  0  0  0  0  0  0
   38.9570   32.8890   40.3680 N   0  0  0  0  0  0  0  0  0  0  0  0
   38.7620   34.0720   41.0190 C   0  0  0  0  0  0  0  0  0  0  0  0
   39.4410   35.2330   40.6770 C   0  0  0  0  0  0  0  0  0  0  0  0
   40.3340   35.1670   39.6440 C   0  0  0  0  0  0  0  0  0  0  0  0
   40.9450   36.2140   39.3370 O   0  0  0  0  0  0  0  0  0  0  0  0
   40.5090   33.9800   39.0140 N   0  0  0  0  0  0  0  0  0  0  0  0
   39.8450   32.8610   39.3550 C   0  0  0  0  0  0  0  0  0  0  0  0
   40.0090   31.7600   38.7680 O   0  0  0  0  0  0  0  0  0  0  0  0
   38.4570   28.8220   43.1730 C   0  0  0  0  0  0  0  0  0  0  0  0
   39.4810   27.8970   42.5660 C   0  0  0  0  0  0  0  0  0  0  0  0
   37.2310   28.0220   43.6790 C   0  0  0  0  0  0  0  0  0  0  0  0
   39.7713   31.0317   42.1514 H   0  0  0  0  0  0  0  0  0  0  0  0
   35.1777   30.4640   40.3621 H   0  0  0  0  0  0  0  0  0  0  0  0
   38.0386   34.1069   41.8470 H   0  0  0  0  0  0  0  0  0  0  0  0
   39.2666   36.1744   41.2187 H   0  0  0  0  0  0  0  0  0  0  0  0
   41.1830   33.9324   38.2366 H   0  0  0  0  0  0  0  0  0  0  0  0
   38.9726   29.3430   43.9932 H   0  0  0  0  0  0  0  0  0  0  0  0
   40.0399   27.3921   43.3677 H   0  0  0  0  0  0  0  0  0  0  0  0
   38.9731   27.1455   41.9437 H   0  0  0  0  0  0  0  0  0  0  0  0
   40.1772   28.4785   41.9437 H   0  0  0  0  0  0  0  0  0  0  0  0
   37.2245   28.0178   44.7790 H   0  0  0  0  0  0  0  0  0  0  0  0
   36.3081   28.4922   43.3087 H   0  0  0  0  0  0  0  0  0  0  0  0
   37.2897   26.9879   43.3087 H   0  0  0  0  0  0  0  0  0  0  0  0
  1  2  2  0
  2  3  1  0
  3 15  1  0
  4  3  2  0
  5  4  1  0
  6  5  2  0
  6  1  1  0
  7  1  1  0
  7  8  1  0
  9  8  2  0
 10  9  1  0
 11 10  2  0
 12 13  1  0
 12 10  1  0
 13  7  1  0
 14 13  2  0
 15 17  1  0
 16 15  1  0
  2 18  1  0
  5 19  1  0
  8 20  1  0
  9 21  1  0
 12 22  1  0
 15 23  1  0
 16 24  1  0
 16 25  1  0
 16 26  1  0
 17 27  1  0
 17 28  1  0
 17 29  1  0
M  ISO  8  18  14  19  14  20  14  21  14  22   9  23   8  24   8  25   8
M  ISO  4  26   8  27   8  28   8  29   8
M  END
>  <minimizedAffinity>  (1) 
-5.35625267

>  <minimizedRMSD>  (1) 
4.01318979

$$$$
