
     RDKit          3D

 31 33  0  0  1  0  0  0  0  0999 V2000
   38.8400   29.7800   40.8180 N   0  0  0  0  0  0  0  0  0  0  0  0
   38.6320   29.9580   39.4070 C   0  0  0  0  0  0  0  0  0  0  0  0
   38.1110   31.4110   39.3170 C   0  0  0  0  0  0  0  0  0  0  0  0
   36.7720   31.3650   39.8040 N   0  0  0  0  0  0  0  0  0  0  0  0
   36.6160   30.7850   41.0730 C   0  0  0  0  0  0  0  0  0  0  0  0
   37.7950   30.1510   41.7070 C   0  0  1  0  0  0  0  0  0  0  0  0
   40.0300   29.2720   41.4040 C   0  0  0  0  0  0  0  0  0  0  0  0
   40.5270   28.0040   41.1770 C   0  0  0  0  0  0  0  0  0  0  0  0
   41.6890   27.5640   41.7790 C   0  0  0  0  0  0  0  0  0  0  0  0
   42.3140   28.4640   42.6110 N   0  0  0  0  0  0  0  0  0  0  0  0
   41.8270   29.6880   42.8240 C   0  0  0  0  0  0  0  0  0  0  0  0
   40.6950   30.0930   42.2270 N   0  0  0  0  0  0  0  0  0  0  0  0
   37.2760   28.9910   42.5370 C   0  0  0  0  0  0  0  0  0  0  0  0
   36.5510   27.8720   42.1810 C   0  0  0  0  0  0  0  0  0  0  0  0
   36.4040   27.2040   43.4000 C   0  0  0  0  0  0  0  0  0  0  0  0
   37.0380   27.9490   44.4020 C   0  0  0  0  0  0  0  0  0  0  0  0
   37.5550   29.0250   43.8370 O   0  0  0  0  0  0  0  0  0  0  0  0
   39.5731   29.8395   38.8499 H   0  0  0  0  0  0  0  0  0  0  0  0
   37.9411   29.2204   38.9726 H   0  0  0  0  0  0  0  0  0  0  0  0
   38.7242   32.0788   39.9400 H   0  0  0  0  0  0  0  0  0  0  0  0
   38.1588   31.7993   38.2889 H   0  0  0  0  0  0  0  0  0  0  0  0
   36.4163   32.3306   39.8493 H   0  0  0  0  0  0  0  0  0  0  0  0
   36.2681   31.5772   41.7522 H   0  0  0  0  0  0  0  0  0  0  0  0
   35.9179   29.9516   40.9056 H   0  0  0  0  0  0  0  0  0  0  0  0
   38.2979   30.8970   42.3399 H   0  0  0  0  0  0  0  0  0  0  0  0
   39.9840   27.3280   40.5001 H   0  0  0  0  0  0  0  0  0  0  0  0
   42.0907   26.5550   41.6040 H   0  0  0  0  0  0  0  0  0  0  0  0
   42.3605   30.3744   43.4980 H   0  0  0  0  0  0  0  0  0  0  0  0
   36.1815   27.5792   41.1872 H   0  0  0  0  0  0  0  0  0  0  0  0
   35.8769   26.2499   43.5479 H   0  0  0  0  0  0  0  0  0  0  0  0
   37.0952   27.6853   45.4684 H   0  0  0  0  0  0  0  0  0  0  0  0
  1  7  1  0
  1  6  1  0
  2  1  1  0
  3  2  1  0
  3  4  1  0
  4  5  1  0
  5  6  1  0
  6 13  1  0
  7 12  1  0
  8  7  2  0
  8  9  1  0
  9 10  2  0
 10 11  1  0
 12 11  2  0
 13 17  1  0
 14 13  2  0
 14 15  1  0
 15 16  2  0
 17 16  1  0
  2 18  1  0
  2 19  1  0
  3 20  1  0
  3 21  1  0
  4 22  1  0
  5 23  1  0
  5 24  1  0
  6 25  1  1
  8 26  1  0
  9 27  1  0
 11 28  1  0
 14 29  1  0
 15 30  1  0
 16 31  1  0
M  ISO  8  18  13  19  13  20  13  21  13  22   5  23  13  24  13  25  13
M  ISO  6  26  14  27  14  28  14  29  14  30  14  31  14
M  END
>  <minimizedAffinity>  (1) 
-4.21311092

>  <minimizedRMSD>  (1) 
4.4984684

$$$$
