
     RDKit          3D

 29 30  0  0  0  0  0  0  0  0999 V2000
   38.5280   32.4140   40.8510 C   0  0  0  0  0  0  0  0  0  0  0  0
   39.1430   31.4520   41.6650 C   0  0  0  0  0  0  0  0  0  0  0  0
   38.3880   30.2900   41.9980 C   0  0  0  0  0  0  0  0  0  0  0  0
   37.1020   30.1730   41.5080 N   0  0  0  0  0  0  0  0  0  0  0  0
   36.5730   31.1460   40.7250 C   0  0  0  0  0  0  0  0  0  0  0  0
   37.2770   32.2560   40.4000 N   0  0  0  0  0  0  0  0  0  0  0  0
   39.2430   33.6100   40.4810 C   0  0  0  0  0  0  0  0  0  0  0  0
   40.5980   33.4900   40.1710 C   0  0  0  0  0  0  0  0  0  0  0  0
   41.3890   34.5710   39.8010 C   0  0  0  0  0  0  0  0  0  0  0  0
   40.8220   35.8260   39.7330 C   0  0  0  0  0  0  0  0  0  0  0  0
   39.4820   35.9610   40.0370 C   0  0  0  0  0  0  0  0  0  0  0  0
   38.7270   34.8730   40.3990 C   0  0  0  0  0  0  0  0  0  0  0  0
   38.9830   29.2380   42.8530 C   0  0  0  0  0  0  0  0  0  0  0  0
   39.8750   28.3040   42.0730 C   0  0  0  0  0  0  0  0  0  0  0  0
   37.8010   28.4640   43.4840 C   0  0  0  0  0  0  0  0  0  0  0  0
   40.1705   31.5892   42.0330 H   0  0  0  0  0  0  0  0  0  0  0  0
   35.5473   31.0306   40.3448 H   0  0  0  0  0  0  0  0  0  0  0  0
   41.0616   32.4938   40.2218 H   0  0  0  0  0  0  0  0  0  0  0  0
   42.4538   34.4273   39.5654 H   0  0  0  0  0  0  0  0  0  0  0  0
   41.4237   36.7000   39.4431 H   0  0  0  0  0  0  0  0  0  0  0  0
   39.0126   36.9546   39.9885 H   0  0  0  0  0  0  0  0  0  0  0  0
   37.6628   35.0240   40.6327 H   0  0  0  0  0  0  0  0  0  0  0  0
   39.6252   29.6947   43.6205 H   0  0  0  0  0  0  0  0  0  0  0  0
   40.4621   27.6893   42.7712 H   0  0  0  0  0  0  0  0  0  0  0  0
   39.2571   27.6506   41.4396 H   0  0  0  0  0  0  0  0  0  0  0  0
   40.5561   28.8912   41.4396 H   0  0  0  0  0  0  0  0  0  0  0  0
   37.8747   28.5123   44.5805 H   0  0  0  0  0  0  0  0  0  0  0  0
   36.8520   28.9161   43.1601 H   0  0  0  0  0  0  0  0  0  0  0  0
   37.8360   27.4134   43.1601 H   0  0  0  0  0  0  0  0  0  0  0  0
  1  2  2  0
  2  3  1  0
  3 13  1  0
  4  3  2  0
  5  4  1  0
  6  5  2  0
  6  1  1  0
  7  1  1  0
  8  7  2  0
  9  8  1  0
 10  9  2  0
 10 11  1  0
 11 12  2  0
 12  7  1  0
 13 15  1  0
 14 13  1  0
  2 16  1  0
  5 17  1  0
  8 18  1  0
  9 19  1  0
 10 20  1  0
 11 21  1  0
 12 22  1  0
 13 23  1  0
 14 24  1  0
 14 25  1  0
 14 26  1  0
 15 27  1  0
 15 28  1  0
 15 29  1  0
M  ISO  8  16  14  17  14  18  14  19  14  20  14  21  14  22  14  23   8
M  ISO  6  24   8  25   8  26   8  27   8  28   8  29   8
M  END
>  <minimizedAffinity>  (1) 
-4.99173594

>  <minimizedRMSD>  (1) 
3.86051869

$$$$
