
     RDKit          3D

 26 27  0  0  0  0  0  0  0  0999 V2000
   37.1840   30.6580   41.0330 C   0  0  0  0  0  0  0  0  0  0  0  0
   37.6280   29.8080   42.0620 C   0  0  0  0  0  0  0  0  0  0  0  0
   36.8900   28.6070   42.2670 C   0  0  0  0  0  0  0  0  0  0  0  0
   35.8010   28.3550   41.4560 N   0  0  0  0  0  0  0  0  0  0  0  0
   35.4350   29.2240   40.4850 C   0  0  0  0  0  0  0  0  0  0  0  0
   36.1140   30.3550   40.2770 N   0  0  0  0  0  0  0  0  0  0  0  0
   37.8910   31.8700   40.7930 N   0  0  0  0  0  0  0  0  0  0  0  0
   37.3070   32.8130   40.0700 N   0  0  0  0  0  0  0  0  0  0  0  0
   38.1620   33.8710   39.9700 C   0  0  0  0  0  0  0  0  0  0  0  0
   39.3230   33.5830   40.6560 C   0  0  0  0  0  0  0  0  0  0  0  0
   39.1200   32.3150   41.1620 C   0  0  0  0  0  0  0  0  0  0  0  0
   37.2920   27.6430   43.3360 C   0  0  0  0  0  0  0  0  0  0  0  0
   36.7490   28.0460   44.6790 C   0  0  0  0  0  0  0  0  0  0  0  0
   38.8370   27.6460   43.3540 C   0  0  0  0  0  0  0  0  0  0  0  0
   38.5034   30.0588   42.6790 H   0  0  0  0  0  0  0  0  0  0  0  0
   34.5624   28.9945   39.8558 H   0  0  0  0  0  0  0  0  0  0  0  0
   37.9577   34.8061   39.4279 H   0  0  0  0  0  0  0  0  0  0  0  0
   40.2115   34.2207   40.7736 H   0  0  0  0  0  0  0  0  0  0  0  0
   39.8425   31.7515   41.7706 H   0  0  0  0  0  0  0  0  0  0  0  0
   36.8872   26.6415   43.1285 H   0  0  0  0  0  0  0  0  0  0  0  0
   37.3604   27.5922   45.4729 H   0  0  0  0  0  0  0  0  0  0  0  0
   36.7799   29.1415   44.7733 H   0  0  0  0  0  0  0  0  0  0  0  0
   35.7094   27.6991   44.7733 H   0  0  0  0  0  0  0  0  0  0  0  0
   39.1916   27.6467   44.3953 H   0  0  0  0  0  0  0  0  0  0  0  0
   39.2114   26.7486   42.8398 H   0  0  0  0  0  0  0  0  0  0  0  0
   39.2079   28.5449   42.8398 H   0  0  0  0  0  0  0  0  0  0  0  0
  1  2  2  0
  2  3  1  0
  3 12  1  0
  4  3  2  0
  5  4  1  0
  6  5  2  0
  6  1  1  0
  7  1  1  0
  7 11  1  0
  8  7  1  0
  9  8  2  0
  9 10  1  0
 10 11  2  0
 12 14  1  0
 12 13  1  0
  2 15  1  0
  5 16  1  0
  9 17  1  0
 10 18  1  0
 11 19  1  0
 12 20  1  0
 13 21  1  0
 13 22  1  0
 13 23  1  0
 14 24  1  0
 14 25  1  0
 14 26  1  0
M  ISO  8  15  14  16  14  17  14  18  14  19  14  20   8  21   8  22   8
M  ISO  4  23   8  24   8  25   8  26   8
M  END
>  <minimizedAffinity>  (1) 
-4.72469902

>  <minimizedRMSD>  (1) 
3.19983506

$$$$
