
     RDKit          3D

 24 25  0  0  0  0  0  0  0  0999 V2000
   37.1190   30.7640   40.9380 C   0  0  0  0  0  0  0  0  0  0  0  0
   37.5760   29.8960   41.9450 C   0  0  0  0  0  0  0  0  0  0  0  0
   36.8950   28.6690   42.1870 C   0  0  0  0  0  0  0  0  0  0  0  0
   35.8150   28.4240   41.3960 N   0  0  0  0  0  0  0  0  0  0  0  0
   35.3910   29.2570   40.4420 C   0  0  0  0  0  0  0  0  0  0  0  0
   36.0270   30.4070   40.2110 N   0  0  0  0  0  0  0  0  0  0  0  0
   37.8610   32.0060   40.7380 C   0  0  0  0  0  0  0  0  0  0  0  0
   37.3400   32.9720   39.9630 N   0  0  0  0  0  0  0  0  0  0  0  0
   38.1190   34.0050   39.8880 O   0  0  0  0  0  0  0  0  0  0  0  0
   39.1720   33.7310   40.6190 C   0  0  0  0  0  0  0  0  0  0  0  0
   39.0530   32.4910   41.1700 N   0  0  0  0  0  0  0  0  0  0  0  0
   37.3830   27.7540   43.2450 C   0  0  0  0  0  0  0  0  0  0  0  0
   36.7880   28.0580   44.5930 C   0  0  0  0  0  0  0  0  0  0  0  0
   38.9230   27.8790   43.2580 C   0  0  0  0  0  0  0  0  0  0  0  0
   38.4581   30.1642   42.5450 H   0  0  0  0  0  0  0  0  0  0  0  0
   34.5087   28.9924   39.8407 H   0  0  0  0  0  0  0  0  0  0  0  0
   40.0285   34.4054   40.7663 H   0  0  0  0  0  0  0  0  0  0  0  0
   37.0715   26.7218   43.0270 H   0  0  0  0  0  0  0  0  0  0  0  0
   37.4705   27.7093   45.3821 H   0  0  0  0  0  0  0  0  0  0  0  0
   36.6379   29.1433   44.6912 H   0  0  0  0  0  0  0  0  0  0  0  0
   35.8206   27.5437   44.6912 H   0  0  0  0  0  0  0  0  0  0  0  0
   39.2798   27.9080   44.2981 H   0  0  0  0  0  0  0  0  0  0  0  0
   39.3655   27.0138   42.7426 H   0  0  0  0  0  0  0  0  0  0  0  0
   39.2201   28.8042   42.7426 H   0  0  0  0  0  0  0  0  0  0  0  0
  1  2  2  0
  2  3  1  0
  3 12  1  0
  4  3  2  0
  5  4  1  0
  6  5  2  0
  6  1  1  0
  7  1  1  0
  7 11  1  0
  8  7  2  0
  9  8  1  0
  9 10  1  0
 10 11  2  0
 12 14  1  0
 12 13  1  0
  2 15  1  0
  5 16  1  0
 10 17  1  0
 12 18  1  0
 13 19  1  0
 13 20  1  0
 13 21  1  0
 14 22  1  0
 14 23  1  0
 14 24  1  0
M  ISO  8  15  14  16  14  17  14  18   8  19   8  20   8  21   8  22   8
M  ISO  2  23   8  24   8
M  END
>  <minimizedAffinity>  (1) 
-4.69825125

>  <minimizedRMSD>  (1) 
3.35369682

$$$$
