
     RDKit          3D

 32 33  0  0  0  0  0  0  0  0999 V2000
   38.5090   32.0450   41.0180 C   0  0  0  0  0  0  0  0  0  0  0  0
   39.0200   31.0370   41.8640 C   0  0  0  0  0  0  0  0  0  0  0  0
   38.1620   29.9550   42.2060 C   0  0  0  0  0  0  0  0  0  0  0  0
   36.9000   29.9750   41.6870 N   0  0  0  0  0  0  0  0  0  0  0  0
   36.4380   30.9420   40.8860 C   0  0  0  0  0  0  0  0  0  0  0  0
   37.2480   31.9750   40.5550 N   0  0  0  0  0  0  0  0  0  0  0  0
   39.3830   33.1170   40.6860 N   0  0  0  0  0  0  0  0  0  0  0  0
   38.8130   34.4390   40.5220 C   0  0  0  0  0  0  0  0  0  0  0  0
   39.8130   35.4370   40.0290 C   0  0  0  0  0  0  0  0  0  0  0  0
   41.1110   35.1690   40.5120 O   0  0  0  0  0  0  0  0  0  0  0  0
   41.5140   33.9990   39.8650 C   0  0  0  0  0  0  0  0  0  0  0  0
   40.8000   32.8500   40.5270 C   0  0  0  0  0  0  0  0  0  0  0  0
   38.6500   28.8680   43.0870 C   0  0  0  0  0  0  0  0  0  0  0  0
   39.4390   27.8260   42.3360 C   0  0  0  0  0  0  0  0  0  0  0  0
   37.3950   28.2580   43.7530 C   0  0  0  0  0  0  0  0  0  0  0  0
   40.0500   31.0867   42.2470 H   0  0  0  0  0  0  0  0  0  0  0  0
   35.4090   30.8981   40.4998 H   0  0  0  0  0  0  0  0  0  0  0  0
   37.9872   34.3797   39.7977 H   0  0  0  0  0  0  0  0  0  0  0  0
   38.4623   34.7765   41.5085 H   0  0  0  0  0  0  0  0  0  0  0  0
   39.5093   36.4394   40.3649 H   0  0  0  0  0  0  0  0  0  0  0  0
   39.8403   35.3759   38.9310 H   0  0  0  0  0  0  0  0  0  0  0  0
   41.2437   34.0461   38.7998 H   0  0  0  0  0  0  0  0  0  0  0  0
   42.6043   33.8716   39.9358 H   0  0  0  0  0  0  0  0  0  0  0  0
   40.9255   31.9489   39.9087 H   0  0  0  0  0  0  0  0  0  0  0  0
   41.2356   32.7068   41.5269 H   0  0  0  0  0  0  0  0  0  0  0  0
   39.3493   29.2668   43.8366 H   0  0  0  0  0  0  0  0  0  0  0  0
   39.9428   27.1606   43.0525 H   0  0  0  0  0  0  0  0  0  0  0  0
   38.7589   27.2363   41.7037 H   0  0  0  0  0  0  0  0  0  0  0  0
   40.1910   28.3207   41.7037 H   0  0  0  0  0  0  0  0  0  0  0  0
   37.4992   28.3086   44.8469 H   0  0  0  0  0  0  0  0  0  0  0  0
   36.5039   28.8235   43.4430 H   0  0  0  0  0  0  0  0  0  0  0  0
   37.2891   27.2079   43.4430 H   0  0  0  0  0  0  0  0  0  0  0  0
  1  2  2  0
  2  3  1  0
  3 13  1  0
  4  3  2  0
  5  4  1  0
  6  5  2  0
  6  1  1  0
  7  1  1  0
  8  7  1  0
  9 10  1  0
  9  8  1  0
 11 10  1  0
 11 12  1  0
 12  7  1  0
 13 15  1  0
 14 13  1  0
  2 16  1  0
  5 17  1  0
  8 18  1  0
  8 19  1  0
  9 20  1  0
  9 21  1  0
 11 22  1  0
 11 23  1  0
 12 24  1  0
 12 25  1  0
 13 26  1  0
 14 27  1  0
 14 28  1  0
 14 29  1  0
 15 30  1  0
 15 31  1  0
 15 32  1  0
M  ISO  8  16  14  17  14  18  13  19  13  20  13  21  13  22  13  23  13
M  ISO  8  24  13  25  13  26   8  27   8  28   8  29   8  30   8  31   8
M  ISO  1  32   8
M  END
>  <minimizedAffinity>  (1) 
-4.68927908

>  <minimizedRMSD>  (1) 
3.43554449

$$$$
