
     RDKit          3D

 26 26  0  0  0  0  0  0  0  0999 V2000
   37.6530   30.5020   40.8990 C   0  0  0  0  0  0  0  0  0  0  0  0
   37.5310   29.6230   41.9830 C   0  0  0  0  0  0  0  0  0  0  0  0
   36.6360   28.5230   41.8650 C   0  0  0  0  0  0  0  0  0  0  0  0
   35.9460   28.3950   40.6850 N   0  0  0  0  0  0  0  0  0  0  0  0
   36.0990   29.2710   39.6640 C   0  0  0  0  0  0  0  0  0  0  0  0
   36.9360   30.3070   39.7630 N   0  0  0  0  0  0  0  0  0  0  0  0
   38.5390   31.6110   40.9820 N   0  0  0  0  0  0  0  0  0  0  0  0
   38.1640   32.8780   40.4860 C   0  0  0  0  0  0  0  0  0  0  0  0
   36.9560   33.1750   40.2340 N   0  0  0  0  0  0  0  0  0  0  0  0
   39.2060   33.8240   40.2760 N   0  0  0  0  0  0  0  0  0  0  0  0
   36.6900   34.1080   39.8690 H   0  0  0  0  0  0  0  0  0  0  0  0
   36.4740   27.5670   42.9870 C   0  0  0  0  0  0  0  0  0  0  0  0
   37.1200   28.0530   44.2560 C   0  0  0  0  0  0  0  0  0  0  0  0
   37.1300   26.2450   42.5240 C   0  0  0  0  0  0  0  0  0  0  0  0
   38.1130   29.7794   42.9032 H   0  0  0  0  0  0  0  0  0  0  0  0
   35.5242   29.1270   38.7373 H   0  0  0  0  0  0  0  0  0  0  0  0
   39.4677   31.4880   41.4102 H   0  0  0  0  0  0  0  0  0  0  0  0
   38.9842   34.7629   39.9152 H   0  0  0  0  0  0  0  0  0  0  0  0
   40.1821   33.5699   40.4848 H   0  0  0  0  0  0  0  0  0  0  0  0
   35.4069   27.4418   43.2226 H   0  0  0  0  0  0  0  0  0  0  0  0
   36.5785   27.6456   45.1225 H   0  0  0  0  0  0  0  0  0  0  0  0
   38.1669   27.7166   44.2866 H   0  0  0  0  0  0  0  0  0  0  0  0
   37.0870   29.1521   44.2866 H   0  0  0  0  0  0  0  0  0  0  0  0
   37.4235   25.6535   43.4038 H   0  0  0  0  0  0  0  0  0  0  0  0
   36.4120   25.6714   41.9195 H   0  0  0  0  0  0  0  0  0  0  0  0
   38.0211   26.4699   41.9195 H   0  0  0  0  0  0  0  0  0  0  0  0
  1  7  1  0
  1  2  2  0
  3  2  1  0
  3 12  1  0
  4  3  2  0
  5  6  2  0
  5  4  1  0
  6  1  1  0
  8  7  1  0
  9  8  2  0
 10  8  1  0
 11  9  1  0
 12 13  1  0
 14 12  1  0
  2 15  1  0
  5 16  1  0
  7 17  1  0
 10 18  1  0
 10 19  1  0
 12 20  1  0
 13 21  1  0
 13 22  1  0
 13 23  1  0
 14 24  1  0
 14 25  1  0
 14 26  1  0
M  ISO  8  15  14  16  14  20   8  21   8  22   8  23   8  24   8  25   8
M  ISO  1  26   8
M  END
>  <minimizedAffinity>  (1) 
-4.59787464

>  <minimizedRMSD>  (1) 
2.97813272

$$$$
