
     RDKit          3D

 32 34  0  0  1  0  0  0  0  0999 V2000
   38.6320   31.0320   40.8160 N   0  0  0  0  0  0  0  0  0  0  0  0
   39.5170   32.1550   40.8880 C   0  0  0  0  0  0  0  0  0  0  0  0
   38.5870   33.3720   40.7540 C   0  0  0  0  0  0  0  0  0  0  0  0
   38.1280   33.4080   39.4080 N   0  0  0  0  0  0  0  0  0  0  0  0
   37.6150   32.2010   38.9020 C   0  0  0  0  0  0  0  0  0  0  0  0
   37.7070   30.9830   39.7440 C   0  0  1  0  0  0  0  0  0  0  0  0
   38.6040   29.9630   41.7470 C   0  0  0  0  0  0  0  0  0  0  0  0
   39.6940   29.1950   42.0930 C   0  0  0  0  0  0  0  0  0  0  0  0
   39.5940   28.1720   43.0020 C   0  0  0  0  0  0  0  0  0  0  0  0
   38.3590   27.9550   43.5420 N   0  0  0  0  0  0  0  0  0  0  0  0
   37.2920   28.6930   43.2130 C   0  0  0  0  0  0  0  0  0  0  0  0
   37.4270   29.6880   42.3190 N   0  0  0  0  0  0  0  0  0  0  0  0
   37.9870   29.8250   38.7890 C   0  0  0  0  0  0  0  0  0  0  0  0
   39.1950   29.8950   38.0930 C   0  0  0  0  0  0  0  0  0  0  0  0
   39.4400   28.8460   37.2310 C   0  0  0  0  0  0  0  0  0  0  0  0
   38.5770   27.8300   37.0740 N   0  0  0  0  0  0  0  0  0  0  0  0
   37.4040   27.7880   37.7670 C   0  0  0  0  0  0  0  0  0  0  0  0
   37.1300   28.8050   38.6250 N   0  0  0  0  0  0  0  0  0  0  0  0
   40.0480   32.1730   41.8512 H   0  0  0  0  0  0  0  0  0  0  0  0
   40.2958   32.1303   40.1115 H   0  0  0  0  0  0  0  0  0  0  0  0
   37.7333   33.2706   41.4402 H   0  0  0  0  0  0  0  0  0  0  0  0
   39.1207   34.2996   41.0082 H   0  0  0  0  0  0  0  0  0  0  0  0
   37.3837   34.1174   39.3472 H   0  0  0  0  0  0  0  0  0  0  0  0
   36.5491   32.3666   38.6863 H   0  0  0  0  0  0  0  0  0  0  0  0
   38.2564   31.9784   38.0365 H   0  0  0  0  0  0  0  0  0  0  0  0
   36.7544   30.8634   40.2809 H   0  0  0  0  0  0  0  0  0  0  0  0
   40.6686   29.4071   41.6291 H   0  0  0  0  0  0  0  0  0  0  0  0
   40.4635   27.5587   43.2811 H   0  0  0  0  0  0  0  0  0  0  0  0
   36.3129   28.4872   43.6702 H   0  0  0  0  0  0  0  0  0  0  0  0
   39.9018   30.7278   38.2227 H   0  0  0  0  0  0  0  0  0  0  0  0
   40.3753   28.8421   36.6521 H   0  0  0  0  0  0  0  0  0  0  0  0
   36.6990   26.9540   37.6352 H   0  0  0  0  0  0  0  0  0  0  0  0
  1  2  1  0
  1  7  1  0
  3  2  1  0
  4  3  1  0
  5  4  1  0
  5  6  1  0
  6  1  1  0
  7  8  2  0
  7 12  1  0
  8  9  1  0
  9 10  2  0
 11 10  1  0
 12 11  2  0
 13  6  1  0
 14 13  2  0
 15 14  1  0
 16 15  2  0
 16 17  1  0
 17 18  2  0
 18 13  1  0
  2 19  1  0
  2 20  1  0
  3 21  1  0
  3 22  1  0
  4 23  1  0
  5 24  1  0
  5 25  1  0
  6 26  1  1
  8 27  1  0
  9 28  1  0
 11 29  1  0
 14 30  1  0
 15 31  1  0
 17 32  1  0
M  ISO  8  19  13  20  13  21  13  22  13  23   5  24  13  25  13  26  13
M  ISO  6  27  14  28  14  29  14  30  14  31  14  32  14
M  END
>  <minimizedAffinity>  (1) 
-4.1153183

>  <minimizedRMSD>  (1) 
5.5321517

$$$$
