
     RDKit          3D

 31 32  0  0  0  0  0  0  0  0999 V2000
   37.4210   30.6050   40.8380 C   0  0  0  0  0  0  0  0  0  0  0  0
   37.5220   29.6120   41.8200 C   0  0  0  0  0  0  0  0  0  0  0  0
   36.5090   28.6200   41.8980 C   0  0  0  0  0  0  0  0  0  0  0  0
   35.4950   28.7080   40.9960 N   0  0  0  0  0  0  0  0  0  0  0  0
   35.4210   29.6690   40.0660 C   0  0  0  0  0  0  0  0  0  0  0  0
   36.3660   30.6070   39.9820 N   0  0  0  0  0  0  0  0  0  0  0  0
   38.4210   31.6250   40.7250 N   0  0  0  0  0  0  0  0  0  0  0  0
   39.8480   31.4300   40.9090 C   0  0  0  0  0  0  0  0  0  0  0  0
   40.4300   32.8080   40.7950 C   0  0  0  0  0  0  0  0  0  0  0  0
   39.4720   33.4840   39.8340 C   0  0  0  0  0  0  0  0  0  0  0  0
   38.1380   33.0110   40.4060 C   0  0  0  0  0  0  0  0  0  0  0  0
   36.5910   27.5560   42.9220 C   0  0  0  0  0  0  0  0  0  0  0  0
   37.1470   28.0470   44.2300 C   0  0  0  0  0  0  0  0  0  0  0  0
   37.4950   26.4440   42.3420 C   0  0  0  0  0  0  0  0  0  0  0  0
   38.3713   29.6006   42.5189 H   0  0  0  0  0  0  0  0  0  0  0  0
   34.5734   29.6850   39.3651 H   0  0  0  0  0  0  0  0  0  0  0  0
   40.0576   30.9995   41.8993 H   0  0  0  0  0  0  0  0  0  0  0  0
   40.2744   30.7323   40.1732 H   0  0  0  0  0  0  0  0  0  0  0  0
   40.4421   33.3174   41.7699 H   0  0  0  0  0  0  0  0  0  0  0  0
   41.4760   32.8179   40.4546 H   0  0  0  0  0  0  0  0  0  0  0  0
   39.6185   33.1365   38.8007 H   0  0  0  0  0  0  0  0  0  0  0  0
   39.5828   34.5761   39.7635 H   0  0  0  0  0  0  0  0  0  0  0  0
   37.8648   33.5806   41.3065 H   0  0  0  0  0  0  0  0  0  0  0  0
   37.2891   33.1435   39.7192 H   0  0  0  0  0  0  0  0  0  0  0  0
   35.5785   27.1881   43.1446 H   0  0  0  0  0  0  0  0  0  0  0  0
   36.6064   27.5696   45.0605 H   0  0  0  0  0  0  0  0  0  0  0  0
   38.2152   27.7921   44.2932 H   0  0  0  0  0  0  0  0  0  0  0  0
   37.0262   29.1385   44.2932 H   0  0  0  0  0  0  0  0  0  0  0  0
   37.9548   25.8784   43.1658 H   0  0  0  0  0  0  0  0  0  0  0  0
   36.8898   25.7647   41.7238 H   0  0  0  0  0  0  0  0  0  0  0  0
   38.2836   26.8978   41.7238 H   0  0  0  0  0  0  0  0  0  0  0  0
  1  2  2  0
  2  3  1  0
  3 12  1  0
  4  3  2  0
  5  4  1  0
  6  5  2  0
  6  1  1  0
  7  1  1  0
  7  8  1  0
  9  8  1  0
 10 11  1  0
 10  9  1  0
 11  7  1  0
 12 13  1  0
 14 12  1  0
  2 15  1  0
  5 16  1  0
  8 17  1  0
  8 18  1  0
  9 19  1  0
  9 20  1  0
 10 21  1  0
 10 22  1  0
 11 23  1  0
 11 24  1  0
 12 25  1  0
 13 26  1  0
 13 27  1  0
 13 28  1  0
 14 29  1  0
 14 30  1  0
 14 31  1  0
M  ISO  8  15  14  16  14  17  13  18  13  19  13  20  13  21  13  22  13
M  ISO  8  23  13  24  13  25   8  26   8  27   8  28   8  29   8  30   8
M  ISO  1  31   8
M  END
>  <minimizedAffinity>  (1) 
-4.34177923

>  <minimizedRMSD>  (1) 
2.8327651

$$$$
