
     RDKit          3D

 28 28  0  0  0  0  0  0  0  0999 V2000
   39.2310   30.4880   42.2250 C   0  0  0  0  0  0  0  0  0  0  0  0
   38.6260   29.3920   42.8580 C   0  0  0  0  0  0  0  0  0  0  0  0
   37.3030   29.0100   42.5150 C   0  0  0  0  0  0  0  0  0  0  0  0
   36.6830   29.7580   41.5610 N   0  0  0  0  0  0  0  0  0  0  0  0
   37.2790   30.8130   40.9590 C   0  0  0  0  0  0  0  0  0  0  0  0
   38.5380   31.1760   41.2870 N   0  0  0  0  0  0  0  0  0  0  0  0
   40.6000   30.8800   42.5820 C   0  0  0  0  0  0  0  0  0  0  0  0
   41.5200   29.6820   42.7380 C   0  0  0  0  0  0  0  0  0  0  0  0
   41.2310   31.7930   41.5660 C   0  0  0  0  0  0  0  0  0  0  0  0
   36.6690   27.8520   43.1870 C   0  0  0  0  0  0  0  0  0  0  0  0
   36.7340   27.9580   44.6900 C   0  0  0  0  0  0  0  0  0  0  0  0
   37.4180   26.5930   42.6880 C   0  0  0  0  0  0  0  0  0  0  0  0
   39.1789   28.8268   43.6228 H   0  0  0  0  0  0  0  0  0  0  0  0
   36.7316   31.3820   40.1931 H   0  0  0  0  0  0  0  0  0  0  0  0
   40.4910   31.4080   43.5408 H   0  0  0  0  0  0  0  0  0  0  0  0
   41.6773   29.4772   43.8073 H   0  0  0  0  0  0  0  0  0  0  0  0
   41.0623   28.8034   42.2599 H   0  0  0  0  0  0  0  0  0  0  0  0
   42.4869   29.8975   42.2599 H   0  0  0  0  0  0  0  0  0  0  0  0
   41.7829   32.5916   42.0834 H   0  0  0  0  0  0  0  0  0  0  0  0
   41.9245   31.2168   40.9359 H   0  0  0  0  0  0  0  0  0  0  0  0
   40.4468   32.2381   40.9359 H   0  0  0  0  0  0  0  0  0  0  0  0
   35.5980   27.8089   42.9397 H   0  0  0  0  0  0  0  0  0  0  0  0
   36.2095   27.1027   45.1409 H   0  0  0  0  0  0  0  0  0  0  0  0
   37.7856   27.9548   45.0127 H   0  0  0  0  0  0  0  0  0  0  0  0
   36.2543   28.8938   45.0127 H   0  0  0  0  0  0  0  0  0  0  0  0
   37.7664   26.0073   43.5515 H   0  0  0  0  0  0  0  0  0  0  0  0
   36.7381   25.9792   42.0789 H   0  0  0  0  0  0  0  0  0  0  0  0
   38.2819   26.8976   42.0789 H   0  0  0  0  0  0  0  0  0  0  0  0
  1  7  1  0
  1  2  2  0
  3  2  1  0
  3 10  1  0
  4  3  2  0
  5  6  2  0
  5  4  1  0
  6  1  1  0
  7  8  1  0
  9  7  1  0
 10 11  1  0
 12 10  1  0
  2 13  1  0
  5 14  1  0
  7 15  1  0
  8 16  1  0
  8 17  1  0
  8 18  1  0
  9 19  1  0
  9 20  1  0
  9 21  1  0
 10 22  1  0
 11 23  1  0
 11 24  1  0
 11 25  1  0
 12 26  1  0
 12 27  1  0
 12 28  1  0
M  ISO  8  13  14  14  14  15   8  16   8  17   8  18   8  19   8  20   8
M  ISO  8  21   8  22   8  23   8  24   8  25   8  26   8  27   8  28   8
M  END
>  <minimizedAffinity>  (1) 
-3.96797156

>  <minimizedRMSD>  (1) 
0.575915456

$$$$
