
     RDKit          3D

 25 25  0  0  0  0  0  0  0  0999 V2000
   39.1890   30.5140   42.2130 C   0  0  0  0  0  0  0  0  0  0  0  0
   38.6040   29.4140   42.8630 C   0  0  0  0  0  0  0  0  0  0  0  0
   37.2850   29.0040   42.5200 C   0  0  0  0  0  0  0  0  0  0  0  0
   36.6700   29.7390   41.5530 N   0  0  0  0  0  0  0  0  0  0  0  0
   37.2350   30.7810   40.9400 C   0  0  0  0  0  0  0  0  0  0  0  0
   38.4720   31.1680   41.2600 N   0  0  0  0  0  0  0  0  0  0  0  0
   36.6780   27.8400   43.1990 C   0  0  0  0  0  0  0  0  0  0  0  0
   36.7300   27.9500   44.6960 C   0  0  0  0  0  0  0  0  0  0  0  0
   37.4440   26.5960   42.6950 C   0  0  0  0  0  0  0  0  0  0  0  0
   40.5710   30.8480   42.6550 C   0  0  0  0  0  0  0  0  0  0  0  0
   41.4180   29.6030   42.6990 C   0  0  0  0  0  0  0  0  0  0  0  0
   39.1654   28.8699   43.6368 H   0  0  0  0  0  0  0  0  0  0  0  0
   36.6767   31.3257   40.1644 H   0  0  0  0  0  0  0  0  0  0  0  0
   35.6065   27.7764   42.9585 H   0  0  0  0  0  0  0  0  0  0  0  0
   36.3009   27.0423   45.1455 H   0  0  0  0  0  0  0  0  0  0  0  0
   37.7756   28.0603   45.0195 H   0  0  0  0  0  0  0  0  0  0  0  0
   36.1516   28.8280   45.0195 H   0  0  0  0  0  0  0  0  0  0  0  0
   37.8031   26.0128   43.5558 H   0  0  0  0  0  0  0  0  0  0  0  0
   36.7723   25.9739   42.0852 H   0  0  0  0  0  0  0  0  0  0  0  0
   38.3019   26.9158   42.0852 H   0  0  0  0  0  0  0  0  0  0  0  0
   41.0151   31.5649   41.9487 H   0  0  0  0  0  0  0  0  0  0  0  0
   40.5292   31.2896   43.6616 H   0  0  0  0  0  0  0  0  0  0  0  0
   41.6071   29.3250   43.7464 H   0  0  0  0  0  0  0  0  0  0  0  0
   40.8901   28.7822   42.1914 H   0  0  0  0  0  0  0  0  0  0  0  0
   42.3753   29.7926   42.1914 H   0  0  0  0  0  0  0  0  0  0  0  0
  1 10  1  0
  1  2  2  0
  3  2  1  0
  3  7  1  0
  4  3  2  0
  5  6  2  0
  5  4  1  0
  6  1  1  0
  7  8  1  0
  9  7  1  0
 10 11  1  0
  2 12  1  0
  5 13  1  0
  7 14  1  0
  8 15  1  0
  8 16  1  0
  8 17  1  0
  9 18  1  0
  9 19  1  0
  9 20  1  0
 10 21  1  0
 10 22  1  0
 11 23  1  0
 11 24  1  0
 11 25  1  0
M  ISO  8  12  14  13  14  14   8  15   8  16   8  17   8  18   8  19   8
M  ISO  6  20   8  21   8  22   8  23   8  24   8  25   8
M  END
>  <minimizedAffinity>  (1) 
-3.80470729

>  <minimizedRMSD>  (1) 
0.288679719

$$$$
