
     RDKit          3D

 20 20  0  0  0  0  0  0  0  0999 V2000
   39.2960   30.4860   42.4020 C   0  0  0  0  0  0  0  0  0  0  0  0
   38.6570   29.3960   43.0160 C   0  0  0  0  0  0  0  0  0  0  0  0
   37.3590   29.0170   42.5690 C   0  0  0  0  0  0  0  0  0  0  0  0
   36.8110   29.7460   41.5580 N   0  0  0  0  0  0  0  0  0  0  0  0
   37.4480   30.7840   40.9890 C   0  0  0  0  0  0  0  0  0  0  0  0
   38.6650   31.1510   41.3990 N   0  0  0  0  0  0  0  0  0  0  0  0
   36.6720   27.8680   43.1990 C   0  0  0  0  0  0  0  0  0  0  0  0
   36.6870   27.9180   44.7040 C   0  0  0  0  0  0  0  0  0  0  0  0
   37.3850   26.5950   42.6920 C   0  0  0  0  0  0  0  0  0  0  0  0
   40.5550   30.9020   42.7920 O   0  0  0  0  0  0  0  0  0  0  0  0
   39.1513   28.8440   43.8290 H   0  0  0  0  0  0  0  0  0  0  0  0
   36.9601   31.3390   40.1742 H   0  0  0  0  0  0  0  0  0  0  0  0
   35.6081   27.8843   42.9201 H   0  0  0  0  0  0  0  0  0  0  0  0
   36.3928   26.9374   45.1064 H   0  0  0  0  0  0  0  0  0  0  0  0
   37.6998   28.1685   45.0525 H   0  0  0  0  0  0  0  0  0  0  0  0
   35.9793   28.6846   45.0525 H   0  0  0  0  0  0  0  0  0  0  0  0
   37.7206   25.9958   43.5513 H   0  0  0  0  0  0  0  0  0  0  0  0
   36.6875   26.0024   42.0818 H   0  0  0  0  0  0  0  0  0  0  0  0
   38.2547   26.8802   42.0818 H   0  0  0  0  0  0  0  0  0  0  0  0
   40.9828   31.6734   42.3425 H   0  0  0  0  0  0  0  0  0  0  0  0
  1 10  1  0
  1  2  2  0
  3  2  1  0
  3  7  1  0
  4  3  2  0
  5  6  2  0
  5  4  1  0
  6  1  1  0
  7  8  1  0
  9  7  1  0
  2 11  1  0
  5 12  1  0
  7 13  1  0
  8 14  1  0
  8 15  1  0
  8 16  1  0
  9 17  1  0
  9 18  1  0
  9 19  1  0
 10 20  1  0
M  ISO  8  11  14  12  14  13   8  14   8  15   8  16   8  17   8  18   8
M  ISO  2  19   8  20   3
M  END
>  <minimizedAffinity>  (1) 
-3.69401336

>  <minimizedRMSD>  (1) 
0.0397283137

$$$$
