
     RDKit          3D

 42 45  0  0  1  0  0  0  0  0999 V2000
   39.0730   30.7530   41.8230 C   0  0  0  0  0  0  0  0  0  0  0  0
   38.6790   29.5960   42.4810 C   0  0  0  0  0  0  0  0  0  0  0  0
   37.4090   29.0320   42.4480 C   0  0  0  0  0  0  0  0  0  0  0  0
   36.5450   29.7340   41.6810 N   0  0  0  0  0  0  0  0  0  0  0  0
   36.8680   30.8430   41.0330 C   0  0  0  0  0  0  0  0  0  0  0  0
   38.1000   31.3200   41.1150 N   0  0  0  0  0  0  0  0  0  0  0  0
   40.3450   31.3950   41.8460 C   0  0  0  0  0  0  0  0  0  0  0  0
   41.2890   30.9610   42.7800 C   0  0  0  0  0  0  0  0  0  0  0  0
   42.5410   31.5120   42.9500 C   0  0  0  0  0  0  0  0  0  0  0  0
   42.9090   32.5620   42.1560 C   0  0  0  0  0  0  0  0  0  0  0  0
   42.0230   33.0450   41.2040 C   0  0  0  0  0  0  0  0  0  0  0  0
   42.3750   34.0930   40.3970 C   0  0  0  0  0  0  0  0  0  0  0  0
   41.5290   34.6020   39.4330 C   0  0  0  0  0  0  0  0  0  0  0  0
   40.2970   33.9810   39.3340 C   0  0  0  0  0  0  0  0  0  0  0  0
   39.9930   32.9410   40.1620 C   0  0  0  0  0  0  0  0  0  0  0  0
   40.8180   32.4370   41.1140 C   0  0  0  0  0  0  0  0  0  0  0  0
   37.1070   27.8330   43.2360 C   0  0  2  0  0  0  0  0  0  0  0  0
   36.7920   28.1460   44.6840 C   0  0  0  0  0  0  0  0  0  0  0  0
   38.2310   26.8340   43.1150 C   0  0  0  0  0  0  0  0  0  0  0  0
   37.9960   25.6590   42.3530 C   0  0  0  0  0  0  0  0  0  0  0  0
   37.0130   24.8830   41.9230 C   0  0  0  0  0  0  0  0  0  0  0  0
   37.1870   23.7720   41.1520 C   0  0  0  0  0  0  0  0  0  0  0  0
   38.5650   23.4620   40.8070 C   0  0  0  0  0  0  0  0  0  0  0  0
   39.4840   24.7730   41.6060 S   0  0  0  0  0  0  0  0  0  0  0  0
   39.4406   29.0787   43.0829 H   0  0  0  0  0  0  0  0  0  0  0  0
   36.1136   31.3669   40.4276 H   0  0  0  0  0  0  0  0  0  0  0  0
   41.0125   30.1164   43.4282 H   0  0  0  0  0  0  0  0  0  0  0  0
   43.2303   31.1146   43.7096 H   0  0  0  0  0  0  0  0  0  0  0  0
   43.9018   33.0213   42.2712 H   0  0  0  0  0  0  0  0  0  0  0  0
   43.3694   34.5464   40.5216 H   0  0  0  0  0  0  0  0  0  0  0  0
   41.8151   35.4449   38.7867 H   0  0  0  0  0  0  0  0  0  0  0  0
   39.5643   34.3252   38.5892 H   0  0  0  0  0  0  0  0  0  0  0  0
   39.0030   32.4749   40.0495 H   0  0  0  0  0  0  0  0  0  0  0  0
   36.1919   27.3869   42.8193 H   0  0  0  0  0  0  0  0  0  0  0  0
   37.4191   27.5229   45.3386 H   0  0  0  0  0  0  0  0  0  0  0  0
   36.9971   29.2083   44.8825 H   0  0  0  0  0  0  0  0  0  0  0  0
   35.7310   27.9341   44.8825 H   0  0  0  0  0  0  0  0  0  0  0  0
   39.0850   27.3554   42.6582 H   0  0  0  0  0  0  0  0  0  0  0  0
   38.3889   26.4705   44.1411 H   0  0  0  0  0  0  0  0  0  0  0  0
   35.9853   25.1533   42.2074 H   0  0  0  0  0  0  0  0  0  0  0  0
   36.3429   23.1528   40.8142 H   0  0  0  0  0  0  0  0  0  0  0  0
   38.9485   22.6265   40.2030 H   0  0  0  0  0  0  0  0  0  0  0  0
  1  7  1  0
  1  2  2  0
  3  2  1  0
  3 17  1  0
  4  3  2  0
  5  6  2  0
  5  4  1  0
  6  1  1  0
  7  8  2  0
  8  9  1  0
 10  9  2  0
 11 10  1  0
 12 11  2  0
 13 12  1  0
 14 13  2  0
 14 15  1  0
 15 16  2  0
 16 11  1  0
 16  7  1  0
 17 18  1  0
 19 17  1  0
 20 19  1  0
 21 20  2  0
 22 21  1  0
 23 22  2  0
 23 24  1  0
 24 20  1  0
  2 25  1  0
  5 26  1  0
  8 27  1  0
  9 28  1  0
 10 29  1  0
 12 30  1  0
 13 31  1  0
 14 32  1  0
 15 33  1  0
 17 34  1  6
 18 35  1  0
 18 36  1  0
 18 37  1  0
 19 38  1  0
 19 39  1  0
 21 40  1  0
 22 41  1  0
 23 42  1  0
M  ISO  8  25  14  26  14  27  14  28  14  29  14  30  14  31  14  32  14
M  ISO  8  33  14  34   8  35   8  36   8  37   8  38   8  39   8  40  14
M  ISO  2  41  14  42  14
M  END
>  <minimizedAffinity>  (1) 
-6.32768345

>  <minimizedRMSD>  (1) 
1.30796099

$$$$
