
     RDKit          3D

 39 41  0  0  1  0  0  0  0  0999 V2000
   39.6040   29.4340   42.3690 N   0  0  0  0  0  0  0  0  0  0  0  0
   39.6840   30.6310   41.5760 C   0  0  0  0  0  0  0  0  0  0  0  0
   40.8020   30.3370   40.5770 C   0  0  0  0  0  0  0  0  0  0  0  0
   42.0180   30.3890   41.3140 N   0  0  0  0  0  0  0  0  0  0  0  0
   42.0710   29.5860   42.4880 C   0  0  0  0  0  0  0  0  0  0  0  0
   40.8280   28.9050   42.9170 C   0  0  2  0  0  0  0  0  0  0  0  0
   38.4110   28.7230   42.6580 C   0  0  0  0  0  0  0  0  0  0  0  0
   37.8980   28.5810   43.9430 C   0  0  0  0  0  0  0  0  0  0  0  0
   36.7280   27.8700   44.1430 C   0  0  0  0  0  0  0  0  0  0  0  0
   36.1330   27.3350   43.0360 N   0  0  0  0  0  0  0  0  0  0  0  0
   36.6430   27.4810   41.7880 C   0  0  0  0  0  0  0  0  0  0  0  0
   37.7820   28.1730   41.5970 N   0  0  0  0  0  0  0  0  0  0  0  0
   40.8950   27.4550   42.8910 N   0  0  0  0  0  0  0  0  0  0  0  0
   39.9140   26.7970   43.6850 C   0  0  0  0  0  0  0  0  0  0  0  0
   40.1120   25.3100   43.4890 C   0  0  0  0  0  0  0  0  0  0  0  0
   40.0300   24.8610   42.0650 C   0  0  0  0  0  0  0  0  0  0  0  0
   39.9550   26.0190   41.1060 C   0  0  0  0  0  0  0  0  0  0  0  0
   41.0090   27.0070   41.5310 C   0  0  0  0  0  0  0  0  0  0  0  0
   38.7336   30.8195   41.0552 H   0  0  0  0  0  0  0  0  0  0  0  0
   39.8815   31.5280   42.1813 H   0  0  0  0  0  0  0  0  0  0  0  0
   40.8079   31.0931   39.7781 H   0  0  0  0  0  0  0  0  0  0  0  0
   40.6647   29.3555   40.0998 H   0  0  0  0  0  0  0  0  0  0  0  0
   42.7783   30.0845   40.6894 H   0  0  0  0  0  0  0  0  0  0  0  0
   42.8296   28.8076   42.3188 H   0  0  0  0  0  0  0  0  0  0  0  0
   42.2911   30.2960   43.2988 H   0  0  0  0  0  0  0  0  0  0  0  0
   40.7714   29.1715   43.9827 H   0  0  0  0  0  0  0  0  0  0  0  0
   38.4213   29.0330   44.7985 H   0  0  0  0  0  0  0  0  0  0  0  0
   36.2970   27.7416   45.1469 H   0  0  0  0  0  0  0  0  0  0  0  0
   36.1240   27.0322   40.9282 H   0  0  0  0  0  0  0  0  0  0  0  0
   40.0475   27.0595   44.7448 H   0  0  0  0  0  0  0  0  0  0  0  0
   38.8995   27.1008   43.3875 H   0  0  0  0  0  0  0  0  0  0  0  0
   41.1047   25.0403   43.8787 H   0  0  0  0  0  0  0  0  0  0  0  0
   39.2920   24.8096   44.0249 H   0  0  0  0  0  0  0  0  0  0  0  0
   40.9235   24.2640   41.8300 H   0  0  0  0  0  0  0  0  0  0  0  0
   39.1104   24.2683   41.9507 H   0  0  0  0  0  0  0  0  0  0  0  0
   38.9594   26.4845   41.1520 H   0  0  0  0  0  0  0  0  0  0  0  0
   40.1222   25.6852   40.0713 H   0  0  0  0  0  0  0  0  0  0  0  0
   41.9937   26.5326   41.4074 H   0  0  0  0  0  0  0  0  0  0  0  0
   40.8761   27.8965   40.8976 H   0  0  0  0  0  0  0  0  0  0  0  0
  1  7  1  0
  1  6  1  0
  2  1  1  0
  3  4  1  0
  3  2  1  0
  4  5  1  0
  5  6  1  0
  7  8  2  0
  8  9  1  0
 10  9  2  0
 11 10  1  0
 12 11  2  0
 12  7  1  0
 13  6  1  0
 13 14  1  0
 15 14  1  0
 16 15  1  0
 17 18  1  0
 17 16  1  0
 18 13  1  0
  2 19  1  0
  2 20  1  0
  3 21  1  0
  3 22  1  0
  4 23  1  0
  5 24  1  0
  5 25  1  0
  6 26  1  1
  8 27  1  0
  9 28  1  0
 11 29  1  0
 14 30  1  0
 14 31  1  0
 15 32  1  0
 15 33  1  0
 16 34  1  0
 16 35  1  0
 17 36  1  0
 17 37  1  0
 18 38  1  0
 18 39  1  0
M  ISO  8  19  13  20  13  21  13  22  13  23   5  24  13  25  13  26  13
M  ISO  8  27  14  28  14  29  14  30  13  31  13  32  13  33  13  34  13
M  ISO  5  35  13  36  13  37  13  38  13  39  13
M  END
>  <minimizedAffinity>  (1) 
-3.83585048

>  <minimizedRMSD>  (1) 
1.12241852

$$$$
