
     RDKit          3D

 47 50  0  0  1  0  0  0  0  0999 V2000
   38.9640   30.7080   41.7680 C   0  0  0  0  0  0  0  0  0  0  0  0
   38.5050   29.5530   42.3930 C   0  0  0  0  0  0  0  0  0  0  0  0
   37.2050   29.0610   42.3100 C   0  0  0  0  0  0  0  0  0  0  0  0
   36.3950   29.8210   41.5430 N   0  0  0  0  0  0  0  0  0  0  0  0
   36.7830   30.9280   40.9270 C   0  0  0  0  0  0  0  0  0  0  0  0
   38.0370   31.3380   41.0520 N   0  0  0  0  0  0  0  0  0  0  0  0
   40.2620   31.2960   41.8450 C   0  0  0  0  0  0  0  0  0  0  0  0
   41.1310   30.8480   42.8400 C   0  0  0  0  0  0  0  0  0  0  0  0
   42.3950   31.3520   43.0690 C   0  0  0  0  0  0  0  0  0  0  0  0
   42.8470   32.3620   42.2720 C   0  0  0  0  0  0  0  0  0  0  0  0
   42.0330   32.8580   41.2570 C   0  0  0  0  0  0  0  0  0  0  0  0
   42.4810   33.8710   40.4480 C   0  0  0  0  0  0  0  0  0  0  0  0
   41.7140   34.3910   39.4220 C   0  0  0  0  0  0  0  0  0  0  0  0
   40.4600   33.8130   39.2720 C   0  0  0  0  0  0  0  0  0  0  0  0
   40.0670   32.8100   40.1060 C   0  0  0  0  0  0  0  0  0  0  0  0
   40.8140   32.2960   41.1150 C   0  0  0  0  0  0  0  0  0  0  0  0
   36.8070   27.8500   43.0630 C   0  0  2  0  0  0  0  0  0  0  0  0
   36.8110   28.0880   44.5690 C   0  0  0  0  0  0  0  0  0  0  0  0
   37.7430   26.7200   42.7110 C   0  0  0  0  0  0  0  0  0  0  0  0
   37.3550   25.9930   41.5380 N   0  0  0  0  0  0  0  0  0  0  0  0
   36.9520   24.6630   42.0180 C   0  0  0  0  0  0  0  0  0  0  0  0
   37.8380   23.6570   41.3380 C   0  0  0  0  0  0  0  0  0  0  0  0
   39.1050   24.4430   41.0910 C   0  0  0  0  0  0  0  0  0  0  0  0
   38.5590   25.7960   40.7540 C   0  0  0  0  0  0  0  0  0  0  0  0
   39.2249   28.9843   42.9999 H   0  0  0  0  0  0  0  0  0  0  0  0
   36.0701   31.5020   40.3168 H   0  0  0  0  0  0  0  0  0  0  0  0
   40.7827   30.0322   43.4905 H   0  0  0  0  0  0  0  0  0  0  0  0
   43.0238   30.9482   43.8762 H   0  0  0  0  0  0  0  0  0  0  0  0
   43.8507   32.7832   42.4303 H   0  0  0  0  0  0  0  0  0  0  0  0
   43.4856   34.2841   40.6216 H   0  0  0  0  0  0  0  0  0  0  0  0
   42.0709   35.2033   38.7718 H   0  0  0  0  0  0  0  0  0  0  0  0
   39.7837   34.1653   38.4792 H   0  0  0  0  0  0  0  0  0  0  0  0
   39.0653   32.3834   39.9489 H   0  0  0  0  0  0  0  0  0  0  0  0
   35.7767   27.5898   42.7789 H   0  0  0  0  0  0  0  0  0  0  0  0
   36.7947   27.1210   45.0931 H   0  0  0  0  0  0  0  0  0  0  0  0
   37.7186   28.6423   44.8502 H   0  0  0  0  0  0  0  0  0  0  0  0
   35.9226   28.6724   44.8502 H   0  0  0  0  0  0  0  0  0  0  0  0
   38.7459   27.1395   42.5434 H   0  0  0  0  0  0  0  0  0  0  0  0
   37.7193   26.0102   43.5510 H   0  0  0  0  0  0  0  0  0  0  0  0
   37.0800   24.6014   43.1088 H   0  0  0  0  0  0  0  0  0  0  0  0
   35.8938   24.4694   41.7882 H   0  0  0  0  0  0  0  0  0  0  0  0
   38.0288   22.7918   41.9899 H   0  0  0  0  0  0  0  0  0  0  0  0
   37.3986   23.2380   40.4208 H   0  0  0  0  0  0  0  0  0  0  0  0
   39.7374   24.4780   41.9903 H   0  0  0  0  0  0  0  0  0  0  0  0
   39.7525   24.0149   40.3116 H   0  0  0  0  0  0  0  0  0  0  0  0
   39.2989   26.5712   41.0024 H   0  0  0  0  0  0  0  0  0  0  0  0
   38.3346   25.8643   39.6793 H   0  0  0  0  0  0  0  0  0  0  0  0
  1  7  1  0
  1  2  2  0
  3  2  1  0
  3 17  1  0
  4  3  2  0
  5  6  2  0
  5  4  1  0
  6  1  1  0
  7  8  2  0
  8  9  1  0
 10  9  2  0
 11 10  1  0
 12 11  2  0
 13 12  1  0
 14 13  2  0
 14 15  1  0
 15 16  2  0
 16 11  1  0
 16  7  1  0
 17 18  1  0
 19 17  1  0
 20 21  1  0
 20 19  1  0
 22 21  1  0
 23 22  1  0
 24 23  1  0
 24 20  1  0
  2 25  1  0
  5 26  1  0
  8 27  1  0
  9 28  1  0
 10 29  1  0
 12 30  1  0
 13 31  1  0
 14 32  1  0
 15 33  1  0
 17 34  1  6
 18 35  1  0
 18 36  1  0
 18 37  1  0
 19 38  1  0
 19 39  1  0
 21 40  1  0
 21 41  1  0
 22 42  1  0
 22 43  1  0
 23 44  1  0
 23 45  1  0
 24 46  1  0
 24 47  1  0
M  ISO  8  25  14  26  14  27  14  28  14  29  14  30  14  31  14  32  14
M  ISO  8  33  14  34   8  35   8  36   8  37   8  38   8  39   8  40  13
M  ISO  7  41  13  42  13  43  13  44  13  45  13  46  13  47  13
M  END
>  <minimizedAffinity>  (1) 
-6.09773302

>  <minimizedRMSD>  (1) 
1.75940824

$$$$
