
     RDKit          3D

 36 38  0  0  0  0  0  0  0  0999 V2000
   37.2970   31.2710   39.9760 C   0  0  0  0  0  0  0  0  0  0  0  0
   37.2790   32.6120   39.5660 C   0  0  0  0  0  0  0  0  0  0  0  0
   38.2270   33.4670   40.1120 C   0  0  0  0  0  0  0  0  0  0  0  0
   39.1520   32.9570   41.0380 C   0  0  0  0  0  0  0  0  0  0  0  0
   39.1400   31.6290   41.4180 C   0  0  0  0  0  0  0  0  0  0  0  0
   38.2180   30.7540   40.8990 C   0  0  0  0  0  0  0  0  0  0  0  0
   35.4800   29.2810   37.5000 C   0  0  0  0  0  0  0  0  0  0  0  0
   34.4160   28.7260   38.2550 C   0  0  0  0  0  0  0  0  0  0  0  0
   34.3220   29.0470   39.6420 C   0  0  0  0  0  0  0  0  0  0  0  0
   35.2680   29.8720   40.1550 N   0  0  0  0  0  0  0  0  0  0  0  0
   36.2790   30.3860   39.3970 C   0  0  0  0  0  0  0  0  0  0  0  0
   36.3560   30.0800   38.1050 N   0  0  0  0  0  0  0  0  0  0  0  0
   38.2650   29.3670   41.3410 C   0  0  0  0  0  0  0  0  0  0  0  0
   37.7720   29.2390   42.7920 C   0  0  0  0  0  0  0  0  0  0  0  0
   37.8640   27.7710   43.1660 C   0  0  0  0  0  0  0  0  0  0  0  0
   39.3330   27.5260   43.4840 C   0  0  0  0  0  0  0  0  0  0  0  0
   40.1840   28.5100   42.7450 C   0  0  0  0  0  0  0  0  0  0  0  0
   39.6150   28.7160   41.3340 C   0  0  0  0  0  0  0  0  0  0  0  0
   36.5392   32.9741   38.8369 H   0  0  0  0  0  0  0  0  0  0  0  0
   38.2533   34.5282   39.8236 H   0  0  0  0  0  0  0  0  0  0  0  0
   39.9047   33.6320   41.4714 H   0  0  0  0  0  0  0  0  0  0  0  0
   39.8800   31.2672   42.1471 H   0  0  0  0  0  0  0  0  0  0  0  0
   35.5803   29.0543   36.4283 H   0  0  0  0  0  0  0  0  0  0  0  0
   33.6783   28.0617   37.7812 H   0  0  0  0  0  0  0  0  0  0  0  0
   33.5148   28.6416   40.2698 H   0  0  0  0  0  0  0  0  0  0  0  0
   37.6272   28.8610   40.6013 H   0  0  0  0  0  0  0  0  0  0  0  0
   38.4065   29.8393   43.4606 H   0  0  0  0  0  0  0  0  0  0  0  0
   36.7387   29.6038   42.8883 H   0  0  0  0  0  0  0  0  0  0  0  0
   37.2391   27.5581   44.0458 H   0  0  0  0  0  0  0  0  0  0  0  0
   37.5067   27.1191   42.3552 H   0  0  0  0  0  0  0  0  0  0  0  0
   39.4965   27.6420   44.5656 H   0  0  0  0  0  0  0  0  0  0  0  0
   39.6058   26.5063   43.1745 H   0  0  0  0  0  0  0  0  0  0  0  0
   40.1876   29.4694   43.2832 H   0  0  0  0  0  0  0  0  0  0  0  0
   41.2127   28.1269   42.6746 H   0  0  0  0  0  0  0  0  0  0  0  0
   39.5297   27.7354   40.8429 H   0  0  0  0  0  0  0  0  0  0  0  0
   40.3020   29.3845   40.7944 H   0  0  0  0  0  0  0  0  0  0  0  0
  1  6  1  0
  2  1  2  0
  2  3  1  0
  3  4  2  0
  4  5  1  0
  6 13  1  0
  6  5  2  0
  7 12  2  0
  7  8  1  0
  8  9  2  0
  9 10  1  0
 11  1  1  0
 11 10  2  0
 12 11  1  0
 13 14  1  0
 14 15  1  0
 15 16  1  0
 17 16  1  0
 18 13  1  0
 18 17  1  0
  2 19  1  0
  3 20  1  0
  4 21  1  0
  5 22  1  0
  7 23  1  0
  8 24  1  0
  9 25  1  0
 13 26  1  0
 14 27  1  0
 14 28  1  0
 15 29  1  0
 15 30  1  0
 16 31  1  0
 16 32  1  0
 17 33  1  0
 17 34  1  0
 18 35  1  0
 18 36  1  0
M  ISO  8  19  14  20  14  21  14  22  14  23  14  24  14  25  14  26  13
M  ISO  8  27  13  28  13  29  13  30  13  31  13  32  13  33  13  34  13
M  ISO  2  35  13  36  13
M  END
>  <minimizedAffinity>  (1) 
-5.16983318

>  <minimizedRMSD>  (1) 
3.25729108

$$$$
