
     RDKit          3D

 33 35  0  0  0  0  0  0  0  0999 V2000
   41.5670   32.9640   38.5890 C   0  0  0  0  0  0  0  0  0  0  0  0
   41.0340   32.3040   37.4910 C   0  0  0  0  0  0  0  0  0  0  0  0
   41.7410   31.2510   36.9410 C   0  0  0  0  0  0  0  0  0  0  0  0
   42.9530   30.8880   37.4980 C   0  0  0  0  0  0  0  0  0  0  0  0
   43.4760   31.5550   38.5940 C   0  0  0  0  0  0  0  0  0  0  0  0
   42.7820   32.5980   39.1430 C   0  0  0  0  0  0  0  0  0  0  0  0
   40.6000   36.3430   39.6440 C   0  0  0  0  0  0  0  0  0  0  0  0
   39.3740   36.1520   40.2850 C   0  0  0  0  0  0  0  0  0  0  0  0
   38.8750   34.8410   40.3540 C   0  0  0  0  0  0  0  0  0  0  0  0
   39.6190   33.8650   39.7950 N   0  0  0  0  0  0  0  0  0  0  0  0
   40.8070   34.0760   39.1770 C   0  0  0  0  0  0  0  0  0  0  0  0
   41.2700   35.3180   39.1170 N   0  0  0  0  0  0  0  0  0  0  0  0
   44.9760   34.6430   42.2020 C   0  0  0  0  0  0  0  0  0  0  0  0
   43.8610   33.9090   42.5280 C   0  0  0  0  0  0  0  0  0  0  0  0
   43.0950   33.2240   41.6370 C   0  0  0  0  0  0  0  0  0  0  0  0
   43.4240   33.2370   40.2800 C   0  0  0  0  0  0  0  0  0  0  0  0
   44.5380   33.9610   39.8920 C   0  0  0  0  0  0  0  0  0  0  0  0
   45.2960   34.6480   40.8400 C   0  0  0  0  0  0  0  0  0  0  0  0
   45.9180   35.4980   43.3900 S   0  0  0  0  0  0  0  0  0  0  0  0
   46.2180   36.8580   42.8370 O   0  0  0  0  0  0  0  0  0  0  0  0
   45.1930   35.6000   44.7030 O   0  0  0  0  0  0  0  0  0  0  0  0
   40.0674   32.6127   37.0663 H   0  0  0  0  0  0  0  0  0  0  0  0
   41.3438   30.7084   36.0705 H   0  0  0  0  0  0  0  0  0  0  0  0
   43.5154   30.0499   37.0608 H   0  0  0  0  0  0  0  0  0  0  0  0
   44.4427   31.2479   39.0197 H   0  0  0  0  0  0  0  0  0  0  0  0
   41.0202   37.3571   39.5727 H   0  0  0  0  0  0  0  0  0  0  0  0
   38.8198   36.9969   40.7197 H   0  0  0  0  0  0  0  0  0  0  0  0
   37.9157   34.6192   40.8444 H   0  0  0  0  0  0  0  0  0  0  0  0
   43.5664   33.8728   43.5872 H   0  0  0  0  0  0  0  0  0  0  0  0
   42.2170   32.6602   41.9851 H   0  0  0  0  0  0  0  0  0  0  0  0
   44.8268   33.9947   38.8311 H   0  0  0  0  0  0  0  0  0  0  0  0
   46.1774   35.2143   40.5047 H   0  0  0  0  0  0  0  0  0  0  0  0
   47.0788   34.8152   43.6412 H   0  0  0  0  0  0  0  0  0  0  0  0
  1  6  1  0
  1 11  1  0
  2  1  2  0
  3  2  1  0
  3  4  2  0
  4  5  1  0
  5  6  2  0
  6 16  1  0
  7  8  2  0
  8  9  1  0
 10  9  2  0
 11 10  1  0
 12 11  2  0
 12  7  1  0
 13 14  2  0
 13 19  1  0
 15 14  1  0
 16 15  2  0
 17 16  1  0
 17 18  2  0
 18 13  1  0
 19 21  2  0
 20 19  2  0
  2 22  1  0
  3 23  1  0
  4 24  1  0
  5 25  1  0
  7 26  1  0
  8 27  1  0
  9 28  1  0
 14 29  1  0
 15 30  1  0
 17 31  1  0
 18 32  1  0
 19 33  1  0
M  ISO  8  22  14  23  14  24  14  25  14  26  14  27  14  28  14  29  14
M  ISO  4  30  14  31  14  32  14  33  11
M  END
>  <minimizedAffinity>  (1) 
-5.10896444

>  <minimizedRMSD>  (1) 
6.14118576

$$$$
