
     RDKit          3D

 29 31  0  0  0  0  0  0  0  0999 V2000
   38.3950   31.4530   40.8400 C   0  0  0  0  0  0  0  0  0  0  0  0
   39.1680   32.4990   41.3040 C   0  0  0  0  0  0  0  0  0  0  0  0
   38.9520   33.7600   40.7970 C   0  0  0  0  0  0  0  0  0  0  0  0
   37.9550   33.9330   39.8290 C   0  0  0  0  0  0  0  0  0  0  0  0
   37.1770   32.8900   39.3590 C   0  0  0  0  0  0  0  0  0  0  0  0
   37.4160   31.6550   39.8800 C   0  0  0  0  0  0  0  0  0  0  0  0
   39.5740   28.0020   41.1520 C   0  0  0  0  0  0  0  0  0  0  0  0
   39.0520   27.6070   42.4090 C   0  0  0  0  0  0  0  0  0  0  0  0
   38.2940   28.5300   43.1480 C   0  0  0  0  0  0  0  0  0  0  0  0
   38.1250   29.7400   42.5840 N   0  0  0  0  0  0  0  0  0  0  0  0
   38.6250   30.1070   41.3880 C   0  0  0  0  0  0  0  0  0  0  0  0
   39.3410   29.2240   40.6970 N   0  0  0  0  0  0  0  0  0  0  0  0
   36.5680   30.6030   39.3290 C   0  0  0  0  0  0  0  0  0  0  0  0
   36.5530   29.9750   38.0870 C   0  0  0  0  0  0  0  0  0  0  0  0
   35.6090   28.9960   37.8690 C   0  0  0  0  0  0  0  0  0  0  0  0
   34.7000   28.6370   38.8390 C   0  0  0  0  0  0  0  0  0  0  0  0
   34.7370   29.2720   40.0520 C   0  0  0  0  0  0  0  0  0  0  0  0
   35.6550   30.2290   40.2760 N   0  0  0  0  0  0  0  0  0  0  0  0
   39.9429   32.3273   42.0656 H   0  0  0  0  0  0  0  0  0  0  0  0
   39.5504   34.6148   41.1451 H   0  0  0  0  0  0  0  0  0  0  0  0
   37.7830   34.9415   39.4249 H   0  0  0  0  0  0  0  0  0  0  0  0
   36.3995   33.0514   38.5978 H   0  0  0  0  0  0  0  0  0  0  0  0
   40.1709   27.2959   40.5560 H   0  0  0  0  0  0  0  0  0  0  0  0
   39.2373   26.5953   42.7990 H   0  0  0  0  0  0  0  0  0  0  0  0
   37.8643   28.2788   44.1289 H   0  0  0  0  0  0  0  0  0  0  0  0
   37.2733   30.2522   37.3032 H   0  0  0  0  0  0  0  0  0  0  0  0
   35.5805   28.4874   36.8941 H   0  0  0  0  0  0  0  0  0  0  0  0
   33.9551   27.8518   38.6426 H   0  0  0  0  0  0  0  0  0  0  0  0
   34.0189   29.0004   40.8397 H   0  0  0  0  0  0  0  0  0  0  0  0
  1  2  2  0
  1 11  1  0
  3  2  1  0
  4  3  2  0
  5  4  1  0
  5  6  2  0
  6  1  1  0
  7  8  2  0
  8  9  1  0
 10  9  2  0
 11 10  1  0
 12  7  1  0
 12 11  2  0
 13  6  1  0
 13 18  1  0
 14 13  2  0
 15 14  1  0
 15 16  2  0
 16 17  1  0
 17 18  2  0
  2 19  1  0
  3 20  1  0
  4 21  1  0
  5 22  1  0
  7 23  1  0
  8 24  1  0
  9 25  1  0
 14 26  1  0
 15 27  1  0
 16 28  1  0
 17 29  1  0
M  ISO  8  19  14  20  14  21  14  22  14  23  14  24  14  25  14  26  14
M  ISO  3  27  14  28  14  29  14
M  END
>  <minimizedAffinity>  (1) 
-5.09624481

>  <minimizedRMSD>  (1) 
4.44275856

$$$$
