
     RDKit          3D

 27 29  0  0  0  0  0  0  0  0999 V2000
   38.3820   31.3440   40.9020 C   0  0  0  0  0  0  0  0  0  0  0  0
   39.2390   32.3870   41.2460 C   0  0  0  0  0  0  0  0  0  0  0  0
   39.0410   33.6430   40.7260 C   0  0  0  0  0  0  0  0  0  0  0  0
   37.9650   33.8190   39.8590 C   0  0  0  0  0  0  0  0  0  0  0  0
   37.1060   32.7840   39.5120 C   0  0  0  0  0  0  0  0  0  0  0  0
   37.3090   31.5300   40.0350 C   0  0  0  0  0  0  0  0  0  0  0  0
   39.6180   27.9090   41.3030 C   0  0  0  0  0  0  0  0  0  0  0  0
   39.0880   27.5250   42.5530 C   0  0  0  0  0  0  0  0  0  0  0  0
   38.3000   28.4610   43.2520 C   0  0  0  0  0  0  0  0  0  0  0  0
   38.1060   29.6670   42.6770 N   0  0  0  0  0  0  0  0  0  0  0  0
   38.6260   30.0170   41.4730 C   0  0  0  0  0  0  0  0  0  0  0  0
   39.3700   29.1240   40.8200 N   0  0  0  0  0  0  0  0  0  0  0  0
   36.3880   30.4940   39.6470 C   0  0  0  0  0  0  0  0  0  0  0  0
   36.2320   29.7350   38.4810 C   0  0  0  0  0  0  0  0  0  0  0  0
   35.1590   28.8910   38.7090 C   0  0  0  0  0  0  0  0  0  0  0  0
   34.7200   29.1750   39.9920 C   0  0  0  0  0  0  0  0  0  0  0  0
   35.4620   30.1160   40.5060 O   0  0  0  0  0  0  0  0  0  0  0  0
   40.0763   32.2044   41.9357 H   0  0  0  0  0  0  0  0  0  0  0  0
   39.7076   34.4789   40.9847 H   0  0  0  0  0  0  0  0  0  0  0  0
   37.7885   34.8173   39.4322 H   0  0  0  0  0  0  0  0  0  0  0  0
   36.2685   32.9673   38.8228 H   0  0  0  0  0  0  0  0  0  0  0  0
   40.2362   27.2041   40.7277 H   0  0  0  0  0  0  0  0  0  0  0  0
   39.2839   26.5257   42.9690 H   0  0  0  0  0  0  0  0  0  0  0  0
   37.8592   28.2180   44.2301 H   0  0  0  0  0  0  0  0  0  0  0  0
   36.8404   29.7970   37.5667 H   0  0  0  0  0  0  0  0  0  0  0  0
   34.7408   28.1476   38.0144 H   0  0  0  0  0  0  0  0  0  0  0  0
   33.8765   28.6830   40.4984 H   0  0  0  0  0  0  0  0  0  0  0  0
  1  2  2  0
  1 11  1  0
  3  2  1  0
  4  3  2  0
  5  4  1  0
  5  6  2  0
  6  1  1  0
  7  8  2  0
  8  9  1  0
 10  9  2  0
 11 10  1  0
 12  7  1  0
 12 11  2  0
 13  6  1  0
 13 17  1  0
 14 15  1  0
 14 13  2  0
 15 16  2  0
 16 17  1  0
  2 18  1  0
  3 19  1  0
  4 20  1  0
  5 21  1  0
  7 22  1  0
  8 23  1  0
  9 24  1  0
 14 25  1  0
 15 26  1  0
 16 27  1  0
M  ISO  8  18  14  19  14  20  14  21  14  22  14  23  14  24  14  25  14
M  ISO  2  26  14  27  14
M  END
>  <minimizedAffinity>  (1) 
-4.88908863

>  <minimizedRMSD>  (1) 
4.0319891

$$$$
