
     RDKit          3D

 26 28  0  0  0  0  0  0  0  0999 V2000
   38.3680   31.3860   40.8660 C   0  0  0  0  0  0  0  0  0  0  0  0
   39.2030   32.4350   41.2590 C   0  0  0  0  0  0  0  0  0  0  0  0
   38.9870   33.6870   40.7330 C   0  0  0  0  0  0  0  0  0  0  0  0
   37.9390   33.8680   39.8220 C   0  0  0  0  0  0  0  0  0  0  0  0
   37.1190   32.8130   39.4420 C   0  0  0  0  0  0  0  0  0  0  0  0
   37.3290   31.5700   39.9620 C   0  0  0  0  0  0  0  0  0  0  0  0
   39.6090   27.9690   41.2570 C   0  0  0  0  0  0  0  0  0  0  0  0
   39.1020   27.5680   42.4970 C   0  0  0  0  0  0  0  0  0  0  0  0
   38.3180   28.4910   43.2090 C   0  0  0  0  0  0  0  0  0  0  0  0
   38.1170   29.6960   42.6400 N   0  0  0  0  0  0  0  0  0  0  0  0
   38.6210   30.0580   41.4360 C   0  0  0  0  0  0  0  0  0  0  0  0
   39.3640   29.1770   40.7640 N   0  0  0  0  0  0  0  0  0  0  0  0
   36.4410   30.4900   39.5440 C   0  0  0  0  0  0  0  0  0  0  0  0
   36.5480   29.9350   38.2940 C   0  0  0  0  0  0  0  0  0  0  0  0
   35.2310   28.6700   38.3040 S   0  0  0  0  0  0  0  0  0  0  0  0
   34.7440   29.1470   40.1020 C   0  0  0  0  0  0  0  0  0  0  0  0
   35.4870   29.9730   40.3090 N   0  0  0  0  0  0  0  0  0  0  0  0
   40.0187   32.2624   41.9765 H   0  0  0  0  0  0  0  0  0  0  0  0
   39.6273   34.5330   41.0232 H   0  0  0  0  0  0  0  0  0  0  0  0
   37.7612   34.8673   39.3981 H   0  0  0  0  0  0  0  0  0  0  0  0
   36.3027   32.9798   38.7238 H   0  0  0  0  0  0  0  0  0  0  0  0
   40.2254   27.2669   40.6764 H   0  0  0  0  0  0  0  0  0  0  0  0
   39.3096   26.5659   42.9004 H   0  0  0  0  0  0  0  0  0  0  0  0
   37.8865   28.2408   44.1894 H   0  0  0  0  0  0  0  0  0  0  0  0
   37.2514   30.1886   37.4872 H   0  0  0  0  0  0  0  0  0  0  0  0
   33.9588   28.7307   40.7502 H   0  0  0  0  0  0  0  0  0  0  0  0
  1  2  2  0
  1 11  1  0
  3  2  1  0
  4  3  2  0
  5  4  1  0
  5  6  2  0
  6  1  1  0
  7  8  2  0
  8  9  1  0
 10  9  2  0
 11 10  1  0
 12  7  1  0
 12 11  2  0
 13  6  1  0
 13 17  1  0
 14 15  1  0
 14 13  2  0
 15 16  1  0
 16 17  2  0
  2 18  1  0
  3 19  1  0
  4 20  1  0
  5 21  1  0
  7 22  1  0
  8 23  1  0
  9 24  1  0
 14 25  1  0
 16 26  1  0
M  ISO  8  18  14  19  14  20  14  21  14  22  14  23  14  24  14  25  14
M  ISO  1  26  14
M  END
>  <minimizedAffinity>  (1) 
-4.64721537

>  <minimizedRMSD>  (1) 
4.04347229

$$$$
