
     RDKit          3D

 27 28  0  0  0  0  0  0  0  0999 V2000
   37.8670   30.8960   41.0150 C   0  0  0  0  0  0  0  0  0  0  0  0
   37.0200   31.2260   39.9410 C   0  0  0  0  0  0  0  0  0  0  0  0
   37.1570   32.4840   39.3900 C   0  0  0  0  0  0  0  0  0  0  0  0
   38.1160   33.3570   39.9180 C   0  0  0  0  0  0  0  0  0  0  0  0
   38.9230   32.9830   40.9730 C   0  0  0  0  0  0  0  0  0  0  0  0
   38.8380   31.7570   41.5600 C   0  0  0  0  0  0  0  0  0  0  0  0
   37.4130   28.2660   43.5460 C   0  0  0  0  0  0  0  0  0  0  0  0
   37.2840   27.0960   42.7510 C   0  0  0  0  0  0  0  0  0  0  0  0
   37.3590   27.2150   41.3280 C   0  0  0  0  0  0  0  0  0  0  0  0
   37.5500   28.4430   40.8130 N   0  0  0  0  0  0  0  0  0  0  0  0
   37.6700   29.5440   41.6140 C   0  0  0  0  0  0  0  0  0  0  0  0
   37.6010   29.4400   42.9420 N   0  0  0  0  0  0  0  0  0  0  0  0
   39.7060   31.4140   42.5740 N   0  0  0  0  0  0  0  0  0  0  0  0
   41.1300   31.3460   42.3770 C   0  0  0  0  0  0  0  0  0  0  0  0
   41.7390   32.2720   41.7570 N   0  0  0  0  0  0  0  0  0  0  0  0
   42.0100   30.3100   42.8370 N   0  0  0  0  0  0  0  0  0  0  0  0
   41.3210   33.1140   41.3560 H   0  0  0  0  0  0  0  0  0  0  0  0
   36.2786   30.5103   39.5561 H   0  0  0  0  0  0  0  0  0  0  0  0
   36.5218   32.7964   38.5480 H   0  0  0  0  0  0  0  0  0  0  0  0
   38.2283   34.3611   39.4831 H   0  0  0  0  0  0  0  0  0  0  0  0
   39.6629   33.7022   41.3543 H   0  0  0  0  0  0  0  0  0  0  0  0
   37.3587   28.2047   44.6429 H   0  0  0  0  0  0  0  0  0  0  0  0
   37.1289   26.1143   43.2224 H   0  0  0  0  0  0  0  0  0  0  0  0
   37.2638   26.3333   40.6772 H   0  0  0  0  0  0  0  0  0  0  0  0
   39.3222   31.1988   43.5053 H   0  0  0  0  0  0  0  0  0  0  0  0
   43.0189   30.3649   42.6371 H   0  0  0  0  0  0  0  0  0  0  0  0
   41.6327   29.5115   43.3671 H   0  0  0  0  0  0  0  0  0  0  0  0
  1  6  1  0
  1 11  1  0
  2  1  2  0
  3  4  2  0
  3  2  1  0
  4  5  1  0
  5  6  2  0
  6 13  1  0
  8  7  2  0
  9  8  1  0
 10  9  2  0
 10 11  1  0
 11 12  2  0
 12  7  1  0
 14 13  1  0
 14 16  1  0
 15 14  2  0
 17 15  1  0
  2 18  1  0
  3 19  1  0
  4 20  1  0
  5 21  1  0
  7 22  1  0
  8 23  1  0
  9 24  1  0
 13 25  1  0
 16 26  1  0
 16 27  1  0
M  ISO  7  18  14  19  14  20  14  21  14  22  14  23  14  24  14
M  END
>  <minimizedAffinity>  (1) 
-4.58639336

>  <minimizedRMSD>  (1) 
0.83817476

$$$$
