
     RDKit          3D

 37 39  0  0  1  0  0  0  0  0999 V2000
   39.6850   29.3270   42.6290 N   0  0  0  0  0  0  0  0  0  0  0  0
   39.8560   30.6450   42.0630 C   0  0  0  0  0  0  0  0  0  0  0  0
   40.9990   30.4850   41.0780 C   0  0  0  0  0  0  0  0  0  0  0  0
   42.1900   30.2800   41.7990 N   0  0  0  0  0  0  0  0  0  0  0  0
   42.1220   29.4050   42.9200 C   0  0  0  0  0  0  0  0  0  0  0  0
   40.8490   28.6530   43.1120 C   0  0  2  0  0  0  0  0  0  0  0  0
   38.4340   28.6610   42.7380 C   0  0  0  0  0  0  0  0  0  0  0  0
   37.8420   28.3740   43.9620 C   0  0  0  0  0  0  0  0  0  0  0  0
   36.6170   27.7200   43.9880 C   0  0  0  0  0  0  0  0  0  0  0  0
   36.0610   27.3940   42.7820 N   0  0  0  0  0  0  0  0  0  0  0  0
   36.6630   27.6900   41.6160 C   0  0  0  0  0  0  0  0  0  0  0  0
   37.8450   28.3200   41.5650 N   0  0  0  0  0  0  0  0  0  0  0  0
   41.0580   27.2520   42.7410 C   0  0  0  0  0  0  0  0  0  0  0  0
   40.4030   26.1740   43.5180 C   0  0  0  0  0  0  0  0  0  0  0  0
   41.1750   24.9980   42.8880 C   0  0  0  0  0  0  0  0  0  0  0  0
   40.9040   25.3190   41.4110 C   0  0  0  0  0  0  0  0  0  0  0  0
   40.7770   26.8480   41.3320 C   0  0  0  0  0  0  0  0  0  0  0  0
   38.9400   30.9695   41.5475 H   0  0  0  0  0  0  0  0  0  0  0  0
   40.0645   31.4071   42.8283 H   0  0  0  0  0  0  0  0  0  0  0  0
   41.0892   31.3937   40.4647 H   0  0  0  0  0  0  0  0  0  0  0  0
   40.8077   29.6261   40.4179 H   0  0  0  0  0  0  0  0  0  0  0  0
   42.8869   29.8950   41.1456 H   0  0  0  0  0  0  0  0  0  0  0  0
   42.9313   28.6673   42.8154 H   0  0  0  0  0  0  0  0  0  0  0  0
   42.2042   30.0595   43.8003 H   0  0  0  0  0  0  0  0  0  0  0  0
   40.5794   28.6246   44.1781 H   0  0  0  0  0  0  0  0  0  0  0  0
   38.3384   28.6618   44.9005 H   0  0  0  0  0  0  0  0  0  0  0  0
   36.1164   27.4752   44.9364 H   0  0  0  0  0  0  0  0  0  0  0  0
   36.1697   27.4061   40.6747 H   0  0  0  0  0  0  0  0  0  0  0  0
   42.1319   27.3097   42.9719 H   0  0  0  0  0  0  0  0  0  0  0  0
   40.5828   26.2651   44.5994 H   0  0  0  0  0  0  0  0  0  0  0  0
   39.3051   26.1269   43.4685 H   0  0  0  0  0  0  0  0  0  0  0  0
   42.2477   25.0287   43.1295 H   0  0  0  0  0  0  0  0  0  0  0  0
   40.8759   23.9939   43.2230 H   0  0  0  0  0  0  0  0  0  0  0  0
   41.7381   24.9709   40.7840 H   0  0  0  0  0  0  0  0  0  0  0  0
   39.9947   24.8177   41.0477 H   0  0  0  0  0  0  0  0  0  0  0  0
   41.5155   27.2757   40.6380 H   0  0  0  0  0  0  0  0  0  0  0  0
   39.8034   27.1948   40.9553 H   0  0  0  0  0  0  0  0  0  0  0  0
  1  7  1  0
  1  6  1  0
  2  1  1  0
  3  4  1  0
  3  2  1  0
  4  5  1  0
  5  6  1  0
  7  8  2  0
  8  9  1  0
 10  9  2  0
 11 10  1  0
 12 11  2  0
 12  7  1  0
 13  6  1  0
 13 14  1  0
 15 14  1  0
 16 15  1  0
 17 16  1  0
 17 13  1  0
  2 18  1  0
  2 19  1  0
  3 20  1  0
  3 21  1  0
  4 22  1  0
  5 23  1  0
  5 24  1  0
  6 25  1  1
  8 26  1  0
  9 27  1  0
 11 28  1  0
 13 29  1  0
 14 30  1  0
 14 31  1  0
 15 32  1  0
 15 33  1  0
 16 34  1  0
 16 35  1  0
 17 36  1  0
 17 37  1  0
M  ISO  8  18  13  19  13  20  13  21  13  22   5  23  13  24  13  25  13
M  ISO  8  26  14  27  14  28  14  29  13  30  13  31  13  32  13  33  13
M  ISO  4  34  13  35  13  36  13  37  13
M  END
>  <minimizedAffinity>  (1) 
-3.60793447

>  <minimizedRMSD>  (1) 
0.943745911

$$$$
