
     RDKit          3D

 23 24  0  0  0  0  0  0  0  0999 V2000
   38.0690   30.7050   41.3040 C   0  0  0  0  0  0  0  0  0  0  0  0
   36.9940   31.1290   40.5090 C   0  0  0  0  0  0  0  0  0  0  0  0
   37.0350   32.3820   39.9370 C   0  0  0  0  0  0  0  0  0  0  0  0
   38.1630   33.1830   40.1790 C   0  0  0  0  0  0  0  0  0  0  0  0
   39.2080   32.7400   40.9660 C   0  0  0  0  0  0  0  0  0  0  0  0
   39.1770   31.5040   41.5370 C   0  0  0  0  0  0  0  0  0  0  0  0
   37.3460   28.0590   43.7200 C   0  0  0  0  0  0  0  0  0  0  0  0
   37.7410   26.8870   43.0320 C   0  0  0  0  0  0  0  0  0  0  0  0
   38.2610   27.0090   41.7250 C   0  0  0  0  0  0  0  0  0  0  0  0
   38.3530   28.2460   41.2000 N   0  0  0  0  0  0  0  0  0  0  0  0
   37.9640   29.3520   41.8920 C   0  0  0  0  0  0  0  0  0  0  0  0
   37.4680   29.2520   43.1340 N   0  0  0  0  0  0  0  0  0  0  0  0
   40.2910   31.0330   42.3740 C   0  0  0  0  0  0  0  0  0  0  0  0
   36.1291   30.4696   40.3442 H   0  0  0  0  0  0  0  0  0  0  0  0
   36.2079   32.7445   39.3088 H   0  0  0  0  0  0  0  0  0  0  0  0
   38.2154   34.1864   39.7314 H   0  0  0  0  0  0  0  0  0  0  0  0
   40.0765   33.3939   41.1337 H   0  0  0  0  0  0  0  0  0  0  0  0
   36.9379   27.9867   44.7389 H   0  0  0  0  0  0  0  0  0  0  0  0
   37.6447   25.8994   43.5067 H   0  0  0  0  0  0  0  0  0  0  0  0
   38.5801   26.1240   41.1549 H   0  0  0  0  0  0  0  0  0  0  0  0
   40.0251   31.1454   43.4354 H   0  0  0  0  0  0  0  0  0  0  0  0
   40.4907   29.9734   42.1563 H   0  0  0  0  0  0  0  0  0  0  0  0
   41.1903   31.6279   42.1563 H   0  0  0  0  0  0  0  0  0  0  0  0
  1  6  1  0
  1 11  1  0
  2  1  2  0
  3  4  2  0
  3  2  1  0
  4  5  1  0
  5  6  2  0
  6 13  1  0
  8  7  2  0
  9  8  1  0
 10  9  2  0
 10 11  1  0
 11 12  2  0
 12  7  1  0
  2 14  1  0
  3 15  1  0
  4 16  1  0
  5 17  1  0
  7 18  1  0
  8 19  1  0
  9 20  1  0
 13 21  1  0
 13 22  1  0
 13 23  1  0
M  ISO  8  14  14  15  14  16  14  17  14  18  14  19  14  20  14  21   8
M  ISO  2  22   8  23   8
M  END
>  <minimizedAffinity>  (1) 
-4.07911777

>  <minimizedRMSD>  (1) 
1.10565031

$$$$
