
     RDKit          3D

 34 36  0  0  0  0  0  0  0  0999 V2000
   37.3740   31.5310   39.9610 C   0  0  0  0  0  0  0  0  0  0  0  0
   37.2200   32.8570   39.6050 C   0  0  0  0  0  0  0  0  0  0  0  0
   38.1460   33.7800   40.0600 C   0  0  0  0  0  0  0  0  0  0  0  0
   39.1920   33.3480   40.8540 C   0  0  0  0  0  0  0  0  0  0  0  0
   39.3410   32.0080   41.2090 C   0  0  0  0  0  0  0  0  0  0  0  0
   38.4220   31.0980   40.7570 C   0  0  0  0  0  0  0  0  0  0  0  0
   34.6070   29.1340   39.8750 C   0  0  0  0  0  0  0  0  0  0  0  0
   34.5390   28.7380   38.5380 C   0  0  0  0  0  0  0  0  0  0  0  0
   35.4680   29.3130   37.6570 C   0  0  0  0  0  0  0  0  0  0  0  0
   36.3430   30.1940   38.1720 N   0  0  0  0  0  0  0  0  0  0  0  0
   36.3950   30.5630   39.4590 C   0  0  0  0  0  0  0  0  0  0  0  0
   35.5140   30.0140   40.2760 N   0  0  0  0  0  0  0  0  0  0  0  0
   38.6970   29.7940   41.2350 N   0  0  0  0  0  0  0  0  0  0  0  0
   39.2360   28.5690   40.7160 C   0  0  0  0  0  0  0  0  0  0  0  0
   40.1030   27.7850   41.6300 C   0  0  0  0  0  0  0  0  0  0  0  0
   39.8440   28.0390   43.0290 N   0  0  0  0  0  0  0  0  0  0  0  0
   38.4550   28.4260   43.2010 C   0  0  0  0  0  0  0  0  0  0  0  0
   38.2860   29.8010   42.6460 C   0  0  0  0  0  0  0  0  0  0  0  0
   36.3777   33.1733   38.9721 H   0  0  0  0  0  0  0  0  0  0  0  0
   38.0508   34.8429   39.7933 H   0  0  0  0  0  0  0  0  0  0  0  0
   39.9272   34.0819   41.2158 H   0  0  0  0  0  0  0  0  0  0  0  0
   40.1820   31.6869   41.8412 H   0  0  0  0  0  0  0  0  0  0  0  0
   33.9001   28.7111   40.6040 H   0  0  0  0  0  0  0  0  0  0  0  0
   33.7919   28.0090   38.1911 H   0  0  0  0  0  0  0  0  0  0  0  0
   35.4796   29.0532   36.5882 H   0  0  0  0  0  0  0  0  0  0  0  0
   38.3900   27.9281   40.4269 H   0  0  0  0  0  0  0  0  0  0  0  0
   39.8889   28.8692   39.8831 H   0  0  0  0  0  0  0  0  0  0  0  0
   39.9383   26.7152   41.4340 H   0  0  0  0  0  0  0  0  0  0  0  0
   41.1412   28.0901   41.4324 H   0  0  0  0  0  0  0  0  0  0  0  0
   40.0327   27.1854   43.5737 H   0  0  0  0  0  0  0  0  0  0  0  0
   37.8025   27.7233   42.6621 H   0  0  0  0  0  0  0  0  0  0  0  0
   38.1831   28.4085   44.2667 H   0  0  0  0  0  0  0  0  0  0  0  0
   38.9124   30.5074   43.2104 H   0  0  0  0  0  0  0  0  0  0  0  0
   37.2339   30.1114   42.7281 H   0  0  0  0  0  0  0  0  0  0  0  0
  1  6  1  0
  2  1  2  0
  2  3  1  0
  3  4  2  0
  4  5  1  0
  6  5  2  0
  6 13  1  0
  7 12  2  0
  8  7  1  0
  9 10  1  0
  9  8  2  0
 10 11  2  0
 11  1  1  0
 11 12  1  0
 13 18  1  0
 14 13  1  0
 14 15  1  0
 15 16  1  0
 16 17  1  0
 18 17  1  0
  2 19  1  0
  3 20  1  0
  4 21  1  0
  5 22  1  0
  7 23  1  0
  8 24  1  0
  9 25  1  0
 14 26  1  0
 14 27  1  0
 15 28  1  0
 15 29  1  0
 16 30  1  0
 17 31  1  0
 17 32  1  0
 18 33  1  0
 18 34  1  0
M  ISO  8  19  14  20  14  21  14  22  14  23  14  24  14  25  14  26  13
M  ISO  8  27  13  28  13  29  13  30   5  31  13  32  13  33  13  34  13
M  END
>  <minimizedAffinity>  (1) 
-4.84434748

>  <minimizedRMSD>  (1) 
3.18524194

$$$$
