
     RDKit          3D

 48 52  0  0  1  0  0  0  0  0999 V2000
   38.7800   29.1380   38.4930 N   0  0  0  0  0  0  0  0  0  0  0  0
   38.4430   28.0270   37.6350 C   0  0  0  0  0  0  0  0  0  0  0  0
   39.5100   27.5080   36.7610 C   0  0  0  0  0  0  0  0  0  0  0  0
   40.8390   27.8020   37.2500 N   0  0  0  0  0  0  0  0  0  0  0  0
   40.8110   27.8470   38.7100 C   0  0  0  0  0  0  0  0  0  0  0  0
   40.1060   29.1380   39.0720 C   0  0  1  0  0  0  0  0  0  0  0  0
   41.0160   30.1890   38.6250 C   0  0  0  0  0  0  0  0  0  0  0  0
   41.3320   30.0800   37.2920 N   0  0  0  0  0  0  0  0  0  0  0  0
   42.2180   30.9640   36.7430 C   0  0  0  0  0  0  0  0  0  0  0  0
   42.8100   31.9600   37.4590 N   0  0  0  0  0  0  0  0  0  0  0  0
   42.5200   32.0910   38.7660 C   0  0  0  0  0  0  0  0  0  0  0  0
   43.0480   33.0540   39.6010 C   0  0  0  0  0  0  0  0  0  0  0  0
   42.7140   33.1470   40.9380 C   0  0  0  0  0  0  0  0  0  0  0  0
   41.8030   32.2270   41.4710 C   0  0  0  0  0  0  0  0  0  0  0  0
   41.2830   31.2700   40.6320 C   0  0  0  0  0  0  0  0  0  0  0  0
   41.6310   31.2050   39.3200 C   0  0  0  0  0  0  0  0  0  0  0  0
   37.6360   30.5610   40.2470 C   0  0  0  0  0  0  0  0  0  0  0  0
   37.0710   31.7750   40.5790 C   0  0  0  0  0  0  0  0  0  0  0  0
   37.0230   32.7640   39.6080 C   0  0  0  0  0  0  0  0  0  0  0  0
   37.5370   32.5060   38.3410 C   0  0  0  0  0  0  0  0  0  0  0  0
   38.0980   31.2770   38.0340 C   0  0  0  0  0  0  0  0  0  0  0  0
   38.1530   30.3030   38.9770 C   0  0  0  0  0  0  0  0  0  0  0  0
   38.5880   28.6300   43.1990 C   0  0  0  0  0  0  0  0  0  0  0  0
   37.7180   27.5310   43.1810 C   0  0  0  0  0  0  0  0  0  0  0  0
   36.7980   27.4680   42.1380 C   0  0  0  0  0  0  0  0  0  0  0  0
   36.8270   28.4630   41.2420 N   0  0  0  0  0  0  0  0  0  0  0  0
   37.6690   29.5170   41.2660 C   0  0  0  0  0  0  0  0  0  0  0  0
   38.5280   29.5620   42.2550 N   0  0  0  0  0  0  0  0  0  0  0  0
   38.1100   27.1997   38.2790 H   0  0  0  0  0  0  0  0  0  0  0  0
   37.6774   28.4183   36.9490 H   0  0  0  0  0  0  0  0  0  0  0  0
   39.3962   27.9593   35.7643 H   0  0  0  0  0  0  0  0  0  0  0  0
   39.4064   26.4133   36.7326 H   0  0  0  0  0  0  0  0  0  0  0  0
   41.4911   27.0676   36.9398 H   0  0  0  0  0  0  0  0  0  0  0  0
   40.2577   26.9840   39.1089 H   0  0  0  0  0  0  0  0  0  0  0  0
   41.8249   27.8076   39.1348 H   0  0  0  0  0  0  0  0  0  0  0  0
   39.9108   29.2883   40.1441 H   0  0  0  0  0  0  0  0  0  0  0  0
   42.4640   30.8668   35.6753 H   0  0  0  0  0  0  0  0  0  0  0  0
   43.7645   33.7775   39.1848 H   0  0  0  0  0  0  0  0  0  0  0  0
   43.1557   33.9296   41.5725 H   0  0  0  0  0  0  0  0  0  0  0  0
   41.5116   32.2687   42.5309 H   0  0  0  0  0  0  0  0  0  0  0  0
   40.5667   30.5379   41.0331 H   0  0  0  0  0  0  0  0  0  0  0  0
   36.6692   31.9538   41.5873 H   0  0  0  0  0  0  0  0  0  0  0  0
   36.5819   33.7451   39.8378 H   0  0  0  0  0  0  0  0  0  0  0  0
   37.4973   33.2904   37.5708 H   0  0  0  0  0  0  0  0  0  0  0  0
   38.4985   31.0910   37.0265 H   0  0  0  0  0  0  0  0  0  0  0  0
   39.3302   28.7216   44.0057 H   0  0  0  0  0  0  0  0  0  0  0  0
   37.7604   26.7525   43.9570 H   0  0  0  0  0  0  0  0  0  0  0  0
   36.0801   26.6389   42.0537 H   0  0  0  0  0  0  0  0  0  0  0  0
  1 22  1  0
  1  6  1  0
  2  1  1  0
  3  4  1  0
  3  2  1  0
  4  5  1  0
  5  6  1  0
  7  6  1  0
  7 16  1  0
  8  7  2  0
  9  8  1  0
  9 10  2  0
 10 11  1  0
 11 16  2  0
 11 12  1  0
 12 13  2  0
 13 14  1  0
 15 14  2  0
 16 15  1  0
 17 18  2  0
 17 27  1  0
 19 18  1  0
 20 19  2  0
 21 20  1  0
 21 22  2  0
 22 17  1  0
 24 23  2  0
 25 24  1  0
 26 27  1  0
 26 25  2  0
 27 28  2  0
 28 23  1  0
  2 29  1  0
  2 30  1  0
  3 31  1  0
  3 32  1  0
  4 33  1  0
  5 34  1  0
  5 35  1  0
  6 36  1  1
  9 37  1  0
 12 38  1  0
 13 39  1  0
 14 40  1  0
 15 41  1  0
 18 42  1  0
 19 43  1  0
 20 44  1  0
 21 45  1  0
 23 46  1  0
 24 47  1  0
 25 48  1  0
M  ISO  8  29  13  30  13  31  13  32  13  33   5  34  13  35  13  36  13
M  ISO  8  37  14  38  14  39  14  40  14  41  14  42  14  43  14  44  14
M  ISO  4  45  14  46  14  47  14  48  14
M  END
>  <minimizedAffinity>  (1) 
-5.40472364

>  <minimizedRMSD>  (1) 
4.78859377

$$$$
