
     RDKit          3D

 35 37  0  0  1  0  0  0  0  0999 V2000
   37.4150   31.4620   39.9870 C   0  0  0  0  0  0  0  0  0  0  0  0
   37.2540   32.8030   39.7130 C   0  0  0  0  0  0  0  0  0  0  0  0
   38.2130   33.6920   40.1690 C   0  0  0  0  0  0  0  0  0  0  0  0
   39.2910   33.2170   40.8750 C   0  0  0  0  0  0  0  0  0  0  0  0
   39.4470   31.8650   41.1470 C   0  0  0  0  0  0  0  0  0  0  0  0
   38.5080   30.9860   40.7040 C   0  0  0  0  0  0  0  0  0  0  0  0
   38.8080   29.6590   41.0870 N   0  0  0  0  0  0  0  0  0  0  0  0
   39.5550   28.5410   40.5630 C   0  0  0  0  0  0  0  0  0  0  0  0
   40.2670   27.6910   41.5500 C   0  0  0  0  0  0  0  0  0  0  0  0
   39.7260   27.7720   42.8780 N   0  0  0  0  0  0  0  0  0  0  0  0
   38.3060   28.0420   42.7920 C   0  0  0  0  0  0  0  0  0  0  0  0
   38.1310   29.4660   42.3650 C   0  0  1  0  0  0  0  0  0  0  0  0
   38.6950   30.2720   43.3110 O   0  0  0  0  0  0  0  0  0  0  0  0
   34.5800   29.1610   39.8820 C   0  0  0  0  0  0  0  0  0  0  0  0
   34.5180   28.7610   38.5480 C   0  0  0  0  0  0  0  0  0  0  0  0
   35.4650   29.2920   37.6750 C   0  0  0  0  0  0  0  0  0  0  0  0
   36.3550   30.1440   38.1980 N   0  0  0  0  0  0  0  0  0  0  0  0
   36.4070   30.5270   39.4910 C   0  0  0  0  0  0  0  0  0  0  0  0
   35.5080   30.0170   40.2950 N   0  0  0  0  0  0  0  0  0  0  0  0
   36.3825   33.1596   39.1443 H   0  0  0  0  0  0  0  0  0  0  0  0
   38.1122   34.7687   39.9676 H   0  0  0  0  0  0  0  0  0  0  0  0
   40.0507   33.9267   41.2343 H   0  0  0  0  0  0  0  0  0  0  0  0
   40.3195   31.5084   41.7140 H   0  0  0  0  0  0  0  0  0  0  0  0
   38.8507   27.8971   40.0159 H   0  0  0  0  0  0  0  0  0  0  0  0
   40.3466   28.9882   39.9438 H   0  0  0  0  0  0  0  0  0  0  0  0
   40.2081   26.6452   41.2142 H   0  0  0  0  0  0  0  0  0  0  0  0
   41.3029   28.0573   41.6019 H   0  0  0  0  0  0  0  0  0  0  0  0
   39.8788   26.8792   43.3684 H   0  0  0  0  0  0  0  0  0  0  0  0
   37.8425   27.3712   42.0536 H   0  0  0  0  0  0  0  0  0  0  0  0
   37.8252   27.8735   43.7669 H   0  0  0  0  0  0  0  0  0  0  0  0
   37.0643   29.7111   42.2550 H   0  0  0  0  0  0  0  0  0  0  0  0
   38.4604   29.9368   44.2125 H   0  0  0  0  0  0  0  0  0  0  0  0
   33.8505   28.7624   40.6024 H   0  0  0  0  0  0  0  0  0  0  0  0
   33.7514   28.0538   38.1984 H   0  0  0  0  0  0  0  0  0  0  0  0
   35.4805   29.0242   36.6082 H   0  0  0  0  0  0  0  0  0  0  0  0
  1  6  1  0
  2  1  2  0
  2  3  1  0
  3  4  2  0
  4  5  1  0
  6  7  1  0
  6  5  2  0
  7 12  1  0
  8  7  1  0
  8  9  1  0
  9 10  1  0
 11 10  1  0
 12 11  1  0
 12 13  1  0
 14 19  2  0
 15 14  1  0
 16 17  1  0
 16 15  2  0
 17 18  2  0
 18  1  1  0
 18 19  1  0
  2 20  1  0
  3 21  1  0
  4 22  1  0
  5 23  1  0
  8 24  1  0
  8 25  1  0
  9 26  1  0
  9 27  1  0
 10 28  1  0
 11 29  1  0
 11 30  1  0
 12 31  1  6
 13 32  1  0
 14 33  1  0
 15 34  1  0
 16 35  1  0
M  ISO  8  20  14  21  14  22  14  23  14  24  13  25  13  26  13  27  13
M  ISO  8  28   5  29  13  30  13  31  13  32   3  33  14  34  14  35  14
M  END
>  <minimizedAffinity>  (1) 
-4.97718143

>  <minimizedRMSD>  (1) 
0.262141734

$$$$
