
     RDKit          3D

 46 48  0  0  1  0  0  0  0  0999 V2000
   39.4570   29.0540   39.8890 C   0  0  0  0  0  0  0  0  0  0  0  0
   40.3430   30.1040   39.9140 C   0  0  0  0  0  0  0  0  0  0  0  0
   41.4380   30.0280   40.7590 C   0  0  0  0  0  0  0  0  0  0  0  0
   41.6110   28.9120   41.5480 C   0  0  0  0  0  0  0  0  0  0  0  0
   40.7100   27.8610   41.5150 C   0  0  0  0  0  0  0  0  0  0  0  0
   39.6250   27.9440   40.6760 C   0  0  0  0  0  0  0  0  0  0  0  0
   38.7830   26.8040   40.8210 N   0  0  0  0  0  0  0  0  0  0  0  0
   38.6330   25.5860   40.0610 C   0  0  0  0  0  0  0  0  0  0  0  0
   38.4410   24.3340   40.8560 C   0  0  0  0  0  0  0  0  0  0  0  0
   37.8710   24.5790   42.1660 N   0  0  0  0  0  0  0  0  0  0  0  0
   37.0850   25.7790   42.0650 C   0  0  0  0  0  0  0  0  0  0  0  0
   38.0500   26.9610   42.0310 C   0  0  2  0  0  0  0  0  0  0  0  0
   37.2880   28.0340   42.5570 C   0  0  0  0  0  0  0  0  0  0  0  0
   37.8990   29.2650   43.1260 C   0  0  0  0  0  0  0  0  0  0  0  0
   36.0990   28.4100   41.7200 C   0  0  0  0  0  0  0  0  0  0  0  0
   36.6270   27.4300   43.8450 C   0  0  0  0  0  0  0  0  0  0  0  0
   36.3070   30.0840   38.3420 C   0  0  0  0  0  0  0  0  0  0  0  0
   36.1670   29.2440   37.2480 C   0  0  0  0  0  0  0  0  0  0  0  0
   37.1820   28.3030   37.0440 C   0  0  0  0  0  0  0  0  0  0  0  0
   38.1950   28.2970   37.9210 N   0  0  0  0  0  0  0  0  0  0  0  0
   38.3290   29.1100   38.9780 C   0  0  0  0  0  0  0  0  0  0  0  0
   37.3640   29.9590   39.1180 N   0  0  0  0  0  0  0  0  0  0  0  0
   40.1860   30.9865   39.2763 H   0  0  0  0  0  0  0  0  0  0  0  0
   42.1644   30.8530   40.7997 H   0  0  0  0  0  0  0  0  0  0  0  0
   42.4820   28.8547   42.2174 H   0  0  0  0  0  0  0  0  0  0  0  0
   40.8603   26.9750   42.1494 H   0  0  0  0  0  0  0  0  0  0  0  0
   37.7582   25.7049   39.4048 H   0  0  0  0  0  0  0  0  0  0  0  0
   39.5845   25.4529   39.5253 H   0  0  0  0  0  0  0  0  0  0  0  0
   37.7678   23.6650   40.2999 H   0  0  0  0  0  0  0  0  0  0  0  0
   39.4332   23.8836   41.0069 H   0  0  0  0  0  0  0  0  0  0  0  0
   37.2740   23.7876   42.4456 H   0  0  0  0  0  0  0  0  0  0  0  0
   36.4850   25.7580   41.1433 H   0  0  0  0  0  0  0  0  0  0  0  0
   36.3990   25.8647   42.9206 H   0  0  0  0  0  0  0  0  0  0  0  0
   38.9410   27.1347   42.6523 H   0  0  0  0  0  0  0  0  0  0  0  0
   37.8732   29.2131   44.2245 H   0  0  0  0  0  0  0  0  0  0  0  0
   38.9423   29.3468   42.7872 H   0  0  0  0  0  0  0  0  0  0  0  0
   37.3333   30.1454   42.7872 H   0  0  0  0  0  0  0  0  0  0  0  0
   35.2577   28.6761   42.3768 H   0  0  0  0  0  0  0  0  0  0  0  0
   36.3551   29.2710   41.0851 H   0  0  0  0  0  0  0  0  0  0  0  0
   35.8135   27.5583   41.0851 H   0  0  0  0  0  0  0  0  0  0  0  0
   37.1011   27.8632   44.7380 H   0  0  0  0  0  0  0  0  0  0  0  0
   35.5523   27.6646   43.8501 H   0  0  0  0  0  0  0  0  0  0  0  0
   36.7640   26.3386   43.8501 H   0  0  0  0  0  0  0  0  0  0  0  0
   35.5442   30.8461   38.5595 H   0  0  0  0  0  0  0  0  0  0  0  0
   35.3007   29.3139   36.5737 H   0  0  0  0  0  0  0  0  0  0  0  0
   37.1498   27.5984   36.1999 H   0  0  0  0  0  0  0  0  0  0  0  0
  1  2  2  0
  1  6  1  0
  2  3  1  0
  3  4  2  0
  5  4  1  0
  6  7  1  0
  6  5  2  0
  7 12  1  0
  8  7  1  0
  8  9  1  0
  9 10  1  0
 11 10  1  0
 12 11  1  0
 12 13  1  0
 13 14  1  0
 13 16  1  0
 15 13  1  0
 17 22  2  0
 18 17  1  0
 19 18  2  0
 19 20  1  0
 20 21  2  0
 21 22  1  0
 21  1  1  0
  2 23  1  0
  3 24  1  0
  4 25  1  0
  5 26  1  0
  8 27  1  0
  8 28  1  0
  9 29  1  0
  9 30  1  0
 10 31  1  0
 11 32  1  0
 11 33  1  0
 12 34  1  1
 14 35  1  0
 14 36  1  0
 14 37  1  0
 15 38  1  0
 15 39  1  0
 15 40  1  0
 16 41  1  0
 16 42  1  0
 16 43  1  0
 17 44  1  0
 18 45  1  0
 19 46  1  0
M  ISO  8  23  14  24  14  25  14  26  14  27  13  28  13  29  13  30  13
M  ISO  8  31   5  32  13  33  13  34  13  35   8  36   8  37   8  38   8
M  ISO  8  39   8  40   8  41   8  42   8  43   8  44  14  45  14  46  14
M  END
>  <minimizedAffinity>  (1) 
-4.54826593

>  <minimizedRMSD>  (1) 
3.31286287

$$$$
