
     RDKit          3D

 37 39  0  0  1  0  0  0  0  0999 V2000
   37.5400   31.2500   39.8850 C   0  0  0  0  0  0  0  0  0  0  0  0
   37.3560   32.6190   39.8890 C   0  0  0  0  0  0  0  0  0  0  0  0
   38.3790   33.4270   40.3360 C   0  0  0  0  0  0  0  0  0  0  0  0
   39.5500   32.8530   40.7640 C   0  0  0  0  0  0  0  0  0  0  0  0
   39.7370   31.4710   40.7600 C   0  0  0  0  0  0  0  0  0  0  0  0
   38.7150   30.6750   40.3140 C   0  0  0  0  0  0  0  0  0  0  0  0
   39.0670   29.3050   40.3840 N   0  0  0  0  0  0  0  0  0  0  0  0
   39.3850   28.2390   39.4780 C   0  0  0  0  0  0  0  0  0  0  0  0
   40.4420   27.2900   39.9070 C   0  0  0  0  0  0  0  0  0  0  0  0
   40.5860   27.2070   41.3350 N   0  0  0  0  0  0  0  0  0  0  0  0
   39.3120   27.5100   41.9670 C   0  0  0  0  0  0  0  0  0  0  0  0
   39.1030   28.9810   41.8000 C   0  0  2  0  0  0  0  0  0  0  0  0
   38.1180   29.6060   42.6830 C   0  0  0  0  0  0  0  0  0  0  0  0
   34.5480   29.1400   39.8570 C   0  0  0  0  0  0  0  0  0  0  0  0
   34.3920   28.7970   38.5150 C   0  0  0  0  0  0  0  0  0  0  0  0
   35.3290   29.3010   37.6170 C   0  0  0  0  0  0  0  0  0  0  0  0
   36.3080   30.0750   38.1140 N   0  0  0  0  0  0  0  0  0  0  0  0
   36.4580   30.4050   39.4070 C   0  0  0  0  0  0  0  0  0  0  0  0
   35.5550   29.9110   40.2130 N   0  0  0  0  0  0  0  0  0  0  0  0
   36.4088   33.0569   39.5412 H   0  0  0  0  0  0  0  0  0  0  0  0
   38.2584   34.5203   40.3496 H   0  0  0  0  0  0  0  0  0  0  0  0
   40.3640   33.5014   41.1203 H   0  0  0  0  0  0  0  0  0  0  0  0
   40.6832   31.0302   41.1069 H   0  0  0  0  0  0  0  0  0  0  0  0
   39.7102   28.6933   38.5304 H   0  0  0  0  0  0  0  0  0  0  0  0
   38.4674   27.6363   39.4089 H   0  0  0  0  0  0  0  0  0  0  0  0
   40.1907   26.2904   39.5227 H   0  0  0  0  0  0  0  0  0  0  0  0
   41.3960   27.6610   39.5043 H   0  0  0  0  0  0  0  0  0  0  0  0
   40.8814   26.2554   41.5959 H   0  0  0  0  0  0  0  0  0  0  0  0
   38.5008   26.9515   41.4770 H   0  0  0  0  0  0  0  0  0  0  0  0
   39.3131   27.2233   43.0290 H   0  0  0  0  0  0  0  0  0  0  0  0
   39.9800   29.5053   42.2074 H   0  0  0  0  0  0  0  0  0  0  0  0
   38.3996   29.4273   43.7312 H   0  0  0  0  0  0  0  0  0  0  0  0
   38.0881   30.6887   42.4908 H   0  0  0  0  0  0  0  0  0  0  0  0
   37.1257   29.1719   42.4908 H   0  0  0  0  0  0  0  0  0  0  0  0
   33.8374   28.7706   40.6111 H   0  0  0  0  0  0  0  0  0  0  0  0
   33.5638   28.1554   38.1797 H   0  0  0  0  0  0  0  0  0  0  0  0
   35.2699   29.0742   36.5423 H   0  0  0  0  0  0  0  0  0  0  0  0
  1  2  2  0
  1  6  1  0
  2  3  1  0
  3  4  2  0
  5  4  1  0
  6  7  1  0
  6  5  2  0
  7 12  1  0
  8  9  1  0
  8  7  1  0
  9 10  1  0
 10 11  1  0
 12 11  1  0
 12 13  1  0
 14 19  2  0
 15 14  1  0
 16 17  1  0
 16 15  2  0
 17 18  2  0
 18  1  1  0
 18 19  1  0
  2 20  1  0
  3 21  1  0
  4 22  1  0
  5 23  1  0
  8 24  1  0
  8 25  1  0
  9 26  1  0
  9 27  1  0
 10 28  1  0
 11 29  1  0
 11 30  1  0
 12 31  1  1
 13 32  1  0
 13 33  1  0
 13 34  1  0
 14 35  1  0
 15 36  1  0
 16 37  1  0
M  ISO  8  20  14  21  14  22  14  23  14  24  13  25  13  26  13  27  13
M  ISO  8  28   5  29  13  30  13  31  13  32   8  33   8  34   8  35  14
M  ISO  2  36  14  37  14
M  END
>  <minimizedAffinity>  (1) 
-4.48715305

>  <minimizedRMSD>  (1) 
1.01263249

$$$$
