
     RDKit          3D

 29 32  0  0  0  0  0  0  0  0999 V2000
   39.1750   30.2250   41.3350 C   0  0  0  0  0  0  0  0  0  0  0  0
   39.5990   29.9950   40.0540 N   0  0  0  0  0  0  0  0  0  0  0  0
   40.3310   30.9810   39.6370 O   0  0  0  0  0  0  0  0  0  0  0  0
   40.4200   31.8810   40.5930 C   0  0  0  0  0  0  0  0  0  0  0  0
   39.7050   31.4440   41.6840 N   0  0  0  0  0  0  0  0  0  0  0  0
   41.1080   33.1700   40.6680 C   0  0  0  0  0  0  0  0  0  0  0  0
   42.4170   33.5070   40.9420 C   0  0  0  0  0  0  0  0  0  0  0  0
   42.5250   34.8590   40.8830 N   0  0  0  0  0  0  0  0  0  0  0  0
   41.3190   35.3700   40.5820 C   0  0  0  0  0  0  0  0  0  0  0  0
   41.0030   36.7070   40.4290 C   0  0  0  0  0  0  0  0  0  0  0  0
   39.7000   37.0560   40.1160 C   0  0  0  0  0  0  0  0  0  0  0  0
   38.7870   36.0260   39.9740 C   0  0  0  0  0  0  0  0  0  0  0  0
   39.1110   34.6830   40.1280 C   0  0  0  0  0  0  0  0  0  0  0  0
   40.4110   34.3390   40.4410 C   0  0  0  0  0  0  0  0  0  0  0  0
   37.3860   28.3440   43.9670 C   0  0  0  0  0  0  0  0  0  0  0  0
   36.6900   27.4190   43.1740 C   0  0  0  0  0  0  0  0  0  0  0  0
   36.8390   27.4490   41.7860 C   0  0  0  0  0  0  0  0  0  0  0  0
   37.6820   28.4100   41.2630 N   0  0  0  0  0  0  0  0  0  0  0  0
   38.3360   29.2850   42.0560 C   0  0  0  0  0  0  0  0  0  0  0  0
   38.1770   29.2340   43.3770 N   0  0  0  0  0  0  0  0  0  0  0  0
   43.2314   32.8032   41.1688 H   0  0  0  0  0  0  0  0  0  0  0  0
   43.3859   35.4016   41.0421 H   0  0  0  0  0  0  0  0  0  0  0  0
   41.7743   37.4813   40.5539 H   0  0  0  0  0  0  0  0  0  0  0  0
   39.4034   38.1072   39.9858 H   0  0  0  0  0  0  0  0  0  0  0  0
   37.7470   36.2843   39.7254 H   0  0  0  0  0  0  0  0  0  0  0  0
   38.3429   33.9057   40.0023 H   0  0  0  0  0  0  0  0  0  0  0  0
   37.2784   28.3326   45.0617 H   0  0  0  0  0  0  0  0  0  0  0  0
   36.0305   26.6742   43.6433 H   0  0  0  0  0  0  0  0  0  0  0  0
   36.3076   26.7376   41.1367 H   0  0  0  0  0  0  0  0  0  0  0  0
  1  5  1  0
  1 19  1  0
  2  1  2  0
  3  2  1  0
  3  4  1  0
  4  6  1  0
  4  5  2  0
  6  7  2  0
  8  7  1  0
  9  8  1  0
 10  9  2  0
 11 10  1  0
 12 11  2  0
 12 13  1  0
 13 14  2  0
 14  9  1  0
 14  6  1  0
 16 15  2  0
 17 16  1  0
 18 17  2  0
 18 19  1  0
 19 20  2  0
 20 15  1  0
  7 21  1  0
  8 22  1  0
 10 23  1  0
 11 24  1  0
 12 25  1  0
 13 26  1  0
 15 27  1  0
 16 28  1  0
 17 29  1  0
M  ISO  8  21  14  22   9  23  14  24  14  25  14  26  14  27  14  28  14
M  ISO  1  29  14
M  END
>  <minimizedAffinity>  (1) 
-5.95385647

>  <minimizedRMSD>  (1) 
2.37487411

$$$$
