
     RDKit          3D

 28 30  0  0  0  0  0  0  0  0999 V2000
   37.6370   29.7790   41.2120 C   0  0  0  0  0  0  0  0  0  0  0  0
   36.4870   30.5110   41.1300 N   0  0  0  0  0  0  0  0  0  0  0  0
   36.7780   31.7550   40.8480 O   0  0  0  0  0  0  0  0  0  0  0  0
   38.0800   31.8920   40.7350 C   0  0  0  0  0  0  0  0  0  0  0  0
   38.6370   30.6780   40.9570 N   0  0  0  0  0  0  0  0  0  0  0  0
   38.7910   33.0830   40.4370 N   0  0  0  0  0  0  0  0  0  0  0  0
   40.0860   33.1940   40.7370 C   0  0  0  0  0  0  0  0  0  0  0  0
   40.8210   34.3160   40.4730 C   0  0  0  0  0  0  0  0  0  0  0  0
   42.2590   34.2910   40.8670 C   0  0  0  0  0  0  0  0  0  0  0  0
   40.1740   35.3670   39.8700 C   0  0  0  0  0  0  0  0  0  0  0  0
   40.8530   36.3970   39.6300 O   0  0  0  0  0  0  0  0  0  0  0  0
   38.8630   35.2490   39.5700 N   0  0  0  0  0  0  0  0  0  0  0  0
   38.1620   34.1130   39.8480 C   0  0  0  0  0  0  0  0  0  0  0  0
   36.9540   34.0910   39.5340 O   0  0  0  0  0  0  0  0  0  0  0  0
   38.2130   26.1400   41.1820 C   0  0  0  0  0  0  0  0  0  0  0  0
   37.4100   25.7380   42.2620 C   0  0  0  0  0  0  0  0  0  0  0  0
   36.6930   26.7200   42.9730 C   0  0  0  0  0  0  0  0  0  0  0  0
   36.8310   28.0220   42.5530 N   0  0  0  0  0  0  0  0  0  0  0  0
   37.6100   28.3590   41.5150 C   0  0  0  0  0  0  0  0  0  0  0  0
   38.3010   27.4320   40.8280 N   0  0  0  0  0  0  0  0  0  0  0  0
   40.5865   32.3418   41.2200 H   0  0  0  0  0  0  0  0  0  0  0  0
   42.3386   34.2896   41.9641 H   0  0  0  0  0  0  0  0  0  0  0  0
   42.7340   33.3845   40.4638 H   0  0  0  0  0  0  0  0  0  0  0  0
   42.7652   35.1805   40.4638 H   0  0  0  0  0  0  0  0  0  0  0  0
   38.3792   36.0385   39.1189 H   0  0  0  0  0  0  0  0  0  0  0  0
   38.7787   25.3843   40.6173 H   0  0  0  0  0  0  0  0  0  0  0  0
   37.3424   24.6777   42.5468 H   0  0  0  0  0  0  0  0  0  0  0  0
   36.0510   26.4569   43.8266 H   0  0  0  0  0  0  0  0  0  0  0  0
  1 19  1  0
  2  1  2  0
  3  2  1  0
  4  3  1  0
  4  5  2  0
  5  1  1  0
  6  4  1  0
  6  7  1  0
  8  7  2  0
  8  9  1  0
 10  8  1  0
 11 10  2  0
 12 13  1  0
 12 10  1  0
 13  6  1  0
 14 13  2  0
 15 16  2  0
 16 17  1  0
 18 17  2  0
 19 18  1  0
 20 15  1  0
 20 19  2  0
  7 21  1  0
  9 22  1  0
  9 23  1  0
  9 24  1  0
 12 25  1  0
 15 26  1  0
 16 27  1  0
 17 28  1  0
M  ISO  8  21  14  22   8  23   8  24   8  25   9  26  14  27  14  28  14
M  END
>  <minimizedAffinity>  (1) 
-5.93226528

>  <minimizedRMSD>  (1) 
1.61350787

$$$$
