
     RDKit          3D

 25 27  0  0  0  0  0  0  0  0999 V2000
   37.7430   30.0090   41.2320 C   0  0  0  0  0  0  0  0  0  0  0  0
   36.6540   30.7590   40.9450 N   0  0  0  0  0  0  0  0  0  0  0  0
   37.0000   31.9800   40.6510 O   0  0  0  0  0  0  0  0  0  0  0  0
   38.3170   32.0790   40.7310 C   0  0  0  0  0  0  0  0  0  0  0  0
   38.8170   30.8530   41.0960 N   0  0  0  0  0  0  0  0  0  0  0  0
   38.9980   33.2840   40.4690 N   0  0  0  0  0  0  0  0  0  0  0  0
   40.3220   33.4120   40.7630 C   0  0  0  0  0  0  0  0  0  0  0  0
   40.9430   34.6150   40.4850 C   0  0  0  0  0  0  0  0  0  0  0  0
   40.2360   35.6520   39.9270 C   0  0  0  0  0  0  0  0  0  0  0  0
   40.8010   36.7530   39.6710 O   0  0  0  0  0  0  0  0  0  0  0  0
   38.9330   35.4580   39.6610 N   0  0  0  0  0  0  0  0  0  0  0  0
   38.2980   34.2950   39.9210 C   0  0  0  0  0  0  0  0  0  0  0  0
   37.0730   34.2150   39.6350 O   0  0  0  0  0  0  0  0  0  0  0  0
   38.0400   26.3290   41.3640 C   0  0  0  0  0  0  0  0  0  0  0  0
   37.2550   26.0390   42.4900 C   0  0  0  0  0  0  0  0  0  0  0  0
   36.6490   27.1040   43.1710 C   0  0  0  0  0  0  0  0  0  0  0  0
   36.8690   28.3660   42.6810 N   0  0  0  0  0  0  0  0  0  0  0  0
   37.6310   28.6110   41.5930 C   0  0  0  0  0  0  0  0  0  0  0  0
   38.2120   27.5920   40.9390 N   0  0  0  0  0  0  0  0  0  0  0  0
   40.8830   32.5784   41.2106 H   0  0  0  0  0  0  0  0  0  0  0  0
   42.0116   34.7430   40.7124 H   0  0  0  0  0  0  0  0  0  0  0  0
   38.3956   36.2297   39.2407 H   0  0  0  0  0  0  0  0  0  0  0  0
   38.5244   25.5059   40.8181 H   0  0  0  0  0  0  0  0  0  0  0  0
   37.1184   25.0018   42.8300 H   0  0  0  0  0  0  0  0  0  0  0  0
   36.0239   26.9348   44.0602 H   0  0  0  0  0  0  0  0  0  0  0  0
  1 18  1  0
  2  1  2  0
  3  4  1  0
  3  2  1  0
  4  5  2  0
  5  1  1  0
  6  4  1  0
  6  7  1  0
  8  7  2  0
  9  8  1  0
 10  9  2  0
 11 12  1  0
 11  9  1  0
 12  6  1  0
 13 12  2  0
 14 15  2  0
 15 16  1  0
 17 16  2  0
 18 17  1  0
 19 14  1  0
 19 18  2  0
  7 20  1  0
  8 21  1  0
 11 22  1  0
 14 23  1  0
 15 24  1  0
 16 25  1  0
M  ISO  6  20  14  21  14  22   9  23  14  24  14  25  14
M  END
>  <minimizedAffinity>  (1) 
-5.84976673

>  <minimizedRMSD>  (1) 
1.50281537

$$$$
