
     RDKit          3D

 31 33  0  0  0  0  0  0  0  0999 V2000
   38.5350   30.7600   41.5680 C   0  0  0  0  0  0  0  0  0  0  0  0
   37.3620   31.2000   41.0330 N   0  0  0  0  0  0  0  0  0  0  0  0
   37.5480   32.3260   40.3860 O   0  0  0  0  0  0  0  0  0  0  0  0
   38.8400   32.6510   40.4810 C   0  0  0  0  0  0  0  0  0  0  0  0
   39.4680   31.6960   41.2070 N   0  0  0  0  0  0  0  0  0  0  0  0
   39.6630   27.6780   43.2430 C   0  0  0  0  0  0  0  0  0  0  0  0
   38.4580   27.2290   43.8190 C   0  0  0  0  0  0  0  0  0  0  0  0
   37.2920   27.9910   43.6200 C   0  0  0  0  0  0  0  0  0  0  0  0
   37.4410   29.1230   42.8690 N   0  0  0  0  0  0  0  0  0  0  0  0
   38.5910   29.5310   42.3320 C   0  0  0  0  0  0  0  0  0  0  0  0
   39.7200   28.8100   42.5140 N   0  0  0  0  0  0  0  0  0  0  0  0
   39.3900   33.8690   39.8600 C   0  0  0  0  0  0  0  0  0  0  0  0
   38.7670   35.0660   40.5380 C   0  0  0  0  0  0  0  0  0  0  0  0
   39.3030   36.3700   40.0120 C   0  0  0  0  0  0  0  0  0  0  0  0
   40.8000   36.3800   39.8930 C   0  0  0  0  0  0  0  0  0  0  0  0
   41.3660   35.1580   39.2370 C   0  0  0  0  0  0  0  0  0  0  0  0
   40.8930   33.9200   39.9530 C   0  0  0  0  0  0  0  0  0  0  0  0
   40.5804   27.0896   43.3921 H   0  0  0  0  0  0  0  0  0  0  0  0
   38.4295   26.3027   44.4115 H   0  0  0  0  0  0  0  0  0  0  0  0
   36.3208   27.6940   44.0427 H   0  0  0  0  0  0  0  0  0  0  0  0
   39.1463   33.8690   38.7873 H   0  0  0  0  0  0  0  0  0  0  0  0
   37.6799   35.0390   40.3724 H   0  0  0  0  0  0  0  0  0  0  0  0
   39.0146   35.0103   41.6083 H   0  0  0  0  0  0  0  0  0  0  0  0
   38.8704   36.5517   39.0171 H   0  0  0  0  0  0  0  0  0  0  0  0
   39.0232   37.1557   40.7292 H   0  0  0  0  0  0  0  0  0  0  0  0
   41.0943   37.2587   39.3004 H   0  0  0  0  0  0  0  0  0  0  0  0
   41.2010   36.4069   40.9169 H   0  0  0  0  0  0  0  0  0  0  0  0
   41.0344   35.1211   38.1888 H   0  0  0  0  0  0  0  0  0  0  0  0
   42.4643   35.2018   39.2808 H   0  0  0  0  0  0  0  0  0  0  0  0
   41.1998   33.9600   41.0086 H   0  0  0  0  0  0  0  0  0  0  0  0
   41.3333   33.0229   39.4932 H   0  0  0  0  0  0  0  0  0  0  0  0
  1 10  1  0
  2  1  2  0
  3  4  1  0
  3  2  1  0
  4  5  2  0
  5  1  1  0
  6  7  2  0
  8  7  1  0
  9  8  2  0
 10 11  2  0
 10  9  1  0
 11  6  1  0
 12 17  1  0
 12  4  1  0
 12 13  1  0
 14 13  1  0
 15 14  1  0
 16 15  1  0
 16 17  1  0
  6 18  1  0
  7 19  1  0
  8 20  1  0
 12 21  1  0
 13 22  1  0
 13 23  1  0
 14 24  1  0
 14 25  1  0
 15 26  1  0
 15 27  1  0
 16 28  1  0
 16 29  1  0
 17 30  1  0
 17 31  1  0
M  ISO  8  18  14  19  14  20  14  21  13  22  13  23  13  24  13  25  13
M  ISO  6  26  13  27  13  28  13  29  13  30  13  31  13
M  END
>  <minimizedAffinity>  (1) 
-5.3605175

>  <minimizedRMSD>  (1) 
0.544440627

$$$$
