
     RDKit          3D

 22 23  0  0  0  0  0  0  0  0999 V2000
   38.0210   30.6910   41.3060 C   0  0  0  0  0  0  0  0  0  0  0  0
   36.8260   30.9050   40.7180 N   0  0  0  0  0  0  0  0  0  0  0  0
   36.8430   32.0080   40.0270 O   0  0  0  0  0  0  0  0  0  0  0  0
   38.0350   32.5540   40.1330 C   0  0  0  0  0  0  0  0  0  0  0  0
   38.7880   31.7520   40.9260 N   0  0  0  0  0  0  0  0  0  0  0  0
   38.5160   33.7780   39.5430 N   0  0  0  0  0  0  0  0  0  0  0  0
   38.6960   34.9850   40.3120 C   0  0  0  0  0  0  0  0  0  0  0  0
   39.0810   34.7550   41.5420 N   0  0  0  0  0  0  0  0  0  0  0  0
   38.4260   36.2160   39.6120 N   0  0  0  0  0  0  0  0  0  0  0  0
   39.2620   35.4720   42.2480 H   0  0  0  0  0  0  0  0  0  0  0  0
   39.5680   27.8580   43.1040 C   0  0  0  0  0  0  0  0  0  0  0  0
   38.4600   27.3270   43.7820 C   0  0  0  0  0  0  0  0  0  0  0  0
   37.2340   27.9550   43.5990 C   0  0  0  0  0  0  0  0  0  0  0  0
   37.1760   29.0540   42.7700 N   0  0  0  0  0  0  0  0  0  0  0  0
   38.2760   29.5230   42.1410 C   0  0  0  0  0  0  0  0  0  0  0  0
   39.4840   28.9350   42.2980 N   0  0  0  0  0  0  0  0  0  0  0  0
   38.7389   33.7912   38.5375 H   0  0  0  0  0  0  0  0  0  0  0  0
   38.5331   37.1184   40.0969 H   0  0  0  0  0  0  0  0  0  0  0  0
   38.1260   36.1932   38.6269 H   0  0  0  0  0  0  0  0  0  0  0  0
   40.5472   27.3745   43.2360 H   0  0  0  0  0  0  0  0  0  0  0  0
   38.5583   26.4465   44.4340 H   0  0  0  0  0  0  0  0  0  0  0  0
   36.3305   27.5832   44.1044 H   0  0  0  0  0  0  0  0  0  0  0  0
  1 15  1  0
  2  1  2  0
  3  4  1  0
  3  2  1  0
  4  5  2  0
  5  1  1  0
  6  4  1  0
  6  7  1  0
  7  8  2  0
  8 10  1  0
  9  7  1  0
 11 12  2  0
 13 12  1  0
 14 13  2  0
 15 16  2  0
 15 14  1  0
 16 11  1  0
  6 17  1  0
  9 18  1  0
  9 19  1  0
 11 20  1  0
 12 21  1  0
 13 22  1  0
M  ISO  3  20  14  21  14  22  14
M  END
>  <minimizedAffinity>  (1) 
-5.33042526

>  <minimizedRMSD>  (1) 
0.469713628

$$$$
