
     RDKit          3D

 23 25  0  0  0  0  0  0  0  0999 V2000
   38.4440   30.8760   41.5940 C   0  0  0  0  0  0  0  0  0  0  0  0
   37.3150   31.2200   40.9320 N   0  0  0  0  0  0  0  0  0  0  0  0
   37.4420   32.3810   40.3590 O   0  0  0  0  0  0  0  0  0  0  0  0
   38.6430   32.8480   40.6150 C   0  0  0  0  0  0  0  0  0  0  0  0
   39.2980   31.9290   41.3860 N   0  0  0  0  0  0  0  0  0  0  0  0
   39.7090   27.7850   43.1510 C   0  0  0  0  0  0  0  0  0  0  0  0
   38.5120   27.2810   43.7280 C   0  0  0  0  0  0  0  0  0  0  0  0
   37.3190   28.0090   43.5680 C   0  0  0  0  0  0  0  0  0  0  0  0
   37.4120   29.1710   42.8520 N   0  0  0  0  0  0  0  0  0  0  0  0
   38.5570   29.6240   42.3160 C   0  0  0  0  0  0  0  0  0  0  0  0
   39.6960   28.9360   42.4650 N   0  0  0  0  0  0  0  0  0  0  0  0
   39.3520   34.0720   40.2540 C   0  0  0  0  0  0  0  0  0  0  0  0
   38.9130   35.3700   40.4150 C   0  0  0  0  0  0  0  0  0  0  0  0
   39.7370   36.4000   40.0080 C   0  0  0  0  0  0  0  0  0  0  0  0
   40.9320   36.1170   39.4710 N   0  0  0  0  0  0  0  0  0  0  0  0
   41.3630   34.8500   39.3140 C   0  0  0  0  0  0  0  0  0  0  0  0
   40.5630   33.8590   39.7090 N   0  0  0  0  0  0  0  0  0  0  0  0
   40.6502   27.2278   43.2680 H   0  0  0  0  0  0  0  0  0  0  0  0
   38.5183   26.3361   44.2911 H   0  0  0  0  0  0  0  0  0  0  0  0
   36.3656   27.6636   43.9943 H   0  0  0  0  0  0  0  0  0  0  0  0
   37.9281   35.5795   40.8579 H   0  0  0  0  0  0  0  0  0  0  0  0
   39.4152   37.4455   40.1236 H   0  0  0  0  0  0  0  0  0  0  0  0
   42.3479   34.6389   38.8720 H   0  0  0  0  0  0  0  0  0  0  0  0
  1 10  1  0
  2  1  2  0
  3  4  1  0
  3  2  1  0
  4  5  2  0
  5  1  1  0
  6  7  2  0
  8  7  1  0
  9  8  2  0
 10 11  2  0
 10  9  1  0
 11  6  1  0
 12 13  2  0
 12  4  1  0
 14 13  1  0
 15 14  2  0
 16 15  1  0
 16 17  2  0
 17 12  1  0
  6 18  1  0
  7 19  1  0
  8 20  1  0
 13 21  1  0
 14 22  1  0
 16 23  1  0
M  ISO  6  18  14  19  14  20  14  21  14  22  14  23  14
M  END
>  <minimizedAffinity>  (1) 
-5.32351208

>  <minimizedRMSD>  (1) 
0.830083609

$$$$
