
     RDKit          3D

 27 29  0  0  0  0  0  0  0  0999 V2000
   38.4340   30.9330   41.5450 C   0  0  0  0  0  0  0  0  0  0  0  0
   37.2800   31.2990   40.9470 N   0  0  0  0  0  0  0  0  0  0  0  0
   37.4020   32.4470   40.3590 O   0  0  0  0  0  0  0  0  0  0  0  0
   38.6480   32.8860   40.5450 C   0  0  0  0  0  0  0  0  0  0  0  0
   39.3180   31.9470   41.2930 N   0  0  0  0  0  0  0  0  0  0  0  0
   39.3220   34.0660   40.1300 N   0  0  0  0  0  0  0  0  0  0  0  0
   38.9090   35.4630   40.1420 C   0  0  0  0  0  0  0  0  0  0  0  0
   40.1080   36.1170   40.8030 C   0  0  0  0  0  0  0  0  0  0  0  0
   41.2890   35.1980   40.4840 C   0  0  0  0  0  0  0  0  0  0  0  0
   40.6570   34.1890   39.5550 C   0  0  0  0  0  0  0  0  0  0  0  0
   39.7220   27.8570   43.1320 C   0  0  0  0  0  0  0  0  0  0  0  0
   38.5260   27.3450   43.7080 C   0  0  0  0  0  0  0  0  0  0  0  0
   37.3290   28.0630   43.5360 C   0  0  0  0  0  0  0  0  0  0  0  0
   37.4020   29.2320   42.8090 N   0  0  0  0  0  0  0  0  0  0  0  0
   38.5650   29.6770   42.2810 C   0  0  0  0  0  0  0  0  0  0  0  0
   39.7110   28.9940   42.4420 N   0  0  0  0  0  0  0  0  0  0  0  0
   38.7514   35.8459   39.1229 H   0  0  0  0  0  0  0  0  0  0  0  0
   37.9534   35.6477   40.6545 H   0  0  0  0  0  0  0  0  0  0  0  0
   40.2774   37.1217   40.3883 H   0  0  0  0  0  0  0  0  0  0  0  0
   39.9641   36.2425   41.8863 H   0  0  0  0  0  0  0  0  0  0  0  0
   42.1004   35.7480   39.9849 H   0  0  0  0  0  0  0  0  0  0  0  0
   41.7570   34.7509   41.3734 H   0  0  0  0  0  0  0  0  0  0  0  0
   41.1946   33.2296   39.5770 H   0  0  0  0  0  0  0  0  0  0  0  0
   40.6651   34.4857   38.4958 H   0  0  0  0  0  0  0  0  0  0  0  0
   40.6659   27.3066   43.2587 H   0  0  0  0  0  0  0  0  0  0  0  0
   38.5374   26.4042   44.2778 H   0  0  0  0  0  0  0  0  0  0  0  0
   36.3788   27.7083   43.9617 H   0  0  0  0  0  0  0  0  0  0  0  0
  1 15  1  0
  2  1  2  0
  3  4  1  0
  3  2  1  0
  4  5  2  0
  5  1  1  0
  6  7  1  0
  6  4  1  0
  7  8  1  0
  9  8  1  0
 10  6  1  0
 10  9  1  0
 11 12  2  0
 13 12  1  0
 14 13  2  0
 15 16  2  0
 15 14  1  0
 16 11  1  0
  7 17  1  0
  7 18  1  0
  8 19  1  0
  8 20  1  0
  9 21  1  0
  9 22  1  0
 10 23  1  0
 10 24  1  0
 11 25  1  0
 12 26  1  0
 13 27  1  0
M  ISO  8  17  13  18  13  19  13  20  13  21  13  22  13  23  13  24  13
M  ISO  3  25  14  26  14  27  14
M  END
>  <minimizedAffinity>  (1) 
-5.21213531

>  <minimizedRMSD>  (1) 
0.378407717

$$$$
