
     RDKit          3D

 22 24  0  0  0  0  0  0  0  0999 V2000
   37.8690   31.1020   41.3190 C   0  0  0  0  0  0  0  0  0  0  0  0
   36.9280   31.7220   40.5610 N   0  0  0  0  0  0  0  0  0  0  0  0
   37.4000   32.8490   40.0790 O   0  0  0  0  0  0  0  0  0  0  0  0
   38.6380   32.9950   40.4990 C   0  0  0  0  0  0  0  0  0  0  0  0
   38.9540   31.9260   41.2690 N   0  0  0  0  0  0  0  0  0  0  0  0
   37.8890   28.2040   43.6020 C   0  0  0  0  0  0  0  0  0  0  0  0
   36.9200   27.3830   43.0080 C   0  0  0  0  0  0  0  0  0  0  0  0
   36.2880   27.8460   41.8420 C   0  0  0  0  0  0  0  0  0  0  0  0
   36.6650   29.0790   41.3620 N   0  0  0  0  0  0  0  0  0  0  0  0
   37.6060   29.8360   41.9710 C   0  0  0  0  0  0  0  0  0  0  0  0
   38.2030   29.3880   43.0800 N   0  0  0  0  0  0  0  0  0  0  0  0
   39.4730   34.1390   40.1550 C   0  0  0  0  0  0  0  0  0  0  0  0
   39.0910   35.4430   40.3690 C   0  0  0  0  0  0  0  0  0  0  0  0
   40.1200   36.2720   39.9270 C   0  0  0  0  0  0  0  0  0  0  0  0
   41.0900   35.3790   39.4570 C   0  0  0  0  0  0  0  0  0  0  0  0
   40.6670   34.1470   39.6110 O   0  0  0  0  0  0  0  0  0  0  0  0
   38.3989   27.8639   44.5155 H   0  0  0  0  0  0  0  0  0  0  0  0
   36.6624   26.4056   43.4420 H   0  0  0  0  0  0  0  0  0  0  0  0
   35.5205   27.2453   41.3319 H   0  0  0  0  0  0  0  0  0  0  0  0
   38.1397   35.7735   40.8116 H   0  0  0  0  0  0  0  0  0  0  0  0
   40.1606   37.3711   39.9435 H   0  0  0  0  0  0  0  0  0  0  0  0
   42.0596   35.6667   39.0243 H   0  0  0  0  0  0  0  0  0  0  0  0
  1 10  1  0
  2  1  2  0
  3  4  1  0
  3  2  1  0
  4  5  2  0
  5  1  1  0
  7  6  2  0
  8  7  1  0
  9  8  2  0
  9 10  1  0
 10 11  2  0
 11  6  1  0
 12 13  2  0
 12  4  1  0
 14 13  1  0
 15 16  1  0
 15 14  2  0
 16 12  1  0
  6 17  1  0
  7 18  1  0
  8 19  1  0
 13 20  1  0
 14 21  1  0
 15 22  1  0
M  ISO  6  17  14  18  14  19  14  20  14  21  14  22  14
M  END
>  <minimizedAffinity>  (1) 
-5.20988369

>  <minimizedRMSD>  (1) 
1.3791002

$$$$
