
     RDKit          3D

 18 19  0  0  0  0  0  0  0  0999 V2000
   40.0180   27.7170   42.9870 C   0  0  0  0  0  0  0  0  0  0  0  0
   39.0660   27.0430   43.7950 C   0  0  0  0  0  0  0  0  0  0  0  0
   37.7660   27.5320   43.8300 C   0  0  0  0  0  0  0  0  0  0  0  0
   37.4730   28.6470   43.0730 N   0  0  0  0  0  0  0  0  0  0  0  0
   38.4160   29.2520   42.3190 C   0  0  0  0  0  0  0  0  0  0  0  0
   39.6740   28.7960   42.2740 N   0  0  0  0  0  0  0  0  0  0  0  0
   37.9480   30.4220   41.5770 C   0  0  0  0  0  0  0  0  0  0  0  0
   36.6300   30.5320   41.2210 N   0  0  0  0  0  0  0  0  0  0  0  0
   36.4530   31.6510   40.5720 O   0  0  0  0  0  0  0  0  0  0  0  0
   37.5950   32.2940   40.4780 C   0  0  0  0  0  0  0  0  0  0  0  0
   38.5400   31.5470   41.0970 N   0  0  0  0  0  0  0  0  0  0  0  0
   37.8050   33.5700   39.8290 C   0  0  0  0  0  0  0  0  0  0  0  0
   38.9510   34.0800   39.9380 O   0  0  0  0  0  0  0  0  0  0  0  0
   36.8390   34.2220   39.1240 O   0  0  0  0  0  0  0  0  0  0  0  0
   41.0533   27.3474   42.9461 H   0  0  0  0  0  0  0  0  0  0  0  0
   39.3502   26.1553   44.3792 H   0  0  0  0  0  0  0  0  0  0  0  0
   36.9937   27.0445   44.4431 H   0  0  0  0  0  0  0  0  0  0  0  0
   35.9367   33.8242   39.0361 H   0  0  0  0  0  0  0  0  0  0  0  0
  1  2  2  0
  2  3  1  0
  4  3  2  0
  5  4  1  0
  6  5  2  0
  6  1  1  0
  7  5  1  0
  8  7  2  0
  9  8  1  0
 10  9  1  0
 10 11  2  0
 11  7  1  0
 12 13  2  0
 12 10  1  0
 14 12  1  0
  1 15  1  0
  2 16  1  0
  3 17  1  0
 14 18  1  0
M  ISO  4  15  14  16  14  17  14  18   3
M  END
>  <minimizedAffinity>  (1) 
-4.42673683

>  <minimizedRMSD>  (1) 
0.787901998

$$$$
