
     RDKit          3D

 24 25  0  0  0  0  0  0  0  0999 V2000
   39.6300   27.7450   43.1780 C   0  0  0  0  0  0  0  0  0  0  0  0
   38.3890   27.3250   43.6790 C   0  0  0  0  0  0  0  0  0  0  0  0
   37.2920   28.1610   43.4890 C   0  0  0  0  0  0  0  0  0  0  0  0
   37.5230   29.3340   42.8220 N   0  0  0  0  0  0  0  0  0  0  0  0
   38.7180   29.7090   42.3550 C   0  0  0  0  0  0  0  0  0  0  0  0
   39.7910   28.9050   42.5340 N   0  0  0  0  0  0  0  0  0  0  0  0
   38.7490   30.9870   41.6780 C   0  0  0  0  0  0  0  0  0  0  0  0
   37.7110   31.4210   40.9290 N   0  0  0  0  0  0  0  0  0  0  0  0
   37.9470   32.5910   40.4130 O   0  0  0  0  0  0  0  0  0  0  0  0
   39.1550   32.9780   40.8010 C   0  0  0  0  0  0  0  0  0  0  0  0
   39.6670   31.9950   41.5870 N   0  0  0  0  0  0  0  0  0  0  0  0
   39.9030   34.2310   40.4930 C   0  0  0  0  0  0  0  0  0  0  0  0
   40.7490   34.0340   39.2520 C   0  0  0  0  0  0  0  0  0  0  0  0
   38.9000   35.3410   40.1570 C   0  0  0  0  0  0  0  0  0  0  0  0
   40.5051   27.0940   43.3208 H   0  0  0  0  0  0  0  0  0  0  0  0
   38.2857   26.3648   44.2057 H   0  0  0  0  0  0  0  0  0  0  0  0
   36.2904   27.8926   43.8562 H   0  0  0  0  0  0  0  0  0  0  0  0
   40.5267   34.4882   41.3618 H   0  0  0  0  0  0  0  0  0  0  0  0
   41.7813   33.7936   39.5463 H   0  0  0  0  0  0  0  0  0  0  0  0
   40.3363   33.2079   38.6543 H   0  0  0  0  0  0  0  0  0  0  0  0
   40.7437   34.9574   38.6543 H   0  0  0  0  0  0  0  0  0  0  0  0
   38.5078   35.7751   41.0885 H   0  0  0  0  0  0  0  0  0  0  0  0
   39.4027   36.1243   39.5707 H   0  0  0  0  0  0  0  0  0  0  0  0
   38.0699   34.9200   39.5707 H   0  0  0  0  0  0  0  0  0  0  0  0
  1  2  2  0
  3  2  1  0
  4  3  2  0
  5  6  2  0
  5  4  1  0
  6  1  1  0
  7  5  1  0
  8  7  2  0
  9 10  1  0
  9  8  1  0
 10 11  2  0
 11  7  1  0
 12 10  1  0
 13 12  1  0
 14 12  1  0
  1 15  1  0
  2 16  1  0
  3 17  1  0
 12 18  1  0
 13 19  1  0
 13 20  1  0
 13 21  1  0
 14 22  1  0
 14 23  1  0
 14 24  1  0
M  ISO  8  15  14  16  14  17  14  18   8  19   8  20   8  21   8  22   8
M  ISO  2  23   8  24   8
M  END
>  <minimizedAffinity>  (1) 
-4.202672

>  <minimizedRMSD>  (1) 
0.776647568

$$$$
