
     RDKit          3D

 27 28  0  0  0  0  0  0  0  0999 V2000
   39.6450   27.6680   43.2740 C   0  0  0  0  0  0  0  0  0  0  0  0
   38.3650   27.3560   43.7590 C   0  0  0  0  0  0  0  0  0  0  0  0
   37.3350   28.2500   43.5060 C   0  0  0  0  0  0  0  0  0  0  0  0
   37.6350   29.3880   42.7900 N   0  0  0  0  0  0  0  0  0  0  0  0
   38.8800   29.6440   42.3440 C   0  0  0  0  0  0  0  0  0  0  0  0
   39.9000   28.7870   42.5800 N   0  0  0  0  0  0  0  0  0  0  0  0
   39.0330   30.8920   41.6020 C   0  0  0  0  0  0  0  0  0  0  0  0
   37.9380   31.5100   41.0620 N   0  0  0  0  0  0  0  0  0  0  0  0
   38.3050   32.5990   40.4490 O   0  0  0  0  0  0  0  0  0  0  0  0
   39.6220   32.7330   40.5600 C   0  0  0  0  0  0  0  0  0  0  0  0
   40.0920   31.6830   41.2730 N   0  0  0  0  0  0  0  0  0  0  0  0
   40.5320   33.7660   40.0620 C   0  0  0  0  0  0  0  0  0  0  0  0
   39.9300   35.1550   40.0850 C   0  0  0  0  0  0  0  0  0  0  0  0
   40.9700   33.4880   38.6390 C   0  0  0  0  0  0  0  0  0  0  0  0
   41.7930   33.7730   40.9230 C   0  0  0  0  0  0  0  0  0  0  0  0
   40.4703   26.9679   43.4707 H   0  0  0  0  0  0  0  0  0  0  0  0
   38.1841   26.4293   44.3234 H   0  0  0  0  0  0  0  0  0  0  0  0
   36.3133   28.0568   43.8649 H   0  0  0  0  0  0  0  0  0  0  0  0
   39.7905   35.4769   41.1275 H   0  0  0  0  0  0  0  0  0  0  0  0
   40.6052   35.8558   39.5721 H   0  0  0  0  0  0  0  0  0  0  0  0
   38.9570   35.1415   39.5721 H   0  0  0  0  0  0  0  0  0  0  0  0
   41.8987   32.8986   38.6497 H   0  0  0  0  0  0  0  0  0  0  0  0
   40.1834   32.9235   38.1169 H   0  0  0  0  0  0  0  0  0  0  0  0
   41.1460   34.4401   38.1169 H   0  0  0  0  0  0  0  0  0  0  0  0
   41.5110   33.7714   41.9862 H   0  0  0  0  0  0  0  0  0  0  0  0
   42.3932   32.8782   40.7015 H   0  0  0  0  0  0  0  0  0  0  0  0
   42.3832   34.6744   40.7015 H   0  0  0  0  0  0  0  0  0  0  0  0
  1  2  2  0
  3  2  1  0
  4  3  2  0
  5  6  2  0
  5  4  1  0
  6  1  1  0
  7  5  1  0
  8  7  2  0
  9 10  1  0
  9  8  1  0
 10 11  2  0
 11  7  1  0
 12 13  1  0
 12 10  1  0
 12 15  1  0
 14 12  1  0
  1 16  1  0
  2 17  1  0
  3 18  1  0
 13 19  1  0
 13 20  1  0
 13 21  1  0
 14 22  1  0
 14 23  1  0
 14 24  1  0
 15 25  1  0
 15 26  1  0
 15 27  1  0
M  ISO  8  16  14  17  14  18  14  19   8  20   8  21   8  22   8  23   8
M  ISO  4  24   8  25   8  26   8  27   8
M  END
>  <minimizedAffinity>  (1) 
-4.11404181

>  <minimizedRMSD>  (1) 
1.20945621

$$$$
