
     RDKit          3D

 28 30  0  0  0  0  0  0  0  0999 V2000
   36.8070   28.1000   40.9070 C   0  0  0  0  0  0  0  0  0  0  0  0
   35.6380   28.7990   40.9640 N   0  0  0  0  0  0  0  0  0  0  0  0
   35.8630   30.0740   40.8700 O   0  0  0  0  0  0  0  0  0  0  0  0
   37.1780   30.2610   40.7470 C   0  0  0  0  0  0  0  0  0  0  0  0
   37.7730   29.0400   40.7680 N   0  0  0  0  0  0  0  0  0  0  0  0
   37.0870   24.6010   42.0680 C   0  0  0  0  0  0  0  0  0  0  0  0
   36.8060   23.9100   40.8790 C   0  0  0  0  0  0  0  0  0  0  0  0
   36.5310   24.6530   39.7220 C   0  0  0  0  0  0  0  0  0  0  0  0
   36.5530   26.0180   39.8210 N   0  0  0  0  0  0  0  0  0  0  0  0
   36.8300   26.6410   40.9900 C   0  0  0  0  0  0  0  0  0  0  0  0
   37.0930   25.9340   42.0990 N   0  0  0  0  0  0  0  0  0  0  0  0
   39.0420   34.0310   40.4220 C   0  0  0  0  0  0  0  0  0  0  0  0
   39.6620   32.9960   41.0840 C   0  0  0  0  0  0  0  0  0  0  0  0
   39.0290   31.7590   41.1800 C   0  0  0  0  0  0  0  0  0  0  0  0
   37.7860   31.5570   40.6180 C   0  0  0  0  0  0  0  0  0  0  0  0
   37.1510   32.5840   39.9520 C   0  0  0  0  0  0  0  0  0  0  0  0
   37.7800   33.8300   39.8510 C   0  0  0  0  0  0  0  0  0  0  0  0
   39.8550   35.5880   40.3100 S   0  0  0  0  0  0  0  0  0  0  0  0
   40.9540   35.4080   39.2740 O   0  0  0  0  0  0  0  0  0  0  0  0
   38.8730   36.6110   39.8190 O   0  0  0  0  0  0  0  0  0  0  0  0
   37.3051   24.0356   42.9860 H   0  0  0  0  0  0  0  0  0  0  0  0
   36.8016   22.8103   40.8553 H   0  0  0  0  0  0  0  0  0  0  0  0
   36.3052   24.1557   38.7672 H   0  0  0  0  0  0  0  0  0  0  0  0
   40.6538   33.1451   41.5357 H   0  0  0  0  0  0  0  0  0  0  0  0
   39.5264   30.9336   41.7103 H   0  0  0  0  0  0  0  0  0  0  0  0
   36.1589   32.4253   39.5041 H   0  0  0  0  0  0  0  0  0  0  0  0
   37.2808   34.6545   39.3209 H   0  0  0  0  0  0  0  0  0  0  0  0
   40.3579   35.9983   41.5165 H   0  0  0  0  0  0  0  0  0  0  0  0
  1  2  2  0
  1 10  1  0
  3  2  1  0
  4  5  2  0
  4  3  1  0
  5  1  1  0
  6 11  2  0
  7  6  1  0
  8  9  1  0
  8  7  2  0
  9 10  2  0
 10 11  1  0
 12 13  2  0
 13 14  1  0
 15  4  1  0
 15 14  2  0
 16 15  1  0
 17 16  2  0
 17 12  1  0
 18 12  1  0
 19 18  2  0
 20 18  2  0
  6 21  1  0
  7 22  1  0
  8 23  1  0
 13 24  1  0
 14 25  1  0
 16 26  1  0
 17 27  1  0
 18 28  1  0
M  ISO  8  21  14  22  14  23  14  24  14  25  14  26  14  27  14  28  11
M  END
>  <minimizedAffinity>  (1) 
-5.43761683

>  <minimizedRMSD>  (1) 
3.38897991

$$$$
