
     RDKit          3D

 35 38  0  0  0  0  0  0  0  0999 V2000
   39.9020   34.0510   40.3350 C   0  0  0  0  0  0  0  0  0  0  0  0
   40.5050   32.8980   40.7340 C   0  0  0  0  0  0  0  0  0  0  0  0
   39.7820   31.7310   40.9280 C   0  0  0  0  0  0  0  0  0  0  0  0
   38.4340   31.7070   40.7230 C   0  0  0  0  0  0  0  0  0  0  0  0
   37.8070   32.8500   40.3220 C   0  0  0  0  0  0  0  0  0  0  0  0
   38.5370   34.0240   40.1270 C   0  0  0  0  0  0  0  0  0  0  0  0
   37.1330   28.3710   41.0990 C   0  0  0  0  0  0  0  0  0  0  0  0
   36.0790   29.1950   41.4080 N   0  0  0  0  0  0  0  0  0  0  0  0
   36.4300   30.4380   41.3080 O   0  0  0  0  0  0  0  0  0  0  0  0
   37.7090   30.4860   40.9340 C   0  0  0  0  0  0  0  0  0  0  0  0
   38.1390   29.2140   40.8050 N   0  0  0  0  0  0  0  0  0  0  0  0
   36.9940   24.8470   42.1860 C   0  0  0  0  0  0  0  0  0  0  0  0
   36.6700   24.2120   40.9650 C   0  0  0  0  0  0  0  0  0  0  0  0
   36.5110   25.0110   39.8170 C   0  0  0  0  0  0  0  0  0  0  0  0
   36.6820   26.3650   39.9560 N   0  0  0  0  0  0  0  0  0  0  0  0
   36.9910   26.9240   41.1380 C   0  0  0  0  0  0  0  0  0  0  0  0
   37.1440   26.1610   42.2410 N   0  0  0  0  0  0  0  0  0  0  0  0
   40.8370   35.5100   40.0460 S   0  0  0  0  0  0  0  0  0  0  0  0
   41.5660   35.3180   38.7510 O   0  0  0  0  0  0  0  0  0  0  0  0
   39.8670   36.6760   39.8610 O   0  0  0  0  0  0  0  0  0  0  0  0
   41.8140   35.9290   41.3810 C   0  0  0  0  0  0  0  0  0  0  0  0
   41.8400   36.8350   42.3730 C   0  0  0  0  0  0  0  0  0  0  0  0
   42.8520   36.8380   43.2960 C   0  0  0  0  0  0  0  0  0  0  0  0
   43.8290   35.8760   43.1560 C   0  0  0  0  0  0  0  0  0  0  0  0
   43.2970   34.9310   41.6630 S   0  0  0  0  0  0  0  0  0  0  0  0
   41.5914   32.8918   40.9066 H   0  0  0  0  0  0  0  0  0  0  0  0
   40.3005   30.8160   41.2503 H   0  0  0  0  0  0  0  0  0  0  0  0
   36.7203   32.8468   40.1513 H   0  0  0  0  0  0  0  0  0  0  0  0
   38.0185   34.9387   39.8037 H   0  0  0  0  0  0  0  0  0  0  0  0
   37.1224   24.2444   43.0973 H   0  0  0  0  0  0  0  0  0  0  0  0
   36.5452   23.1203   40.9134 H   0  0  0  0  0  0  0  0  0  0  0  0
   36.2587   24.5656   38.8434 H   0  0  0  0  0  0  0  0  0  0  0  0
   41.0378   37.5843   42.4448 H   0  0  0  0  0  0  0  0  0  0  0  0
   42.8835   37.5749   44.1121 H   0  0  0  0  0  0  0  0  0  0  0  0
   44.7159   35.7107   43.7853 H   0  0  0  0  0  0  0  0  0  0  0  0
  1  2  2  0
  2  3  1  0
  4  3  2  0
  4 10  1  0
  5  4  1  0
  6  5  2  0
  6  1  1  0
  7 16  1  0
  7  8  2  0
  9  8  1  0
 10  9  1  0
 11 10  2  0
 11  7  1  0
 12 17  2  0
 13 12  1  0
 14 15  1  0
 14 13  2  0
 15 16  2  0
 16 17  1  0
 18  1  1  0
 18 21  1  0
 19 18  2  0
 20 18  2  0
 21 25  1  0
 21 22  2  0
 22 23  1  0
 24 23  2  0
 25 24  1  0
  2 26  1  0
  3 27  1  0
  5 28  1  0
  6 29  1  0
 12 30  1  0
 13 31  1  0
 14 32  1  0
 22 33  1  0
 23 34  1  0
 24 35  1  0
M  ISO  8  26  14  27  14  28  14  29  14  30  14  31  14  32  14  33  14
M  ISO  2  34  14  35  14
M  END
>  <minimizedAffinity>  (1) 
-6.7916708

>  <minimizedRMSD>  (1) 
1.26573038

$$$$
