
     RDKit          3D

 29 30  0  0  0  0  0  0  0  0999 V2000
   37.5530   29.7970   41.9530 C   0  0  0  0  0  0  0  0  0  0  0  0
   36.6230   28.7610   41.8770 C   0  0  0  0  0  0  0  0  0  0  0  0
   35.6310   28.8260   40.8680 C   0  0  0  0  0  0  0  0  0  0  0  0
   35.6520   29.8920   40.0400 N   0  0  0  0  0  0  0  0  0  0  0  0
   36.5680   30.8760   40.1420 C   0  0  0  0  0  0  0  0  0  0  0  0
   37.5070   30.8180   41.0960 N   0  0  0  0  0  0  0  0  0  0  0  0
   36.5910   27.5860   42.7810 C   0  0  0  0  0  0  0  0  0  0  0  0
   37.7770   26.6970   42.6470 C   0  0  0  0  0  0  0  0  0  0  0  0
   37.4040   25.2430   42.4190 C   0  0  0  0  0  0  0  0  0  0  0  0
   38.6960   24.6190   41.8740 C   0  0  0  0  0  0  0  0  0  0  0  0
   39.6580   24.5850   43.0550 C   0  0  0  0  0  0  0  0  0  0  0  0
   39.9300   25.9520   43.5710 C   0  0  0  0  0  0  0  0  0  0  0  0
   38.7370   26.8170   43.8020 C   0  0  0  0  0  0  0  0  0  0  0  0
   38.3331   29.7720   42.7281 H   0  0  0  0  0  0  0  0  0  0  0  0
   34.8717   28.0371   40.7630 H   0  0  0  0  0  0  0  0  0  0  0  0
   36.5445   31.7251   39.4431 H   0  0  0  0  0  0  0  0  0  0  0  0
   36.5430   27.9473   43.8189 H   0  0  0  0  0  0  0  0  0  0  0  0
   35.7090   26.9902   42.5034 H   0  0  0  0  0  0  0  0  0  0  0  0
   38.2946   27.0553   41.7450 H   0  0  0  0  0  0  0  0  0  0  0  0
   37.1032   24.7624   43.3616 H   0  0  0  0  0  0  0  0  0  0  0  0
   36.5506   25.1233   41.7354 H   0  0  0  0  0  0  0  0  0  0  0  0
   38.5053   23.6010   41.5035 H   0  0  0  0  0  0  0  0  0  0  0  0
   39.1042   25.1946   41.0302 H   0  0  0  0  0  0  0  0  0  0  0  0
   39.2155   23.9799   43.8600 H   0  0  0  0  0  0  0  0  0  0  0  0
   40.6083   24.1471   42.7156 H   0  0  0  0  0  0  0  0  0  0  0  0
   40.4613   25.8499   44.5288 H   0  0  0  0  0  0  0  0  0  0  0  0
   40.5105   26.4545   42.7832 H   0  0  0  0  0  0  0  0  0  0  0  0
   39.0603   27.8640   43.8987 H   0  0  0  0  0  0  0  0  0  0  0  0
   38.2319   26.4937   44.7242 H   0  0  0  0  0  0  0  0  0  0  0  0
  2  1  2  0
  2  7  1  0
  3  2  1  0
  4  5  1  0
  4  3  2  0
  5  6  2  0
  6  1  1  0
  8  7  1  0
  8 13  1  0
  9  8  1  0
 10  9  1  0
 10 11  1  0
 11 12  1  0
 12 13  1  0
  1 14  1  0
  3 15  1  0
  5 16  1  0
  7 17  1  0
  7 18  1  0
  8 19  1  0
  9 20  1  0
  9 21  1  0
 10 22  1  0
 10 23  1  0
 11 24  1  0
 11 25  1  0
 12 26  1  0
 12 27  1  0
 13 28  1  0
 13 29  1  0
M  ISO  8  14  14  15  14  16  14  17   8  18   8  19  13  20  13  21  13
M  ISO  8  22  13  23  13  24  13  25  13  26  13  27  13  28  13  29  13
M  END
>  <minimizedAffinity>  (1) 
-4.37927771

>  <minimizedRMSD>  (1) 
1.66421938

$$$$
