
     RDKit          3D

 26 28  0  0  0  0  0  0  0  0999 V2000
   39.8040   32.4110   40.8100 C   0  0  0  0  0  0  0  0  0  0  0  0
   41.6720   31.2390   39.5350 C   0  0  0  0  0  0  0  0  0  0  0  0
   40.5250   32.0320   39.5730 C   0  0  0  0  0  0  0  0  0  0  0  0
   40.0060   32.5150   38.3470 C   0  0  0  0  0  0  0  0  0  0  0  0
   40.6530   32.1790   37.2070 N   0  0  0  0  0  0  0  0  0  0  0  0
   41.7650   31.4050   37.2150 C   0  0  0  0  0  0  0  0  0  0  0  0
   42.2640   30.9430   38.3710 N   0  0  0  0  0  0  0  0  0  0  0  0
   38.7000   31.5500   41.0930 N   0  0  0  0  0  0  0  0  0  0  0  0
   37.4060   31.6720   40.7780 C   0  0  0  0  0  0  0  0  0  0  0  0
   36.6770   30.6270   41.2380 N   0  0  0  0  0  0  0  0  0  0  0  0
   37.5110   29.7950   41.8720 C   0  0  0  0  0  0  0  0  0  0  0  0
   37.4100   28.5870   42.5430 C   0  0  0  0  0  0  0  0  0  0  0  0
   38.4860   27.9770   43.0970 N   0  0  0  0  0  0  0  0  0  0  0  0
   39.6970   28.5830   42.9800 C   0  0  0  0  0  0  0  0  0  0  0  0
   39.8470   29.7660   42.3320 N   0  0  0  0  0  0  0  0  0  0  0  0
   38.7770   30.3730   41.7820 C   0  0  0  0  0  0  0  0  0  0  0  0
   36.1160   27.9730   42.6500 N   0  0  0  0  0  0  0  0  0  0  0  0
   39.4283   33.4387   40.6970 H   0  0  0  0  0  0  0  0  0  0  0  0
   40.5135   32.3256   41.6463 H   0  0  0  0  0  0  0  0  0  0  0  0
   42.0956   30.8518   40.4734 H   0  0  0  0  0  0  0  0  0  0  0  0
   39.1041   33.1443   38.3222 H   0  0  0  0  0  0  0  0  0  0  0  0
   42.2622   31.1537   36.2665 H   0  0  0  0  0  0  0  0  0  0  0  0
   36.9851   32.5176   40.2143 H   0  0  0  0  0  0  0  0  0  0  0  0
   40.5808   28.1008   43.4232 H   0  0  0  0  0  0  0  0  0  0  0  0
   36.0113   27.0749   43.1433 H   0  0  0  0  0  0  0  0  0  0  0  0
   35.2927   28.4308   42.2334 H   0  0  0  0  0  0  0  0  0  0  0  0
  1  8  1  0
  2  3  2  0
  3  1  1  0
  4  3  1  0
  5  6  1  0
  5  4  2  0
  6  7  2  0
  7  2  1  0
  8 16  1  0
  9  8  1  0
  9 10  2  0
 10 11  1  0
 11 12  2  0
 12 17  1  0
 12 13  1  0
 14 13  2  0
 15 14  1  0
 16 11  1  0
 16 15  2  0
  1 18  1  0
  1 19  1  0
  2 20  1  0
  4 21  1  0
  6 22  1  0
  9 23  1  0
 14 24  1  0
 17 25  1  0
 17 26  1  0
M  ISO  7  18   8  19   8  20  14  21  14  22  14  23  14  24  14
M  END
>  <minimizedAffinity>  (1) 
-4.18846273

>  <minimizedRMSD>  (1) 
6.09507847

$$$$
