
     RDKit          3D

 20 21  0  0  0  0  0  0  0  0999 V2000
   37.5360   28.3470   43.7680 C   0  0  0  0  0  0  0  0  0  0  0  0
   39.4720   26.6720   43.9790 C   0  0  0  0  0  0  0  0  0  0  0  0
   38.2530   27.0790   43.4470 C   0  0  0  0  0  0  0  0  0  0  0  0
   37.6090   26.2280   42.5090 C   0  0  0  0  0  0  0  0  0  0  0  0
   38.2330   25.0610   42.1890 N   0  0  0  0  0  0  0  0  0  0  0  0
   39.4100   24.7150   42.7320 C   0  0  0  0  0  0  0  0  0  0  0  0
   40.0270   25.5190   43.6250 N   0  0  0  0  0  0  0  0  0  0  0  0
   37.9550   29.3860   42.8110 C   0  0  0  0  0  0  0  0  0  0  0  0
   39.1490   30.0600   42.6510 C   0  0  0  0  0  0  0  0  0  0  0  0
   38.9900   30.9400   41.5820 C   0  0  0  0  0  0  0  0  0  0  0  0
   37.7200   30.7750   41.1300 N   0  0  0  0  0  0  0  0  0  0  0  0
   37.1070   29.8540   41.8590 N   0  0  0  0  0  0  0  0  0  0  0  0
   36.4505   28.1879   43.6889 H   0  0  0  0  0  0  0  0  0  0  0  0
   37.7787   28.6639   44.7930 H   0  0  0  0  0  0  0  0  0  0  0  0
   39.9858   27.3174   44.7066 H   0  0  0  0  0  0  0  0  0  0  0  0
   36.6434   26.5015   42.0587 H   0  0  0  0  0  0  0  0  0  0  0  0
   39.8796   23.7624   42.4457 H   0  0  0  0  0  0  0  0  0  0  0  0
   40.0582   29.9271   43.2557 H   0  0  0  0  0  0  0  0  0  0  0  0
   39.7454   31.6327   41.1825 H   0  0  0  0  0  0  0  0  0  0  0  0
   37.2984   31.2869   40.3419 H   0  0  0  0  0  0  0  0  0  0  0  0
  3  1  1  0
  3  2  2  0
  4  3  1  0
  5  4  2  0
  5  6  1  0
  6  7  2  0
  7  2  1  0
  8  1  1  0
  9  8  1  0
 10  9  2  0
 11 10  1  0
 11 12  1  0
 12  8  2  0
  1 13  1  0
  1 14  1  0
  2 15  1  0
  4 16  1  0
  6 17  1  0
  9 18  1  0
 10 19  1  0
 11 20  1  0
M  ISO  8  13   8  14   8  15  14  16  14  17  14  18  14  19  14  20   9
M  END
>  <minimizedAffinity>  (1) 
-3.82881045

>  <minimizedRMSD>  (1) 
4.48487759

$$$$
