
     RDKit          3D

 19 20  0  0  0  0  0  0  0  0999 V2000
   38.1200   29.6350   42.5060 C   0  0  0  0  0  0  0  0  0  0  0  0
   37.4030   28.4810   42.8170 C   0  0  0  0  0  0  0  0  0  0  0  0
   36.2830   28.1810   42.0080 C   0  0  0  0  0  0  0  0  0  0  0  0
   35.9840   29.0270   40.9950 N   0  0  0  0  0  0  0  0  0  0  0  0
   36.7080   30.1260   40.7370 C   0  0  0  0  0  0  0  0  0  0  0  0
   37.7850   30.4340   41.4990 N   0  0  0  0  0  0  0  0  0  0  0  0
   37.7130   27.5460   43.9210 C   0  0  0  0  0  0  0  0  0  0  0  0
   38.9150   26.7160   43.5590 C   0  0  0  0  0  0  0  0  0  0  0  0
   38.8500   25.6890   42.6190 C   0  0  0  0  0  0  0  0  0  0  0  0
   40.5430   25.0440   42.5750 S   0  0  0  0  0  0  0  0  0  0  0  0
   41.0880   26.3200   43.8900 C   0  0  0  0  0  0  0  0  0  0  0  0
   40.1300   26.8770   44.0860 N   0  0  0  0  0  0  0  0  0  0  0  0
   38.9967   29.8940   43.1177 H   0  0  0  0  0  0  0  0  0  0  0  0
   35.6723   27.2858   42.1966 H   0  0  0  0  0  0  0  0  0  0  0  0
   36.4253   30.7821   39.9006 H   0  0  0  0  0  0  0  0  0  0  0  0
   37.9257   28.1181   44.8361 H   0  0  0  0  0  0  0  0  0  0  0  0
   36.8509   26.8844   44.0915 H   0  0  0  0  0  0  0  0  0  0  0  0
   37.9777   25.3502   42.0408 H   0  0  0  0  0  0  0  0  0  0  0  0
   42.0809   26.4707   44.3388 H   0  0  0  0  0  0  0  0  0  0  0  0
  1  2  2  0
  2  7  1  0
  3  2  1  0
  4  3  2  0
  5  4  1  0
  5  6  2  0
  6  1  1  0
  8  7  1  0
  8 12  1  0
  9  8  2  0
 10  9  1  0
 10 11  1  0
 11 12  2  0
  1 13  1  0
  3 14  1  0
  5 15  1  0
  7 16  1  0
  7 17  1  0
  9 18  1  0
 11 19  1  0
M  ISO  7  13  14  14  14  15  14  16   8  17   8  18  14  19  14
M  END
>  <minimizedAffinity>  (1) 
-3.4701519

>  <minimizedRMSD>  (1) 
0.812522769

$$$$
