
     RDKit          3D

 20 21  0  0  0  0  0  0  0  0999 V2000
   36.6060   31.1270   40.9100 C   0  0  0  0  0  0  0  0  0  0  0  0
   36.2750   29.9410   40.2510 C   0  0  0  0  0  0  0  0  0  0  0  0
   36.4350   29.9170   38.8430 C   0  0  0  0  0  0  0  0  0  0  0  0
   36.8930   31.0330   38.2390 N   0  0  0  0  0  0  0  0  0  0  0  0
   37.2010   32.1540   38.9010 C   0  0  0  0  0  0  0  0  0  0  0  0
   37.0560   32.1990   40.2400 N   0  0  0  0  0  0  0  0  0  0  0  0
   35.7720   28.7120   40.9120 C   0  0  0  0  0  0  0  0  0  0  0  0
   36.8920   28.1930   41.6840 N   0  0  0  0  0  0  0  0  0  0  0  0
   38.1230   27.8470   41.3250 C   0  0  0  0  0  0  0  0  0  0  0  0
   38.8150   27.4070   42.4480 C   0  0  0  0  0  0  0  0  0  0  0  0
   37.9490   27.5060   43.4740 N   0  0  0  0  0  0  0  0  0  0  0  0
   36.7660   27.9850   43.0300 C   0  0  0  0  0  0  0  0  0  0  0  0
   36.4953   31.1836   42.0030 H   0  0  0  0  0  0  0  0  0  0  0  0
   36.1931   29.0159   38.2604 H   0  0  0  0  0  0  0  0  0  0  0  0
   37.5707   33.0345   38.3551 H   0  0  0  0  0  0  0  0  0  0  0  0
   34.9275   28.9513   41.5749 H   0  0  0  0  0  0  0  0  0  0  0  0
   35.4088   27.9766   40.1791 H   0  0  0  0  0  0  0  0  0  0  0  0
   38.5295   27.8999   40.3042 H   0  0  0  0  0  0  0  0  0  0  0  0
   39.8551   27.0515   42.4895 H   0  0  0  0  0  0  0  0  0  0  0  0
   35.8687   28.1727   43.6379 H   0  0  0  0  0  0  0  0  0  0  0  0
  2  1  2  0
  2  7  1  0
  3  2  1  0
  4  3  2  0
  4  5  1  0
  5  6  2  0
  6  1  1  0
  7  8  1  0
  8 12  1  0
  9  8  1  0
  9 10  2  0
 10 11  1  0
 12 11  2  0
  1 13  1  0
  3 14  1  0
  5 15  1  0
  7 16  1  0
  7 17  1  0
  9 18  1  0
 10 19  1  0
 12 20  1  0
M  ISO  8  13  14  14  14  15  14  16   8  17   8  18  14  19  14  20  14
M  END
>  <minimizedAffinity>  (1) 
-3.37690735

>  <minimizedRMSD>  (1) 
3.71060824

$$$$
