
     RDKit          3D

 26 27  0  0  0  0  0  0  0  0999 V2000
   37.9320   30.3690   41.5630 C   0  0  0  0  0  0  0  0  0  0  0  0
   37.1510   29.3120   42.0480 C   0  0  0  0  0  0  0  0  0  0  0  0
   36.0020   28.9720   41.3170 C   0  0  0  0  0  0  0  0  0  0  0  0
   35.7190   29.6760   40.2000 N   0  0  0  0  0  0  0  0  0  0  0  0
   36.4970   30.6850   39.7690 C   0  0  0  0  0  0  0  0  0  0  0  0
   37.6050   31.0290   40.4540 N   0  0  0  0  0  0  0  0  0  0  0  0
   37.4270   28.5190   43.2640 C   0  0  0  0  0  0  0  0  0  0  0  0
   38.0340   27.2660   42.9160 N   0  0  0  0  0  0  0  0  0  0  0  0
   39.2000   27.4000   42.1120 C   0  0  0  0  0  0  0  0  0  0  0  0
   39.5860   26.1950   41.3210 C   0  0  0  0  0  0  0  0  0  0  0  0
   39.0570   25.0690   41.9330 O   0  0  0  0  0  0  0  0  0  0  0  0
   37.6640   25.1540   41.7120 C   0  0  0  0  0  0  0  0  0  0  0  0
   37.0980   26.2570   42.5340 C   0  0  0  0  0  0  0  0  0  0  0  0
   38.8389   30.6612   42.1127 H   0  0  0  0  0  0  0  0  0  0  0  0
   35.3476   28.1515   41.6463 H   0  0  0  0  0  0  0  0  0  0  0  0
   36.2275   31.2317   38.8533 H   0  0  0  0  0  0  0  0  0  0  0  0
   38.1086   29.0830   43.9177 H   0  0  0  0  0  0  0  0  0  0  0  0
   36.4786   28.3237   43.7860 H   0  0  0  0  0  0  0  0  0  0  0  0
   39.0301   28.2266   41.4064 H   0  0  0  0  0  0  0  0  0  0  0  0
   40.0285   27.5740   42.8143 H   0  0  0  0  0  0  0  0  0  0  0  0
   40.6823   26.1139   41.2825 H   0  0  0  0  0  0  0  0  0  0  0  0
   39.1959   26.2807   40.2961 H   0  0  0  0  0  0  0  0  0  0  0  0
   37.4732   25.3549   40.6475 H   0  0  0  0  0  0  0  0  0  0  0  0
   37.1889   24.2036   41.9966 H   0  0  0  0  0  0  0  0  0  0  0  0
   36.2957   26.7374   41.9547 H   0  0  0  0  0  0  0  0  0  0  0  0
   36.7454   25.7950   43.4679 H   0  0  0  0  0  0  0  0  0  0  0  0
  1  2  2  0
  2  7  1  0
  3  2  1  0
  4  3  2  0
  5  4  1  0
  5  6  2  0
  6  1  1  0
  8  7  1  0
  9  8  1  0
 10 11  1  0
 10  9  1  0
 12 11  1  0
 12 13  1  0
 13  8  1  0
  1 14  1  0
  3 15  1  0
  5 16  1  0
  7 17  1  0
  7 18  1  0
  9 19  1  0
  9 20  1  0
 10 21  1  0
 10 22  1  0
 12 23  1  0
 12 24  1  0
 13 25  1  0
 13 26  1  0
M  ISO  8  14  14  15  14  16  14  17   8  18   8  19  13  20  13  21  13
M  ISO  5  22  13  23  13  24  13  25  13  26  13
M  END
>  <minimizedAffinity>  (1) 
-3.17946625

>  <minimizedRMSD>  (1) 
3.68872404

$$$$
