
     RDKit          3D

 26 27  0  0  0  0  0  0  0  0999 V2000
   36.0060   29.4000   39.4600 C   0  0  0  0  0  0  0  0  0  0  0  0
   36.5550   30.2650   38.5120 C   0  0  0  0  0  0  0  0  0  0  0  0
   37.0320   31.5160   38.9720 C   0  0  0  0  0  0  0  0  0  0  0  0
   36.9250   31.7960   40.3020 N   0  0  0  0  0  0  0  0  0  0  0  0
   36.3860   30.9240   41.1680 C   0  0  0  0  0  0  0  0  0  0  0  0
   35.9270   29.7310   40.7560 N   0  0  0  0  0  0  0  0  0  0  0  0
   36.6870   30.0030   37.0700 C   0  0  0  0  0  0  0  0  0  0  0  0
   37.8260   29.1160   36.7000 C   0  0  0  0  0  0  0  0  0  0  0  0
   38.7790   28.8560   37.8150 C   0  0  0  0  0  0  0  0  0  0  0  0
   39.5110   27.5920   37.3960 C   0  0  0  0  0  0  0  0  0  0  0  0
   38.7530   27.0070   36.2410 C   0  0  0  0  0  0  0  0  0  0  0  0
   37.4220   27.7300   36.2770 C   0  0  0  0  0  0  0  0  0  0  0  0
   35.6279   28.4198   39.1342 H   0  0  0  0  0  0  0  0  0  0  0  0
   37.4767   32.2421   38.2756 H   0  0  0  0  0  0  0  0  0  0  0  0
   36.3190   31.1908   42.2330 H   0  0  0  0  0  0  0  0  0  0  0  0
   35.7571   29.5302   36.7211 H   0  0  0  0  0  0  0  0  0  0  0  0
   36.8830   30.9752   36.5942 H   0  0  0  0  0  0  0  0  0  0  0  0
   38.2775   29.6910   35.8781 H   0  0  0  0  0  0  0  0  0  0  0  0
   39.4825   29.6938   37.9297 H   0  0  0  0  0  0  0  0  0  0  0  0
   38.2715   28.7460   38.7847 H   0  0  0  0  0  0  0  0  0  0  0  0
   40.5388   27.8352   37.0887 H   0  0  0  0  0  0  0  0  0  0  0  0
   39.5677   26.8771   38.2301 H   0  0  0  0  0  0  0  0  0  0  0  0
   38.6139   25.9237   36.3722 H   0  0  0  0  0  0  0  0  0  0  0  0
   39.2778   27.1306   35.2822 H   0  0  0  0  0  0  0  0  0  0  0  0
   36.9455   27.7383   35.2856 H   0  0  0  0  0  0  0  0  0  0  0  0
   36.6827   27.2622   36.9438 H   0  0  0  0  0  0  0  0  0  0  0  0
  1  6  2  0
  2  3  2  0
  2  1  1  0
  3  4  1  0
  4  5  2  0
  6  5  1  0
  7  2  1  0
  8  7  1  0
  8  9  1  0
 10  9  1  0
 11 12  1  0
 11 10  1  0
 12  8  1  0
  1 13  1  0
  3 14  1  0
  5 15  1  0
  7 16  1  0
  7 17  1  0
  8 18  1  0
  9 19  1  0
  9 20  1  0
 10 21  1  0
 10 22  1  0
 11 23  1  0
 11 24  1  0
 12 25  1  0
 12 26  1  0
M  ISO  8  13  14  14  14  15  14  16   8  17   8  18  13  19  13  20  13
M  ISO  6  21  13  22  13  23  13  24  13  25  13  26  13
M  END
>  <minimizedAffinity>  (1) 
-2.81745744

>  <minimizedRMSD>  (1) 
7.03396654

$$$$
