
     RDKit          3D

 29 31  0  0  0  0  0  0  0  0999 V2000
   37.8440   28.1020   43.6440 C   0  0  0  0  0  0  0  0  0  0  0  0
   38.8520   27.0320   43.4560 C   0  0  0  0  0  0  0  0  0  0  0  0
   40.1530   27.0640   43.9430 C   0  0  0  0  0  0  0  0  0  0  0  0
   41.0060   26.0040   43.7040 C   0  0  0  0  0  0  0  0  0  0  0  0
   40.5670   24.9140   42.9820 C   0  0  0  0  0  0  0  0  0  0  0  0
   39.2880   24.8660   42.4930 C   0  0  0  0  0  0  0  0  0  0  0  0
   38.8370   23.7770   41.7660 C   0  0  0  0  0  0  0  0  0  0  0  0
   37.5620   23.7370   41.2830 C   0  0  0  0  0  0  0  0  0  0  0  0
   36.6680   24.7660   41.4930 C   0  0  0  0  0  0  0  0  0  0  0  0
   37.1420   25.8500   42.2250 C   0  0  0  0  0  0  0  0  0  0  0  0
   38.4220   25.9360   42.7330 C   0  0  0  0  0  0  0  0  0  0  0  0
   39.1520   30.0830   42.7000 C   0  0  0  0  0  0  0  0  0  0  0  0
   38.0200   29.2570   42.7470 C   0  0  0  0  0  0  0  0  0  0  0  0
   36.9780   29.5700   41.8560 C   0  0  0  0  0  0  0  0  0  0  0  0
   37.1250   30.6270   41.0260 N   0  0  0  0  0  0  0  0  0  0  0  0
   38.2260   31.3880   41.0170 C   0  0  0  0  0  0  0  0  0  0  0  0
   39.2500   31.1150   41.8610 N   0  0  0  0  0  0  0  0  0  0  0  0
   36.8471   27.6733   43.4639 H   0  0  0  0  0  0  0  0  0  0  0  0
   37.9657   28.4761   44.6712 H   0  0  0  0  0  0  0  0  0  0  0  0
   40.5036   27.9332   44.5187 H   0  0  0  0  0  0  0  0  0  0  0  0
   42.0358   26.0293   44.0897 H   0  0  0  0  0  0  0  0  0  0  0  0
   41.2517   24.0733   42.7966 H   0  0  0  0  0  0  0  0  0  0  0  0
   39.5161   22.9329   41.5755 H   0  0  0  0  0  0  0  0  0  0  0  0
   37.2369   22.8571   40.7084 H   0  0  0  0  0  0  0  0  0  0  0  0
   35.6396   24.7316   41.1042 H   0  0  0  0  0  0  0  0  0  0  0  0
   36.4550   26.6890   42.4099 H   0  0  0  0  0  0  0  0  0  0  0  0
   39.9903   29.8720   43.3803 H   0  0  0  0  0  0  0  0  0  0  0  0
   36.0593   28.9653   41.8347 H   0  0  0  0  0  0  0  0  0  0  0  0
   38.2997   32.2376   40.3222 H   0  0  0  0  0  0  0  0  0  0  0  0
  2  1  1  0
  2  3  2  0
  4  3  1  0
  5  4  2  0
  6 11  2  0
  6  5  1  0
  7  6  1  0
  8  9  1  0
  8  7  2  0
  9 10  2  0
 10 11  1  0
 11  2  1  0
 12 13  2  0
 13  1  1  0
 14 13  1  0
 15 14  2  0
 16 15  1  0
 16 17  2  0
 17 12  1  0
  1 18  1  0
  1 19  1  0
  3 20  1  0
  4 21  1  0
  5 22  1  0
  7 23  1  0
  8 24  1  0
  9 25  1  0
 10 26  1  0
 12 27  1  0
 14 28  1  0
 16 29  1  0
M  ISO  8  18   8  19   8  20  14  21  14  22  14  23  14  24  14  25  14
M  ISO  4  26  14  27  14  28  14  29  14
M  END
>  <minimizedAffinity>  (1) 
-5.54827738

>  <minimizedRMSD>  (1) 
2.41398239

$$$$
