
     RDKit          3D

 40 44  0  0  0  0  0  0  0  0999 V2000
   37.2820   27.7570   43.1920 C   0  0  0  0  0  0  0  0  0  0  0  0
   38.9130   29.6790   42.9050 C   0  0  0  0  0  0  0  0  0  0  0  0
   37.6960   29.0460   42.5910 C   0  0  0  0  0  0  0  0  0  0  0  0
   36.8590   29.6860   41.6560 C   0  0  0  0  0  0  0  0  0  0  0  0
   37.2810   30.8590   41.1250 N   0  0  0  0  0  0  0  0  0  0  0  0
   38.4390   31.4150   41.4540 C   0  0  0  0  0  0  0  0  0  0  0  0
   39.2750   30.8400   42.3450 N   0  0  0  0  0  0  0  0  0  0  0  0
   38.7660   32.6520   40.8230 N   0  0  0  0  0  0  0  0  0  0  0  0
   37.7930   33.4330   40.3110 C   0  0  0  0  0  0  0  0  0  0  0  0
   38.3380   34.5560   39.7610 N   0  0  0  0  0  0  0  0  0  0  0  0
   39.6660   34.4420   39.9480 C   0  0  0  0  0  0  0  0  0  0  0  0
   40.7640   35.2200   39.6350 C   0  0  0  0  0  0  0  0  0  0  0  0
   42.0290   34.8440   39.9570 N   0  0  0  0  0  0  0  0  0  0  0  0
   42.2020   33.6750   40.6000 C   0  0  0  0  0  0  0  0  0  0  0  0
   41.1850   32.8350   40.9530 N   0  0  0  0  0  0  0  0  0  0  0  0
   39.9460   33.2610   40.6070 C   0  0  0  0  0  0  0  0  0  0  0  0
   38.2760   26.6870   43.1190 C   0  0  0  0  0  0  0  0  0  0  0  0
   39.4570   26.7010   43.8710 C   0  0  0  0  0  0  0  0  0  0  0  0
   40.3660   25.6720   43.7670 C   0  0  0  0  0  0  0  0  0  0  0  0
   40.1010   24.6150   42.9050 C   0  0  0  0  0  0  0  0  0  0  0  0
   38.9460   24.5910   42.1620 C   0  0  0  0  0  0  0  0  0  0  0  0
   38.6760   23.5420   41.3080 C   0  0  0  0  0  0  0  0  0  0  0  0
   37.5370   23.5070   40.5780 C   0  0  0  0  0  0  0  0  0  0  0  0
   36.5990   24.5200   40.6540 C   0  0  0  0  0  0  0  0  0  0  0  0
   36.8950   25.5720   41.5230 C   0  0  0  0  0  0  0  0  0  0  0  0
   38.0360   25.6390   42.2770 C   0  0  0  0  0  0  0  0  0  0  0  0
   37.0511   27.9349   44.2527 H   0  0  0  0  0  0  0  0  0  0  0  0
   36.4181   27.4109   42.6056 H   0  0  0  0  0  0  0  0  0  0  0  0
   39.5878   29.2052   43.6331 H   0  0  0  0  0  0  0  0  0  0  0  0
   35.8929   29.2472   41.3660 H   0  0  0  0  0  0  0  0  0  0  0  0
   36.7184   33.1989   40.3336 H   0  0  0  0  0  0  0  0  0  0  0  0
   40.6090   36.1734   39.1087 H   0  0  0  0  0  0  0  0  0  0  0  0
   43.2289   33.3767   40.8580 H   0  0  0  0  0  0  0  0  0  0  0  0
   39.6604   27.5415   44.5509 H   0  0  0  0  0  0  0  0  0  0  0  0
   41.2923   25.6866   44.3601 H   0  0  0  0  0  0  0  0  0  0  0  0
   40.8229   23.7897   42.8168 H   0  0  0  0  0  0  0  0  0  0  0  0
   39.3999   22.7186   41.2187 H   0  0  0  0  0  0  0  0  0  0  0  0
   37.3533   22.6533   39.9090 H   0  0  0  0  0  0  0  0  0  0  0  0
   35.6715   24.4983   40.0630 H   0  0  0  0  0  0  0  0  0  0  0  0
   36.1696   26.3946   41.6068 H   0  0  0  0  0  0  0  0  0  0  0  0
  3  2  2  0
  3  1  1  0
  4  3  1  0
  5  6  1  0
  5  4  2  0
  6  7  2  0
  7  2  1  0
  8  6  1  0
  9  8  1  0
 10 11  1  0
 10  9  2  0
 11 16  2  0
 12 11  1  0
 12 13  2  0
 13 14  1  0
 14 15  2  0
 16  8  1  0
 16 15  1  0
 17  1  1  0
 17 18  2  0
 19 18  1  0
 20 19  2  0
 21 26  2  0
 21 20  1  0
 22 21  1  0
 23 24  1  0
 23 22  2  0
 24 25  2  0
 25 26  1  0
 26 17  1  0
  1 27  1  0
  1 28  1  0
  2 29  1  0
  4 30  1  0
  9 31  1  0
 12 32  1  0
 14 33  1  0
 18 34  1  0
 19 35  1  0
 20 36  1  0
 22 37  1  0
 23 38  1  0
 24 39  1  0
 25 40  1  0
M  ISO  8  27   8  28   8  29  14  30  14  31  14  32  14  33  14  34  14
M  ISO  6  35  14  36  14  37  14  38  14  39  14  40  14
M  END
>  <minimizedAffinity>  (1) 
-7.59967232

>  <minimizedRMSD>  (1) 
1.02511799

$$$$
