
     RDKit          3D

 39 42  0  0  0  0  0  0  0  0999 V2000
   37.4990   28.1860   43.1880 C   0  0  0  0  0  0  0  0  0  0  0  0
   38.4030   27.0390   43.1550 C   0  0  0  0  0  0  0  0  0  0  0  0
   39.5460   26.9570   43.9630 C   0  0  0  0  0  0  0  0  0  0  0  0
   40.3730   25.8570   43.8990 C   0  0  0  0  0  0  0  0  0  0  0  0
   40.0710   24.8290   43.0290 C   0  0  0  0  0  0  0  0  0  0  0  0
   38.9550   24.8960   42.2330 C   0  0  0  0  0  0  0  0  0  0  0  0
   38.6230   23.8740   41.3510 C   0  0  0  0  0  0  0  0  0  0  0  0
   37.5220   23.9340   40.5670 C   0  0  0  0  0  0  0  0  0  0  0  0
   36.6690   25.0210   40.6030 C   0  0  0  0  0  0  0  0  0  0  0  0
   37.0130   26.0410   41.4920 C   0  0  0  0  0  0  0  0  0  0  0  0
   38.1160   26.0140   42.2990 C   0  0  0  0  0  0  0  0  0  0  0  0
   39.2330   30.0180   42.9300 C   0  0  0  0  0  0  0  0  0  0  0  0
   38.0250   29.4220   42.5540 C   0  0  0  0  0  0  0  0  0  0  0  0
   37.3120   30.0560   41.5280 C   0  0  0  0  0  0  0  0  0  0  0  0
   37.8250   31.1700   40.9840 N   0  0  0  0  0  0  0  0  0  0  0  0
   38.9780   31.7060   41.3690 C   0  0  0  0  0  0  0  0  0  0  0  0
   39.6990   31.1260   42.3580 N   0  0  0  0  0  0  0  0  0  0  0  0
   39.5440   32.9210   40.7800 C   0  0  0  0  0  0  0  0  0  0  0  0
   38.7580   34.0750   40.7460 C   0  0  0  0  0  0  0  0  0  0  0  0
   39.2010   35.2620   40.2150 C   0  0  0  0  0  0  0  0  0  0  0  0
   40.4840   35.2740   39.7030 C   0  0  0  0  0  0  0  0  0  0  0  0
   41.2830   34.1580   39.7190 C   0  0  0  0  0  0  0  0  0  0  0  0
   40.8230   32.9800   40.2550 C   0  0  0  0  0  0  0  0  0  0  0  0
   36.5719   27.9041   42.6674 H   0  0  0  0  0  0  0  0  0  0  0  0
   37.3491   28.4271   44.2507 H   0  0  0  0  0  0  0  0  0  0  0  0
   39.7846   27.7786   44.6544 H   0  0  0  0  0  0  0  0  0  0  0  0
   41.2674   25.7985   44.5366 H   0  0  0  0  0  0  0  0  0  0  0  0
   40.7295   23.9497   42.9732 H   0  0  0  0  0  0  0  0  0  0  0  0
   39.2749   22.9902   41.2887 H   0  0  0  0  0  0  0  0  0  0  0  0
   37.3008   23.0991   39.8858 H   0  0  0  0  0  0  0  0  0  0  0  0
   35.7722   25.0790   39.9687 H   0  0  0  0  0  0  0  0  0  0  0  0
   36.3555   26.9212   41.5465 H   0  0  0  0  0  0  0  0  0  0  0  0
   39.8231   29.5514   43.7325 H   0  0  0  0  0  0  0  0  0  0  0  0
   36.3524   29.6493   41.1761 H   0  0  0  0  0  0  0  0  0  0  0  0
   37.7407   34.0316   41.1622 H   0  0  0  0  0  0  0  0  0  0  0  0
   38.5650   36.1593   40.1983 H   0  0  0  0  0  0  0  0  0  0  0  0
   40.8770   36.2055   39.2696 H   0  0  0  0  0  0  0  0  0  0  0  0
   42.2987   34.2074   39.2997 H   0  0  0  0  0  0  0  0  0  0  0  0
   41.4675   32.0887   40.2669 H   0  0  0  0  0  0  0  0  0  0  0  0
  2  1  1  0
  2  3  2  0
  4  3  1  0
  5  4  2  0
  6 11  2  0
  6  5  1  0
  7  6  1  0
  8  9  1  0
  8  7  2  0
  9 10  2  0
 10 11  1  0
 11  2  1  0
 13 12  2  0
 13  1  1  0
 14 13  1  0
 15 16  1  0
 15 14  2  0
 16 17  2  0
 17 12  1  0
 18 16  1  0
 19 18  2  0
 20 19  1  0
 21 22  1  0
 21 20  2  0
 22 23  2  0
 23 18  1  0
  1 24  1  0
  1 25  1  0
  3 26  1  0
  4 27  1  0
  5 28  1  0
  7 29  1  0
  8 30  1  0
  9 31  1  0
 10 32  1  0
 12 33  1  0
 14 34  1  0
 19 35  1  0
 20 36  1  0
 21 37  1  0
 22 38  1  0
 23 39  1  0
M  ISO  8  24   8  25   8  26  14  27  14  28  14  29  14  30  14  31  14
M  ISO  8  32  14  33  14  34  14  35  14  36  14  37  14  38  14  39  14
M  END
>  <minimizedAffinity>  (1) 
-6.96783161

>  <minimizedRMSD>  (1) 
1.11106849

$$$$
