
     RDKit          3D

 38 41  0  0  0  0  0  0  0  0999 V2000
   37.4140   28.1750   43.0640 C   0  0  0  0  0  0  0  0  0  0  0  0
   38.3210   27.0290   43.0740 C   0  0  0  0  0  0  0  0  0  0  0  0
   39.4330   26.9560   43.9230 C   0  0  0  0  0  0  0  0  0  0  0  0
   40.2620   25.8620   43.9030 C   0  0  0  0  0  0  0  0  0  0  0  0
   39.9910   24.8210   43.0320 C   0  0  0  0  0  0  0  0  0  0  0  0
   38.9020   24.8730   42.1870 C   0  0  0  0  0  0  0  0  0  0  0  0
   38.6200   23.8410   41.3140 C   0  0  0  0  0  0  0  0  0  0  0  0
   37.5450   23.8980   40.4870 C   0  0  0  0  0  0  0  0  0  0  0  0
   36.6840   24.9880   40.4770 C   0  0  0  0  0  0  0  0  0  0  0  0
   36.9940   26.0140   41.3690 C   0  0  0  0  0  0  0  0  0  0  0  0
   38.0670   25.9950   42.2180 C   0  0  0  0  0  0  0  0  0  0  0  0
   39.1850   29.9750   42.9000 C   0  0  0  0  0  0  0  0  0  0  0  0
   37.9790   29.4200   42.4890 C   0  0  0  0  0  0  0  0  0  0  0  0
   37.3010   30.1120   41.4870 C   0  0  0  0  0  0  0  0  0  0  0  0
   37.8390   31.2370   40.9930 N   0  0  0  0  0  0  0  0  0  0  0  0
   38.9970   31.7350   41.4110 C   0  0  0  0  0  0  0  0  0  0  0  0
   39.6830   31.0950   42.3800 N   0  0  0  0  0  0  0  0  0  0  0  0
   39.5030   32.9660   40.8150 C   0  0  0  0  0  0  0  0  0  0  0  0
   38.7470   34.1150   40.7220 C   0  0  0  0  0  0  0  0  0  0  0  0
   39.2210   35.2780   40.1590 C   0  0  0  0  0  0  0  0  0  0  0  0
   40.5210   35.2200   39.6850 C   0  0  0  0  0  0  0  0  0  0  0  0
   41.2980   34.0810   39.7670 C   0  0  0  0  0  0  0  0  0  0  0  0
   40.7590   32.9800   40.3350 N   0  0  0  0  0  0  0  0  0  0  0  0
   36.5253   27.9010   42.4764 H   0  0  0  0  0  0  0  0  0  0  0  0
   37.1910   28.3982   44.1178 H   0  0  0  0  0  0  0  0  0  0  0  0
   39.6444   27.7853   44.6140 H   0  0  0  0  0  0  0  0  0  0  0  0
   41.1333   25.8132   44.5727 H   0  0  0  0  0  0  0  0  0  0  0  0
   40.6519   23.9418   43.0134 H   0  0  0  0  0  0  0  0  0  0  0  0
   39.2767   22.9589   41.2883 H   0  0  0  0  0  0  0  0  0  0  0  0
   37.3502   23.0570   39.8053 H   0  0  0  0  0  0  0  0  0  0  0  0
   35.8126   25.0386   39.8076 H   0  0  0  0  0  0  0  0  0  0  0  0
   36.3345   26.8941   41.3916 H   0  0  0  0  0  0  0  0  0  0  0  0
   39.7544   29.4655   43.6914 H   0  0  0  0  0  0  0  0  0  0  0  0
   36.3380   29.7407   41.1066 H   0  0  0  0  0  0  0  0  0  0  0  0
   37.7197   34.1017   41.1151 H   0  0  0  0  0  0  0  0  0  0  0  0
   38.6099   36.1900   40.0903 H   0  0  0  0  0  0  0  0  0  0  0  0
   40.9534   36.1199   39.2233 H   0  0  0  0  0  0  0  0  0  0  0  0
   42.3277   34.0706   39.3803 H   0  0  0  0  0  0  0  0  0  0  0  0
  1  2  1  0
  2  3  2  0
  4  3  1  0
  5  4  2  0
  6 11  2  0
  6  5  1  0
  7  6  1  0
  8  7  2  0
  9  8  1  0
  9 10  2  0
 10 11  1  0
 11  2  1  0
 13 12  2  0
 13  1  1  0
 14 13  1  0
 15 16  1  0
 15 14  2  0
 16 17  2  0
 17 12  1  0
 18 16  1  0
 19 18  2  0
 20 19  1  0
 21 22  1  0
 21 20  2  0
 22 23  2  0
 23 18  1  0
  1 24  1  0
  1 25  1  0
  3 26  1  0
  4 27  1  0
  5 28  1  0
  7 29  1  0
  8 30  1  0
  9 31  1  0
 10 32  1  0
 12 33  1  0
 14 34  1  0
 19 35  1  0
 20 36  1  0
 21 37  1  0
 22 38  1  0
M  ISO  8  24   8  25   8  26  14  27  14  28  14  29  14  30  14  31  14
M  ISO  7  32  14  33  14  34  14  35  14  36  14  37  14  38  14
M  END
>  <minimizedAffinity>  (1) 
-6.93347168

>  <minimizedRMSD>  (1) 
1.22026205

$$$$
