
     RDKit          3D

 36 39  0  0  0  0  0  0  0  0999 V2000
   38.4180   26.9650   43.1880 C   0  0  0  0  0  0  0  0  0  0  0  0
   39.5930   26.9410   43.9510 C   0  0  0  0  0  0  0  0  0  0  0  0
   40.4560   25.8700   43.8810 C   0  0  0  0  0  0  0  0  0  0  0  0
   40.1470   24.8090   43.0430 C   0  0  0  0  0  0  0  0  0  0  0  0
   39.0060   24.8100   42.2880 C   0  0  0  0  0  0  0  0  0  0  0  0
   38.6770   23.7670   41.4520 C   0  0  0  0  0  0  0  0  0  0  0  0
   37.5450   23.7710   40.7110 C   0  0  0  0  0  0  0  0  0  0  0  0
   36.6530   24.8320   40.7560 C   0  0  0  0  0  0  0  0  0  0  0  0
   36.9980   25.8820   41.6060 C   0  0  0  0  0  0  0  0  0  0  0  0
   38.1380   25.9090   42.3710 C   0  0  0  0  0  0  0  0  0  0  0  0
   37.4770   28.0820   43.2340 C   0  0  0  0  0  0  0  0  0  0  0  0
   39.1640   29.9460   42.9170 C   0  0  0  0  0  0  0  0  0  0  0  0
   37.9490   29.3320   42.5860 C   0  0  0  0  0  0  0  0  0  0  0  0
   37.1870   29.9620   41.6020 C   0  0  0  0  0  0  0  0  0  0  0  0
   37.6550   31.0900   41.0460 N   0  0  0  0  0  0  0  0  0  0  0  0
   38.8140   31.6420   41.3870 C   0  0  0  0  0  0  0  0  0  0  0  0
   39.5830   31.0630   42.3350 N   0  0  0  0  0  0  0  0  0  0  0  0
   39.3270   32.8430   40.8040 N   0  0  0  0  0  0  0  0  0  0  0  0
   38.6610   34.0100   40.6460 C   0  0  0  0  0  0  0  0  0  0  0  0
   39.5400   34.9120   40.0360 C   0  0  0  0  0  0  0  0  0  0  0  0
   40.7090   34.2380   39.8510 N   0  0  0  0  0  0  0  0  0  0  0  0
   40.5770   32.9800   40.3180 C   0  0  0  0  0  0  0  0  0  0  0  0
   39.8288   27.7870   44.6133 H   0  0  0  0  0  0  0  0  0  0  0  0
   41.3776   25.8563   44.4814 H   0  0  0  0  0  0  0  0  0  0  0  0
   40.8322   23.9505   42.9842 H   0  0  0  0  0  0  0  0  0  0  0  0
   39.3553   22.9037   41.3843 H   0  0  0  0  0  0  0  0  0  0  0  0
   37.3272   22.9131   40.0579 H   0  0  0  0  0  0  0  0  0  0  0  0
   35.7300   24.8444   40.1578 H   0  0  0  0  0  0  0  0  0  0  0  0
   36.3148   26.7419   41.6676 H   0  0  0  0  0  0  0  0  0  0  0  0
   36.5501   27.7673   42.7322 H   0  0  0  0  0  0  0  0  0  0  0  0
   37.3397   28.3225   44.2986 H   0  0  0  0  0  0  0  0  0  0  0  0
   39.7959   29.4841   43.6899 H   0  0  0  0  0  0  0  0  0  0  0  0
   36.2202   29.5418   41.2876 H   0  0  0  0  0  0  0  0  0  0  0  0
   37.6211   34.2123   40.9422 H   0  0  0  0  0  0  0  0  0  0  0  0
   39.3291   35.9560   39.7611 H   0  0  0  0  0  0  0  0  0  0  0  0
   41.3538   32.2013   40.3047 H   0  0  0  0  0  0  0  0  0  0  0  0
  1 11  1  0
  1  2  2  0
  3  2  1  0
  4  3  2  0
  5 10  2  0
  5  4  1  0
  6  5  1  0
  7  8  1  0
  7  6  2  0
  8  9  2  0
  9 10  1  0
 10  1  1  0
 13 12  2  0
 13 11  1  0
 14 13  1  0
 15 16  1  0
 15 14  2  0
 16 17  2  0
 17 12  1  0
 18 16  1  0
 19 18  1  0
 20 19  2  0
 21 20  1  0
 21 22  2  0
 22 18  1  0
  2 23  1  0
  3 24  1  0
  4 25  1  0
  6 26  1  0
  7 27  1  0
  8 28  1  0
  9 29  1  0
 11 30  1  0
 11 31  1  0
 12 32  1  0
 14 33  1  0
 19 34  1  0
 20 35  1  0
 22 36  1  0
M  ISO  8  23  14  24  14  25  14  26  14  27  14  28  14  29  14  30   8
M  ISO  6  31   8  32  14  33  14  34  14  35  14  36  14
M  END
>  <minimizedAffinity>  (1) 
-6.83833027

>  <minimizedRMSD>  (1) 
0.881109118

$$$$
