
     RDKit          3D

 41 43  0  0  0  0  0  0  0  0999 V2000
   38.8150   27.0610   43.4220 C   0  0  0  0  0  0  0  0  0  0  0  0
   40.1160   27.0970   43.9340 C   0  0  0  0  0  0  0  0  0  0  0  0
   40.9820   26.0470   43.7310 C   0  0  0  0  0  0  0  0  0  0  0  0
   40.5540   24.9490   43.0130 C   0  0  0  0  0  0  0  0  0  0  0  0
   39.2830   24.8960   42.5040 C   0  0  0  0  0  0  0  0  0  0  0  0
   38.8320   23.7990   41.7800 C   0  0  0  0  0  0  0  0  0  0  0  0
   37.5650   23.7540   41.2790 C   0  0  0  0  0  0  0  0  0  0  0  0
   36.6770   24.7850   41.4640 C   0  0  0  0  0  0  0  0  0  0  0  0
   37.1390   25.8830   42.1920 C   0  0  0  0  0  0  0  0  0  0  0  0
   38.4060   25.9650   42.7120 C   0  0  0  0  0  0  0  0  0  0  0  0
   37.8650   28.1570   43.6150 C   0  0  0  0  0  0  0  0  0  0  0  0
   39.1700   30.1200   42.6900 C   0  0  0  0  0  0  0  0  0  0  0  0
   38.0300   29.3030   42.6950 C   0  0  0  0  0  0  0  0  0  0  0  0
   37.0230   29.6330   41.7680 C   0  0  0  0  0  0  0  0  0  0  0  0
   37.2220   30.6860   40.9590 N   0  0  0  0  0  0  0  0  0  0  0  0
   38.3180   31.4340   40.9850 C   0  0  0  0  0  0  0  0  0  0  0  0
   39.3130   31.1520   41.8620 N   0  0  0  0  0  0  0  0  0  0  0  0
   38.4510   32.5820   40.0500 C   0  0  0  0  0  0  0  0  0  0  0  0
   38.8840   33.8070   40.8180 C   0  0  0  0  0  0  0  0  0  0  0  0
   39.5560   32.2540   39.0690 C   0  0  0  0  0  0  0  0  0  0  0  0
   37.1700   32.8960   39.3210 C   0  0  0  0  0  0  0  0  0  0  0  0
   40.4510   27.9750   44.5057 H   0  0  0  0  0  0  0  0  0  0  0  0
   42.0039   26.0825   44.1365 H   0  0  0  0  0  0  0  0  0  0  0  0
   41.2414   24.1063   42.8473 H   0  0  0  0  0  0  0  0  0  0  0  0
   39.5105   22.9505   41.6078 H   0  0  0  0  0  0  0  0  0  0  0  0
   37.2453   22.8678   40.7112 H   0  0  0  0  0  0  0  0  0  0  0  0
   35.6547   24.7477   41.0596 H   0  0  0  0  0  0  0  0  0  0  0  0
   36.4518   26.7259   42.3572 H   0  0  0  0  0  0  0  0  0  0  0  0
   36.8500   27.7553   43.4795 H   0  0  0  0  0  0  0  0  0  0  0  0
   38.0516   28.5481   44.6261 H   0  0  0  0  0  0  0  0  0  0  0  0
   39.9801   29.8984   43.4004 H   0  0  0  0  0  0  0  0  0  0  0  0
   36.0965   29.0430   41.7080 H   0  0  0  0  0  0  0  0  0  0  0  0
   38.8133   33.6070   41.8974 H   0  0  0  0  0  0  0  0  0  0  0  0
   39.9239   34.0541   40.5582 H   0  0  0  0  0  0  0  0  0  0  0  0
   38.2303   34.6527   40.5582 H   0  0  0  0  0  0  0  0  0  0  0  0
   40.4681   31.9833   39.6211 H   0  0  0  0  0  0  0  0  0  0  0  0
   39.2459   31.4092   38.4365 H   0  0  0  0  0  0  0  0  0  0  0  0
   39.7571   33.1312   38.4365 H   0  0  0  0  0  0  0  0  0  0  0  0
   36.3711   33.0918   40.0513 H   0  0  0  0  0  0  0  0  0  0  0  0
   37.3158   33.7850   38.6898 H   0  0  0  0  0  0  0  0  0  0  0  0
   36.8881   32.0404   38.6898 H   0  0  0  0  0  0  0  0  0  0  0  0
  1 11  1  0
  1  2  2  0
  3  2  1  0
  4  3  2  0
  5 10  2  0
  5  4  1  0
  6  5  1  0
  7  8  1  0
  7  6  2  0
  8  9  2  0
  9 10  1  0
 10  1  1  0
 12 13  2  0
 13 11  1  0
 14 13  1  0
 15 16  1  0
 15 14  2  0
 16 17  2  0
 17 12  1  0
 18 19  1  0
 18 16  1  0
 20 18  1  0
 21 18  1  0
  2 22  1  0
  3 23  1  0
  4 24  1  0
  6 25  1  0
  7 26  1  0
  8 27  1  0
  9 28  1  0
 11 29  1  0
 11 30  1  0
 12 31  1  0
 14 32  1  0
 19 33  1  0
 19 34  1  0
 19 35  1  0
 20 36  1  0
 20 37  1  0
 20 38  1  0
 21 39  1  0
 21 40  1  0
 21 41  1  0
M  ISO  8  22  14  23  14  24  14  25  14  26  14  27  14  28  14  29   8
M  ISO  8  30   8  31  14  32  14  33   8  34   8  35   8  36   8  37   8
M  ISO  4  38   8  39   8  40   8  41   8
M  END
>  <minimizedAffinity>  (1) 
-6.48228025

>  <minimizedRMSD>  (1) 
0.251516819

$$$$
