
     RDKit          3D

 32 34  0  0  0  0  0  0  0  0999 V2000
   38.7480   26.9330   43.4230 C   0  0  0  0  0  0  0  0  0  0  0  0
   40.0620   27.0020   43.9070 C   0  0  0  0  0  0  0  0  0  0  0  0
   40.9610   25.9990   43.6450 C   0  0  0  0  0  0  0  0  0  0  0  0
   40.5590   24.9070   42.8950 C   0  0  0  0  0  0  0  0  0  0  0  0
   39.2810   24.8250   42.4170 C   0  0  0  0  0  0  0  0  0  0  0  0
   38.8640   23.7320   41.6630 C   0  0  0  0  0  0  0  0  0  0  0  0
   37.5870   23.6550   41.1890 C   0  0  0  0  0  0  0  0  0  0  0  0
   36.6480   24.6500   41.4330 C   0  0  0  0  0  0  0  0  0  0  0  0
   37.0960   25.7320   42.1900 C   0  0  0  0  0  0  0  0  0  0  0  0
   38.3710   25.8470   42.6850 C   0  0  0  0  0  0  0  0  0  0  0  0
   37.7580   27.9810   43.6800 C   0  0  0  0  0  0  0  0  0  0  0  0
   38.9260   29.9780   42.6640 C   0  0  0  0  0  0  0  0  0  0  0  0
   37.8200   29.1430   42.7590 C   0  0  0  0  0  0  0  0  0  0  0  0
   36.7410   29.4560   41.9320 C   0  0  0  0  0  0  0  0  0  0  0  0
   36.8360   30.5190   41.1160 N   0  0  0  0  0  0  0  0  0  0  0  0
   37.9130   31.2950   41.0540 C   0  0  0  0  0  0  0  0  0  0  0  0
   38.9730   31.0210   41.8390 N   0  0  0  0  0  0  0  0  0  0  0  0
   38.0050   32.4490   40.1630 C   0  0  0  0  0  0  0  0  0  0  0  0
   38.9560   32.6490   39.3670 O   0  0  0  0  0  0  0  0  0  0  0  0
   37.0250   33.4320   40.1320 O   0  0  0  0  0  0  0  0  0  0  0  0
   40.3761   27.8708   44.5041 H   0  0  0  0  0  0  0  0  0  0  0  0
   41.9906   26.0620   44.0270 H   0  0  0  0  0  0  0  0  0  0  0  0
   41.2739   24.0986   42.6820 H   0  0  0  0  0  0  0  0  0  0  0  0
   39.5733   22.9196   41.4464 H   0  0  0  0  0  0  0  0  0  0  0  0
   37.2913   22.7777   40.5950 H   0  0  0  0  0  0  0  0  0  0  0  0
   35.6175   24.5880   41.0533 H   0  0  0  0  0  0  0  0  0  0  0  0
   36.3841   26.5429   42.4035 H   0  0  0  0  0  0  0  0  0  0  0  0
   36.7571   27.5325   43.5964 H   0  0  0  0  0  0  0  0  0  0  0  0
   37.9791   28.3727   44.6838 H   0  0  0  0  0  0  0  0  0  0  0  0
   39.8002   29.7681   43.2978 H   0  0  0  0  0  0  0  0  0  0  0  0
   35.8279   28.8428   41.9478 H   0  0  0  0  0  0  0  0  0  0  0  0
   37.1159   34.2024   39.5169 H   0  0  0  0  0  0  0  0  0  0  0  0
  1 11  1  0
  1  2  2  0
  3  2  1  0
  4  3  2  0
  5 10  2  0
  5  4  1  0
  6  5  1  0
  7  8  1  0
  7  6  2  0
  8  9  2  0
  9 10  1  0
 10  1  1  0
 12 13  2  0
 13 11  1  0
 14 13  1  0
 15 14  2  0
 16 15  1  0
 16 17  2  0
 17 12  1  0
 18 16  1  0
 19 18  2  0
 20 18  1  0
  2 21  1  0
  3 22  1  0
  4 23  1  0
  6 24  1  0
  7 25  1  0
  8 26  1  0
  9 27  1  0
 11 28  1  0
 11 29  1  0
 12 30  1  0
 14 31  1  0
 20 32  1  0
M  ISO  8  21  14  22  14  23  14  24  14  25  14  26  14  27  14  28   8
M  ISO  4  29   8  30  14  31  14  32   3
M  END
>  <minimizedAffinity>  (1) 
-6.42544508

>  <minimizedRMSD>  (1) 
0.458355576

$$$$
