
     RDKit          3D

 38 40  0  0  0  0  0  0  0  0999 V2000
   38.8430   27.1270   43.4240 C   0  0  0  0  0  0  0  0  0  0  0  0
   40.1490   27.1540   43.9310 C   0  0  0  0  0  0  0  0  0  0  0  0
   41.0010   26.0910   43.7330 C   0  0  0  0  0  0  0  0  0  0  0  0
   40.5590   24.9900   43.0260 C   0  0  0  0  0  0  0  0  0  0  0  0
   39.2780   24.9420   42.5180 C   0  0  0  0  0  0  0  0  0  0  0  0
   38.8100   23.8540   41.8120 C   0  0  0  0  0  0  0  0  0  0  0  0
   37.5510   23.8100   41.3190 C   0  0  0  0  0  0  0  0  0  0  0  0
   36.6660   24.8600   41.4980 C   0  0  0  0  0  0  0  0  0  0  0  0
   37.1520   25.9540   42.2140 C   0  0  0  0  0  0  0  0  0  0  0  0
   38.4210   26.0320   42.7270 C   0  0  0  0  0  0  0  0  0  0  0  0
   37.9050   28.2340   43.6110 C   0  0  0  0  0  0  0  0  0  0  0  0
   39.2060   30.1620   42.6200 C   0  0  0  0  0  0  0  0  0  0  0  0
   38.0590   29.3600   42.6590 C   0  0  0  0  0  0  0  0  0  0  0  0
   37.0480   29.6740   41.7430 C   0  0  0  0  0  0  0  0  0  0  0  0
   37.2390   30.7050   40.9050 N   0  0  0  0  0  0  0  0  0  0  0  0
   38.3420   31.4440   40.8990 C   0  0  0  0  0  0  0  0  0  0  0  0
   39.3420   31.1720   41.7670 N   0  0  0  0  0  0  0  0  0  0  0  0
   38.5640   32.5940   39.9690 C   0  0  0  0  0  0  0  0  0  0  0  0
   38.8780   33.7980   40.8310 C   0  0  0  0  0  0  0  0  0  0  0  0
   37.1970   32.8740   39.3390 C   0  0  0  0  0  0  0  0  0  0  0  0
   40.4969   28.0334   44.4928 H   0  0  0  0  0  0  0  0  0  0  0  0
   42.0248   26.1183   44.1343 H   0  0  0  0  0  0  0  0  0  0  0  0
   41.2382   24.1397   42.8659 H   0  0  0  0  0  0  0  0  0  0  0  0
   39.4795   22.9973   41.6449 H   0  0  0  0  0  0  0  0  0  0  0  0
   37.2226   22.9195   40.7630 H   0  0  0  0  0  0  0  0  0  0  0  0
   35.6411   24.8329   41.0994 H   0  0  0  0  0  0  0  0  0  0  0  0
   36.4758   26.8062   42.3770 H   0  0  0  0  0  0  0  0  0  0  0  0
   36.8846   27.8368   43.5059 H   0  0  0  0  0  0  0  0  0  0  0  0
   38.1154   28.6470   44.6086 H   0  0  0  0  0  0  0  0  0  0  0  0
   40.0255   29.9480   43.3219 H   0  0  0  0  0  0  0  0  0  0  0  0
   36.1173   29.0885   41.7107 H   0  0  0  0  0  0  0  0  0  0  0  0
   39.3542   32.3956   39.2300 H   0  0  0  0  0  0  0  0  0  0  0  0
   38.8050   33.5182   41.8923 H   0  0  0  0  0  0  0  0  0  0  0  0
   39.8977   34.1487   40.6136 H   0  0  0  0  0  0  0  0  0  0  0  0
   38.1595   34.6020   40.6136 H   0  0  0  0  0  0  0  0  0  0  0  0
   36.4515   33.0267   40.1333 H   0  0  0  0  0  0  0  0  0  0  0  0
   37.2589   33.7781   38.7155 H   0  0  0  0  0  0  0  0  0  0  0  0
   36.8984   32.0184   38.7155 H   0  0  0  0  0  0  0  0  0  0  0  0
  1 11  1  0
  1  2  2  0
  3  2  1  0
  4  3  2  0
  5 10  2  0
  5  4  1  0
  6  5  1  0
  7  8  1  0
  7  6  2  0
  8  9  2  0
  9 10  1  0
 10  1  1  0
 12 13  2  0
 13 11  1  0
 14 13  1  0
 15 14  2  0
 16 15  1  0
 16 17  2  0
 17 12  1  0
 18 19  1  0
 18 16  1  0
 20 18  1  0
  2 21  1  0
  3 22  1  0
  4 23  1  0
  6 24  1  0
  7 25  1  0
  8 26  1  0
  9 27  1  0
 11 28  1  0
 11 29  1  0
 12 30  1  0
 14 31  1  0
 18 32  1  0
 19 33  1  0
 19 34  1  0
 19 35  1  0
 20 36  1  0
 20 37  1  0
 20 38  1  0
M  ISO  8  21  14  22  14  23  14  24  14  25  14  26  14  27  14  28   8
M  ISO  8  29   8  30  14  31  14  32   8  33   8  34   8  35   8  36   8
M  ISO  2  37   8  38   8
M  END
>  <minimizedAffinity>  (1) 
-6.2417922

>  <minimizedRMSD>  (1) 
0.205642119

$$$$
