
     RDKit          3D

 30 32  0  0  0  0  0  0  0  0999 V2000
   38.8120   27.0100   43.4390 C   0  0  0  0  0  0  0  0  0  0  0  0
   40.1200   27.0540   43.9370 C   0  0  0  0  0  0  0  0  0  0  0  0
   40.9930   26.0140   43.7050 C   0  0  0  0  0  0  0  0  0  0  0  0
   40.5660   24.9270   42.9770 C   0  0  0  0  0  0  0  0  0  0  0  0
   39.2900   24.8670   42.4830 C   0  0  0  0  0  0  0  0  0  0  0  0
   38.8410   23.7770   41.7460 C   0  0  0  0  0  0  0  0  0  0  0  0
   37.5760   23.7230   41.2620 C   0  0  0  0  0  0  0  0  0  0  0  0
   36.6660   24.7510   41.4750 C   0  0  0  0  0  0  0  0  0  0  0  0
   37.1360   25.8360   42.2150 C   0  0  0  0  0  0  0  0  0  0  0  0
   38.4030   25.9260   42.7190 C   0  0  0  0  0  0  0  0  0  0  0  0
   37.8550   28.0930   43.6670 C   0  0  0  0  0  0  0  0  0  0  0  0
   39.1120   30.0730   42.7110 C   0  0  0  0  0  0  0  0  0  0  0  0
   37.9810   29.2530   42.7510 C   0  0  0  0  0  0  0  0  0  0  0  0
   36.9590   29.5860   41.8730 C   0  0  0  0  0  0  0  0  0  0  0  0
   37.1090   30.6430   41.0620 N   0  0  0  0  0  0  0  0  0  0  0  0
   38.2000   31.4010   41.0520 C   0  0  0  0  0  0  0  0  0  0  0  0
   39.2250   31.1140   41.8920 N   0  0  0  0  0  0  0  0  0  0  0  0
   38.3940   32.8100   39.9670 S   0  0  0  0  0  0  0  0  0  0  0  0
   40.4532   27.9264   44.5183 H   0  0  0  0  0  0  0  0  0  0  0  0
   42.0200   26.0519   44.0973 H   0  0  0  0  0  0  0  0  0  0  0  0
   41.2596   24.0942   42.7891 H   0  0  0  0  0  0  0  0  0  0  0  0
   39.5275   22.9399   41.5513 H   0  0  0  0  0  0  0  0  0  0  0  0
   37.2613   22.8411   40.6848 H   0  0  0  0  0  0  0  0  0  0  0  0
   35.6385   24.7117   41.0843 H   0  0  0  0  0  0  0  0  0  0  0  0
   36.4445   26.6702   42.4044 H   0  0  0  0  0  0  0  0  0  0  0  0
   36.8415   27.6802   43.5553 H   0  0  0  0  0  0  0  0  0  0  0  0
   38.0652   28.4776   44.6759 H   0  0  0  0  0  0  0  0  0  0  0  0
   39.9480   29.8464   43.3891 H   0  0  0  0  0  0  0  0  0  0  0  0
   36.0356   28.9890   41.8428 H   0  0  0  0  0  0  0  0  0  0  0  0
   38.5504   33.9458   40.7170 H   0  0  0  0  0  0  0  0  0  0  0  0
  1 11  1  0
  1  2  2  0
  3  2  1  0
  4  3  2  0
  5 10  2  0
  5  4  1  0
  6  5  1  0
  7  8  1  0
  7  6  2  0
  8  9  2  0
  9 10  1  0
 10  1  1  0
 12 13  2  0
 13 11  1  0
 14 13  1  0
 15 14  2  0
 16 15  1  0
 16 17  2  0
 17 12  1  0
 18 16  1  0
  2 19  1  0
  3 20  1  0
  4 21  1  0
  6 22  1  0
  7 23  1  0
  8 24  1  0
  9 25  1  0
 11 26  1  0
 11 27  1  0
 12 28  1  0
 14 29  1  0
 18 30  1  0
M  ISO  8  19  14  20  14  21  14  22  14  23  14  24  14  25  14  26   8
M  ISO  4  27   8  28  14  29  14  30  11
M  END
>  <minimizedAffinity>  (1) 
-5.80929184

>  <minimizedRMSD>  (1) 
0.0308928303

$$$$
