
     RDKit          3D

 40 43  0  0  1  0  0  0  0  0999 V2000
   40.3080   27.4850   43.2130 N   0  0  0  0  0  0  0  0  0  0  0  0
   41.3050   28.4950   43.0260 C   0  0  0  0  0  0  0  0  0  0  0  0
   42.4170   27.7900   42.2750 C   0  0  0  0  0  0  0  0  0  0  0  0
   43.0280   26.8470   43.1360 N   0  0  0  0  0  0  0  0  0  0  0  0
   42.1610   26.0560   43.9110 C   0  0  0  0  0  0  0  0  0  0  0  0
   40.6860   26.1900   43.7400 C   0  0  2  0  0  0  0  0  0  0  0  0
   38.9260   27.6670   42.9110 C   0  0  0  0  0  0  0  0  0  0  0  0
   37.9090   27.4300   43.8690 C   0  0  0  0  0  0  0  0  0  0  0  0
   36.5910   27.6290   43.4900 C   0  0  0  0  0  0  0  0  0  0  0  0
   36.3540   28.0380   42.2190 N   0  0  0  0  0  0  0  0  0  0  0  0
   37.3430   28.2570   41.3260 C   0  0  0  0  0  0  0  0  0  0  0  0
   38.6190   28.0750   41.6640 N   0  0  0  0  0  0  0  0  0  0  0  0
   40.1170   25.0820   42.9130 C   0  0  0  0  0  0  0  0  0  0  0  0
   39.6830   24.1090   43.5890 O   0  0  0  0  0  0  0  0  0  0  0  0
   39.9530   24.8740   41.4760 C   0  0  0  0  0  0  0  0  0  0  0  0
   40.9380   24.9740   40.5650 N   0  0  0  0  0  0  0  0  0  0  0  0
   40.8030   24.8110   39.2490 C   0  0  0  0  0  0  0  0  0  0  0  0
   39.6000   24.5220   38.7460 N   0  0  0  0  0  0  0  0  0  0  0  0
   38.5550   24.4030   39.5740 C   0  0  0  0  0  0  0  0  0  0  0  0
   37.3410   24.1200   38.9870 C   0  0  0  0  0  0  0  0  0  0  0  0
   36.2070   23.9980   39.7620 C   0  0  0  0  0  0  0  0  0  0  0  0
   36.3450   24.1710   41.1290 C   0  0  0  0  0  0  0  0  0  0  0  0
   37.5830   24.4510   41.6630 C   0  0  0  0  0  0  0  0  0  0  0  0
   38.7310   24.5780   40.9220 C   0  0  0  0  0  0  0  0  0  0  0  0
   40.9054   29.3321   42.4347 H   0  0  0  0  0  0  0  0  0  0  0  0
   41.6489   28.9270   43.9774 H   0  0  0  0  0  0  0  0  0  0  0  0
   41.9999   27.2730   41.3982 H   0  0  0  0  0  0  0  0  0  0  0  0
   43.1632   28.5251   41.9391 H   0  0  0  0  0  0  0  0  0  0  0  0
   43.5954   26.2134   42.5550 H   0  0  0  0  0  0  0  0  0  0  0  0
   42.4124   25.0062   43.6993 H   0  0  0  0  0  0  0  0  0  0  0  0
   42.3333   26.4166   44.9358 H   0  0  0  0  0  0  0  0  0  0  0  0
   40.2497   26.1107   44.7466 H   0  0  0  0  0  0  0  0  0  0  0  0
   38.1593   27.0967   44.8870 H   0  0  0  0  0  0  0  0  0  0  0  0
   35.7648   27.4608   44.1965 H   0  0  0  0  0  0  0  0  0  0  0  0
   37.0924   28.5895   40.3078 H   0  0  0  0  0  0  0  0  0  0  0  0
   41.6733   24.9134   38.5842 H   0  0  0  0  0  0  0  0  0  0  0  0
   37.2762   23.9910   37.8965 H   0  0  0  0  0  0  0  0  0  0  0  0
   35.2294   23.7717   39.3113 H   0  0  0  0  0  0  0  0  0  0  0  0
   35.4676   24.0849   41.7868 H   0  0  0  0  0  0  0  0  0  0  0  0
   37.6564   24.5811   42.7528 H   0  0  0  0  0  0  0  0  0  0  0  0
  1  6  1  0
  2  1  1  0
  3  2  1  0
  3  4  1  0
  4  5  1  0
  6  5  1  0
  7  1  1  0
  7  8  2  0
  9  8  1  0
 10  9  2  0
 11 12  2  0
 11 10  1  0
 12  7  1  0
 13 14  2  0
 13  6  1  0
 15 13  1  0
 16 15  2  0
 17 16  1  0
 18 17  2  0
 18 19  1  0
 19 24  2  0
 20 19  1  0
 20 21  2  0
 21 22  1  0
 22 23  2  0
 24 15  1  0
 24 23  1  0
  2 25  1  0
  2 26  1  0
  3 27  1  0
  3 28  1  0
  4 29  1  0
  5 30  1  0
  5 31  1  0
  6 32  1  1
  8 33  1  0
  9 34  1  0
 11 35  1  0
 17 36  1  0
 20 37  1  0
 21 38  1  0
 22 39  1  0
 23 40  1  0
M  ISO  8  25  13  26  13  27  13  28  13  29   5  30  13  31  13  32  13
M  ISO  8  33  14  34  14  35  14  36  14  37  14  38  14  39  14  40  14
M  END
>  <minimizedAffinity>  (1) 
-5.20284939

>  <minimizedRMSD>  (1) 
2.85501933

$$$$
