
     RDKit          3D

 42 45  0  0  1  0  0  0  0  0999 V2000
   40.1870   28.3910   42.9600 N   0  0  0  0  0  0  0  0  0  0  0  0
   40.9830   29.5210   42.6160 C   0  0  0  0  0  0  0  0  0  0  0  0
   42.2360   28.9450   42.0300 C   0  0  0  0  0  0  0  0  0  0  0  0
   42.9760   28.2670   43.0280 N   0  0  0  0  0  0  0  0  0  0  0  0
   42.2490   27.4500   43.8910 C   0  0  0  0  0  0  0  0  0  0  0  0
   40.7680   27.2630   43.6780 C   0  0  2  0  0  0  0  0  0  0  0  0
   38.7930   28.2710   42.6450 C   0  0  0  0  0  0  0  0  0  0  0  0
   37.8130   28.0120   43.6390 C   0  0  0  0  0  0  0  0  0  0  0  0
   36.4880   27.9070   43.2310 C   0  0  0  0  0  0  0  0  0  0  0  0
   36.2190   28.0600   41.9030 N   0  0  0  0  0  0  0  0  0  0  0  0
   37.1890   28.3100   40.9750 C   0  0  0  0  0  0  0  0  0  0  0  0
   38.4670   28.4140   41.3520 N   0  0  0  0  0  0  0  0  0  0  0  0
   40.3990   25.9820   43.0690 C   0  0  0  0  0  0  0  0  0  0  0  0
   40.1010   25.1020   43.9370 O   0  0  0  0  0  0  0  0  0  0  0  0
   40.2580   25.3370   41.7840 C   0  0  0  0  0  0  0  0  0  0  0  0
   41.2710   25.3000   40.8550 C   0  0  0  0  0  0  0  0  0  0  0  0
   41.2330   24.8450   39.5570 C   0  0  0  0  0  0  0  0  0  0  0  0
   40.0070   24.3700   39.1560 C   0  0  0  0  0  0  0  0  0  0  0  0
   38.9270   24.3600   40.0030 C   0  0  0  0  0  0  0  0  0  0  0  0
   37.7390   23.8520   39.5690 C   0  0  0  0  0  0  0  0  0  0  0  0
   36.6160   23.7720   40.3560 C   0  0  0  0  0  0  0  0  0  0  0  0
   36.7650   24.2480   41.6460 C   0  0  0  0  0  0  0  0  0  0  0  0
   37.9630   24.7570   42.0720 C   0  0  0  0  0  0  0  0  0  0  0  0
   39.0860   24.8390   41.2820 C   0  0  0  0  0  0  0  0  0  0  0  0
   40.4639   30.1499   41.8778 H   0  0  0  0  0  0  0  0  0  0  0  0
   41.1890   30.1628   43.4852 H   0  0  0  0  0  0  0  0  0  0  0  0
   41.9712   28.2375   41.2304 H   0  0  0  0  0  0  0  0  0  0  0  0
   42.8493   29.7616   41.6212 H   0  0  0  0  0  0  0  0  0  0  0  0
   43.6752   27.6780   42.5537 H   0  0  0  0  0  0  0  0  0  0  0  0
   42.7060   26.4506   43.8436 H   0  0  0  0  0  0  0  0  0  0  0  0
   42.3026   27.9832   44.8516 H   0  0  0  0  0  0  0  0  0  0  0  0
   40.3312   27.2318   44.6871 H   0  0  0  0  0  0  0  0  0  0  0  0
   38.0927   27.8982   44.6968 H   0  0  0  0  0  0  0  0  0  0  0  0
   35.6841   27.7073   43.9548 H   0  0  0  0  0  0  0  0  0  0  0  0
   36.9181   28.4260   39.9152 H   0  0  0  0  0  0  0  0  0  0  0  0
   42.2430   25.6863   41.1954 H   0  0  0  0  0  0  0  0  0  0  0  0
   42.1113   24.8601   38.8949 H   0  0  0  0  0  0  0  0  0  0  0  0
   39.8885   23.9885   38.1311 H   0  0  0  0  0  0  0  0  0  0  0  0
   37.6762   23.4866   38.5334 H   0  0  0  0  0  0  0  0  0  0  0  0
   35.6659   23.3588   39.9865 H   0  0  0  0  0  0  0  0  0  0  0  0
   35.9108   24.2174   42.3384 H   0  0  0  0  0  0  0  0  0  0  0  0
   38.0312   25.1219   43.1075 H   0  0  0  0  0  0  0  0  0  0  0  0
  1  6  1  0
  2  1  1  0
  3  2  1  0
  3  4  1  0
  4  5  1  0
  6  5  1  0
  7  1  1  0
  7  8  2  0
  9  8  1  0
 10  9  2  0
 11 12  2  0
 11 10  1  0
 12  7  1  0
 13  6  1  0
 13 14  2  0
 15 13  1  0
 16 15  2  0
 17 16  1  0
 18 17  2  0
 18 19  1  0
 19 24  2  0
 20 19  1  0
 20 21  2  0
 21 22  1  0
 22 23  2  0
 24 15  1  0
 24 23  1  0
  2 25  1  0
  2 26  1  0
  3 27  1  0
  3 28  1  0
  4 29  1  0
  5 30  1  0
  5 31  1  0
  6 32  1  1
  8 33  1  0
  9 34  1  0
 11 35  1  0
 16 36  1  0
 17 37  1  0
 18 38  1  0
 20 39  1  0
 21 40  1  0
 22 41  1  0
 23 42  1  0
M  ISO  8  25  13  26  13  27  13  28  13  29   5  30  13  31  13  32  13
M  ISO  8  33  14  34  14  35  14  36  14  37  14  38  14  39  14  40  14
M  ISO  2  41  14  42  14
M  END
>  <minimizedAffinity>  (1) 
-5.18493891

>  <minimizedRMSD>  (1) 
2.34692311

$$$$
