
     RDKit          3D

 22 23  0  0  0  0  0  0  0  0999 V2000
   37.4770   29.8320   41.8410 C   0  0  0  0  0  0  0  0  0  0  0  0
   37.6020   28.4380   41.6440 C   0  0  0  0  0  0  0  0  0  0  0  0
   36.6170   27.8140   40.8570 C   0  0  0  0  0  0  0  0  0  0  0  0
   35.6140   28.5670   40.3370 N   0  0  0  0  0  0  0  0  0  0  0  0
   35.5300   29.8980   40.5480 C   0  0  0  0  0  0  0  0  0  0  0  0
   36.4640   30.5210   41.3010 N   0  0  0  0  0  0  0  0  0  0  0  0
   38.6360   27.6500   42.1800 N   0  0  0  0  0  0  0  0  0  0  0  0
   38.5260   26.5090   43.0460 C   0  0  0  0  0  0  0  0  0  0  0  0
   39.7680   26.5930   43.9290 C   0  0  0  0  0  0  0  0  0  0  0  0
   40.5920   27.7140   43.3720 C   0  0  0  0  0  0  0  0  0  0  0  0
   40.0490   27.8340   41.9640 C   0  0  0  0  0  0  0  0  0  0  0  0
   38.2258   30.3606   42.4492 H   0  0  0  0  0  0  0  0  0  0  0  0
   36.6588   26.7316   40.6657 H   0  0  0  0  0  0  0  0  0  0  0  0
   34.7029   30.4744   40.1079 H   0  0  0  0  0  0  0  0  0  0  0  0
   37.6104   26.5659   43.6530 H   0  0  0  0  0  0  0  0  0  0  0  0
   38.4650   25.5612   42.4910 H   0  0  0  0  0  0  0  0  0  0  0  0
   39.4839   26.8073   44.9698 H   0  0  0  0  0  0  0  0  0  0  0  0
   40.3257   25.6449   43.9333 H   0  0  0  0  0  0  0  0  0  0  0  0
   40.4386   28.6434   43.9401 H   0  0  0  0  0  0  0  0  0  0  0  0
   41.6759   27.5318   43.4154 H   0  0  0  0  0  0  0  0  0  0  0  0
   40.4596   27.0525   41.3078 H   0  0  0  0  0  0  0  0  0  0  0  0
   40.3053   28.7804   41.4653 H   0  0  0  0  0  0  0  0  0  0  0  0
  2  1  2  0
  2  7  1  0
  3  2  1  0
  4  5  1  0
  4  3  2  0
  5  6  2  0
  6  1  1  0
  7  8  1  0
  8  9  1  0
 10  9  1  0
 11  7  1  0
 11 10  1  0
  1 12  1  0
  3 13  1  0
  5 14  1  0
  8 15  1  0
  8 16  1  0
  9 17  1  0
  9 18  1  0
 10 19  1  0
 10 20  1  0
 11 21  1  0
 11 22  1  0
M  ISO  8  12  14  13  14  14  14  15  13  16  13  17  13  18  13  19  13
M  ISO  3  20  13  21  13  22  13
M  END
>  <minimizedAffinity>  (1) 
-3.26208544

>  <minimizedRMSD>  (1) 
2.5828526

$$$$
