
     RDKit          3D

 36 39  0  0  1  0  0  0  0  0999 V2000
   37.4160   28.7000   42.0890 N   0  0  0  0  0  0  0  0  0  0  0  0
   36.6390   27.4880   42.0870 C   0  0  0  0  0  0  0  0  0  0  0  0
   36.3290   27.2460   43.5490 C   0  0  0  0  0  0  0  0  0  0  0  0
   37.0880   28.2760   44.3040 C   0  0  0  0  0  0  0  0  0  0  0  0
   38.1500   28.7190   43.3360 C   0  0  1  0  0  0  0  0  0  0  0  0
   39.3260   27.8420   43.3170 C   0  0  0  0  0  0  0  0  0  0  0  0
   39.1580   26.5310   43.6290 N   0  0  0  0  0  0  0  0  0  0  0  0
   40.1830   25.6460   43.6340 C   0  0  0  0  0  0  0  0  0  0  0  0
   41.4560   25.9860   43.3290 N   0  0  0  0  0  0  0  0  0  0  0  0
   41.6580   27.2970   43.0110 C   0  0  0  0  0  0  0  0  0  0  0  0
   42.9260   27.7350   42.6880 C   0  0  0  0  0  0  0  0  0  0  0  0
   43.1670   29.0620   42.3600 C   0  0  0  0  0  0  0  0  0  0  0  0
   42.1110   29.9430   42.3630 C   0  0  0  0  0  0  0  0  0  0  0  0
   40.8410   29.5200   42.6830 C   0  0  0  0  0  0  0  0  0  0  0  0
   40.6170   28.2000   43.0050 C   0  0  0  0  0  0  0  0  0  0  0  0
   36.6700   30.8650   41.1090 C   0  0  0  0  0  0  0  0  0  0  0  0
   37.4740   29.6920   41.0910 C   0  0  0  0  0  0  0  0  0  0  0  0
   38.3630   29.5360   40.0260 C   0  0  0  0  0  0  0  0  0  0  0  0
   38.4140   30.5020   39.0690 N   0  0  0  0  0  0  0  0  0  0  0  0
   37.6270   31.6080   39.1240 C   0  0  0  0  0  0  0  0  0  0  0  0
   36.7660   31.7800   40.1400 N   0  0  0  0  0  0  0  0  0  0  0  0
   35.7130   27.6187   41.5079 H   0  0  0  0  0  0  0  0  0  0  0  0
   37.1725   26.6452   41.6233 H   0  0  0  0  0  0  0  0  0  0  0  0
   35.2501   27.3541   43.7340 H   0  0  0  0  0  0  0  0  0  0  0  0
   36.6124   26.2291   43.8582 H   0  0  0  0  0  0  0  0  0  0  0  0
   36.4363   29.1171   44.5830 H   0  0  0  0  0  0  0  0  0  0  0  0
   37.5047   27.8919   45.2468 H   0  0  0  0  0  0  0  0  0  0  0  0
   38.5937   29.6943   43.5847 H   0  0  0  0  0  0  0  0  0  0  0  0
   39.9699   24.5999   43.8990 H   0  0  0  0  0  0  0  0  0  0  0  0
   43.7613   27.0193   42.6905 H   0  0  0  0  0  0  0  0  0  0  0  0
   44.1812   29.4018   42.1031 H   0  0  0  0  0  0  0  0  0  0  0  0
   42.2835   30.9987   42.1065 H   0  0  0  0  0  0  0  0  0  0  0  0
   40.0057   30.2357   42.6815 H   0  0  0  0  0  0  0  0  0  0  0  0
   35.9584   31.0214   41.9331 H   0  0  0  0  0  0  0  0  0  0  0  0
   39.0101   28.6488   39.9617 H   0  0  0  0  0  0  0  0  0  0  0  0
   37.6955   32.3675   38.3312 H   0  0  0  0  0  0  0  0  0  0  0  0
  1  5  1  0
  2  1  1  0
  2  3  1  0
  3  4  1  0
  5  4  1  0
  6  5  1  0
  6  7  2  0
  7  8  1  0
  9  8  2  0
 10  9  1  0
 11 10  2  0
 12 13  2  0
 12 11  1  0
 13 14  1  0
 14 15  2  0
 15 10  1  0
 15  6  1  0
 17 16  2  0
 17  1  1  0
 18 17  1  0
 19 20  1  0
 19 18  2  0
 20 21  2  0
 21 16  1  0
  2 22  1  0
  2 23  1  0
  3 24  1  0
  3 25  1  0
  4 26  1  0
  4 27  1  0
  5 28  1  1
  8 29  1  0
 11 30  1  0
 12 31  1  0
 13 32  1  0
 14 33  1  0
 16 34  1  0
 18 35  1  0
 20 36  1  0
M  ISO  8  22  13  23  13  24  13  25  13  26  13  27  13  28  13  29  14
M  ISO  7  30  14  31  14  32  14  33  14  34  14  35  14  36  14
M  END
>  <minimizedAffinity>  (1) 
-5.44867849

>  <minimizedRMSD>  (1) 
4.02082348

$$$$
