
     RDKit          3D

 35 38  0  0  1  0  0  0  0  0999 V2000
   36.9490   28.0750   41.5370 N   0  0  0  0  0  0  0  0  0  0  0  0
   36.6280   27.6000   42.8640 C   0  0  0  0  0  0  0  0  0  0  0  0
   37.4670   28.4690   43.7870 C   0  0  0  0  0  0  0  0  0  0  0  0
   38.3570   29.2710   42.8860 C   0  0  0  0  0  0  0  0  0  0  0  0
   38.3250   28.4600   41.6140 C   0  0  2  0  0  0  0  0  0  0  0  0
   35.0760   29.0920   40.2670 C   0  0  0  0  0  0  0  0  0  0  0  0
   36.1020   28.1460   40.4200 C   0  0  0  0  0  0  0  0  0  0  0  0
   36.2780   27.2130   39.3720 C   0  0  0  0  0  0  0  0  0  0  0  0
   35.4610   27.2820   38.2960 N   0  0  0  0  0  0  0  0  0  0  0  0
   34.4790   28.2130   38.1850 C   0  0  0  0  0  0  0  0  0  0  0  0
   34.3000   29.1060   39.1750 N   0  0  0  0  0  0  0  0  0  0  0  0
   38.7760   29.1890   40.4680 N   0  0  0  0  0  0  0  0  0  0  0  0
   39.5860   28.6600   39.5310 C   0  0  0  0  0  0  0  0  0  0  0  0
   39.7980   29.6270   38.6130 N   0  0  0  0  0  0  0  0  0  0  0  0
   39.1280   30.7290   38.9840 C   0  0  0  0  0  0  0  0  0  0  0  0
   38.9740   31.9960   38.4540 C   0  0  0  0  0  0  0  0  0  0  0  0
   38.2350   32.9820   39.0030 N   0  0  0  0  0  0  0  0  0  0  0  0
   37.6130   32.6500   40.1710 C   0  0  0  0  0  0  0  0  0  0  0  0
   37.7190   31.4260   40.7520 N   0  0  0  0  0  0  0  0  0  0  0  0
   38.4730   30.4560   40.1680 C   0  0  0  0  0  0  0  0  0  0  0  0
   39.6320   32.3160   37.2340 N   0  0  0  0  0  0  0  0  0  0  0  0
   35.5562   27.7287   43.0753 H   0  0  0  0  0  0  0  0  0  0  0  0
   36.8393   26.5278   42.9892 H   0  0  0  0  0  0  0  0  0  0  0  0
   36.8218   29.1336   44.3803 H   0  0  0  0  0  0  0  0  0  0  0  0
   38.0473   27.8644   44.4995 H   0  0  0  0  0  0  0  0  0  0  0  0
   37.9565   30.2828   42.7255 H   0  0  0  0  0  0  0  0  0  0  0  0
   39.3691   29.4288   43.2870 H   0  0  0  0  0  0  0  0  0  0  0  0
   39.0142   27.6027   41.6267 H   0  0  0  0  0  0  0  0  0  0  0  0
   34.9060   29.8361   41.0591 H   0  0  0  0  0  0  0  0  0  0  0  0
   37.0642   26.4459   39.4306 H   0  0  0  0  0  0  0  0  0  0  0  0
   33.8354   28.2369   37.2933 H   0  0  0  0  0  0  0  0  0  0  0  0
   39.9951   27.6390   39.5165 H   0  0  0  0  0  0  0  0  0  0  0  0
   36.9942   33.4118   40.6677 H   0  0  0  0  0  0  0  0  0  0  0  0
   39.5287   33.2553   36.8241 H   0  0  0  0  0  0  0  0  0  0  0  0
   40.2117   31.6084   36.7605 H   0  0  0  0  0  0  0  0  0  0  0  0
  1  5  1  0
  1  2  1  0
  2  3  1  0
  4  3  1  0
  5  4  1  0
  6  7  2  0
  7  1  1  0
  8  7  1  0
  9  8  2  0
 10  9  1  0
 10 11  2  0
 11  6  1  0
 12  5  1  0
 13 12  1  0
 14 15  1  0
 14 13  2  0
 15 20  2  0
 16 15  1  0
 16 17  2  0
 17 18  1  0
 18 19  2  0
 20 12  1  0
 20 19  1  0
 21 16  1  0
  2 22  1  0
  2 23  1  0
  3 24  1  0
  3 25  1  0
  4 26  1  0
  4 27  1  0
  5 28  1  1
  6 29  1  0
  8 30  1  0
 10 31  1  0
 13 32  1  0
 18 33  1  0
 21 34  1  0
 21 35  1  0
M  ISO  8  22  13  23  13  24  13  25  13  26  13  27  13  28  13  29  14
M  ISO  4  30  14  31  14  32  14  33  14
M  END
>  <minimizedAffinity>  (1) 
-5.3703804

>  <minimizedRMSD>  (1) 
2.56613708

$$$$
