
     RDKit          3D

 35 37  0  0  1  0  0  0  0  0999 V2000
   37.5360   28.9690   42.2710 N   0  0  0  0  0  0  0  0  0  0  0  0
   36.5090   27.9730   42.0620 C   0  0  0  0  0  0  0  0  0  0  0  0
   36.3070   27.3590   43.4490 C   0  0  0  0  0  0  0  0  0  0  0  0
   37.3260   28.0040   44.3240 C   0  0  0  0  0  0  0  0  0  0  0  0
   38.3800   28.4240   43.3030 C   0  0  1  0  0  0  0  0  0  0  0  0
   38.8850   30.9430   41.5870 C   0  0  0  0  0  0  0  0  0  0  0  0
   37.6930   30.2000   41.6170 C   0  0  0  0  0  0  0  0  0  0  0  0
   36.5890   30.7490   40.9350 C   0  0  0  0  0  0  0  0  0  0  0  0
   36.7250   31.9340   40.3010 N   0  0  0  0  0  0  0  0  0  0  0  0
   37.8970   32.6140   40.3000 C   0  0  0  0  0  0  0  0  0  0  0  0
   38.9650   32.1150   40.9410 N   0  0  0  0  0  0  0  0  0  0  0  0
   39.0070   27.1710   42.8750 N   0  0  0  0  0  0  0  0  0  0  0  0
   39.6870   26.5720   44.0050 C   0  0  0  0  0  0  0  0  0  0  0  0
   40.8250   25.6970   43.5230 C   0  0  0  0  0  0  0  0  0  0  0  0
   40.3710   25.0940   42.3300 O   0  0  0  0  0  0  0  0  0  0  0  0
   40.4120   26.0440   41.3120 C   0  0  0  0  0  0  0  0  0  0  0  0
   39.9050   27.3830   41.7630 C   0  0  0  0  0  0  0  0  0  0  0  0
   35.5800   28.4381   41.7004 H   0  0  0  0  0  0  0  0  0  0  0  0
   36.7885   27.2269   41.3035 H   0  0  0  0  0  0  0  0  0  0  0  0
   35.2931   27.5713   43.8191 H   0  0  0  0  0  0  0  0  0  0  0  0
   36.4197   26.2649   43.4305 H   0  0  0  0  0  0  0  0  0  0  0  0
   36.9092   28.8740   44.8526 H   0  0  0  0  0  0  0  0  0  0  0  0
   37.7093   27.3520   45.1227 H   0  0  0  0  0  0  0  0  0  0  0  0
   39.1686   29.1229   43.6187 H   0  0  0  0  0  0  0  0  0  0  0  0
   39.7736   30.5540   42.1058 H   0  0  0  0  0  0  0  0  0  0  0  0
   35.6259   30.2179   40.9190 H   0  0  0  0  0  0  0  0  0  0  0  0
   37.9730   33.5765   39.7729 H   0  0  0  0  0  0  0  0  0  0  0  0
   40.0877   27.3666   44.6516 H   0  0  0  0  0  0  0  0  0  0  0  0
   38.9725   25.9550   44.5696 H   0  0  0  0  0  0  0  0  0  0  0  0
   41.7197   26.3063   43.3273 H   0  0  0  0  0  0  0  0  0  0  0  0
   41.1025   24.9444   44.2757 H   0  0  0  0  0  0  0  0  0  0  0  0
   39.7898   25.6934   40.4754 H   0  0  0  0  0  0  0  0  0  0  0  0
   41.4619   26.1664   41.0074 H   0  0  0  0  0  0  0  0  0  0  0  0
   40.7486   28.0138   42.0799 H   0  0  0  0  0  0  0  0  0  0  0  0
   39.3796   27.8889   40.9396 H   0  0  0  0  0  0  0  0  0  0  0  0
  1  5  1  0
  2  1  1  0
  2  3  1  0
  3  4  1  0
  5  4  1  0
  6  7  2  0
  7  1  1  0
  8  7  1  0
  9  8  2  0
 10  9  1  0
 10 11  2  0
 11  6  1  0
 12  5  1  0
 12 13  1  0
 14 13  1  0
 15 14  1  0
 16 17  1  0
 16 15  1  0
 17 12  1  0
  2 18  1  0
  2 19  1  0
  3 20  1  0
  3 21  1  0
  4 22  1  0
  4 23  1  0
  5 24  1  1
  6 25  1  0
  8 26  1  0
 10 27  1  0
 13 28  1  0
 13 29  1  0
 14 30  1  0
 14 31  1  0
 16 32  1  0
 16 33  1  0
 17 34  1  0
 17 35  1  0
M  ISO  8  18  13  19  13  20  13  21  13  22  13  23  13  24  13  25  14
M  ISO  8  26  14  27  14  28  13  29  13  30  13  31  13  32  13  33  13
M  ISO  2  34  13  35  13
M  END
>  <minimizedAffinity>  (1) 
-4.98908281

>  <minimizedRMSD>  (1) 
2.92639875

$$$$
