
     RDKit          3D

 35 37  0  0  1  0  0  0  0  0999 V2000
   38.1370   28.1160   42.1190 N   0  0  0  0  0  0  0  0  0  0  0  0
   37.8600   27.9560   43.5270 C   0  0  0  0  0  0  0  0  0  0  0  0
   39.0660   27.1720   44.0340 C   0  0  0  0  0  0  0  0  0  0  0  0
   39.9060   26.8570   42.8350 C   0  0  0  0  0  0  0  0  0  0  0  0
   38.8790   26.9410   41.7080 C   0  0  1  0  0  0  0  0  0  0  0  0
   38.3970   29.4980   40.0620 C   0  0  0  0  0  0  0  0  0  0  0  0
   37.7690   29.1880   41.2950 C   0  0  0  0  0  0  0  0  0  0  0  0
   36.7220   30.0260   41.6820 C   0  0  0  0  0  0  0  0  0  0  0  0
   36.3580   31.0670   40.8930 N   0  0  0  0  0  0  0  0  0  0  0  0
   36.9830   31.3270   39.7250 C   0  0  0  0  0  0  0  0  0  0  0  0
   37.9990   30.5410   39.3160 N   0  0  0  0  0  0  0  0  0  0  0  0
   38.0140   25.7290   41.8810 C   0  0  0  0  0  0  0  0  0  0  0  0
   38.7690   24.4350   41.9030 C   0  0  0  0  0  0  0  0  0  0  0  0
   37.9640   23.4640   41.0350 C   0  0  0  0  0  0  0  0  0  0  0  0
   36.5770   24.0890   41.0970 C   0  0  0  0  0  0  0  0  0  0  0  0
   36.9380   25.5520   40.8690 C   0  0  0  0  0  0  0  0  0  0  0  0
   37.7859   28.9327   44.0277 H   0  0  0  0  0  0  0  0  0  0  0  0
   36.9034   27.4495   43.7231 H   0  0  0  0  0  0  0  0  0  0  0  0
   39.6393   27.7787   44.7503 H   0  0  0  0  0  0  0  0  0  0  0  0
   38.7530   26.2533   44.5516 H   0  0  0  0  0  0  0  0  0  0  0  0
   40.7089   27.5971   42.7021 H   0  0  0  0  0  0  0  0  0  0  0  0
   40.4255   25.8892   42.8950 H   0  0  0  0  0  0  0  0  0  0  0  0
   39.2570   26.9888   40.6761 H   0  0  0  0  0  0  0  0  0  0  0  0
   39.2284   28.8702   39.7090 H   0  0  0  0  0  0  0  0  0  0  0  0
   36.1917   29.8418   42.6279 H   0  0  0  0  0  0  0  0  0  0  0  0
   36.6635   32.1795   39.1076 H   0  0  0  0  0  0  0  0  0  0  0  0
   37.5651   25.9475   42.8612 H   0  0  0  0  0  0  0  0  0  0  0  0
   39.7778   24.5736   41.4870 H   0  0  0  0  0  0  0  0  0  0  0  0
   38.8892   24.0552   42.9283 H   0  0  0  0  0  0  0  0  0  0  0  0
   37.9674   22.4484   41.4575 H   0  0  0  0  0  0  0  0  0  0  0  0
   38.3569   23.3392   40.0152 H   0  0  0  0  0  0  0  0  0  0  0  0
   35.9188   23.7023   40.3050 H   0  0  0  0  0  0  0  0  0  0  0  0
   36.0182   23.8877   42.0228 H   0  0  0  0  0  0  0  0  0  0  0  0
   37.3091   25.7239   39.8479 H   0  0  0  0  0  0  0  0  0  0  0  0
   36.0956   26.2521   40.9697 H   0  0  0  0  0  0  0  0  0  0  0  0
  1  2  1  0
  2  3  1  0
  4  3  1  0
  5 12  1  0
  5  1  1  0
  5  4  1  0
  6  7  2  0
  7  8  1  0
  7  1  1  0
  9  8  2  0
 10  9  1  0
 11 10  2  0
 11  6  1  0
 12 13  1  0
 14 15  1  0
 14 13  1  0
 16 15  1  0
 16 12  1  0
  2 17  1  0
  2 18  1  0
  3 19  1  0
  3 20  1  0
  4 21  1  0
  4 22  1  0
  5 23  1  6
  6 24  1  0
  8 25  1  0
 10 26  1  0
 12 27  1  0
 13 28  1  0
 13 29  1  0
 14 30  1  0
 14 31  1  0
 15 32  1  0
 15 33  1  0
 16 34  1  0
 16 35  1  0
M  ISO  8  17  13  18  13  19  13  20  13  21  13  22  13  23  13  24  14
M  ISO  8  25  14  26  14  27  13  28  13  29  13  30  13  31  13  32  13
M  ISO  3  33  13  34  13  35  13
M  END
>  <minimizedAffinity>  (1) 
-4.56679296

>  <minimizedRMSD>  (1) 
2.80544329

$$$$
