
     RDKit          3D

 33 36  0  0  1  0  0  0  0  0999 V2000
   38.4010   27.7370   42.2760 N   0  0  0  0  0  0  0  0  0  0  0  0
   39.2900   28.5490   43.0660 C   0  0  0  0  0  0  0  0  0  0  0  0
   40.4350   27.6020   43.4110 C   0  0  0  0  0  0  0  0  0  0  0  0
   40.0590   26.2730   42.8580 C   0  0  0  0  0  0  0  0  0  0  0  0
   38.5500   26.4000   42.7910 C   0  0  2  0  0  0  0  0  0  0  0  0
   37.9570   25.3730   42.0010 N   0  0  0  0  0  0  0  0  0  0  0  0
   36.7530   24.8210   42.1540 C   0  0  0  0  0  0  0  0  0  0  0  0
   36.5790   23.8830   41.1910 N   0  0  0  0  0  0  0  0  0  0  0  0
   37.6710   23.8340   40.4200 C   0  0  0  0  0  0  0  0  0  0  0  0
   38.0620   23.0930   39.3130 C   0  0  0  0  0  0  0  0  0  0  0  0
   39.2740   23.2530   38.7040 N   0  0  0  0  0  0  0  0  0  0  0  0
   40.0720   24.1810   39.2470 C   0  0  0  0  0  0  0  0  0  0  0  0
   39.7200   24.9130   40.3180 N   0  0  0  0  0  0  0  0  0  0  0  0
   38.5330   24.7780   40.9400 C   0  0  0  0  0  0  0  0  0  0  0  0
   37.9550   28.2530   39.8860 C   0  0  0  0  0  0  0  0  0  0  0  0
   37.5630   28.1350   41.2270 C   0  0  0  0  0  0  0  0  0  0  0  0
   36.2190   28.4440   41.5300 C   0  0  0  0  0  0  0  0  0  0  0  0
   35.3850   28.8320   40.5310 N   0  0  0  0  0  0  0  0  0  0  0  0
   35.8200   28.9300   39.2460 C   0  0  0  0  0  0  0  0  0  0  0  0
   37.1140   28.6360   38.9310 N   0  0  0  0  0  0  0  0  0  0  0  0
   39.6543   29.4099   42.4861 H   0  0  0  0  0  0  0  0  0  0  0  0
   38.8027   28.9709   43.9574 H   0  0  0  0  0  0  0  0  0  0  0  0
   41.3713   27.9539   42.9533 H   0  0  0  0  0  0  0  0  0  0  0  0
   40.5981   27.5512   44.4977 H   0  0  0  0  0  0  0  0  0  0  0  0
   40.4950   26.1130   41.8609 H   0  0  0  0  0  0  0  0  0  0  0  0
   40.4148   25.4188   43.4527 H   0  0  0  0  0  0  0  0  0  0  0  0
   38.0251   26.2636   43.7480 H   0  0  0  0  0  0  0  0  0  0  0  0
   36.0218   25.0834   42.9328 H   0  0  0  0  0  0  0  0  0  0  0  0
   37.3651   22.3441   38.9086 H   0  0  0  0  0  0  0  0  0  0  0  0
   41.0606   24.3521   38.7961 H   0  0  0  0  0  0  0  0  0  0  0  0
   38.9954   28.0203   39.6149 H   0  0  0  0  0  0  0  0  0  0  0  0
   35.8514   28.3712   42.5642 H   0  0  0  0  0  0  0  0  0  0  0  0
   35.1239   29.2483   38.4560 H   0  0  0  0  0  0  0  0  0  0  0  0
  1  5  1  0
  1  2  1  0
  2  3  1  0
  4  3  1  0
  5  4  1  0
  6  7  1  0
  6  5  1  0
  8  7  2  0
  9 14  2  0
  9  8  1  0
 10  9  1  0
 11 12  1  0
 11 10  2  0
 12 13  2  0
 13 14  1  0
 14  6  1  0
 15 16  2  0
 16 17  1  0
 16  1  1  0
 18 17  2  0
 19 18  1  0
 20 19  2  0
 20 15  1  0
  2 21  1  0
  2 22  1  0
  3 23  1  0
  3 24  1  0
  4 25  1  0
  4 26  1  0
  5 27  1  1
  7 28  1  0
 10 29  1  0
 12 30  1  0
 15 31  1  0
 17 32  1  0
 19 33  1  0
M  ISO  8  21  13  22  13  23  13  24  13  25  13  26  13  27  13  28  14
M  ISO  5  29  14  30  14  31  14  32  14  33  14
M  END
>  <minimizedAffinity>  (1) 
-4.26721668

>  <minimizedRMSD>  (1) 
5.45845366

$$$$
