
     RDKit          3D

 28 29  0  0  1  0  0  0  0  0999 V2000
   37.9010   27.3950   42.4020 N   0  0  0  0  0  0  0  0  0  0  0  0
   38.4570   27.2490   43.7140 C   0  0  0  0  0  0  0  0  0  0  0  0
   39.5560   26.2190   43.5400 C   0  0  0  0  0  0  0  0  0  0  0  0
   39.4460   25.7360   42.1310 C   0  0  0  0  0  0  0  0  0  0  0  0
   38.0360   26.1060   41.7760 C   0  0  1  0  0  0  0  0  0  0  0  0
   37.9740   29.8090   41.7950 C   0  0  0  0  0  0  0  0  0  0  0  0
   37.3320   28.5530   41.8190 C   0  0  0  0  0  0  0  0  0  0  0  0
   36.0670   28.4630   41.2310 C   0  0  0  0  0  0  0  0  0  0  0  0
   35.5310   29.5770   40.6750 N   0  0  0  0  0  0  0  0  0  0  0  0
   36.1790   30.7700   40.6700 C   0  0  0  0  0  0  0  0  0  0  0  0
   37.3940   30.8720   41.2310 N   0  0  0  0  0  0  0  0  0  0  0  0
   37.0590   25.0900   42.3230 C   0  0  0  0  0  0  0  0  0  0  0  0
   36.6670   24.1850   41.1670 C   0  0  0  0  0  0  0  0  0  0  0  0
   38.8703   28.2039   44.0710 H   0  0  0  0  0  0  0  0  0  0  0  0
   37.7067   26.9428   44.4578 H   0  0  0  0  0  0  0  0  0  0  0  0
   40.5409   26.6779   43.7112 H   0  0  0  0  0  0  0  0  0  0  0  0
   39.4525   25.3930   44.2590 H   0  0  0  0  0  0  0  0  0  0  0  0
   40.1685   26.2464   41.4772 H   0  0  0  0  0  0  0  0  0  0  0  0
   39.6630   24.6639   42.0144 H   0  0  0  0  0  0  0  0  0  0  0  0
   37.8272   26.1301   40.6963 H   0  0  0  0  0  0  0  0  0  0  0  0
   38.9703   29.9149   42.2490 H   0  0  0  0  0  0  0  0  0  0  0  0
   35.5188   27.5094   41.2197 H   0  0  0  0  0  0  0  0  0  0  0  0
   35.7095   31.6507   40.2074 H   0  0  0  0  0  0  0  0  0  0  0  0
   37.5342   24.5000   43.1206 H   0  0  0  0  0  0  0  0  0  0  0  0
   36.1753   25.5856   42.7513 H   0  0  0  0  0  0  0  0  0  0  0  0
   36.2588   23.2427   41.5612 H   0  0  0  0  0  0  0  0  0  0  0  0
   35.9051   24.6856   40.5515 H   0  0  0  0  0  0  0  0  0  0  0  0
   37.5534   23.9716   40.5515 H   0  0  0  0  0  0  0  0  0  0  0  0
  1  2  1  0
  3  2  1  0
  4  3  1  0
  5  4  1  0
  5 12  1  0
  5  1  1  0
  6  7  2  0
  7  1  1  0
  8  7  1  0
  9  8  2  0
 10  9  1  0
 10 11  2  0
 11  6  1  0
 13 12  1  0
  2 14  1  0
  2 15  1  0
  3 16  1  0
  3 17  1  0
  4 18  1  0
  4 19  1  0
  5 20  1  6
  6 21  1  0
  8 22  1  0
 10 23  1  0
 12 24  1  0
 12 25  1  0
 13 26  1  0
 13 27  1  0
 13 28  1  0
M  ISO  8  14  13  15  13  16  13  17  13  18  13  19  13  20  13  21  14
M  ISO  7  22  14  23  14  24   8  25   8  26   8  27   8  28   8
M  END
>  <minimizedAffinity>  (1) 
-3.95636344

>  <minimizedRMSD>  (1) 
2.21144557

$$$$
