
     RDKit          3D

 30 32  0  0  1  0  0  0  0  0999 V2000
   38.5710   27.7510   42.2650 N   0  0  0  0  0  0  0  0  0  0  0  0
   38.3540   26.8190   43.3220 C   0  0  0  0  0  0  0  0  0  0  0  0
   39.7200   26.6510   43.9660 C   0  0  0  0  0  0  0  0  0  0  0  0
   40.6720   27.3920   43.0990 C   0  0  0  0  0  0  0  0  0  0  0  0
   39.9150   27.5240   41.7940 C   0  0  1  0  0  0  0  0  0  0  0  0
   37.9890   30.0930   41.6320 C   0  0  0  0  0  0  0  0  0  0  0  0
   37.6820   28.7170   41.7490 C   0  0  0  0  0  0  0  0  0  0  0  0
   36.4080   28.3000   41.3200 C   0  0  0  0  0  0  0  0  0  0  0  0
   35.5650   29.2470   40.8250 N   0  0  0  0  0  0  0  0  0  0  0  0
   35.8910   30.5430   40.7290 C   0  0  0  0  0  0  0  0  0  0  0  0
   37.1000   30.9600   41.1330 N   0  0  0  0  0  0  0  0  0  0  0  0
   40.0860   26.3910   40.8950 C   0  0  0  0  0  0  0  0  0  0  0  0
   41.3470   25.9290   40.6120 C   0  0  0  0  0  0  0  0  0  0  0  0
   41.4500   24.8400   39.7440 C   0  0  0  0  0  0  0  0  0  0  0  0
   40.4040   24.2020   39.1590 N   0  0  0  0  0  0  0  0  0  0  0  0
   39.1790   24.7060   39.4790 C   0  0  0  0  0  0  0  0  0  0  0  0
   39.0450   25.7590   40.3150 N   0  0  0  0  0  0  0  0  0  0  0  0
   37.6281   27.2154   44.0472 H   0  0  0  0  0  0  0  0  0  0  0  0
   37.9410   25.8654   42.9612 H   0  0  0  0  0  0  0  0  0  0  0  0
   39.7189   27.0734   44.9817 H   0  0  0  0  0  0  0  0  0  0  0  0
   39.9968   25.5902   44.0558 H   0  0  0  0  0  0  0  0  0  0  0  0
   40.9049   28.3802   43.5223 H   0  0  0  0  0  0  0  0  0  0  0  0
   41.6413   26.8841   42.9876 H   0  0  0  0  0  0  0  0  0  0  0  0
   40.2747   28.3330   41.1412 H   0  0  0  0  0  0  0  0  0  0  0  0
   38.9751   30.4565   41.9567 H   0  0  0  0  0  0  0  0  0  0  0  0
   36.1040   27.2447   41.3826 H   0  0  0  0  0  0  0  0  0  0  0  0
   35.1681   31.2639   40.3194 H   0  0  0  0  0  0  0  0  0  0  0  0
   42.2402   26.3975   41.0511 H   0  0  0  0  0  0  0  0  0  0  0  0
   42.4601   24.4691   39.5158 H   0  0  0  0  0  0  0  0  0  0  0  0
   38.2786   24.2450   39.0468 H   0  0  0  0  0  0  0  0  0  0  0  0
  1  2  1  0
  2  3  1  0
  4  3  1  0
  5  1  1  0
  5  4  1  0
  6  7  2  0
  7  1  1  0
  8  7  1  0
  9  8  2  0
 10  9  1  0
 10 11  2  0
 11  6  1  0
 12  5  1  0
 13 12  2  0
 14 13  1  0
 15 16  1  0
 15 14  2  0
 16 17  2  0
 17 12  1  0
  2 18  1  0
  2 19  1  0
  3 20  1  0
  3 21  1  0
  4 22  1  0
  4 23  1  0
  5 24  1  6
  6 25  1  0
  8 26  1  0
 10 27  1  0
 13 28  1  0
 14 29  1  0
 16 30  1  0
M  ISO  8  18  13  19  13  20  13  21  13  22  13  23  13  24  13  25  14
M  ISO  5  26  14  27  14  28  14  29  14  30  14
M  END
>  <minimizedAffinity>  (1) 
-3.86053038

>  <minimizedRMSD>  (1) 
1.04007602

$$$$
