
     RDKit          3D

 31 32  0  0  1  0  0  0  0  0999 V2000
   36.9220   27.9880   41.8210 N   0  0  0  0  0  0  0  0  0  0  0  0
   36.5560   27.2360   43.0090 C   0  0  0  0  0  0  0  0  0  0  0  0
   37.1690   28.0090   44.1570 C   0  0  0  0  0  0  0  0  0  0  0  0
   37.9940   29.0930   43.5040 C   0  0  0  0  0  0  0  0  0  0  0  0
   38.2060   28.5180   42.1090 C   0  0  2  0  0  0  0  0  0  0  0  0
   35.1430   29.0750   40.4840 C   0  0  0  0  0  0  0  0  0  0  0  0
   36.1630   28.1310   40.6600 C   0  0  0  0  0  0  0  0  0  0  0  0
   36.4250   27.2850   39.5540 C   0  0  0  0  0  0  0  0  0  0  0  0
   35.6940   27.4330   38.4200 N   0  0  0  0  0  0  0  0  0  0  0  0
   34.7150   28.3710   38.3110 C   0  0  0  0  0  0  0  0  0  0  0  0
   34.4450   29.1970   39.3620 N   0  0  0  0  0  0  0  0  0  0  0  0
   38.7370   29.5920   41.2440 C   0  0  0  0  0  0  0  0  0  0  0  0
   39.3540   30.6630   42.1460 C   0  0  0  0  0  0  0  0  0  0  0  0
   39.7850   29.2000   40.2580 C   0  0  0  0  0  0  0  0  0  0  0  0
   35.4622   27.1863   43.1150 H   0  0  0  0  0  0  0  0  0  0  0  0
   36.9129   26.1962   42.9698 H   0  0  0  0  0  0  0  0  0  0  0  0
   36.3839   28.4491   44.7894 H   0  0  0  0  0  0  0  0  0  0  0  0
   37.7764   27.3652   44.8102 H   0  0  0  0  0  0  0  0  0  0  0  0
   37.4466   30.0464   43.4663 H   0  0  0  0  0  0  0  0  0  0  0  0
   38.9267   29.3283   44.0376 H   0  0  0  0  0  0  0  0  0  0  0  0
   38.9523   27.7219   41.9704 H   0  0  0  0  0  0  0  0  0  0  0  0
   34.9083   29.7506   41.3198 H   0  0  0  0  0  0  0  0  0  0  0  0
   37.2110   26.5178   39.6137 H   0  0  0  0  0  0  0  0  0  0  0  0
   34.1420   28.4632   37.3766 H   0  0  0  0  0  0  0  0  0  0  0  0
   37.8738   29.9269   40.6501 H   0  0  0  0  0  0  0  0  0  0  0  0
   39.1967   30.3899   43.1999 H   0  0  0  0  0  0  0  0  0  0  0  0
   40.4327   30.7362   41.9433 H   0  0  0  0  0  0  0  0  0  0  0  0
   38.8762   31.6329   41.9433 H   0  0  0  0  0  0  0  0  0  0  0  0
   40.6849   28.8634   40.7937 H   0  0  0  0  0  0  0  0  0  0  0  0
   39.4069   28.3825   39.6265 H   0  0  0  0  0  0  0  0  0  0  0  0
   40.0362   30.0650   39.6265 H   0  0  0  0  0  0  0  0  0  0  0  0
  1  5  1  0
  1  2  1  0
  2  3  1  0
  4  3  1  0
  5  4  1  0
  6  7  2  0
  7  1  1  0
  8  7  1  0
  9  8  2  0
 10  9  1  0
 10 11  2  0
 11  6  1  0
 12  5  1  0
 12 13  1  0
 14 12  1  0
  2 15  1  0
  2 16  1  0
  3 17  1  0
  3 18  1  0
  4 19  1  0
  4 20  1  0
  5 21  1  1
  6 22  1  0
  8 23  1  0
 10 24  1  0
 12 25  1  0
 13 26  1  0
 13 27  1  0
 13 28  1  0
 14 29  1  0
 14 30  1  0
 14 31  1  0
M  ISO  8  15  13  16  13  17  13  18  13  19  13  20  13  21  13  22  14
M  ISO  8  23  14  24  14  25   8  26   8  27   8  28   8  29   8  30   8
M  ISO  1  31   8
M  END
>  <minimizedAffinity>  (1) 
-3.84254289

>  <minimizedRMSD>  (1) 
2.40295196

$$$$
