
     RDKit          3D

 28 30  0  0  1  0  0  0  0  0999 V2000
   38.6640   27.8000   42.2810 N   0  0  0  0  0  0  0  0  0  0  0  0
   38.4220   26.7020   43.1870 C   0  0  0  0  0  0  0  0  0  0  0  0
   39.7110   26.5940   43.9820 C   0  0  0  0  0  0  0  0  0  0  0  0
   40.6480   27.5910   43.3840 C   0  0  0  0  0  0  0  0  0  0  0  0
   40.0830   27.7720   42.0020 C   0  0  1  0  0  0  0  0  0  0  0  0
   37.9780   30.0910   41.6120 C   0  0  0  0  0  0  0  0  0  0  0  0
   37.7340   28.7160   41.7650 C   0  0  0  0  0  0  0  0  0  0  0  0
   36.4640   28.2250   41.3690 C   0  0  0  0  0  0  0  0  0  0  0  0
   35.5650   29.1120   40.8690 N   0  0  0  0  0  0  0  0  0  0  0  0
   35.8330   30.4330   40.7360 C   0  0  0  0  0  0  0  0  0  0  0  0
   37.0450   30.9120   41.1120 N   0  0  0  0  0  0  0  0  0  0  0  0
   40.4800   26.6670   41.0870 C   0  0  0  0  0  0  0  0  0  0  0  0
   39.6640   26.1660   40.0590 C   0  0  0  0  0  0  0  0  0  0  0  0
   40.7200   24.8450   39.3180 S   0  0  0  0  0  0  0  0  0  0  0  0
   42.1040   25.2250   40.5660 C   0  0  0  0  0  0  0  0  0  0  0  0
   41.6570   26.0760   41.1850 N   0  0  0  0  0  0  0  0  0  0  0  0
   37.5711   26.9209   43.8489 H   0  0  0  0  0  0  0  0  0  0  0  0
   38.1666   25.7686   42.6639 H   0  0  0  0  0  0  0  0  0  0  0  0
   39.5278   26.8289   45.0409 H   0  0  0  0  0  0  0  0  0  0  0  0
   40.1257   25.5760   43.9408 H   0  0  0  0  0  0  0  0  0  0  0  0
   40.6361   28.5363   43.9463 H   0  0  0  0  0  0  0  0  0  0  0  0
   41.6993   27.2675   43.3915 H   0  0  0  0  0  0  0  0  0  0  0  0
   40.4426   28.6675   41.4741 H   0  0  0  0  0  0  0  0  0  0  0  0
   38.9544   30.5016   41.9086 H   0  0  0  0  0  0  0  0  0  0  0  0
   36.2144   27.1579   41.4639 H   0  0  0  0  0  0  0  0  0  0  0  0
   35.0723   31.1133   40.3255 H   0  0  0  0  0  0  0  0  0  0  0  0
   38.6510   26.4813   39.7686 H   0  0  0  0  0  0  0  0  0  0  0  0
   43.0889   24.7456   40.6670 H   0  0  0  0  0  0  0  0  0  0  0  0
  1  2  1  0
  2  3  1  0
  4  3  1  0
  5  1  1  0
  5  4  1  0
  6  7  2  0
  7  1  1  0
  8  7  1  0
  9  8  2  0
 10  9  1  0
 10 11  2  0
 11  6  1  0
 12 16  1  0
 12  5  1  0
 13 12  2  0
 14 13  1  0
 14 15  1  0
 15 16  2  0
  2 17  1  0
  2 18  1  0
  3 19  1  0
  3 20  1  0
  4 21  1  0
  4 22  1  0
  5 23  1  6
  6 24  1  0
  8 25  1  0
 10 26  1  0
 13 27  1  0
 15 28  1  0
M  ISO  8  17  13  18  13  19  13  20  13  21  13  22  13  23  13  24  14
M  ISO  4  25  14  26  14  27  14  28  14
M  END
>  <minimizedAffinity>  (1) 
-3.73325181

>  <minimizedRMSD>  (1) 
0.728066206

$$$$
