
     RDKit          3D

 34 35  0  0  1  0  0  0  0  0999 V2000
   38.6290   27.7370   42.2400 N   0  0  0  0  0  0  0  0  0  0  0  0
   38.3470   26.8100   43.3120 C   0  0  0  0  0  0  0  0  0  0  0  0
   39.7080   26.6110   43.9920 C   0  0  0  0  0  0  0  0  0  0  0  0
   40.6930   27.2360   43.0780 C   0  0  0  0  0  0  0  0  0  0  0  0
   39.9560   27.4390   41.8040 C   0  0  1  0  0  0  0  0  0  0  0  0
   38.1980   30.0690   41.5240 C   0  0  0  0  0  0  0  0  0  0  0  0
   37.7720   28.7260   41.7380 C   0  0  0  0  0  0  0  0  0  0  0  0
   36.4480   28.4170   41.4270 C   0  0  0  0  0  0  0  0  0  0  0  0
   35.6510   29.4160   40.9410 N   0  0  0  0  0  0  0  0  0  0  0  0
   36.0860   30.6700   40.7510 C   0  0  0  0  0  0  0  0  0  0  0  0
   37.3620   30.9960   41.0430 N   0  0  0  0  0  0  0  0  0  0  0  0
   40.0980   26.4010   40.7590 C   0  0  0  0  0  0  0  0  0  0  0  0
   38.7400   25.7080   40.6340 C   0  0  0  0  0  0  0  0  0  0  0  0
   41.1270   25.3530   40.9810 C   0  0  0  0  0  0  0  0  0  0  0  0
   40.3780   27.0590   39.4250 C   0  0  0  0  0  0  0  0  0  0  0  0
   37.6160   27.2352   44.0155 H   0  0  0  0  0  0  0  0  0  0  0  0
   37.9085   25.8668   42.9541 H   0  0  0  0  0  0  0  0  0  0  0  0
   39.7247   27.1060   44.9742 H   0  0  0  0  0  0  0  0  0  0  0  0
   39.9279   25.5479   44.1693 H   0  0  0  0  0  0  0  0  0  0  0  0
   41.0399   28.1985   43.4822 H   0  0  0  0  0  0  0  0  0  0  0  0
   41.5884   26.6113   42.9438 H   0  0  0  0  0  0  0  0  0  0  0  0
   40.3935   28.2560   41.2114 H   0  0  0  0  0  0  0  0  0  0  0  0
   39.2354   30.3491   41.7591 H   0  0  0  0  0  0  0  0  0  0  0  0
   36.0563   27.3989   41.5686 H   0  0  0  0  0  0  0  0  0  0  0  0
   35.4008   31.4346   40.3561 H   0  0  0  0  0  0  0  0  0  0  0  0
   38.3390   25.5034   41.6377 H   0  0  0  0  0  0  0  0  0  0  0  0
   38.0440   26.3611   40.0872 H   0  0  0  0  0  0  0  0  0  0  0  0
   38.8605   24.7612   40.0872 H   0  0  0  0  0  0  0  0  0  0  0  0
   41.2724   25.2049   42.0612 H   0  0  0  0  0  0  0  0  0  0  0  0
   40.7944   24.4098   40.5231 H   0  0  0  0  0  0  0  0  0  0  0  0
   42.0762   25.6683   40.5231 H   0  0  0  0  0  0  0  0  0  0  0  0
   40.8037   28.0595   39.5918 H   0  0  0  0  0  0  0  0  0  0  0  0
   41.0933   26.4462   38.8568 H   0  0  0  0  0  0  0  0  0  0  0  0
   39.4404   27.1495   38.8568 H   0  0  0  0  0  0  0  0  0  0  0  0
  1  2  1  0
  2  3  1  0
  4  3  1  0
  5  1  1  0
  5  4  1  0
  6  7  2  0
  7  1  1  0
  8  7  1  0
  9  8  2  0
 10  9  1  0
 10 11  2  0
 11  6  1  0
 12 14  1  0
 12  5  1  0
 13 12  1  0
 15 12  1  0
  2 16  1  0
  2 17  1  0
  3 18  1  0
  3 19  1  0
  4 20  1  0
  4 21  1  0
  5 22  1  6
  6 23  1  0
  8 24  1  0
 10 25  1  0
 13 26  1  0
 13 27  1  0
 13 28  1  0
 14 29  1  0
 14 30  1  0
 14 31  1  0
 15 32  1  0
 15 33  1  0
 15 34  1  0
M  ISO  8  16  13  17  13  18  13  19  13  20  13  21  13  22  13  23  14
M  ISO  8  24  14  25  14  26   8  27   8  28   8  29   8  30   8  31   8
M  ISO  3  32   8  33   8  34   8
M  END
>  <minimizedAffinity>  (1) 
-3.63777471

>  <minimizedRMSD>  (1) 
1.08542335

$$$$
