
     RDKit          3D

 48 51  0  0  1  0  0  0  0  0999 V2000
   36.9920   27.9710   41.6250 N   0  0  0  0  0  0  0  0  0  0  0  0
   36.8920   27.0730   42.7530 C   0  0  0  0  0  0  0  0  0  0  0  0
   37.5080   27.8520   43.9130 C   0  0  0  0  0  0  0  0  0  0  0  0
   38.0760   29.1160   43.3120 C   0  0  0  0  0  0  0  0  0  0  0  0
   38.2190   28.6850   41.8640 C   0  0  2  0  0  0  0  0  0  0  0  0
   35.0720   29.0600   40.4960 C   0  0  0  0  0  0  0  0  0  0  0  0
   36.1210   28.1320   40.5420 C   0  0  0  0  0  0  0  0  0  0  0  0
   36.3030   27.3030   39.4120 C   0  0  0  0  0  0  0  0  0  0  0  0
   35.4570   27.4570   38.3590 N   0  0  0  0  0  0  0  0  0  0  0  0
   34.4630   28.3640   38.3620 C   0  0  0  0  0  0  0  0  0  0  0  0
   34.2800   29.1590   39.4330 N   0  0  0  0  0  0  0  0  0  0  0  0
   33.7110   28.3430   37.1560 N   0  0  0  0  0  0  0  0  0  0  0  0
   33.1560   29.3860   36.5130 C   0  0  0  0  0  0  0  0  0  0  0  0
   32.4520   29.1790   35.3400 C   0  0  0  0  0  0  0  0  0  0  0  0
   31.8650   30.3580   34.6800 C   0  0  0  0  0  0  0  0  0  0  0  0
   32.3010   27.9200   34.8030 C   0  0  0  0  0  0  0  0  0  0  0  0
   31.6660   27.7170   33.7430 O   0  0  0  0  0  0  0  0  0  0  0  0
   32.8700   26.9180   35.4770 N   0  0  0  0  0  0  0  0  0  0  0  0
   33.5600   27.0970   36.6210 C   0  0  0  0  0  0  0  0  0  0  0  0
   34.0370   26.0400   37.1360 O   0  0  0  0  0  0  0  0  0  0  0  0
   38.5170   29.7320   40.9610 N   0  0  0  0  0  0  0  0  0  0  0  0
   38.0710   30.9900   40.9470 C   0  0  0  0  0  0  0  0  0  0  0  0
   38.4670   31.8970   39.9810 C   0  0  0  0  0  0  0  0  0  0  0  0
   39.3450   31.5370   38.9830 C   0  0  0  0  0  0  0  0  0  0  0  0
   39.6980   32.3590   38.1150 O   0  0  0  0  0  0  0  0  0  0  0  0
   39.7810   30.2560   39.0220 N   0  0  0  0  0  0  0  0  0  0  0  0
   39.3850   29.3860   39.9720 C   0  0  0  0  0  0  0  0  0  0  0  0
   39.8950   28.2070   39.8620 O   0  0  0  0  0  0  0  0  0  0  0  0
   37.9270   33.2800   40.0320 C   0  0  0  0  0  0  0  0  0  0  0  0
   35.8406   26.8277   42.9634 H   0  0  0  0  0  0  0  0  0  0  0  0
   37.4017   26.1149   42.5732 H   0  0  0  0  0  0  0  0  0  0  0  0
   36.7387   28.0965   44.6602 H   0  0  0  0  0  0  0  0  0  0  0  0
   38.2851   27.2650   44.4244 H   0  0  0  0  0  0  0  0  0  0  0  0
   37.3837   29.9642   43.4180 H   0  0  0  0  0  0  0  0  0  0  0  0
   39.0050   29.4726   43.7809 H   0  0  0  0  0  0  0  0  0  0  0  0
   39.1006   28.0521   41.6846 H   0  0  0  0  0  0  0  0  0  0  0  0
   34.9002   29.7210   41.3583 H   0  0  0  0  0  0  0  0  0  0  0  0
   37.1075   26.5533   39.3852 H   0  0  0  0  0  0  0  0  0  0  0  0
   33.2617   30.4027   36.9194 H   0  0  0  0  0  0  0  0  0  0  0  0
   31.5118   31.0674   35.4429 H   0  0  0  0  0  0  0  0  0  0  0  0
   32.6264   30.8438   34.0521 H   0  0  0  0  0  0  0  0  0  0  0  0
   31.0184   30.0432   34.0521 H   0  0  0  0  0  0  0  0  0  0  0  0
   32.7773   25.9620   35.1049 H   0  0  0  0  0  0  0  0  0  0  0  0
   37.3672   31.3151   41.7274 H   0  0  0  0  0  0  0  0  0  0  0  0
   40.4399   29.9343   38.2987 H   0  0  0  0  0  0  0  0  0  0  0  0
   37.8067   33.5882   41.0811 H   0  0  0  0  0  0  0  0  0  0  0  0
   38.6239   33.9646   39.5263 H   0  0  0  0  0  0  0  0  0  0  0  0
   36.9506   33.3113   39.5263 H   0  0  0  0  0  0  0  0  0  0  0  0
  1  5  1  0
  1  2  1  0
  2  3  1  0
  4  3  1  0
  5  4  1  0
  6  7  2  0
  7  1  1  0
  8  7  1  0
  9 10  1  0
  9  8  2  0
 10 11  2  0
 11  6  1  0
 12 10  1  0
 13 12  1  0
 14 13  2  0
 15 14  1  0
 16 14  1  0
 16 18  1  0
 17 16  2  0
 18 19  1  0
 19 20  2  0
 19 12  1  0
 21  5  1  0
 22 21  1  0
 23 29  1  0
 23 22  2  0
 24 26  1  0
 24 23  1  0
 25 24  2  0
 26 27  1  0
 27 21  1  0
 28 27  2  0
  2 30  1  0
  2 31  1  0
  3 32  1  0
  3 33  1  0
  4 34  1  0
  4 35  1  0
  5 36  1  1
  6 37  1  0
  8 38  1  0
 13 39  1  0
 15 40  1  0
 15 41  1  0
 15 42  1  0
 18 43  1  0
 22 44  1  0
 26 45  1  0
 29 46  1  0
 29 47  1  0
 29 48  1  0
M  ISO  8  30  13  31  13  32  13  33  13  34  13  35  13  36  13  37  14
M  ISO  8  38  14  39  14  40   8  41   8  42   8  43   9  44  14  45   9
M  ISO  3  46   8  47   8  48   8
M  END
>  <minimizedAffinity>  (1) 
-6.24816561

>  <minimizedRMSD>  (1) 
0.300728142

$$$$
