
     RDKit          3D

 39 41  0  0  1  0  0  0  0  0999 V2000
   40.0850   28.6160   42.9080 N   0  0  0  0  0  0  0  0  0  0  0  0
   40.6670   29.9240   42.7140 C   0  0  0  0  0  0  0  0  0  0  0  0
   41.8820   29.6540   41.8390 C   0  0  0  0  0  0  0  0  0  0  0  0
   42.8470   28.9680   42.6100 N   0  0  0  0  0  0  0  0  0  0  0  0
   42.3760   27.8700   43.3590 C   0  0  0  0  0  0  0  0  0  0  0  0
   40.9310   27.5050   43.3100 C   0  0  2  0  0  0  0  0  0  0  0  0
   38.7020   28.3360   42.7290 C   0  0  0  0  0  0  0  0  0  0  0  0
   37.9090   27.7380   43.7110 C   0  0  0  0  0  0  0  0  0  0  0  0
   36.5800   27.4960   43.4560 C   0  0  0  0  0  0  0  0  0  0  0  0
   36.1010   27.8590   42.2330 N   0  0  0  0  0  0  0  0  0  0  0  0
   36.8790   28.4340   41.2950 C   0  0  0  0  0  0  0  0  0  0  0  0
   38.1670   28.6670   41.5480 N   0  0  0  0  0  0  0  0  0  0  0  0
   40.6610   26.3180   42.4630 C   0  0  0  0  0  0  0  0  0  0  0  0
   40.3900   25.2450   43.0490 O   0  0  0  0  0  0  0  0  0  0  0  0
   40.6410   26.0930   41.0380 C   0  0  0  0  0  0  0  0  0  0  0  0
   39.4120   25.2770   40.6300 C   0  0  0  0  0  0  0  0  0  0  0  0
   39.8520   24.2700   39.6230 C   0  0  0  0  0  0  0  0  0  0  0  0
   41.2510   24.6540   39.2550 C   0  0  0  0  0  0  0  0  0  0  0  0
   41.7940   25.2080   40.5680 C   0  0  0  0  0  0  0  0  0  0  0  0
   39.9598   30.5962   42.2061 H   0  0  0  0  0  0  0  0  0  0  0  0
   40.9264   30.4191   43.6614 H   0  0  0  0  0  0  0  0  0  0  0  0
   42.3011   30.6064   41.4821 H   0  0  0  0  0  0  0  0  0  0  0  0
   41.5923   29.0453   40.9698 H   0  0  0  0  0  0  0  0  0  0  0  0
   43.5747   28.6223   41.9683 H   0  0  0  0  0  0  0  0  0  0  0  0
   42.9390   26.9880   43.0198 H   0  0  0  0  0  0  0  0  0  0  0  0
   42.5231   28.1901   44.4011 H   0  0  0  0  0  0  0  0  0  0  0  0
   40.6708   27.2396   44.3453 H   0  0  0  0  0  0  0  0  0  0  0  0
   38.3452   27.4624   44.6825 H   0  0  0  0  0  0  0  0  0  0  0  0
   35.9291   27.0280   44.2092 H   0  0  0  0  0  0  0  0  0  0  0  0
   36.4512   28.7112   40.3202 H   0  0  0  0  0  0  0  0  0  0  0  0
   40.6772   27.1022   40.6018 H   0  0  0  0  0  0  0  0  0  0  0  0
   38.9909   24.7682   41.5097 H   0  0  0  0  0  0  0  0  0  0  0  0
   38.6368   25.9326   40.2067 H   0  0  0  0  0  0  0  0  0  0  0  0
   39.8327   23.2593   40.0568 H   0  0  0  0  0  0  0  0  0  0  0  0
   39.1894   24.2558   38.7451 H   0  0  0  0  0  0  0  0  0  0  0  0
   41.8294   23.7794   38.9225 H   0  0  0  0  0  0  0  0  0  0  0  0
   41.3058   25.3682   38.4202 H   0  0  0  0  0  0  0  0  0  0  0  0
   41.9988   24.4020   41.2880 H   0  0  0  0  0  0  0  0  0  0  0  0
   42.7499   25.7421   40.4633 H   0  0  0  0  0  0  0  0  0  0  0  0
  1  6  1  0
  2  1  1  0
  3  4  1  0
  3  2  1  0
  4  5  1  0
  6  5  1  0
  7  1  1  0
  7  8  2  0
  9  8  1  0
 10  9  2  0
 11 12  2  0
 11 10  1  0
 12  7  1  0
 13 14  2  0
 13  6  1  0
 15 13  1  0
 16 15  1  0
 17 16  1  0
 18 17  1  0
 18 19  1  0
 19 15  1  0
  2 20  1  0
  2 21  1  0
  3 22  1  0
  3 23  1  0
  4 24  1  0
  5 25  1  0
  5 26  1  0
  6 27  1  1
  8 28  1  0
  9 29  1  0
 11 30  1  0
 15 31  1  0
 16 32  1  0
 16 33  1  0
 17 34  1  0
 17 35  1  0
 18 36  1  0
 18 37  1  0
 19 38  1  0
 19 39  1  0
M  ISO  8  20  13  21  13  22  13  23  13  24   5  25  13  26  13  27  13
M  ISO  8  28  14  29  14  30  14  31  13  32  13  33  13  34  13  35  13
M  ISO  4  36  13  37  13  38  13  39  13
M  END
>  <minimizedAffinity>  (1) 
-3.65481615

>  <minimizedRMSD>  (1) 
2.15118408

$$$$
