
     RDKit          3D

 51 54  0  0  1  0  0  0  0  0999 V2000
   36.9360   28.0040   41.7350 N   0  0  0  0  0  0  0  0  0  0  0  0
   36.7750   27.1320   42.8760 C   0  0  0  0  0  0  0  0  0  0  0  0
   37.3370   27.9300   44.0520 C   0  0  0  0  0  0  0  0  0  0  0  0
   37.9260   29.1830   43.4550 C   0  0  0  0  0  0  0  0  0  0  0  0
   38.1460   28.7270   42.0280 C   0  0  2  0  0  0  0  0  0  0  0  0
   38.4960   29.7530   41.1210 N   0  0  0  0  0  0  0  0  0  0  0  0
   38.0420   31.0060   41.0470 C   0  0  0  0  0  0  0  0  0  0  0  0
   38.4910   31.8920   40.0910 C   0  0  0  0  0  0  0  0  0  0  0  0
   39.4310   31.5220   39.1640 C   0  0  0  0  0  0  0  0  0  0  0  0
   39.8400   32.3230   38.2940 O   0  0  0  0  0  0  0  0  0  0  0  0
   39.8730   30.2570   39.2560 N   0  0  0  0  0  0  0  0  0  0  0  0
   39.4280   29.3920   40.1980 C   0  0  0  0  0  0  0  0  0  0  0  0
   39.9560   28.2160   40.1480 O   0  0  0  0  0  0  0  0  0  0  0  0
   37.9410   33.2730   40.0670 C   0  0  0  0  0  0  0  0  0  0  0  0
   35.0730   29.0510   40.4950 C   0  0  0  0  0  0  0  0  0  0  0  0
   36.1310   28.1370   40.6050 C   0  0  0  0  0  0  0  0  0  0  0  0
   36.3880   27.3010   39.4940 C   0  0  0  0  0  0  0  0  0  0  0  0
   35.6030   27.4290   38.3930 N   0  0  0  0  0  0  0  0  0  0  0  0
   34.5880   28.3290   38.3270 C   0  0  0  0  0  0  0  0  0  0  0  0
   34.3410   29.1250   39.3800 N   0  0  0  0  0  0  0  0  0  0  0  0
   33.7390   28.4590   37.1210 C   0  0  0  0  0  0  0  0  0  0  0  0
   32.5530   29.3870   37.4210 C   0  0  0  0  0  0  0  0  0  0  0  0
   31.5580   29.0690   36.3400 C   0  0  0  0  0  0  0  0  0  0  0  0
   32.0930   29.1950   34.9600 C   0  0  0  0  0  0  0  0  0  0  0  0
   33.5430   29.0130   34.7560 C   0  0  0  0  0  0  0  0  0  0  0  0
   34.4280   29.0750   35.9490 C   0  0  0  0  0  0  0  0  0  0  0  0
   35.7128   26.8967   43.0384 H   0  0  0  0  0  0  0  0  0  0  0  0
   37.2890   26.1688   42.7413 H   0  0  0  0  0  0  0  0  0  0  0  0
   36.5349   28.1839   44.7607 H   0  0  0  0  0  0  0  0  0  0  0  0
   38.0910   27.3539   44.6084 H   0  0  0  0  0  0  0  0  0  0  0  0
   37.2237   30.0280   43.5083 H   0  0  0  0  0  0  0  0  0  0  0  0
   38.8280   29.5545   43.9633 H   0  0  0  0  0  0  0  0  0  0  0  0
   39.0374   28.0932   41.9106 H   0  0  0  0  0  0  0  0  0  0  0  0
   37.2858   31.3422   41.7716 H   0  0  0  0  0  0  0  0  0  0  0  0
   40.5801   29.9312   38.5817 H   0  0  0  0  0  0  0  0  0  0  0  0
   37.7992   33.6292   41.0980 H   0  0  0  0  0  0  0  0  0  0  0  0
   38.6429   33.9381   39.5426 H   0  0  0  0  0  0  0  0  0  0  0  0
   36.9740   33.2735   39.5426 H   0  0  0  0  0  0  0  0  0  0  0  0
   34.8425   29.7170   41.3396 H   0  0  0  0  0  0  0  0  0  0  0  0
   37.2044   26.5643   39.5207 H   0  0  0  0  0  0  0  0  0  0  0  0
   33.4476   27.4280   36.8717 H   0  0  0  0  0  0  0  0  0  0  0  0
   32.1319   29.1741   38.4146 H   0  0  0  0  0  0  0  0  0  0  0  0
   32.8395   30.4490   37.4328 H   0  0  0  0  0  0  0  0  0  0  0  0
   31.2134   28.0342   36.4827 H   0  0  0  0  0  0  0  0  0  0  0  0
   30.7469   29.8064   36.4318 H   0  0  0  0  0  0  0  0  0  0  0  0
   31.5796   28.4443   34.3412 H   0  0  0  0  0  0  0  0  0  0  0  0
   31.9092   30.2456   34.6908 H   0  0  0  0  0  0  0  0  0  0  0  0
   33.6869   28.0258   34.2927 H   0  0  0  0  0  0  0  0  0  0  0  0
   33.8452   29.8757   34.1441 H   0  0  0  0  0  0  0  0  0  0  0  0
   35.3587   28.5262   35.7424 H   0  0  0  0  0  0  0  0  0  0  0  0
   34.6604   30.1261   36.1751 H   0  0  0  0  0  0  0  0  0  0  0  0
  1  5  1  0
  1  2  1  0
  2  3  1  0
  4  3  1  0
  5  4  1  0
  6  5  1  0
  7  6  1  0
  8  7  2  0
  9 11  1  0
  9  8  1  0
 10  9  2  0
 11 12  1  0
 12  6  1  0
 13 12  2  0
 14  8  1  0
 15 16  2  0
 16  1  1  0
 17 16  1  0
 18 17  2  0
 19 18  1  0
 19 20  2  0
 20 15  1  0
 21 22  1  0
 21 19  1  0
 23 22  1  0
 24 23  1  0
 25 24  1  0
 25 26  1  0
 26 21  1  0
  2 27  1  0
  2 28  1  0
  3 29  1  0
  3 30  1  0
  4 31  1  0
  4 32  1  0
  5 33  1  1
  7 34  1  0
 11 35  1  0
 14 36  1  0
 14 37  1  0
 14 38  1  0
 15 39  1  0
 17 40  1  0
 21 41  1  0
 22 42  1  0
 22 43  1  0
 23 44  1  0
 23 45  1  0
 24 46  1  0
 24 47  1  0
 25 48  1  0
 25 49  1  0
 26 50  1  0
 26 51  1  0
M  ISO  8  27  13  28  13  29  13  30  13  31  13  32  13  33  13  34  14
M  ISO  8  35   9  36   8  37   8  38   8  39  14  40  14  41  13  42  13
M  ISO  8  43  13  44  13  45  13  46  13  47  13  48  13  49  13  50  13
M  ISO  1  51  13
M  END
>  <minimizedAffinity>  (1) 
-5.87511349

>  <minimizedRMSD>  (1) 
0.236188903

$$$$
