
     RDKit          3D

 41 44  0  0  1  0  0  0  0  0999 V2000
   36.9750   27.9870   41.6320 N   0  0  0  0  0  0  0  0  0  0  0  0
   36.8120   27.0500   42.7200 C   0  0  0  0  0  0  0  0  0  0  0  0
   37.3990   27.7630   43.9310 C   0  0  0  0  0  0  0  0  0  0  0  0
   38.0140   29.0360   43.4050 C   0  0  0  0  0  0  0  0  0  0  0  0
   38.2070   28.6610   41.9460 C   0  0  2  0  0  0  0  0  0  0  0  0
   35.0850   29.1140   40.5040 C   0  0  0  0  0  0  0  0  0  0  0  0
   36.1520   28.2100   40.5250 C   0  0  0  0  0  0  0  0  0  0  0  0
   36.4090   27.4730   39.3410 C   0  0  0  0  0  0  0  0  0  0  0  0
   35.6090   27.6890   38.2620 N   0  0  0  0  0  0  0  0  0  0  0  0
   34.5910   28.5750   38.2940 C   0  0  0  0  0  0  0  0  0  0  0  0
   34.3390   29.2780   39.4110 N   0  0  0  0  0  0  0  0  0  0  0  0
   33.7320   28.8300   37.1900 N   0  0  0  0  0  0  0  0  0  0  0  0
   33.9320   28.7400   35.8720 C   0  0  0  0  0  0  0  0  0  0  0  0
   32.7970   29.0930   35.2650 N   0  0  0  0  0  0  0  0  0  0  0  0
   31.8600   29.4120   36.1860 C   0  0  0  0  0  0  0  0  0  0  0  0
   32.4760   29.2360   37.3840 N   0  0  0  0  0  0  0  0  0  0  0  0
   38.5630   29.7360   41.1010 N   0  0  0  0  0  0  0  0  0  0  0  0
   38.1320   30.9990   41.1090 C   0  0  0  0  0  0  0  0  0  0  0  0
   38.5930   31.9300   40.1960 C   0  0  0  0  0  0  0  0  0  0  0  0
   39.5180   31.5940   39.2350 C   0  0  0  0  0  0  0  0  0  0  0  0
   39.9210   32.4470   38.4220 O   0  0  0  0  0  0  0  0  0  0  0  0
   39.9370   30.3110   39.2500 N   0  0  0  0  0  0  0  0  0  0  0  0
   39.4790   29.4110   40.1460 C   0  0  0  0  0  0  0  0  0  0  0  0
   39.9820   28.2300   40.0200 O   0  0  0  0  0  0  0  0  0  0  0  0
   38.0660   33.3220   40.2650 C   0  0  0  0  0  0  0  0  0  0  0  0
   35.7478   26.8229   42.8810 H   0  0  0  0  0  0  0  0  0  0  0  0
   37.3077   26.0885   42.5207 H   0  0  0  0  0  0  0  0  0  0  0  0
   36.6079   27.9932   44.6598 H   0  0  0  0  0  0  0  0  0  0  0  0
   38.1437   27.1378   44.4453 H   0  0  0  0  0  0  0  0  0  0  0  0
   37.3344   29.8935   43.5184 H   0  0  0  0  0  0  0  0  0  0  0  0
   38.9304   29.3535   43.9240 H   0  0  0  0  0  0  0  0  0  0  0  0
   39.0813   28.0162   41.7733 H   0  0  0  0  0  0  0  0  0  0  0  0
   34.8569   29.7007   41.4061 H   0  0  0  0  0  0  0  0  0  0  0  0
   37.2333   26.7460   39.2962 H   0  0  0  0  0  0  0  0  0  0  0  0
   34.8641   28.4307   35.3765 H   0  0  0  0  0  0  0  0  0  0  0  0
   30.8262   29.7416   36.0051 H   0  0  0  0  0  0  0  0  0  0  0  0
   37.3910   31.3075   41.8611 H   0  0  0  0  0  0  0  0  0  0  0  0
   40.6314   30.0076   38.5525 H   0  0  0  0  0  0  0  0  0  0  0  0
   37.9533   33.6196   41.3180 H   0  0  0  0  0  0  0  0  0  0  0  0
   38.7678   34.0050   39.7640 H   0  0  0  0  0  0  0  0  0  0  0  0
   37.0878   33.3690   39.7640 H   0  0  0  0  0  0  0  0  0  0  0  0
  1  5  1  0
  1  2  1  0
  2  3  1  0
  4  3  1  0
  5  4  1  0
  6  7  2  0
  7  1  1  0
  8  7  1  0
  9 10  1  0
  9  8  2  0
 10 11  2  0
 11  6  1  0
 12 16  1  0
 12 10  1  0
 13 12  1  0
 14 13  2  0
 14 15  1  0
 15 16  2  0
 17 18  1  0
 17  5  1  0
 19 25  1  0
 19 18  2  0
 20 22  1  0
 20 19  1  0
 21 20  2  0
 22 23  1  0
 23 17  1  0
 24 23  2  0
  2 26  1  0
  2 27  1  0
  3 28  1  0
  3 29  1  0
  4 30  1  0
  4 31  1  0
  5 32  1  1
  6 33  1  0
  8 34  1  0
 13 35  1  0
 15 36  1  0
 18 37  1  0
 22 38  1  0
 25 39  1  0
 25 40  1  0
 25 41  1  0
M  ISO  8  26  13  27  13  28  13  29  13  30  13  31  13  32  13  33  14
M  ISO  8  34  14  35  14  36  14  37  14  38   9  39   8  40   8  41   8
M  END
>  <minimizedAffinity>  (1) 
-5.76347256

>  <minimizedRMSD>  (1) 
0.227165878

$$$$
