
     RDKit          3D

 42 45  0  0  1  0  0  0  0  0999 V2000
   37.0020   27.9980   41.6100 N   0  0  0  0  0  0  0  0  0  0  0  0
   36.8590   27.0600   42.6980 C   0  0  0  0  0  0  0  0  0  0  0  0
   37.4870   27.7690   43.8950 C   0  0  0  0  0  0  0  0  0  0  0  0
   38.0730   29.0550   43.3580 C   0  0  0  0  0  0  0  0  0  0  0  0
   38.2370   28.6790   41.8990 C   0  0  2  0  0  0  0  0  0  0  0  0
   35.0860   29.1210   40.5120 C   0  0  0  0  0  0  0  0  0  0  0  0
   36.1560   28.2160   40.5150 C   0  0  0  0  0  0  0  0  0  0  0  0
   36.3910   27.4780   39.3340 C   0  0  0  0  0  0  0  0  0  0  0  0
   35.5660   27.6940   38.2720 N   0  0  0  0  0  0  0  0  0  0  0  0
   34.5520   28.5740   38.3180 C   0  0  0  0  0  0  0  0  0  0  0  0
   34.3190   29.2770   39.4270 N   0  0  0  0  0  0  0  0  0  0  0  0
   33.8060   28.6540   37.1070 N   0  0  0  0  0  0  0  0  0  0  0  0
   32.5580   29.1390   37.1960 N   0  0  0  0  0  0  0  0  0  0  0  0
   31.9950   29.1460   35.9590 C   0  0  0  0  0  0  0  0  0  0  0  0
   32.9720   28.6370   35.1090 C   0  0  0  0  0  0  0  0  0  0  0  0
   34.1220   28.3250   35.8420 C   0  0  0  0  0  0  0  0  0  0  0  0
   38.5770   29.7510   41.0390 N   0  0  0  0  0  0  0  0  0  0  0  0
   38.1600   31.0170   41.0710 C   0  0  0  0  0  0  0  0  0  0  0  0
   38.5990   31.9460   40.1410 C   0  0  0  0  0  0  0  0  0  0  0  0
   39.4780   31.6030   39.1530 C   0  0  0  0  0  0  0  0  0  0  0  0
   39.8670   32.4540   38.3190 O   0  0  0  0  0  0  0  0  0  0  0  0
   39.8840   30.3220   39.1410 N   0  0  0  0  0  0  0  0  0  0  0  0
   39.4510   29.4180   40.0530 C   0  0  0  0  0  0  0  0  0  0  0  0
   39.9350   28.2330   39.9040 O   0  0  0  0  0  0  0  0  0  0  0  0
   38.0900   33.3430   40.2380 C   0  0  0  0  0  0  0  0  0  0  0  0
   35.7975   26.8423   42.8874 H   0  0  0  0  0  0  0  0  0  0  0  0
   37.3384   26.0933   42.4842 H   0  0  0  0  0  0  0  0  0  0  0  0
   36.7220   27.9858   44.6552 H   0  0  0  0  0  0  0  0  0  0  0  0
   38.2560   27.1454   44.3744 H   0  0  0  0  0  0  0  0  0  0  0  0
   37.3839   29.9027   43.4863 H   0  0  0  0  0  0  0  0  0  0  0  0
   38.9946   29.3887   43.8573 H   0  0  0  0  0  0  0  0  0  0  0  0
   39.1113   28.0380   41.7129 H   0  0  0  0  0  0  0  0  0  0  0  0
   34.8736   29.7119   41.4152 H   0  0  0  0  0  0  0  0  0  0  0  0
   37.2147   26.7514   39.2737 H   0  0  0  0  0  0  0  0  0  0  0  0
   30.9833   29.4822   35.6878 H   0  0  0  0  0  0  0  0  0  0  0  0
   32.8573   28.5004   34.0236 H   0  0  0  0  0  0  0  0  0  0  0  0
   35.0683   27.9063   35.4689 H   0  0  0  0  0  0  0  0  0  0  0  0
   37.4523   31.3309   41.8524 H   0  0  0  0  0  0  0  0  0  0  0  0
   40.5468   30.0169   38.4140 H   0  0  0  0  0  0  0  0  0  0  0  0
   37.9879   33.6233   41.2968 H   0  0  0  0  0  0  0  0  0  0  0  0
   38.7971   34.0260   39.7444 H   0  0  0  0  0  0  0  0  0  0  0  0
   37.1093   33.4110   39.7444 H   0  0  0  0  0  0  0  0  0  0  0  0
  1  5  1  0
  1  2  1  0
  2  3  1  0
  4  3  1  0
  5  4  1  0
  6  7  2  0
  7  1  1  0
  8  7  1  0
  9 10  1  0
  9  8  2  0
 10 11  2  0
 11  6  1  0
 12 13  1  0
 12 10  1  0
 14 13  2  0
 15 16  2  0
 15 14  1  0
 16 12  1  0
 17 18  1  0
 17  5  1  0
 19 25  1  0
 19 18  2  0
 20 19  1  0
 21 20  2  0
 22 20  1  0
 22 23  1  0
 23 17  1  0
 24 23  2  0
  2 26  1  0
  2 27  1  0
  3 28  1  0
  3 29  1  0
  4 30  1  0
  4 31  1  0
  5 32  1  1
  6 33  1  0
  8 34  1  0
 14 35  1  0
 15 36  1  0
 16 37  1  0
 18 38  1  0
 22 39  1  0
 25 40  1  0
 25 41  1  0
 25 42  1  0
M  ISO  8  26  13  27  13  28  13  29  13  30  13  31  13  32  13  33  14
M  ISO  8  34  14  35  14  36  14  37  14  38  14  39   9  40   8  41   8
M  ISO  1  42   8
M  END
>  <minimizedAffinity>  (1) 
-5.71814442

>  <minimizedRMSD>  (1) 
0.249547482

$$$$
