
     RDKit          3D

 42 44  0  0  1  0  0  0  0  0999 V2000
   36.9220   28.0330   41.6600 N   0  0  0  0  0  0  0  0  0  0  0  0
   36.7470   27.1370   42.7740 C   0  0  0  0  0  0  0  0  0  0  0  0
   37.3050   27.9020   43.9690 C   0  0  0  0  0  0  0  0  0  0  0  0
   37.9110   29.1700   43.4060 C   0  0  0  0  0  0  0  0  0  0  0  0
   38.1290   28.7450   41.9660 C   0  0  2  0  0  0  0  0  0  0  0  0
   35.0190   29.0680   40.4450 C   0  0  0  0  0  0  0  0  0  0  0  0
   36.1180   28.1990   40.5210 C   0  0  0  0  0  0  0  0  0  0  0  0
   36.4340   27.4420   39.3700 C   0  0  0  0  0  0  0  0  0  0  0  0
   35.6530   27.6050   38.2670 N   0  0  0  0  0  0  0  0  0  0  0  0
   34.6080   28.4520   38.2440 C   0  0  0  0  0  0  0  0  0  0  0  0
   34.2990   29.1720   39.3220 N   0  0  0  0  0  0  0  0  0  0  0  0
   33.8280   28.5740   37.0480 N   0  0  0  0  0  0  0  0  0  0  0  0
   33.4240   27.4120   36.3340 C   0  0  0  0  0  0  0  0  0  0  0  0
   33.2200   26.3330   37.0470 N   0  0  0  0  0  0  0  0  0  0  0  0
   33.2680   27.4920   34.9020 N   0  0  0  0  0  0  0  0  0  0  0  0
   32.9210   25.4720   36.5280 H   0  0  0  0  0  0  0  0  0  0  0  0
   38.4930   29.7860   41.0810 N   0  0  0  0  0  0  0  0  0  0  0  0
   38.0110   31.0270   41.0070 C   0  0  0  0  0  0  0  0  0  0  0  0
   38.4780   31.9380   40.0730 C   0  0  0  0  0  0  0  0  0  0  0  0
   39.4610   31.5940   39.1840 C   0  0  0  0  0  0  0  0  0  0  0  0
   39.8830   32.4190   38.3390 O   0  0  0  0  0  0  0  0  0  0  0  0
   39.9250   30.3380   39.2840 N   0  0  0  0  0  0  0  0  0  0  0  0
   39.4660   29.4550   40.1950 C   0  0  0  0  0  0  0  0  0  0  0  0
   40.0220   28.2930   40.1520 O   0  0  0  0  0  0  0  0  0  0  0  0
   37.8960   33.3020   40.0490 C   0  0  0  0  0  0  0  0  0  0  0  0
   35.6821   26.9053   42.9233 H   0  0  0  0  0  0  0  0  0  0  0  0
   37.2543   26.1732   42.6199 H   0  0  0  0  0  0  0  0  0  0  0  0
   36.4993   28.1451   44.6774 H   0  0  0  0  0  0  0  0  0  0  0  0
   38.0512   27.3069   44.5159 H   0  0  0  0  0  0  0  0  0  0  0  0
   37.2176   30.0208   43.4795 H   0  0  0  0  0  0  0  0  0  0  0  0
   38.8146   29.5207   43.9261 H   0  0  0  0  0  0  0  0  0  0  0  0
   39.0173   28.1103   41.8318 H   0  0  0  0  0  0  0  0  0  0  0  0
   34.7452   29.6730   41.3220 H   0  0  0  0  0  0  0  0  0  0  0  0
   37.2838   26.7435   39.3656 H   0  0  0  0  0  0  0  0  0  0  0  0
   33.5589   29.5068   36.7040 H   0  0  0  0  0  0  0  0  0  0  0  0
   33.4482   28.3805   34.4132 H   0  0  0  0  0  0  0  0  0  0  0  0
   32.9764   26.6606   34.3685 H   0  0  0  0  0  0  0  0  0  0  0  0
   37.2207   31.3363   41.7068 H   0  0  0  0  0  0  0  0  0  0  0  0
   40.6654   30.0347   38.6354 H   0  0  0  0  0  0  0  0  0  0  0  0
   37.7455   33.6546   41.0800 H   0  0  0  0  0  0  0  0  0  0  0  0
   38.5815   33.9840   39.5246 H   0  0  0  0  0  0  0  0  0  0  0  0
   36.9293   33.2790   39.5246 H   0  0  0  0  0  0  0  0  0  0  0  0
  1  5  1  0
  1  2  1  0
  2  3  1  0
  4  3  1  0
  5  4  1  0
  6  7  2  0
  7  1  1  0
  8  7  1  0
  9  8  2  0
 10  9  1  0
 10 11  2  0
 11  6  1  0
 12 10  1  0
 13 14  2  0
 13 12  1  0
 15 13  1  0
 16 14  1  0
 17  5  1  0
 18 17  1  0
 19 18  2  0
 20 22  1  0
 20 19  1  0
 21 20  2  0
 22 23  1  0
 23 17  1  0
 24 23  2  0
 25 19  1  0
  2 26  1  0
  2 27  1  0
  3 28  1  0
  3 29  1  0
  4 30  1  0
  4 31  1  0
  5 32  1  1
  6 33  1  0
  8 34  1  0
 12 35  1  0
 15 36  1  0
 15 37  1  0
 18 38  1  0
 22 39  1  0
 25 40  1  0
 25 41  1  0
 25 42  1  0
M  ISO  8  26  13  27  13  28  13  29  13  30  13  31  13  32  13  33  14
M  ISO  6  34  14  38  14  39   9  40   8  41   8  42   8
M  END
>  <minimizedAffinity>  (1) 
-5.69185066

>  <minimizedRMSD>  (1) 
0.0643036887

$$$$
