
     RDKit          3D

 43 46  0  0  1  0  0  0  0  0999 V2000
   36.9980   28.0040   41.6460 N   0  0  0  0  0  0  0  0  0  0  0  0
   36.8540   27.0930   42.7550 C   0  0  0  0  0  0  0  0  0  0  0  0
   37.4410   27.8420   43.9430 C   0  0  0  0  0  0  0  0  0  0  0  0
   38.0190   29.1270   43.3820 C   0  0  0  0  0  0  0  0  0  0  0  0
   38.2160   28.7140   41.9330 C   0  0  2  0  0  0  0  0  0  0  0  0
   38.5480   29.7720   41.0540 N   0  0  0  0  0  0  0  0  0  0  0  0
   38.0690   31.0150   41.0110 C   0  0  0  0  0  0  0  0  0  0  0  0
   38.5110   31.9310   40.0720 C   0  0  0  0  0  0  0  0  0  0  0  0
   39.4620   31.6030   39.1470 C   0  0  0  0  0  0  0  0  0  0  0  0
   39.8580   32.4320   38.3020 O   0  0  0  0  0  0  0  0  0  0  0  0
   39.9310   30.3390   39.2110 N   0  0  0  0  0  0  0  0  0  0  0  0
   39.4920   29.4490   40.1320 C   0  0  0  0  0  0  0  0  0  0  0  0
   40.0430   28.2860   40.0570 O   0  0  0  0  0  0  0  0  0  0  0  0
   37.9280   33.3020   40.0870 C   0  0  0  0  0  0  0  0  0  0  0  0
   35.0740   29.0660   40.4920 C   0  0  0  0  0  0  0  0  0  0  0  0
   36.1630   28.1830   40.5330 C   0  0  0  0  0  0  0  0  0  0  0  0
   36.4330   27.4250   39.3730 C   0  0  0  0  0  0  0  0  0  0  0  0
   35.6160   27.6020   38.2940 N   0  0  0  0  0  0  0  0  0  0  0  0
   34.5870   28.4580   38.3030 C   0  0  0  0  0  0  0  0  0  0  0  0
   34.3210   29.1810   39.3910 N   0  0  0  0  0  0  0  0  0  0  0  0
   33.7890   28.5550   37.0830 C   0  0  0  0  0  0  0  0  0  0  0  0
   32.5800   29.2170   37.0170 C   0  0  0  0  0  0  0  0  0  0  0  0
   31.8530   29.2850   35.8340 C   0  0  0  0  0  0  0  0  0  0  0  0
   32.3730   28.6810   34.7510 N   0  0  0  0  0  0  0  0  0  0  0  0
   33.5500   28.0310   34.7910 C   0  0  0  0  0  0  0  0  0  0  0  0
   34.2490   27.9740   35.9600 N   0  0  0  0  0  0  0  0  0  0  0  0
   35.7938   26.8574   42.9294 H   0  0  0  0  0  0  0  0  0  0  0  0
   37.3592   26.1325   42.5753 H   0  0  0  0  0  0  0  0  0  0  0  0
   36.6555   28.0658   44.6799 H   0  0  0  0  0  0  0  0  0  0  0  0
   38.2090   27.2449   44.4565 H   0  0  0  0  0  0  0  0  0  0  0  0
   37.3148   29.9669   43.4754 H   0  0  0  0  0  0  0  0  0  0  0  0
   38.9257   29.4886   43.8891 H   0  0  0  0  0  0  0  0  0  0  0  0
   39.1038   28.0843   41.7739 H   0  0  0  0  0  0  0  0  0  0  0  0
   37.3036   31.3205   41.7396 H   0  0  0  0  0  0  0  0  0  0  0  0
   40.6486   30.0408   38.5350 H   0  0  0  0  0  0  0  0  0  0  0  0
   37.7886   33.6298   41.1277 H   0  0  0  0  0  0  0  0  0  0  0  0
   38.6090   33.9957   39.5722 H   0  0  0  0  0  0  0  0  0  0  0  0
   36.9560   33.2927   39.5722 H   0  0  0  0  0  0  0  0  0  0  0  0
   34.8351   29.6731   41.3777 H   0  0  0  0  0  0  0  0  0  0  0  0
   37.2732   26.7158   39.3399 H   0  0  0  0  0  0  0  0  0  0  0  0
   32.1825   29.7018   37.9209 H   0  0  0  0  0  0  0  0  0  0  0  0
   30.8891   29.8128   35.7857 H   0  0  0  0  0  0  0  0  0  0  0  0
   33.9462   27.5482   33.8855 H   0  0  0  0  0  0  0  0  0  0  0  0
  1  5  1  0
  1  2  1  0
  2  3  1  0
  4  3  1  0
  5  4  1  0
  6  5  1  0
  7  6  1  0
  8 14  1  0
  8  7  2  0
  9 11  1  0
  9  8  1  0
 10  9  2  0
 11 12  1  0
 12  6  1  0
 13 12  2  0
 15 16  2  0
 16  1  1  0
 17 16  1  0
 18 19  1  0
 18 17  2  0
 19 20  2  0
 20 15  1  0
 21 19  1  0
 22 21  2  0
 23 22  1  0
 24 25  1  0
 24 23  2  0
 25 26  2  0
 26 21  1  0
  2 27  1  0
  2 28  1  0
  3 29  1  0
  3 30  1  0
  4 31  1  0
  4 32  1  0
  5 33  1  1
  7 34  1  0
 11 35  1  0
 14 36  1  0
 14 37  1  0
 14 38  1  0
 15 39  1  0
 17 40  1  0
 22 41  1  0
 23 42  1  0
 25 43  1  0
M  ISO  8  27  13  28  13  29  13  30  13  31  13  32  13  33  13  34  14
M  ISO  8  35   9  36   8  37   8  38   8  39  14  40  14  41  14  42  14
M  ISO  1  43  14
M  END
>  <minimizedAffinity>  (1) 
-5.66119099

>  <minimizedRMSD>  (1) 
0.17381224

$$$$
