
     RDKit          3D

 42 45  0  0  1  0  0  0  0  0999 V2000
   36.9330   28.0330   41.6730 N   0  0  0  0  0  0  0  0  0  0  0  0
   36.7480   27.1320   42.7850 C   0  0  0  0  0  0  0  0  0  0  0  0
   37.2880   27.9040   43.9880 C   0  0  0  0  0  0  0  0  0  0  0  0
   37.9070   29.1650   43.4300 C   0  0  0  0  0  0  0  0  0  0  0  0
   38.1430   28.7370   42.0010 C   0  0  2  0  0  0  0  0  0  0  0  0
   38.5110   29.7870   41.1160 N   0  0  0  0  0  0  0  0  0  0  0  0
   38.0310   31.0290   41.0390 C   0  0  0  0  0  0  0  0  0  0  0  0
   38.5020   31.9390   40.1100 C   0  0  0  0  0  0  0  0  0  0  0  0
   39.4890   31.5890   39.2230 C   0  0  0  0  0  0  0  0  0  0  0  0
   39.9130   32.4180   38.3790 O   0  0  0  0  0  0  0  0  0  0  0  0
   39.9540   30.3340   39.3190 N   0  0  0  0  0  0  0  0  0  0  0  0
   39.4870   29.4550   40.2310 C   0  0  0  0  0  0  0  0  0  0  0  0
   40.0400   28.2910   40.1910 O   0  0  0  0  0  0  0  0  0  0  0  0
   37.9230   33.3050   40.0810 C   0  0  0  0  0  0  0  0  0  0  0  0
   35.0480   29.0750   40.4580 C   0  0  0  0  0  0  0  0  0  0  0  0
   36.1390   28.1960   40.5390 C   0  0  0  0  0  0  0  0  0  0  0  0
   36.4460   27.4310   39.3940 C   0  0  0  0  0  0  0  0  0  0  0  0
   35.6690   27.5930   38.2880 N   0  0  0  0  0  0  0  0  0  0  0  0
   34.6250   28.4560   38.2570 C   0  0  0  0  0  0  0  0  0  0  0  0
   34.3310   29.1810   39.3380 N   0  0  0  0  0  0  0  0  0  0  0  0
   33.8260   28.5870   37.0410 C   0  0  0  0  0  0  0  0  0  0  0  0
   32.5780   29.2100   37.1220 C   0  0  0  0  0  0  0  0  0  0  0  0
   32.0420   29.1980   35.8310 C   0  0  0  0  0  0  0  0  0  0  0  0
   32.9610   28.5830   35.0320 N   0  0  0  0  0  0  0  0  0  0  0  0
   34.0230   28.2220   35.7690 N   0  0  0  0  0  0  0  0  0  0  0  0
   35.6827   26.8937   42.9208 H   0  0  0  0  0  0  0  0  0  0  0  0
   37.2609   26.1702   42.6373 H   0  0  0  0  0  0  0  0  0  0  0  0
   36.4704   28.1535   44.6803 H   0  0  0  0  0  0  0  0  0  0  0  0
   38.0225   27.3098   44.5514 H   0  0  0  0  0  0  0  0  0  0  0  0
   37.2166   30.0192   43.4907 H   0  0  0  0  0  0  0  0  0  0  0  0
   38.8049   29.5127   43.9618 H   0  0  0  0  0  0  0  0  0  0  0  0
   39.0307   28.0976   41.8862 H   0  0  0  0  0  0  0  0  0  0  0  0
   37.2373   31.3387   41.7347 H   0  0  0  0  0  0  0  0  0  0  0  0
   40.6956   30.0297   38.6722 H   0  0  0  0  0  0  0  0  0  0  0  0
   37.7720   33.6612   41.1107 H   0  0  0  0  0  0  0  0  0  0  0  0
   38.6108   33.9837   39.5554 H   0  0  0  0  0  0  0  0  0  0  0  0
   36.9570   33.2827   39.5554 H   0  0  0  0  0  0  0  0  0  0  0  0
   34.7797   29.6865   41.3321 H   0  0  0  0  0  0  0  0  0  0  0  0
   37.2888   26.7241   39.3949 H   0  0  0  0  0  0  0  0  0  0  0  0
   32.1090   29.6281   38.0249 H   0  0  0  0  0  0  0  0  0  0  0  0
   31.0687   29.6052   35.5199 H   0  0  0  0  0  0  0  0  0  0  0  0
   32.8561   28.4209   34.0203 H   0  0  0  0  0  0  0  0  0  0  0  0
  1  5  1  0
  1  2  1  0
  2  3  1  0
  4  3  1  0
  5  4  1  0
  6  5  1  0
  7  6  1  0
  8  7  2  0
  9 11  1  0
  9  8  1  0
 10  9  2  0
 11 12  1  0
 12  6  1  0
 13 12  2  0
 14  8  1  0
 15 16  2  0
 16  1  1  0
 17 16  1  0
 18 17  2  0
 19 18  1  0
 19 20  2  0
 20 15  1  0
 21 22  1  0
 21 19  1  0
 23 22  2  0
 24 25  1  0
 24 23  1  0
 25 21  2  0
  2 26  1  0
  2 27  1  0
  3 28  1  0
  3 29  1  0
  4 30  1  0
  4 31  1  0
  5 32  1  1
  7 33  1  0
 11 34  1  0
 14 35  1  0
 14 36  1  0
 14 37  1  0
 15 38  1  0
 17 39  1  0
 22 40  1  0
 23 41  1  0
 24 42  1  0
M  ISO  8  26  13  27  13  28  13  29  13  30  13  31  13  32  13  33  14
M  ISO  8  34   9  35   8  36   8  37   8  38  14  39  14  40  14  41  14
M  ISO  1  42   9
M  END
>  <minimizedAffinity>  (1) 
-5.5557003

>  <minimizedRMSD>  (1) 
0.108356021

$$$$
