
     RDKit          3D

 38 40  0  0  1  0  0  0  0  0999 V2000
   36.9860   27.9990   41.6220 N   0  0  0  0  0  0  0  0  0  0  0  0
   36.8500   27.0900   42.7360 C   0  0  0  0  0  0  0  0  0  0  0  0
   37.4750   27.8220   43.9070 C   0  0  0  0  0  0  0  0  0  0  0  0
   38.0570   29.1030   43.3450 C   0  0  0  0  0  0  0  0  0  0  0  0
   38.2150   28.6970   41.8910 C   0  0  2  0  0  0  0  0  0  0  0  0
   38.5350   29.7550   41.0140 N   0  0  0  0  0  0  0  0  0  0  0  0
   38.0760   31.0070   40.9890 C   0  0  0  0  0  0  0  0  0  0  0  0
   38.4980   31.9330   40.0510 C   0  0  0  0  0  0  0  0  0  0  0  0
   39.4260   31.5890   39.0890 C   0  0  0  0  0  0  0  0  0  0  0  0
   39.8030   32.4260   38.2460 O   0  0  0  0  0  0  0  0  0  0  0  0
   39.8710   30.3250   39.1370 N   0  0  0  0  0  0  0  0  0  0  0  0
   39.4520   29.4290   40.0590 C   0  0  0  0  0  0  0  0  0  0  0  0
   39.9820   28.2580   39.9600 O   0  0  0  0  0  0  0  0  0  0  0  0
   37.9450   33.3040   40.0840 C   0  0  0  0  0  0  0  0  0  0  0  0
   35.0590   29.0820   40.5110 C   0  0  0  0  0  0  0  0  0  0  0  0
   36.1370   28.1810   40.5250 C   0  0  0  0  0  0  0  0  0  0  0  0
   36.3690   27.4240   39.3610 C   0  0  0  0  0  0  0  0  0  0  0  0
   35.5370   27.6090   38.2970 N   0  0  0  0  0  0  0  0  0  0  0  0
   34.5190   28.4780   38.3260 C   0  0  0  0  0  0  0  0  0  0  0  0
   34.2870   29.2020   39.4200 N   0  0  0  0  0  0  0  0  0  0  0  0
   33.7040   28.5810   37.1210 C   0  0  0  0  0  0  0  0  0  0  0  0
   34.2030   29.1170   36.0980 O   0  0  0  0  0  0  0  0  0  0  0  0
   32.3980   28.1240   37.0180 O   0  0  0  0  0  0  0  0  0  0  0  0
   35.7896   26.8748   42.9341 H   0  0  0  0  0  0  0  0  0  0  0  0
   37.3337   26.1208   42.5444 H   0  0  0  0  0  0  0  0  0  0  0  0
   36.7112   28.0508   44.6648 H   0  0  0  0  0  0  0  0  0  0  0  0
   38.2491   27.2107   44.3940 H   0  0  0  0  0  0  0  0  0  0  0  0
   37.3665   29.9515   43.4604 H   0  0  0  0  0  0  0  0  0  0  0  0
   38.9789   29.4500   43.8346 H   0  0  0  0  0  0  0  0  0  0  0  0
   39.0926   28.0585   41.7117 H   0  0  0  0  0  0  0  0  0  0  0  0
   37.3350   31.3149   41.7414 H   0  0  0  0  0  0  0  0  0  0  0  0
   40.5648   30.0222   38.4385 H   0  0  0  0  0  0  0  0  0  0  0  0
   37.8165   33.6225   41.1290 H   0  0  0  0  0  0  0  0  0  0  0  0
   38.6365   33.9907   39.5738 H   0  0  0  0  0  0  0  0  0  0  0  0
   36.9706   33.3187   39.5738 H   0  0  0  0  0  0  0  0  0  0  0  0
   34.8464   29.6932   41.4005 H   0  0  0  0  0  0  0  0  0  0  0  0
   37.1985   26.7033   39.3114 H   0  0  0  0  0  0  0  0  0  0  0  0
   31.9031   28.2272   36.1668 H   0  0  0  0  0  0  0  0  0  0  0  0
  1  5  1  0
  1  2  1  0
  2  3  1  0
  4  3  1  0
  5  4  1  0
  6  5  1  0
  7  6  1  0
  8 14  1  0
  8  7  2  0
  9 11  1  0
  9  8  1  0
 10  9  2  0
 11 12  1  0
 12  6  1  0
 13 12  2  0
 15 16  2  0
 16  1  1  0
 17 16  1  0
 18 19  1  0
 18 17  2  0
 19 20  2  0
 20 15  1  0
 21 19  1  0
 22 21  2  0
 23 21  1  0
  2 24  1  0
  2 25  1  0
  3 26  1  0
  3 27  1  0
  4 28  1  0
  4 29  1  0
  5 30  1  1
  7 31  1  0
 11 32  1  0
 14 33  1  0
 14 34  1  0
 14 35  1  0
 15 36  1  0
 17 37  1  0
 23 38  1  0
M  ISO  8  24  13  25  13  26  13  27  13  28  13  29  13  30  13  31  14
M  ISO  7  32   9  33   8  34   8  35   8  36  14  37  14  38   3
M  END
>  <minimizedAffinity>  (1) 
-5.35944748

>  <minimizedRMSD>  (1) 
0.325261205

$$$$
