
     RDKit          3D

 37 39  0  0  1  0  0  0  0  0999 V2000
   36.9280   28.0320   41.6670 N   0  0  0  0  0  0  0  0  0  0  0  0
   36.7550   27.1420   42.7890 C   0  0  0  0  0  0  0  0  0  0  0  0
   37.3180   27.9200   43.9800 C   0  0  0  0  0  0  0  0  0  0  0  0
   37.9210   29.1780   43.4070 C   0  0  0  0  0  0  0  0  0  0  0  0
   38.1390   28.7390   41.9720 C   0  0  2  0  0  0  0  0  0  0  0  0
   35.0360   29.0760   40.4560 C   0  0  0  0  0  0  0  0  0  0  0  0
   36.1190   28.1900   40.5330 C   0  0  0  0  0  0  0  0  0  0  0  0
   36.4150   27.4040   39.3930 C   0  0  0  0  0  0  0  0  0  0  0  0
   35.6350   27.5530   38.2910 N   0  0  0  0  0  0  0  0  0  0  0  0
   34.5990   28.4200   38.2590 C   0  0  0  0  0  0  0  0  0  0  0  0
   34.3080   29.1690   39.3300 N   0  0  0  0  0  0  0  0  0  0  0  0
   33.7980   28.5500   37.0810 N   0  0  0  0  0  0  0  0  0  0  0  0
   38.5000   29.7820   41.0730 N   0  0  0  0  0  0  0  0  0  0  0  0
   38.0150   31.0280   41.0050 C   0  0  0  0  0  0  0  0  0  0  0  0
   38.4780   31.9280   40.0620 C   0  0  0  0  0  0  0  0  0  0  0  0
   39.4440   31.5850   39.1640 C   0  0  0  0  0  0  0  0  0  0  0  0
   39.8650   32.4000   38.3080 O   0  0  0  0  0  0  0  0  0  0  0  0
   39.9110   30.3280   39.2580 N   0  0  0  0  0  0  0  0  0  0  0  0
   39.4570   29.4470   40.1820 C   0  0  0  0  0  0  0  0  0  0  0  0
   40.0060   28.2820   40.1400 O   0  0  0  0  0  0  0  0  0  0  0  0
   37.8980   33.2990   40.0390 C   0  0  0  0  0  0  0  0  0  0  0  0
   35.6905   26.9112   42.9426 H   0  0  0  0  0  0  0  0  0  0  0  0
   37.2609   26.1765   42.6411 H   0  0  0  0  0  0  0  0  0  0  0  0
   36.5140   28.1696   44.6880 H   0  0  0  0  0  0  0  0  0  0  0  0
   38.0652   27.3294   44.5302 H   0  0  0  0  0  0  0  0  0  0  0  0
   37.2272   30.0291   43.4721 H   0  0  0  0  0  0  0  0  0  0  0  0
   38.8243   29.5344   43.9236 H   0  0  0  0  0  0  0  0  0  0  0  0
   39.0255   28.0995   41.8485 H   0  0  0  0  0  0  0  0  0  0  0  0
   34.7795   29.7006   41.3244 H   0  0  0  0  0  0  0  0  0  0  0  0
   37.2536   26.6922   39.3996 H   0  0  0  0  0  0  0  0  0  0  0  0
   33.0100   29.2131   37.0646 H   0  0  0  0  0  0  0  0  0  0  0  0
   34.0092   27.9805   36.2492 H   0  0  0  0  0  0  0  0  0  0  0  0
   37.2334   31.3421   41.7125 H   0  0  0  0  0  0  0  0  0  0  0  0
   40.6433   30.0223   38.6013 H   0  0  0  0  0  0  0  0  0  0  0  0
   37.7489   33.6514   41.0703 H   0  0  0  0  0  0  0  0  0  0  0  0
   38.5854   33.9792   39.5149 H   0  0  0  0  0  0  0  0  0  0  0  0
   36.9311   33.2793   39.5149 H   0  0  0  0  0  0  0  0  0  0  0  0
  1  5  1  0
  1  2  1  0
  2  3  1  0
  4  3  1  0
  5  4  1  0
  6  7  2  0
  7  1  1  0
  8  7  1  0
  9  8  2  0
 10  9  1  0
 10 11  2  0
 11  6  1  0
 12 10  1  0
 13  5  1  0
 14 13  1  0
 15 14  2  0
 16 18  1  0
 16 15  1  0
 17 16  2  0
 18 19  1  0
 19 13  1  0
 20 19  2  0
 21 15  1  0
  2 22  1  0
  2 23  1  0
  3 24  1  0
  3 25  1  0
  4 26  1  0
  4 27  1  0
  5 28  1  1
  6 29  1  0
  8 30  1  0
 12 31  1  0
 12 32  1  0
 14 33  1  0
 18 34  1  0
 21 35  1  0
 21 36  1  0
 21 37  1  0
M  ISO  8  22  13  23  13  24  13  25  13  26  13  27  13  28  13  29  14
M  ISO  6  30  14  33  14  34   9  35   8  36   8  37   8
M  END
>  <minimizedAffinity>  (1) 
-5.13589287

>  <minimizedRMSD>  (1) 
0.0443783402

$$$$
