
     RDKit          3D

 30 33  0  0  0  0  0  0  0  0999 V2000
   37.5580   30.1870   41.8430 C   0  0  0  0  0  0  0  0  0  0  0  0
   38.7070   30.5280   41.0930 C   0  0  0  0  0  0  0  0  0  0  0  0
   38.5060   31.0050   39.8170 C   0  0  0  0  0  0  0  0  0  0  0  0
   37.2570   31.1370   39.3130 N   0  0  0  0  0  0  0  0  0  0  0  0
   36.1690   30.7920   40.0820 C   0  0  0  0  0  0  0  0  0  0  0  0
   36.3260   30.3200   41.3400 N   0  0  0  0  0  0  0  0  0  0  0  0
   39.5450   31.4270   38.8910 C   0  0  0  0  0  0  0  0  0  0  0  0
   40.1110   30.7800   37.7830 C   0  0  0  0  0  0  0  0  0  0  0  0
   41.0390   31.5730   37.2290 N   0  0  0  0  0  0  0  0  0  0  0  0
   41.1170   32.7250   37.9240 C   0  0  0  0  0  0  0  0  0  0  0  0
   41.9360   33.8120   37.6960 C   0  0  0  0  0  0  0  0  0  0  0  0
   41.8320   34.9000   38.5620 C   0  0  0  0  0  0  0  0  0  0  0  0
   40.9300   34.8810   39.6130 C   0  0  0  0  0  0  0  0  0  0  0  0
   40.1420   33.7600   39.7780 C   0  0  0  0  0  0  0  0  0  0  0  0
   40.2070   32.6580   38.9510 C   0  0  0  0  0  0  0  0  0  0  0  0
   40.0110   30.3600   41.6860 C   0  0  0  0  0  0  0  0  0  0  0  0
   40.6910   29.1160   41.5680 C   0  0  0  0  0  0  0  0  0  0  0  0
   42.2820   29.3870   42.4820 S   0  0  0  0  0  0  0  0  0  0  0  0
   41.7460   31.1580   42.8720 C   0  0  0  0  0  0  0  0  0  0  0  0
   40.7390   31.1930   42.3700 N   0  0  0  0  0  0  0  0  0  0  0  0
   37.6805   29.8025   42.8663 H   0  0  0  0  0  0  0  0  0  0  0  0
   35.1561   30.9018   39.6673 H   0  0  0  0  0  0  0  0  0  0  0  0
   39.8361   29.7772   37.4241 H   0  0  0  0  0  0  0  0  0  0  0  0
   41.6046   31.3383   36.4008 H   0  0  0  0  0  0  0  0  0  0  0  0
   42.6482   33.8200   36.8578 H   0  0  0  0  0  0  0  0  0  0  0  0
   42.4721   35.7814   38.4091 H   0  0  0  0  0  0  0  0  0  0  0  0
   40.8440   35.7371   40.2983 H   0  0  0  0  0  0  0  0  0  0  0  0
   39.4251   33.7446   40.6121 H   0  0  0  0  0  0  0  0  0  0  0  0
   40.3518   28.2046   41.0539 H   0  0  0  0  0  0  0  0  0  0  0  0
   42.2743   31.9409   43.4359 H   0  0  0  0  0  0  0  0  0  0  0  0
  2 16  1  0
  2  1  2  0
  3  2  1  0
  4  3  2  0
  4  5  1  0
  5  6  2  0
  6  1  1  0
  7 15  1  0
  7  3  1  0
  8  7  2  0
  9  8  1  0
  9 10  1  0
 10 15  2  0
 11 10  1  0
 11 12  2  0
 12 13  1  0
 13 14  2  0
 15 14  1  0
 16 20  1  0
 17 16  2  0
 17 18  1  0
 18 19  1  0
 20 19  2  0
  1 21  1  0
  5 22  1  0
  8 23  1  0
  9 24  1  0
 11 25  1  0
 12 26  1  0
 13 27  1  0
 14 28  1  0
 17 29  1  0
 19 30  1  0
M  ISO  8  21  14  22  14  23  14  24   9  25  14  26  14  27  14  28  14
M  ISO  2  29  14  30  14
M  END
>  <minimizedAffinity>  (1) 
-4.58346748

>  <minimizedRMSD>  (1) 
5.67355919

$$$$
