
     RDKit          3D

 26 28  0  0  0  0  0  0  0  0999 V2000
   36.6720   29.8400   41.6350 C   0  0  0  0  0  0  0  0  0  0  0  0
   37.4680   28.9880   40.8370 C   0  0  0  0  0  0  0  0  0  0  0  0
   37.8880   29.4790   39.6220 C   0  0  0  0  0  0  0  0  0  0  0  0
   37.5310   30.7390   39.2370 N   0  0  0  0  0  0  0  0  0  0  0  0
   36.7540   31.5220   40.0580 C   0  0  0  0  0  0  0  0  0  0  0  0
   36.3270   31.0660   41.2580 N   0  0  0  0  0  0  0  0  0  0  0  0
   38.6890   28.7890   38.7020 N   0  0  0  0  0  0  0  0  0  0  0  0
   39.5520   27.9040   39.2780 C   0  0  0  0  0  0  0  0  0  0  0  0
   40.3870   27.1630   38.4500 C   0  0  0  0  0  0  0  0  0  0  0  0
   40.2900   27.3710   37.1010 C   0  0  0  0  0  0  0  0  0  0  0  0
   41.0380   26.7080   36.3330 O   0  0  0  0  0  0  0  0  0  0  0  0
   39.4330   28.2480   36.5430 N   0  0  0  0  0  0  0  0  0  0  0  0
   38.6170   28.9730   37.3530 C   0  0  0  0  0  0  0  0  0  0  0  0
   37.7840   29.8200   36.8850 O   0  0  0  0  0  0  0  0  0  0  0  0
   37.7930   27.6730   41.3270 C   0  0  0  0  0  0  0  0  0  0  0  0
   37.0310   26.5470   40.9060 C   0  0  0  0  0  0  0  0  0  0  0  0
   37.7910   25.1020   41.7750 S   0  0  0  0  0  0  0  0  0  0  0  0
   39.0410   26.2890   42.5840 C   0  0  0  0  0  0  0  0  0  0  0  0
   38.7400   27.3030   42.1610 N   0  0  0  0  0  0  0  0  0  0  0  0
   36.3228   29.4719   42.6110 H   0  0  0  0  0  0  0  0  0  0  0  0
   36.4751   32.5355   39.7338 H   0  0  0  0  0  0  0  0  0  0  0  0
   39.5864   27.7797   40.3704 H   0  0  0  0  0  0  0  0  0  0  0  0
   41.1003   26.4353   38.8643 H   0  0  0  0  0  0  0  0  0  0  0  0
   39.3968   28.3670   35.5205 H   0  0  0  0  0  0  0  0  0  0  0  0
   36.1759   26.5381   40.2141 H   0  0  0  0  0  0  0  0  0  0  0  0
   39.8537   26.0535   43.2868 H   0  0  0  0  0  0  0  0  0  0  0  0
  2 15  1  0
  2  1  2  0
  3  2  1  0
  4  3  2  0
  4  5  1  0
  5  6  2  0
  6  1  1  0
  7  8  1  0
  7  3  1  0
  9  8  2  0
 10  9  1  0
 11 10  2  0
 12 10  1  0
 12 13  1  0
 13  7  1  0
 14 13  2  0
 15 19  1  0
 16 15  2  0
 16 17  1  0
 17 18  1  0
 19 18  2  0
  1 20  1  0
  5 21  1  0
  8 22  1  0
  9 23  1  0
 12 24  1  0
 16 25  1  0
 18 26  1  0
M  ISO  7  20  14  21  14  22  14  23  14  24   9  25  14  26  14
M  END
>  <minimizedAffinity>  (1) 
-4.0133791

>  <minimizedRMSD>  (1) 
1.12338257

$$$$
