
     RDKit          3D

 27 29  0  0  0  0  0  0  0  0999 V2000
   37.1610   29.2720   41.8150 C   0  0  0  0  0  0  0  0  0  0  0  0
   37.3090   28.3410   40.7640 C   0  0  0  0  0  0  0  0  0  0  0  0
   36.9460   28.7540   39.5030 C   0  0  0  0  0  0  0  0  0  0  0  0
   36.4670   30.0020   39.2900 N   0  0  0  0  0  0  0  0  0  0  0  0
   36.3410   30.8740   40.3430 C   0  0  0  0  0  0  0  0  0  0  0  0
   36.6880   30.5050   41.5950 N   0  0  0  0  0  0  0  0  0  0  0  0
   37.0360   27.9670   38.3280 N   0  0  0  0  0  0  0  0  0  0  0  0
   36.5730   26.6920   38.4940 C   0  0  0  0  0  0  0  0  0  0  0  0
   36.6270   25.8660   37.3680 C   0  0  0  0  0  0  0  0  0  0  0  0
   37.1290   26.3670   36.1890 C   0  0  0  0  0  0  0  0  0  0  0  0
   37.2160   25.5840   35.0000 N   0  0  0  0  0  0  0  0  0  0  0  0
   37.5720   27.6420   36.0900 N   0  0  0  0  0  0  0  0  0  0  0  0
   37.5230   28.4400   37.1670 C   0  0  0  0  0  0  0  0  0  0  0  0
   37.9360   29.6370   37.0810 O   0  0  0  0  0  0  0  0  0  0  0  0
   37.8220   27.0280   41.0620 C   0  0  0  0  0  0  0  0  0  0  0  0
   37.0660   26.1490   41.8850 C   0  0  0  0  0  0  0  0  0  0  0  0
   38.0970   24.6090   42.0010 S   0  0  0  0  0  0  0  0  0  0  0  0
   39.3960   25.4360   40.8980 C   0  0  0  0  0  0  0  0  0  0  0  0
   38.9420   26.4480   40.6960 N   0  0  0  0  0  0  0  0  0  0  0  0
   37.4405   28.9778   42.8374 H   0  0  0  0  0  0  0  0  0  0  0  0
   35.9520   31.8873   40.1644 H   0  0  0  0  0  0  0  0  0  0  0  0
   36.1805   26.3364   39.4581 H   0  0  0  0  0  0  0  0  0  0  0  0
   36.2719   24.8264   37.4237 H   0  0  0  0  0  0  0  0  0  0  0  0
   37.5985   25.9977   34.1378 H   0  0  0  0  0  0  0  0  0  0  0  0
   36.8963   24.6049   35.0036 H   0  0  0  0  0  0  0  0  0  0  0  0
   36.0874   26.3391   42.3499 H   0  0  0  0  0  0  0  0  0  0  0  0
   40.3547   25.0299   40.5429 H   0  0  0  0  0  0  0  0  0  0  0  0
  2 15  1  0
  2  1  2  0
  3  2  1  0
  4  3  2  0
  4  5  1  0
  5  6  2  0
  6  1  1  0
  7  8  1  0
  7  3  1  0
  9  8  2  0
 10  9  1  0
 11 10  1  0
 12 10  2  0
 12 13  1  0
 13  7  1  0
 14 13  2  0
 15 16  2  0
 16 17  1  0
 18 17  1  0
 19 18  2  0
 19 15  1  0
  1 20  1  0
  5 21  1  0
  8 22  1  0
  9 23  1  0
 11 24  1  0
 11 25  1  0
 16 26  1  0
 18 27  1  0
M  ISO  6  20  14  21  14  22  14  23  14  26  14  27  14
M  END
>  <minimizedAffinity>  (1) 
-3.94508338

>  <minimizedRMSD>  (1) 
2.0392561

$$$$
