
     RDKit          3D

 24 26  0  0  0  0  0  0  0  0999 V2000
   36.7330   30.1560   41.3440 C   0  0  0  0  0  0  0  0  0  0  0  0
   37.5230   29.2810   40.5670 C   0  0  0  0  0  0  0  0  0  0  0  0
   37.9950   29.7540   39.3640 C   0  0  0  0  0  0  0  0  0  0  0  0
   37.7050   31.0090   38.9520 N   0  0  0  0  0  0  0  0  0  0  0  0
   36.9330   31.8260   39.7410 C   0  0  0  0  0  0  0  0  0  0  0  0
   36.4520   31.3980   40.9270 N   0  0  0  0  0  0  0  0  0  0  0  0
   37.7880   27.9540   41.0690 C   0  0  0  0  0  0  0  0  0  0  0  0
   36.8530   26.9150   40.7870 C   0  0  0  0  0  0  0  0  0  0  0  0
   37.5840   25.4130   41.6220 S   0  0  0  0  0  0  0  0  0  0  0  0
   39.0500   26.4860   42.2120 C   0  0  0  0  0  0  0  0  0  0  0  0
   38.7810   27.4930   41.7840 N   0  0  0  0  0  0  0  0  0  0  0  0
   38.8230   28.9710   38.4600 C   0  0  0  0  0  0  0  0  0  0  0  0
   38.3720   28.2430   37.4060 C   0  0  0  0  0  0  0  0  0  0  0  0
   39.1830   27.5020   36.5490 C   0  0  0  0  0  0  0  0  0  0  0  0
   40.5050   27.5570   36.8490 N   0  0  0  0  0  0  0  0  0  0  0  0
   40.9870   28.2780   37.9000 C   0  0  0  0  0  0  0  0  0  0  0  0
   40.1680   28.9810   38.7040 N   0  0  0  0  0  0  0  0  0  0  0  0
   36.3401   29.8109   42.3117 H   0  0  0  0  0  0  0  0  0  0  0  0
   36.7029   32.8464   39.4005 H   0  0  0  0  0  0  0  0  0  0  0  0
   35.9181   26.9825   40.2113 H   0  0  0  0  0  0  0  0  0  0  0  0
   39.9259   26.1970   42.8115 H   0  0  0  0  0  0  0  0  0  0  0  0
   37.2887   28.2380   37.2152 H   0  0  0  0  0  0  0  0  0  0  0  0
   38.7858   26.9226   35.7025 H   0  0  0  0  0  0  0  0  0  0  0  0
   42.0694   28.2856   38.0956 H   0  0  0  0  0  0  0  0  0  0  0  0
  2  7  1  0
  2  1  2  0
  3  2  1  0
  4  3  2  0
  4  5  1  0
  5  6  2  0
  6  1  1  0
  7 11  1  0
  8  7  2  0
  8  9  1  0
  9 10  1  0
 11 10  2  0
 12 17  1  0
 12  3  1  0
 13 12  2  0
 14 15  2  0
 14 13  1  0
 15 16  1  0
 16 17  2  0
  1 18  1  0
  5 19  1  0
  8 20  1  0
 10 21  1  0
 13 22  1  0
 14 23  1  0
 16 24  1  0
M  ISO  7  18  14  19  14  20  14  21  14  22  14  23  14  24  14
M  END
>  <minimizedAffinity>  (1) 
-3.36022735

>  <minimizedRMSD>  (1) 
1.36823475

$$$$
