
     RDKit          3D

 21 22  0  0  0  0  0  0  0  0999 V2000
   36.6120   29.7000   41.5940 C   0  0  0  0  0  0  0  0  0  0  0  0
   37.9370   29.3030   41.5370 C   0  0  0  0  0  0  0  0  0  0  0  0
   38.7710   30.2030   40.9390 C   0  0  0  0  0  0  0  0  0  0  0  0
   38.3280   31.3820   40.4450 N   0  0  0  0  0  0  0  0  0  0  0  0
   37.0230   31.7080   40.5330 C   0  0  0  0  0  0  0  0  0  0  0  0
   36.1920   30.8590   41.1060 N   0  0  0  0  0  0  0  0  0  0  0  0
   38.3770   28.0400   42.0760 C   0  0  0  0  0  0  0  0  0  0  0  0
   38.2950   26.8530   41.3000 C   0  0  0  0  0  0  0  0  0  0  0  0
   38.9730   25.5400   42.4370 S   0  0  0  0  0  0  0  0  0  0  0  0
   39.2470   26.8600   43.7750 C   0  0  0  0  0  0  0  0  0  0  0  0
   38.8820   27.8250   43.2870 N   0  0  0  0  0  0  0  0  0  0  0  0
   40.1810   29.9930   40.8200 C   0  0  0  0  0  0  0  0  0  0  0  0
   40.7060   29.5270   39.7510 O   0  0  0  0  0  0  0  0  0  0  0  0
   41.5300   29.8220   40.7910 O   0  0  0  0  0  0  0  0  0  0  0  0
   35.8787   29.0273   42.0627 H   0  0  0  0  0  0  0  0  0  0  0  0
   36.6574   32.6656   40.1338 H   0  0  0  0  0  0  0  0  0  0  0  0
   37.9205   26.7362   40.2723 H   0  0  0  0  0  0  0  0  0  0  0  0
   39.6611   26.7256   44.7852 H   0  0  0  0  0  0  0  0  0  0  0  0
   40.6545   30.9702   40.9958 H   0  0  0  0  0  0  0  0  0  0  0  0
   40.3565   29.1794   41.5392 H   0  0  0  0  0  0  0  0  0  0  0  0
   41.0577   29.6529   41.6445 H   0  0  0  0  0  0  0  0  0  0  0  0
  2  1  2  0
  2  7  1  0
  3  2  1  0
  4  5  1  0
  4  3  2  0
  5  6  2  0
  6  1  1  0
  7 11  1  0
  8  7  2  0
  8  9  1  0
  9 10  1  0
 11 10  2  0
 12  3  1  0
 13 14  1  0
 13 12  1  0
  1 15  1  0
  5 16  1  0
  8 17  1  0
 10 18  1  0
 12 19  1  0
 12 20  1  0
 14 21  1  0
M  ISO  7  15  14  16  14  17  14  18  14  19   8  20   8  21   3
M  END
>  <minimizedAffinity>  (1) 
-3.23392749

>  <minimizedRMSD>  (1) 
1.95816278

$$$$
