
     RDKit          3D

 17 18  0  0  0  0  0  0  0  0999 V2000
   37.0190   29.8940   41.8720 C   0  0  0  0  0  0  0  0  0  0  0  0
   38.0910   29.1920   41.2660 C   0  0  0  0  0  0  0  0  0  0  0  0
   38.3400   29.4310   39.9310 C   0  0  0  0  0  0  0  0  0  0  0  0
   37.5850   30.3000   39.2300 N   0  0  0  0  0  0  0  0  0  0  0  0
   36.5520   30.9600   39.8550 C   0  0  0  0  0  0  0  0  0  0  0  0
   36.2740   30.7560   41.1670 N   0  0  0  0  0  0  0  0  0  0  0  0
   38.8480   28.2650   42.0710 C   0  0  0  0  0  0  0  0  0  0  0  0
   38.3500   26.9540   42.2980 C   0  0  0  0  0  0  0  0  0  0  0  0
   39.6210   26.1440   43.3720 S   0  0  0  0  0  0  0  0  0  0  0  0
   40.6280   27.7360   43.3350 C   0  0  0  0  0  0  0  0  0  0  0  0
   39.9820   28.3950   42.6890 N   0  0  0  0  0  0  0  0  0  0  0  0
   39.6670   28.6520   39.0350 S   0  0  0  0  0  0  0  0  0  0  0  0
   36.7956   29.7287   42.9363 H   0  0  0  0  0  0  0  0  0  0  0  0
   35.9386   31.6681   39.2785 H   0  0  0  0  0  0  0  0  0  0  0  0
   37.4147   26.5166   41.9188 H   0  0  0  0  0  0  0  0  0  0  0  0
   41.5909   27.9619   43.8164 H   0  0  0  0  0  0  0  0  0  0  0  0
   40.5678   28.1232   39.9214 H   0  0  0  0  0  0  0  0  0  0  0  0
  2  1  2  0
  2  7  1  0
  3  2  1  0
  4  5  1  0
  4  3  2  0
  5  6  2  0
  6  1  1  0
  7  8  2  0
  7 11  1  0
  8  9  1  0
 10  9  1  0
 11 10  2  0
 12  3  1  0
  1 13  1  0
  5 14  1  0
  8 15  1  0
 10 16  1  0
 12 17  1  0
M  ISO  5  13  14  14  14  15  14  16  14  17  11
M  END
>  <minimizedAffinity>  (1) 
-2.98903513

>  <minimizedRMSD>  (1) 
0.915455043

$$$$
