
     RDKit          3D

 34 36  0  0  1  0  0  0  0  0999 V2000
   39.9540   29.0490   42.7620 N   0  0  0  0  0  0  0  0  0  0  0  0
   40.3530   30.4060   42.5490 C   0  0  0  0  0  0  0  0  0  0  0  0
   41.5380   30.2990   41.6090 C   0  0  0  0  0  0  0  0  0  0  0  0
   42.6260   29.7290   42.3160 N   0  0  0  0  0  0  0  0  0  0  0  0
   42.3450   28.5950   43.0800 C   0  0  0  0  0  0  0  0  0  0  0  0
   40.9450   28.0550   43.1300 C   0  0  2  0  0  0  0  0  0  0  0  0
   38.6080   28.5810   42.6400 C   0  0  0  0  0  0  0  0  0  0  0  0
   37.9540   27.8980   43.6970 C   0  0  0  0  0  0  0  0  0  0  0  0
   36.6470   27.4820   43.4900 C   0  0  0  0  0  0  0  0  0  0  0  0
   36.0720   27.7520   42.2910 N   0  0  0  0  0  0  0  0  0  0  0  0
   36.7210   28.4050   41.3010 C   0  0  0  0  0  0  0  0  0  0  0  0
   37.9790   28.8130   41.4830 N   0  0  0  0  0  0  0  0  0  0  0  0
   40.8060   26.8250   42.3250 C   0  0  0  0  0  0  0  0  0  0  0  0
   40.8080   25.7510   42.9970 O   0  0  0  0  0  0  0  0  0  0  0  0
   40.6700   26.5060   40.9140 C   0  0  0  0  0  0  0  0  0  0  0  0
   39.6840   25.6980   40.4030 C   0  0  0  0  0  0  0  0  0  0  0  0
   39.5730   25.4110   39.0660 C   0  0  0  0  0  0  0  0  0  0  0  0
   40.4450   25.9240   38.1880 N   0  0  0  0  0  0  0  0  0  0  0  0
   41.4110   26.7140   38.6740 C   0  0  0  0  0  0  0  0  0  0  0  0
   41.4800   26.9630   39.9670 N   0  0  0  0  0  0  0  0  0  0  0  0
   39.5392   30.9846   42.0874 H   0  0  0  0  0  0  0  0  0  0  0  0
   40.6026   30.9251   43.4862 H   0  0  0  0  0  0  0  0  0  0  0  0
   41.8151   31.3000   41.2467 H   0  0  0  0  0  0  0  0  0  0  0  0
   41.2779   29.6674   40.7468 H   0  0  0  0  0  0  0  0  0  0  0  0
   43.3469   29.4716   41.6269 H   0  0  0  0  0  0  0  0  0  0  0  0
   42.9844   27.7864   42.6962 H   0  0  0  0  0  0  0  0  0  0  0  0
   42.5242   28.9326   44.1115 H   0  0  0  0  0  0  0  0  0  0  0  0
   40.7491   27.7881   44.1790 H   0  0  0  0  0  0  0  0  0  0  0  0
   38.4669   27.7043   44.6506 H   0  0  0  0  0  0  0  0  0  0  0  0
   36.0923   26.9482   44.2758 H   0  0  0  0  0  0  0  0  0  0  0  0
   36.2124   28.6002   40.3454 H   0  0  0  0  0  0  0  0  0  0  0  0
   38.9504   25.2614   41.0967 H   0  0  0  0  0  0  0  0  0  0  0  0
   38.7631   24.7557   38.7129 H   0  0  0  0  0  0  0  0  0  0  0  0
   42.1506   27.1574   37.9911 H   0  0  0  0  0  0  0  0  0  0  0  0
  1  6  1  0
  2  1  1  0
  3  4  1  0
  3  2  1  0
  4  5  1  0
  5  6  1  0
  7  1  1  0
  7  8  2  0
  9  8  1  0
 10  9  2  0
 11 12  2  0
 11 10  1  0
 12  7  1  0
 13 14  2  0
 13  6  1  0
 15 13  1  0
 16 15  2  0
 17 16  1  0
 18 19  1  0
 18 17  2  0
 19 20  2  0
 20 15  1  0
  2 21  1  0
  2 22  1  0
  3 23  1  0
  3 24  1  0
  4 25  1  0
  5 26  1  0
  5 27  1  0
  6 28  1  1
  8 29  1  0
  9 30  1  0
 11 31  1  0
 16 32  1  0
 17 33  1  0
 19 34  1  0
M  ISO  8  21  13  22  13  23  13  24  13  25   5  26  13  27  13  28  13
M  ISO  6  29  14  30  14  31  14  32  14  33  14  34  14
M  END
>  <minimizedAffinity>  (1) 
-3.39387298

>  <minimizedRMSD>  (1) 
1.09426069

$$$$
