
     RDKit          3D

 28 30  0  0  0  0  0  0  0  0999 V2000
   37.1690   30.0610   41.6350 C   0  0  0  0  0  0  0  0  0  0  0  0
   38.4740   29.9370   41.0470 C   0  0  0  0  0  0  0  0  0  0  0  0
   38.8460   30.7330   40.0030 C   0  0  0  0  0  0  0  0  0  0  0  0
   37.9070   31.6400   39.5610 N   0  0  0  0  0  0  0  0  0  0  0  0
   36.6700   31.7510   40.1230 C   0  0  0  0  0  0  0  0  0  0  0  0
   36.3010   30.9680   41.1550 N   0  0  0  0  0  0  0  0  0  0  0  0
   40.1340   30.7480   39.3510 C   0  0  0  0  0  0  0  0  0  0  0  0
   40.9340   30.0050   38.6220 N   0  0  0  0  0  0  0  0  0  0  0  0
   42.0310   30.6100   38.3350 O   0  0  0  0  0  0  0  0  0  0  0  0
   42.0590   31.7900   38.8400 C   0  0  0  0  0  0  0  0  0  0  0  0
   40.8930   31.8630   39.4600 N   0  0  0  0  0  0  0  0  0  0  0  0
   43.0410   32.8150   38.7970 N   0  0  0  0  0  0  0  0  0  0  0  0
   43.2080   33.5610   37.6130 C   0  0  0  0  0  0  0  0  0  0  0  0
   42.2110   33.8210   36.8400 N   0  0  0  0  0  0  0  0  0  0  0  0
   44.4910   34.0600   37.2260 N   0  0  0  0  0  0  0  0  0  0  0  0
   41.2360   33.5040   37.0330 H   0  0  0  0  0  0  0  0  0  0  0  0
   39.3180   28.8930   41.6200 C   0  0  0  0  0  0  0  0  0  0  0  0
   39.1200   27.5360   41.1920 C   0  0  0  0  0  0  0  0  0  0  0  0
   40.3730   26.5800   42.1630 S   0  0  0  0  0  0  0  0  0  0  0  0
   40.9360   28.2250   42.9800 C   0  0  0  0  0  0  0  0  0  0  0  0
   40.2740   28.9860   42.5130 N   0  0  0  0  0  0  0  0  0  0  0  0
   36.8806   29.4145   42.4769 H   0  0  0  0  0  0  0  0  0  0  0  0
   35.9609   32.4928   39.7269 H   0  0  0  0  0  0  0  0  0  0  0  0
   43.6250   33.0111   39.6224 H   0  0  0  0  0  0  0  0  0  0  0  0
   44.5915   34.6032   36.3566 H   0  0  0  0  0  0  0  0  0  0  0  0
   45.3146   33.8763   37.8166 H   0  0  0  0  0  0  0  0  0  0  0  0
   38.3939   27.1544   40.4590 H   0  0  0  0  0  0  0  0  0  0  0  0
   41.7253   28.3774   43.7309 H   0  0  0  0  0  0  0  0  0  0  0  0
  2 17  1  0
  2  1  2  0
  3  2  1  0
  4  3  2  0
  4  5  1  0
  5  6  2  0
  6  1  1  0
  7 11  1  0
  7  3  1  0
  8  7  2  0
  9  8  1  0
  9 10  1  0
 10 11  2  0
 12 10  1  0
 13 12  1  0
 14 16  1  0
 14 13  2  0
 15 13  1  0
 17 21  1  0
 18 17  2  0
 18 19  1  0
 19 20  1  0
 21 20  2  0
  1 22  1  0
  5 23  1  0
 12 24  1  0
 15 25  1  0
 15 26  1  0
 18 27  1  0
 20 28  1  0
M  ISO  4  22  14  23  14  27  14  28  14
M  END
>  <minimizedAffinity>  (1) 
-4.91355515

>  <minimizedRMSD>  (1) 
1.83759415

$$$$
