
     RDKit          3D

 29 32  0  0  0  0  0  0  0  0999 V2000
   37.0570   29.9130   41.5480 C   0  0  0  0  0  0  0  0  0  0  0  0
   38.4820   29.9140   41.3590 C   0  0  0  0  0  0  0  0  0  0  0  0
   39.0760   30.9580   40.7100 C   0  0  0  0  0  0  0  0  0  0  0  0
   38.2560   31.9740   40.2610 N   0  0  0  0  0  0  0  0  0  0  0  0
   36.9070   31.9520   40.4500 C   0  0  0  0  0  0  0  0  0  0  0  0
   36.3070   30.9290   41.0910 N   0  0  0  0  0  0  0  0  0  0  0  0
   39.1860   28.7600   41.8630 C   0  0  0  0  0  0  0  0  0  0  0  0
   39.0440   27.5110   41.1580 C   0  0  0  0  0  0  0  0  0  0  0  0
   40.0830   26.3270   42.1230 S   0  0  0  0  0  0  0  0  0  0  0  0
   40.5320   27.7710   43.3330 C   0  0  0  0  0  0  0  0  0  0  0  0
   39.9740   28.6400   42.9110 N   0  0  0  0  0  0  0  0  0  0  0  0
   40.5010   31.1220   40.4830 C   0  0  0  0  0  0  0  0  0  0  0  0
   41.5420   30.5440   39.9330 N   0  0  0  0  0  0  0  0  0  0  0  0
   42.6140   31.2300   40.0740 O   0  0  0  0  0  0  0  0  0  0  0  0
   42.3910   32.3190   40.7220 C   0  0  0  0  0  0  0  0  0  0  0  0
   41.0990   32.2350   40.9630 N   0  0  0  0  0  0  0  0  0  0  0  0
   43.2780   33.4060   41.1240 C   0  0  0  0  0  0  0  0  0  0  0  0
   44.6050   33.4820   40.7580 C   0  0  0  0  0  0  0  0  0  0  0  0
   45.4320   34.5170   41.1460 C   0  0  0  0  0  0  0  0  0  0  0  0
   44.8520   35.4760   41.9250 N   0  0  0  0  0  0  0  0  0  0  0  0
   43.5620   35.4330   42.3000 C   0  0  0  0  0  0  0  0  0  0  0  0
   42.8030   34.4030   41.8940 N   0  0  0  0  0  0  0  0  0  0  0  0
   36.5768   29.0730   42.0713 H   0  0  0  0  0  0  0  0  0  0  0  0
   36.2957   32.7849   40.0724 H   0  0  0  0  0  0  0  0  0  0  0  0
   38.4525   27.3090   40.2528 H   0  0  0  0  0  0  0  0  0  0  0  0
   41.1802   27.7415   44.2212 H   0  0  0  0  0  0  0  0  0  0  0  0
   45.0234   32.6825   40.1289 H   0  0  0  0  0  0  0  0  0  0  0  0
   46.4894   34.5657   40.8469 H   0  0  0  0  0  0  0  0  0  0  0  0
   43.1355   36.2283   42.9289 H   0  0  0  0  0  0  0  0  0  0  0  0
  2  1  2  0
  2  7  1  0
  3  2  1  0
  4  5  1  0
  4  3  2  0
  5  6  2  0
  6  1  1  0
  7 11  1  0
  8  7  2  0
  8  9  1  0
  9 10  1  0
 11 10  2  0
 12  3  1  0
 12 16  1  0
 13 14  1  0
 13 12  2  0
 14 15  1  0
 15 16  2  0
 15 17  1  0
 17 22  1  0
 18 17  2  0
 18 19  1  0
 19 20  2  0
 20 21  1  0
 22 21  2  0
  1 23  1  0
  5 24  1  0
  8 25  1  0
 10 26  1  0
 18 27  1  0
 19 28  1  0
 21 29  1  0
M  ISO  7  23  14  24  14  25  14  26  14  27  14  28  14  29  14
M  END
>  <minimizedAffinity>  (1) 
-4.45030212

>  <minimizedRMSD>  (1) 
2.47609591

$$$$
