
     RDKit          3D

 28 31  0  0  0  0  0  0  0  0999 V2000
   36.8750   29.7910   41.6930 C   0  0  0  0  0  0  0  0  0  0  0  0
   38.2170   29.5490   41.2580 C   0  0  0  0  0  0  0  0  0  0  0  0
   38.7850   30.3500   40.3080 C   0  0  0  0  0  0  0  0  0  0  0  0
   38.0010   31.3730   39.8060 N   0  0  0  0  0  0  0  0  0  0  0  0
   36.7230   31.5870   40.2330 C   0  0  0  0  0  0  0  0  0  0  0  0
   36.1560   30.8010   41.1750 N   0  0  0  0  0  0  0  0  0  0  0  0
   40.1410   30.2550   39.8020 C   0  0  0  0  0  0  0  0  0  0  0  0
   41.1170   29.4030   39.5930 N   0  0  0  0  0  0  0  0  0  0  0  0
   42.1570   29.9600   39.0900 O   0  0  0  0  0  0  0  0  0  0  0  0
   41.9660   31.2250   38.9210 C   0  0  0  0  0  0  0  0  0  0  0  0
   40.7330   31.3840   39.3590 N   0  0  0  0  0  0  0  0  0  0  0  0
   42.8080   32.2400   38.4050 N   0  0  0  0  0  0  0  0  0  0  0  0
   44.1530   32.2630   38.4320 C   0  0  0  0  0  0  0  0  0  0  0  0
   44.5680   33.4300   37.8230 C   0  0  0  0  0  0  0  0  0  0  0  0
   43.4780   34.1130   37.4290 N   0  0  0  0  0  0  0  0  0  0  0  0
   42.4270   33.3650   37.7960 C   0  0  0  0  0  0  0  0  0  0  0  0
   38.8740   28.4050   41.8560 C   0  0  0  0  0  0  0  0  0  0  0  0
   38.6500   27.1050   41.2910 C   0  0  0  0  0  0  0  0  0  0  0  0
   39.6500   25.9670   42.3400 S   0  0  0  0  0  0  0  0  0  0  0  0
   40.2100   27.4990   43.3870 C   0  0  0  0  0  0  0  0  0  0  0  0
   39.6870   28.3540   42.8950 N   0  0  0  0  0  0  0  0  0  0  0  0
   36.4270   29.1425   42.4604 H   0  0  0  0  0  0  0  0  0  0  0  0
   36.1424   32.4159   39.8019 H   0  0  0  0  0  0  0  0  0  0  0  0
   44.8057   31.4894   38.8628 H   0  0  0  0  0  0  0  0  0  0  0  0
   45.6119   33.7475   37.6836 H   0  0  0  0  0  0  0  0  0  0  0  0
   41.3783   33.6447   37.6169 H   0  0  0  0  0  0  0  0  0  0  0  0
   38.0221   26.8460   40.4257 H   0  0  0  0  0  0  0  0  0  0  0  0
   40.8821   27.5209   44.2575 H   0  0  0  0  0  0  0  0  0  0  0  0
  2  1  2  0
  2 17  1  0
  3  2  1  0
  4  5  1  0
  4  3  2  0
  5  6  2  0
  6  1  1  0
  7  3  1  0
  8  7  2  0
  9  8  1  0
 10  9  1  0
 10 11  2  0
 11  7  1  0
 12 13  1  0
 12 10  1  0
 14 13  2  0
 15 16  2  0
 15 14  1  0
 16 12  1  0
 17 21  1  0
 18 17  2  0
 18 19  1  0
 19 20  1  0
 21 20  2  0
  1 22  1  0
  5 23  1  0
 13 24  1  0
 14 25  1  0
 16 26  1  0
 18 27  1  0
 20 28  1  0
M  ISO  7  22  14  23  14  24  14  25  14  26  14  27  14  28  14
M  END
>  <minimizedAffinity>  (1) 
-4.2381444

>  <minimizedRMSD>  (1) 
1.86488569

$$$$
