
     RDKit          3D

 28 31  0  0  0  0  0  0  0  0999 V2000
   36.9100   30.0360   41.5710 C   0  0  0  0  0  0  0  0  0  0  0  0
   38.2740   29.7580   41.1980 C   0  0  0  0  0  0  0  0  0  0  0  0
   38.9080   30.5600   40.2960 C   0  0  0  0  0  0  0  0  0  0  0  0
   38.1840   31.6130   39.7770 N   0  0  0  0  0  0  0  0  0  0  0  0
   36.8950   31.8640   40.1370 C   0  0  0  0  0  0  0  0  0  0  0  0
   36.2620   31.0800   41.0300 N   0  0  0  0  0  0  0  0  0  0  0  0
   38.8600   28.5870   41.8070 C   0  0  0  0  0  0  0  0  0  0  0  0
   38.5650   27.2940   41.2510 C   0  0  0  0  0  0  0  0  0  0  0  0
   39.4920   26.1180   42.3290 S   0  0  0  0  0  0  0  0  0  0  0  0
   40.1260   27.6240   43.3620 C   0  0  0  0  0  0  0  0  0  0  0  0
   39.6550   28.4940   42.8500 N   0  0  0  0  0  0  0  0  0  0  0  0
   40.2900   30.4400   39.8730 C   0  0  0  0  0  0  0  0  0  0  0  0
   41.2440   29.5640   39.6660 N   0  0  0  0  0  0  0  0  0  0  0  0
   42.3350   30.1180   39.2780 O   0  0  0  0  0  0  0  0  0  0  0  0
   42.2120   31.3880   39.1910 C   0  0  0  0  0  0  0  0  0  0  0  0
   40.9560   31.5750   39.5580 N   0  0  0  0  0  0  0  0  0  0  0  0
   43.2030   32.3590   38.7930 C   0  0  0  0  0  0  0  0  0  0  0  0
   43.6350   33.4920   39.4520 C   0  0  0  0  0  0  0  0  0  0  0  0
   44.5830   34.1420   38.7410 N   0  0  0  0  0  0  0  0  0  0  0  0
   44.7600   33.4110   37.6080 C   0  0  0  0  0  0  0  0  0  0  0  0
   43.9260   32.3510   37.6570 N   0  0  0  0  0  0  0  0  0  0  0  0
   36.3985   29.3912   42.3008 H   0  0  0  0  0  0  0  0  0  0  0  0
   36.3639   32.7185   39.6924 H   0  0  0  0  0  0  0  0  0  0  0  0
   37.9320   27.0598   40.3824 H   0  0  0  0  0  0  0  0  0  0  0  0
   40.7890   27.6223   44.2398 H   0  0  0  0  0  0  0  0  0  0  0  0
   43.2564   33.8234   40.4302 H   0  0  0  0  0  0  0  0  0  0  0  0
   45.4613   33.6433   36.7930 H   0  0  0  0  0  0  0  0  0  0  0  0
   43.8524   31.6318   36.9233 H   0  0  0  0  0  0  0  0  0  0  0  0
  2  1  2  0
  2  7  1  0
  3  2  1  0
  4  5  1  0
  4  3  2  0
  5  6  2  0
  6  1  1  0
  7 11  1  0
  8  7  2  0
  8  9  1  0
  9 10  1  0
 11 10  2  0
 12  3  1  0
 13 12  2  0
 14 13  1  0
 15 14  1  0
 15 16  2  0
 16 12  1  0
 17 15  1  0
 17 18  2  0
 19 18  1  0
 20 21  1  0
 20 19  2  0
 21 17  1  0
  1 22  1  0
  5 23  1  0
  8 24  1  0
 10 25  1  0
 18 26  1  0
 20 27  1  0
 21 28  1  0
M  ISO  7  22  14  23  14  24  14  25  14  26  14  27  14  28   9
M  END
>  <minimizedAffinity>  (1) 
-4.07613087

>  <minimizedRMSD>  (1) 
1.77309918

$$$$
