
     RDKit          3D

 22 24  0  0  0  0  0  0  0  0999 V2000
   36.7490   29.9300   41.6500 C   0  0  0  0  0  0  0  0  0  0  0  0
   38.0010   29.3760   41.2180 C   0  0  0  0  0  0  0  0  0  0  0  0
   38.6960   29.9690   40.2030 C   0  0  0  0  0  0  0  0  0  0  0  0
   38.1310   31.0950   39.6340 N   0  0  0  0  0  0  0  0  0  0  0  0
   36.9390   31.6040   40.0570 C   0  0  0  0  0  0  0  0  0  0  0  0
   36.2500   31.0270   41.0610 N   0  0  0  0  0  0  0  0  0  0  0  0
   38.4160   28.1630   41.8980 C   0  0  0  0  0  0  0  0  0  0  0  0
   38.0070   26.8980   41.3540 C   0  0  0  0  0  0  0  0  0  0  0  0
   38.7330   25.6550   42.5070 S   0  0  0  0  0  0  0  0  0  0  0  0
   39.4770   27.1160   43.5400 C   0  0  0  0  0  0  0  0  0  0  0  0
   39.1410   28.0310   42.9900 N   0  0  0  0  0  0  0  0  0  0  0  0
   39.9900   29.5570   39.6970 C   0  0  0  0  0  0  0  0  0  0  0  0
   40.5690   28.6750   38.9180 N   0  0  0  0  0  0  0  0  0  0  0  0
   41.8420   28.8260   38.8720 O   0  0  0  0  0  0  0  0  0  0  0  0
   42.2210   29.8120   39.6080 C   0  0  0  0  0  0  0  0  0  0  0  0
   41.0790   30.2480   40.1050 N   0  0  0  0  0  0  0  0  0  0  0  0
   43.4840   30.3220   39.8500 O   0  0  0  0  0  0  0  0  0  0  0  0
   36.1945   29.4511   42.4705 H   0  0  0  0  0  0  0  0  0  0  0  0
   36.5322   32.5023   39.5696 H   0  0  0  0  0  0  0  0  0  0  0  0
   37.3999   26.7130   40.4556 H   0  0  0  0  0  0  0  0  0  0  0  0
   40.0871   27.0593   44.4536 H   0  0  0  0  0  0  0  0  0  0  0  0
   43.5970   31.0985   40.4537 H   0  0  0  0  0  0  0  0  0  0  0  0
  2  1  2  0
  2  7  1  0
  3  2  1  0
  4  5  1  0
  4  3  2  0
  5  6  2  0
  6  1  1  0
  7 11  1  0
  8  7  2  0
  8  9  1  0
  9 10  1  0
 11 10  2  0
 12 16  1  0
 12  3  1  0
 13 12  2  0
 14 13  1  0
 14 15  1  0
 15 17  1  0
 15 16  2  0
  1 18  1  0
  5 19  1  0
  8 20  1  0
 10 21  1  0
 17 22  1  0
M  ISO  5  18  14  19  14  20  14  21  14  22   3
M  END
>  <minimizedAffinity>  (1) 
-3.40131307

>  <minimizedRMSD>  (1) 
0.036127504

$$$$
