
     RDKit          3D

 22 24  0  0  0  0  0  0  0  0999 V2000
   36.7480   29.9310   41.6540 C   0  0  0  0  0  0  0  0  0  0  0  0
   38.0050   29.3830   41.2220 C   0  0  0  0  0  0  0  0  0  0  0  0
   38.7010   29.9720   40.2050 C   0  0  0  0  0  0  0  0  0  0  0  0
   38.1340   31.0890   39.6340 N   0  0  0  0  0  0  0  0  0  0  0  0
   36.9360   31.5960   40.0550 C   0  0  0  0  0  0  0  0  0  0  0  0
   36.2460   31.0240   41.0600 N   0  0  0  0  0  0  0  0  0  0  0  0
   38.4230   28.1650   41.9040 C   0  0  0  0  0  0  0  0  0  0  0  0
   38.0130   26.9040   41.3640 C   0  0  0  0  0  0  0  0  0  0  0  0
   38.7210   25.6540   42.5050 S   0  0  0  0  0  0  0  0  0  0  0  0
   39.4740   27.1070   43.5440 C   0  0  0  0  0  0  0  0  0  0  0  0
   39.1470   28.0300   42.9980 N   0  0  0  0  0  0  0  0  0  0  0  0
   39.9890   29.5540   39.7020 C   0  0  0  0  0  0  0  0  0  0  0  0
   40.5640   28.6780   38.9140 N   0  0  0  0  0  0  0  0  0  0  0  0
   41.8390   28.8180   38.8730 O   0  0  0  0  0  0  0  0  0  0  0  0
   42.2250   29.7890   39.6230 C   0  0  0  0  0  0  0  0  0  0  0  0
   41.0860   30.2210   40.1150 N   0  0  0  0  0  0  0  0  0  0  0  0
   43.8560   30.4360   39.9570 S   0  0  0  0  0  0  0  0  0  0  0  0
   36.1953   29.4518   42.4755 H   0  0  0  0  0  0  0  0  0  0  0  0
   36.5271   32.4904   39.5621 H   0  0  0  0  0  0  0  0  0  0  0  0
   37.4072   26.7243   40.4636 H   0  0  0  0  0  0  0  0  0  0  0  0
   40.0819   27.0411   44.4584 H   0  0  0  0  0  0  0  0  0  0  0  0
   44.0485   30.5124   41.3113 H   0  0  0  0  0  0  0  0  0  0  0  0
  2  1  2  0
  2  7  1  0
  3  2  1  0
  4  5  1  0
  4  3  2  0
  5  6  2  0
  6  1  1  0
  7 11  1  0
  8  7  2  0
  8  9  1  0
  9 10  1  0
 11 10  2  0
 12 16  1  0
 12  3  1  0
 13 12  2  0
 14 13  1  0
 14 15  1  0
 15 17  1  0
 15 16  2  0
  1 18  1  0
  5 19  1  0
  8 20  1  0
 10 21  1  0
 17 22  1  0
M  ISO  5  18  14  19  14  20  14  21  14  22  11
M  END
>  <minimizedAffinity>  (1) 
-3.39966249

>  <minimizedRMSD>  (1) 
0.0271300264

$$$$
