
     RDKit          3D

 33 37  0  0  0  0  0  0  0  0999 V2000
   36.5760   29.0540   38.6330 C   0  0  0  0  0  0  0  0  0  0  0  0
   37.5900   29.7140   39.4080 C   0  0  0  0  0  0  0  0  0  0  0  0
   38.2860   30.7420   38.8660 C   0  0  0  0  0  0  0  0  0  0  0  0
   37.9750   31.1000   37.5780 N   0  0  0  0  0  0  0  0  0  0  0  0
   37.0090   30.4610   36.8580 C   0  0  0  0  0  0  0  0  0  0  0  0
   36.3130   29.4460   37.3810 N   0  0  0  0  0  0  0  0  0  0  0  0
   39.3310   31.5040   39.5420 C   0  0  0  0  0  0  0  0  0  0  0  0
   40.4480   31.3930   40.2100 N   0  0  0  0  0  0  0  0  0  0  0  0
   40.9140   32.5310   40.5650 O   0  0  0  0  0  0  0  0  0  0  0  0
   40.1730   33.4930   40.1790 C   0  0  0  0  0  0  0  0  0  0  0  0
   39.1990   32.8550   39.5490 N   0  0  0  0  0  0  0  0  0  0  0  0
   40.2580   34.9000   40.3210 N   0  0  0  0  0  0  0  0  0  0  0  0
   41.2390   35.5660   40.9310 C   0  0  0  0  0  0  0  0  0  0  0  0
   40.9920   36.8950   40.8670 N   0  0  0  0  0  0  0  0  0  0  0  0
   39.8360   37.0500   40.2050 C   0  0  0  0  0  0  0  0  0  0  0  0
   39.3770   35.8090   39.8640 N   0  0  0  0  0  0  0  0  0  0  0  0
   37.7880   29.1890   40.7510 C   0  0  0  0  0  0  0  0  0  0  0  0
   37.1830   29.9110   41.8490 C   0  0  0  0  0  0  0  0  0  0  0  0
   37.6660   28.9340   43.3370 S   0  0  0  0  0  0  0  0  0  0  0  0
   38.6110   27.7130   42.1770 C   0  0  0  0  0  0  0  0  0  0  0  0
   38.4440   28.1350   41.1620 N   0  0  0  0  0  0  0  0  0  0  0  0
   39.3870   26.4780   42.5830 N   0  0  0  0  0  0  0  0  0  0  0  0
   40.6670   26.3860   42.9200 C   0  0  0  0  0  0  0  0  0  0  0  0
   40.8970   25.0910   43.1990 N   0  0  0  0  0  0  0  0  0  0  0  0
   39.7560   24.4010   43.0300 C   0  0  0  0  0  0  0  0  0  0  0  0
   38.8210   25.3030   42.6410 N   0  0  0  0  0  0  0  0  0  0  0  0
   36.0109   28.2190   39.0729 H   0  0  0  0  0  0  0  0  0  0  0  0
   36.7986   30.7864   35.8285 H   0  0  0  0  0  0  0  0  0  0  0  0
   42.1146   35.1058   41.4123 H   0  0  0  0  0  0  0  0  0  0  0  0
   39.3442   38.0071   39.9768 H   0  0  0  0  0  0  0  0  0  0  0  0
   36.5769   30.8279   41.8064 H   0  0  0  0  0  0  0  0  0  0  0  0
   41.3968   27.2079   42.9627 H   0  0  0  0  0  0  0  0  0  0  0  0
   39.6098   23.3208   43.1777 H   0  0  0  0  0  0  0  0  0  0  0  0
  1  2  2  0
  2 17  1  0
  3  2  1  0
  3  7  1  0
  4  3  2  0
  5  6  2  0
  5  4  1  0
  6  1  1  0
  7 11  1  0
  7  8  2  0
  8  9  1  0
 10 12  1  0
 10  9  1  0
 11 10  2  0
 12 13  1  0
 14 13  2  0
 15 14  1  0
 16 15  2  0
 16 12  1  0
 17 21  1  0
 17 18  2  0
 18 19  1  0
 20 22  1  0
 20 19  1  0
 21 20  2  0
 22 26  1  0
 22 23  1  0
 23 24  2  0
 25 24  1  0
 26 25  2  0
  1 27  1  0
  5 28  1  0
 13 29  1  0
 15 30  1  0
 18 31  1  0
 23 32  1  0
 25 33  1  0
M  ISO  7  27  14  28  14  29  14  30  14  31  14  32  14  33  14
M  END
>  <minimizedAffinity>  (1) 
-6.3962307

>  <minimizedRMSD>  (1) 
3.30710912

$$$$
