
     RDKit          3D

 36 40  0  0  0  0  0  0  0  0999 V2000
   38.2930   32.1910   40.2440 C   0  0  0  0  0  0  0  0  0  0  0  0
   39.7220   32.2950   40.3340 C   0  0  0  0  0  0  0  0  0  0  0  0
   40.3180   33.5080   40.2250 C   0  0  0  0  0  0  0  0  0  0  0  0
   39.4930   34.5850   40.0290 N   0  0  0  0  0  0  0  0  0  0  0  0
   38.1450   34.4760   39.9450 C   0  0  0  0  0  0  0  0  0  0  0  0
   37.5400   33.2830   40.0510 N   0  0  0  0  0  0  0  0  0  0  0  0
   41.7540   33.7550   40.3090 C   0  0  0  0  0  0  0  0  0  0  0  0
   42.9010   33.4580   39.7720 N   0  0  0  0  0  0  0  0  0  0  0  0
   43.8800   34.0460   40.3490 O   0  0  0  0  0  0  0  0  0  0  0  0
   43.4750   34.7880   41.3220 C   0  0  0  0  0  0  0  0  0  0  0  0
   42.1780   34.6040   41.2880 N   0  0  0  0  0  0  0  0  0  0  0  0
   44.1570   35.6270   42.2500 N   0  0  0  0  0  0  0  0  0  0  0  0
   45.4930   35.8300   42.2770 C   0  0  0  0  0  0  0  0  0  0  0  0
   45.7820   36.6700   43.2810 N   0  0  0  0  0  0  0  0  0  0  0  0
   44.6170   36.9900   43.8810 C   0  0  0  0  0  0  0  0  0  0  0  0
   43.5990   36.3440   43.2440 N   0  0  0  0  0  0  0  0  0  0  0  0
   40.4310   31.0320   40.5360 C   0  0  0  0  0  0  0  0  0  0  0  0
   40.8410   30.3100   39.3520 C   0  0  0  0  0  0  0  0  0  0  0  0
   41.6800   28.8060   40.0430 S   0  0  0  0  0  0  0  0  0  0  0  0
   41.3080   29.4550   41.8140 C   0  0  0  0  0  0  0  0  0  0  0  0
   40.7690   30.4190   41.6410 N   0  0  0  0  0  0  0  0  0  0  0  0
   41.7560   28.6460   42.9770 C   0  0  0  0  0  0  0  0  0  0  0  0
   42.8780   29.0400   43.6740 C   0  0  0  0  0  0  0  0  0  0  0  0
   43.2620   28.2630   44.7480 C   0  0  0  0  0  0  0  0  0  0  0  0
   42.6040   27.1470   45.1500 C   0  0  0  0  0  0  0  0  0  0  0  0
   41.5020   26.8300   44.4010 C   0  0  0  0  0  0  0  0  0  0  0  0
   41.0890   27.5550   43.3470 N   0  0  0  0  0  0  0  0  0  0  0  0
   37.8116   31.2061   40.3343 H   0  0  0  0  0  0  0  0  0  0  0  0
   37.5374   35.3793   39.7875 H   0  0  0  0  0  0  0  0  0  0  0  0
   46.2232   35.3799   41.5883 H   0  0  0  0  0  0  0  0  0  0  0  0
   44.5062   37.6629   44.7441 H   0  0  0  0  0  0  0  0  0  0  0  0
   40.6917   30.5855   38.2976 H   0  0  0  0  0  0  0  0  0  0  0  0
   43.4446   29.9377   43.3858 H   0  0  0  0  0  0  0  0  0  0  0  0
   44.1559   28.5671   45.3123 H   0  0  0  0  0  0  0  0  0  0  0  0
   42.9299   26.5438   46.0102 H   0  0  0  0  0  0  0  0  0  0  0  0
   40.9246   25.9352   44.6764 H   0  0  0  0  0  0  0  0  0  0  0  0
  1  2  2  0
  2 17  1  0
  3  7  1  0
  3  2  1  0
  4  3  2  0
  5  4  1  0
  5  6  2  0
  6  1  1  0
  7 11  1  0
  8  7  2  0
  8  9  1  0
  9 10  1  0
 10 12  1  0
 11 10  2  0
 12 13  1  0
 12 16  1  0
 13 14  2  0
 14 15  1  0
 16 15  2  0
 17 21  1  0
 18 19  1  0
 18 17  2  0
 19 20  1  0
 20 22  1  0
 21 20  2  0
 22 27  1  0
 22 23  2  0
 23 24  1  0
 24 25  2  0
 26 25  1  0
 27 26  2  0
  1 28  1  0
  5 29  1  0
 13 30  1  0
 15 31  1  0
 18 32  1  0
 23 33  1  0
 24 34  1  0
 25 35  1  0
 26 36  1  0
M  ISO  8  28  14  29  14  30  14  31  14  32  14  33  14  34  14  35  14
M  ISO  1  36  14
M  END
>  <minimizedAffinity>  (1) 
-6.11888933

>  <minimizedRMSD>  (1) 
2.60379863

$$$$
