
     RDKit          3D

 40 44  0  0  0  0  0  0  0  0999 V2000
   37.9310   27.4910   42.4240 C   0  0  0  0  0  0  0  0  0  0  0  0
   39.0120   28.3730   42.0970 C   0  0  0  0  0  0  0  0  0  0  0  0
   38.7690   29.5910   41.5160 C   0  0  0  0  0  0  0  0  0  0  0  0
   37.4440   29.8900   41.2800 N   0  0  0  0  0  0  0  0  0  0  0  0
   36.4230   29.0400   41.5980 C   0  0  0  0  0  0  0  0  0  0  0  0
   36.6700   27.8510   42.1640 N   0  0  0  0  0  0  0  0  0  0  0  0
   39.7540   30.5800   41.1470 C   0  0  0  0  0  0  0  0  0  0  0  0
   41.0300   30.7600   40.9340 N   0  0  0  0  0  0  0  0  0  0  0  0
   41.3080   31.9800   40.6270 O   0  0  0  0  0  0  0  0  0  0  0  0
   40.2430   32.7110   40.6110 C   0  0  0  0  0  0  0  0  0  0  0  0
   39.3080   31.8510   40.9270 N   0  0  0  0  0  0  0  0  0  0  0  0
   40.0290   34.0990   40.3330 N   0  0  0  0  0  0  0  0  0  0  0  0
   40.9920   34.9710   39.9760 C   0  0  0  0  0  0  0  0  0  0  0  0
   40.4440   36.1710   39.7940 N   0  0  0  0  0  0  0  0  0  0  0  0
   39.1080   36.0440   40.0430 C   0  0  0  0  0  0  0  0  0  0  0  0
   38.8740   34.7420   40.3770 N   0  0  0  0  0  0  0  0  0  0  0  0
   40.3410   27.8780   42.4050 C   0  0  0  0  0  0  0  0  0  0  0  0
   40.9550   26.9860   41.4470 C   0  0  0  0  0  0  0  0  0  0  0  0
   42.5990   26.6010   42.1990 S   0  0  0  0  0  0  0  0  0  0  0  0
   42.1420   27.7350   43.6900 C   0  0  0  0  0  0  0  0  0  0  0  0
   41.1160   28.1030   43.4320 N   0  0  0  0  0  0  0  0  0  0  0  0
   43.1390   27.8440   44.7200 N   0  0  0  0  0  0  0  0  0  0  0  0
   44.3940   28.5620   44.6100 C   0  0  0  0  0  0  0  0  0  0  0  0
   45.4480   27.6580   45.2170 C   0  0  0  0  0  0  0  0  0  0  0  0
   45.1840   27.3120   46.5210 O   0  0  0  0  0  0  0  0  0  0  0  0
   43.9000   27.6510   46.9600 C   0  0  0  0  0  0  0  0  0  0  0  0
   42.8490   27.1910   45.9620 C   0  0  0  0  0  0  0  0  0  0  0  0
   38.1390   26.5164   42.8896 H   0  0  0  0  0  0  0  0  0  0  0  0
   35.3847   29.3355   41.3867 H   0  0  0  0  0  0  0  0  0  0  0  0
   42.0585   34.7306   39.8545 H   0  0  0  0  0  0  0  0  0  0  0  0
   38.3568   36.8454   39.9850 H   0  0  0  0  0  0  0  0  0  0  0  0
   40.5412   26.6222   40.4949 H   0  0  0  0  0  0  0  0  0  0  0  0
   44.6268   28.7650   43.5542 H   0  0  0  0  0  0  0  0  0  0  0  0
   44.3495   29.5320   45.1269 H   0  0  0  0  0  0  0  0  0  0  0  0
   45.5061   26.7380   44.6169 H   0  0  0  0  0  0  0  0  0  0  0  0
   46.3959   28.2162   45.2142 H   0  0  0  0  0  0  0  0  0  0  0  0
   43.7115   27.1684   47.9304 H   0  0  0  0  0  0  0  0  0  0  0  0
   43.8383   28.7449   47.0579 H   0  0  0  0  0  0  0  0  0  0  0  0
   41.8454   27.4737   46.3125 H   0  0  0  0  0  0  0  0  0  0  0  0
   42.8692   26.0974   45.8455 H   0  0  0  0  0  0  0  0  0  0  0  0
  2 17  1  0
  2  1  2  0
  3  2  1  0
  4  3  2  0
  4  5  1  0
  5  6  2  0
  6  1  1  0
  7  3  1  0
  8  7  2  0
  9  8  1  0
 10  9  1  0
 10 11  2  0
 11  7  1  0
 12 16  1  0
 12 10  1  0
 13 12  1  0
 14 13  2  0
 14 15  1  0
 15 16  2  0
 17 21  1  0
 18 19  1  0
 18 17  2  0
 19 20  1  0
 20 22  1  0
 21 20  2  0
 22 27  1  0
 23 22  1  0
 23 24  1  0
 24 25  1  0
 25 26  1  0
 27 26  1  0
  1 28  1  0
  5 29  1  0
 13 30  1  0
 15 31  1  0
 18 32  1  0
 23 33  1  0
 23 34  1  0
 24 35  1  0
 24 36  1  0
 26 37  1  0
 26 38  1  0
 27 39  1  0
 27 40  1  0
M  ISO  8  28  14  29  14  30  14  31  14  32  14  33  13  34  13  35  13
M  ISO  5  36  13  37  13  38  13  39  13  40  13
M  END
>  <minimizedAffinity>  (1) 
-5.98057652

>  <minimizedRMSD>  (1) 
2.75716829

$$$$
