
     RDKit          3D

 35 39  0  0  0  0  0  0  0  0999 V2000
   38.3050   32.0000   40.4190 C   0  0  0  0  0  0  0  0  0  0  0  0
   39.7470   32.0970   40.4620 C   0  0  0  0  0  0  0  0  0  0  0  0
   40.3280   33.3080   40.2570 C   0  0  0  0  0  0  0  0  0  0  0  0
   39.4950   34.3750   40.0190 N   0  0  0  0  0  0  0  0  0  0  0  0
   38.1470   34.2590   39.9840 C   0  0  0  0  0  0  0  0  0  0  0  0
   37.5490   33.0800   40.1820 N   0  0  0  0  0  0  0  0  0  0  0  0
   41.7660   33.5620   40.2830 C   0  0  0  0  0  0  0  0  0  0  0  0
   42.8910   33.2580   39.7040 N   0  0  0  0  0  0  0  0  0  0  0  0
   43.8920   33.8590   40.2350 O   0  0  0  0  0  0  0  0  0  0  0  0
   43.5200   34.6120   41.2110 C   0  0  0  0  0  0  0  0  0  0  0  0
   42.2130   34.4260   41.2380 N   0  0  0  0  0  0  0  0  0  0  0  0
   44.2390   35.4640   42.1020 N   0  0  0  0  0  0  0  0  0  0  0  0
   45.5640   35.6810   42.0610 C   0  0  0  0  0  0  0  0  0  0  0  0
   45.8930   36.5350   43.0590 N   0  0  0  0  0  0  0  0  0  0  0  0
   44.7560   36.8360   43.7060 C   0  0  0  0  0  0  0  0  0  0  0  0
   43.7270   36.1790   43.1210 N   0  0  0  0  0  0  0  0  0  0  0  0
   40.4530   30.8580   40.7150 C   0  0  0  0  0  0  0  0  0  0  0  0
   40.7900   30.0410   39.5710 C   0  0  0  0  0  0  0  0  0  0  0  0
   41.6600   28.5900   40.3190 S   0  0  0  0  0  0  0  0  0  0  0  0
   41.3950   29.3810   42.0560 C   0  0  0  0  0  0  0  0  0  0  0  0
   40.8530   30.3290   41.8410 N   0  0  0  0  0  0  0  0  0  0  0  0
   41.9550   28.5690   43.2290 C   0  0  0  0  0  0  0  0  0  0  0  0
   43.0520   28.9660   43.9180 C   0  0  0  0  0  0  0  0  0  0  0  0
   43.4170   28.0990   44.9560 C   0  0  0  0  0  0  0  0  0  0  0  0
   42.6890   26.9890   45.1840 N   0  0  0  0  0  0  0  0  0  0  0  0
   41.6050   26.6650   44.4480 C   0  0  0  0  0  0  0  0  0  0  0  0
   41.2230   27.4900   43.4290 N   0  0  0  0  0  0  0  0  0  0  0  0
   37.8220   31.0255   40.5832 H   0  0  0  0  0  0  0  0  0  0  0  0
   37.5328   35.1505   39.7892 H   0  0  0  0  0  0  0  0  0  0  0  0
   46.2647   35.2388   41.3375 H   0  0  0  0  0  0  0  0  0  0  0  0
   44.6736   37.5086   44.5725 H   0  0  0  0  0  0  0  0  0  0  0  0
   40.5793   30.2357   38.5091 H   0  0  0  0  0  0  0  0  0  0  0  0
   43.6064   29.8867   43.6833 H   0  0  0  0  0  0  0  0  0  0  0  0
   44.2935   28.3235   45.5815 H   0  0  0  0  0  0  0  0  0  0  0  0
   41.0369   25.7487   44.6661 H   0  0  0  0  0  0  0  0  0  0  0  0
  1  2  2  0
  2 17  1  0
  3  7  1  0
  3  2  1  0
  4  3  2  0
  5  4  1  0
  5  6  2  0
  6  1  1  0
  7 11  1  0
  8  9  1  0
  8  7  2  0
  9 10  1  0
 10 11  2  0
 10 12  1  0
 12 16  1  0
 13 12  1  0
 13 14  2  0
 14 15  1  0
 16 15  2  0
 17 21  1  0
 18 19  1  0
 18 17  2  0
 19 20  1  0
 20 22  1  0
 21 20  2  0
 22 27  1  0
 22 23  2  0
 23 24  1  0
 24 25  2  0
 26 25  1  0
 27 26  2  0
  1 28  1  0
  5 29  1  0
 13 30  1  0
 15 31  1  0
 18 32  1  0
 23 33  1  0
 24 34  1  0
 26 35  1  0
M  ISO  8  28  14  29  14  30  14  31  14  32  14  33  14  34  14  35  14
M  END
>  <minimizedAffinity>  (1) 
-5.90762186

>  <minimizedRMSD>  (1) 
2.43926907

$$$$
