
     RDKit          3D

 41 45  0  0  0  0  0  0  0  0999 V2000
   37.1190   29.7900   41.9730 C   0  0  0  0  0  0  0  0  0  0  0  0
   38.5360   29.8240   41.7910 C   0  0  0  0  0  0  0  0  0  0  0  0
   39.0940   30.7590   40.9570 C   0  0  0  0  0  0  0  0  0  0  0  0
   38.2310   31.6220   40.3370 N   0  0  0  0  0  0  0  0  0  0  0  0
   36.8870   31.5770   40.5190 C   0  0  0  0  0  0  0  0  0  0  0  0
   36.3270   30.6600   41.3390 N   0  0  0  0  0  0  0  0  0  0  0  0
   39.2870   28.8140   42.5230 C   0  0  0  0  0  0  0  0  0  0  0  0
   38.5650   27.6440   42.9680 C   0  0  0  0  0  0  0  0  0  0  0  0
   39.8280   26.6130   43.8210 S   0  0  0  0  0  0  0  0  0  0  0  0
   41.1450   27.9940   43.4120 C   0  0  0  0  0  0  0  0  0  0  0  0
   40.5520   28.7690   42.8570 N   0  0  0  0  0  0  0  0  0  0  0  0
   42.5230   27.8280   43.8010 N   0  0  0  0  0  0  0  0  0  0  0  0
   43.2380   28.2480   44.9560 C   0  0  0  0  0  0  0  0  0  0  0  0
   43.7340   27.0080   45.6740 C   0  0  0  0  0  0  0  0  0  0  0  0
   44.3850   26.1170   44.7600 N   0  0  0  0  0  0  0  0  0  0  0  0
   44.5870   26.6870   43.4470 C   0  0  0  0  0  0  0  0  0  0  0  0
   43.3180   27.1180   42.7960 C   0  0  0  0  0  0  0  0  0  0  0  0
   40.5120   30.9080   40.6900 C   0  0  0  0  0  0  0  0  0  0  0  0
   41.5490   30.3210   40.1500 N   0  0  0  0  0  0  0  0  0  0  0  0
   42.6220   31.0250   40.2470 O   0  0  0  0  0  0  0  0  0  0  0  0
   42.3970   32.1370   40.8570 C   0  0  0  0  0  0  0  0  0  0  0  0
   41.1160   32.0560   41.1210 N   0  0  0  0  0  0  0  0  0  0  0  0
   43.2270   33.2320   41.2070 N   0  0  0  0  0  0  0  0  0  0  0  0
   44.5470   33.3270   40.9260 C   0  0  0  0  0  0  0  0  0  0  0  0
   45.0040   34.4870   41.4060 N   0  0  0  0  0  0  0  0  0  0  0  0
   43.9690   35.1390   41.9970 C   0  0  0  0  0  0  0  0  0  0  0  0
   42.8600   34.3390   41.8640 N   0  0  0  0  0  0  0  0  0  0  0  0
   36.6749   29.0389   42.6428 H   0  0  0  0  0  0  0  0  0  0  0  0
   36.2441   32.2971   39.9916 H   0  0  0  0  0  0  0  0  0  0  0  0
   37.4973   27.4195   42.8279 H   0  0  0  0  0  0  0  0  0  0  0  0
   44.0919   28.8748   44.6595 H   0  0  0  0  0  0  0  0  0  0  0  0
   42.5858   28.8381   45.6167 H   0  0  0  0  0  0  0  0  0  0  0  0
   44.4469   27.3056   46.4570 H   0  0  0  0  0  0  0  0  0  0  0  0
   42.8718   26.4892   46.1183 H   0  0  0  0  0  0  0  0  0  0  0  0
   45.3037   25.8630   45.1504 H   0  0  0  0  0  0  0  0  0  0  0  0
   45.2463   27.5623   43.5429 H   0  0  0  0  0  0  0  0  0  0  0  0
   45.0312   25.9045   42.8143 H   0  0  0  0  0  0  0  0  0  0  0  0
   43.5384   27.7870   41.9511 H   0  0  0  0  0  0  0  0  0  0  0  0
   42.7662   26.2475   42.4116 H   0  0  0  0  0  0  0  0  0  0  0  0
   45.1447   32.5742   40.3912 H   0  0  0  0  0  0  0  0  0  0  0  0
   44.0110   36.1219   42.4891 H   0  0  0  0  0  0  0  0  0  0  0  0
  2  1  2  0
  2  7  1  0
  3  2  1  0
  4  5  1  0
  4  3  2  0
  5  6  2  0
  6  1  1  0
  7 11  1  0
  7  8  2  0
  8  9  1  0
 10 12  1  0
 10  9  1  0
 11 10  2  0
 12 13  1  0
 13 14  1  0
 15 14  1  0
 16 15  1  0
 17 16  1  0
 17 12  1  0
 18  3  1  0
 18 22  1  0
 19 20  1  0
 19 18  2  0
 20 21  1  0
 21 22  2  0
 21 23  1  0
 23 27  1  0
 24 23  1  0
 24 25  2  0
 25 26  1  0
 27 26  2  0
  1 28  1  0
  5 29  1  0
  8 30  1  0
 13 31  1  0
 13 32  1  0
 14 33  1  0
 14 34  1  0
 15 35  1  0
 16 36  1  0
 16 37  1  0
 17 38  1  0
 17 39  1  0
 24 40  1  0
 26 41  1  0
M  ISO  8  28  14  29  14  30  14  31  13  32  13  33  13  34  13  35   5
M  ISO  6  36  13  37  13  38  13  39  13  40  14  41  14
M  END
>  <minimizedAffinity>  (1) 
-5.67652178

>  <minimizedRMSD>  (1) 
1.26765072

$$$$
