
     RDKit          3D

 40 44  0  0  0  0  0  0  0  0999 V2000
   36.5840   29.8570   41.3030 C   0  0  0  0  0  0  0  0  0  0  0  0
   37.4680   29.1150   40.4600 C   0  0  0  0  0  0  0  0  0  0  0  0
   38.0630   29.7290   39.3950 C   0  0  0  0  0  0  0  0  0  0  0  0
   37.7640   31.0510   39.1990 N   0  0  0  0  0  0  0  0  0  0  0  0
   36.9210   31.7390   40.0120 C   0  0  0  0  0  0  0  0  0  0  0  0
   36.3330   31.1500   41.0580 N   0  0  0  0  0  0  0  0  0  0  0  0
   38.9870   29.0940   38.4610 C   0  0  0  0  0  0  0  0  0  0  0  0
   39.2080   28.0090   37.7770 N   0  0  0  0  0  0  0  0  0  0  0  0
   40.2900   28.0770   37.0920 O   0  0  0  0  0  0  0  0  0  0  0  0
   40.8830   29.1980   37.2550 C   0  0  0  0  0  0  0  0  0  0  0  0
   40.0830   29.8170   38.0930 N   0  0  0  0  0  0  0  0  0  0  0  0
   42.0960   29.7550   36.7250 N   0  0  0  0  0  0  0  0  0  0  0  0
   42.9000   29.1340   35.8560 C   0  0  0  0  0  0  0  0  0  0  0  0
   43.9430   29.9520   35.5780 N   0  0  0  0  0  0  0  0  0  0  0  0
   43.7680   31.0820   36.2870 C   0  0  0  0  0  0  0  0  0  0  0  0
   42.6110   30.9500   37.0010 N   0  0  0  0  0  0  0  0  0  0  0  0
   37.6600   27.7230   40.8190 C   0  0  0  0  0  0  0  0  0  0  0  0
   36.8140   26.7380   40.1860 C   0  0  0  0  0  0  0  0  0  0  0  0
   37.3610   25.1290   40.8950 S   0  0  0  0  0  0  0  0  0  0  0  0
   38.6770   26.1040   41.9530 C   0  0  0  0  0  0  0  0  0  0  0  0
   38.4980   27.1600   41.6510 N   0  0  0  0  0  0  0  0  0  0  0  0
   39.6650   25.4770   42.9300 C   0  0  0  0  0  0  0  0  0  0  0  0
   39.9630   26.3700   44.0810 C   0  0  0  0  0  0  0  0  0  0  0  0
   41.4340   26.7040   43.9780 C   0  0  0  0  0  0  0  0  0  0  0  0
   41.9910   25.4830   43.2520 C   0  0  0  0  0  0  0  0  0  0  0  0
   40.9570   25.2690   42.1630 C   0  0  0  0  0  0  0  0  0  0  0  0
   36.1054   29.3619   42.1608 H   0  0  0  0  0  0  0  0  0  0  0  0
   36.7185   32.8004   39.8058 H   0  0  0  0  0  0  0  0  0  0  0  0
   42.7413   28.1291   35.4377 H   0  0  0  0  0  0  0  0  0  0  0  0
   44.4367   31.9554   36.2910 H   0  0  0  0  0  0  0  0  0  0  0  0
   36.0195   26.9107   39.4451 H   0  0  0  0  0  0  0  0  0  0  0  0
   39.2348   24.5456   43.3266 H   0  0  0  0  0  0  0  0  0  0  0  0
   39.3576   27.2865   44.0207 H   0  0  0  0  0  0  0  0  0  0  0  0
   39.7256   25.8854   45.0395 H   0  0  0  0  0  0  0  0  0  0  0  0
   41.5946   27.6227   43.3947 H   0  0  0  0  0  0  0  0  0  0  0  0
   41.9124   26.8966   44.9496 H   0  0  0  0  0  0  0  0  0  0  0  0
   42.9840   25.6891   42.8261 H   0  0  0  0  0  0  0  0  0  0  0  0
   42.1397   24.6083   43.9023 H   0  0  0  0  0  0  0  0  0  0  0  0
   41.0175   24.2533   41.7451 H   0  0  0  0  0  0  0  0  0  0  0  0
   41.0755   25.9333   41.2943 H   0  0  0  0  0  0  0  0  0  0  0  0
  2 17  1  0
  2  1  2  0
  3  2  1  0
  4  3  2  0
  4  5  1  0
  5  6  2  0
  6  1  1  0
  7  3  1  0
  8  7  2  0
  9 10  1  0
  9  8  1  0
 10 11  2  0
 11  7  1  0
 12 16  1  0
 12 10  1  0
 13 12  1  0
 14 13  2  0
 14 15  1  0
 15 16  2  0
 17 21  1  0
 18 17  2  0
 18 19  1  0
 19 20  1  0
 20 22  1  0
 21 20  2  0
 22 23  1  0
 24 23  1  0
 25 24  1  0
 26 22  1  0
 26 25  1  0
  1 27  1  0
  5 28  1  0
 13 29  1  0
 15 30  1  0
 18 31  1  0
 22 32  1  0
 23 33  1  0
 23 34  1  0
 24 35  1  0
 24 36  1  0
 25 37  1  0
 25 38  1  0
 26 39  1  0
 26 40  1  0
M  ISO  8  27  14  28  14  29  14  30  14  31  14  32  13  33  13  34  13
M  ISO  6  35  13  36  13  37  13  38  13  39  13  40  13
M  END
>  <minimizedAffinity>  (1) 
-5.48889256

>  <minimizedRMSD>  (1) 
4.10409403

$$$$
