
     RDKit          3D

 27 28  0  0  1  0  0  0  0  0999 V2000
   39.7230   29.4520   42.7230 N   0  0  0  0  0  0  0  0  0  0  0  0
   39.9230   30.8800   42.7070 C   0  0  0  0  0  0  0  0  0  0  0  0
   41.0440   31.0830   41.6770 C   0  0  0  0  0  0  0  0  0  0  0  0
   42.2370   30.6160   42.3010 N   0  0  0  0  0  0  0  0  0  0  0  0
   42.1900   29.3150   42.8550 C   0  0  0  0  0  0  0  0  0  0  0  0
   40.8760   28.6140   42.8690 C   0  0  2  0  0  0  0  0  0  0  0  0
   38.4650   28.8140   42.6030 C   0  0  0  0  0  0  0  0  0  0  0  0
   37.8720   28.1040   43.6650 C   0  0  0  0  0  0  0  0  0  0  0  0
   36.6300   27.5150   43.4360 C   0  0  0  0  0  0  0  0  0  0  0  0
   36.0630   27.6630   42.1960 N   0  0  0  0  0  0  0  0  0  0  0  0
   36.6610   28.3540   41.1930 C   0  0  0  0  0  0  0  0  0  0  0  0
   37.8490   28.9160   41.4150 N   0  0  0  0  0  0  0  0  0  0  0  0
   40.8490   27.4920   41.8750 C   0  0  0  0  0  0  0  0  0  0  0  0
   40.8880   26.3140   42.2400 O   0  0  0  0  0  0  0  0  0  0  0  0
   40.7790   27.7720   40.5260 O   0  0  0  0  0  0  0  0  0  0  0  0
   39.0055   31.4005   42.3950 H   0  0  0  0  0  0  0  0  0  0  0  0
   40.1781   31.2843   43.6977 H   0  0  0  0  0  0  0  0  0  0  0  0
   41.1387   32.1482   41.4194 H   0  0  0  0  0  0  0  0  0  0  0  0
   40.8375   30.5398   40.7430 H   0  0  0  0  0  0  0  0  0  0  0  0
   42.9859   30.6285   41.5940 H   0  0  0  0  0  0  0  0  0  0  0  0
   42.8900   28.6889   42.2823 H   0  0  0  0  0  0  0  0  0  0  0  0
   42.4402   29.4565   43.9168 H   0  0  0  0  0  0  0  0  0  0  0  0
   40.7976   28.2094   43.8889 H   0  0  0  0  0  0  0  0  0  0  0  0
   38.3718   28.0174   44.6411 H   0  0  0  0  0  0  0  0  0  0  0  0
   36.1188   26.9474   44.2275 H   0  0  0  0  0  0  0  0  0  0  0  0
   36.1729   28.4489   40.2118 H   0  0  0  0  0  0  0  0  0  0  0  0
   40.7470   28.7118   40.2165 H   0  0  0  0  0  0  0  0  0  0  0  0
  1  6  1  0
  2  1  1  0
  3  4  1  0
  3  2  1  0
  4  5  1  0
  5  6  1  0
  7  1  1  0
  7  8  2  0
  9  8  1  0
 10  9  2  0
 11 12  2  0
 11 10  1  0
 12  7  1  0
 13 14  2  0
 13  6  1  0
 15 13  1  0
  2 16  1  0
  2 17  1  0
  3 18  1  0
  3 19  1  0
  4 20  1  0
  5 21  1  0
  5 22  1  0
  6 23  1  1
  8 24  1  0
  9 25  1  0
 11 26  1  0
 15 27  1  0
M  ISO  8  16  13  17  13  18  13  19  13  20   5  21  13  22  13  23  13
M  ISO  4  24  14  25  14  26  14  27   3
M  END
>  <minimizedAffinity>  (1) 
-3.12270117

>  <minimizedRMSD>  (1) 
0.174527705

$$$$
