
     RDKit          3D

 38 42  0  0  0  0  0  0  0  0999 V2000
   37.4600   30.3460   40.7610 C   0  0  0  0  0  0  0  0  0  0  0  0
   38.8890   30.3910   40.7290 C   0  0  0  0  0  0  0  0  0  0  0  0
   39.5290   31.5720   40.4950 C   0  0  0  0  0  0  0  0  0  0  0  0
   38.7340   32.6580   40.3030 N   0  0  0  0  0  0  0  0  0  0  0  0
   37.3840   32.6140   40.3340 C   0  0  0  0  0  0  0  0  0  0  0  0
   36.7430   31.4540   40.5630 N   0  0  0  0  0  0  0  0  0  0  0  0
   40.9800   31.7370   40.4410 C   0  0  0  0  0  0  0  0  0  0  0  0
   42.0860   31.2070   40.0220 N   0  0  0  0  0  0  0  0  0  0  0  0
   43.1210   31.9100   40.3200 O   0  0  0  0  0  0  0  0  0  0  0  0
   42.7920   32.9750   40.9690 C   0  0  0  0  0  0  0  0  0  0  0  0
   41.4760   32.8630   41.0390 N   0  0  0  0  0  0  0  0  0  0  0  0
   43.5370   34.0500   41.5110 N   0  0  0  0  0  0  0  0  0  0  0  0
   44.8640   34.1920   41.4330 C   0  0  0  0  0  0  0  0  0  0  0  0
   45.2330   35.3400   42.0590 N   0  0  0  0  0  0  0  0  0  0  0  0
   44.1130   35.8980   42.5210 C   0  0  0  0  0  0  0  0  0  0  0  0
   43.0570   35.1010   42.1830 N   0  0  0  0  0  0  0  0  0  0  0  0
   39.5520   29.1180   40.9580 C   0  0  0  0  0  0  0  0  0  0  0  0
   39.8710   28.3100   39.8060 C   0  0  0  0  0  0  0  0  0  0  0  0
   40.6750   26.8290   40.5020 S   0  0  0  0  0  0  0  0  0  0  0  0
   40.4450   27.5570   42.2740 C   0  0  0  0  0  0  0  0  0  0  0  0
   39.9380   28.5240   42.0500 N   0  0  0  0  0  0  0  0  0  0  0  0
   40.9670   26.7590   43.7890 S   0  0  0  0  0  0  0  0  0  0  0  0
   42.3160   27.6870   44.4850 C   0  0  0  0  0  0  0  0  0  0  0  0
   42.9360   28.7710   43.8970 C   0  0  0  0  0  0  0  0  0  0  0  0
   43.9820   29.4130   44.5440 C   0  0  0  0  0  0  0  0  0  0  0  0
   44.3830   28.9480   45.7760 C   0  0  0  0  0  0  0  0  0  0  0  0
   43.7720   27.8610   46.3820 C   0  0  0  0  0  0  0  0  0  0  0  0
   42.7250   27.2210   45.7310 C   0  0  0  0  0  0  0  0  0  0  0  0
   36.9480   29.3910   40.9502 H   0  0  0  0  0  0  0  0  0  0  0  0
   36.8043   33.5345   40.1706 H   0  0  0  0  0  0  0  0  0  0  0  0
   45.5504   33.4887   40.9388 H   0  0  0  0  0  0  0  0  0  0  0  0
   44.0505   36.8427   43.0810 H   0  0  0  0  0  0  0  0  0  0  0  0
   39.6738   28.5362   38.7477 H   0  0  0  0  0  0  0  0  0  0  0  0
   42.5996   29.1271   42.9121 H   0  0  0  0  0  0  0  0  0  0  0  0
   44.4813   30.2771   44.0813 H   0  0  0  0  0  0  0  0  0  0  0  0
   45.2115   29.4530   46.2942 H   0  0  0  0  0  0  0  0  0  0  0  0
   44.1124   27.5094   47.3671 H   0  0  0  0  0  0  0  0  0  0  0  0
   42.2257   26.3572   46.1942 H   0  0  0  0  0  0  0  0  0  0  0  0
  2  1  2  0
  2 17  1  0
  3  2  1  0
  4  5  1  0
  4  3  2  0
  5  6  2  0
  6  1  1  0
  7  3  1  0
  7 11  1  0
  8  9  1  0
  8  7  2  0
  9 10  1  0
 10 11  2  0
 10 12  1  0
 12 16  1  0
 13 12  1  0
 13 14  2  0
 14 15  1  0
 16 15  2  0
 17 21  1  0
 18 19  1  0
 18 17  2  0
 19 20  1  0
 20 22  1  0
 21 20  2  0
 22 23  1  0
 23 28  1  0
 24 23  2  0
 24 25  1  0
 25 26  2  0
 26 27  1  0
 28 27  2  0
  1 29  1  0
  5 30  1  0
 13 31  1  0
 15 32  1  0
 18 33  1  0
 24 34  1  0
 25 35  1  0
 26 36  1  0
 27 37  1  0
 28 38  1  0
M  ISO  8  29  14  30  14  31  14  32  14  33  14  34  14  35  14  36  14
M  ISO  2  37  14  38  14
M  END
>  <minimizedAffinity>  (1) 
-5.40121651

>  <minimizedRMSD>  (1) 
1.29950416

$$$$
