
     RDKit          3D

 36 40  0  0  0  0  0  0  0  0999 V2000
   37.1720   29.9790   40.9620 C   0  0  0  0  0  0  0  0  0  0  0  0
   38.5890   30.0440   40.8630 C   0  0  0  0  0  0  0  0  0  0  0  0
   39.1910   31.2280   40.5670 C   0  0  0  0  0  0  0  0  0  0  0  0
   38.3760   32.2950   40.3810 N   0  0  0  0  0  0  0  0  0  0  0  0
   37.0260   32.2190   40.4770 C   0  0  0  0  0  0  0  0  0  0  0  0
   36.4280   31.0710   40.7660 N   0  0  0  0  0  0  0  0  0  0  0  0
   40.6380   31.4220   40.4380 C   0  0  0  0  0  0  0  0  0  0  0  0
   41.7340   30.8970   39.9670 N   0  0  0  0  0  0  0  0  0  0  0  0
   42.7630   31.6240   40.2010 O   0  0  0  0  0  0  0  0  0  0  0  0
   42.4550   32.6920   40.8410 C   0  0  0  0  0  0  0  0  0  0  0  0
   41.1430   32.5700   40.9890 N   0  0  0  0  0  0  0  0  0  0  0  0
   43.2090   33.7920   41.3260 N   0  0  0  0  0  0  0  0  0  0  0  0
   44.5390   33.9510   41.1680 C   0  0  0  0  0  0  0  0  0  0  0  0
   44.9190   35.1000   41.7500 N   0  0  0  0  0  0  0  0  0  0  0  0
   43.8150   35.6570   42.2720 C   0  0  0  0  0  0  0  0  0  0  0  0
   42.7480   34.8490   42.0130 N   0  0  0  0  0  0  0  0  0  0  0  0
   39.2930   28.7830   41.0990 C   0  0  0  0  0  0  0  0  0  0  0  0
   39.5750   27.9400   39.9760 C   0  0  0  0  0  0  0  0  0  0  0  0
   40.4400   26.5030   40.6710 S   0  0  0  0  0  0  0  0  0  0  0  0
   40.2760   27.3050   42.4350 C   0  0  0  0  0  0  0  0  0  0  0  0
   39.7360   28.2590   42.2110 N   0  0  0  0  0  0  0  0  0  0  0  0
   40.8900   26.5710   43.9520 S   0  0  0  0  0  0  0  0  0  0  0  0
   42.2570   27.5140   44.6200 C   0  0  0  0  0  0  0  0  0  0  0  0
   42.8990   28.5510   43.9720 C   0  0  0  0  0  0  0  0  0  0  0  0
   43.9400   29.1810   44.6210 C   0  0  0  0  0  0  0  0  0  0  0  0
   44.3710   28.8520   45.8460 N   0  0  0  0  0  0  0  0  0  0  0  0
   43.7200   27.8310   46.4530 C   0  0  0  0  0  0  0  0  0  0  0  0
   42.6880   27.1760   45.8580 N   0  0  0  0  0  0  0  0  0  0  0  0
   36.6848   29.0223   41.2018 H   0  0  0  0  0  0  0  0  0  0  0  0
   36.4185   33.1213   40.3131 H   0  0  0  0  0  0  0  0  0  0  0  0
   45.2067   33.2504   40.6452 H   0  0  0  0  0  0  0  0  0  0  0  0
   43.7773   36.6103   42.8196 H   0  0  0  0  0  0  0  0  0  0  0  0
   39.3223   28.1234   38.9212 H   0  0  0  0  0  0  0  0  0  0  0  0
   42.5882   28.8661   42.9649 H   0  0  0  0  0  0  0  0  0  0  0  0
   44.4485   30.0056   44.1000 H   0  0  0  0  0  0  0  0  0  0  0  0
   44.0366   27.5218   47.4600 H   0  0  0  0  0  0  0  0  0  0  0  0
  2  1  2  0
  2 17  1  0
  3  2  1  0
  4  5  1  0
  4  3  2  0
  5  6  2  0
  6  1  1  0
  7  3  1  0
  7 11  1  0
  8  9  1  0
  8  7  2  0
  9 10  1  0
 10 11  2  0
 10 12  1  0
 12 16  1  0
 13 12  1  0
 13 14  2  0
 14 15  1  0
 16 15  2  0
 17 21  1  0
 18 19  1  0
 18 17  2  0
 19 20  1  0
 20 22  1  0
 21 20  2  0
 22 23  1  0
 23 28  1  0
 24 23  2  0
 24 25  1  0
 25 26  2  0
 26 27  1  0
 28 27  2  0
  1 29  1  0
  5 30  1  0
 13 31  1  0
 15 32  1  0
 18 33  1  0
 24 34  1  0
 25 35  1  0
 27 36  1  0
M  ISO  8  29  14  30  14  31  14  32  14  33  14  34  14  35  14  36  14
M  END
>  <minimizedAffinity>  (1) 
-5.08270264

>  <minimizedRMSD>  (1) 
1.05367041

$$$$
