
     RDKit          3D

 17 18  0  0  0  0  0  0  0  0999 V2000
   35.5230   28.8680   40.7770 C   0  0  0  0  0  0  0  0  0  0  0  0
   36.5230   28.1790   41.4820 C   0  0  0  0  0  0  0  0  0  0  0  0
   37.6190   28.9220   41.9360 C   0  0  0  0  0  0  0  0  0  0  0  0
   37.6570   30.2620   41.6710 N   0  0  0  0  0  0  0  0  0  0  0  0
   36.6680   30.8950   40.9830 C   0  0  0  0  0  0  0  0  0  0  0  0
   35.6030   30.1960   40.5380 N   0  0  0  0  0  0  0  0  0  0  0  0
   38.6400   28.2160   42.6570 C   0  0  0  0  0  0  0  0  0  0  0  0
   38.4060   27.1540   43.4960 C   0  0  0  0  0  0  0  0  0  0  0  0
   39.5530   26.6940   44.0310 N   0  0  0  0  0  0  0  0  0  0  0  0
   40.5300   27.4870   43.5140 C   0  0  0  0  0  0  0  0  0  0  0  0
   39.9630   28.3960   42.6910 N   0  0  0  0  0  0  0  0  0  0  0  0
   34.6491   28.3108   40.4085 H   0  0  0  0  0  0  0  0  0  0  0  0
   36.4480   27.0978   41.6701 H   0  0  0  0  0  0  0  0  0  0  0  0
   36.7367   31.9757   40.7898 H   0  0  0  0  0  0  0  0  0  0  0  0
   37.4109   26.7338   43.7039 H   0  0  0  0  0  0  0  0  0  0  0  0
   41.6051   27.4020   43.7305 H   0  0  0  0  0  0  0  0  0  0  0  0
   40.4750   29.1203   42.1675 H   0  0  0  0  0  0  0  0  0  0  0  0
  1  2  2  0
  2  3  1  0
  3  7  1  0
  4  3  2  0
  5  4  1  0
  6  1  1  0
  6  5  2  0
  7 11  1  0
  7  8  2  0
  8  9  1  0
 10  9  2  0
 11 10  1  0
  1 12  1  0
  2 13  1  0
  5 14  1  0
  8 15  1  0
 10 16  1  0
 11 17  1  0
M  ISO  6  12  14  13  14  14  14  15  14  16  14  17   9
M  END
>  <minimizedAffinity>  (1) 
-3.44156218

>  <minimizedRMSD>  (1) 
3.83803129

$$$$
