
     RDKit          3D

 31 34  0  0  0  0  0  0  0  0999 V2000
   37.0260   27.7860   41.9380 C   0  0  0  0  0  0  0  0  0  0  0  0
   36.4780   27.3890   43.1350 C   0  0  0  0  0  0  0  0  0  0  0  0
   37.0520   28.0410   44.1670 N   0  0  0  0  0  0  0  0  0  0  0  0
   37.9720   28.8560   43.6070 C   0  0  0  0  0  0  0  0  0  0  0  0
   37.9470   28.6940   42.2690 N   0  0  0  0  0  0  0  0  0  0  0  0
   38.7850   29.3960   41.3610 C   0  0  0  0  0  0  0  0  0  0  0  0
   40.0120   28.8430   41.2190 N   0  0  0  0  0  0  0  0  0  0  0  0
   40.9130   29.3940   40.3970 C   0  0  0  0  0  0  0  0  0  0  0  0
   40.6150   30.5110   39.6900 N   0  0  0  0  0  0  0  0  0  0  0  0
   39.4010   31.0760   39.8170 C   0  0  0  0  0  0  0  0  0  0  0  0
   39.0380   32.2150   39.1240 C   0  0  0  0  0  0  0  0  0  0  0  0
   37.7790   32.7860   39.2650 C   0  0  0  0  0  0  0  0  0  0  0  0
   36.8870   32.1820   40.1250 C   0  0  0  0  0  0  0  0  0  0  0  0
   37.1900   31.0330   40.8530 C   0  0  0  0  0  0  0  0  0  0  0  0
   38.4570   30.5210   40.6630 C   0  0  0  0  0  0  0  0  0  0  0  0
   36.6080   25.4600   39.1030 C   0  0  0  0  0  0  0  0  0  0  0  0
   36.9960   25.9500   40.3660 C   0  0  0  0  0  0  0  0  0  0  0  0
   36.6340   27.2820   40.6550 C   0  0  0  0  0  0  0  0  0  0  0  0
   35.9480   27.9990   39.7200 N   0  0  0  0  0  0  0  0  0  0  0  0
   35.6010   27.4740   38.5180 C   0  0  0  0  0  0  0  0  0  0  0  0
   35.9330   26.2050   38.2130 N   0  0  0  0  0  0  0  0  0  0  0  0
   35.6788   26.6402   43.2373 H   0  0  0  0  0  0  0  0  0  0  0  0
   38.6351   29.5418   44.1547 H   0  0  0  0  0  0  0  0  0  0  0  0
   41.9072   28.9347   40.2941 H   0  0  0  0  0  0  0  0  0  0  0  0
   39.7647   32.6819   38.4429 H   0  0  0  0  0  0  0  0  0  0  0  0
   37.5025   33.6928   38.7071 H   0  0  0  0  0  0  0  0  0  0  0  0
   35.8884   32.6282   40.2422 H   0  0  0  0  0  0  0  0  0  0  0  0
   36.4655   30.5644   41.5353 H   0  0  0  0  0  0  0  0  0  0  0  0
   36.8687   24.4254   38.8355 H   0  0  0  0  0  0  0  0  0  0  0  0
   37.5497   25.3289   41.0855 H   0  0  0  0  0  0  0  0  0  0  0  0
   35.0473   28.0862   37.7910 H   0  0  0  0  0  0  0  0  0  0  0  0
  1  5  1  0
  1  2  2  0
  2  3  1  0
  4  3  2  0
  5  4  1  0
  6  5  1  0
  7  6  2  0
  8  7  1  0
  9 10  1  0
  9  8  2  0
 10 15  2  0
 11 12  2  0
 11 10  1  0
 12 13  1  0
 13 14  2  0
 15 14  1  0
 15  6  1  0
 16 17  2  0
 17 18  1  0
 18  1  1  0
 19 18  2  0
 20 19  1  0
 21 20  2  0
 21 16  1  0
  2 22  1  0
  4 23  1  0
  8 24  1  0
 11 25  1  0
 12 26  1  0
 13 27  1  0
 14 28  1  0
 16 29  1  0
 17 30  1  0
 20 31  1  0
M  ISO  8  22  14  23  14  24  14  25  14  26  14  27  14  28  14  29  14
M  ISO  2  30  14  31  14
M  END
>  <minimizedAffinity>  (1) 
-5.17961597

>  <minimizedRMSD>  (1) 
3.24125719

$$$$
