
     RDKit          3D

 33 34  0  0  0  0  0  0  0  0999 V2000
   39.7000   31.6990   40.8090 C   0  0  0  0  0  0  0  0  0  0  0  0
   38.5170   32.3890   40.3990 C   0  0  0  0  0  0  0  0  0  0  0  0
   37.3400   31.7140   40.6750 C   0  0  0  0  0  0  0  0  0  0  0  0
   37.3490   30.4990   41.2850 N   0  0  0  0  0  0  0  0  0  0  0  0
   38.5010   29.9040   41.6450 C   0  0  0  0  0  0  0  0  0  0  0  0
   39.6630   30.5040   41.4060 N   0  0  0  0  0  0  0  0  0  0  0  0
   38.6150   33.6570   39.7700 N   0  0  0  0  0  0  0  0  0  0  0  0
   39.1640   34.8070   40.3950 C   0  0  0  0  0  0  0  0  0  0  0  0
   38.8680   34.9680   41.6660 N   0  0  0  0  0  0  0  0  0  0  0  0
   39.9780   35.6500   39.5500 N   0  0  0  0  0  0  0  0  0  0  0  0
   39.1970   35.7830   42.1970 H   0  0  0  0  0  0  0  0  0  0  0  0
   38.5720   28.5720   42.3160 C   0  0  0  0  0  0  0  0  0  0  0  0
   37.5800   28.4610   43.4400 C   0  0  0  0  0  0  0  0  0  0  0  0
   36.4990   27.4480   43.1980 C   0  0  0  0  0  0  0  0  0  0  0  0
   36.9970   26.1230   42.7190 C   0  0  0  0  0  0  0  0  0  0  0  0
   38.3870   26.1650   42.1470 C   0  0  0  0  0  0  0  0  0  0  0  0
   38.4840   27.4470   41.3150 C   0  0  0  0  0  0  0  0  0  0  0  0
   40.6774   32.1694   40.6262 H   0  0  0  0  0  0  0  0  0  0  0  0
   36.3787   32.1697   40.3952 H   0  0  0  0  0  0  0  0  0  0  0  0
   38.2679   33.7482   38.8046 H   0  0  0  0  0  0  0  0  0  0  0  0
   40.4094   36.5022   39.9353 H   0  0  0  0  0  0  0  0  0  0  0  0
   40.1269   35.3988   38.5623 H   0  0  0  0  0  0  0  0  0  0  0  0
   39.5612   28.4784   42.7879 H   0  0  0  0  0  0  0  0  0  0  0  0
   38.1223   28.1775   44.3541 H   0  0  0  0  0  0  0  0  0  0  0  0
   37.0866   29.4401   43.5289 H   0  0  0  0  0  0  0  0  0  0  0  0
   35.9554   27.2916   44.1414 H   0  0  0  0  0  0  0  0  0  0  0  0
   35.8597   27.8527   42.3996 H   0  0  0  0  0  0  0  0  0  0  0  0
   36.9929   25.4239   43.5682 H   0  0  0  0  0  0  0  0  0  0  0  0
   36.3270   25.8047   41.9067 H   0  0  0  0  0  0  0  0  0  0  0  0
   39.1299   26.1827   42.9580 H   0  0  0  0  0  0  0  0  0  0  0  0
   38.5867   25.2772   41.5291 H   0  0  0  0  0  0  0  0  0  0  0  0
   39.3821   27.4262   40.6802 H   0  0  0  0  0  0  0  0  0  0  0  0
   37.6200   27.5644   40.6444 H   0  0  0  0  0  0  0  0  0  0  0  0
  1  6  2  0
  2  3  2  0
  2  1  1  0
  3  4  1  0
  4  5  2  0
  5 12  1  0
  6  5  1  0
  7  8  1  0
  7  2  1  0
  8  9  2  0
  9 11  1  0
 10  8  1  0
 12 13  1  0
 14 13  1  0
 15 14  1  0
 16 15  1  0
 17 16  1  0
 17 12  1  0
  1 18  1  0
  3 19  1  0
  7 20  1  0
 10 21  1  0
 10 22  1  0
 12 23  1  0
 13 24  1  0
 13 25  1  0
 14 26  1  0
 14 27  1  0
 15 28  1  0
 15 29  1  0
 16 30  1  0
 16 31  1  0
 17 32  1  0
 17 33  1  0
M  ISO  8  18  14  19  14  23  13  24  13  25  13  26  13  27  13  28  13
M  ISO  5  29  13  30  13  31  13  32  13  33  13
M  END
>  <minimizedAffinity>  (1) 
-5.40579939

>  <minimizedRMSD>  (1) 
3.9749372

$$$$
