
     RDKit          3D

 23 24  0  0  0  0  0  0  0  0999 V2000
   38.5820   28.1410   42.6290 C   0  0  0  0  0  0  0  0  0  0  0  0
   38.3580   27.1380   43.5530 C   0  0  0  0  0  0  0  0  0  0  0  0
   39.5340   26.7280   44.0850 N   0  0  0  0  0  0  0  0  0  0  0  0
   40.4870   27.4760   43.4900 C   0  0  0  0  0  0  0  0  0  0  0  0
   39.9060   28.3270   42.6120 N   0  0  0  0  0  0  0  0  0  0  0  0
   35.6360   28.6030   40.4360 C   0  0  0  0  0  0  0  0  0  0  0  0
   36.6540   27.9690   41.1550 C   0  0  0  0  0  0  0  0  0  0  0  0
   37.5320   28.7880   41.8890 C   0  0  0  0  0  0  0  0  0  0  0  0
   37.3660   30.1540   41.8750 N   0  0  0  0  0  0  0  0  0  0  0  0
   36.3460   30.7130   41.1500 C   0  0  0  0  0  0  0  0  0  0  0  0
   35.4900   29.9360   40.4360 N   0  0  0  0  0  0  0  0  0  0  0  0
   40.5840   29.2990   41.7710 C   0  0  0  0  0  0  0  0  0  0  0  0
   40.9140   30.5390   42.5670 C   0  0  0  0  0  0  0  0  0  0  0  0
   37.3702   26.7325   43.8173 H   0  0  0  0  0  0  0  0  0  0  0  0
   41.5668   27.4052   43.6876 H   0  0  0  0  0  0  0  0  0  0  0  0
   34.9336   27.9896   39.8526 H   0  0  0  0  0  0  0  0  0  0  0  0
   36.7641   26.8745   41.1472 H   0  0  0  0  0  0  0  0  0  0  0  0
   36.2186   31.8056   41.1461 H   0  0  0  0  0  0  0  0  0  0  0  0
   39.9292   29.5709   40.9300 H   0  0  0  0  0  0  0  0  0  0  0  0
   41.5176   28.8567   41.3931 H   0  0  0  0  0  0  0  0  0  0  0  0
   40.8535   30.3118   43.6416 H   0  0  0  0  0  0  0  0  0  0  0  0
   41.9324   30.8733   42.3196 H   0  0  0  0  0  0  0  0  0  0  0  0
   40.1965   31.3352   42.3196 H   0  0  0  0  0  0  0  0  0  0  0  0
  1  2  2  0
  2  3  1  0
  4  3  2  0
  5  1  1  0
  5  4  1  0
  6  7  2  0
  7  8  1  0
  8  1  1  0
  9  8  2  0
 10  9  1  0
 11  6  1  0
 11 10  2  0
 12 13  1  0
 12  5  1  0
  2 14  1  0
  4 15  1  0
  6 16  1  0
  7 17  1  0
 10 18  1  0
 12 19  1  0
 12 20  1  0
 13 21  1  0
 13 22  1  0
 13 23  1  0
M  ISO  8  14  14  15  14  16  14  17  14  18  14  19   8  20   8  21   8
M  ISO  2  22   8  23   8
M  END
>  <minimizedAffinity>  (1) 
-3.56203032

>  <minimizedRMSD>  (1) 
0.362783253

$$$$
