
     RDKit          3D

 36 40  0  0  0  0  0  0  0  0999 V2000
   40.5320   29.5490   41.9650 C   0  0  0  0  0  0  0  0  0  0  0  0
   40.8660   30.7750   42.4790 C   0  0  0  0  0  0  0  0  0  0  0  0
   41.4990   31.7300   41.6990 C   0  0  0  0  0  0  0  0  0  0  0  0
   41.7760   31.4240   40.4270 N   0  0  0  0  0  0  0  0  0  0  0  0
   41.4620   30.2250   39.8830 C   0  0  0  0  0  0  0  0  0  0  0  0
   40.8520   29.3210   40.6560 N   0  0  0  0  0  0  0  0  0  0  0  0
   41.7710   29.9310   38.5240 N   0  0  0  0  0  0  0  0  0  0  0  0
   41.0040   29.0980   37.7940 C   0  0  0  0  0  0  0  0  0  0  0  0
   41.4450   28.9390   36.5410 N   0  0  0  0  0  0  0  0  0  0  0  0
   42.5560   29.7050   36.4450 C   0  0  0  0  0  0  0  0  0  0  0  0
   43.5060   30.0320   35.5030 C   0  0  0  0  0  0  0  0  0  0  0  0
   44.5160   30.8590   35.7550 N   0  0  0  0  0  0  0  0  0  0  0  0
   44.6660   31.4270   36.9660 C   0  0  0  0  0  0  0  0  0  0  0  0
   43.7640   31.1520   37.9540 N   0  0  0  0  0  0  0  0  0  0  0  0
   42.7480   30.3150   37.6800 C   0  0  0  0  0  0  0  0  0  0  0  0
   38.5730   28.2040   42.6150 C   0  0  0  0  0  0  0  0  0  0  0  0
   38.4040   27.1080   43.4380 C   0  0  0  0  0  0  0  0  0  0  0  0
   39.5840   26.7300   43.9760 N   0  0  0  0  0  0  0  0  0  0  0  0
   40.4930   27.6000   43.4840 C   0  0  0  0  0  0  0  0  0  0  0  0
   39.8860   28.4930   42.6580 N   0  0  0  0  0  0  0  0  0  0  0  0
   35.5850   28.6350   40.4850 C   0  0  0  0  0  0  0  0  0  0  0  0
   36.6180   27.9960   41.1940 C   0  0  0  0  0  0  0  0  0  0  0  0
   37.5120   28.8560   41.8860 C   0  0  0  0  0  0  0  0  0  0  0  0
   37.3230   30.1960   41.8230 N   0  0  0  0  0  0  0  0  0  0  0  0
   36.3050   30.7540   41.1200 C   0  0  0  0  0  0  0  0  0  0  0  0
   35.4390   29.9640   40.4520 N   0  0  0  0  0  0  0  0  0  0  0  0
   40.6277   31.0048   43.5280 H   0  0  0  0  0  0  0  0  0  0  0  0
   41.7662   32.7127   42.1149 H   0  0  0  0  0  0  0  0  0  0  0  0
   40.1063   28.5992   38.1882 H   0  0  0  0  0  0  0  0  0  0  0  0
   43.4256   29.5899   34.4990 H   0  0  0  0  0  0  0  0  0  0  0  0
   45.5086   32.1075   37.1585 H   0  0  0  0  0  0  0  0  0  0  0  0
   37.4413   26.6113   43.6291 H   0  0  0  0  0  0  0  0  0  0  0  0
   41.5678   27.5876   43.7177 H   0  0  0  0  0  0  0  0  0  0  0  0
   34.8647   28.0136   39.9327 H   0  0  0  0  0  0  0  0  0  0  0  0
   36.7265   26.9015   41.2115 H   0  0  0  0  0  0  0  0  0  0  0  0
   36.1863   31.8473   41.0949 H   0  0  0  0  0  0  0  0  0  0  0  0
  1  2  2  0
  1 20  1  0
  3  2  1  0
  4  3  2  0
  5  4  1  0
  5  6  2  0
  6  1  1  0
  7  5  1  0
  8  7  1  0
  9  8  2  0
 10  9  1  0
 10 15  2  0
 11 12  2  0
 11 10  1  0
 12 13  1  0
 13 14  2  0
 15 14  1  0
 15  7  1  0
 16 20  1  0
 16 17  2  0
 17 18  1  0
 19 18  2  0
 20 19  1  0
 21 22  2  0
 22 23  1  0
 23 16  1  0
 24 23  2  0
 25 24  1  0
 26 21  1  0
 26 25  2  0
  2 27  1  0
  3 28  1  0
  8 29  1  0
 11 30  1  0
 13 31  1  0
 17 32  1  0
 19 33  1  0
 21 34  1  0
 22 35  1  0
 25 36  1  0
M  ISO  8  27  14  28  14  29  14  30  14  31  14  32  14  33  14  34  14
M  ISO  2  35  14  36  14
M  END
>  <minimizedAffinity>  (1) 
-5.65298367

>  <minimizedRMSD>  (1) 
0.167631775

$$$$
