
     RDKit          3D

 28 29  0  0  0  0  0  0  0  0999 V2000
   39.0960   30.5640   41.9240 C   0  0  0  0  0  0  0  0  0  0  0  0
   39.1940   31.1130   40.6040 C   0  0  0  0  0  0  0  0  0  0  0  0
   39.0900   30.1750   39.5780 C   0  0  0  0  0  0  0  0  0  0  0  0
   38.9130   28.8580   39.8580 N   0  0  0  0  0  0  0  0  0  0  0  0
   38.8290   28.4080   41.1200 C   0  0  0  0  0  0  0  0  0  0  0  0
   38.9200   29.2530   42.1390 N   0  0  0  0  0  0  0  0  0  0  0  0
   38.6430   26.9990   41.2530 N   0  0  0  0  0  0  0  0  0  0  0  0
   39.0530   26.4500   42.3950 C   0  0  0  0  0  0  0  0  0  0  0  0
   38.8590   25.0700   42.5000 C   0  0  0  0  0  0  0  0  0  0  0  0
   38.2720   24.4220   41.4320 C   0  0  0  0  0  0  0  0  0  0  0  0
   38.0620   23.0180   41.5120 N   0  0  0  0  0  0  0  0  0  0  0  0
   37.8750   25.0520   40.2910 N   0  0  0  0  0  0  0  0  0  0  0  0
   38.0670   26.3960   40.1960 C   0  0  0  0  0  0  0  0  0  0  0  0
   37.7220   27.0340   39.1700 O   0  0  0  0  0  0  0  0  0  0  0  0
   39.3790   32.5070   40.4490 N   0  0  0  0  0  0  0  0  0  0  0  0
   38.3730   33.4800   40.6810 C   0  0  0  0  0  0  0  0  0  0  0  0
   37.1610   33.1470   40.2930 N   0  0  0  0  0  0  0  0  0  0  0  0
   38.8060   34.6970   41.3070 N   0  0  0  0  0  0  0  0  0  0  0  0
   36.3590   33.7820   40.4380 H   0  0  0  0  0  0  0  0  0  0  0  0
   39.1675   31.2404   42.7885 H   0  0  0  0  0  0  0  0  0  0  0  0
   39.1520   30.5051   38.5305 H   0  0  0  0  0  0  0  0  0  0  0  0
   39.5127   27.0420   43.2001 H   0  0  0  0  0  0  0  0  0  0  0  0
   39.1635   24.5194   43.4023 H   0  0  0  0  0  0  0  0  0  0  0  0
   37.6254   22.5169   40.7251 H   0  0  0  0  0  0  0  0  0  0  0  0
   38.3465   22.5020   42.3568 H   0  0  0  0  0  0  0  0  0  0  0  0
   40.3066   32.8378   40.1474 H   0  0  0  0  0  0  0  0  0  0  0  0
   38.1259   35.4451   41.5039 H   0  0  0  0  0  0  0  0  0  0  0  0
   39.7968   34.8222   41.5593 H   0  0  0  0  0  0  0  0  0  0  0  0
  1  6  2  0
  2  1  1  0
  3  4  1  0
  3  2  2  0
  4  5  2  0
  5  7  1  0
  5  6  1  0
  7  8  1  0
  8  9  2  0
 10 11  1  0
 10  9  1  0
 12 10  2  0
 13 12  1  0
 13  7  1  0
 14 13  2  0
 15  2  1  0
 15 16  1  0
 16 18  1  0
 17 19  1  0
 17 16  2  0
  1 20  1  0
  3 21  1  0
  8 22  1  0
  9 23  1  0
 11 24  1  0
 11 25  1  0
 15 26  1  0
 18 27  1  0
 18 28  1  0
M  ISO  4  20  14  21  14  22  14  23  14
M  END
>  <minimizedAffinity>  (1) 
-5.23666954

>  <minimizedRMSD>  (1) 
3.20791912

$$$$
