
     RDKit          3D

 41 45  0  0  0  0  0  0  0  0999 V2000
   40.5370   29.6020   42.0560 C   0  0  0  0  0  0  0  0  0  0  0  0
   40.7510   30.8210   42.6370 C   0  0  0  0  0  0  0  0  0  0  0  0
   41.3610   31.8420   41.9340 C   0  0  0  0  0  0  0  0  0  0  0  0
   41.7380   31.6270   40.6830 N   0  0  0  0  0  0  0  0  0  0  0  0
   41.5430   30.4350   40.0660 C   0  0  0  0  0  0  0  0  0  0  0  0
   40.9610   29.5000   40.7810 N   0  0  0  0  0  0  0  0  0  0  0  0
   41.8840   30.0190   38.7030 C   0  0  0  0  0  0  0  0  0  0  0  0
   41.1370   29.0500   38.0220 C   0  0  0  0  0  0  0  0  0  0  0  0
   41.4220   28.6320   36.7470 C   0  0  0  0  0  0  0  0  0  0  0  0
   42.4900   29.1600   36.0550 C   0  0  0  0  0  0  0  0  0  0  0  0
   43.2570   30.1170   36.6810 C   0  0  0  0  0  0  0  0  0  0  0  0
   44.3150   30.6310   35.9750 C   0  0  0  0  0  0  0  0  0  0  0  0
   45.1300   31.5940   36.5350 C   0  0  0  0  0  0  0  0  0  0  0  0
   44.8110   31.9980   37.8380 C   0  0  0  0  0  0  0  0  0  0  0  0
   43.7480   31.4490   38.4800 C   0  0  0  0  0  0  0  0  0  0  0  0
   42.9200   30.4910   37.9530 C   0  0  0  0  0  0  0  0  0  0  0  0
   38.6470   28.1200   42.5310 C   0  0  0  0  0  0  0  0  0  0  0  0
   38.5180   26.9600   43.2840 C   0  0  0  0  0  0  0  0  0  0  0  0
   39.6920   26.6150   43.8510 N   0  0  0  0  0  0  0  0  0  0  0  0
   40.5610   27.5670   43.4520 C   0  0  0  0  0  0  0  0  0  0  0  0
   39.9310   28.4720   42.6570 N   0  0  0  0  0  0  0  0  0  0  0  0
   35.7530   28.5010   40.2850 C   0  0  0  0  0  0  0  0  0  0  0  0
   36.7980   27.8810   40.9930 C   0  0  0  0  0  0  0  0  0  0  0  0
   37.5760   28.7410   41.8020 C   0  0  0  0  0  0  0  0  0  0  0  0
   37.2880   30.0770   41.8540 N   0  0  0  0  0  0  0  0  0  0  0  0
   36.2640   30.6180   41.1470 C   0  0  0  0  0  0  0  0  0  0  0  0
   35.5020   29.8170   40.3640 N   0  0  0  0  0  0  0  0  0  0  0  0
   40.4337   30.9908   43.6765 H   0  0  0  0  0  0  0  0  0  0  0  0
   41.5312   32.8203   42.4071 H   0  0  0  0  0  0  0  0  0  0  0  0
   40.2755   28.5999   38.5370 H   0  0  0  0  0  0  0  0  0  0  0  0
   40.7908   27.8667   36.2717 H   0  0  0  0  0  0  0  0  0  0  0  0
   42.7230   28.8270   35.0329 H   0  0  0  0  0  0  0  0  0  0  0  0
   44.5154   30.2728   34.9544 H   0  0  0  0  0  0  0  0  0  0  0  0
   45.9835   32.0210   35.9880 H   0  0  0  0  0  0  0  0  0  0  0  0
   45.4226   32.7611   38.3417 H   0  0  0  0  0  0  0  0  0  0  0  0
   43.5346   31.7993   39.5007 H   0  0  0  0  0  0  0  0  0  0  0  0
   37.5808   26.3964   43.4024 H   0  0  0  0  0  0  0  0  0  0  0  0
   41.6247   27.6052   43.7297 H   0  0  0  0  0  0  0  0  0  0  0  0
   35.1141   27.8809   39.6390 H   0  0  0  0  0  0  0  0  0  0  0  0
   36.9965   26.8014   40.9223 H   0  0  0  0  0  0  0  0  0  0  0  0
   36.0547   31.6961   41.2090 H   0  0  0  0  0  0  0  0  0  0  0  0
  1  2  2  0
  1 21  1  0
  3  2  1  0
  4  3  2  0
  5  4  1  0
  5  6  2  0
  6  1  1  0
  7  5  1  0
  8  7  2  0
  9  8  1  0
 10 11  1  0
 10  9  2  0
 11 16  2  0
 12 13  2  0
 12 11  1  0
 13 14  1  0
 14 15  2  0
 16 15  1  0
 16  7  1  0
 17 21  1  0
 17 18  2  0
 18 19  1  0
 20 19  2  0
 21 20  1  0
 22 27  2  0
 22 23  1  0
 23 24  2  0
 24 25  1  0
 24 17  1  0
 26 25  2  0
 27 26  1  0
  2 28  1  0
  3 29  1  0
  8 30  1  0
  9 31  1  0
 10 32  1  0
 12 33  1  0
 13 34  1  0
 14 35  1  0
 15 36  1  0
 18 37  1  0
 20 38  1  0
 22 39  1  0
 23 40  1  0
 26 41  1  0
M  ISO  8  28  14  29  14  30  14  31  14  32  14  33  14  34  14  35  14
M  ISO  6  36  14  37  14  38  14  39  14  40  14  41  14
M  END
>  <minimizedAffinity>  (1) 
-5.36381483

>  <minimizedRMSD>  (1) 
0.400889039

$$$$
