
     RDKit          3D

 32 35  0  0  0  0  0  0  0  0999 V2000
   38.5500   28.2140   42.5710 C   0  0  0  0  0  0  0  0  0  0  0  0
   38.3630   27.1010   43.3600 C   0  0  0  0  0  0  0  0  0  0  0  0
   39.5300   26.6970   43.9150 N   0  0  0  0  0  0  0  0  0  0  0  0
   40.4500   27.5760   43.4590 C   0  0  0  0  0  0  0  0  0  0  0  0
   39.8630   28.4920   42.6490 N   0  0  0  0  0  0  0  0  0  0  0  0
   40.5260   29.5720   41.9880 C   0  0  0  0  0  0  0  0  0  0  0  0
   40.8860   30.7750   42.5570 C   0  0  0  0  0  0  0  0  0  0  0  0
   41.5240   31.7440   41.8200 C   0  0  0  0  0  0  0  0  0  0  0  0
   41.7900   31.5000   40.5440 N   0  0  0  0  0  0  0  0  0  0  0  0
   41.4540   30.3250   39.9380 C   0  0  0  0  0  0  0  0  0  0  0  0
   40.8360   29.4050   40.6840 N   0  0  0  0  0  0  0  0  0  0  0  0
   41.7740   30.1360   38.5660 N   0  0  0  0  0  0  0  0  0  0  0  0
   41.5730   29.0590   37.8590 N   0  0  0  0  0  0  0  0  0  0  0  0
   42.0040   29.2470   36.5850 C   0  0  0  0  0  0  0  0  0  0  0  0
   42.4990   30.5550   36.5510 C   0  0  0  0  0  0  0  0  0  0  0  0
   42.3350   31.0830   37.8210 C   0  0  0  0  0  0  0  0  0  0  0  0
   35.5810   28.7250   40.4240 C   0  0  0  0  0  0  0  0  0  0  0  0
   36.5990   28.0700   41.1320 C   0  0  0  0  0  0  0  0  0  0  0  0
   37.5030   28.8850   41.8430 C   0  0  0  0  0  0  0  0  0  0  0  0
   37.3370   30.2340   41.7990 N   0  0  0  0  0  0  0  0  0  0  0  0
   36.3350   30.8230   41.1000 C   0  0  0  0  0  0  0  0  0  0  0  0
   35.4610   30.0630   40.4140 N   0  0  0  0  0  0  0  0  0  0  0  0
   37.3937   26.6057   43.5184 H   0  0  0  0  0  0  0  0  0  0  0  0
   41.5210   27.5519   43.7089 H   0  0  0  0  0  0  0  0  0  0  0  0
   40.6592   30.9622   43.6170 H   0  0  0  0  0  0  0  0  0  0  0  0
   41.8081   32.7023   42.2792 H   0  0  0  0  0  0  0  0  0  0  0  0
   41.9709   28.5245   35.7562 H   0  0  0  0  0  0  0  0  0  0  0  0
   42.9356   31.0670   35.6808 H   0  0  0  0  0  0  0  0  0  0  0  0
   42.6158   32.0942   38.1505 H   0  0  0  0  0  0  0  0  0  0  0  0
   34.8558   28.1225   39.8574 H   0  0  0  0  0  0  0  0  0  0  0  0
   36.6877   26.9736   41.1325 H   0  0  0  0  0  0  0  0  0  0  0  0
   36.2368   31.9186   41.0937 H   0  0  0  0  0  0  0  0  0  0  0  0
  1  5  1  0
  1  2  2  0
  2  3  1  0
  4  3  2  0
  5  4  1  0
  6  7  2  0
  6  5  1  0
  8  7  1  0
  9  8  2  0
 10  9  1  0
 10 11  2  0
 11  6  1  0
 12 10  1  0
 13 12  1  0
 14 13  2  0
 15 14  1  0
 15 16  2  0
 16 12  1  0
 17 18  2  0
 18 19  1  0
 19  1  1  0
 20 19  2  0
 21 20  1  0
 22 17  1  0
 22 21  2  0
  2 23  1  0
  4 24  1  0
  7 25  1  0
  8 26  1  0
 14 27  1  0
 15 28  1  0
 16 29  1  0
 17 30  1  0
 18 31  1  0
 21 32  1  0
M  ISO  8  23  14  24  14  25  14  26  14  27  14  28  14  29  14  30  14
M  ISO  2  31  14  32  14
M  END
>  <minimizedAffinity>  (1) 
-4.86064625

>  <minimizedRMSD>  (1) 
0.183588654

$$$$
