
     RDKit          3D

 33 36  0  0  0  0  0  0  0  0999 V2000
   38.5960   28.1540   42.6080 C   0  0  0  0  0  0  0  0  0  0  0  0
   38.4370   27.0340   43.4050 C   0  0  0  0  0  0  0  0  0  0  0  0
   39.6110   26.6550   43.9500 N   0  0  0  0  0  0  0  0  0  0  0  0
   40.5080   27.5510   43.4860 C   0  0  0  0  0  0  0  0  0  0  0  0
   39.9060   28.4600   42.6750 N   0  0  0  0  0  0  0  0  0  0  0  0
   35.6390   28.6150   40.4640 C   0  0  0  0  0  0  0  0  0  0  0  0
   36.6620   27.9700   41.1670 C   0  0  0  0  0  0  0  0  0  0  0  0
   37.5420   28.8100   41.8830 C   0  0  0  0  0  0  0  0  0  0  0  0
   37.3430   30.1490   41.8430 N   0  0  0  0  0  0  0  0  0  0  0  0
   36.3290   30.7280   41.1410 C   0  0  0  0  0  0  0  0  0  0  0  0
   35.4760   29.9430   40.4500 N   0  0  0  0  0  0  0  0  0  0  0  0
   40.5530   29.5440   42.0140 C   0  0  0  0  0  0  0  0  0  0  0  0
   40.8590   30.7640   42.5930 C   0  0  0  0  0  0  0  0  0  0  0  0
   41.4930   31.7320   41.8270 C   0  0  0  0  0  0  0  0  0  0  0  0
   41.7960   31.4650   40.5490 N   0  0  0  0  0  0  0  0  0  0  0  0
   41.5010   30.2820   39.9850 C   0  0  0  0  0  0  0  0  0  0  0  0
   40.8890   29.3470   40.7230 N   0  0  0  0  0  0  0  0  0  0  0  0
   41.8500   30.0400   38.5900 C   0  0  0  0  0  0  0  0  0  0  0  0
   41.5660   28.7870   38.0410 C   0  0  0  0  0  0  0  0  0  0  0  0
   41.9130   28.5900   36.7050 C   0  0  0  0  0  0  0  0  0  0  0  0
   42.5000   29.6070   36.0230 N   0  0  0  0  0  0  0  0  0  0  0  0
   42.7540   30.8060   36.6090 C   0  0  0  0  0  0  0  0  0  0  0  0
   42.4320   31.0400   37.9040 N   0  0  0  0  0  0  0  0  0  0  0  0
   37.4788   26.5202   43.5721 H   0  0  0  0  0  0  0  0  0  0  0  0
   41.5803   27.5459   43.7311 H   0  0  0  0  0  0  0  0  0  0  0  0
   34.9307   27.9975   39.8922 H   0  0  0  0  0  0  0  0  0  0  0  0
   36.7738   26.8757   41.1622 H   0  0  0  0  0  0  0  0  0  0  0  0
   36.2072   31.8212   41.1375 H   0  0  0  0  0  0  0  0  0  0  0  0
   40.6034   30.9629   43.6442 H   0  0  0  0  0  0  0  0  0  0  0  0
   41.7445   32.7094   42.2646 H   0  0  0  0  0  0  0  0  0  0  0  0
   41.0907   27.9927   38.6352 H   0  0  0  0  0  0  0  0  0  0  0  0
   41.7146   27.6270   36.2118 H   0  0  0  0  0  0  0  0  0  0  0  0
   43.2309   31.6032   36.0199 H   0  0  0  0  0  0  0  0  0  0  0  0
  1  5  1  0
  1  2  2  0
  2  3  1  0
  4  3  2  0
  5  4  1  0
  6  7  2  0
  7  8  1  0
  8  1  1  0
  9  8  2  0
 10  9  1  0
 11  6  1  0
 11 10  2  0
 12 13  2  0
 12  5  1  0
 14 13  1  0
 15 14  2  0
 16 15  1  0
 16 17  2  0
 17 12  1  0
 18 16  1  0
 19 18  2  0
 20 19  1  0
 21 22  1  0
 21 20  2  0
 22 23  2  0
 23 18  1  0
  2 24  1  0
  4 25  1  0
  6 26  1  0
  7 27  1  0
 10 28  1  0
 13 29  1  0
 14 30  1  0
 19 31  1  0
 20 32  1  0
 22 33  1  0
M  ISO  8  24  14  25  14  26  14  27  14  28  14  29  14  30  14  31  14
M  ISO  2  32  14  33  14
M  END
>  <minimizedAffinity>  (1) 
-4.81020451

>  <minimizedRMSD>  (1) 
0.41227594

$$$$
