
     RDKit          3D

 38 41  0  0  0  0  0  0  0  0999 V2000
   38.6170   28.3330   42.5110 C   0  0  0  0  0  0  0  0  0  0  0  0
   38.5200   27.2310   43.3530 C   0  0  0  0  0  0  0  0  0  0  0  0
   39.7280   26.9070   43.8550 N   0  0  0  0  0  0  0  0  0  0  0  0
   40.5840   27.8110   43.3240 C   0  0  0  0  0  0  0  0  0  0  0  0
   39.9250   28.6690   42.5160 N   0  0  0  0  0  0  0  0  0  0  0  0
   35.5700   28.6350   40.4650 C   0  0  0  0  0  0  0  0  0  0  0  0
   36.6450   28.0480   41.1400 C   0  0  0  0  0  0  0  0  0  0  0  0
   37.5150   28.9270   41.8200 C   0  0  0  0  0  0  0  0  0  0  0  0
   37.2510   30.2470   41.7690 N   0  0  0  0  0  0  0  0  0  0  0  0
   36.1940   30.7770   41.1010 C   0  0  0  0  0  0  0  0  0  0  0  0
   35.3570   29.9540   40.4500 N   0  0  0  0  0  0  0  0  0  0  0  0
   40.5000   29.7430   41.7950 C   0  0  0  0  0  0  0  0  0  0  0  0
   41.1420   30.8400   42.3530 C   0  0  0  0  0  0  0  0  0  0  0  0
   41.6700   31.8340   41.5620 C   0  0  0  0  0  0  0  0  0  0  0  0
   41.5460   31.7150   40.2300 N   0  0  0  0  0  0  0  0  0  0  0  0
   40.9230   30.6530   39.6500 C   0  0  0  0  0  0  0  0  0  0  0  0
   40.4190   29.6990   40.4440 N   0  0  0  0  0  0  0  0  0  0  0  0
   40.7940   30.5350   38.1610 C   0  0  0  0  0  0  0  0  0  0  0  0
   40.6600   31.9360   37.5520 C   0  0  0  0  0  0  0  0  0  0  0  0
   42.0520   32.3420   37.1710 C   0  0  0  0  0  0  0  0  0  0  0  0
   42.6570   31.0540   36.6820 C   0  0  0  0  0  0  0  0  0  0  0  0
   42.1070   30.0260   37.6230 C   0  0  0  0  0  0  0  0  0  0  0  0
   37.5853   26.6967   43.5786 H   0  0  0  0  0  0  0  0  0  0  0  0
   41.6654   27.8424   43.5229 H   0  0  0  0  0  0  0  0  0  0  0  0
   34.8695   27.9826   39.9230 H   0  0  0  0  0  0  0  0  0  0  0  0
   36.8040   26.9595   41.1409 H   0  0  0  0  0  0  0  0  0  0  0  0
   36.0264   31.8641   41.0936 H   0  0  0  0  0  0  0  0  0  0  0  0
   41.2301   30.9158   43.4468 H   0  0  0  0  0  0  0  0  0  0  0  0
   42.1791   32.7013   42.0076 H   0  0  0  0  0  0  0  0  0  0  0  0
   39.9356   29.8889   37.9249 H   0  0  0  0  0  0  0  0  0  0  0  0
   40.0109   31.9088   36.6643 H   0  0  0  0  0  0  0  0  0  0  0  0
   40.2067   32.6466   38.2588 H   0  0  0  0  0  0  0  0  0  0  0  0
   42.0388   33.1004   36.3743 H   0  0  0  0  0  0  0  0  0  0  0  0
   42.6133   32.7980   37.9999 H   0  0  0  0  0  0  0  0  0  0  0  0
   42.3492   30.8436   35.6471 H   0  0  0  0  0  0  0  0  0  0  0  0
   43.7567   31.0764   36.6692 H   0  0  0  0  0  0  0  0  0  0  0  0
   41.9479   29.0783   37.0877 H   0  0  0  0  0  0  0  0  0  0  0  0
   42.8129   29.8494   38.4479 H   0  0  0  0  0  0  0  0  0  0  0  0
  1  5  1  0
  1  2  2  0
  2  3  1  0
  4  3  2  0
  5  4  1  0
  6  7  2  0
  7  8  1  0
  8  1  1  0
  9  8  2  0
 10  9  1  0
 11  6  1  0
 11 10  2  0
 12 13  2  0
 12  5  1  0
 14 13  1  0
 15 14  2  0
 16 15  1  0
 16 17  2  0
 17 12  1  0
 18 16  1  0
 19 18  1  0
 20 19  1  0
 21 20  1  0
 21 22  1  0
 22 18  1  0
  2 23  1  0
  4 24  1  0
  6 25  1  0
  7 26  1  0
 10 27  1  0
 13 28  1  0
 14 29  1  0
 18 30  1  0
 19 31  1  0
 19 32  1  0
 20 33  1  0
 20 34  1  0
 21 35  1  0
 21 36  1  0
 22 37  1  0
 22 38  1  0
M  ISO  8  23  14  24  14  25  14  26  14  27  14  28  14  29  14  30  13
M  ISO  8  31  13  32  13  33  13  34  13  35  13  36  13  37  13  38  13
M  END
>  <minimizedAffinity>  (1) 
-4.80721807

>  <minimizedRMSD>  (1) 
0.843163311

$$$$
