
     RDKit          3D

 32 35  0  0  0  0  0  0  0  0999 V2000
   38.5870   28.1570   42.6090 C   0  0  0  0  0  0  0  0  0  0  0  0
   38.4090   27.0350   43.4020 C   0  0  0  0  0  0  0  0  0  0  0  0
   39.5710   26.6570   43.9540 N   0  0  0  0  0  0  0  0  0  0  0  0
   40.4890   27.5450   43.5090 C   0  0  0  0  0  0  0  0  0  0  0  0
   39.8900   28.4600   42.6880 N   0  0  0  0  0  0  0  0  0  0  0  0
   35.6230   28.6300   40.4640 C   0  0  0  0  0  0  0  0  0  0  0  0
   36.6470   27.9840   41.1760 C   0  0  0  0  0  0  0  0  0  0  0  0
   37.5410   28.8060   41.8810 C   0  0  0  0  0  0  0  0  0  0  0  0
   37.3560   30.1600   41.8280 N   0  0  0  0  0  0  0  0  0  0  0  0
   36.3480   30.7430   41.1250 C   0  0  0  0  0  0  0  0  0  0  0  0
   35.4880   29.9750   40.4470 N   0  0  0  0  0  0  0  0  0  0  0  0
   40.5470   29.5390   42.0390 C   0  0  0  0  0  0  0  0  0  0  0  0
   40.8620   30.7540   42.5960 C   0  0  0  0  0  0  0  0  0  0  0  0
   41.5040   31.7200   41.8550 C   0  0  0  0  0  0  0  0  0  0  0  0
   41.8150   31.4450   40.5750 N   0  0  0  0  0  0  0  0  0  0  0  0
   41.5180   30.2630   40.0030 C   0  0  0  0  0  0  0  0  0  0  0  0
   40.8930   29.3280   40.7330 N   0  0  0  0  0  0  0  0  0  0  0  0
   41.8960   30.0530   38.6050 C   0  0  0  0  0  0  0  0  0  0  0  0
   41.6540   28.9470   37.8270 C   0  0  0  0  0  0  0  0  0  0  0  0
   42.0990   28.9620   36.5280 C   0  0  0  0  0  0  0  0  0  0  0  0
   42.7630   30.0660   36.0560 C   0  0  0  0  0  0  0  0  0  0  0  0
   42.7750   31.2150   37.5710 S   0  0  0  0  0  0  0  0  0  0  0  0
   37.4470   26.5246   43.5574 H   0  0  0  0  0  0  0  0  0  0  0  0
   41.5578   27.5330   43.7687 H   0  0  0  0  0  0  0  0  0  0  0  0
   34.9040   28.0186   39.8991 H   0  0  0  0  0  0  0  0  0  0  0  0
   36.7439   26.8883   41.1811 H   0  0  0  0  0  0  0  0  0  0  0  0
   36.2409   31.8377   41.1141 H   0  0  0  0  0  0  0  0  0  0  0  0
   40.5987   30.9572   43.6445 H   0  0  0  0  0  0  0  0  0  0  0  0
   41.7570   32.6942   42.2988 H   0  0  0  0  0  0  0  0  0  0  0  0
   41.1196   28.0752   38.2325 H   0  0  0  0  0  0  0  0  0  0  0  0
   41.9247   28.0966   35.8717 H   0  0  0  0  0  0  0  0  0  0  0  0
   43.1824   30.2419   35.0544 H   0  0  0  0  0  0  0  0  0  0  0  0
  1  5  1  0
  1  2  2  0
  2  3  1  0
  4  3  2  0
  5  4  1  0
  6  7  2  0
  7  8  1  0
  8  1  1  0
  9  8  2  0
 10  9  1  0
 11  6  1  0
 11 10  2  0
 12 13  2  0
 12  5  1  0
 14 13  1  0
 15 14  2  0
 16 15  1  0
 16 17  2  0
 17 12  1  0
 18 16  1  0
 19 18  2  0
 20 19  1  0
 21 20  2  0
 21 22  1  0
 22 18  1  0
  2 23  1  0
  4 24  1  0
  6 25  1  0
  7 26  1  0
 10 27  1  0
 13 28  1  0
 14 29  1  0
 19 30  1  0
 20 31  1  0
 21 32  1  0
M  ISO  8  23  14  24  14  25  14  26  14  27  14  28  14  29  14  30  14
M  ISO  2  31  14  32  14
M  END
>  <minimizedAffinity>  (1) 
-4.69178867

>  <minimizedRMSD>  (1) 
0.090035893

$$$$
