
     RDKit          3D

 28 30  0  0  0  0  0  0  0  0999 V2000
   38.5170   28.2220   42.5890 C   0  0  0  0  0  0  0  0  0  0  0  0
   38.3560   27.1020   43.3830 C   0  0  0  0  0  0  0  0  0  0  0  0
   39.5260   26.7140   43.9220 N   0  0  0  0  0  0  0  0  0  0  0  0
   40.4340   27.6010   43.4610 C   0  0  0  0  0  0  0  0  0  0  0  0
   39.8280   28.5150   42.6550 N   0  0  0  0  0  0  0  0  0  0  0  0
   35.5150   28.7110   40.5090 C   0  0  0  0  0  0  0  0  0  0  0  0
   36.5450   28.0510   41.2120 C   0  0  0  0  0  0  0  0  0  0  0  0
   37.4700   28.8860   41.8730 C   0  0  0  0  0  0  0  0  0  0  0  0
   37.3100   30.2320   41.7890 N   0  0  0  0  0  0  0  0  0  0  0  0
   36.3010   30.8140   41.0980 C   0  0  0  0  0  0  0  0  0  0  0  0
   35.4080   30.0430   40.4610 N   0  0  0  0  0  0  0  0  0  0  0  0
   40.4800   29.5880   42.0020 C   0  0  0  0  0  0  0  0  0  0  0  0
   40.9160   30.7560   42.5990 C   0  0  0  0  0  0  0  0  0  0  0  0
   41.5460   31.7440   41.8550 C   0  0  0  0  0  0  0  0  0  0  0  0
   41.7160   31.5280   40.5470 N   0  0  0  0  0  0  0  0  0  0  0  0
   41.3020   30.3960   39.9300 C   0  0  0  0  0  0  0  0  0  0  0  0
   40.6990   29.4640   40.6720 N   0  0  0  0  0  0  0  0  0  0  0  0
   41.5130   30.2060   38.4810 C   0  0  0  0  0  0  0  0  0  0  0  0
   40.6510   30.9220   37.6940 F   0  0  0  0  0  0  0  0  0  0  0  0
   41.3970   28.8630   38.1830 F   0  0  0  0  0  0  0  0  0  0  0  0
   42.8030   30.5830   38.1030 F   0  0  0  0  0  0  0  0  0  0  0  0
   37.3953   26.5936   43.5523 H   0  0  0  0  0  0  0  0  0  0  0  0
   41.5072   27.5868   43.7019 H   0  0  0  0  0  0  0  0  0  0  0  0
   34.7677   28.1035   39.9774 H   0  0  0  0  0  0  0  0  0  0  0  0
   36.6219   26.9541   41.2427 H   0  0  0  0  0  0  0  0  0  0  0  0
   36.2149   31.9100   41.0597 H   0  0  0  0  0  0  0  0  0  0  0  0
   40.7616   30.9044   43.6780 H   0  0  0  0  0  0  0  0  0  0  0  0
   41.8941   32.6748   42.3267 H   0  0  0  0  0  0  0  0  0  0  0  0
  1  5  1  0
  1  2  2  0
  2  3  1  0
  4  3  2  0
  5  4  1  0
  6  7  2  0
  7  8  1  0
  8  1  1  0
  9  8  2  0
 10  9  1  0
 11  6  1  0
 11 10  2  0
 12 13  2  0
 12  5  1  0
 14 13  1  0
 15 14  2  0
 16 15  1  0
 16 17  2  0
 17 12  1  0
 18 16  1  0
 19 18  1  0
 20 18  1  0
 21 18  1  0
  2 22  1  0
  4 23  1  0
  6 24  1  0
  7 25  1  0
 10 26  1  0
 13 27  1  0
 14 28  1  0
M  ISO  7  22  14  23  14  24  14  25  14  26  14  27  14  28  14
M  END
>  <minimizedAffinity>  (1) 
-4.33654261

>  <minimizedRMSD>  (1) 
0.298713177

$$$$
