
     RDKit          3D

 28 30  0  0  0  0  0  0  0  0999 V2000
   38.5530   28.1570   42.6270 C   0  0  0  0  0  0  0  0  0  0  0  0
   38.3820   27.0440   43.4390 C   0  0  0  0  0  0  0  0  0  0  0  0
   39.5440   26.6610   43.9880 N   0  0  0  0  0  0  0  0  0  0  0  0
   40.4560   27.5360   43.5210 C   0  0  0  0  0  0  0  0  0  0  0  0
   39.8720   28.4390   42.7030 N   0  0  0  0  0  0  0  0  0  0  0  0
   35.6100   28.6270   40.4530 C   0  0  0  0  0  0  0  0  0  0  0  0
   36.6310   27.9900   41.1740 C   0  0  0  0  0  0  0  0  0  0  0  0
   37.5210   28.8140   41.8980 C   0  0  0  0  0  0  0  0  0  0  0  0
   37.3350   30.1520   41.8510 N   0  0  0  0  0  0  0  0  0  0  0  0
   36.3280   30.7320   41.1370 C   0  0  0  0  0  0  0  0  0  0  0  0
   35.4770   29.9630   40.4450 N   0  0  0  0  0  0  0  0  0  0  0  0
   40.5320   29.5020   42.0360 C   0  0  0  0  0  0  0  0  0  0  0  0
   40.8510   30.7300   42.5780 C   0  0  0  0  0  0  0  0  0  0  0  0
   41.5010   31.7010   41.8300 C   0  0  0  0  0  0  0  0  0  0  0  0
   41.8070   31.4010   40.5620 N   0  0  0  0  0  0  0  0  0  0  0  0
   41.5130   30.2080   39.9930 C   0  0  0  0  0  0  0  0  0  0  0  0
   40.8850   29.2860   40.7300 N   0  0  0  0  0  0  0  0  0  0  0  0
   41.8620   29.8950   38.5800 C   0  0  0  0  0  0  0  0  0  0  0  0
   37.4185   26.5415   43.6099 H   0  0  0  0  0  0  0  0  0  0  0  0
   41.5271   27.5177   43.7709 H   0  0  0  0  0  0  0  0  0  0  0  0
   34.8989   28.0152   39.8785 H   0  0  0  0  0  0  0  0  0  0  0  0
   36.7342   26.8948   41.1755 H   0  0  0  0  0  0  0  0  0  0  0  0
   36.2152   31.8262   41.1294 H   0  0  0  0  0  0  0  0  0  0  0  0
   40.5847   30.9434   43.6237 H   0  0  0  0  0  0  0  0  0  0  0  0
   41.7551   32.6800   42.2625 H   0  0  0  0  0  0  0  0  0  0  0  0
   42.6808   29.1607   38.5586 H   0  0  0  0  0  0  0  0  0  0  0  0
   40.9819   29.4779   38.0687 H   0  0  0  0  0  0  0  0  0  0  0  0
   42.1812   30.8151   38.0687 H   0  0  0  0  0  0  0  0  0  0  0  0
  1  5  1  0
  1  2  2  0
  2  3  1  0
  4  3  2  0
  5  4  1  0
  6  7  2  0
  7  8  1  0
  8  1  1  0
  9  8  2  0
 10  9  1  0
 11  6  1  0
 11 10  2  0
 12 13  2  0
 12  5  1  0
 14 13  1  0
 15 14  2  0
 16 15  1  0
 16 17  2  0
 17 12  1  0
 18 16  1  0
  2 19  1  0
  4 20  1  0
  6 21  1  0
  7 22  1  0
 10 23  1  0
 13 24  1  0
 14 25  1  0
 18 26  1  0
 18 27  1  0
 18 28  1  0
M  ISO  8  19  14  20  14  21  14  22  14  23  14  24  14  25  14  26   8
M  ISO  2  27   8  28   8
M  END
>  <minimizedAffinity>  (1) 
-4.18092251

>  <minimizedRMSD>  (1) 
0.0264786743

$$$$
