
     RDKit          3D

 29 32  0  0  0  0  0  0  0  0999 V2000
   37.8430   30.6380   40.7340 C   0  0  0  0  0  0  0  0  0  0  0  0
   36.7490   31.4610   40.5670 C   0  0  0  0  0  0  0  0  0  0  0  0
   36.9310   32.6010   39.8240 C   0  0  0  0  0  0  0  0  0  0  0  0
   38.1370   32.9160   39.2710 N   0  0  0  0  0  0  0  0  0  0  0  0
   39.1950   32.0870   39.4520 C   0  0  0  0  0  0  0  0  0  0  0  0
   39.0190   30.9660   40.1820 N   0  0  0  0  0  0  0  0  0  0  0  0
   40.4660   32.4060   38.8770 N   0  0  0  0  0  0  0  0  0  0  0  0
   40.7930   32.1760   37.5980 C   0  0  0  0  0  0  0  0  0  0  0  0
   42.0750   32.6060   37.4130 N   0  0  0  0  0  0  0  0  0  0  0  0
   42.5270   33.1020   38.6000 C   0  0  0  0  0  0  0  0  0  0  0  0
   43.6880   33.6720   39.0940 C   0  0  0  0  0  0  0  0  0  0  0  0
   43.7800   34.0610   40.3800 N   0  0  0  0  0  0  0  0  0  0  0  0
   42.7730   33.9230   41.2460 C   0  0  0  0  0  0  0  0  0  0  0  0
   41.6070   33.3670   40.8200 N   0  0  0  0  0  0  0  0  0  0  0  0
   41.4830   32.9640   39.5210 C   0  0  0  0  0  0  0  0  0  0  0  0
   37.7770   28.3110   43.5700 C   0  0  0  0  0  0  0  0  0  0  0  0
   37.5070   27.0710   42.9490 C   0  0  0  0  0  0  0  0  0  0  0  0
   37.3540   27.0660   41.5650 C   0  0  0  0  0  0  0  0  0  0  0  0
   37.4700   28.2460   40.8830 N   0  0  0  0  0  0  0  0  0  0  0  0
   37.7280   29.4130   41.5070 C   0  0  0  0  0  0  0  0  0  0  0  0
   37.8770   29.4280   42.8330 N   0  0  0  0  0  0  0  0  0  0  0  0
   35.7728   31.2146   41.0100 H   0  0  0  0  0  0  0  0  0  0  0  0
   36.0793   33.2800   39.6703 H   0  0  0  0  0  0  0  0  0  0  0  0
   40.1445   31.7221   36.8342 H   0  0  0  0  0  0  0  0  0  0  0  0
   44.5500   33.8095   38.4246 H   0  0  0  0  0  0  0  0  0  0  0  0
   42.8848   34.2542   42.2890 H   0  0  0  0  0  0  0  0  0  0  0  0
   37.9057   28.3610   44.6613 H   0  0  0  0  0  0  0  0  0  0  0  0
   37.4209   26.1449   43.5364 H   0  0  0  0  0  0  0  0  0  0  0  0
   37.1434   26.1288   41.0291 H   0  0  0  0  0  0  0  0  0  0  0  0
  1 20  1  0
  2  1  2  0
  3  2  1  0
  4  5  1  0
  4  3  2  0
  5  6  2  0
  6  1  1  0
  7  5  1  0
  7 15  1  0
  8  7  1  0
  9  8  2  0
  9 10  1  0
 10 11  2  0
 10 15  1  0
 11 12  1  0
 12 13  2  0
 14 13  1  0
 15 14  2  0
 17 16  2  0
 18 17  1  0
 19 20  1  0
 19 18  2  0
 20 21  2  0
 21 16  1  0
  2 22  1  0
  3 23  1  0
  8 24  1  0
 11 25  1  0
 13 26  1  0
 16 27  1  0
 17 28  1  0
 18 29  1  0
M  ISO  8  22  14  23  14  24  14  25  14  26  14  27  14  28  14  29  14
M  END
>  <minimizedAffinity>  (1) 
-5.3434639

>  <minimizedRMSD>  (1) 
4.33371449

$$$$
