
     RDKit          3D

 32 35  0  0  0  0  0  0  0  0999 V2000
   37.1760   30.2000   40.1350 C   0  0  0  0  0  0  0  0  0  0  0  0
   37.2550   31.5840   40.2060 C   0  0  0  0  0  0  0  0  0  0  0  0
   37.2160   32.2620   38.9920 C   0  0  0  0  0  0  0  0  0  0  0  0
   37.1060   31.6210   37.7940 N   0  0  0  0  0  0  0  0  0  0  0  0
   37.0330   30.2680   37.7890 C   0  0  0  0  0  0  0  0  0  0  0  0
   37.0680   29.5650   38.9440 N   0  0  0  0  0  0  0  0  0  0  0  0
   36.9170   29.6110   36.4930 C   0  0  0  0  0  0  0  0  0  0  0  0
   36.9280   28.2480   36.3240 C   0  0  0  0  0  0  0  0  0  0  0  0
   36.8010   27.9830   34.9940 N   0  0  0  0  0  0  0  0  0  0  0  0
   36.7090   29.1630   34.3180 C   0  0  0  0  0  0  0  0  0  0  0  0
   36.5680   29.5110   32.9860 C   0  0  0  0  0  0  0  0  0  0  0  0
   36.5040   30.8480   32.6200 C   0  0  0  0  0  0  0  0  0  0  0  0
   36.5750   31.8620   33.5380 C   0  0  0  0  0  0  0  0  0  0  0  0
   36.7160   31.5150   34.8790 C   0  0  0  0  0  0  0  0  0  0  0  0
   36.7800   30.1820   35.2450 C   0  0  0  0  0  0  0  0  0  0  0  0
   38.0990   29.0340   43.4830 C   0  0  0  0  0  0  0  0  0  0  0  0
   37.2450   27.9110   43.6630 C   0  0  0  0  0  0  0  0  0  0  0  0
   36.3800   27.5890   42.6290 C   0  0  0  0  0  0  0  0  0  0  0  0
   36.3880   28.3590   41.4960 N   0  0  0  0  0  0  0  0  0  0  0  0
   37.2100   29.4140   41.3640 C   0  0  0  0  0  0  0  0  0  0  0  0
   38.0540   29.7420   42.3520 N   0  0  0  0  0  0  0  0  0  0  0  0
   37.3433   32.1136   41.1661 H   0  0  0  0  0  0  0  0  0  0  0  0
   37.2764   33.3603   38.9990 H   0  0  0  0  0  0  0  0  0  0  0  0
   37.0230   27.4996   37.1245 H   0  0  0  0  0  0  0  0  0  0  0  0
   36.7782   27.0451   34.5689 H   0  0  0  0  0  0  0  0  0  0  0  0
   36.5066   28.7271   32.2167 H   0  0  0  0  0  0  0  0  0  0  0  0
   36.3924   31.1023   31.5556 H   0  0  0  0  0  0  0  0  0  0  0  0
   36.5224   32.9156   33.2262 H   0  0  0  0  0  0  0  0  0  0  0  0
   36.7765   32.3001   35.6471 H   0  0  0  0  0  0  0  0  0  0  0  0
   38.8006   29.3208   44.2802 H   0  0  0  0  0  0  0  0  0  0  0  0
   37.2701   27.3191   44.5898 H   0  0  0  0  0  0  0  0  0  0  0  0
   35.6987   26.7298   42.7167 H   0  0  0  0  0  0  0  0  0  0  0  0
  1  2  2  0
  1 20  1  0
  3  2  1  0
  4  3  2  0
  5  4  1  0
  5  6  2  0
  6  1  1  0
  7  5  1  0
  8  7  2  0
  9  8  1  0
 10  9  1  0
 10 15  2  0
 11 10  1  0
 12 11  2  0
 12 13  1  0
 13 14  2  0
 14 15  1  0
 15  7  1  0
 16 17  2  0
 18 17  1  0
 19 18  2  0
 20 19  1  0
 20 21  2  0
 21 16  1  0
  2 22  1  0
  3 23  1  0
  8 24  1  0
  9 25  1  0
 11 26  1  0
 12 27  1  0
 13 28  1  0
 14 29  1  0
 16 30  1  0
 17 31  1  0
 18 32  1  0
M  ISO  8  22  14  23  14  24  14  25   9  26  14  27  14  28  14  29  14
M  ISO  3  30  14  31  14  32  14
M  END
>  <minimizedAffinity>  (1) 
-5.07163239

>  <minimizedRMSD>  (1) 
1.15911126

$$$$
