
     RDKit          3D

 31 34  0  0  0  0  0  0  0  0999 V2000
   37.1360   30.1250   40.2590 C   0  0  0  0  0  0  0  0  0  0  0  0
   37.2340   31.5050   40.3140 C   0  0  0  0  0  0  0  0  0  0  0  0
   37.2000   32.1850   39.1120 C   0  0  0  0  0  0  0  0  0  0  0  0
   37.0780   31.5580   37.9300 N   0  0  0  0  0  0  0  0  0  0  0  0
   36.9820   30.1900   37.9020 C   0  0  0  0  0  0  0  0  0  0  0  0
   37.0120   29.5050   39.0710 N   0  0  0  0  0  0  0  0  0  0  0  0
   36.8480   29.4780   36.6590 N   0  0  0  0  0  0  0  0  0  0  0  0
   36.7930   28.1310   36.4650 C   0  0  0  0  0  0  0  0  0  0  0  0
   36.6660   27.8950   35.1430 N   0  0  0  0  0  0  0  0  0  0  0  0
   36.6430   29.0730   34.5190 C   0  0  0  0  0  0  0  0  0  0  0  0
   36.5370   29.5090   33.2180 C   0  0  0  0  0  0  0  0  0  0  0  0
   36.5390   30.8250   32.8550 N   0  0  0  0  0  0  0  0  0  0  0  0
   36.6550   31.7680   33.8350 C   0  0  0  0  0  0  0  0  0  0  0  0
   36.7610   31.3850   35.1150 N   0  0  0  0  0  0  0  0  0  0  0  0
   36.7550   30.0830   35.4510 C   0  0  0  0  0  0  0  0  0  0  0  0
   38.0570   28.9710   43.6150 C   0  0  0  0  0  0  0  0  0  0  0  0
   37.2010   27.8380   43.7830 C   0  0  0  0  0  0  0  0  0  0  0  0
   36.3420   27.5100   42.7460 C   0  0  0  0  0  0  0  0  0  0  0  0
   36.3500   28.2800   41.6110 N   0  0  0  0  0  0  0  0  0  0  0  0
   37.1640   29.3350   41.4860 C   0  0  0  0  0  0  0  0  0  0  0  0
   38.0090   29.6790   42.4750 N   0  0  0  0  0  0  0  0  0  0  0  0
   36.4150   28.5600   32.1730 N   0  0  0  0  0  0  0  0  0  0  0  0
   37.3344   32.0362   41.2720 H   0  0  0  0  0  0  0  0  0  0  0  0
   37.2757   33.2823   39.1230 H   0  0  0  0  0  0  0  0  0  0  0  0
   36.8436   27.3652   37.2530 H   0  0  0  0  0  0  0  0  0  0  0  0
   36.6615   32.8369   33.5755 H   0  0  0  0  0  0  0  0  0  0  0  0
   38.7521   29.2615   44.4165 H   0  0  0  0  0  0  0  0  0  0  0  0
   37.2236   27.2439   44.7085 H   0  0  0  0  0  0  0  0  0  0  0  0
   35.6654   26.6469   42.8318 H   0  0  0  0  0  0  0  0  0  0  0  0
   36.3351   28.8769   31.1962 H   0  0  0  0  0  0  0  0  0  0  0  0
   36.4062   27.5532   32.3901 H   0  0  0  0  0  0  0  0  0  0  0  0
  1  2  2  0
  1 20  1  0
  3  2  1  0
  4  3  2  0
  5  4  1  0
  5  6  2  0
  6  1  1  0
  7  5  1  0
  8  7  1  0
  9  8  2  0
 10  9  1  0
 10 15  2  0
 11 10  1  0
 12 11  2  0
 12 13  1  0
 13 14  2  0
 14 15  1  0
 15  7  1  0
 16 17  2  0
 18 17  1  0
 19 18  2  0
 20 19  1  0
 20 21  2  0
 21 16  1  0
 22 11  1  0
  2 23  1  0
  3 24  1  0
  8 25  1  0
 13 26  1  0
 16 27  1  0
 17 28  1  0
 18 29  1  0
 22 30  1  0
 22 31  1  0
M  ISO  7  23  14  24  14  25  14  26  14  27  14  28  14  29  14
M  END
>  <minimizedAffinity>  (1) 
-5.00616884

>  <minimizedRMSD>  (1) 
1.05519593

$$$$
