
     RDKit          3D

 32 34  0  0  0  0  0  0  0  0999 V2000
   37.2010   30.3020   40.4370 C   0  0  0  0  0  0  0  0  0  0  0  0
   37.1040   31.6670   40.6190 C   0  0  0  0  0  0  0  0  0  0  0  0
   37.1180   32.4690   39.5050 C   0  0  0  0  0  0  0  0  0  0  0  0
   37.2270   31.9400   38.2530 N   0  0  0  0  0  0  0  0  0  0  0  0
   37.3230   30.5930   38.0970 C   0  0  0  0  0  0  0  0  0  0  0  0
   37.3080   29.7990   39.1990 N   0  0  0  0  0  0  0  0  0  0  0  0
   37.4340   30.0780   36.7900 N   0  0  0  0  0  0  0  0  0  0  0  0
   38.1700   28.8390   36.6200 C   0  0  0  0  0  0  0  0  0  0  0  0
   37.2650   27.9180   35.8290 C   0  0  0  0  0  0  0  0  0  0  0  0
   37.1540   28.5310   34.5090 N   0  0  0  0  0  0  0  0  0  0  0  0
   36.3550   29.7320   34.6070 C   0  0  0  0  0  0  0  0  0  0  0  0
   36.8660   30.7040   35.6350 C   0  0  0  0  0  0  0  0  0  0  0  0
   38.0160   28.8000   43.6770 C   0  0  0  0  0  0  0  0  0  0  0  0
   37.1300   27.6790   43.7170 C   0  0  0  0  0  0  0  0  0  0  0  0
   36.2870   27.4740   42.6360 C   0  0  0  0  0  0  0  0  0  0  0  0
   36.3520   28.3570   41.6000 N   0  0  0  0  0  0  0  0  0  0  0  0
   37.1900   29.4050   41.5800 C   0  0  0  0  0  0  0  0  0  0  0  0
   38.0160   29.6200   42.6160 N   0  0  0  0  0  0  0  0  0  0  0  0
   37.0180   32.0992   41.6269 H   0  0  0  0  0  0  0  0  0  0  0  0
   37.0398   33.5597   39.6247 H   0  0  0  0  0  0  0  0  0  0  0  0
   39.1040   29.0224   36.0686 H   0  0  0  0  0  0  0  0  0  0  0  0
   38.4436   28.3979   37.5898 H   0  0  0  0  0  0  0  0  0  0  0  0
   37.7084   26.9143   35.7521 H   0  0  0  0  0  0  0  0  0  0  0  0
   36.2829   27.7951   36.3090 H   0  0  0  0  0  0  0  0  0  0  0  0
   36.7042   27.8703   33.8593 H   0  0  0  0  0  0  0  0  0  0  0  0
   36.3519   30.2303   33.6264 H   0  0  0  0  0  0  0  0  0  0  0  0
   35.3455   29.4272   34.9201 H   0  0  0  0  0  0  0  0  0  0  0  0
   37.6381   31.3313   35.1655 H   0  0  0  0  0  0  0  0  0  0  0  0
   36.0009   31.2890   35.9806 H   0  0  0  0  0  0  0  0  0  0  0  0
   38.6990   28.9903   44.5180 H   0  0  0  0  0  0  0  0  0  0  0  0
   37.1175   26.9984   44.5811 H   0  0  0  0  0  0  0  0  0  0  0  0
   35.5875   26.6253   42.6150 H   0  0  0  0  0  0  0  0  0  0  0  0
  1  2  2  0
  1 17  1  0
  3  2  1  0
  4  3  2  0
  5  4  1  0
  5  6  2  0
  6  1  1  0
  7  5  1  0
  8  7  1  0
  9  8  1  0
 10 11  1  0
 10  9  1  0
 11 12  1  0
 12  7  1  0
 13 14  2  0
 15 14  1  0
 16 15  2  0
 17 16  1  0
 17 18  2  0
 18 13  1  0
  2 19  1  0
  3 20  1  0
  8 21  1  0
  8 22  1  0
  9 23  1  0
  9 24  1  0
 10 25  1  0
 11 26  1  0
 11 27  1  0
 12 28  1  0
 12 29  1  0
 13 30  1  0
 14 31  1  0
 15 32  1  0
M  ISO  8  19  14  20  14  21  13  22  13  23  13  24  13  25   5  26  13
M  ISO  6  27  13  28  13  29  13  30  14  31  14  32  14
M  END
>  <minimizedAffinity>  (1) 
-4.82496071

>  <minimizedRMSD>  (1) 
0.330106199

$$$$
