
     RDKit          3D

 26 26  0  0  0  0  0  0  0  0999 V2000
   39.0360   29.6890   42.2720 C   0  0  0  0  0  0  0  0  0  0  0  0
   38.1560   29.3820   41.2050 C   0  0  0  0  0  0  0  0  0  0  0  0
   37.8350   28.0280   41.0740 C   0  0  0  0  0  0  0  0  0  0  0  0
   38.3630   27.1200   41.9410 N   0  0  0  0  0  0  0  0  0  0  0  0
   39.1900   27.4740   42.9290 C   0  0  0  0  0  0  0  0  0  0  0  0
   39.5240   28.7590   43.0930 N   0  0  0  0  0  0  0  0  0  0  0  0
   37.6770   30.4280   40.3730 N   0  0  0  0  0  0  0  0  0  0  0  0
   36.6530   31.3360   40.7370 C   0  0  0  0  0  0  0  0  0  0  0  0
   35.6560   30.8310   41.4260 N   0  0  0  0  0  0  0  0  0  0  0  0
   36.8280   32.6980   40.3080 N   0  0  0  0  0  0  0  0  0  0  0  0
   34.8650   31.4130   41.7380 H   0  0  0  0  0  0  0  0  0  0  0  0
   39.7640   26.4710   43.8750 C   0  0  0  0  0  0  0  0  0  0  0  0
   39.7300   25.0630   43.3200 C   0  0  0  0  0  0  0  0  0  0  0  0
   41.1620   26.8730   44.2270 C   0  0  0  0  0  0  0  0  0  0  0  0
   39.3285   30.7376   42.4294 H   0  0  0  0  0  0  0  0  0  0  0  0
   37.1579   27.6967   40.2729 H   0  0  0  0  0  0  0  0  0  0  0  0
   38.1033   30.5336   39.4413 H   0  0  0  0  0  0  0  0  0  0  0  0
   36.1179   33.4067   40.5413 H   0  0  0  0  0  0  0  0  0  0  0  0
   37.6634   32.9644   39.7676 H   0  0  0  0  0  0  0  0  0  0  0  0
   39.1397   26.4590   44.7806 H   0  0  0  0  0  0  0  0  0  0  0  0
   39.7126   24.3419   44.1505 H   0  0  0  0  0  0  0  0  0  0  0  0
   38.8285   24.9337   42.7031 H   0  0  0  0  0  0  0  0  0  0  0  0
   40.6242   24.8903   42.7031 H   0  0  0  0  0  0  0  0  0  0  0  0
   41.2701   26.9041   45.3212 H   0  0  0  0  0  0  0  0  0  0  0  0
   41.8699   26.1420   43.8092 H   0  0  0  0  0  0  0  0  0  0  0  0
   41.3735   27.8684   43.8092 H   0  0  0  0  0  0  0  0  0  0  0  0
  1  6  2  0
  2  1  1  0
  3  2  2  0
  3  4  1  0
  4  5  2  0
  5  6  1  0
  5 12  1  0
  7  8  1  0
  7  2  1  0
  8  9  2  0
  9 11  1  0
 10  8  1  0
 12 14  1  0
 13 12  1  0
  1 15  1  0
  3 16  1  0
  7 17  1  0
 10 18  1  0
 10 19  1  0
 12 20  1  0
 13 21  1  0
 13 22  1  0
 13 23  1  0
 14 24  1  0
 14 25  1  0
 14 26  1  0
M  ISO  8  15  14  16  14  20   8  21   8  22   8  23   8  24   8  25   8
M  ISO  1  26   8
M  END
>  <minimizedAffinity>  (1) 
-4.86817837

>  <minimizedRMSD>  (1) 
0.751642704

$$$$
