
     RDKit          3D

 26 28  0  0  0  0  0  0  0  0999 V2000
   37.1350   30.1090   40.4220 C   0  0  0  0  0  0  0  0  0  0  0  0
   37.5500   31.4260   40.4480 C   0  0  0  0  0  0  0  0  0  0  0  0
   37.4590   32.1190   39.2480 C   0  0  0  0  0  0  0  0  0  0  0  0
   36.9930   31.5530   38.0980 N   0  0  0  0  0  0  0  0  0  0  0  0
   36.5990   30.2570   38.1270 C   0  0  0  0  0  0  0  0  0  0  0  0
   36.6780   29.5620   39.2840 N   0  0  0  0  0  0  0  0  0  0  0  0
   38.1320   28.8830   43.7300 C   0  0  0  0  0  0  0  0  0  0  0  0
   37.2860   27.7690   43.9130 C   0  0  0  0  0  0  0  0  0  0  0  0
   36.3800   27.4610   42.8840 C   0  0  0  0  0  0  0  0  0  0  0  0
   36.3750   28.2560   41.7710 N   0  0  0  0  0  0  0  0  0  0  0  0
   37.1940   29.3060   41.6310 C   0  0  0  0  0  0  0  0  0  0  0  0
   38.0710   29.6160   42.6110 N   0  0  0  0  0  0  0  0  0  0  0  0
   36.0960   29.6260   36.9140 C   0  0  0  0  0  0  0  0  0  0  0  0
   34.8750   28.9900   36.9390 C   0  0  0  0  0  0  0  0  0  0  0  0
   34.4400   28.4040   35.7610 C   0  0  0  0  0  0  0  0  0  0  0  0
   35.1760   28.4580   34.6460 N   0  0  0  0  0  0  0  0  0  0  0  0
   36.3680   29.0910   34.6590 C   0  0  0  0  0  0  0  0  0  0  0  0
   36.8260   29.6750   35.7950 N   0  0  0  0  0  0  0  0  0  0  0  0
   37.9304   31.8985   41.3656 H   0  0  0  0  0  0  0  0  0  0  0  0
   37.7771   33.1717   39.2239 H   0  0  0  0  0  0  0  0  0  0  0  0
   38.8514   29.1531   44.5171 H   0  0  0  0  0  0  0  0  0  0  0  0
   37.3339   27.1625   44.8294 H   0  0  0  0  0  0  0  0  0  0  0  0
   35.6945   26.6051   42.9711 H   0  0  0  0  0  0  0  0  0  0  0  0
   34.2696   28.9488   37.8565 H   0  0  0  0  0  0  0  0  0  0  0  0
   33.4706   27.8844   35.7428 H   0  0  0  0  0  0  0  0  0  0  0  0
   36.9730   29.1338   33.7413 H   0  0  0  0  0  0  0  0  0  0  0  0
  1  2  2  0
  1 11  1  0
  3  2  1  0
  4  5  1  0
  4  3  2  0
  5  6  2  0
  6  1  1  0
  7  8  2  0
  9  8  1  0
 10  9  2  0
 11 10  1  0
 11 12  2  0
 12  7  1  0
 13 14  2  0
 13  5  1  0
 15 14  1  0
 16 17  1  0
 16 15  2  0
 17 18  2  0
 18 13  1  0
  2 19  1  0
  3 20  1  0
  7 21  1  0
  8 22  1  0
  9 23  1  0
 14 24  1  0
 15 25  1  0
 17 26  1  0
M  ISO  8  19  14  20  14  21  14  22  14  23  14  24  14  25  14  26  14
M  END
>  <minimizedAffinity>  (1) 
-4.32586241

>  <minimizedRMSD>  (1) 
1.50033033

$$$$
