
     RDKit          3D

 21 22  0  0  0  0  0  0  0  0999 V2000
   37.2380   30.5280   40.3140 C   0  0  0  0  0  0  0  0  0  0  0  0
   37.2920   31.8900   40.5810 C   0  0  0  0  0  0  0  0  0  0  0  0
   37.3030   32.7080   39.4600 C   0  0  0  0  0  0  0  0  0  0  0  0
   37.2660   32.2310   38.1960 N   0  0  0  0  0  0  0  0  0  0  0  0
   37.2150   30.8910   37.9930 C   0  0  0  0  0  0  0  0  0  0  0  0
   37.2010   30.0340   39.0640 N   0  0  0  0  0  0  0  0  0  0  0  0
   38.0630   28.9170   43.5160 C   0  0  0  0  0  0  0  0  0  0  0  0
   37.1850   27.8130   43.5410 C   0  0  0  0  0  0  0  0  0  0  0  0
   36.3340   27.6500   42.4620 C   0  0  0  0  0  0  0  0  0  0  0  0
   36.3630   28.5450   41.4140 N   0  0  0  0  0  0  0  0  0  0  0  0
   37.2220   29.5890   41.4330 C   0  0  0  0  0  0  0  0  0  0  0  0
   38.0530   29.7580   42.4750 N   0  0  0  0  0  0  0  0  0  0  0  0
   37.1710   30.2660   36.6760 C   0  0  0  0  0  0  0  0  0  0  0  0
   37.0780   29.0290   36.4820 O   0  0  0  0  0  0  0  0  0  0  0  0
   37.2330   31.0160   35.5140 O   0  0  0  0  0  0  0  0  0  0  0  0
   37.3237   32.2905   41.6050 H   0  0  0  0  0  0  0  0  0  0  0  0
   37.3438   33.7973   39.6073 H   0  0  0  0  0  0  0  0  0  0  0  0
   38.7564   29.0867   44.3529 H   0  0  0  0  0  0  0  0  0  0  0  0
   37.1772   27.1087   44.3859 H   0  0  0  0  0  0  0  0  0  0  0  0
   35.6320   26.8034   42.4405 H   0  0  0  0  0  0  0  0  0  0  0  0
   37.2011   30.5666   34.6325 H   0  0  0  0  0  0  0  0  0  0  0  0
  1  2  2  0
  1 11  1  0
  3  2  1  0
  4  3  2  0
  5  4  1  0
  5  6  2  0
  6  1  1  0
  7  8  2  0
  9  8  1  0
 10 11  1  0
 10  9  2  0
 11 12  2  0
 12  7  1  0
 13  5  1  0
 14 13  2  0
 15 13  1  0
  2 16  1  0
  3 17  1  0
  7 18  1  0
  8 19  1  0
  9 20  1  0
 15 21  1  0
M  ISO  6  16  14  17  14  18  14  19  14  20  14  21   3
M  END
>  <minimizedAffinity>  (1) 
-4.24070358

>  <minimizedRMSD>  (1) 
0.341673911

$$$$
