
     RDKit          3D

 22 23  0  0  0  0  0  0  0  0999 V2000
   37.5630   31.7810   40.6360 C   0  0  0  0  0  0  0  0  0  0  0  0
   38.4590   30.7030   40.9100 C   0  0  0  0  0  0  0  0  0  0  0  0
   39.7940   31.0460   40.8810 C   0  0  0  0  0  0  0  0  0  0  0  0
   40.1790   32.3160   40.6120 N   0  0  0  0  0  0  0  0  0  0  0  0
   39.2990   33.3060   40.3570 C   0  0  0  0  0  0  0  0  0  0  0  0
   37.9850   33.0100   40.3760 N   0  0  0  0  0  0  0  0  0  0  0  0
   37.9440   29.4110   41.1780 N   0  0  0  0  0  0  0  0  0  0  0  0
   37.3650   29.0230   42.4180 C   0  0  0  0  0  0  0  0  0  0  0  0
   37.9720   29.4840   43.4920 N   0  0  0  0  0  0  0  0  0  0  0  0
   36.1960   28.1800   42.3350 N   0  0  0  0  0  0  0  0  0  0  0  0
   37.6220   29.2690   44.4360 H   0  0  0  0  0  0  0  0  0  0  0  0
   39.7510   34.6630   40.0710 C   0  0  0  0  0  0  0  0  0  0  0  0
   40.9140   35.1130   39.5630 N   0  0  0  0  0  0  0  0  0  0  0  0
   40.8850   36.4280   39.4770 O   0  0  0  0  0  0  0  0  0  0  0  0
   39.7030   36.8400   39.9290 C   0  0  0  0  0  0  0  0  0  0  0  0
   38.9690   35.7570   40.3090 N   0  0  0  0  0  0  0  0  0  0  0  0
   36.4809   31.5835   40.6410 H   0  0  0  0  0  0  0  0  0  0  0  0
   40.5563   30.2780   41.0789 H   0  0  0  0  0  0  0  0  0  0  0  0
   37.9918   28.7076   40.4271 H   0  0  0  0  0  0  0  0  0  0  0  0
   35.7276   27.8628   43.1958 H   0  0  0  0  0  0  0  0  0  0  0  0
   35.8303   27.8957   41.4150 H   0  0  0  0  0  0  0  0  0  0  0  0
   39.3717   37.8873   39.9866 H   0  0  0  0  0  0  0  0  0  0  0  0
  1  2  2  0
  2  7  1  0
  3  2  1  0
  4  3  2  0
  5  6  2  0
  5  4  1  0
  6  1  1  0
  7  8  1  0
  8  9  2  0
  9 11  1  0
 10  8  1  0
 12 16  1  0
 12  5  1  0
 13 12  2  0
 14 13  1  0
 14 15  1  0
 15 16  2  0
  1 17  1  0
  3 18  1  0
  7 19  1  0
 10 20  1  0
 10 21  1  0
 15 22  1  0
M  ISO  3  17  14  18  14  22  14
M  END
>  <minimizedAffinity>  (1) 
-4.82540798

>  <minimizedRMSD>  (1) 
7.79068422

$$$$
