
     RDKit          3D

 24 26  0  0  0  0  0  0  0  0999 V2000
   38.8790   27.8230   43.3380 C   0  0  0  0  0  0  0  0  0  0  0  0
   38.2360   26.6250   42.8920 C   0  0  0  0  0  0  0  0  0  0  0  0
   37.4080   26.7240   41.7800 C   0  0  0  0  0  0  0  0  0  0  0  0
   37.2460   27.9370   41.1720 N   0  0  0  0  0  0  0  0  0  0  0  0
   37.8640   29.0400   41.6150 C   0  0  0  0  0  0  0  0  0  0  0  0
   38.6740   28.9770   42.6940 N   0  0  0  0  0  0  0  0  0  0  0  0
   37.7240   30.3140   41.0170 N   0  0  0  0  0  0  0  0  0  0  0  0
   38.5670   31.2630   41.4450 N   0  0  0  0  0  0  0  0  0  0  0  0
   38.2870   32.4070   40.7640 C   0  0  0  0  0  0  0  0  0  0  0  0
   37.2470   32.1110   39.9140 C   0  0  0  0  0  0  0  0  0  0  0  0
   36.8910   30.7850   40.0750 C   0  0  0  0  0  0  0  0  0  0  0  0
   35.8930   29.9850   39.4500 N   0  0  0  0  0  0  0  0  0  0  0  0
   36.1470   29.7310   38.1860 N   0  0  0  0  0  0  0  0  0  0  0  0
   35.2000   28.9820   37.6250 C   0  0  0  0  0  0  0  0  0  0  0  0
   34.2660   28.7430   38.6220 C   0  0  0  0  0  0  0  0  0  0  0  0
   34.7280   29.3890   39.7670 C   0  0  0  0  0  0  0  0  0  0  0  0
   39.5442   27.7946   44.2136 H   0  0  0  0  0  0  0  0  0  0  0  0
   38.3905   25.6657   43.4077 H   0  0  0  0  0  0  0  0  0  0  0  0
   36.8884   25.8349   41.3933 H   0  0  0  0  0  0  0  0  0  0  0  0
   38.7929   33.3778   40.8720 H   0  0  0  0  0  0  0  0  0  0  0  0
   36.7735   32.8176   39.2165 H   0  0  0  0  0  0  0  0  0  0  0  0
   35.1655   28.6260   36.5848 H   0  0  0  0  0  0  0  0  0  0  0  0
   33.3399   28.1570   38.5273 H   0  0  0  0  0  0  0  0  0  0  0  0
   34.2323   29.4085   40.7488 H   0  0  0  0  0  0  0  0  0  0  0  0
  2  1  2  0
  3  2  1  0
  4  5  1  0
  4  3  2  0
  5  6  2  0
  6  1  1  0
  7  8  1  0
  7  5  1  0
  9  8  2  0
 10 11  2  0
 10  9  1  0
 11  7  1  0
 12 16  1  0
 12 11  1  0
 13 12  1  0
 14 13  2  0
 14 15  1  0
 15 16  2  0
  1 17  1  0
  2 18  1  0
  3 19  1  0
  9 20  1  0
 10 21  1  0
 14 22  1  0
 15 23  1  0
 16 24  1  0
M  ISO  8  17  14  18  14  19  14  20  14  21  14  22  14  23  14  24  14
M  END
>  <minimizedAffinity>  (1) 
-4.30674791

>  <minimizedRMSD>  (1) 
1.31021941

$$$$
