
     RDKit          3D

 20 20  0  0  0  0  0  0  0  0999 V2000
   38.8240   29.6430   42.1510 C   0  0  0  0  0  0  0  0  0  0  0  0
   38.1200   29.4490   40.9210 C   0  0  0  0  0  0  0  0  0  0  0  0
   37.9410   28.1300   40.5560 C   0  0  0  0  0  0  0  0  0  0  0  0
   38.4190   27.1250   41.3440 N   0  0  0  0  0  0  0  0  0  0  0  0
   39.0760   27.3520   42.4920 C   0  0  0  0  0  0  0  0  0  0  0  0
   39.2700   28.6270   42.8820 N   0  0  0  0  0  0  0  0  0  0  0  0
   37.6720   30.5770   40.1890 N   0  0  0  0  0  0  0  0  0  0  0  0
   36.6770   31.4820   40.6400 C   0  0  0  0  0  0  0  0  0  0  0  0
   35.6650   30.9390   41.2820 N   0  0  0  0  0  0  0  0  0  0  0  0
   36.8980   32.8690   40.3400 N   0  0  0  0  0  0  0  0  0  0  0  0
   34.8880   31.5160   41.6390 H   0  0  0  0  0  0  0  0  0  0  0  0
   39.5430   26.1660   43.2580 C   0  0  0  0  0  0  0  0  0  0  0  0
   39.6390   26.4500   44.6070 F   0  0  0  0  0  0  0  0  0  0  0  0
   40.8050   25.7950   42.8120 F   0  0  0  0  0  0  0  0  0  0  0  0
   38.7310   25.0610   43.0210 F   0  0  0  0  0  0  0  0  0  0  0  0
   39.0024   30.6694   42.5041 H   0  0  0  0  0  0  0  0  0  0  0  0
   37.4095   27.8880   39.6238 H   0  0  0  0  0  0  0  0  0  0  0  0
   38.0976   30.7514   39.2674 H   0  0  0  0  0  0  0  0  0  0  0  0
   36.2123   33.5765   40.6403 H   0  0  0  0  0  0  0  0  0  0  0  0
   37.7422   33.1563   39.8246 H   0  0  0  0  0  0  0  0  0  0  0  0
  1  6  2  0
  2  1  1  0
  3  2  2  0
  3  4  1  0
  4  5  2  0
  5  6  1  0
  5 12  1  0
  7  8  1  0
  7  2  1  0
  8  9  2  0
  9 11  1  0
 10  8  1  0
 12 13  1  0
 14 12  1  0
 15 12  1  0
  1 16  1  0
  3 17  1  0
  7 18  1  0
 10 19  1  0
 10 20  1  0
M  ISO  2  16  14  17  14
M  END
>  <minimizedAffinity>  (1) 
-4.70167446

>  <minimizedRMSD>  (1) 
0.863939285

$$$$
