
     RDKit          3D

 47 50  0  0  1  0  0  0  0  0999 V2000
   36.9610   30.2910   40.8470 C   0  0  0  0  0  0  0  0  0  0  0  0
   36.0150   30.9890   41.3060 O   0  0  0  0  0  0  0  0  0  0  0  0
   37.4230   30.4190   39.5080 N   0  0  0  0  0  0  0  0  0  0  0  0
   36.6040   30.5100   38.2870 C   0  0  0  0  0  0  0  0  0  0  0  0
   37.1710   29.4300   37.3750 C   0  0  0  0  0  0  0  0  0  0  0  0
   38.4610   29.8670   36.9130 N   0  0  0  0  0  0  0  0  0  0  0  0
   39.3010   30.4310   37.8970 C   0  0  0  0  0  0  0  0  0  0  0  0
   38.8390   30.4660   39.2960 C   0  0  1  0  0  0  0  0  0  0  0  0
   38.1160   26.9770   41.8080 C   0  0  0  0  0  0  0  0  0  0  0  0
   38.9530   27.2110   42.8680 C   0  0  0  0  0  0  0  0  0  0  0  0
   39.1300   28.5120   43.2650 C   0  0  0  0  0  0  0  0  0  0  0  0
   38.5190   29.5410   42.6560 N   0  0  0  0  0  0  0  0  0  0  0  0
   37.6920   29.2830   41.6060 C   0  0  0  0  0  0  0  0  0  0  0  0
   37.5180   28.0100   41.2160 N   0  0  0  0  0  0  0  0  0  0  0  0
   38.6410   23.4370   41.0040 C   0  0  0  0  0  0  0  0  0  0  0  0
   37.3900   23.0730   40.4320 C   0  0  0  0  0  0  0  0  0  0  0  0
   36.4190   24.0430   40.3420 C   0  0  0  0  0  0  0  0  0  0  0  0
   36.6850   25.3010   40.7980 N   0  0  0  0  0  0  0  0  0  0  0  0
   37.8870   25.6260   41.3410 C   0  0  0  0  0  0  0  0  0  0  0  0
   38.8410   24.6950   41.4350 N   0  0  0  0  0  0  0  0  0  0  0  0
   39.4520   31.6140   40.0370 C   0  0  0  0  0  0  0  0  0  0  0  0
   40.9450   31.5580   40.1760 C   0  0  0  0  0  0  0  0  0  0  0  0
   41.2520   32.9260   40.7530 C   0  0  0  0  0  0  0  0  0  0  0  0
   40.1160   33.8230   40.3470 C   0  0  0  0  0  0  0  0  0  0  0  0
   39.2060   32.9630   39.4590 C   0  0  0  0  0  0  0  0  0  0  0  0
   35.5452   30.3142   38.5120 H   0  0  0  0  0  0  0  0  0  0  0  0
   36.6401   31.5095   37.8292 H   0  0  0  0  0  0  0  0  0  0  0  0
   37.2744   28.4875   37.9327 H   0  0  0  0  0  0  0  0  0  0  0  0
   36.4981   29.2601   36.5216 H   0  0  0  0  0  0  0  0  0  0  0  0
   38.9464   29.0525   36.5107 H   0  0  0  0  0  0  0  0  0  0  0  0
   40.2420   29.8615   37.8824 H   0  0  0  0  0  0  0  0  0  0  0  0
   39.3642   31.4919   37.6134 H   0  0  0  0  0  0  0  0  0  0  0  0
   39.1963   29.5109   39.7083 H   0  0  0  0  0  0  0  0  0  0  0  0
   39.4649   26.3843   43.3823 H   0  0  0  0  0  0  0  0  0  0  0  0
   39.7975   28.7202   44.1141 H   0  0  0  0  0  0  0  0  0  0  0  0
   39.4436   22.6902   41.0935 H   0  0  0  0  0  0  0  0  0  0  0  0
   37.2055   22.0495   40.0736 H   0  0  0  0  0  0  0  0  0  0  0  0
   35.4370   23.8066   39.9064 H   0  0  0  0  0  0  0  0  0  0  0  0
   38.9389   31.4887   41.0019 H   0  0  0  0  0  0  0  0  0  0  0  0
   41.2540   30.7552   40.8616 H   0  0  0  0  0  0  0  0  0  0  0  0
   41.4730   31.3415   39.2356 H   0  0  0  0  0  0  0  0  0  0  0  0
   41.3192   32.8700   41.8495 H   0  0  0  0  0  0  0  0  0  0  0  0
   42.2142   33.3085   40.3817 H   0  0  0  0  0  0  0  0  0  0  0  0
   39.5673   34.1726   41.2340 H   0  0  0  0  0  0  0  0  0  0  0  0
   40.4741   34.7175   39.8163 H   0  0  0  0  0  0  0  0  0  0  0  0
   39.5070   33.0122   38.4021 H   0  0  0  0  0  0  0  0  0  0  0  0
   38.1502   33.2715   39.4527 H   0  0  0  0  0  0  0  0  0  0  0  0
  1  2  2  0
  1 13  1  0
  3  1  1  0
  4  3  1  0
  5  4  1  0
  6  5  1  0
  6  7  1  0
  7  8  1  0
  8  3  1  0
  8 21  1  0
  9 10  2  0
 10 11  1  0
 12 11  2  0
 13 12  1  0
 14 13  2  0
 14  9  1  0
 15 20  2  0
 16 15  1  0
 17 16  2  0
 17 18  1  0
 18 19  2  0
 19 20  1  0
 19  9  1  0
 21 22  1  0
 22 23  1  0
 24 23  1  0
 25 21  1  0
 25 24  1  0
  4 26  1  0
  4 27  1  0
  5 28  1  0
  5 29  1  0
  6 30  1  0
  7 31  1  0
  7 32  1  0
  8 33  1  1
 10 34  1  0
 11 35  1  0
 15 36  1  0
 16 37  1  0
 17 38  1  0
 21 39  1  0
 22 40  1  0
 22 41  1  0
 23 42  1  0
 23 43  1  0
 24 44  1  0
 24 45  1  0
 25 46  1  0
 25 47  1  0
M  ISO  8  26  13  27  13  28  13  29  13  30   5  31  13  32  13  33  13
M  ISO  8  34  14  35  14  36  14  37  14  38  14  39  13  40  13  41  13
M  ISO  6  42  13  43  13  44  13  45  13  46  13  47  13
M  END
>  <minimizedAffinity>  (1) 
-5.51047754

>  <minimizedRMSD>  (1) 
4.44538975

$$$$
