
     RDKit          3D

 41 44  0  0  1  0  0  0  0  0999 V2000
   37.3760   30.5800   39.8820 C   0  0  0  0  0  0  0  0  0  0  0  0
   36.4200   31.4030   39.9290 O   0  0  0  0  0  0  0  0  0  0  0  0
   38.1450   30.3160   38.7060 N   0  0  0  0  0  0  0  0  0  0  0  0
   37.6200   30.1190   37.3650 C   0  0  0  0  0  0  0  0  0  0  0  0
   38.2930   28.8130   36.9040 C   0  0  0  0  0  0  0  0  0  0  0  0
   39.6800   29.0750   36.6840 N   0  0  0  0  0  0  0  0  0  0  0  0
   40.3390   29.8350   37.6850 C   0  0  0  0  0  0  0  0  0  0  0  0
   39.5680   30.2420   38.8830 C   0  0  1  0  0  0  0  0  0  0  0  0
   38.1500   27.5870   41.8290 C   0  0  0  0  0  0  0  0  0  0  0  0
   38.5800   28.0670   43.0380 C   0  0  0  0  0  0  0  0  0  0  0  0
   38.6120   29.4420   43.2060 C   0  0  0  0  0  0  0  0  0  0  0  0
   38.2380   30.2980   42.2300 N   0  0  0  0  0  0  0  0  0  0  0  0
   37.8170   29.7880   41.0450 C   0  0  0  0  0  0  0  0  0  0  0  0
   37.7830   28.4490   40.8720 N   0  0  0  0  0  0  0  0  0  0  0  0
   39.1430   24.1830   40.8820 C   0  0  0  0  0  0  0  0  0  0  0  0
   37.9490   23.4550   41.1350 C   0  0  0  0  0  0  0  0  0  0  0  0
   36.8420   24.1350   41.6190 C   0  0  0  0  0  0  0  0  0  0  0  0
   36.9460   25.4800   41.8320 N   0  0  0  0  0  0  0  0  0  0  0  0
   38.0920   26.1580   41.5850 C   0  0  0  0  0  0  0  0  0  0  0  0
   39.1710   25.5080   41.1150 N   0  0  0  0  0  0  0  0  0  0  0  0
   40.0730   31.5150   39.4740 C   0  0  0  0  0  0  0  0  0  0  0  0
   40.9800   31.6550   40.5180 C   0  0  0  0  0  0  0  0  0  0  0  0
   41.1070   33.0200   40.6740 C   0  0  0  0  0  0  0  0  0  0  0  0
   40.2820   33.6410   39.7310 C   0  0  0  0  0  0  0  0  0  0  0  0
   39.6890   32.6720   39.0420 O   0  0  0  0  0  0  0  0  0  0  0  0
   36.5253   30.0122   37.3830 H   0  0  0  0  0  0  0  0  0  0  0  0
   37.8262   30.9669   36.6952 H   0  0  0  0  0  0  0  0  0  0  0  0
   38.1789   28.0420   37.6802 H   0  0  0  0  0  0  0  0  0  0  0  0
   37.8242   28.4527   35.9764 H   0  0  0  0  0  0  0  0  0  0  0  0
   40.1632   28.1685   36.6082 H   0  0  0  0  0  0  0  0  0  0  0  0
   41.1941   29.2386   38.0358 H   0  0  0  0  0  0  0  0  0  0  0  0
   40.5841   30.7842   37.1861 H   0  0  0  0  0  0  0  0  0  0  0  0
   39.7415   29.4143   39.5864 H   0  0  0  0  0  0  0  0  0  0  0  0
   38.8883   27.3862   43.8452 H   0  0  0  0  0  0  0  0  0  0  0  0
   38.9540   29.8511   44.1681 H   0  0  0  0  0  0  0  0  0  0  0  0
   40.0364   23.6679   40.4991 H   0  0  0  0  0  0  0  0  0  0  0  0
   37.9039   22.3716   40.9502 H   0  0  0  0  0  0  0  0  0  0  0  0
   35.9016   23.6035   41.8267 H   0  0  0  0  0  0  0  0  0  0  0  0
   41.4816   30.8598   41.0890 H   0  0  0  0  0  0  0  0  0  0  0  0
   41.7451   33.5301   41.4107 H   0  0  0  0  0  0  0  0  0  0  0  0
   40.1495   34.7235   39.5873 H   0  0  0  0  0  0  0  0  0  0  0  0
  1  2  2  0
  1 13  1  0
  3  8  1  0
  3  1  1  0
  4  3  1  0
  5  4  1  0
  6  5  1  0
  6  7  1  0
  7  8  1  0
  8 21  1  0
  9 10  2  0
 10 11  1  0
 12 11  2  0
 13 12  1  0
 14 13  2  0
 14  9  1  0
 15 20  2  0
 15 16  1  0
 16 17  2  0
 17 18  1  0
 19  9  1  0
 19 18  2  0
 20 19  1  0
 21 22  2  0
 22 23  1  0
 24 23  2  0
 25 21  1  0
 25 24  1  0
  4 26  1  0
  4 27  1  0
  5 28  1  0
  5 29  1  0
  6 30  1  0
  7 31  1  0
  7 32  1  0
  8 33  1  1
 10 34  1  0
 11 35  1  0
 15 36  1  0
 16 37  1  0
 17 38  1  0
 22 39  1  0
 23 40  1  0
 24 41  1  0
M  ISO  8  26  13  27  13  28  13  29  13  30   5  31  13  32  13  33  13
M  ISO  8  34  14  35  14  36  14  37  14  38  14  39  14  40  14  41  14
M  END
>  <minimizedAffinity>  (1) 
-5.30245352

>  <minimizedRMSD>  (1) 
3.71651721

$$$$
