
     RDKit          3D

 37 39  0  0  1  0  0  0  0  0999 V2000
   38.4110   31.7380   40.7080 C   0  0  0  0  0  0  0  0  0  0  0  0
   37.5700   31.4300   41.6110 O   0  0  0  0  0  0  0  0  0  0  0  0
   38.9380   30.8070   39.7600 N   0  0  0  0  0  0  0  0  0  0  0  0
   39.4320   29.4560   40.0790 C   0  0  0  0  0  0  0  0  0  0  0  0
   40.8070   29.4150   39.4300 C   0  0  0  0  0  0  0  0  0  0  0  0
   40.6500   29.3890   38.0170 N   0  0  0  0  0  0  0  0  0  0  0  0
   39.7160   30.2950   37.4780 C   0  0  0  0  0  0  0  0  0  0  0  0
   38.9890   31.2120   38.4040 C   0  0  1  0  0  0  0  0  0  0  0  0
   40.9000   34.3860   40.5610 C   0  0  0  0  0  0  0  0  0  0  0  0
   40.1810   35.5100   40.2410 C   0  0  0  0  0  0  0  0  0  0  0  0
   38.8290   35.3640   40.0730 C   0  0  0  0  0  0  0  0  0  0  0  0
   38.2040   34.1870   40.2080 N   0  0  0  0  0  0  0  0  0  0  0  0
   38.9440   33.0920   40.5260 C   0  0  0  0  0  0  0  0  0  0  0  0
   40.2700   33.2180   40.6930 N   0  0  0  0  0  0  0  0  0  0  0  0
   44.5080   33.9490   40.0580 C   0  0  0  0  0  0  0  0  0  0  0  0
   45.0460   34.6660   41.1730 C   0  0  0  0  0  0  0  0  0  0  0  0
   44.1720   35.2640   42.0440 C   0  0  0  0  0  0  0  0  0  0  0  0
   42.8270   35.1560   41.8190 N   0  0  0  0  0  0  0  0  0  0  0  0
   42.3330   34.4690   40.7520 C   0  0  0  0  0  0  0  0  0  0  0  0
   43.1720   33.8710   39.8820 N   0  0  0  0  0  0  0  0  0  0  0  0
   37.5650   31.3510   37.8270 C   0  0  0  0  0  0  0  0  0  0  0  0
   37.5200   30.8310   36.5490 F   0  0  0  0  0  0  0  0  0  0  0  0
   37.1630   32.6590   37.8370 F   0  0  0  0  0  0  0  0  0  0  0  0
   36.7350   30.5450   38.5930 F   0  0  0  0  0  0  0  0  0  0  0  0
   39.5069   29.3120   41.1670 H   0  0  0  0  0  0  0  0  0  0  0  0
   38.7645   28.6604   39.7165 H   0  0  0  0  0  0  0  0  0  0  0  0
   41.3794   30.3080   39.7213 H   0  0  0  0  0  0  0  0  0  0  0  0
   41.3481   28.5163   39.7610 H   0  0  0  0  0  0  0  0  0  0  0  0
   41.5668   29.5948   37.5952 H   0  0  0  0  0  0  0  0  0  0  0  0
   40.2561   30.9254   36.7563 H   0  0  0  0  0  0  0  0  0  0  0  0
   38.9256   29.6499   37.0666 H   0  0  0  0  0  0  0  0  0  0  0  0
   39.5421   32.1619   38.4474 H   0  0  0  0  0  0  0  0  0  0  0  0
   40.6700   36.4884   40.1241 H   0  0  0  0  0  0  0  0  0  0  0  0
   38.2314   36.2511   39.8163 H   0  0  0  0  0  0  0  0  0  0  0  0
   45.1850   33.4599   39.3421 H   0  0  0  0  0  0  0  0  0  0  0  0
   46.1328   34.7358   41.3276 H   0  0  0  0  0  0  0  0  0  0  0  0
   44.5478   35.8238   42.9131 H   0  0  0  0  0  0  0  0  0  0  0  0
  1  2  2  0
  3  4  1  0
  3  1  1  0
  5  4  1  0
  6  5  1  0
  7  6  1  0
  7  8  1  0
  8  3  1  0
  9 14  1  0
  9 19  1  0
 10  9  2  0
 11 12  2  0
 11 10  1  0
 12 13  1  0
 13 14  2  0
 13  1  1  0
 15 16  2  0
 16 17  1  0
 18 17  2  0
 19 18  1  0
 20 15  1  0
 20 19  2  0
 21 23  1  0
 21  8  1  0
 21 24  1  0
 22 21  1  0
  4 25  1  0
  4 26  1  0
  5 27  1  0
  5 28  1  0
  6 29  1  0
  7 30  1  0
  7 31  1  0
  8 32  1  1
 10 33  1  0
 11 34  1  0
 15 35  1  0
 16 36  1  0
 17 37  1  0
M  ISO  8  25  13  26  13  27  13  28  13  29   5  30  13  31  13  32  13
M  ISO  5  33  14  34  14  35  14  36  14  37  14
M  END
>  <minimizedAffinity>  (1) 
-5.20783567

>  <minimizedRMSD>  (1) 
5.82764721

$$$$
