
     RDKit          3D

 40 43  0  0  1  0  0  0  0  0999 V2000
   37.6510   27.8510   43.2780 C   0  0  0  0  0  0  0  0  0  0  0  0
   36.8460   28.0820   44.2190 O   0  0  0  0  0  0  0  0  0  0  0  0
   37.4320   26.8410   42.2860 N   0  0  0  0  0  0  0  0  0  0  0  0
   36.9750   25.4810   42.5120 C   0  0  0  0  0  0  0  0  0  0  0  0
   37.9970   24.6220   41.7520 C   0  0  0  0  0  0  0  0  0  0  0  0
   37.7850   24.8060   40.3450 N   0  0  0  0  0  0  0  0  0  0  0  0
   37.5970   26.1470   39.9130 C   0  0  0  0  0  0  0  0  0  0  0  0
   37.6940   27.2130   40.9220 C   0  0  1  0  0  0  0  0  0  0  0  0
   41.2480   28.3890   43.1260 C   0  0  0  0  0  0  0  0  0  0  0  0
   41.3820   29.7040   42.7710 C   0  0  0  0  0  0  0  0  0  0  0  0
   40.2340   30.4360   42.5740 C   0  0  0  0  0  0  0  0  0  0  0  0
   39.0100   29.8900   42.7240 N   0  0  0  0  0  0  0  0  0  0  0  0
   38.9140   28.5880   43.0770 C   0  0  0  0  0  0  0  0  0  0  0  0
   40.0390   27.8600   43.2720 N   0  0  0  0  0  0  0  0  0  0  0  0
   44.7010   27.3960   43.9270 C   0  0  0  0  0  0  0  0  0  0  0  0
   44.6410   25.9930   43.7600 C   0  0  0  0  0  0  0  0  0  0  0  0
   43.4360   25.4140   43.3810 C   0  0  0  0  0  0  0  0  0  0  0  0
   42.3490   26.2280   43.1840 N   0  0  0  0  0  0  0  0  0  0  0  0
   42.4210   27.5690   43.3470 C   0  0  0  0  0  0  0  0  0  0  0  0
   43.5940   28.1240   43.7150 N   0  0  0  0  0  0  0  0  0  0  0  0
   36.9260   28.3810   40.5220 N   0  0  0  0  0  0  0  0  0  0  0  0
   35.6410   28.6980   40.7790 C   0  0  0  0  0  0  0  0  0  0  0  0
   35.3130   29.8800   40.2230 N   0  0  0  0  0  0  0  0  0  0  0  0
   36.4190   30.3180   39.6010 C   0  0  0  0  0  0  0  0  0  0  0  0
   37.3720   29.3970   39.7980 N   0  0  0  0  0  0  0  0  0  0  0  0
   36.9799   25.2388   43.5850 H   0  0  0  0  0  0  0  0  0  0  0  0
   35.9423   25.3162   42.1709 H   0  0  0  0  0  0  0  0  0  0  0  0
   39.0172   24.9356   42.0183 H   0  0  0  0  0  0  0  0  0  0  0  0
   37.8723   23.5619   42.0179 H   0  0  0  0  0  0  0  0  0  0  0  0
   38.6057   24.4278   39.8506 H   0  0  0  0  0  0  0  0  0  0  0  0
   38.3559   26.3533   39.1439 H   0  0  0  0  0  0  0  0  0  0  0  0
   36.5522   26.1838   39.5710 H   0  0  0  0  0  0  0  0  0  0  0  0
   38.7654   27.4615   40.9391 H   0  0  0  0  0  0  0  0  0  0  0  0
   42.3751   30.1606   42.6473 H   0  0  0  0  0  0  0  0  0  0  0  0
   40.3166   31.4946   42.2866 H   0  0  0  0  0  0  0  0  0  0  0  0
   45.6408   27.8830   44.2261 H   0  0  0  0  0  0  0  0  0  0  0  0
   45.5326   25.3709   43.9272 H   0  0  0  0  0  0  0  0  0  0  0  0
   43.3552   24.3258   43.2418 H   0  0  0  0  0  0  0  0  0  0  0  0
   34.9512   28.0734   41.3656 H   0  0  0  0  0  0  0  0  0  0  0  0
   36.5233   31.2561   39.0361 H   0  0  0  0  0  0  0  0  0  0  0  0
  1  2  2  0
  3  4  1  0
  3  1  1  0
  5  4  1  0
  6  5  1  0
  7  6  1  0
  7  8  1  0
  8  3  1  0
  9 14  1  0
  9 19  1  0
 10  9  2  0
 11 12  2  0
 11 10  1  0
 12 13  1  0
 13 14  2  0
 13  1  1  0
 16 15  2  0
 17 16  1  0
 18 19  1  0
 18 17  2  0
 19 20  2  0
 20 15  1  0
 21 22  1  0
 21  8  1  0
 23 22  2  0
 24 25  2  0
 24 23  1  0
 25 21  1  0
  4 26  1  0
  4 27  1  0
  5 28  1  0
  5 29  1  0
  6 30  1  0
  7 31  1  0
  7 32  1  0
  8 33  1  1
 10 34  1  0
 11 35  1  0
 15 36  1  0
 16 37  1  0
 17 38  1  0
 22 39  1  0
 24 40  1  0
M  ISO  8  26  13  27  13  28  13  29  13  30   5  31  13  32  13  33  13
M  ISO  7  34  14  35  14  36  14  37  14  38  14  39  14  40  14
M  END
>  <minimizedAffinity>  (1) 
-5.00058222

>  <minimizedRMSD>  (1) 
6.08874512

$$$$
