
     RDKit          3D

 46 48  0  0  1  0  0  0  0  0999 V2000
   37.0750   29.0820   38.2650 C   0  0  0  0  0  0  0  0  0  0  0  0
   35.9910   29.0900   37.6260 O   0  0  0  0  0  0  0  0  0  0  0  0
   38.3770   29.0770   37.6720 N   0  0  0  0  0  0  0  0  0  0  0  0
   38.7470   28.2080   36.5450 C   0  0  0  0  0  0  0  0  0  0  0  0
   40.0300   27.5320   37.0270 C   0  0  0  0  0  0  0  0  0  0  0  0
   41.0760   28.4800   37.1040 N   0  0  0  0  0  0  0  0  0  0  0  0
   40.7450   29.7350   37.6780 C   0  0  0  0  0  0  0  0  0  0  0  0
   39.3650   29.9510   38.1950 C   0  0  1  0  0  0  0  0  0  0  0  0
   37.8660   27.8520   41.6120 C   0  0  0  0  0  0  0  0  0  0  0  0
   37.3820   28.8240   42.4510 C   0  0  0  0  0  0  0  0  0  0  0  0
   36.7780   29.9150   41.8810 C   0  0  0  0  0  0  0  0  0  0  0  0
   36.6540   30.0470   40.5560 N   0  0  0  0  0  0  0  0  0  0  0  0
   37.1370   29.0770   39.7310 C   0  0  0  0  0  0  0  0  0  0  0  0
   37.7350   27.9960   40.2870 N   0  0  0  0  0  0  0  0  0  0  0  0
   39.9870   25.6880   43.6820 C   0  0  0  0  0  0  0  0  0  0  0  0
   39.6910   24.3980   43.1500 C   0  0  0  0  0  0  0  0  0  0  0  0
   38.7930   24.3160   42.1200 C   0  0  0  0  0  0  0  0  0  0  0  0
   38.2150   25.4570   41.6390 N   0  0  0  0  0  0  0  0  0  0  0  0
   38.5080   26.6810   42.1600 C   0  0  0  0  0  0  0  0  0  0  0  0
   39.3840   26.7710   43.1640 N   0  0  0  0  0  0  0  0  0  0  0  0
   39.1720   31.4230   37.9930 C   0  0  0  0  0  0  0  0  0  0  0  0
   37.9130   31.9200   37.4420 C   0  0  0  0  0  0  0  0  0  0  0  0
   40.3060   32.0850   37.2710 C   0  0  0  0  0  0  0  0  0  0  0  0
   39.2300   31.9730   39.4340 C   0  0  0  0  0  0  0  0  0  0  0  0
   38.9310   28.7991   35.6358 H   0  0  0  0  0  0  0  0  0  0  0  0
   37.9571   27.4905   36.2780 H   0  0  0  0  0  0  0  0  0  0  0  0
   39.8600   27.0953   38.0222 H   0  0  0  0  0  0  0  0  0  0  0  0
   40.3108   26.7412   36.3159 H   0  0  0  0  0  0  0  0  0  0  0  0
   41.8332   28.0671   37.6671 H   0  0  0  0  0  0  0  0  0  0  0  0
   41.4337   29.8958   38.5205 H   0  0  0  0  0  0  0  0  0  0  0  0
   40.8248   30.4392   36.8367 H   0  0  0  0  0  0  0  0  0  0  0  0
   39.2389   29.6756   39.2525 H   0  0  0  0  0  0  0  0  0  0  0  0
   37.4753   28.7311   43.5431 H   0  0  0  0  0  0  0  0  0  0  0  0
   36.3829   30.7068   42.5343 H   0  0  0  0  0  0  0  0  0  0  0  0
   40.7033   25.7952   44.5099 H   0  0  0  0  0  0  0  0  0  0  0  0
   40.1706   23.4950   43.5558 H   0  0  0  0  0  0  0  0  0  0  0  0
   38.5387   23.3391   41.6829 H   0  0  0  0  0  0  0  0  0  0  0  0
   37.2334   32.1883   38.2643 H   0  0  0  0  0  0  0  0  0  0  0  0
   38.1088   32.8083   36.8235 H   0  0  0  0  0  0  0  0  0  0  0  0
   37.4492   31.1375   36.8235 H   0  0  0  0  0  0  0  0  0  0  0  0
   41.0150   32.4989   38.0031 H   0  0  0  0  0  0  0  0  0  0  0  0
   40.8205   31.3454   36.6399 H   0  0  0  0  0  0  0  0  0  0  0  0
   39.9149   32.8967   36.6399 H   0  0  0  0  0  0  0  0  0  0  0  0
   39.1422   31.1408   40.1479 H   0  0  0  0  0  0  0  0  0  0  0  0
   40.1877   32.4909   39.5905 H   0  0  0  0  0  0  0  0  0  0  0  0
   38.4014   32.6793   39.5905 H   0  0  0  0  0  0  0  0  0  0  0  0
  1 13  1  0
  2  1  2  0
  3  8  1  0
  3  1  1  0
  4  5  1  0
  4  3  1  0
  5  6  1  0
  6  7  1  0
  7  8  1  0
  9 19  1  0
  9 10  2  0
 11 10  1  0
 12 11  2  0
 13 14  2  0
 13 12  1  0
 14  9  1  0
 16 15  2  0
 17 16  1  0
 18 17  2  0
 18 19  1  0
 19 20  2  0
 20 15  1  0
 21  8  1  0
 21 24  1  0
 22 21  1  0
 23 21  1  0
  4 25  1  0
  4 26  1  0
  5 27  1  0
  5 28  1  0
  6 29  1  0
  7 30  1  0
  7 31  1  0
  8 32  1  1
 10 33  1  0
 11 34  1  0
 15 35  1  0
 16 36  1  0
 17 37  1  0
 22 38  1  0
 22 39  1  0
 22 40  1  0
 23 41  1  0
 23 42  1  0
 23 43  1  0
 24 44  1  0
 24 45  1  0
 24 46  1  0
M  ISO  8  25  13  26  13  27  13  28  13  29   5  30  13  31  13  32  13
M  ISO  8  33  14  34  14  35  14  36  14  37  14  38   8  39   8  40   8
M  ISO  6  41   8  42   8  43   8  44   8  45   8  46   8
M  END
>  <minimizedAffinity>  (1) 
-4.9531002

>  <minimizedRMSD>  (1) 
2.69817376

$$$$
