
     RDKit          3D

 24 25  0  0  0  0  0  0  0  0999 V2000
   39.4680   31.6510   41.6790 C   0  0  0  0  0  0  0  0  0  0  0  0
   39.2140   31.7630   40.2750 C   0  0  0  0  0  0  0  0  0  0  0  0
   38.9590   30.5610   39.6370 C   0  0  0  0  0  0  0  0  0  0  0  0
   38.9580   29.3840   40.3320 N   0  0  0  0  0  0  0  0  0  0  0  0
   39.2040   29.3520   41.6490 C   0  0  0  0  0  0  0  0  0  0  0  0
   39.4580   30.4790   42.3190 N   0  0  0  0  0  0  0  0  0  0  0  0
   39.1920   28.1070   42.3210 N   0  0  0  0  0  0  0  0  0  0  0  0
   38.4040   27.0490   42.2610 N   0  0  0  0  0  0  0  0  0  0  0  0
   38.8360   26.1050   43.1300 C   0  0  0  0  0  0  0  0  0  0  0  0
   39.9640   26.6060   43.7720 C   0  0  0  0  0  0  0  0  0  0  0  0
   40.1610   27.8610   43.2430 C   0  0  0  0  0  0  0  0  0  0  0  0
   39.2390   33.0340   39.6520 N   0  0  0  0  0  0  0  0  0  0  0  0
   38.2400   34.0260   39.8370 C   0  0  0  0  0  0  0  0  0  0  0  0
   37.0010   33.5870   39.9110 N   0  0  0  0  0  0  0  0  0  0  0  0
   38.7080   35.3950   39.9220 N   0  0  0  0  0  0  0  0  0  0  0  0
   36.2160   34.2440   40.0230 H   0  0  0  0  0  0  0  0  0  0  0  0
   39.6796   32.5653   42.2529 H   0  0  0  0  0  0  0  0  0  0  0  0
   38.7544   30.5531   38.5562 H   0  0  0  0  0  0  0  0  0  0  0  0
   38.3776   25.1193   43.2982 H   0  0  0  0  0  0  0  0  0  0  0  0
   40.5706   26.1046   44.5405 H   0  0  0  0  0  0  0  0  0  0  0  0
   40.9702   28.5524   43.5206 H   0  0  0  0  0  0  0  0  0  0  0  0
   40.0286   33.2521   39.0276 H   0  0  0  0  0  0  0  0  0  0  0  0
   38.0340   36.1623   40.0560 H   0  0  0  0  0  0  0  0  0  0  0  0
   39.7146   35.6007   39.8484 H   0  0  0  0  0  0  0  0  0  0  0  0
  1  6  2  0
  2  1  1  0
  3  2  2  0
  3  4  1  0
  4  5  2  0
  5  6  1  0
  5  7  1  0
  7 11  1  0
  8  7  1  0
  8  9  2  0
  9 10  1  0
 11 10  2  0
 12 13  1  0
 12  2  1  0
 13 14  2  0
 13 15  1  0
 14 16  1  0
  1 17  1  0
  3 18  1  0
  9 19  1  0
 10 20  1  0
 11 21  1  0
 12 22  1  0
 15 23  1  0
 15 24  1  0
M  ISO  5  17  14  18  14  19  14  20  14  21  14
M  END
>  <minimizedAffinity>  (1) 
-4.623703

>  <minimizedRMSD>  (1) 
2.95632219

$$$$
