
     RDKit          3D

 41 44  0  0  1  0  0  0  0  0999 V2000
   37.0660   29.1740   38.0350 C   0  0  0  0  0  0  0  0  0  0  0  0
   35.9910   29.2030   37.3680 O   0  0  0  0  0  0  0  0  0  0  0  0
   38.3600   29.0290   37.4630 N   0  0  0  0  0  0  0  0  0  0  0  0
   38.7400   28.0860   36.4260 C   0  0  0  0  0  0  0  0  0  0  0  0
   39.9930   27.3990   37.0030 C   0  0  0  0  0  0  0  0  0  0  0  0
   41.0640   28.3470   37.0010 N   0  0  0  0  0  0  0  0  0  0  0  0
   40.7600   29.6300   37.4770 C   0  0  0  0  0  0  0  0  0  0  0  0
   39.3750   29.8970   37.9580 C   0  0  1  0  0  0  0  0  0  0  0  0
   37.8280   28.2550   41.4850 C   0  0  0  0  0  0  0  0  0  0  0  0
   37.2870   29.2660   42.2370 C   0  0  0  0  0  0  0  0  0  0  0  0
   36.6530   30.2770   41.5610 C   0  0  0  0  0  0  0  0  0  0  0  0
   36.5440   30.3130   40.2150 N   0  0  0  0  0  0  0  0  0  0  0  0
   37.0970   29.2860   39.5040 C   0  0  0  0  0  0  0  0  0  0  0  0
   37.7200   28.2920   40.1530 N   0  0  0  0  0  0  0  0  0  0  0  0
   39.8320   26.3310   43.8770 C   0  0  0  0  0  0  0  0  0  0  0  0
   39.8170   25.0330   43.3240 C   0  0  0  0  0  0  0  0  0  0  0  0
   39.1200   24.8450   42.1410 C   0  0  0  0  0  0  0  0  0  0  0  0
   38.4870   25.9250   41.5790 N   0  0  0  0  0  0  0  0  0  0  0  0
   38.5160   27.1480   42.1240 C   0  0  0  0  0  0  0  0  0  0  0  0
   39.1940   27.3420   43.2790 N   0  0  0  0  0  0  0  0  0  0  0  0
   39.0780   31.3700   37.7550 C   0  0  0  0  0  0  0  0  0  0  0  0
   40.3100   32.2500   37.9590 C   0  0  0  0  0  0  0  0  0  0  0  0
   39.0860   32.3300   38.8550 C   0  0  0  0  0  0  0  0  0  0  0  0
   38.9757   28.6085   35.4871 H   0  0  0  0  0  0  0  0  0  0  0  0
   37.9376   27.3750   36.1798 H   0  0  0  0  0  0  0  0  0  0  0  0
   39.7937   27.0646   38.0318 H   0  0  0  0  0  0  0  0  0  0  0  0
   40.2602   26.5229   36.3938 H   0  0  0  0  0  0  0  0  0  0  0  0
   41.8209   27.9663   37.5868 H   0  0  0  0  0  0  0  0  0  0  0  0
   41.4411   29.8356   38.3160 H   0  0  0  0  0  0  0  0  0  0  0  0
   40.8703   30.2789   36.5957 H   0  0  0  0  0  0  0  0  0  0  0  0
   39.3472   29.6532   39.0303 H   0  0  0  0  0  0  0  0  0  0  0  0
   37.3584   29.2662   43.3347 H   0  0  0  0  0  0  0  0  0  0  0  0
   36.2115   31.0990   42.1435 H   0  0  0  0  0  0  0  0  0  0  0  0
   40.3772   26.5138   44.8148 H   0  0  0  0  0  0  0  0  0  0  0  0
   40.3404   24.1992   43.8148 H   0  0  0  0  0  0  0  0  0  0  0  0
   39.0753   23.8546   41.6644 H   0  0  0  0  0  0  0  0  0  0  0  0
   38.3178   31.1723   36.9850 H   0  0  0  0  0  0  0  0  0  0  0  0
   41.2486   31.8166   38.3348 H   0  0  0  0  0  0  0  0  0  0  0  0
   40.8925   32.9540   37.3466 H   0  0  0  0  0  0  0  0  0  0  0  0
   38.4348   33.2154   38.8108 H   0  0  0  0  0  0  0  0  0  0  0  0
   38.9226   32.2557   39.9403 H   0  0  0  0  0  0  0  0  0  0  0  0
  1 13  1  0
  2  1  2  0
  3  8  1  0
  3  1  1  0
  4  5  1  0
  4  3  1  0
  6  5  1  0
  6  7  1  0
  7  8  1  0
  9 19  1  0
  9 10  2  0
 11 10  1  0
 12 11  2  0
 13 14  2  0
 13 12  1  0
 14  9  1  0
 16 15  2  0
 17 16  1  0
 18 19  1  0
 18 17  2  0
 19 20  2  0
 20 15  1  0
 21  8  1  0
 21 22  1  0
 21 23  1  0
 22 23  1  0
  4 24  1  0
  4 25  1  0
  5 26  1  0
  5 27  1  0
  6 28  1  0
  7 29  1  0
  7 30  1  0
  8 31  1  1
 10 32  1  0
 11 33  1  0
 15 34  1  0
 16 35  1  0
 17 36  1  0
 21 37  1  0
 22 38  1  0
 22 39  1  0
 23 40  1  0
 23 41  1  0
M  ISO  8  24  13  25  13  26  13  27  13  28   5  29  13  30  13  31  13
M  ISO  8  32  14  33  14  34  14  35  14  36  14  37  13  38  13  39  13
M  ISO  2  40  13  41  13
M  END
>  <minimizedAffinity>  (1) 
-4.77677727

>  <minimizedRMSD>  (1) 
2.37314963

$$$$
