
     RDKit          3D

 37 39  0  0  1  0  0  0  0  0999 V2000
   37.7210   29.7540   36.9830 C   0  0  0  0  0  0  0  0  0  0  0  0
   37.1150   30.0180   35.9000 O   0  0  0  0  0  0  0  0  0  0  0  0
   38.7130   28.7360   37.0960 N   0  0  0  0  0  0  0  0  0  0  0  0
   38.6460   27.3870   36.5560 C   0  0  0  0  0  0  0  0  0  0  0  0
   38.9810   26.4970   37.7550 C   0  0  0  0  0  0  0  0  0  0  0  0
   40.3730   26.6580   38.0660 N   0  0  0  0  0  0  0  0  0  0  0  0
   40.8510   27.9820   38.0710 C   0  0  0  0  0  0  0  0  0  0  0  0
   39.8920   29.0820   37.8170 C   0  0  1  0  0  0  0  0  0  0  0  0
   37.1740   30.1730   40.5550 C   0  0  0  0  0  0  0  0  0  0  0  0
   37.0020   31.5240   40.7100 C   0  0  0  0  0  0  0  0  0  0  0  0
   37.0710   32.3210   39.5900 C   0  0  0  0  0  0  0  0  0  0  0  0
   37.3000   31.8000   38.3640 N   0  0  0  0  0  0  0  0  0  0  0  0
   37.4660   30.4660   38.2410 C   0  0  0  0  0  0  0  0  0  0  0  0
   37.3990   29.6840   39.3340 N   0  0  0  0  0  0  0  0  0  0  0  0
   37.8340   28.7110   43.8630 C   0  0  0  0  0  0  0  0  0  0  0  0
   36.9660   27.5960   43.8610 C   0  0  0  0  0  0  0  0  0  0  0  0
   36.1880   27.3700   42.7510 C   0  0  0  0  0  0  0  0  0  0  0  0
   36.2760   28.2270   41.6840 N   0  0  0  0  0  0  0  0  0  0  0  0
   37.1110   29.2930   41.6990 C   0  0  0  0  0  0  0  0  0  0  0  0
   37.8770   29.5230   42.7820 N   0  0  0  0  0  0  0  0  0  0  0  0
   40.6150   30.2410   37.1470 C   0  0  0  0  0  0  0  0  0  0  0  0
   37.6380   27.1673   36.1743 H   0  0  0  0  0  0  0  0  0  0  0  0
   39.3298   27.2337   35.7081 H   0  0  0  0  0  0  0  0  0  0  0  0
   38.3705   26.7947   38.6203 H   0  0  0  0  0  0  0  0  0  0  0  0
   38.7673   25.4449   37.5152 H   0  0  0  0  0  0  0  0  0  0  0  0
   40.5357   26.2599   39.0019 H   0  0  0  0  0  0  0  0  0  0  0  0
   41.2969   28.1622   39.0603 H   0  0  0  0  0  0  0  0  0  0  0  0
   41.5393   28.0224   37.2139 H   0  0  0  0  0  0  0  0  0  0  0  0
   39.5141   29.3685   38.8095 H   0  0  0  0  0  0  0  0  0  0  0  0
   36.8139   31.9594   41.7025 H   0  0  0  0  0  0  0  0  0  0  0  0
   36.9366   33.4077   39.6951 H   0  0  0  0  0  0  0  0  0  0  0  0
   38.4697   28.9170   44.7367 H   0  0  0  0  0  0  0  0  0  0  0  0
   36.9141   26.9231   44.7296 H   0  0  0  0  0  0  0  0  0  0  0  0
   35.5019   26.5108   42.7187 H   0  0  0  0  0  0  0  0  0  0  0  0
   41.0310   30.9078   37.9167 H   0  0  0  0  0  0  0  0  0  0  0  0
   41.4304   29.8512   36.5200 H   0  0  0  0  0  0  0  0  0  0  0  0
   39.9063   30.8019   36.5200 H   0  0  0  0  0  0  0  0  0  0  0  0
  1  3  1  0
  1 13  1  0
  2  1  2  0
  3  8  1  0
  4  3  1  0
  4  5  1  0
  5  6  1  0
  6  7  1  0
  8  7  1  0
  9 10  2  0
  9 19  1  0
 11 10  1  0
 12 11  2  0
 13 12  1  0
 13 14  2  0
 14  9  1  0
 16 15  2  0
 17 16  1  0
 18 19  1  0
 18 17  2  0
 19 20  2  0
 20 15  1  0
 21  8  1  0
  4 22  1  0
  4 23  1  0
  5 24  1  0
  5 25  1  0
  6 26  1  0
  7 27  1  0
  7 28  1  0
  8 29  1  1
 10 30  1  0
 11 31  1  0
 15 32  1  0
 16 33  1  0
 17 34  1  0
 21 35  1  0
 21 36  1  0
 21 37  1  0
M  ISO  8  22  13  23  13  24  13  25  13  26   5  27  13  28  13  29  13
M  ISO  8  30  14  31  14  32  14  33  14  34  14  35   8  36   8  37   8
M  END
>  <minimizedAffinity>  (1) 
-4.17487001

>  <minimizedRMSD>  (1) 
0.401878566

$$$$
