
     RDKit          3D

 18 19  0  0  0  0  0  0  0  0999 V2000
   38.2040   29.0970   43.3000 C   0  0  0  0  0  0  0  0  0  0  0  0
   37.8500   27.7500   43.4970 C   0  0  0  0  0  0  0  0  0  0  0  0
   36.9280   27.1510   42.6440 C   0  0  0  0  0  0  0  0  0  0  0  0
   36.4190   27.9240   41.6530 N   0  0  0  0  0  0  0  0  0  0  0  0
   36.7540   29.2070   41.4620 C   0  0  0  0  0  0  0  0  0  0  0  0
   37.6470   29.7840   42.2920 N   0  0  0  0  0  0  0  0  0  0  0  0
   36.6220   25.8400   42.8830 O   0  0  0  0  0  0  0  0  0  0  0  0
   38.5080   23.2590   41.4930 N   0  0  0  0  0  0  0  0  0  0  0  0
   38.2600   24.2220   42.3490 N   0  0  0  0  0  0  0  0  0  0  0  0
   37.0650   24.7950   42.0840 C   0  0  0  0  0  0  0  0  0  0  0  0
   36.5580   24.1130   40.9760 C   0  0  0  0  0  0  0  0  0  0  0  0
   37.4910   23.1420   40.6180 C   0  0  0  0  0  0  0  0  0  0  0  0
   38.9315   29.5827   43.9670 H   0  0  0  0  0  0  0  0  0  0  0  0
   38.2989   27.1741   44.3197 H   0  0  0  0  0  0  0  0  0  0  0  0
   36.3063   29.7827   40.6385 H   0  0  0  0  0  0  0  0  0  0  0  0
   39.3576   22.6767   41.4906 H   0  0  0  0  0  0  0  0  0  0  0  0
   35.5972   24.3070   40.4768 H   0  0  0  0  0  0  0  0  0  0  0  0
   37.4126   22.4245   39.7879 H   0  0  0  0  0  0  0  0  0  0  0  0
  1  2  2  0
  3  7  1  0
  3  2  1  0
  4  3  2  0
  5  4  1  0
  5  6  2  0
  6  1  1  0
  8  9  1  0
 10  9  2  0
 10  7  1  0
 11 10  1  0
 12 11  2  0
 12  8  1  0
  1 13  1  0
  2 14  1  0
  5 15  1  0
  8 16  1  0
 11 17  1  0
 12 18  1  0
M  ISO  6  13  14  14  14  15  14  16   9  17  14  18  14
M  END
>  <minimizedAffinity>  (1) 
-3.91283584

>  <minimizedRMSD>  (1) 
1.77309644

$$$$
