
     RDKit          3D

 18 19  0  0  0  0  0  0  0  0999 V2000
   38.1590   29.0640   43.3340 C   0  0  0  0  0  0  0  0  0  0  0  0
   37.7930   27.7110   43.5670 C   0  0  0  0  0  0  0  0  0  0  0  0
   36.9020   27.1230   42.6740 C   0  0  0  0  0  0  0  0  0  0  0  0
   36.4250   27.8710   41.6230 N   0  0  0  0  0  0  0  0  0  0  0  0
   36.8010   29.1500   41.4430 C   0  0  0  0  0  0  0  0  0  0  0  0
   37.6620   29.7440   42.2920 N   0  0  0  0  0  0  0  0  0  0  0  0
   36.5740   25.8220   42.9290 O   0  0  0  0  0  0  0  0  0  0  0  0
   37.0710   24.8160   42.1470 C   0  0  0  0  0  0  0  0  0  0  0  0
   36.5900   24.1560   41.0440 C   0  0  0  0  0  0  0  0  0  0  0  0
   37.4830   23.2000   40.6100 C   0  0  0  0  0  0  0  0  0  0  0  0
   38.5070   23.3080   41.4770 N   0  0  0  0  0  0  0  0  0  0  0  0
   38.2870   24.2470   42.3850 N   0  0  0  0  0  0  0  0  0  0  0  0
   38.8612   29.5608   44.0196 H   0  0  0  0  0  0  0  0  0  0  0  0
   38.1987   27.1492   44.4213 H   0  0  0  0  0  0  0  0  0  0  0  0
   36.4000   29.7186   40.5910 H   0  0  0  0  0  0  0  0  0  0  0  0
   35.6197   24.3627   40.5689 H   0  0  0  0  0  0  0  0  0  0  0  0
   37.3827   22.5121   39.7575 H   0  0  0  0  0  0  0  0  0  0  0  0
   39.3588   22.7302   41.4390 H   0  0  0  0  0  0  0  0  0  0  0  0
  1  2  2  0
  3  7  1  0
  3  2  1  0
  4  3  2  0
  5  4  1  0
  5  6  2  0
  6  1  1  0
  8 12  2  0
  8  7  1  0
  9  8  1  0
 10  9  2  0
 10 11  1  0
 11 12  1  0
  1 13  1  0
  2 14  1  0
  5 15  1  0
  9 16  1  0
 10 17  1  0
 11 18  1  0
M  ISO  6  13  14  14  14  15  14  16  14  17  14  18   9
M  END
>  <minimizedAffinity>  (1) 
-3.87242484

>  <minimizedRMSD>  (1) 
1.89730334

$$$$
