
     RDKit          3D

 14 14  0  0  0  0  0  0  0  0999 V2000
   38.1450   29.2270   39.7660 C   0  0  0  0  0  0  0  0  0  0  0  0
   38.2780   28.9490   41.1350 C   0  0  0  0  0  0  0  0  0  0  0  0
   37.3880   29.5260   42.0320 C   0  0  0  0  0  0  0  0  0  0  0  0
   36.4040   30.3510   41.5420 N   0  0  0  0  0  0  0  0  0  0  0  0
   36.2970   30.6030   40.2110 C   0  0  0  0  0  0  0  0  0  0  0  0
   37.1550   30.0490   39.3390 N   0  0  0  0  0  0  0  0  0  0  0  0
   37.5420   29.2370   43.3590 O   0  0  0  0  0  0  0  0  0  0  0  0
   37.1990   28.0440   43.9950 C   0  0  0  0  0  0  0  0  0  0  0  0
   36.6700   28.4010   45.2430 F   0  0  0  0  0  0  0  0  0  0  0  0
   38.2870   27.2050   44.1140 F   0  0  0  0  0  0  0  0  0  0  0  0
   36.1930   27.4520   43.2560 F   0  0  0  0  0  0  0  0  0  0  0  0
   38.8416   28.7795   39.0418 H   0  0  0  0  0  0  0  0  0  0  0  0
   39.0767   28.2828   41.4932 H   0  0  0  0  0  0  0  0  0  0  0  0
   35.5002   31.2669   39.8444 H   0  0  0  0  0  0  0  0  0  0  0  0
  1  2  2  0
  2  3  1  0
  3  7  1  0
  4  3  2  0
  5  4  1  0
  6  1  1  0
  6  5  2  0
  7  8  1  0
  8 10  1  0
  8  9  1  0
 11  8  1  0
  1 12  1  0
  2 13  1  0
  5 14  1  0
M  ISO  3  12  14  13  14  14  14
M  END
>  <minimizedAffinity>  (1) 
-3.87186122

>  <minimizedRMSD>  (1) 
3.51861024

$$$$
