
     RDKit          3D

 24 25  0  0  0  0  0  0  0  0999 V2000
   38.3220   30.0870   41.8250 C   0  0  0  0  0  0  0  0  0  0  0  0
   38.6030   30.6160   40.5450 C   0  0  0  0  0  0  0  0  0  0  0  0
   38.4520   29.7290   39.5000 C   0  0  0  0  0  0  0  0  0  0  0  0
   38.0560   28.4400   39.7260 N   0  0  0  0  0  0  0  0  0  0  0  0
   37.7980   27.9800   40.9730 C   0  0  0  0  0  0  0  0  0  0  0  0
   37.9380   28.8240   42.0130 N   0  0  0  0  0  0  0  0  0  0  0  0
   39.0120   31.9700   40.4210 N   0  0  0  0  0  0  0  0  0  0  0  0
   38.1730   33.0780   40.6280 C   0  0  0  0  0  0  0  0  0  0  0  0
   36.9430   32.9510   40.1780 N   0  0  0  0  0  0  0  0  0  0  0  0
   38.7730   34.2110   41.3080 N   0  0  0  0  0  0  0  0  0  0  0  0
   36.2570   33.7120   40.2830 H   0  0  0  0  0  0  0  0  0  0  0  0
   37.3760   26.6020   41.2030 C   0  0  0  0  0  0  0  0  0  0  0  0
   37.2380   26.0100   42.4450 C   0  0  0  0  0  0  0  0  0  0  0  0
   36.8340   24.7360   42.2820 N   0  0  0  0  0  0  0  0  0  0  0  0
   36.7180   24.5270   40.9640 C   0  0  0  0  0  0  0  0  0  0  0  0
   37.0470   25.6590   40.3000 N   0  0  0  0  0  0  0  0  0  0  0  0
   38.4242   30.7437   42.7016 H   0  0  0  0  0  0  0  0  0  0  0  0
   38.6527   30.0628   38.4713 H   0  0  0  0  0  0  0  0  0  0  0  0
   39.9918   32.1527   40.1613 H   0  0  0  0  0  0  0  0  0  0  0  0
   38.2140   35.0563   41.4920 H   0  0  0  0  0  0  0  0  0  0  0  0
   39.7579   34.1698   41.6067 H   0  0  0  0  0  0  0  0  0  0  0  0
   37.4278   26.5010   43.4109 H   0  0  0  0  0  0  0  0  0  0  0  0
   36.4043   23.5828   40.4949 H   0  0  0  0  0  0  0  0  0  0  0  0
   37.0460   25.7791   39.2770 H   0  0  0  0  0  0  0  0  0  0  0  0
  1  6  2  0
  2  1  1  0
  3  4  1  0
  3  2  2  0
  4  5  2  0
  5 12  1  0
  5  6  1  0
  7  2  1  0
  7  8  1  0
  8 10  1  0
  9 11  1  0
  9  8  2  0
 12 13  2  0
 14 13  1  0
 15 14  2  0
 16 15  1  0
 16 12  1  0
  1 17  1  0
  3 18  1  0
  7 19  1  0
 10 20  1  0
 10 21  1  0
 13 22  1  0
 15 23  1  0
 16 24  1  0
M  ISO  5  17  14  18  14  22  14  23  14  24   9
M  END
>  <minimizedAffinity>  (1) 
-4.48076677

>  <minimizedRMSD>  (1) 
2.9327724

$$$$
