
     RDKit          3D

 32 35  0  0  0  0  0  0  0  0999 V2000
   39.9880   25.5090   43.5950 C   0  0  0  0  0  0  0  0  0  0  0  0
   39.3790   26.7680   43.8370 C   0  0  0  0  0  0  0  0  0  0  0  0
   38.2010   27.0900   43.1650 C   0  0  0  0  0  0  0  0  0  0  0  0
   37.6710   26.1760   42.2930 N   0  0  0  0  0  0  0  0  0  0  0  0
   38.2810   24.9860   42.0880 C   0  0  0  0  0  0  0  0  0  0  0  0
   39.4160   24.6580   42.7260 N   0  0  0  0  0  0  0  0  0  0  0  0
   37.6890   24.0340   41.1510 C   0  0  0  0  0  0  0  0  0  0  0  0
   36.4010   24.2120   40.6880 C   0  0  0  0  0  0  0  0  0  0  0  0
   35.7610   23.3760   39.8100 C   0  0  0  0  0  0  0  0  0  0  0  0
   36.4790   22.2660   39.3580 C   0  0  0  0  0  0  0  0  0  0  0  0
   37.7670   22.0850   39.8180 C   0  0  0  0  0  0  0  0  0  0  0  0
   38.4150   22.9300   40.7070 C   0  0  0  0  0  0  0  0  0  0  0  0
   37.6630   28.3180   43.4420 O   0  0  0  0  0  0  0  0  0  0  0  0
   38.9750   31.8640   40.8920 N   0  0  0  0  0  0  0  0  0  0  0  0
   39.8690   31.5440   41.8540 C   0  0  0  0  0  0  0  0  0  0  0  0
   39.3970   30.5000   42.5430 N   0  0  0  0  0  0  0  0  0  0  0  0
   38.1860   30.1070   42.0550 C   0  0  0  0  0  0  0  0  0  0  0  0
   37.2750   29.1180   42.3730 C   0  0  0  0  0  0  0  0  0  0  0  0
   36.1390   29.0260   41.6440 N   0  0  0  0  0  0  0  0  0  0  0  0
   35.9180   29.8860   40.6350 C   0  0  0  0  0  0  0  0  0  0  0  0
   36.7850   30.8660   40.2920 N   0  0  0  0  0  0  0  0  0  0  0  0
   37.9490   30.9950   41.0080 C   0  0  0  0  0  0  0  0  0  0  0  0
   40.9182   25.2327   44.1131 H   0  0  0  0  0  0  0  0  0  0  0  0
   39.8301   27.4793   44.5446 H   0  0  0  0  0  0  0  0  0  0  0  0
   35.8466   25.0902   41.0506 H   0  0  0  0  0  0  0  0  0  0  0  0
   34.7307   23.5700   39.4771 H   0  0  0  0  0  0  0  0  0  0  0  0
   36.0280   21.5532   38.6520 H   0  0  0  0  0  0  0  0  0  0  0  0
   38.3202   21.2069   39.4534 H   0  0  0  0  0  0  0  0  0  0  0  0
   39.4449   22.7394   41.0430 H   0  0  0  0  0  0  0  0  0  0  0  0
   39.0604   32.6248   40.2029 H   0  0  0  0  0  0  0  0  0  0  0  0
   40.8246   32.0566   42.0390 H   0  0  0  0  0  0  0  0  0  0  0  0
   34.9857   29.7880   40.0595 H   0  0  0  0  0  0  0  0  0  0  0  0
  1  2  2  0
  3 13  1  0
  3  2  1  0
  4  3  2  0
  5  4  1  0
  5  6  2  0
  6  1  1  0
  7  5  1  0
  8  7  2  0
  9  8  1  0
 10  9  2  0
 10 11  1  0
 11 12  2  0
 12  7  1  0
 14 22  1  0
 14 15  1  0
 15 16  2  0
 17 18  2  0
 17 16  1  0
 18 13  1  0
 19 18  1  0
 20 19  2  0
 21 20  1  0
 21 22  2  0
 22 17  1  0
  1 23  1  0
  2 24  1  0
  8 25  1  0
  9 26  1  0
 10 27  1  0
 11 28  1  0
 12 29  1  0
 14 30  1  0
 15 31  1  0
 20 32  1  0
M  ISO  8  23  14  24  14  25  14  26  14  27  14  28  14  29  14  30   9
M  ISO  2  31  14  32  14
M  END
>  <minimizedAffinity>  (1) 
-5.70495415

>  <minimizedRMSD>  (1) 
5.2843008

$$$$
