
     RDKit          3D

 29 32  0  0  0  0  0  0  0  0999 V2000
   36.7020   27.7210   42.8050 O   0  0  0  0  0  0  0  0  0  0  0  0
   35.6280   29.6530   39.9100 C   0  0  0  0  0  0  0  0  0  0  0  0
   35.6360   28.6990   40.9560 C   0  0  0  0  0  0  0  0  0  0  0  0
   36.7530   28.6570   41.8210 C   0  0  0  0  0  0  0  0  0  0  0  0
   37.7740   29.5340   41.6110 N   0  0  0  0  0  0  0  0  0  0  0  0
   37.7340   30.4280   40.6060 C   0  0  0  0  0  0  0  0  0  0  0  0
   36.6830   30.4960   39.7620 N   0  0  0  0  0  0  0  0  0  0  0  0
   38.7860   31.3510   40.3680 N   0  0  0  0  0  0  0  0  0  0  0  0
   39.0600   32.4900   41.0690 C   0  0  0  0  0  0  0  0  0  0  0  0
   40.1780   33.1200   40.5180 C   0  0  0  0  0  0  0  0  0  0  0  0
   40.5790   32.3480   39.4710 N   0  0  0  0  0  0  0  0  0  0  0  0
   39.7230   31.2920   39.4050 C   0  0  0  0  0  0  0  0  0  0  0  0
   38.5940   23.6850   41.8910 N   0  0  0  0  0  0  0  0  0  0  0  0
   37.3950   23.8210   41.3080 C   0  0  0  0  0  0  0  0  0  0  0  0
   36.9170   25.0370   41.6330 N   0  0  0  0  0  0  0  0  0  0  0  0
   37.7970   25.7020   42.4280 C   0  0  0  0  0  0  0  0  0  0  0  0
   37.8250   26.9510   43.0420 C   0  0  0  0  0  0  0  0  0  0  0  0
   38.9090   27.2750   43.7820 N   0  0  0  0  0  0  0  0  0  0  0  0
   39.9280   26.4190   43.9210 C   0  0  0  0  0  0  0  0  0  0  0  0
   39.9360   25.1930   43.3380 N   0  0  0  0  0  0  0  0  0  0  0  0
   38.8630   24.8160   42.5780 C   0  0  0  0  0  0  0  0  0  0  0  0
   34.7725   29.7113   39.2211 H   0  0  0  0  0  0  0  0  0  0  0  0
   34.7924   28.0064   41.0924 H   0  0  0  0  0  0  0  0  0  0  0  0
   38.4881   32.8554   41.9347 H   0  0  0  0  0  0  0  0  0  0  0  0
   40.6429   34.0556   40.8622 H   0  0  0  0  0  0  0  0  0  0  0  0
   39.7893   30.4890   38.6561 H   0  0  0  0  0  0  0  0  0  0  0  0
   39.2058   22.8589   41.8261 H   0  0  0  0  0  0  0  0  0  0  0  0
   36.8918   23.0734   40.6772 H   0  0  0  0  0  0  0  0  0  0  0  0
   40.7924   26.7202   44.5310 H   0  0  0  0  0  0  0  0  0  0  0  0
  1 17  1  0
  2  3  2  0
  3  4  1  0
  4  1  1  0
  5  4  2  0
  6  5  1  0
  7  2  1  0
  7  6  2  0
  8  6  1  0
  8  9  1  0
 10  9  2  0
 11 10  1  0
 12 11  2  0
 12  8  1  0
 13 21  1  0
 14 15  2  0
 14 13  1  0
 15 16  1  0
 16 21  2  0
 16 17  1  0
 17 18  2  0
 18 19  1  0
 20 19  2  0
 21 20  1  0
  2 22  1  0
  3 23  1  0
  9 24  1  0
 10 25  1  0
 12 26  1  0
 13 27  1  0
 14 28  1  0
 19 29  1  0
M  ISO  8  22  14  23  14  24  14  25  14  26  14  27   9  28  14  29  14
M  END
>  <minimizedAffinity>  (1) 
-5.64322901

>  <minimizedRMSD>  (1) 
6.03745794

$$$$
