
     RDKit          3D

 30 33  0  0  0  0  0  0  0  0999 V2000
   40.0000   25.4740   43.5730 C   0  0  0  0  0  0  0  0  0  0  0  0
   39.4510   26.7490   43.8660 C   0  0  0  0  0  0  0  0  0  0  0  0
   38.2580   27.1100   43.2220 C   0  0  0  0  0  0  0  0  0  0  0  0
   37.6860   26.2370   42.3560 N   0  0  0  0  0  0  0  0  0  0  0  0
   38.2410   25.0290   42.1030 C   0  0  0  0  0  0  0  0  0  0  0  0
   39.3840   24.6520   42.7050 N   0  0  0  0  0  0  0  0  0  0  0  0
   37.6300   24.0860   41.1720 C   0  0  0  0  0  0  0  0  0  0  0  0
   38.2580   22.9480   40.7270 C   0  0  0  0  0  0  0  0  0  0  0  0
   37.7020   22.0430   39.8490 C   0  0  0  0  0  0  0  0  0  0  0  0
   36.4600   22.3350   39.4280 N   0  0  0  0  0  0  0  0  0  0  0  0
   35.7960   23.4170   39.8190 C   0  0  0  0  0  0  0  0  0  0  0  0
   36.3920   24.2590   40.6740 N   0  0  0  0  0  0  0  0  0  0  0  0
   37.7610   28.3430   43.5290 O   0  0  0  0  0  0  0  0  0  0  0  0
   39.6190   31.7630   41.1690 N   0  0  0  0  0  0  0  0  0  0  0  0
   40.4420   31.2780   42.1180 C   0  0  0  0  0  0  0  0  0  0  0  0
   39.8120   30.2820   42.7550 N   0  0  0  0  0  0  0  0  0  0  0  0
   38.5760   30.0950   42.2420 C   0  0  0  0  0  0  0  0  0  0  0  0
   37.5160   29.2390   42.4990 C   0  0  0  0  0  0  0  0  0  0  0  0
   36.3880   29.3460   41.7550 N   0  0  0  0  0  0  0  0  0  0  0  0
   36.3110   30.2710   40.7900 C   0  0  0  0  0  0  0  0  0  0  0  0
   37.3220   31.1270   40.5070 N   0  0  0  0  0  0  0  0  0  0  0  0
   38.4820   31.0570   41.2320 C   0  0  0  0  0  0  0  0  0  0  0  0
   40.9345   25.1561   44.0584 H   0  0  0  0  0  0  0  0  0  0  0  0
   39.9440   27.4313   44.5741 H   0  0  0  0  0  0  0  0  0  0  0  0
   39.2740   22.7454   41.0968 H   0  0  0  0  0  0  0  0  0  0  0  0
   38.2387   21.1426   39.5155 H   0  0  0  0  0  0  0  0  0  0  0  0
   34.7796   23.6172   39.4491 H   0  0  0  0  0  0  0  0  0  0  0  0
   39.8250   32.5329   40.5165 H   0  0  0  0  0  0  0  0  0  0  0  0
   41.4587   31.6383   42.3335 H   0  0  0  0  0  0  0  0  0  0  0  0
   35.3849   30.3389   40.2004 H   0  0  0  0  0  0  0  0  0  0  0  0
  1  2  2  0
  3 13  1  0
  3  2  1  0
  4  3  2  0
  5  4  1  0
  5  6  2  0
  6  1  1  0
  7  5  1  0
  8  7  2  0
  9  8  1  0
 10 11  1  0
 10  9  2  0
 11 12  2  0
 12  7  1  0
 14 22  1  0
 14 15  1  0
 15 16  2  0
 17 18  2  0
 17 16  1  0
 18 13  1  0
 19 18  1  0
 20 19  2  0
 21 20  1  0
 21 22  2  0
 22 17  1  0
  1 23  1  0
  2 24  1  0
  8 25  1  0
  9 26  1  0
 11 27  1  0
 14 28  1  0
 15 29  1  0
 20 30  1  0
M  ISO  8  23  14  24  14  25  14  26  14  27  14  28   9  29  14  30  14
M  END
>  <minimizedAffinity>  (1) 
-5.32875729

>  <minimizedRMSD>  (1) 
5.28789091

$$$$
