
     RDKit          3D

 29 32  0  0  0  0  0  0  0  0999 V2000
   39.3130   24.3880   42.7620 C   0  0  0  0  0  0  0  0  0  0  0  0
   38.0820   25.0070   42.3880 C   0  0  0  0  0  0  0  0  0  0  0  0
   38.0060   26.4100   42.5040 C   0  0  0  0  0  0  0  0  0  0  0  0
   39.0870   27.1160   42.9610 N   0  0  0  0  0  0  0  0  0  0  0  0
   40.2260   26.4790   43.3000 C   0  0  0  0  0  0  0  0  0  0  0  0
   40.3460   25.1430   43.2060 N   0  0  0  0  0  0  0  0  0  0  0  0
   41.3640   27.1880   43.7770 N   0  0  0  0  0  0  0  0  0  0  0  0
   42.0570   26.7390   44.8330 N   0  0  0  0  0  0  0  0  0  0  0  0
   43.0820   27.5430   45.1190 C   0  0  0  0  0  0  0  0  0  0  0  0
   43.0480   28.5730   44.1920 C   0  0  0  0  0  0  0  0  0  0  0  0
   41.9640   28.3390   43.3540 C   0  0  0  0  0  0  0  0  0  0  0  0
   36.8130   26.9650   42.1370 O   0  0  0  0  0  0  0  0  0  0  0  0
   36.5000   30.7950   39.6880 N   0  0  0  0  0  0  0  0  0  0  0  0
   36.6250   31.0330   41.0040 C   0  0  0  0  0  0  0  0  0  0  0  0
   36.7100   29.8580   41.6370 N   0  0  0  0  0  0  0  0  0  0  0  0
   36.6420   28.8370   40.7580 C   0  0  0  0  0  0  0  0  0  0  0  0
   36.6770   27.4520   40.8470 C   0  0  0  0  0  0  0  0  0  0  0  0
   36.5780   26.7110   39.7000 N   0  0  0  0  0  0  0  0  0  0  0  0
   36.4500   27.3420   38.5200 C   0  0  0  0  0  0  0  0  0  0  0  0
   36.4120   28.6880   38.3950 N   0  0  0  0  0  0  0  0  0  0  0  0
   36.5090   29.4650   39.5220 C   0  0  0  0  0  0  0  0  0  0  0  0
   39.4226   23.2959   42.6894 H   0  0  0  0  0  0  0  0  0  0  0  0
   37.2293   24.4145   42.0249 H   0  0  0  0  0  0  0  0  0  0  0  0
   43.8118   27.4139   45.9318 H   0  0  0  0  0  0  0  0  0  0  0  0
   43.7488   29.4186   44.1309 H   0  0  0  0  0  0  0  0  0  0  0  0
   41.6481   28.9654   42.5067 H   0  0  0  0  0  0  0  0  0  0  0  0
   36.4134   31.5028   38.9447 H   0  0  0  0  0  0  0  0  0  0  0  0
   36.6527   32.0245   41.4796 H   0  0  0  0  0  0  0  0  0  0  0  0
   36.3721   26.7315   37.6083 H   0  0  0  0  0  0  0  0  0  0  0  0
  1  6  2  0
  2  3  2  0
  2  1  1  0
  3  4  1  0
  4  5  2  0
  5  7  1  0
  6  5  1  0
  7  8  1  0
  8  9  2  0
 10  9  1  0
 11  7  1  0
 11 10  2  0
 12  3  1  0
 13 14  1  0
 14 15  2  0
 16 17  2  0
 16 15  1  0
 17 12  1  0
 18 17  1  0
 19 18  2  0
 20 19  1  0
 20 21  2  0
 21 13  1  0
 21 16  1  0
  1 22  1  0
  2 23  1  0
  9 24  1  0
 10 25  1  0
 11 26  1  0
 13 27  1  0
 14 28  1  0
 19 29  1  0
M  ISO  8  22  14  23  14  24  14  25  14  26  14  27   9  28  14  29  14
M  END
>  <minimizedAffinity>  (1) 
-5.00255108

>  <minimizedRMSD>  (1) 
2.70004869

$$$$
