
     RDKit          3D

 28 30  0  0  0  0  0  0  0  0999 V2000
   39.4360   28.3490   40.7660 O   0  0  0  0  0  0  0  0  0  0  0  0
   35.4120   30.4750   40.8160 N   0  0  0  0  0  0  0  0  0  0  0  0
   35.2910   29.1290   40.7700 C   0  0  0  0  0  0  0  0  0  0  0  0
   36.5170   28.5970   40.7590 N   0  0  0  0  0  0  0  0  0  0  0  0
   37.4600   29.5740   40.7970 C   0  0  0  0  0  0  0  0  0  0  0  0
   38.8500   29.6050   40.8060 C   0  0  0  0  0  0  0  0  0  0  0  0
   39.4820   30.8100   40.8490 N   0  0  0  0  0  0  0  0  0  0  0  0
   38.7610   31.9340   40.8830 C   0  0  0  0  0  0  0  0  0  0  0  0
   37.3990   31.9580   40.8760 N   0  0  0  0  0  0  0  0  0  0  0  0
   36.7250   30.7640   40.8330 C   0  0  0  0  0  0  0  0  0  0  0  0
   39.6220   26.2630   43.7360 C   0  0  0  0  0  0  0  0  0  0  0  0
   39.1450   26.8360   42.5310 C   0  0  0  0  0  0  0  0  0  0  0  0
   39.9360   27.8230   41.9300 C   0  0  0  0  0  0  0  0  0  0  0  0
   41.1180   28.1920   42.5170 N   0  0  0  0  0  0  0  0  0  0  0  0
   41.5230   27.6170   43.6600 C   0  0  0  0  0  0  0  0  0  0  0  0
   40.7990   26.6640   44.2750 N   0  0  0  0  0  0  0  0  0  0  0  0
   42.7950   27.9970   44.3160 C   0  0  0  0  0  0  0  0  0  0  0  0
   42.9810   27.3290   45.6550 C   0  0  0  0  0  0  0  0  0  0  0  0
   34.6388   31.1553   40.8346 H   0  0  0  0  0  0  0  0  0  0  0  0
   34.3452   28.5678   40.7458 H   0  0  0  0  0  0  0  0  0  0  0  0
   39.2971   32.8939   40.9186 H   0  0  0  0  0  0  0  0  0  0  0  0
   39.0305   25.4842   44.2395 H   0  0  0  0  0  0  0  0  0  0  0  0
   38.1910   26.5180   42.0852 H   0  0  0  0  0  0  0  0  0  0  0  0
   43.6294   27.7085   43.6598 H   0  0  0  0  0  0  0  0  0  0  0  0
   42.7692   29.0833   44.4872 H   0  0  0  0  0  0  0  0  0  0  0  0
   42.7792   28.0537   46.4575 H   0  0  0  0  0  0  0  0  0  0  0  0
   42.2845   26.4821   45.7421 H   0  0  0  0  0  0  0  0  0  0  0  0
   44.0150   26.9639   45.7421 H   0  0  0  0  0  0  0  0  0  0  0  0
  1  6  1  0
  1 13  1  0
  2 10  1  0
  3  2  1  0
  4  3  2  0
  4  5  1  0
  5  6  1  0
  5 10  2  0
  6  7  2  0
  7  8  1  0
  9  8  2  0
 10  9  1  0
 11 16  2  0
 12 11  1  0
 13 14  1  0
 13 12  2  0
 14 15  2  0
 15 16  1  0
 15 17  1  0
 17 18  1  0
  2 19  1  0
  3 20  1  0
  8 21  1  0
 11 22  1  0
 12 23  1  0
 17 24  1  0
 17 25  1  0
 18 26  1  0
 18 27  1  0
 18 28  1  0
M  ISO  8  19   9  20  14  21  14  22  14  23  14  24   8  25   8  26   8
M  ISO  2  27   8  28   8
M  END
>  <minimizedAffinity>  (1) 
-4.44916487

>  <minimizedRMSD>  (1) 
1.48091412

$$$$
