
     RDKit          3D

 22 24  0  0  0  0  0  0  0  0999 V2000
   37.7410   27.7580   43.6520 C   0  0  0  0  0  0  0  0  0  0  0  0
   36.5630   27.5940   42.8870 C   0  0  0  0  0  0  0  0  0  0  0  0
   36.3940   28.4220   41.7820 C   0  0  0  0  0  0  0  0  0  0  0  0
   37.3550   29.3440   41.4850 N   0  0  0  0  0  0  0  0  0  0  0  0
   38.4600   29.4740   42.2330 C   0  0  0  0  0  0  0  0  0  0  0  0
   38.6460   28.6800   43.3100 N   0  0  0  0  0  0  0  0  0  0  0  0
   39.4850   30.4110   41.9720 N   0  0  0  0  0  0  0  0  0  0  0  0
   40.5360   30.3790   42.7970 N   0  0  0  0  0  0  0  0  0  0  0  0
   41.4190   31.3340   42.4120 C   0  0  0  0  0  0  0  0  0  0  0  0
   40.8570   31.9480   41.3120 C   0  0  0  0  0  0  0  0  0  0  0  0
   39.6390   31.3640   41.0380 C   0  0  0  0  0  0  0  0  0  0  0  0
   38.6690   31.6270   40.0190 C   0  0  0  0  0  0  0  0  0  0  0  0
   37.7610   32.6100   40.2680 N   0  0  0  0  0  0  0  0  0  0  0  0
   36.9540   32.7240   39.2460 O   0  0  0  0  0  0  0  0  0  0  0  0
   37.3060   31.8390   38.3280 C   0  0  0  0  0  0  0  0  0  0  0  0
   38.3790   31.1430   38.7960 N   0  0  0  0  0  0  0  0  0  0  0  0
   37.9134   27.1231   44.5336 H   0  0  0  0  0  0  0  0  0  0  0  0
   35.8086   26.8399   43.1557 H   0  0  0  0  0  0  0  0  0  0  0  0
   35.4950   28.3344   41.1542 H   0  0  0  0  0  0  0  0  0  0  0  0
   42.3855   31.5705   42.8810 H   0  0  0  0  0  0  0  0  0  0  0  0
   41.3096   32.7736   40.7432 H   0  0  0  0  0  0  0  0  0  0  0  0
   36.8163   31.6907   37.3542 H   0  0  0  0  0  0  0  0  0  0  0  0
  2  1  2  0
  3  2  1  0
  4  3  2  0
  4  5  1  0
  5  6  2  0
  6  1  1  0
  7  5  1  0
  7  8  1  0
  9  8  2  0
 10  9  1  0
 11 10  2  0
 11  7  1  0
 12 13  2  0
 12 11  1  0
 14 13  1  0
 15 16  2  0
 15 14  1  0
 16 12  1  0
  1 17  1  0
  2 18  1  0
  3 19  1  0
  9 20  1  0
 10 21  1  0
 15 22  1  0
M  ISO  6  17  14  18  14  19  14  20  14  21  14  22  14
M  END
>  <minimizedAffinity>  (1) 
-4.30546808

>  <minimizedRMSD>  (1) 
2.66264963

$$$$
