
     RDKit          3D

 19 19  0  0  0  0  0  0  0  0999 V2000
   38.8960   29.5910   42.3320 C   0  0  0  0  0  0  0  0  0  0  0  0
   38.0770   29.3220   41.1950 C   0  0  0  0  0  0  0  0  0  0  0  0
   37.7600   27.9930   41.0230 C   0  0  0  0  0  0  0  0  0  0  0  0
   38.2020   27.0390   41.8780 N   0  0  0  0  0  0  0  0  0  0  0  0
   38.9760   27.3570   42.9410 C   0  0  0  0  0  0  0  0  0  0  0  0
   39.3140   28.6230   43.1570 N   0  0  0  0  0  0  0  0  0  0  0  0
   39.4850   26.4310   43.8890 N   0  0  0  0  0  0  0  0  0  0  0  0
   37.6790   30.4090   40.3750 N   0  0  0  0  0  0  0  0  0  0  0  0
   36.6850   31.3640   40.7290 C   0  0  0  0  0  0  0  0  0  0  0  0
   35.6450   30.8820   41.3730 N   0  0  0  0  0  0  0  0  0  0  0  0
   36.9560   32.7140   40.3340 N   0  0  0  0  0  0  0  0  0  0  0  0
   34.8780   31.4970   41.6840 H   0  0  0  0  0  0  0  0  0  0  0  0
   39.1943   30.6296   42.5378 H   0  0  0  0  0  0  0  0  0  0  0  0
   37.1318   27.6981   40.1695 H   0  0  0  0  0  0  0  0  0  0  0  0
   40.0686   26.7622   44.6704 H   0  0  0  0  0  0  0  0  0  0  0  0
   39.2707   25.4279   43.7954 H   0  0  0  0  0  0  0  0  0  0  0  0
   38.1412   30.5143   39.4606 H   0  0  0  0  0  0  0  0  0  0  0  0
   36.2820   33.4606   40.5557 H   0  0  0  0  0  0  0  0  0  0  0  0
   37.8249   32.9381   39.8283 H   0  0  0  0  0  0  0  0  0  0  0  0
  1  6  2  0
  2  1  1  0
  3  2  2  0
  3  4  1  0
  4  5  2  0
  5  6  1  0
  5  7  1  0
  8  9  1  0
  8  2  1  0
  9 10  2  0
 10 12  1  0
 11  9  1  0
  1 13  1  0
  3 14  1  0
  7 15  1  0
  7 16  1  0
  8 17  1  0
 11 18  1  0
 11 19  1  0
M  ISO  2  13  14  14  14
M  END
>  <minimizedAffinity>  (1) 
-4.24827147

>  <minimizedRMSD>  (1) 
0.451151431

$$$$
