
     RDKit          3D

 39 43  0  0  0  0  0  0  0  0999 V2000
   43.1600   25.7040   43.1810 C   0  0  0  0  0  0  0  0  0  0  0  0
   41.8450   26.0750   42.8550 C   0  0  0  0  0  0  0  0  0  0  0  0
   41.1200   26.8690   43.7430 C   0  0  0  0  0  0  0  0  0  0  0  0
   41.7350   27.2600   44.9160 N   0  0  0  0  0  0  0  0  0  0  0  0
   42.9930   26.8820   45.1840 C   0  0  0  0  0  0  0  0  0  0  0  0
   43.7010   26.1200   44.3420 N   0  0  0  0  0  0  0  0  0  0  0  0
   41.2290   25.6370   41.5970 C   0  0  0  0  0  0  0  0  0  0  0  0
   41.6270   25.8330   40.2990 C   0  0  0  0  0  0  0  0  0  0  0  0
   40.7210   25.2330   39.4990 N   0  0  0  0  0  0  0  0  0  0  0  0
   39.7740   24.6710   40.2730 C   0  0  0  0  0  0  0  0  0  0  0  0
   38.6450   23.9490   39.9270 C   0  0  0  0  0  0  0  0  0  0  0  0
   37.8030   23.4610   40.9040 C   0  0  0  0  0  0  0  0  0  0  0  0
   38.0990   23.7010   42.2290 C   0  0  0  0  0  0  0  0  0  0  0  0
   39.2250   24.4230   42.6300 C   0  0  0  0  0  0  0  0  0  0  0  0
   40.0450   24.8960   41.6080 C   0  0  0  0  0  0  0  0  0  0  0  0
   43.5990   27.3420   46.4760 C   0  0  0  0  0  0  0  0  0  0  0  0
   44.2840   28.5450   46.2980 F   0  0  0  0  0  0  0  0  0  0  0  0
   42.5920   27.6480   47.4070 F   0  0  0  0  0  0  0  0  0  0  0  0
   44.5180   26.4510   46.9840 F   0  0  0  0  0  0  0  0  0  0  0  0
   39.8430   27.2060   43.3860 O   0  0  0  0  0  0  0  0  0  0  0  0
   36.6100   29.7700   41.5010 N   0  0  0  0  0  0  0  0  0  0  0  0
   36.1650   28.5480   41.7860 C   0  0  0  0  0  0  0  0  0  0  0  0
   37.1920   27.8560   42.3430 N   0  0  0  0  0  0  0  0  0  0  0  0
   38.2930   28.6320   42.4140 C   0  0  0  0  0  0  0  0  0  0  0  0
   39.5990   28.4590   42.8760 C   0  0  0  0  0  0  0  0  0  0  0  0
   40.4640   29.4860   42.7890 N   0  0  0  0  0  0  0  0  0  0  0  0
   40.0670   30.6650   42.2590 C   0  0  0  0  0  0  0  0  0  0  0  0
   38.8080   30.8810   41.7960 N   0  0  0  0  0  0  0  0  0  0  0  0
   37.8990   29.8680   41.8660 C   0  0  0  0  0  0  0  0  0  0  0  0
   43.7447   25.0771   42.4917 H   0  0  0  0  0  0  0  0  0  0  0  0
   42.5226   26.3803   39.9698 H   0  0  0  0  0  0  0  0  0  0  0  0
   40.7493   25.2091   38.4697 H   0  0  0  0  0  0  0  0  0  0  0  0
   38.4181   23.7634   38.8668 H   0  0  0  0  0  0  0  0  0  0  0  0
   36.9057   22.8870   40.6294 H   0  0  0  0  0  0  0  0  0  0  0  0
   37.4211   23.3081   43.0011 H   0  0  0  0  0  0  0  0  0  0  0  0
   39.4512   24.6074   43.6906 H   0  0  0  0  0  0  0  0  0  0  0  0
   36.0538   30.5215   41.0689 H   0  0  0  0  0  0  0  0  0  0  0  0
   35.1491   28.1677   41.6033 H   0  0  0  0  0  0  0  0  0  0  0  0
   40.7963   31.4864   42.2000 H   0  0  0  0  0  0  0  0  0  0  0  0
  1  6  2  0
  2  1  1  0
  2  3  2  0
  3  4  1  0
  4  5  2  0
  5 16  1  0
  6  5  1  0
  7 15  1  0
  7  2  1  0
  8  7  2  0
  9 10  1  0
  9  8  1  0
 10 15  2  0
 11 10  1  0
 11 12  2  0
 12 13  1  0
 13 14  2  0
 15 14  1  0
 16 19  1  0
 16 18  1  0
 17 16  1  0
 20  3  1  0
 21 22  1  0
 21 29  1  0
 22 23  2  0
 23 24  1  0
 24 25  2  0
 25 20  1  0
 26 25  1  0
 27 26  2  0
 28 29  2  0
 28 27  1  0
 29 24  1  0
  1 30  1  0
  8 31  1  0
  9 32  1  0
 11 33  1  0
 12 34  1  0
 13 35  1  0
 14 36  1  0
 21 37  1  0
 22 38  1  0
 27 39  1  0
M  ISO  8  30  14  31  14  32   9  33  14  34  14  35  14  36  14  37   9
M  ISO  2  38  14  39  14
M  END
>  <minimizedAffinity>  (1) 
-5.82833481

>  <minimizedRMSD>  (1) 
1.90365827

$$$$
