
     RDKit          3D

 31 34  0  0  0  0  0  0  0  0999 V2000
   44.5860   26.4110   44.3690 C   0  0  0  0  0  0  0  0  0  0  0  0
   43.4180   26.4300   43.5940 C   0  0  0  0  0  0  0  0  0  0  0  0
   42.2440   26.9270   44.1700 C   0  0  0  0  0  0  0  0  0  0  0  0
   42.2860   27.3770   45.4720 N   0  0  0  0  0  0  0  0  0  0  0  0
   43.4320   27.3350   46.1610 C   0  0  0  0  0  0  0  0  0  0  0  0
   44.5710   26.8650   45.6390 N   0  0  0  0  0  0  0  0  0  0  0  0
   43.4090   25.9470   42.2250 C   0  0  0  0  0  0  0  0  0  0  0  0
   44.6000   26.0030   41.4200 C   0  0  0  0  0  0  0  0  0  0  0  0
   44.0310   25.2680   39.7860 S   0  0  0  0  0  0  0  0  0  0  0  0
   42.2950   25.0290   40.5100 C   0  0  0  0  0  0  0  0  0  0  0  0
   42.4160   25.4300   41.5550 N   0  0  0  0  0  0  0  0  0  0  0  0
   43.4120   27.8390   47.5690 C   0  0  0  0  0  0  0  0  0  0  0  0
   43.3790   29.2290   47.6000 F   0  0  0  0  0  0  0  0  0  0  0  0
   42.2170   27.4480   48.2050 F   0  0  0  0  0  0  0  0  0  0  0  0
   44.5260   27.4640   48.2880 F   0  0  0  0  0  0  0  0  0  0  0  0
   41.1220   26.9310   43.3860 O   0  0  0  0  0  0  0  0  0  0  0  0
   37.1250   29.0850   43.3480 N   0  0  0  0  0  0  0  0  0  0  0  0
   37.0080   27.8340   43.7860 C   0  0  0  0  0  0  0  0  0  0  0  0
   38.2440   27.2830   43.7590 N   0  0  0  0  0  0  0  0  0  0  0  0
   39.1510   28.1690   43.3090 C   0  0  0  0  0  0  0  0  0  0  0  0
   40.5230   28.1360   43.0860 C   0  0  0  0  0  0  0  0  0  0  0  0
   41.1250   29.2540   42.6110 N   0  0  0  0  0  0  0  0  0  0  0  0
   40.3940   30.3670   42.3640 C   0  0  0  0  0  0  0  0  0  0  0  0
   39.0610   30.4300   42.5700 N   0  0  0  0  0  0  0  0  0  0  0  0
   38.4080   29.3210   43.0500 C   0  0  0  0  0  0  0  0  0  0  0  0
   45.5210   26.0232   43.9385 H   0  0  0  0  0  0  0  0  0  0  0  0
   45.5961   26.3818   41.6928 H   0  0  0  0  0  0  0  0  0  0  0  0
   41.3991   24.6067   40.0315 H   0  0  0  0  0  0  0  0  0  0  0  0
   36.3539   29.7613   43.2537 H   0  0  0  0  0  0  0  0  0  0  0  0
   36.0800   27.3399   44.1096 H   0  0  0  0  0  0  0  0  0  0  0  0
   40.9090   31.2593   41.9785 H   0  0  0  0  0  0  0  0  0  0  0  0
  1  6  2  0
  2  3  2  0
  2  1  1  0
  3  4  1  0
  4  5  2  0
  5 12  1  0
  6  5  1  0
  7  2  1  0
  8  7  2  0
  9 10  1  0
  9  8  1  0
 10 11  2  0
 11  7  1  0
 12 13  1  0
 12 14  1  0
 12 15  1  0
 16  3  1  0
 17 18  1  0
 19 18  2  0
 20 19  1  0
 21 20  2  0
 21 16  1  0
 22 21  1  0
 23 24  1  0
 23 22  2  0
 24 25  2  0
 25 20  1  0
 25 17  1  0
  1 26  1  0
  8 27  1  0
 10 28  1  0
 17 29  1  0
 18 30  1  0
 23 31  1  0
M  ISO  6  26  14  27  14  28  14  29   9  30  14  31  14
M  END
>  <minimizedAffinity>  (1) 
-5.456779

>  <minimizedRMSD>  (1) 
0.192155257

$$$$
