
     RDKit          3D

 31 33  0  0  0  0  0  0  0  0999 V2000
   44.5120   26.1390   44.1010 C   0  0  0  0  0  0  0  0  0  0  0  0
   43.2630   26.2090   43.4510 C   0  0  0  0  0  0  0  0  0  0  0  0
   42.1610   26.7210   44.1360 C   0  0  0  0  0  0  0  0  0  0  0  0
   42.3430   27.1390   45.4270 N   0  0  0  0  0  0  0  0  0  0  0  0
   43.5520   27.0590   46.0220 C   0  0  0  0  0  0  0  0  0  0  0  0
   44.6260   26.5680   45.3740 N   0  0  0  0  0  0  0  0  0  0  0  0
   43.6720   27.5360   47.4340 C   0  0  0  0  0  0  0  0  0  0  0  0
   44.5020   28.6380   47.5110 F   0  0  0  0  0  0  0  0  0  0  0  0
   42.4330   27.9890   47.9000 F   0  0  0  0  0  0  0  0  0  0  0  0
   44.2030   26.5670   48.2740 F   0  0  0  0  0  0  0  0  0  0  0  0
   40.9740   26.7700   43.4730 O   0  0  0  0  0  0  0  0  0  0  0  0
   37.0940   29.1080   43.3560 N   0  0  0  0  0  0  0  0  0  0  0  0
   36.9060   27.8610   43.8170 C   0  0  0  0  0  0  0  0  0  0  0  0
   38.1170   27.2500   43.8120 N   0  0  0  0  0  0  0  0  0  0  0  0
   39.0660   28.0920   43.3560 C   0  0  0  0  0  0  0  0  0  0  0  0
   40.4360   27.9930   43.1480 C   0  0  0  0  0  0  0  0  0  0  0  0
   41.0940   29.0710   42.6620 N   0  0  0  0  0  0  0  0  0  0  0  0
   40.4320   30.2110   42.3880 C   0  0  0  0  0  0  0  0  0  0  0  0
   39.0960   30.3410   42.5790 N   0  0  0  0  0  0  0  0  0  0  0  0
   38.3850   29.2760   43.0700 C   0  0  0  0  0  0  0  0  0  0  0  0
   43.1150   25.7490   42.0660 C   0  0  0  0  0  0  0  0  0  0  0  0
   44.3930   25.7260   41.2720 C   0  0  0  0  0  0  0  0  0  0  0  0
   45.3887   25.7366   43.5724 H   0  0  0  0  0  0  0  0  0  0  0  0
   36.3588   29.8203   43.2417 H   0  0  0  0  0  0  0  0  0  0  0  0
   35.9512   27.4189   44.1378 H   0  0  0  0  0  0  0  0  0  0  0  0
   40.9964   31.0692   41.9944 H   0  0  0  0  0  0  0  0  0  0  0  0
   42.7053   24.7283   42.0857 H   0  0  0  0  0  0  0  0  0  0  0  0
   42.4520   26.4715   41.5675 H   0  0  0  0  0  0  0  0  0  0  0  0
   45.2516   25.7105   41.9595 H   0  0  0  0  0  0  0  0  0  0  0  0
   44.4147   24.8273   40.6380 H   0  0  0  0  0  0  0  0  0  0  0  0
   44.4470   26.6233   40.6380 H   0  0  0  0  0  0  0  0  0  0  0  0
  1  6  2  0
  2  1  1  0
  2  3  2  0
  3  4  1  0
  4  5  2  0
  5  7  1  0
  6  5  1  0
  7  8  1  0
  7  9  1  0
  7 10  1  0
 11  3  1  0
 12 13  1  0
 14 13  2  0
 15 14  1  0
 16 15  2  0
 16 11  1  0
 17 16  1  0
 18 19  1  0
 18 17  2  0
 19 20  2  0
 20 15  1  0
 20 12  1  0
 21  2  1  0
 22 21  1  0
  1 23  1  0
 12 24  1  0
 13 25  1  0
 18 26  1  0
 21 27  1  0
 21 28  1  0
 22 29  1  0
 22 30  1  0
 22 31  1  0
M  ISO  8  23  14  24   9  25  14  26  14  27   8  28   8  29   8  30   8
M  ISO  1  31   8
M  END
>  <minimizedAffinity>  (1) 
-5.23293877

>  <minimizedRMSD>  (1) 
0.615439892

$$$$
