
     RDKit          3D

 27 29  0  0  0  0  0  0  0  0999 V2000
   44.5470   26.3350   44.4420 C   0  0  0  0  0  0  0  0  0  0  0  0
   43.3640   26.3560   43.6780 C   0  0  0  0  0  0  0  0  0  0  0  0
   42.1970   26.9050   44.2200 C   0  0  0  0  0  0  0  0  0  0  0  0
   42.2750   27.4040   45.4910 N   0  0  0  0  0  0  0  0  0  0  0  0
   43.4150   27.3680   46.1890 C   0  0  0  0  0  0  0  0  0  0  0  0
   44.5460   26.8440   45.6860 N   0  0  0  0  0  0  0  0  0  0  0  0
   43.4140   27.9390   47.5840 C   0  0  0  0  0  0  0  0  0  0  0  0
   43.4430   29.3300   47.5430 F   0  0  0  0  0  0  0  0  0  0  0  0
   42.2040   27.6380   48.2270 F   0  0  0  0  0  0  0  0  0  0  0  0
   44.5150   27.5510   48.3110 F   0  0  0  0  0  0  0  0  0  0  0  0
   43.4940   25.7740   42.3470 C   0  0  0  0  0  0  0  0  0  0  0  0
   44.5780   25.6180   41.7260 O   0  0  0  0  0  0  0  0  0  0  0  0
   41.0950   26.8930   43.4340 O   0  0  0  0  0  0  0  0  0  0  0  0
   37.1180   29.0870   43.3360 N   0  0  0  0  0  0  0  0  0  0  0  0
   36.9870   27.8320   43.8180 C   0  0  0  0  0  0  0  0  0  0  0  0
   38.2140   27.2700   43.8060 N   0  0  0  0  0  0  0  0  0  0  0  0
   39.1300   28.1530   43.3210 C   0  0  0  0  0  0  0  0  0  0  0  0
   40.5060   28.0990   43.0990 C   0  0  0  0  0  0  0  0  0  0  0  0
   41.1240   29.1820   42.5940 N   0  0  0  0  0  0  0  0  0  0  0  0
   40.4020   30.2970   42.3140 C   0  0  0  0  0  0  0  0  0  0  0  0
   39.0570   30.3800   42.5210 N   0  0  0  0  0  0  0  0  0  0  0  0
   38.4020   29.3020   43.0310 C   0  0  0  0  0  0  0  0  0  0  0  0
   45.4679   25.9039   44.0224 H   0  0  0  0  0  0  0  0  0  0  0  0
   42.5716   25.4452   41.8459 H   0  0  0  0  0  0  0  0  0  0  0  0
   36.3533   29.7676   43.2220 H   0  0  0  0  0  0  0  0  0  0  0  0
   36.0546   27.3569   44.1569 H   0  0  0  0  0  0  0  0  0  0  0  0
   40.9254   31.1723   41.9018 H   0  0  0  0  0  0  0  0  0  0  0  0
  1  6  2  0
  2  3  2  0
  2  1  1  0
  3  4  1  0
  4  5  2  0
  5  7  1  0
  6  5  1  0
  7  9  1  0
  7 10  1  0
  8  7  1  0
 11  2  1  0
 12 11  2  0
 13  3  1  0
 14 15  1  0
 16 15  2  0
 17 16  1  0
 18 17  2  0
 18 13  1  0
 19 18  1  0
 20 21  1  0
 20 19  2  0
 21 22  2  0
 22 17  1  0
 22 14  1  0
  1 23  1  0
 11 24  1  0
 14 25  1  0
 15 26  1  0
 20 27  1  0
M  ISO  5  23  14  24   6  25   9  26  14  27  14
M  END
>  <minimizedAffinity>  (1) 
-5.18225479

>  <minimizedRMSD>  (1) 
0.0840050802

$$$$
