
     RDKit          3D

 43 47  0  0  0  0  0  0  0  0999 V2000
   44.6390   26.6510   44.0660 C   0  0  0  0  0  0  0  0  0  0  0  0
   43.4090   26.6680   43.3870 C   0  0  0  0  0  0  0  0  0  0  0  0
   42.2450   26.9300   44.0960 C   0  0  0  0  0  0  0  0  0  0  0  0
   42.3450   27.1650   45.4450 N   0  0  0  0  0  0  0  0  0  0  0  0
   43.5360   27.1410   46.0620 C   0  0  0  0  0  0  0  0  0  0  0  0
   44.6880   26.8870   45.3930 N   0  0  0  0  0  0  0  0  0  0  0  0
   43.3040   26.4170   41.9470 C   0  0  0  0  0  0  0  0  0  0  0  0
   43.6780   27.3210   40.9830 C   0  0  0  0  0  0  0  0  0  0  0  0
   43.5880   27.1040   39.6180 C   0  0  0  0  0  0  0  0  0  0  0  0
   43.0880   25.9010   39.2200 N   0  0  0  0  0  0  0  0  0  0  0  0
   42.7200   25.0100   40.1610 C   0  0  0  0  0  0  0  0  0  0  0  0
   42.8190   25.2470   41.4790 N   0  0  0  0  0  0  0  0  0  0  0  0
   43.5820   27.4030   47.5310 C   0  0  0  0  0  0  0  0  0  0  0  0
   44.3940   28.4880   47.8120 F   0  0  0  0  0  0  0  0  0  0  0  0
   42.3150   27.7890   47.9990 F   0  0  0  0  0  0  0  0  0  0  0  0
   44.0780   26.3190   48.2550 F   0  0  0  0  0  0  0  0  0  0  0  0
   41.0610   26.9400   43.4080 O   0  0  0  0  0  0  0  0  0  0  0  0
   37.0960   29.1210   43.3060 N   0  0  0  0  0  0  0  0  0  0  0  0
   36.9600   27.8480   43.7450 C   0  0  0  0  0  0  0  0  0  0  0  0
   38.1920   27.2900   43.7380 N   0  0  0  0  0  0  0  0  0  0  0  0
   39.1080   28.1890   43.3000 C   0  0  0  0  0  0  0  0  0  0  0  0
   40.4760   28.1470   43.1030 C   0  0  0  0  0  0  0  0  0  0  0  0
   41.1060   29.2640   42.6380 N   0  0  0  0  0  0  0  0  0  0  0  0
   40.3760   30.3740   42.3860 C   0  0  0  0  0  0  0  0  0  0  0  0
   39.0310   30.4420   42.5720 N   0  0  0  0  0  0  0  0  0  0  0  0
   38.3840   29.3460   43.0320 C   0  0  0  0  0  0  0  0  0  0  0  0
   41.0740   31.5640   41.8860 C   0  0  0  0  0  0  0  0  0  0  0  0
   40.4990   32.3720   40.9370 C   0  0  0  0  0  0  0  0  0  0  0  0
   41.2010   33.4790   40.5030 C   0  0  0  0  0  0  0  0  0  0  0  0
   42.4510   33.7690   41.0090 C   0  0  0  0  0  0  0  0  0  0  0  0
   43.0520   32.9550   41.9760 C   0  0  0  0  0  0  0  0  0  0  0  0
   42.3380   31.8330   42.4150 C   0  0  0  0  0  0  0  0  0  0  0  0
   45.5668   26.4441   43.5124 H   0  0  0  0  0  0  0  0  0  0  0  0
   44.0785   28.2886   41.3198 H   0  0  0  0  0  0  0  0  0  0  0  0
   43.9049   27.8660   38.8907 H   0  0  0  0  0  0  0  0  0  0  0  0
   42.3183   24.0398   39.8333 H   0  0  0  0  0  0  0  0  0  0  0  0
   36.3322   29.8039   43.2005 H   0  0  0  0  0  0  0  0  0  0  0  0
   36.0232   27.3589   44.0502 H   0  0  0  0  0  0  0  0  0  0  0  0
   39.5023   32.1430   40.5317 H   0  0  0  0  0  0  0  0  0  0  0  0
   40.7572   34.1389   39.7430 H   0  0  0  0  0  0  0  0  0  0  0  0
   42.9865   34.6583   40.6450 H   0  0  0  0  0  0  0  0  0  0  0  0
   44.0495   33.1882   42.3769 H   0  0  0  0  0  0  0  0  0  0  0  0
   42.7716   31.1656   43.1743 H   0  0  0  0  0  0  0  0  0  0  0  0
  1  6  2  0
  2  1  1  0
  2  3  2  0
  3  4  1  0
  4  5  2  0
  5 13  1  0
  6  5  1  0
  7  2  1  0
  8  7  2  0
  9  8  1  0
 10  9  2  0
 10 11  1  0
 11 12  2  0
 12  7  1  0
 13 14  1  0
 13 15  1  0
 13 16  1  0
 17  3  1  0
 18 19  1  0
 20 19  2  0
 21 20  1  0
 22 21  2  0
 22 17  1  0
 23 22  1  0
 24 25  1  0
 24 23  2  0
 25 26  2  0
 26 21  1  0
 26 18  1  0
 27 24  1  0
 27 32  1  0
 28 27  2  0
 29 28  1  0
 29 30  2  0
 30 31  1  0
 31 32  2  0
  1 33  1  0
  8 34  1  0
  9 35  1  0
 11 36  1  0
 18 37  1  0
 19 38  1  0
 28 39  1  0
 29 40  1  0
 30 41  1  0
 31 42  1  0
 32 43  1  0
M  ISO  8  33  14  34  14  35  14  36  14  37   9  38  14  39  14  40  14
M  ISO  3  41  14  42  14  43  14
M  END
>  <minimizedAffinity>  (1) 
-6.25586605

>  <minimizedRMSD>  (1) 
0.644428194

$$$$
