
     RDKit          3D

 24 25  0  0  0  0  0  0  0  0999 V2000
   37.6830   30.5030   41.1370 C   0  0  0  0  0  0  0  0  0  0  0  0
   38.6040   29.8110   41.9810 C   0  0  0  0  0  0  0  0  0  0  0  0
   39.7350   30.5320   42.3010 C   0  0  0  0  0  0  0  0  0  0  0  0
   39.9360   31.7920   41.8410 N   0  0  0  0  0  0  0  0  0  0  0  0
   39.0280   32.3990   41.0430 C   0  0  0  0  0  0  0  0  0  0  0  0
   37.9220   31.7480   40.7060 N   0  0  0  0  0  0  0  0  0  0  0  0
   38.3040   28.4910   42.4110 N   0  0  0  0  0  0  0  0  0  0  0  0
   37.2590   28.1620   43.2970 C   0  0  0  0  0  0  0  0  0  0  0  0
   37.0620   29.0030   44.2900 N   0  0  0  0  0  0  0  0  0  0  0  0
   36.5420   26.9420   42.9930 N   0  0  0  0  0  0  0  0  0  0  0  0
   36.3330   28.8350   44.9970 H   0  0  0  0  0  0  0  0  0  0  0  0
   39.4200   33.7550   40.6490 C   0  0  0  0  0  0  0  0  0  0  0  0
   38.5880   34.8230   40.3320 C   0  0  0  0  0  0  0  0  0  0  0  0
   39.3660   35.9290   40.0140 C   0  0  0  0  0  0  0  0  0  0  0  0
   40.6540   35.4520   40.1620 C   0  0  0  0  0  0  0  0  0  0  0  0
   40.6370   34.2090   40.5250 O   0  0  0  0  0  0  0  0  0  0  0  0
   36.7531   30.0002   40.8331 H   0  0  0  0  0  0  0  0  0  0  0  0
   40.4963   30.0719   42.9481 H   0  0  0  0  0  0  0  0  0  0  0  0
   38.8891   27.7234   42.0513 H   0  0  0  0  0  0  0  0  0  0  0  0
   35.7650   26.6372   43.5966 H   0  0  0  0  0  0  0  0  0  0  0  0
   36.8087   26.3786   42.1731 H   0  0  0  0  0  0  0  0  0  0  0  0
   37.4883   34.7963   40.3329 H   0  0  0  0  0  0  0  0  0  0  0  0
   39.0375   36.9361   39.7175 H   0  0  0  0  0  0  0  0  0  0  0  0
   41.5656   36.0445   39.9950 H   0  0  0  0  0  0  0  0  0  0  0  0
  1  2  2  0
  2  3  1  0
  2  7  1  0
  4  3  2  0
  5  4  1  0
  6  5  2  0
  6  1  1  0
  7  8  1  0
  8  9  2  0
  9 11  1  0
 10  8  1  0
 12  5  1  0
 13 12  2  0
 14 15  2  0
 14 13  1  0
 15 16  1  0
 16 12  1  0
  1 17  1  0
  3 18  1  0
  7 19  1  0
 10 20  1  0
 10 21  1  0
 13 22  1  0
 14 23  1  0
 15 24  1  0
M  ISO  5  17  14  18  14  22  14  23  14  24  14
M  END
>  <minimizedAffinity>  (1) 
-4.87681246

>  <minimizedRMSD>  (1) 
7.22787237

$$$$
