
     RDKit          3D

 40 44  0  0  0  0  0  0  0  0999 V2000
   44.6100   26.4370   44.4620 C   0  0  0  0  0  0  0  0  0  0  0  0
   43.4500   26.4580   43.6730 C   0  0  0  0  0  0  0  0  0  0  0  0
   42.2720   26.9360   44.2370 C   0  0  0  0  0  0  0  0  0  0  0  0
   42.3040   27.3660   45.5430 N   0  0  0  0  0  0  0  0  0  0  0  0
   43.4290   27.3300   46.2630 C   0  0  0  0  0  0  0  0  0  0  0  0
   44.5910   26.8670   45.7340 N   0  0  0  0  0  0  0  0  0  0  0  0
   43.4180   26.0050   42.2970 C   0  0  0  0  0  0  0  0  0  0  0  0
   44.4580   26.1840   41.4040 C   0  0  0  0  0  0  0  0  0  0  0  0
   44.4600   25.7660   40.0940 C   0  0  0  0  0  0  0  0  0  0  0  0
   43.3510   25.1280   39.6440 N   0  0  0  0  0  0  0  0  0  0  0  0
   42.3220   24.9440   40.5060 C   0  0  0  0  0  0  0  0  0  0  0  0
   42.3440   25.3620   41.7860 N   0  0  0  0  0  0  0  0  0  0  0  0
   43.3950   27.8100   47.6690 C   0  0  0  0  0  0  0  0  0  0  0  0
   43.3380   29.1800   47.7250 F   0  0  0  0  0  0  0  0  0  0  0  0
   42.2150   27.3790   48.3030 F   0  0  0  0  0  0  0  0  0  0  0  0
   44.5080   27.4040   48.4000 F   0  0  0  0  0  0  0  0  0  0  0  0
   41.1500   26.9520   43.4600 O   0  0  0  0  0  0  0  0  0  0  0  0
   37.1930   29.1480   43.2780 N   0  0  0  0  0  0  0  0  0  0  0  0
   37.0410   27.8900   43.7300 C   0  0  0  0  0  0  0  0  0  0  0  0
   38.2730   27.3190   43.7480 N   0  0  0  0  0  0  0  0  0  0  0  0
   39.2040   28.2000   43.3130 C   0  0  0  0  0  0  0  0  0  0  0  0
   40.5800   28.1640   43.1290 C   0  0  0  0  0  0  0  0  0  0  0  0
   41.2160   29.2760   42.6570 N   0  0  0  0  0  0  0  0  0  0  0  0
   40.4880   30.3680   42.3880 C   0  0  0  0  0  0  0  0  0  0  0  0
   39.1600   30.4640   42.5470 N   0  0  0  0  0  0  0  0  0  0  0  0
   38.4810   29.3700   43.0180 C   0  0  0  0  0  0  0  0  0  0  0  0
   41.1990   31.5500   41.8820 C   0  0  0  0  0  0  0  0  0  0  0  0
   42.4810   31.9380   42.4600 C   0  0  0  0  0  0  0  0  0  0  0  0
   43.0670   33.0540   41.9230 C   0  0  0  0  0  0  0  0  0  0  0  0
   42.3920   33.7480   40.8500 C   0  0  0  0  0  0  0  0  0  0  0  0
   40.8820   32.7560   40.6260 S   0  0  0  0  0  0  0  0  0  0  0  0
   45.5504   26.0622   44.0316 H   0  0  0  0  0  0  0  0  0  0  0  0
   45.3561   26.7025   41.7709 H   0  0  0  0  0  0  0  0  0  0  0  0
   45.3254   25.9418   39.4381 H   0  0  0  0  0  0  0  0  0  0  0  0
   41.4223   24.4266   40.1416 H   0  0  0  0  0  0  0  0  0  0  0  0
   36.4332   29.8320   43.1526 H   0  0  0  0  0  0  0  0  0  0  0  0
   36.0958   27.4132   44.0290 H   0  0  0  0  0  0  0  0  0  0  0  0
   42.9487   31.3692   43.2772 H   0  0  0  0  0  0  0  0  0  0  0  0
   44.0343   33.4154   42.3020 H   0  0  0  0  0  0  0  0  0  0  0  0
   42.7105   34.6491   40.3055 H   0  0  0  0  0  0  0  0  0  0  0  0
  1  6  2  0
  2  3  2  0
  2  1  1  0
  3  4  1  0
  4  5  2  0
  5 13  1  0
  6  5  1  0
  7  2  1  0
  8  7  2  0
  9  8  1  0
 10  9  2  0
 10 11  1  0
 11 12  2  0
 12  7  1  0
 13 14  1  0
 13 15  1  0
 13 16  1  0
 17  3  1  0
 18 19  1  0
 19 20  2  0
 21 20  1  0
 22 21  2  0
 22 17  1  0
 23 22  1  0
 24 25  1  0
 24 23  2  0
 25 26  2  0
 26 18  1  0
 26 21  1  0
 27 24  1  0
 27 28  2  0
 29 28  1  0
 30 29  2  0
 31 30  1  0
 31 27  1  0
  1 32  1  0
  8 33  1  0
  9 34  1  0
 11 35  1  0
 18 36  1  0
 19 37  1  0
 28 38  1  0
 29 39  1  0
 30 40  1  0
M  ISO  8  32  14  33  14  34  14  35  14  36   9  37  14  38  14  39  14
M  ISO  1  40  14
M  END
>  <minimizedAffinity>  (1) 
-6.10007286

>  <minimizedRMSD>  (1) 
0.250391185

$$$$
