
     RDKit          3D

 40 44  0  0  0  0  0  0  0  0999 V2000
   44.5910   26.4310   44.4110 C   0  0  0  0  0  0  0  0  0  0  0  0
   43.4290   26.4530   43.6290 C   0  0  0  0  0  0  0  0  0  0  0  0
   42.2600   26.9320   44.1840 C   0  0  0  0  0  0  0  0  0  0  0  0
   42.2880   27.3710   45.4960 N   0  0  0  0  0  0  0  0  0  0  0  0
   43.4240   27.3290   46.2030 C   0  0  0  0  0  0  0  0  0  0  0  0
   44.5730   26.8650   45.6750 N   0  0  0  0  0  0  0  0  0  0  0  0
   43.3980   25.9880   42.2410 C   0  0  0  0  0  0  0  0  0  0  0  0
   44.4210   26.1530   41.3490 C   0  0  0  0  0  0  0  0  0  0  0  0
   44.4150   25.7240   40.0370 C   0  0  0  0  0  0  0  0  0  0  0  0
   43.2930   25.0840   39.5980 N   0  0  0  0  0  0  0  0  0  0  0  0
   42.2770   24.9140   40.4630 C   0  0  0  0  0  0  0  0  0  0  0  0
   42.3210   25.3450   41.7330 N   0  0  0  0  0  0  0  0  0  0  0  0
   43.3970   27.8170   47.6180 C   0  0  0  0  0  0  0  0  0  0  0  0
   43.3630   29.2010   47.6540 F   0  0  0  0  0  0  0  0  0  0  0  0
   42.2170   27.4190   48.2430 F   0  0  0  0  0  0  0  0  0  0  0  0
   44.5160   27.4180   48.3370 F   0  0  0  0  0  0  0  0  0  0  0  0
   41.1260   26.9480   43.4090 O   0  0  0  0  0  0  0  0  0  0  0  0
   37.1700   29.1380   43.3260 N   0  0  0  0  0  0  0  0  0  0  0  0
   37.0350   27.8880   43.7850 C   0  0  0  0  0  0  0  0  0  0  0  0
   38.2630   27.3150   43.7740 N   0  0  0  0  0  0  0  0  0  0  0  0
   39.1790   28.1890   43.3120 C   0  0  0  0  0  0  0  0  0  0  0  0
   40.5540   28.1530   43.0870 C   0  0  0  0  0  0  0  0  0  0  0  0
   41.1720   29.2570   42.5960 N   0  0  0  0  0  0  0  0  0  0  0  0
   40.4540   30.3580   42.3360 C   0  0  0  0  0  0  0  0  0  0  0  0
   39.1270   30.4530   42.5300 N   0  0  0  0  0  0  0  0  0  0  0  0
   38.4580   29.3660   43.0250 C   0  0  0  0  0  0  0  0  0  0  0  0
   41.0900   31.5530   41.8100 C   0  0  0  0  0  0  0  0  0  0  0  0
   42.3560   31.8960   42.2430 C   0  0  0  0  0  0  0  0  0  0  0  0
   42.6960   33.0680   41.5740 C   0  0  0  0  0  0  0  0  0  0  0  0
   41.5770   33.3210   40.7880 C   0  0  0  0  0  0  0  0  0  0  0  0
   40.6430   32.4200   40.9390 O   0  0  0  0  0  0  0  0  0  0  0  0
   45.5293   26.0521   43.9797 H   0  0  0  0  0  0  0  0  0  0  0  0
   45.3235   26.6704   41.7065 H   0  0  0  0  0  0  0  0  0  0  0  0
   45.2771   25.8909   39.3745 H   0  0  0  0  0  0  0  0  0  0  0  0
   41.3700   24.3989   40.1138 H   0  0  0  0  0  0  0  0  0  0  0  0
   36.4046   29.8190   43.2202 H   0  0  0  0  0  0  0  0  0  0  0  0
   36.0983   27.4126   44.1115 H   0  0  0  0  0  0  0  0  0  0  0  0
   42.9732   31.3508   42.9722 H   0  0  0  0  0  0  0  0  0  0  0  0
   43.6248   33.6526   41.6488 H   0  0  0  0  0  0  0  0  0  0  0  0
   41.4880   34.1850   40.1131 H   0  0  0  0  0  0  0  0  0  0  0  0
  1  6  2  0
  2  3  2  0
  2  1  1  0
  3  4  1  0
  4  5  2  0
  5 13  1  0
  6  5  1  0
  7  2  1  0
  8  7  2  0
  9  8  1  0
 10  9  2  0
 10 11  1  0
 11 12  2  0
 12  7  1  0
 13 14  1  0
 13 15  1  0
 13 16  1  0
 17  3  1  0
 18 19  1  0
 20 19  2  0
 21 20  1  0
 22 21  2  0
 22 17  1  0
 23 22  1  0
 24 25  1  0
 24 23  2  0
 25 26  2  0
 26 21  1  0
 26 18  1  0
 27 28  2  0
 27 24  1  0
 29 28  1  0
 30 31  1  0
 30 29  2  0
 31 27  1  0
  1 32  1  0
  8 33  1  0
  9 34  1  0
 11 35  1  0
 18 36  1  0
 19 37  1  0
 28 38  1  0
 29 39  1  0
 30 40  1  0
M  ISO  8  32  14  33  14  34  14  35  14  36   9  37  14  38  14  39  14
M  ISO  1  40  14
M  END
>  <minimizedAffinity>  (1) 
-6.07004642

>  <minimizedRMSD>  (1) 
0.191308752

$$$$
