
     RDKit          3D

 36 39  0  0  0  0  0  0  0  0999 V2000
   44.5880   26.4150   44.3820 C   0  0  0  0  0  0  0  0  0  0  0  0
   43.4200   26.4320   43.5970 C   0  0  0  0  0  0  0  0  0  0  0  0
   42.2430   26.9200   44.1580 C   0  0  0  0  0  0  0  0  0  0  0  0
   42.2810   27.3650   45.4650 N   0  0  0  0  0  0  0  0  0  0  0  0
   43.4240   27.3300   46.1780 C   0  0  0  0  0  0  0  0  0  0  0  0
   44.5730   26.8590   45.6460 N   0  0  0  0  0  0  0  0  0  0  0  0
   43.3820   25.9620   42.2170 C   0  0  0  0  0  0  0  0  0  0  0  0
   44.4200   26.1000   41.3340 C   0  0  0  0  0  0  0  0  0  0  0  0
   44.4040   25.6610   40.0270 C   0  0  0  0  0  0  0  0  0  0  0  0
   43.2760   25.0490   39.5860 N   0  0  0  0  0  0  0  0  0  0  0  0
   42.2440   24.9050   40.4450 C   0  0  0  0  0  0  0  0  0  0  0  0
   42.3020   25.3490   41.7170 N   0  0  0  0  0  0  0  0  0  0  0  0
   43.3930   27.8280   47.5890 C   0  0  0  0  0  0  0  0  0  0  0  0
   43.3650   29.2180   47.6140 F   0  0  0  0  0  0  0  0  0  0  0  0
   42.2050   27.4460   48.2150 F   0  0  0  0  0  0  0  0  0  0  0  0
   44.5140   27.4370   48.3090 F   0  0  0  0  0  0  0  0  0  0  0  0
   41.1090   26.9350   43.3930 O   0  0  0  0  0  0  0  0  0  0  0  0
   37.1490   29.1180   43.3430 N   0  0  0  0  0  0  0  0  0  0  0  0
   37.0140   27.8570   43.8040 C   0  0  0  0  0  0  0  0  0  0  0  0
   38.2550   27.2960   43.7780 N   0  0  0  0  0  0  0  0  0  0  0  0
   39.1640   28.1840   43.3070 C   0  0  0  0  0  0  0  0  0  0  0  0
   40.5270   28.1400   43.0790 C   0  0  0  0  0  0  0  0  0  0  0  0
   41.1430   29.2440   42.5840 N   0  0  0  0  0  0  0  0  0  0  0  0
   40.4160   30.3470   42.3310 C   0  0  0  0  0  0  0  0  0  0  0  0
   39.0840   30.4250   42.5430 N   0  0  0  0  0  0  0  0  0  0  0  0
   38.4360   29.3390   43.0350 C   0  0  0  0  0  0  0  0  0  0  0  0
   41.1750   31.5190   41.7880 C   0  0  0  0  0  0  0  0  0  0  0  0
   42.0850   32.0080   42.6800 F   0  0  0  0  0  0  0  0  0  0  0  0
   41.8570   31.1440   40.6220 F   0  0  0  0  0  0  0  0  0  0  0  0
   40.2730   32.4910   41.4010 F   0  0  0  0  0  0  0  0  0  0  0  0
   45.5254   26.0322   43.9522 H   0  0  0  0  0  0  0  0  0  0  0  0
   45.3328   26.5973   41.6938 H   0  0  0  0  0  0  0  0  0  0  0  0
   45.2726   25.8015   39.3669 H   0  0  0  0  0  0  0  0  0  0  0  0
   41.3262   24.4094   40.0957 H   0  0  0  0  0  0  0  0  0  0  0  0
   36.3854   29.8021   43.2434 H   0  0  0  0  0  0  0  0  0  0  0  0
   36.0825   27.3755   44.1363 H   0  0  0  0  0  0  0  0  0  0  0  0
  1  6  2  0
  2  3  2  0
  2  1  1  0
  3  4  1  0
  4  5  2  0
  5 13  1  0
  6  5  1  0
  7  2  1  0
  8  7  2  0
  9  8  1  0
 10  9  2  0
 10 11  1  0
 11 12  2  0
 12  7  1  0
 13 14  1  0
 13 15  1  0
 13 16  1  0
 17  3  1  0
 18 19  1  0
 20 19  2  0
 21 20  1  0
 22 21  2  0
 22 17  1  0
 23 22  1  0
 24 25  1  0
 24 23  2  0
 25 26  2  0
 26 21  1  0
 26 18  1  0
 27 24  1  0
 27 28  1  0
 29 27  1  0
 30 27  1  0
  1 31  1  0
  8 32  1  0
  9 33  1  0
 11 34  1  0
 18 35  1  0
 19 36  1  0
M  ISO  6  31  14  32  14  33  14  34  14  35   9  36  14
M  END
>  <minimizedAffinity>  (1) 
-5.81116867

>  <minimizedRMSD>  (1) 
0.119569965

$$$$
