
     RDKit          3D

 31 32  0  0  0  0  0  0  0  0999 V2000
   37.5790   30.0790   41.3340 C   0  0  0  0  0  0  0  0  0  0  0  0
   38.4600   29.4240   42.2470 C   0  0  0  0  0  0  0  0  0  0  0  0
   39.6120   30.1130   42.5140 C   0  0  0  0  0  0  0  0  0  0  0  0
   39.8740   31.3140   41.9480 N   0  0  0  0  0  0  0  0  0  0  0  0
   38.9990   31.8970   41.0810 C   0  0  0  0  0  0  0  0  0  0  0  0
   37.8760   31.2730   40.7910 N   0  0  0  0  0  0  0  0  0  0  0  0
   38.0890   28.1650   42.7870 N   0  0  0  0  0  0  0  0  0  0  0  0
   36.9970   27.9630   43.6700 C   0  0  0  0  0  0  0  0  0  0  0  0
   36.8070   28.9100   44.5730 N   0  0  0  0  0  0  0  0  0  0  0  0
   36.2400   26.7510   43.4650 N   0  0  0  0  0  0  0  0  0  0  0  0
   36.0670   28.8380   45.2810 H   0  0  0  0  0  0  0  0  0  0  0  0
   39.4840   33.1930   40.5960 C   0  0  0  0  0  0  0  0  0  0  0  0
   38.7830   34.4060   40.6160 C   0  0  0  0  0  0  0  0  0  0  0  0
   39.5980   35.3840   40.0670 C   0  0  0  0  0  0  0  0  0  0  0  0
   40.7590   34.6890   39.7430 C   0  0  0  0  0  0  0  0  0  0  0  0
   40.6410   33.4550   40.0630 O   0  0  0  0  0  0  0  0  0  0  0  0
   41.8590   35.3680   39.1430 N   0  0  0  0  0  0  0  0  0  0  0  0
   42.5630   34.7190   38.0950 C   0  0  0  0  0  0  0  0  0  0  0  0
   41.9780   33.9810   37.2310 N   0  0  0  0  0  0  0  0  0  0  0  0
   43.9930   34.8700   37.9580 N   0  0  0  0  0  0  0  0  0  0  0  0
   40.9500   33.8490   37.2950 H   0  0  0  0  0  0  0  0  0  0  0  0
   36.6292   29.5926   41.0669 H   0  0  0  0  0  0  0  0  0  0  0  0
   40.3459   29.6781   43.2085 H   0  0  0  0  0  0  0  0  0  0  0  0
   38.6498   27.3433   42.5201 H   0  0  0  0  0  0  0  0  0  0  0  0
   35.4334   26.5391   44.0695 H   0  0  0  0  0  0  0  0  0  0  0  0
   36.5065   26.0981   42.7143 H   0  0  0  0  0  0  0  0  0  0  0  0
   37.7634   34.5562   41.0004 H   0  0  0  0  0  0  0  0  0  0  0  0
   39.3794   36.4523   39.9224 H   0  0  0  0  0  0  0  0  0  0  0  0
   42.1366   36.3072   39.4621 H   0  0  0  0  0  0  0  0  0  0  0  0
   44.4902   34.3929   37.1925 H   0  0  0  0  0  0  0  0  0  0  0  0
   44.5154   35.4547   38.6258 H   0  0  0  0  0  0  0  0  0  0  0  0
  1  2  2  0
  2  3  1  0
  2  7  1  0
  4  3  2  0
  5  4  1  0
  6  5  2  0
  6  1  1  0
  7  8  1  0
  8  9  2  0
  9 11  1  0
 10  8  1  0
 12 13  2  0
 12  5  1  0
 14 13  1  0
 15 16  1  0
 15 14  2  0
 16 12  1  0
 17 15  1  0
 18 17  1  0
 19 21  1  0
 19 18  2  0
 20 18  1  0
  1 22  1  0
  3 23  1  0
  7 24  1  0
 10 25  1  0
 10 26  1  0
 13 27  1  0
 14 28  1  0
 17 29  1  0
 20 30  1  0
 20 31  1  0
M  ISO  4  22  14  23  14  27  14  28  14
M  END
>  <minimizedAffinity>  (1) 
-6.15490341

>  <minimizedRMSD>  (1) 
1.10765648

$$$$
