
     RDKit          3D

 42 45  0  0  0  0  0  0  0  0999 V2000
   44.5910   26.4100   44.4160 C   0  0  0  0  0  0  0  0  0  0  0  0
   43.4310   26.4320   43.6270 C   0  0  0  0  0  0  0  0  0  0  0  0
   42.2530   26.9240   44.1800 C   0  0  0  0  0  0  0  0  0  0  0  0
   42.2850   27.3700   45.4860 N   0  0  0  0  0  0  0  0  0  0  0  0
   43.4180   27.3290   46.2010 C   0  0  0  0  0  0  0  0  0  0  0  0
   44.5710   26.8520   45.6760 N   0  0  0  0  0  0  0  0  0  0  0  0
   43.3910   25.9650   42.2530 C   0  0  0  0  0  0  0  0  0  0  0  0
   44.4330   26.1030   41.3600 C   0  0  0  0  0  0  0  0  0  0  0  0
   44.4310   25.6720   40.0510 C   0  0  0  0  0  0  0  0  0  0  0  0
   43.3000   25.0610   39.6120 N   0  0  0  0  0  0  0  0  0  0  0  0
   42.2660   24.9160   40.4740 C   0  0  0  0  0  0  0  0  0  0  0  0
   42.3150   25.3530   41.7440 N   0  0  0  0  0  0  0  0  0  0  0  0
   43.3950   27.8270   47.6180 C   0  0  0  0  0  0  0  0  0  0  0  0
   43.3610   29.2010   47.6460 F   0  0  0  0  0  0  0  0  0  0  0  0
   42.2090   27.4240   48.2430 F   0  0  0  0  0  0  0  0  0  0  0  0
   44.5120   27.4290   48.3340 F   0  0  0  0  0  0  0  0  0  0  0  0
   41.1220   26.9480   43.4190 O   0  0  0  0  0  0  0  0  0  0  0  0
   37.1410   29.1020   43.3170 N   0  0  0  0  0  0  0  0  0  0  0  0
   37.0130   27.8410   43.7460 C   0  0  0  0  0  0  0  0  0  0  0  0
   38.2500   27.2840   43.7420 N   0  0  0  0  0  0  0  0  0  0  0  0
   39.1690   28.1830   43.3100 C   0  0  0  0  0  0  0  0  0  0  0  0
   40.5410   28.1580   43.1120 C   0  0  0  0  0  0  0  0  0  0  0  0
   41.1530   29.2750   42.6570 N   0  0  0  0  0  0  0  0  0  0  0  0
   40.4250   30.3730   42.4080 C   0  0  0  0  0  0  0  0  0  0  0  0
   39.0980   30.4550   42.5820 N   0  0  0  0  0  0  0  0  0  0  0  0
   38.4360   29.3450   43.0420 C   0  0  0  0  0  0  0  0  0  0  0  0
   41.1420   31.5780   41.9070 C   0  0  0  0  0  0  0  0  0  0  0  0
   41.3710   31.5060   40.4130 C   0  0  0  0  0  0  0  0  0  0  0  0
   42.4390   31.7030   42.6550 C   0  0  0  0  0  0  0  0  0  0  0  0
   45.5292   26.0236   43.9911 H   0  0  0  0  0  0  0  0  0  0  0  0
   45.3443   26.6000   41.7240 H   0  0  0  0  0  0  0  0  0  0  0  0
   45.3018   25.8156   39.3944 H   0  0  0  0  0  0  0  0  0  0  0  0
   41.3494   24.4209   40.1208 H   0  0  0  0  0  0  0  0  0  0  0  0
   36.3714   29.7787   43.2137 H   0  0  0  0  0  0  0  0  0  0  0  0
   36.0772   27.3470   44.0465 H   0  0  0  0  0  0  0  0  0  0  0  0
   40.5260   32.4720   42.0838 H   0  0  0  0  0  0  0  0  0  0  0  0
   42.4033   31.1814   40.2155 H   0  0  0  0  0  0  0  0  0  0  0  0
   40.6687   30.7853   39.9687 H   0  0  0  0  0  0  0  0  0  0  0  0
   41.2075   32.4989   39.9687 H   0  0  0  0  0  0  0  0  0  0  0  0
   42.2416   31.6840   43.7370 H   0  0  0  0  0  0  0  0  0  0  0  0
   43.0987   30.8643   42.3878 H   0  0  0  0  0  0  0  0  0  0  0  0
   42.9263   32.6523   42.3878 H   0  0  0  0  0  0  0  0  0  0  0  0
  1  6  2  0
  2  3  2  0
  2  1  1  0
  3  4  1  0
  4  5  2  0
  5 13  1  0
  6  5  1  0
  7  2  1  0
  8  7  2  0
  9  8  1  0
 10  9  2  0
 10 11  1  0
 11 12  2  0
 12  7  1  0
 13 14  1  0
 13 15  1  0
 13 16  1  0
 17  3  1  0
 18 19  1  0
 20 19  2  0
 21 20  1  0
 22 21  2  0
 22 17  1  0
 23 22  1  0
 24 25  1  0
 24 23  2  0
 25 26  2  0
 26 21  1  0
 26 18  1  0
 27 24  1  0
 27 29  1  0
 28 27  1  0
  1 30  1  0
  8 31  1  0
  9 32  1  0
 11 33  1  0
 18 34  1  0
 19 35  1  0
 27 36  1  0
 28 37  1  0
 28 38  1  0
 28 39  1  0
 29 40  1  0
 29 41  1  0
 29 42  1  0
M  ISO  8  30  14  31  14  32  14  33  14  34   9  35  14  36   8  37   8
M  ISO  5  38   8  39   8  40   8  41   8  42   8
M  END
>  <minimizedAffinity>  (1) 
-5.70778084

>  <minimizedRMSD>  (1) 
0.157276779

$$$$
