
     RDKit          3D

 35 38  0  0  0  0  0  0  0  0999 V2000
   44.5820   26.4390   44.3750 C   0  0  0  0  0  0  0  0  0  0  0  0
   43.4230   26.4510   43.5920 C   0  0  0  0  0  0  0  0  0  0  0  0
   42.2410   26.9330   44.1500 C   0  0  0  0  0  0  0  0  0  0  0  0
   42.2840   27.3750   45.4630 N   0  0  0  0  0  0  0  0  0  0  0  0
   43.4120   27.3450   46.1740 C   0  0  0  0  0  0  0  0  0  0  0  0
   44.5730   26.8780   45.6400 N   0  0  0  0  0  0  0  0  0  0  0  0
   43.3780   25.9860   42.2100 C   0  0  0  0  0  0  0  0  0  0  0  0
   44.4070   26.1580   41.3150 C   0  0  0  0  0  0  0  0  0  0  0  0
   44.3940   25.7310   40.0090 C   0  0  0  0  0  0  0  0  0  0  0  0
   43.2730   25.0880   39.5680 N   0  0  0  0  0  0  0  0  0  0  0  0
   42.2540   24.9140   40.4450 C   0  0  0  0  0  0  0  0  0  0  0  0
   42.3050   25.3450   41.7120 N   0  0  0  0  0  0  0  0  0  0  0  0
   43.3910   27.8360   47.5810 C   0  0  0  0  0  0  0  0  0  0  0  0
   43.3640   29.2110   47.6170 F   0  0  0  0  0  0  0  0  0  0  0  0
   42.2060   27.4400   48.2110 F   0  0  0  0  0  0  0  0  0  0  0  0
   44.5060   27.4290   48.3030 F   0  0  0  0  0  0  0  0  0  0  0  0
   41.1100   26.9440   43.3830 O   0  0  0  0  0  0  0  0  0  0  0  0
   37.1320   29.0960   43.3490 N   0  0  0  0  0  0  0  0  0  0  0  0
   37.0070   27.8380   43.7880 C   0  0  0  0  0  0  0  0  0  0  0  0
   38.2430   27.2810   43.7620 N   0  0  0  0  0  0  0  0  0  0  0  0
   39.1500   28.1760   43.3090 C   0  0  0  0  0  0  0  0  0  0  0  0
   40.5160   28.1540   43.0830 C   0  0  0  0  0  0  0  0  0  0  0  0
   41.1210   29.2680   42.6080 N   0  0  0  0  0  0  0  0  0  0  0  0
   40.3850   30.3660   42.3690 C   0  0  0  0  0  0  0  0  0  0  0  0
   39.0630   30.4500   42.5690 N   0  0  0  0  0  0  0  0  0  0  0  0
   38.4120   29.3410   43.0490 C   0  0  0  0  0  0  0  0  0  0  0  0
   41.0970   31.5320   41.8600 C   0  0  0  0  0  0  0  0  0  0  0  0
   40.5350   32.3930   41.1380 O   0  0  0  0  0  0  0  0  0  0  0  0
   45.5202   26.0611   43.9427 H   0  0  0  0  0  0  0  0  0  0  0  0
   45.3092   26.6768   41.6713 H   0  0  0  0  0  0  0  0  0  0  0  0
   45.2538   25.9007   39.3442 H   0  0  0  0  0  0  0  0  0  0  0  0
   41.3462   24.3966   40.1012 H   0  0  0  0  0  0  0  0  0  0  0  0
   36.3605   29.7720   43.2564 H   0  0  0  0  0  0  0  0  0  0  0  0
   36.0762   27.3478   44.1096 H   0  0  0  0  0  0  0  0  0  0  0  0
   42.1589   31.6619   42.1160 H   0  0  0  0  0  0  0  0  0  0  0  0
  1  6  2  0
  2  3  2  0
  2  1  1  0
  3  4  1  0
  4  5  2  0
  5 13  1  0
  6  5  1  0
  7  2  1  0
  8  7  2  0
  9  8  1  0
 10  9  2  0
 10 11  1  0
 11 12  2  0
 12  7  1  0
 13 14  1  0
 13 15  1  0
 13 16  1  0
 17  3  1  0
 18 19  1  0
 20 19  2  0
 21 20  1  0
 22 21  2  0
 22 17  1  0
 23 22  1  0
 24 25  1  0
 24 23  2  0
 25 26  2  0
 26 21  1  0
 26 18  1  0
 27 24  1  0
 28 27  2  0
  1 29  1  0
  8 30  1  0
  9 31  1  0
 11 32  1  0
 18 33  1  0
 19 34  1  0
 27 35  1  0
M  ISO  7  29  14  30  14  31  14  32  14  33   9  34  14  35   6
M  END
>  <minimizedAffinity>  (1) 
-5.54719162

>  <minimizedRMSD>  (1) 
0.045108106

$$$$
