
     RDKit          3D

 39 41  0  0  0  0  0  0  0  0999 V2000
   38.2010   30.4690   41.2200 C   0  0  0  0  0  0  0  0  0  0  0  0
   38.8490   29.4900   42.0420 C   0  0  0  0  0  0  0  0  0  0  0  0
   40.1390   29.8180   42.4140 C   0  0  0  0  0  0  0  0  0  0  0  0
   40.7140   30.9770   42.0190 N   0  0  0  0  0  0  0  0  0  0  0  0
   40.0460   31.8690   41.2370 C   0  0  0  0  0  0  0  0  0  0  0  0
   38.8160   31.5990   40.8580 N   0  0  0  0  0  0  0  0  0  0  0  0
   38.1650   28.3010   42.4050 N   0  0  0  0  0  0  0  0  0  0  0  0
   37.1070   28.2510   43.3290 C   0  0  0  0  0  0  0  0  0  0  0  0
   37.2350   29.0220   44.3920 N   0  0  0  0  0  0  0  0  0  0  0  0
   36.0190   27.3560   42.9800 N   0  0  0  0  0  0  0  0  0  0  0  0
   36.5190   29.0290   45.1220 H   0  0  0  0  0  0  0  0  0  0  0  0
   40.8440   33.0560   40.9190 C   0  0  0  0  0  0  0  0  0  0  0  0
   40.4990   34.1100   40.0980 C   0  0  0  0  0  0  0  0  0  0  0  0
   41.5440   35.0210   40.0730 C   0  0  0  0  0  0  0  0  0  0  0  0
   42.4850   34.4590   40.8980 C   0  0  0  0  0  0  0  0  0  0  0  0
   42.0420   33.3370   41.3590 O   0  0  0  0  0  0  0  0  0  0  0  0
   43.7960   34.8150   41.3500 N   0  0  0  0  0  0  0  0  0  0  0  0
   43.6710   35.7230   42.4860 C   0  0  0  0  0  0  0  0  0  0  0  0
   45.0430   36.2300   42.8650 C   0  0  0  0  0  0  0  0  0  0  0  0
   46.0150   35.0920   43.0920 C   0  0  0  0  0  0  0  0  0  0  0  0
   46.0020   34.0620   42.0130 C   0  0  0  0  0  0  0  0  0  0  0  0
   45.1110   34.4330   40.8730 C   0  0  0  0  0  0  0  0  0  0  0  0
   37.1716   30.2857   40.8785 H   0  0  0  0  0  0  0  0  0  0  0  0
   40.7106   29.1215   43.0450 H   0  0  0  0  0  0  0  0  0  0  0  0
   38.4625   27.4192   41.9637 H   0  0  0  0  0  0  0  0  0  0  0  0
   35.2068   27.2639   43.6066 H   0  0  0  0  0  0  0  0  0  0  0  0
   36.0591   26.8130   42.1057 H   0  0  0  0  0  0  0  0  0  0  0  0
   39.5494   34.2111   39.5521 H   0  0  0  0  0  0  0  0  0  0  0  0
   41.6043   35.9708   39.5215 H   0  0  0  0  0  0  0  0  0  0  0  0
   43.0275   36.5716   42.2106 H   0  0  0  0  0  0  0  0  0  0  0  0
   43.2231   35.1915   43.3386 H   0  0  0  0  0  0  0  0  0  0  0  0
   45.4240   36.8685   42.0543 H   0  0  0  0  0  0  0  0  0  0  0  0
   44.9529   36.7975   43.8030 H   0  0  0  0  0  0  0  0  0  0  0  0
   47.0298   35.5113   43.1585 H   0  0  0  0  0  0  0  0  0  0  0  0
   45.7051   34.5874   44.0190 H   0  0  0  0  0  0  0  0  0  0  0  0
   47.0267   33.9376   41.6328 H   0  0  0  0  0  0  0  0  0  0  0  0
   45.6138   33.1294   42.4484 H   0  0  0  0  0  0  0  0  0  0  0  0
   45.0129   33.5710   40.1967 H   0  0  0  0  0  0  0  0  0  0  0  0
   45.5554   35.2878   40.3421 H   0  0  0  0  0  0  0  0  0  0  0  0
  1  2  2  0
  2  7  1  0
  2  3  1  0
  4  3  2  0
  5  4  1  0
  6  1  1  0
  6  5  2  0
  7  8  1  0
  8  9  2  0
  9 11  1  0
 10  8  1  0
 12  5  1  0
 12 16  1  0
 13 12  2  0
 14 13  1  0
 14 15  2  0
 15 17  1  0
 15 16  1  0
 17 18  1  0
 18 19  1  0
 19 20  1  0
 21 20  1  0
 22 17  1  0
 22 21  1  0
  1 23  1  0
  3 24  1  0
  7 25  1  0
 10 26  1  0
 10 27  1  0
 13 28  1  0
 14 29  1  0
 18 30  1  0
 18 31  1  0
 19 32  1  0
 19 33  1  0
 20 34  1  0
 20 35  1  0
 21 36  1  0
 21 37  1  0
 22 38  1  0
 22 39  1  0
M  ISO  8  23  14  24  14  28  14  29  14  30  13  31  13  32  13  33  13
M  ISO  6  34  13  35  13  36  13  37  13  38  13  39  13
M  END
>  <minimizedAffinity>  (1) 
-5.35371161

>  <minimizedRMSD>  (1) 
1.9211154

$$$$
