
     RDKit          3D

 33 36  0  0  0  0  0  0  0  0999 V2000
   36.9530   31.2350   39.6420 C   0  0  0  0  0  0  0  0  0  0  0  0
   36.2630   30.7050   40.7530 C   0  0  0  0  0  0  0  0  0  0  0  0
   35.3850   29.6310   40.6740 C   0  0  0  0  0  0  0  0  0  0  0  0
   35.1710   29.0450   39.4440 C   0  0  0  0  0  0  0  0  0  0  0  0
   35.8070   29.5120   38.3290 C   0  0  0  0  0  0  0  0  0  0  0  0
   35.6030   28.8990   37.1340 C   0  0  0  0  0  0  0  0  0  0  0  0
   36.2770   29.3260   35.9670 C   0  0  0  0  0  0  0  0  0  0  0  0
   37.1370   30.3980   36.1410 C   0  0  0  0  0  0  0  0  0  0  0  0
   37.3080   30.9860   37.3590 C   0  0  0  0  0  0  0  0  0  0  0  0
   36.6560   30.5720   38.4960 C   0  0  0  0  0  0  0  0  0  0  0  0
   37.8120   32.3400   39.9180 C   0  0  0  0  0  0  0  0  0  0  0  0
   37.5790   33.7180   39.8050 C   0  0  0  0  0  0  0  0  0  0  0  0
   38.5260   34.6780   40.1560 C   0  0  0  0  0  0  0  0  0  0  0  0
   39.6990   34.1970   40.6170 N   0  0  0  0  0  0  0  0  0  0  0  0
   39.9550   32.8940   40.7360 C   0  0  0  0  0  0  0  0  0  0  0  0
   39.0250   32.0070   40.3910 N   0  0  0  0  0  0  0  0  0  0  0  0
   34.6170   27.8770   36.8510 C   0  0  0  0  0  0  0  0  0  0  0  0
   34.5480   26.5490   37.1270 C   0  0  0  0  0  0  0  0  0  0  0  0
   33.3690   26.0070   36.7380 N   0  0  0  0  0  0  0  0  0  0  0  0
   32.6270   27.0100   36.1830 C   0  0  0  0  0  0  0  0  0  0  0  0
   33.3970   28.0970   36.2690 N   0  0  0  0  0  0  0  0  0  0  0  0
   36.4296   31.1681   41.7368 H   0  0  0  0  0  0  0  0  0  0  0  0
   34.8722   29.2566   41.5722 H   0  0  0  0  0  0  0  0  0  0  0  0
   34.4809   28.1926   39.3600 H   0  0  0  0  0  0  0  0  0  0  0  0
   36.1291   28.8416   34.9905 H   0  0  0  0  0  0  0  0  0  0  0  0
   37.6954   30.7841   35.2755 H   0  0  0  0  0  0  0  0  0  0  0  0
   38.0032   31.8350   37.4358 H   0  0  0  0  0  0  0  0  0  0  0  0
   36.6049   34.0564   39.4221 H   0  0  0  0  0  0  0  0  0  0  0  0
   38.3301   35.7564   40.0633 H   0  0  0  0  0  0  0  0  0  0  0  0
   40.9293   32.5542   41.1171 H   0  0  0  0  0  0  0  0  0  0  0  0
   35.3556   25.9797   37.6103 H   0  0  0  0  0  0  0  0  0  0  0  0
   31.6151   26.9379   35.7577 H   0  0  0  0  0  0  0  0  0  0  0  0
   33.0992   29.0218   35.9270 H   0  0  0  0  0  0  0  0  0  0  0  0
  1 11  1  0
  1  2  2  0
  3  2  1  0
  4  3  2  0
  5 10  2  0
  5  4  1  0
  6  5  1  0
  7  8  1  0
  7  6  2  0
  8  9  2  0
  9 10  1  0
 10  1  1  0
 11 16  1  0
 12 11  2  0
 12 13  1  0
 13 14  2  0
 14 15  1  0
 16 15  2  0
 17 18  2  0
 17  6  1  0
 19 18  1  0
 20 21  1  0
 20 19  2  0
 21 17  1  0
  2 22  1  0
  3 23  1  0
  4 24  1  0
  7 25  1  0
  8 26  1  0
  9 27  1  0
 12 28  1  0
 13 29  1  0
 15 30  1  0
 18 31  1  0
 20 32  1  0
 21 33  1  0
M  ISO  8  22  14  23  14  24  14  25  14  26  14  27  14  28  14  29  14
M  ISO  4  30  14  31  14  32  14  33   9
M  END
>  <minimizedAffinity>  (1) 
-5.43514252

>  <minimizedRMSD>  (1) 
6.0029974

$$$$
