
     RDKit          3D

 27 29  0  0  0  0  0  0  0  0999 V2000
   37.6220   29.3820   41.6120 C   0  0  0  0  0  0  0  0  0  0  0  0
   37.6420   29.2380   43.0150 C   0  0  0  0  0  0  0  0  0  0  0  0
   37.4740   28.0500   43.6870 C   0  0  0  0  0  0  0  0  0  0  0  0
   37.2670   26.9020   42.9400 C   0  0  0  0  0  0  0  0  0  0  0  0
   37.2350   26.9660   41.5760 C   0  0  0  0  0  0  0  0  0  0  0  0
   37.0370   25.8290   40.8340 C   0  0  0  0  0  0  0  0  0  0  0  0
   37.0020   25.8410   39.4410 C   0  0  0  0  0  0  0  0  0  0  0  0
   37.1840   27.0950   38.8600 C   0  0  0  0  0  0  0  0  0  0  0  0
   37.3790   28.2070   39.6290 C   0  0  0  0  0  0  0  0  0  0  0  0
   37.4130   28.1900   40.9880 C   0  0  0  0  0  0  0  0  0  0  0  0
   37.8170   30.7040   41.1150 C   0  0  0  0  0  0  0  0  0  0  0  0
   36.9530   31.5320   40.3850 C   0  0  0  0  0  0  0  0  0  0  0  0
   37.2860   32.8280   40.0040 C   0  0  0  0  0  0  0  0  0  0  0  0
   38.5110   33.2490   40.3850 N   0  0  0  0  0  0  0  0  0  0  0  0
   39.3580   32.4860   41.0810 C   0  0  0  0  0  0  0  0  0  0  0  0
   39.0040   31.2470   41.4300 N   0  0  0  0  0  0  0  0  0  0  0  0
   36.8180   24.2890   41.7120 S   0  0  0  0  0  0  0  0  0  0  0  0
   37.8042   30.1443   43.6170 H   0  0  0  0  0  0  0  0  0  0  0  0
   37.5032   28.0125   44.7860 H   0  0  0  0  0  0  0  0  0  0  0  0
   37.1279   25.9357   43.4469 H   0  0  0  0  0  0  0  0  0  0  0  0
   36.8429   24.9302   38.8451 H   0  0  0  0  0  0  0  0  0  0  0  0
   37.1704   27.1906   37.7643 H   0  0  0  0  0  0  0  0  0  0  0  0
   37.5165   29.1720   39.1192 H   0  0  0  0  0  0  0  0  0  0  0  0
   35.9659   31.1388   40.1002 H   0  0  0  0  0  0  0  0  0  0  0  0
   36.5977   33.4666   39.4310 H   0  0  0  0  0  0  0  0  0  0  0  0
   40.3455   32.8778   41.3661 H   0  0  0  0  0  0  0  0  0  0  0  0
   36.8514   24.5239   43.0613 H   0  0  0  0  0  0  0  0  0  0  0  0
  1  2  2  0
  2  3  1  0
  4  3  2  0
  5  4  1  0
  6  5  2  0
  6 17  1  0
  7  6  1  0
  8  7  2  0
  8  9  1  0
  9 10  2  0
 10  5  1  0
 10  1  1  0
 11 16  1  0
 11  1  1  0
 12 11  2  0
 13 14  2  0
 13 12  1  0
 14 15  1  0
 15 16  2  0
  2 18  1  0
  3 19  1  0
  4 20  1  0
  7 21  1  0
  8 22  1  0
  9 23  1  0
 12 24  1  0
 13 25  1  0
 15 26  1  0
 17 27  1  0
M  ISO  8  18  14  19  14  20  14  21  14  22  14  23  14  24  14  25  14
M  ISO  2  26  14  27  11
M  END
>  <minimizedAffinity>  (1) 
-5.17656708

>  <minimizedRMSD>  (1) 
1.9554168

$$$$
