
     RDKit          3D

 27 29  0  0  0  0  0  0  0  0999 V2000
   37.7520   28.9380   40.1140 C   0  0  0  0  0  0  0  0  0  0  0  0
   38.0060   28.0060   39.0840 C   0  0  0  0  0  0  0  0  0  0  0  0
   38.1170   28.3190   37.7460 C   0  0  0  0  0  0  0  0  0  0  0  0
   37.9710   29.6380   37.3670 C   0  0  0  0  0  0  0  0  0  0  0  0
   37.7200   30.6040   38.3230 C   0  0  0  0  0  0  0  0  0  0  0  0
   37.5820   31.9210   37.9520 C   0  0  0  0  0  0  0  0  0  0  0  0
   37.3380   32.9300   38.8760 C   0  0  0  0  0  0  0  0  0  0  0  0
   37.2470   32.5030   40.1980 C   0  0  0  0  0  0  0  0  0  0  0  0
   37.3890   31.1890   40.5330 C   0  0  0  0  0  0  0  0  0  0  0  0
   37.6270   30.2020   39.6280 C   0  0  0  0  0  0  0  0  0  0  0  0
   37.6710   28.4060   41.4320 C   0  0  0  0  0  0  0  0  0  0  0  0
   36.5570   27.9700   42.1660 C   0  0  0  0  0  0  0  0  0  0  0  0
   36.6610   27.4300   43.4440 C   0  0  0  0  0  0  0  0  0  0  0  0
   37.9220   27.3500   43.9480 N   0  0  0  0  0  0  0  0  0  0  0  0
   38.9950   27.7580   43.2770 C   0  0  0  0  0  0  0  0  0  0  0  0
   38.8570   28.2710   42.0490 N   0  0  0  0  0  0  0  0  0  0  0  0
   37.6760   32.3180   36.6320 O   0  0  0  0  0  0  0  0  0  0  0  0
   38.1242   26.9507   39.3709 H   0  0  0  0  0  0  0  0  0  0  0  0
   38.3170   27.5368   36.9989 H   0  0  0  0  0  0  0  0  0  0  0  0
   38.0542   29.9197   36.3069 H   0  0  0  0  0  0  0  0  0  0  0  0
   37.2254   33.9849   38.5852 H   0  0  0  0  0  0  0  0  0  0  0  0
   37.0563   33.2422   40.9899 H   0  0  0  0  0  0  0  0  0  0  0  0
   37.3065   30.9117   41.5943 H   0  0  0  0  0  0  0  0  0  0  0  0
   35.5592   28.0590   41.7115 H   0  0  0  0  0  0  0  0  0  0  0  0
   35.7811   27.0900   44.0099 H   0  0  0  0  0  0  0  0  0  0  0  0
   39.9937   27.6740   43.7304 H   0  0  0  0  0  0  0  0  0  0  0  0
   37.5724   33.2733   36.3938 H   0  0  0  0  0  0  0  0  0  0  0  0
  1 11  1  0
  2  1  2  0
  3  2  1  0
  4  3  2  0
  4  5  1  0
  5 10  2  0
  6  5  1  0
  6  7  2  0
  7  8  1  0
  8  9  2  0
 10  1  1  0
 10  9  1  0
 11 16  1  0
 11 12  2  0
 12 13  1  0
 13 14  2  0
 15 14  1  0
 16 15  2  0
 17  6  1  0
  2 18  1  0
  3 19  1  0
  4 20  1  0
  7 21  1  0
  8 22  1  0
  9 23  1  0
 12 24  1  0
 13 25  1  0
 15 26  1  0
 17 27  1  0
M  ISO  8  18  14  19  14  20  14  21  14  22  14  23  14  24  14  25  14
M  ISO  2  26  14  27   3
M  END
>  <minimizedAffinity>  (1) 
-4.88353109

>  <minimizedRMSD>  (1) 
6.00539112

$$$$
