
     RDKit          3D

 42 46  0  0  0  0  0  0  0  0999 V2000
   39.8590   32.6690   40.9790 C   0  0  0  0  0  0  0  0  0  0  0  0
   40.9560   32.0870   41.6510 C   0  0  0  0  0  0  0  0  0  0  0  0
   40.9220   30.8330   42.2410 C   0  0  0  0  0  0  0  0  0  0  0  0
   39.7390   30.1050   42.1700 C   0  0  0  0  0  0  0  0  0  0  0  0
   38.6580   30.6260   41.5330 C   0  0  0  0  0  0  0  0  0  0  0  0
   37.5310   29.8780   41.4850 C   0  0  0  0  0  0  0  0  0  0  0  0
   36.3710   30.3620   40.8270 C   0  0  0  0  0  0  0  0  0  0  0  0
   36.4880   31.6380   40.2530 C   0  0  0  0  0  0  0  0  0  0  0  0
   37.6590   32.3360   40.3430 C   0  0  0  0  0  0  0  0  0  0  0  0
   38.7710   31.8610   40.9780 C   0  0  0  0  0  0  0  0  0  0  0  0
   40.0910   33.9690   40.4520 C   0  0  0  0  0  0  0  0  0  0  0  0
   39.3980   35.1770   40.6880 C   0  0  0  0  0  0  0  0  0  0  0  0
   39.7860   36.3810   40.0960 C   0  0  0  0  0  0  0  0  0  0  0  0
   40.8770   36.3220   39.2740 N   0  0  0  0  0  0  0  0  0  0  0  0
   41.5310   35.2010   39.0470 C   0  0  0  0  0  0  0  0  0  0  0  0
   41.1440   34.0580   39.6220 N   0  0  0  0  0  0  0  0  0  0  0  0
   37.2690   28.5690   42.0330 C   0  0  0  0  0  0  0  0  0  0  0  0
   36.8150   28.2330   43.2920 C   0  0  0  0  0  0  0  0  0  0  0  0
   36.5560   26.9610   43.7350 C   0  0  0  0  0  0  0  0  0  0  0  0
   36.7470   25.8900   42.8960 C   0  0  0  0  0  0  0  0  0  0  0  0
   37.1990   26.2350   41.6480 C   0  0  0  0  0  0  0  0  0  0  0  0
   37.4480   27.4900   41.2320 N   0  0  0  0  0  0  0  0  0  0  0  0
   37.4470   25.1570   40.6400 C   0  0  0  0  0  0  0  0  0  0  0  0
   36.4700   24.0270   40.7230 C   0  0  0  0  0  0  0  0  0  0  0  0
   37.9190   23.8250   41.0820 C   0  0  0  0  0  0  0  0  0  0  0  0
   41.8919   32.6620   41.7098 H   0  0  0  0  0  0  0  0  0  0  0  0
   41.8067   30.4248   42.7515 H   0  0  0  0  0  0  0  0  0  0  0  0
   39.6786   29.1074   42.6296 H   0  0  0  0  0  0  0  0  0  0  0  0
   35.4416   29.7764   40.7703 H   0  0  0  0  0  0  0  0  0  0  0  0
   35.6292   32.0796   39.7262 H   0  0  0  0  0  0  0  0  0  0  0  0
   37.7088   33.3325   39.8799 H   0  0  0  0  0  0  0  0  0  0  0  0
   38.5261   35.1692   41.3586 H   0  0  0  0  0  0  0  0  0  0  0  0
   39.2457   37.3213   40.2802 H   0  0  0  0  0  0  0  0  0  0  0  0
   42.4040   35.2057   38.3778 H   0  0  0  0  0  0  0  0  0  0  0  0
   36.6462   29.0564   44.0016 H   0  0  0  0  0  0  0  0  0  0  0  0
   36.1956   26.7985   44.7615 H   0  0  0  0  0  0  0  0  0  0  0  0
   36.5548   24.8499   43.1979 H   0  0  0  0  0  0  0  0  0  0  0  0
   37.8196   25.8534   39.8743 H   0  0  0  0  0  0  0  0  0  0  0  0
   35.6999   24.0190   41.5084 H   0  0  0  0  0  0  0  0  0  0  0  0
   35.7616   23.5516   40.0286 H   0  0  0  0  0  0  0  0  0  0  0  0
   38.5695   23.2270   40.4268 H   0  0  0  0  0  0  0  0  0  0  0  0
   38.4555   23.4436   41.9633 H   0  0  0  0  0  0  0  0  0  0  0  0
  1  2  2  0
  2  3  1  0
  4  3  2  0
  5  4  1  0
  6  5  2  0
  6 17  1  0
  7  6  1  0
  8  9  1  0
  8  7  2  0
  9 10  2  0
 10  1  1  0
 10  5  1  0
 11 12  2  0
 11  1  1  0
 13 12  1  0
 14 13  2  0
 15 14  1  0
 15 16  2  0
 16 11  1  0
 17 18  2  0
 18 19  1  0
 20 19  2  0
 21 20  1  0
 22 21  2  0
 22 17  1  0
 23 24  1  0
 23 25  1  0
 23 21  1  0
 24 25  1  0
  2 26  1  0
  3 27  1  0
  4 28  1  0
  7 29  1  0
  8 30  1  0
  9 31  1  0
 12 32  1  0
 13 33  1  0
 15 34  1  0
 18 35  1  0
 19 36  1  0
 20 37  1  0
 23 38  1  0
 24 39  1  0
 24 40  1  0
 25 41  1  0
 25 42  1  0
M  ISO  8  26  14  27  14  28  14  29  14  30  14  31  14  32  14  33  14
M  ISO  8  34  14  35  14  36  14  37  14  38  13  39  13  40  13  41  13
M  ISO  1  42  13
M  END
>  <minimizedAffinity>  (1) 
-6.59524107

>  <minimizedRMSD>  (1) 
1.83529365

$$$$
