
     RDKit          3D

 33 34  0  0  0  0  0  0  0  0999 V2000
   37.5910   29.0520   40.6970 C   0  0  0  0  0  0  0  0  0  0  0  0
   38.2690   28.6580   41.8900 C   0  0  0  0  0  0  0  0  0  0  0  0
   38.9610   29.6810   42.5220 C   0  0  0  0  0  0  0  0  0  0  0  0
   38.9790   30.9440   42.0290 N   0  0  0  0  0  0  0  0  0  0  0  0
   38.3120   31.2530   40.8870 C   0  0  0  0  0  0  0  0  0  0  0  0
   37.6310   30.3130   40.2380 N   0  0  0  0  0  0  0  0  0  0  0  0
   38.1980   27.3130   42.3350 N   0  0  0  0  0  0  0  0  0  0  0  0
   37.0120   26.7010   42.8040 C   0  0  0  0  0  0  0  0  0  0  0  0
   36.2350   27.4560   43.5580 N   0  0  0  0  0  0  0  0  0  0  0  0
   36.8170   25.3360   42.3920 N   0  0  0  0  0  0  0  0  0  0  0  0
   35.3810   27.0830   43.9720 H   0  0  0  0  0  0  0  0  0  0  0  0
   38.4530   32.6670   40.5200 C   0  0  0  0  0  0  0  0  0  0  0  0
   37.4950   33.4940   39.9360 C   0  0  0  0  0  0  0  0  0  0  0  0
   38.0310   34.7590   39.7510 C   0  0  0  0  0  0  0  0  0  0  0  0
   39.3190   34.6120   40.2510 C   0  0  0  0  0  0  0  0  0  0  0  0
   39.5170   33.4140   40.6760 O   0  0  0  0  0  0  0  0  0  0  0  0
   40.3690   35.6690   40.3120 C   0  0  0  0  0  0  0  0  0  0  0  0
   39.6540   36.9870   40.0450 C   0  0  0  0  0  0  0  0  0  0  0  0
   41.4710   35.4390   39.3070 C   0  0  0  0  0  0  0  0  0  0  0  0
   37.0179   28.2988   40.1363 H   0  0  0  0  0  0  0  0  0  0  0  0
   39.5106   29.4613   43.4492 H   0  0  0  0  0  0  0  0  0  0  0  0
   39.0599   26.7493   42.3155 H   0  0  0  0  0  0  0  0  0  0  0  0
   35.9767   24.8222   42.6933 H   0  0  0  0  0  0  0  0  0  0  0  0
   37.5177   24.8729   41.7959 H   0  0  0  0  0  0  0  0  0  0  0  0
   36.4732   33.1903   39.6643 H   0  0  0  0  0  0  0  0  0  0  0  0
   37.5570   35.6523   39.3182 H   0  0  0  0  0  0  0  0  0  0  0  0
   40.8630   35.6644   41.2948 H   0  0  0  0  0  0  0  0  0  0  0  0
   39.3952   37.4641   41.0018 H   0  0  0  0  0  0  0  0  0  0  0  0
   40.3147   37.6527   39.4702 H   0  0  0  0  0  0  0  0  0  0  0  0
   38.7358   36.7961   39.4702 H   0  0  0  0  0  0  0  0  0  0  0  0
   42.4149   35.2420   39.8365 H   0  0  0  0  0  0  0  0  0  0  0  0
   41.2172   34.5745   38.6760 H   0  0  0  0  0  0  0  0  0  0  0  0
   41.5842   36.3329   38.6760 H   0  0  0  0  0  0  0  0  0  0  0  0
  1  2  2  0
  2  7  1  0
  2  3  1  0
  4  3  2  0
  5  4  1  0
  6  1  1  0
  6  5  2  0
  7  8  1  0
  8  9  2  0
  9 11  1  0
 10  8  1  0
 12 16  1  0
 12  5  1  0
 13 12  2  0
 14 13  1  0
 14 15  2  0
 15 17  1  0
 15 16  1  0
 18 17  1  0
 19 17  1  0
  1 20  1  0
  3 21  1  0
  7 22  1  0
 10 23  1  0
 10 24  1  0
 13 25  1  0
 14 26  1  0
 17 27  1  0
 18 28  1  0
 18 29  1  0
 18 30  1  0
 19 31  1  0
 19 32  1  0
 19 33  1  0
M  ISO  8  20  14  21  14  25  14  26  14  27   8  28   8  29   8  30   8
M  ISO  3  31   8  32   8  33   8
M  END
>  <minimizedAffinity>  (1) 
-5.04781389

>  <minimizedRMSD>  (1) 
1.54526961

$$$$
