
     RDKit          3D

 27 28  0  0  0  0  0  0  0  0999 V2000
   38.8270   28.7880   42.4470 C   0  0  0  0  0  0  0  0  0  0  0  0
   37.9700   28.9680   43.5600 C   0  0  0  0  0  0  0  0  0  0  0  0
   37.0780   27.9430   43.8800 C   0  0  0  0  0  0  0  0  0  0  0  0
   37.0800   26.8320   43.1070 N   0  0  0  0  0  0  0  0  0  0  0  0
   37.9060   26.6740   42.0460 C   0  0  0  0  0  0  0  0  0  0  0  0
   38.7740   27.6560   41.7230 N   0  0  0  0  0  0  0  0  0  0  0  0
   37.8120   25.4240   41.2880 C   0  0  0  0  0  0  0  0  0  0  0  0
   39.0470   24.5810   41.3280 C   0  0  0  0  0  0  0  0  0  0  0  0
   38.9550   23.6200   40.1590 C   0  0  0  0  0  0  0  0  0  0  0  0
   37.7510   22.7450   40.3650 C   0  0  0  0  0  0  0  0  0  0  0  0
   36.4860   23.5480   40.5360 C   0  0  0  0  0  0  0  0  0  0  0  0
   36.6550   24.5380   41.6910 C   0  0  0  0  0  0  0  0  0  0  0  0
   36.2640   28.1560   44.9660 O   0  0  0  0  0  0  0  0  0  0  0  0
   39.5405   29.5791   42.1730 H   0  0  0  0  0  0  0  0  0  0  0  0
   38.0063   29.8914   44.1567 H   0  0  0  0  0  0  0  0  0  0  0  0
   37.6549   25.7977   40.2654 H   0  0  0  0  0  0  0  0  0  0  0  0
   39.9415   25.2136   41.2295 H   0  0  0  0  0  0  0  0  0  0  0  0
   39.1256   24.0385   42.2817 H   0  0  0  0  0  0  0  0  0  0  0  0
   39.8626   23.0002   40.1141 H   0  0  0  0  0  0  0  0  0  0  0  0
   38.8630   24.1772   39.2150 H   0  0  0  0  0  0  0  0  0  0  0  0
   37.6375   22.0870   39.4908 H   0  0  0  0  0  0  0  0  0  0  0  0
   37.9093   22.1639   41.2855 H   0  0  0  0  0  0  0  0  0  0  0  0
   36.2757   24.1008   39.6085 H   0  0  0  0  0  0  0  0  0  0  0  0
   35.6504   22.8681   40.7586 H   0  0  0  0  0  0  0  0  0  0  0  0
   36.8847   24.0049   42.6254 H   0  0  0  0  0  0  0  0  0  0  0  0
   35.7378   25.1173   41.8733 H   0  0  0  0  0  0  0  0  0  0  0  0
   35.6117   27.4632   45.2392 H   0  0  0  0  0  0  0  0  0  0  0  0
  1  2  2  0
  2  3  1  0
  3 13  1  0
  4  3  2  0
  5  4  1  0
  6  5  2  0
  6  1  1  0
  7  8  1  0
  7 12  1  0
  7  5  1  0
  9 10  1  0
  9  8  1  0
 10 11  1  0
 11 12  1  0
  1 14  1  0
  2 15  1  0
  7 16  1  0
  8 17  1  0
  8 18  1  0
  9 19  1  0
  9 20  1  0
 10 21  1  0
 10 22  1  0
 11 23  1  0
 11 24  1  0
 12 25  1  0
 12 26  1  0
 13 27  1  0
M  ISO  8  14  14  15  14  16  13  17  13  18  13  19  13  20  13  21  13
M  ISO  6  22  13  23  13  24  13  25  13  26  13  27   3
M  END
>  <minimizedAffinity>  (1) 
-4.46366358

>  <minimizedRMSD>  (1) 
5.35741091

$$$$
