
     RDKit          3D

 23 23  0  0  0  0  0  0  0  0999 V2000
   40.3560   25.7060   43.7350 C   0  0  0  0  0  0  0  0  0  0  0  0
   39.9210   24.5410   43.0550 C   0  0  0  0  0  0  0  0  0  0  0  0
   38.6750   24.5550   42.4410 C   0  0  0  0  0  0  0  0  0  0  0  0
   37.9270   25.6920   42.5230 N   0  0  0  0  0  0  0  0  0  0  0  0
   38.3540   26.7870   43.1710 C   0  0  0  0  0  0  0  0  0  0  0  0
   39.5580   26.7920   43.7720 N   0  0  0  0  0  0  0  0  0  0  0  0
   37.5200   28.0250   43.2490 C   0  0  0  0  0  0  0  0  0  0  0  0
   36.4660   27.9490   42.1780 C   0  0  0  0  0  0  0  0  0  0  0  0
   38.4260   29.2070   43.1510 C   0  0  0  0  0  0  0  0  0  0  0  0
   36.7680   28.0660   44.5830 C   0  0  0  0  0  0  0  0  0  0  0  0
   38.2880   23.4130   41.7950 O   0  0  0  0  0  0  0  0  0  0  0  0
   41.3385   25.7240   44.2294 H   0  0  0  0  0  0  0  0  0  0  0  0
   40.5569   23.6443   43.0143 H   0  0  0  0  0  0  0  0  0  0  0  0
   35.4728   27.8774   42.6454 H   0  0  0  0  0  0  0  0  0  0  0  0
   36.5127   28.8528   41.5528 H   0  0  0  0  0  0  0  0  0  0  0  0
   36.6419   27.0612   41.5528 H   0  0  0  0  0  0  0  0  0  0  0  0
   38.6900   29.5514   44.1618 H   0  0  0  0  0  0  0  0  0  0  0  0
   39.3407   28.9240   42.6095 H   0  0  0  0  0  0  0  0  0  0  0  0
   37.9150   30.0167   42.6095 H   0  0  0  0  0  0  0  0  0  0  0  0
   37.4898   28.0266   45.4121 H   0  0  0  0  0  0  0  0  0  0  0  0
   36.1860   28.9972   44.6474 H   0  0  0  0  0  0  0  0  0  0  0  0
   36.0882   27.2036   44.6474 H   0  0  0  0  0  0  0  0  0  0  0  0
   38.8881   22.6258   41.7789 H   0  0  0  0  0  0  0  0  0  0  0  0
  1  6  2  0
  2  1  1  0
  3  4  1  0
  3  2  2  0
  4  5  2  0
  5  7  1  0
  5  6  1  0
  7 10  1  0
  8  7  1  0
  9  7  1  0
 11  3  1  0
  1 12  1  0
  2 13  1  0
  8 14  1  0
  8 15  1  0
  8 16  1  0
  9 17  1  0
  9 18  1  0
  9 19  1  0
 10 20  1  0
 10 21  1  0
 10 22  1  0
 11 23  1  0
M  ISO  8  12  14  13  14  14   8  15   8  16   8  17   8  18   8  19   8
M  ISO  4  20   8  21   8  22   8  23   3
M  END
>  <minimizedAffinity>  (1) 
-4.44749832

>  <minimizedRMSD>  (1) 
3.77910471

$$$$
