
     RDKit          3D

 37 39  0  0  0  0  0  0  0  0999 V2000
   38.3440   30.3960   41.3420 C   0  0  0  0  0  0  0  0  0  0  0  0
   38.9500   29.3940   42.1600 C   0  0  0  0  0  0  0  0  0  0  0  0
   40.2350   29.6730   42.5310 C   0  0  0  0  0  0  0  0  0  0  0  0
   40.8570   30.8090   42.1450 N   0  0  0  0  0  0  0  0  0  0  0  0
   40.2450   31.7230   41.3740 C   0  0  0  0  0  0  0  0  0  0  0  0
   39.0050   31.5020   40.9880 N   0  0  0  0  0  0  0  0  0  0  0  0
   38.1860   28.2420   42.4980 N   0  0  0  0  0  0  0  0  0  0  0  0
   37.1020   28.2270   43.3980 C   0  0  0  0  0  0  0  0  0  0  0  0
   37.2240   29.0060   44.4460 N   0  0  0  0  0  0  0  0  0  0  0  0
   36.0150   27.3530   43.0350 N   0  0  0  0  0  0  0  0  0  0  0  0
   36.4570   29.0670   45.1420 H   0  0  0  0  0  0  0  0  0  0  0  0
   41.0930   32.8840   41.0660 C   0  0  0  0  0  0  0  0  0  0  0  0
   40.8000   33.9220   40.1770 C   0  0  0  0  0  0  0  0  0  0  0  0
   41.8710   34.8230   40.1790 C   0  0  0  0  0  0  0  0  0  0  0  0
   42.7490   34.2600   41.0820 C   0  0  0  0  0  0  0  0  0  0  0  0
   42.2600   33.1610   41.5580 O   0  0  0  0  0  0  0  0  0  0  0  0
   44.0660   34.8150   41.4680 C   0  0  0  0  0  0  0  0  0  0  0  0
   44.9270   33.8380   42.2020 C   0  0  0  0  0  0  0  0  0  0  0  0
   45.9770   34.7320   42.8310 C   0  0  0  0  0  0  0  0  0  0  0  0
   45.3750   36.1430   42.8670 C   0  0  0  0  0  0  0  0  0  0  0  0
   43.9010   35.9090   42.5320 C   0  0  0  0  0  0  0  0  0  0  0  0
   37.3097   30.2539   40.9956 H   0  0  0  0  0  0  0  0  0  0  0  0
   40.7781   28.9533   43.1611 H   0  0  0  0  0  0  0  0  0  0  0  0
   38.4452   27.3512   42.0506 H   0  0  0  0  0  0  0  0  0  0  0  0
   35.1847   27.2848   43.6407 H   0  0  0  0  0  0  0  0  0  0  0  0
   36.0684   26.7966   42.1698 H   0  0  0  0  0  0  0  0  0  0  0  0
   39.8827   34.0150   39.5771 H   0  0  0  0  0  0  0  0  0  0  0  0
   41.9848   35.7525   39.6019 H   0  0  0  0  0  0  0  0  0  0  0  0
   44.5018   35.1418   40.5124 H   0  0  0  0  0  0  0  0  0  0  0  0
   44.3517   33.2999   42.9698 H   0  0  0  0  0  0  0  0  0  0  0  0
   45.3491   33.0543   41.5557 H   0  0  0  0  0  0  0  0  0  0  0  0
   46.2073   34.3899   43.8508 H   0  0  0  0  0  0  0  0  0  0  0  0
   46.9153   34.7119   42.2572 H   0  0  0  0  0  0  0  0  0  0  0  0
   45.4852   36.5925   43.8649 H   0  0  0  0  0  0  0  0  0  0  0  0
   45.8681   36.8378   42.1713 H   0  0  0  0  0  0  0  0  0  0  0  0
   43.4225   36.8117   42.1244 H   0  0  0  0  0  0  0  0  0  0  0  0
   43.2585   35.6455   43.3851 H   0  0  0  0  0  0  0  0  0  0  0  0
  1  2  2  0
  2  7  1  0
  2  3  1  0
  4  3  2  0
  5  4  1  0
  6  1  1  0
  6  5  2  0
  7  8  1  0
  8  9  2  0
  9 11  1  0
 10  8  1  0
 12  5  1  0
 12 16  1  0
 13 14  1  0
 13 12  2  0
 14 15  2  0
 15 17  1  0
 15 16  1  0
 17 18  1  0
 17 21  1  0
 18 19  1  0
 19 20  1  0
 21 20  1  0
  1 22  1  0
  3 23  1  0
  7 24  1  0
 10 25  1  0
 10 26  1  0
 13 27  1  0
 14 28  1  0
 17 29  1  0
 18 30  1  0
 18 31  1  0
 19 32  1  0
 19 33  1  0
 20 34  1  0
 20 35  1  0
 21 36  1  0
 21 37  1  0
M  ISO  8  22  14  23  14  27  14  28  14  29  13  30  13  31  13  32  13
M  ISO  5  33  13  34  13  35  13  36  13  37  13
M  END
>  <minimizedAffinity>  (1) 
-5.04605532

>  <minimizedRMSD>  (1) 
2.20190668

$$$$
