
     RDKit          3D

 18 18  0  0  0  0  0  0  0  0999 V2000
   39.0500   28.1760   43.2840 C   0  0  0  0  0  0  0  0  0  0  0  0
   38.4990   26.8840   43.1500 C   0  0  0  0  0  0  0  0  0  0  0  0
   37.2610   26.7320   42.5470 C   0  0  0  0  0  0  0  0  0  0  0  0
   36.6260   27.8450   42.1080 N   0  0  0  0  0  0  0  0  0  0  0  0
   37.1550   29.0820   42.2370 C   0  0  0  0  0  0  0  0  0  0  0  0
   38.3470   29.2370   42.8160 N   0  0  0  0  0  0  0  0  0  0  0  0
   36.4460   30.2360   41.7570 N   0  0  0  0  0  0  0  0  0  0  0  0
   36.8520   30.8990   40.5500 C   0  0  0  0  0  0  0  0  0  0  0  0
   37.3710   30.1290   39.6560 N   0  0  0  0  0  0  0  0  0  0  0  0
   36.6300   32.3130   40.4960 N   0  0  0  0  0  0  0  0  0  0  0  0
   37.6910   30.5270   38.7530 H   0  0  0  0  0  0  0  0  0  0  0  0
   36.7610   25.4620   42.4370 O   0  0  0  0  0  0  0  0  0  0  0  0
   40.0315   28.3199   43.7592 H   0  0  0  0  0  0  0  0  0  0  0  0
   39.0474   26.0055   43.5209 H   0  0  0  0  0  0  0  0  0  0  0  0
   35.6366   30.5919   42.2853 H   0  0  0  0  0  0  0  0  0  0  0  0
   36.9001   32.8450   39.6564 H   0  0  0  0  0  0  0  0  0  0  0  0
   36.2002   32.7978   41.2967 H   0  0  0  0  0  0  0  0  0  0  0  0
   35.8794   25.3122   42.0122 H   0  0  0  0  0  0  0  0  0  0  0  0
  2  1  2  0
  3  2  1  0
  4  5  1  0
  4  3  2  0
  5  6  2  0
  6  1  1  0
  7  5  1  0
  8  7  1  0
  9  8  2  0
 10  8  1  0
 11  9  1  0
 12  3  1  0
  1 13  1  0
  2 14  1  0
  7 15  1  0
 10 16  1  0
 10 17  1  0
 12 18  1  0
M  ISO  3  13  14  14  14  18   3
M  END
>  <minimizedAffinity>  (1) 
-4.32389021

>  <minimizedRMSD>  (1) 
1.09845638

$$$$
