
     RDKit          3D

 19 20  0  0  0  0  0  0  0  0999 V2000
   39.5870   27.9480   43.1290 C   0  0  0  0  0  0  0  0  0  0  0  0
   38.3890   27.4270   43.6530 C   0  0  0  0  0  0  0  0  0  0  0  0
   37.2090   28.1240   43.4200 C   0  0  0  0  0  0  0  0  0  0  0  0
   37.2580   29.2870   42.6920 N   0  0  0  0  0  0  0  0  0  0  0  0
   38.4310   29.7490   42.2090 C   0  0  0  0  0  0  0  0  0  0  0  0
   39.5740   29.0950   42.4210 N   0  0  0  0  0  0  0  0  0  0  0  0
   38.4070   30.9940   41.4420 C   0  0  0  0  0  0  0  0  0  0  0  0
   39.5410   31.8050   41.4470 C   0  0  0  0  0  0  0  0  0  0  0  0
   39.5560   32.9830   40.7390 C   0  0  0  0  0  0  0  0  0  0  0  0
   38.4470   33.2920   40.0660 N   0  0  0  0  0  0  0  0  0  0  0  0
   37.3370   32.4990   40.0610 C   0  0  0  0  0  0  0  0  0  0  0  0
   37.3260   31.3570   40.7500 N   0  0  0  0  0  0  0  0  0  0  0  0
   36.0590   27.5950   43.9400 O   0  0  0  0  0  0  0  0  0  0  0  0
   40.5360   27.4180   43.2976 H   0  0  0  0  0  0  0  0  0  0  0  0
   38.3865   26.4919   44.2323 H   0  0  0  0  0  0  0  0  0  0  0  0
   40.4287   31.5004   42.0208 H   0  0  0  0  0  0  0  0  0  0  0  0
   40.4393   33.6386   40.7281 H   0  0  0  0  0  0  0  0  0  0  0  0
   36.4488   32.8022   39.4873 H   0  0  0  0  0  0  0  0  0  0  0  0
   35.1944   28.0563   43.7998 H   0  0  0  0  0  0  0  0  0  0  0  0
  1  2  2  0
  3  2  1  0
  3 13  1  0
  4  3  2  0
  5  6  2  0
  5  4  1  0
  6  1  1  0
  7  8  2  0
  7  5  1  0
  9  8  1  0
 10  9  2  0
 11 10  1  0
 11 12  2  0
 12  7  1  0
  1 14  1  0
  2 15  1  0
  8 16  1  0
  9 17  1  0
 11 18  1  0
 13 19  1  0
M  ISO  6  14  14  15  14  16  14  17  14  18  14  19   3
M  END
>  <minimizedAffinity>  (1) 
-4.28699303

>  <minimizedRMSD>  (1) 
2.80034542

$$$$
