
     RDKit          3D

 37 39  0  0  0  0  0  0  0  0999 V2000
   37.2620   29.9270   41.4220 C   0  0  0  0  0  0  0  0  0  0  0  0
   38.2390   29.3440   42.3060 C   0  0  0  0  0  0  0  0  0  0  0  0
   39.3110   30.1520   42.5750 C   0  0  0  0  0  0  0  0  0  0  0  0
   39.4190   31.3950   42.0390 N   0  0  0  0  0  0  0  0  0  0  0  0
   38.4680   31.8930   41.2120 C   0  0  0  0  0  0  0  0  0  0  0  0
   37.4210   31.1560   40.9240 N   0  0  0  0  0  0  0  0  0  0  0  0
   38.0190   28.0310   42.8020 N   0  0  0  0  0  0  0  0  0  0  0  0
   36.9740   27.6900   43.6800 C   0  0  0  0  0  0  0  0  0  0  0  0
   36.6630   28.5670   44.6050 N   0  0  0  0  0  0  0  0  0  0  0  0
   36.3540   26.4080   43.4670 N   0  0  0  0  0  0  0  0  0  0  0  0
   35.9500   28.3970   45.3200 H   0  0  0  0  0  0  0  0  0  0  0  0
   38.7760   33.2430   40.7250 C   0  0  0  0  0  0  0  0  0  0  0  0
   37.9150   34.1530   40.1600 C   0  0  0  0  0  0  0  0  0  0  0  0
   38.6280   35.3020   39.8420 C   0  0  0  0  0  0  0  0  0  0  0  0
   39.9050   35.0210   40.2390 C   0  0  0  0  0  0  0  0  0  0  0  0
   39.9580   33.8220   40.7470 O   0  0  0  0  0  0  0  0  0  0  0  0
   41.2550   35.5330   40.3230 N   0  0  0  0  0  0  0  0  0  0  0  0
   42.5470   34.9030   40.0410 C   0  0  0  0  0  0  0  0  0  0  0  0
   43.3020   34.9990   41.3760 C   0  0  0  0  0  0  0  0  0  0  0  0
   42.5060   35.4530   42.4110 O   0  0  0  0  0  0  0  0  0  0  0  0
   41.9630   36.7040   42.2350 C   0  0  0  0  0  0  0  0  0  0  0  0
   41.5320   36.9110   40.7670 C   0  0  0  0  0  0  0  0  0  0  0  0
   36.3667   29.3479   41.1517 H   0  0  0  0  0  0  0  0  0  0  0  0
   40.1049   29.7850   43.2422 H   0  0  0  0  0  0  0  0  0  0  0  0
   38.6623   27.2850   42.5011 H   0  0  0  0  0  0  0  0  0  0  0  0
   35.5830   26.1011   44.0771 H   0  0  0  0  0  0  0  0  0  0  0  0
   36.6815   25.7979   42.7045 H   0  0  0  0  0  0  0  0  0  0  0  0
   36.8397   33.9974   39.9881 H   0  0  0  0  0  0  0  0  0  0  0  0
   38.2514   36.2253   39.3776 H   0  0  0  0  0  0  0  0  0  0  0  0
   42.4137   33.8531   39.7410 H   0  0  0  0  0  0  0  0  0  0  0  0
   43.0846   35.3880   39.2129 H   0  0  0  0  0  0  0  0  0  0  0  0
   43.6821   34.0004   41.6372 H   0  0  0  0  0  0  0  0  0  0  0  0
   44.1178   35.7248   41.2432 H   0  0  0  0  0  0  0  0  0  0  0  0
   41.0841   36.8111   42.8878 H   0  0  0  0  0  0  0  0  0  0  0  0
   42.7224   37.4579   42.4900 H   0  0  0  0  0  0  0  0  0  0  0  0
   42.3401   37.3653   40.1750 H   0  0  0  0  0  0  0  0  0  0  0  0
   40.6754   37.5913   40.6515 H   0  0  0  0  0  0  0  0  0  0  0  0
  1  2  2  0
  2  3  1  0
  2  7  1  0
  4  3  2  0
  5  4  1  0
  6  5  2  0
  6  1  1  0
  7  8  1  0
  8  9  2  0
  9 11  1  0
 10  8  1  0
 12 16  1  0
 12  5  1  0
 13 12  2  0
 14 13  1  0
 14 15  2  0
 15 17  1  0
 15 16  1  0
 17 22  1  0
 18 17  1  0
 18 19  1  0
 19 20  1  0
 21 20  1  0
 22 21  1  0
  1 23  1  0
  3 24  1  0
  7 25  1  0
 10 26  1  0
 10 27  1  0
 13 28  1  0
 14 29  1  0
 18 30  1  0
 18 31  1  0
 19 32  1  0
 19 33  1  0
 21 34  1  0
 21 35  1  0
 22 36  1  0
 22 37  1  0
M  ISO  8  23  14  24  14  28  14  29  14  30  13  31  13  32  13  33  13
M  ISO  4  34  13  35  13  36  13  37  13
M  END
>  <minimizedAffinity>  (1) 
-5.02392769

>  <minimizedRMSD>  (1) 
0.903800011

$$$$
