
     RDKit          3D

 12 12  0  0  0  0  0  0  0  0999 V2000
   38.2210   28.9180   43.3510 C   0  0  0  0  0  0  0  0  0  0  0  0
   38.0190   27.5230   43.3630 C   0  0  0  0  0  0  0  0  0  0  0  0
   37.1640   26.9580   42.4290 C   0  0  0  0  0  0  0  0  0  0  0  0
   36.5440   27.7890   41.5270 N   0  0  0  0  0  0  0  0  0  0  0  0
   36.7590   29.1140   41.5450 C   0  0  0  0  0  0  0  0  0  0  0  0
   37.5770   29.6860   42.4310 N   0  0  0  0  0  0  0  0  0  0  0  0
   36.9930   25.6030   42.4690 O   0  0  0  0  0  0  0  0  0  0  0  0
   35.8750   30.0770   40.2980 S   0  0  0  0  0  0  0  0  0  0  0  0
   38.8970   29.3841   44.0830 H   0  0  0  0  0  0  0  0  0  0  0  0
   38.5325   26.8915   44.1030 H   0  0  0  0  0  0  0  0  0  0  0  0
   36.3909   25.1607   41.8194 H   0  0  0  0  0  0  0  0  0  0  0  0
   35.0486   30.9772   40.9174 H   0  0  0  0  0  0  0  0  0  0  0  0
  1  2  2  0
  3  7  1  0
  3  2  1  0
  4  5  1  0
  4  3  2  0
  5  6  2  0
  6  1  1  0
  8  5  1  0
  1  9  1  0
  2 10  1  0
  7 11  1  0
  8 12  1  0
M  ISO  4   9  14  10  14  11   3  12  11
M  END
>  <minimizedAffinity>  (1) 
-2.83326745

>  <minimizedRMSD>  (1) 
0.252277583

$$$$
