
     RDKit          3D

 28 30  0  0  0  0  0  0  0  0999 V2000
   36.7370   31.3940   40.4980 C   0  0  0  0  0  0  0  0  0  0  0  0
   37.0530   31.0690   39.0790 C   0  0  0  0  0  0  0  0  0  0  0  0
   38.0890   31.6150   38.3490 C   0  0  0  0  0  0  0  0  0  0  0  0
   38.1300   31.1290   37.0800 N   0  0  0  0  0  0  0  0  0  0  0  0
   37.1000   30.2500   36.9850 C   0  0  0  0  0  0  0  0  0  0  0  0
   36.6220   29.4410   35.9620 C   0  0  0  0  0  0  0  0  0  0  0  0
   35.5160   28.6120   36.1410 C   0  0  0  0  0  0  0  0  0  0  0  0
   34.8660   28.5800   37.3570 C   0  0  0  0  0  0  0  0  0  0  0  0
   35.3490   29.3870   38.3650 C   0  0  0  0  0  0  0  0  0  0  0  0
   36.4320   30.2040   38.2050 C   0  0  0  0  0  0  0  0  0  0  0  0
   39.2030   29.7160   42.6180 C   0  0  0  0  0  0  0  0  0  0  0  0
   38.5170   28.5820   43.0480 C   0  0  0  0  0  0  0  0  0  0  0  0
   37.2170   28.3720   42.6260 C   0  0  0  0  0  0  0  0  0  0  0  0
   36.6560   29.3040   41.7940 N   0  0  0  0  0  0  0  0  0  0  0  0
   37.3490   30.3930   41.3960 C   0  0  0  0  0  0  0  0  0  0  0  0
   38.6070   30.5900   41.8080 N   0  0  0  0  0  0  0  0  0  0  0  0
   36.5900   27.2450   43.0760 O   0  0  0  0  0  0  0  0  0  0  0  0
   35.6460   31.3897   40.6380 H   0  0  0  0  0  0  0  0  0  0  0  0
   37.1411   32.3885   40.7384 H   0  0  0  0  0  0  0  0  0  0  0  0
   38.7980   32.3560   38.7469 H   0  0  0  0  0  0  0  0  0  0  0  0
   38.8044   31.3769   36.3420 H   0  0  0  0  0  0  0  0  0  0  0  0
   37.1292   29.4550   34.9860 H   0  0  0  0  0  0  0  0  0  0  0  0
   35.1612   27.9826   35.3116 H   0  0  0  0  0  0  0  0  0  0  0  0
   33.9915   27.9323   37.5172 H   0  0  0  0  0  0  0  0  0  0  0  0
   34.8403   29.3724   39.3402 H   0  0  0  0  0  0  0  0  0  0  0  0
   40.2379   29.8899   42.9477 H   0  0  0  0  0  0  0  0  0  0  0  0
   39.0058   27.8594   43.7180 H   0  0  0  0  0  0  0  0  0  0  0  0
   35.6588   27.0530   42.8002 H   0  0  0  0  0  0  0  0  0  0  0  0
  1 15  1  0
  2  1  1  0
  3  2  2  0
  4  3  1  0
  5  4  1  0
  5 10  2  0
  6  7  2  0
  6  5  1  0
  7  8  1  0
  8  9  2  0
 10  9  1  0
 10  2  1  0
 11 12  2  0
 13 12  1  0
 13 17  1  0
 14 13  2  0
 15 14  1  0
 15 16  2  0
 16 11  1  0
  1 18  1  0
  1 19  1  0
  3 20  1  0
  4 21  1  0
  6 22  1  0
  7 23  1  0
  8 24  1  0
  9 25  1  0
 11 26  1  0
 12 27  1  0
 17 28  1  0
M  ISO  8  18   8  19   8  20  14  21   9  22  14  23  14  24  14  25  14
M  ISO  3  26  14  27  14  28   3
M  END
>  <minimizedAffinity>  (1) 
-4.95603895

>  <minimizedRMSD>  (1) 
2.13932681

$$$$
