
     RDKit          3D

 24 25  0  0  0  0  0  0  0  0999 V2000
   37.1890   28.0550   43.4580 C   0  0  0  0  0  0  0  0  0  0  0  0
   36.9890   28.8180   42.2410 N   0  0  0  0  0  0  0  0  0  0  0  0
   36.0190   28.5800   41.3410 C   0  0  0  0  0  0  0  0  0  0  0  0
   35.9140   29.3680   40.2100 C   0  0  0  0  0  0  0  0  0  0  0  0
   36.7760   30.4130   39.9470 C   0  0  0  0  0  0  0  0  0  0  0  0
   36.7330   31.1570   38.9500 O   0  0  0  0  0  0  0  0  0  0  0  0
   37.7510   30.6420   40.8670 N   0  0  0  0  0  0  0  0  0  0  0  0
   37.8110   29.8530   41.9420 C   0  0  0  0  0  0  0  0  0  0  0  0
   38.7350   30.0920   42.7840 O   0  0  0  0  0  0  0  0  0  0  0  0
   40.0620   25.7790   43.6070 C   0  0  0  0  0  0  0  0  0  0  0  0
   39.5820   24.6560   42.9120 C   0  0  0  0  0  0  0  0  0  0  0  0
   38.3000   24.6570   42.3930 C   0  0  0  0  0  0  0  0  0  0  0  0
   37.5440   25.7800   42.5870 N   0  0  0  0  0  0  0  0  0  0  0  0
   38.0270   26.8500   43.2600 C   0  0  0  0  0  0  0  0  0  0  0  0
   39.2580   26.8500   43.7580 N   0  0  0  0  0  0  0  0  0  0  0  0
   37.8720   23.5430   41.7220 O   0  0  0  0  0  0  0  0  0  0  0  0
   37.6780   28.7028   44.2004 H   0  0  0  0  0  0  0  0  0  0  0  0
   36.1996   27.7132   43.7959 H   0  0  0  0  0  0  0  0  0  0  0  0
   35.3078   27.7570   41.5048 H   0  0  0  0  0  0  0  0  0  0  0  0
   35.1104   29.1532   39.4902 H   0  0  0  0  0  0  0  0  0  0  0  0
   38.4281   31.4072   40.7372 H   0  0  0  0  0  0  0  0  0  0  0  0
   41.0806   25.7839   44.0223 H   0  0  0  0  0  0  0  0  0  0  0  0
   40.2269   23.7747   42.7805 H   0  0  0  0  0  0  0  0  0  0  0  0
   38.4751   22.7646   41.6196 H   0  0  0  0  0  0  0  0  0  0  0  0
  2  1  1  0
  3  2  1  0
  4  3  2  0
  5  4  1  0
  5  7  1  0
  6  5  2  0
  7  8  1  0
  8  2  1  0
  8  9  2  0
 10 15  2  0
 11 10  1  0
 12 13  1  0
 12 11  2  0
 13 14  2  0
 14  1  1  0
 14 15  1  0
 16 12  1  0
  1 17  1  0
  1 18  1  0
  3 19  1  0
  4 20  1  0
  7 21  1  0
 10 22  1  0
 11 23  1  0
 16 24  1  0
M  ISO  8  17   8  18   8  19  14  20  14  21   9  22  14  23  14  24   3
M  END
>  <minimizedAffinity>  (1) 
-4.64643717

>  <minimizedRMSD>  (1) 
3.80362391

$$$$
