
     RDKit          3D

 21 21  0  0  0  0  0  0  0  0999 V2000
   36.1770   30.7360   40.5530 C   0  0  0  0  0  0  0  0  0  0  0  0
   38.8010   29.5650   42.8130 C   0  0  0  0  0  0  0  0  0  0  0  0
   38.3330   28.2930   43.1920 C   0  0  0  0  0  0  0  0  0  0  0  0
   37.1310   27.8130   42.6940 C   0  0  0  0  0  0  0  0  0  0  0  0
   36.4560   28.6460   41.8320 N   0  0  0  0  0  0  0  0  0  0  0  0
   36.9170   29.8480   41.4850 C   0  0  0  0  0  0  0  0  0  0  0  0
   38.0680   30.3020   41.9650 N   0  0  0  0  0  0  0  0  0  0  0  0
   36.7020   26.5810   43.0770 O   0  0  0  0  0  0  0  0  0  0  0  0
   36.6760   32.0970   40.6070 N   0  0  0  0  0  0  0  0  0  0  0  0
   37.0870   32.7020   39.3920 C   0  0  0  0  0  0  0  0  0  0  0  0
   37.4700   32.0330   38.3620 N   0  0  0  0  0  0  0  0  0  0  0  0
   37.0880   34.1190   39.2760 N   0  0  0  0  0  0  0  0  0  0  0  0
   37.5090   31.0040   38.3330 H   0  0  0  0  0  0  0  0  0  0  0  0
   35.1119   30.7346   40.8278 H   0  0  0  0  0  0  0  0  0  0  0  0
   36.3178   30.3570   39.5300 H   0  0  0  0  0  0  0  0  0  0  0  0
   39.7537   29.9492   43.2063 H   0  0  0  0  0  0  0  0  0  0  0  0
   38.9232   27.6768   43.8863 H   0  0  0  0  0  0  0  0  0  0  0  0
   35.8460   26.2249   42.7299 H   0  0  0  0  0  0  0  0  0  0  0  0
   36.7301   32.6079   41.4997 H   0  0  0  0  0  0  0  0  0  0  0  0
   37.3856   34.5635   38.3958 H   0  0  0  0  0  0  0  0  0  0  0  0
   36.7911   34.7011   40.0722 H   0  0  0  0  0  0  0  0  0  0  0  0
  1  9  1  0
  1  6  1  0
  2  3  2  0
  4  8  1  0
  4  3  1  0
  5  4  2  0
  6  5  1  0
  6  7  2  0
  7  2  1  0
 10  9  1  0
 11 10  2  0
 12 10  1  0
 13 11  1  0
  1 14  1  0
  1 15  1  0
  2 16  1  0
  3 17  1  0
  8 18  1  0
  9 19  1  0
 12 20  1  0
 12 21  1  0
M  ISO  5  14   8  15   8  16  14  17  14  18   3
M  END
>  <minimizedAffinity>  (1) 
-4.45837212

>  <minimizedRMSD>  (1) 
2.31845236

$$$$
