
     RDKit          3D

 25 26  0  0  0  0  0  0  0  0999 V2000
   37.3730   30.3380   41.1930 C   0  0  0  0  0  0  0  0  0  0  0  0
   38.3690   29.6890   41.9880 C   0  0  0  0  0  0  0  0  0  0  0  0
   39.4500   30.4740   42.2870 C   0  0  0  0  0  0  0  0  0  0  0  0
   39.5500   31.7580   41.8570 N   0  0  0  0  0  0  0  0  0  0  0  0
   38.5710   32.3290   41.1010 C   0  0  0  0  0  0  0  0  0  0  0  0
   37.5160   31.6050   40.7930 N   0  0  0  0  0  0  0  0  0  0  0  0
   38.1590   28.3410   42.3820 N   0  0  0  0  0  0  0  0  0  0  0  0
   37.1730   27.9350   43.3130 C   0  0  0  0  0  0  0  0  0  0  0  0
   36.9680   28.7330   44.3390 N   0  0  0  0  0  0  0  0  0  0  0  0
   36.5150   26.6780   43.0050 N   0  0  0  0  0  0  0  0  0  0  0  0
   36.2810   28.4940   45.0640 H   0  0  0  0  0  0  0  0  0  0  0  0
   38.8830   33.7100   40.7520 C   0  0  0  0  0  0  0  0  0  0  0  0
   38.1130   34.5680   39.9600 C   0  0  0  0  0  0  0  0  0  0  0  0
   38.7410   35.7920   39.8630 C   0  0  0  0  0  0  0  0  0  0  0  0
   39.8760   35.6050   40.6120 C   0  0  0  0  0  0  0  0  0  0  0  0
   39.9150   34.4140   41.0960 O   0  0  0  0  0  0  0  0  0  0  0  0
   41.1870   36.7820   40.9400 S   0  0  0  0  0  0  0  0  0  0  0  0
   36.4690   29.7818   40.9043 H   0  0  0  0  0  0  0  0  0  0  0  0
   40.2634   30.0511   42.8949 H   0  0  0  0  0  0  0  0  0  0  0  0
   38.7599   27.6155   41.9656 H   0  0  0  0  0  0  0  0  0  0  0  0
   35.7849   26.3116   43.6324 H   0  0  0  0  0  0  0  0  0  0  0  0
   36.7783   26.1526   42.1591 H   0  0  0  0  0  0  0  0  0  0  0  0
   37.1546   34.3068   39.4875 H   0  0  0  0  0  0  0  0  0  0  0  0
   38.4144   36.6920   39.3215 H   0  0  0  0  0  0  0  0  0  0  0  0
   41.3452   36.9240   42.2934 H   0  0  0  0  0  0  0  0  0  0  0  0
  1  2  2  0
  2  3  1  0
  2  7  1  0
  4  3  2  0
  5  4  1  0
  6  5  2  0
  6  1  1  0
  7  8  1  0
  8  9  2  0
  9 11  1  0
 10  8  1  0
 12 16  1  0
 12  5  1  0
 13 12  2  0
 14 13  1  0
 14 15  2  0
 15 17  1  0
 15 16  1  0
  1 18  1  0
  3 19  1  0
  7 20  1  0
 10 21  1  0
 10 22  1  0
 13 23  1  0
 14 24  1  0
 17 25  1  0
M  ISO  5  18  14  19  14  23  14  24  14  25  11
M  END
>  <minimizedAffinity>  (1) 
-4.74593592

>  <minimizedRMSD>  (1) 
0.618546069

$$$$
