
     RDKit          3D

 39 41  0  0  0  0  0  0  0  0999 V2000
   37.5130   28.9100   41.7360 C   0  0  0  0  0  0  0  0  0  0  0  0
   36.4020   28.4520   40.8560 C   0  0  0  0  0  0  0  0  0  0  0  0
   35.5480   29.6920   40.5830 C   0  0  0  0  0  0  0  0  0  0  0  0
   34.3150   29.2250   39.8230 C   0  0  0  0  0  0  0  0  0  0  0  0
   34.8400   28.8530   38.4240 C   0  0  0  0  0  0  0  0  0  0  0  0
   35.7050   27.6490   38.6220 C   0  0  0  0  0  0  0  0  0  0  0  0
   36.8600   27.8940   39.5380 C   0  0  0  0  0  0  0  0  0  0  0  0
   40.1240   27.2280   43.6750 C   0  0  0  0  0  0  0  0  0  0  0  0
   39.8150   25.8740   43.4870 C   0  0  0  0  0  0  0  0  0  0  0  0
   38.7110   25.5210   42.6960 C   0  0  0  0  0  0  0  0  0  0  0  0
   37.9940   26.5530   42.1480 N   0  0  0  0  0  0  0  0  0  0  0  0
   38.3210   27.8370   42.3510 C   0  0  0  0  0  0  0  0  0  0  0  0
   39.3710   28.1660   43.1040 N   0  0  0  0  0  0  0  0  0  0  0  0
   38.4550   24.2010   42.5460 O   0  0  0  0  0  0  0  0  0  0  0  0
   37.8790   23.6680   41.4010 C   0  0  0  0  0  0  0  0  0  0  0  0
   36.5930   24.1310   41.1770 C   0  0  0  0  0  0  0  0  0  0  0  0
   35.8720   23.6890   40.0610 C   0  0  0  0  0  0  0  0  0  0  0  0
   36.5710   22.7900   39.2690 C   0  0  0  0  0  0  0  0  0  0  0  0
   37.8500   22.3240   39.4860 C   0  0  0  0  0  0  0  0  0  0  0  0
   38.4920   22.7950   40.5870 N   0  0  0  0  0  0  0  0  0  0  0  0
   37.0770   29.5127   42.5463 H   0  0  0  0  0  0  0  0  0  0  0  0
   38.2008   29.4714   41.0865 H   0  0  0  0  0  0  0  0  0  0  0  0
   35.8644   27.6372   41.3631 H   0  0  0  0  0  0  0  0  0  0  0  0
   35.2511   30.1625   41.5319 H   0  0  0  0  0  0  0  0  0  0  0  0
   36.1107   30.4352   39.9991 H   0  0  0  0  0  0  0  0  0  0  0  0
   33.8642   28.3500   40.3141 H   0  0  0  0  0  0  0  0  0  0  0  0
   33.5318   29.9964   39.7836 H   0  0  0  0  0  0  0  0  0  0  0  0
   35.4274   29.6818   38.0021 H   0  0  0  0  0  0  0  0  0  0  0  0
   34.0171   28.6502   37.7228 H   0  0  0  0  0  0  0  0  0  0  0  0
   35.0887   26.8424   39.0456 H   0  0  0  0  0  0  0  0  0  0  0  0
   36.1202   27.3815   37.6391 H   0  0  0  0  0  0  0  0  0  0  0  0
   37.3856   26.9439   39.7142 H   0  0  0  0  0  0  0  0  0  0  0  0
   37.5298   28.6268   39.0643 H   0  0  0  0  0  0  0  0  0  0  0  0
   40.9872   27.5154   44.2933 H   0  0  0  0  0  0  0  0  0  0  0  0
   40.4330   25.0941   43.9558 H   0  0  0  0  0  0  0  0  0  0  0  0
   36.1374   24.8470   41.8768 H   0  0  0  0  0  0  0  0  0  0  0  0
   34.8488   24.0229   39.8340 H   0  0  0  0  0  0  0  0  0  0  0  0
   36.0517   22.4102   38.3768 H   0  0  0  0  0  0  0  0  0  0  0  0
   38.3271   21.6067   38.8020 H   0  0  0  0  0  0  0  0  0  0  0  0
  1 12  1  0
  2  1  1  0
  3  2  1  0
  4  3  1  0
  5  6  1  0
  5  4  1  0
  6  7  1  0
  7  2  1  0
  9  8  2  0
 10  9  1  0
 11 12  1  0
 11 10  2  0
 12 13  2  0
 13  8  1  0
 14 10  1  0
 15 14  1  0
 16 15  2  0
 17 16  1  0
 18 19  1  0
 18 17  2  0
 19 20  2  0
 20 15  1  0
  1 21  1  0
  1 22  1  0
  2 23  1  0
  3 24  1  0
  3 25  1  0
  4 26  1  0
  4 27  1  0
  5 28  1  0
  5 29  1  0
  6 30  1  0
  6 31  1  0
  7 32  1  0
  7 33  1  0
  8 34  1  0
  9 35  1  0
 16 36  1  0
 17 37  1  0
 18 38  1  0
 19 39  1  0
M  ISO  8  21   8  22   8  23  13  24  13  25  13  26  13  27  13  28  13
M  ISO  8  29  13  30  13  31  13  32  13  33  13  34  14  35  14  36  14
M  ISO  3  37  14  38  14  39  14
M  END
>  <minimizedAffinity>  (1) 
-4.99716139

>  <minimizedRMSD>  (1) 
1.10852373

$$$$
