
     RDKit          3D

 42 44  0  0  1  0  0  0  0  0999 V2000
   35.7800   29.9560   40.3410 C   0  0  0  0  0  0  0  0  0  0  0  0
   35.5920   29.2070   39.0590 C   0  0  0  0  0  0  0  0  0  0  0  0
   34.0710   29.0800   38.8720 C   0  0  0  0  0  0  0  0  0  0  0  0
   33.8560   28.2140   37.6460 C   0  0  0  0  0  0  0  0  0  0  0  0
   34.2920   29.0700   36.4650 C   0  0  0  0  0  0  0  0  0  0  0  0
   35.7820   29.2710   36.5990 C   0  0  0  0  0  0  0  0  0  0  0  0
   36.1830   29.9090   37.8780 C   0  0  0  0  0  0  0  0  0  0  0  0
   38.1920   29.2750   43.0080 C   0  0  0  0  0  0  0  0  0  0  0  0
   37.9290   27.9500   43.3270 C   0  0  0  0  0  0  0  0  0  0  0  0
   36.9230   27.2500   42.6450 C   0  0  0  0  0  0  0  0  0  0  0  0
   36.2480   27.9590   41.6720 N   0  0  0  0  0  0  0  0  0  0  0  0
   36.5260   29.2330   41.3900 C   0  0  0  0  0  0  0  0  0  0  0  0
   37.4930   29.8920   42.0520 N   0  0  0  0  0  0  0  0  0  0  0  0
   36.6960   25.9600   42.9830 O   0  0  0  0  0  0  0  0  0  0  0  0
   37.2100   25.4210   40.7290 N   0  0  0  0  0  0  0  0  0  0  0  0
   37.9920   24.3670   40.0940 C   0  0  0  0  0  0  0  0  0  0  0  0
   39.1810   24.2540   41.0400 C   0  0  0  0  0  0  0  0  0  0  0  0
   38.4720   24.4210   42.3880 C   0  0  0  0  0  0  0  0  0  0  0  0
   37.0930   24.9290   42.0840 C   0  0  1  0  0  0  0  0  0  0  0  0
   34.7849   30.2022   40.7399 H   0  0  0  0  0  0  0  0  0  0  0  0
   36.3854   30.8398   40.0912 H   0  0  0  0  0  0  0  0  0  0  0  0
   36.1048   28.2357   39.1188 H   0  0  0  0  0  0  0  0  0  0  0  0
   33.6182   28.6062   39.7555 H   0  0  0  0  0  0  0  0  0  0  0  0
   33.6029   30.0676   38.7471 H   0  0  0  0  0  0  0  0  0  0  0  0
   34.4679   27.3019   37.7069 H   0  0  0  0  0  0  0  0  0  0  0  0
   32.8089   27.8904   37.5522 H   0  0  0  0  0  0  0  0  0  0  0  0
   33.7752   30.0407   36.4896 H   0  0  0  0  0  0  0  0  0  0  0  0
   34.0436   28.5823   35.5108 H   0  0  0  0  0  0  0  0  0  0  0  0
   36.2729   28.2889   36.5314 H   0  0  0  0  0  0  0  0  0  0  0  0
   36.0901   29.9493   35.7897 H   0  0  0  0  0  0  0  0  0  0  0  0
   37.2796   29.8827   37.9604 H   0  0  0  0  0  0  0  0  0  0  0  0
   35.8111   30.9442   37.8747 H   0  0  0  0  0  0  0  0  0  0  0  0
   38.9813   29.8203   43.5462 H   0  0  0  0  0  0  0  0  0  0  0  0
   38.5099   27.4486   44.1152 H   0  0  0  0  0  0  0  0  0  0  0  0
   36.2858   25.5210   40.2854 H   0  0  0  0  0  0  0  0  0  0  0  0
   37.4281   23.4239   40.0439 H   0  0  0  0  0  0  0  0  0  0  0  0
   38.2690   24.5822   39.0514 H   0  0  0  0  0  0  0  0  0  0  0  0
   39.6751   23.2746   40.9581 H   0  0  0  0  0  0  0  0  0  0  0  0
   39.9903   24.9749   40.8520 H   0  0  0  0  0  0  0  0  0  0  0  0
   38.4144   23.4542   42.9095 H   0  0  0  0  0  0  0  0  0  0  0  0
   39.0178   25.1180   43.0409 H   0  0  0  0  0  0  0  0  0  0  0  0
   36.3215   24.1527   42.1944 H   0  0  0  0  0  0  0  0  0  0  0  0
  1 12  1  0
  2  1  1  0
  3  2  1  0
  4  3  1  0
  5  6  1  0
  5  4  1  0
  6  7  1  0
  7  2  1  0
  8  9  2  0
 10 14  1  0
 10  9  1  0
 11 10  2  0
 12 11  1  0
 12 13  2  0
 13  8  1  0
 15 19  1  0
 16 15  1  0
 16 17  1  0
 17 18  1  0
 19 18  1  0
 19 14  1  0
  1 20  1  0
  1 21  1  0
  2 22  1  0
  3 23  1  0
  3 24  1  0
  4 25  1  0
  4 26  1  0
  5 27  1  0
  5 28  1  0
  6 29  1  0
  6 30  1  0
  7 31  1  0
  7 32  1  0
  8 33  1  0
  9 34  1  0
 15 35  1  0
 16 36  1  0
 16 37  1  0
 17 38  1  0
 17 39  1  0
 18 40  1  0
 18 41  1  0
 19 42  1  6
M  ISO  8  20   8  21   8  22  13  23  13  24  13  25  13  26  13  27  13
M  ISO  8  28  13  29  13  30  13  31  13  32  13  33  14  34  14  35   5
M  ISO  7  36  13  37  13  38  13  39  13  40  13  41  13  42  13
M  END
>  <minimizedAffinity>  (1) 
-4.94752455

>  <minimizedRMSD>  (1) 
2.97513914

$$$$
