
     RDKit          3D

 37 39  0  0  0  0  0  0  0  0999 V2000
   36.8800   27.9090   42.1570 C   0  0  0  0  0  0  0  0  0  0  0  0
   36.3700   27.9330   40.7490 C   0  0  0  0  0  0  0  0  0  0  0  0
   35.3570   29.0850   40.7030 C   0  0  0  0  0  0  0  0  0  0  0  0
   34.7200   29.0350   39.3260 C   0  0  0  0  0  0  0  0  0  0  0  0
   35.8200   29.5220   38.3810 C   0  0  0  0  0  0  0  0  0  0  0  0
   36.8730   28.4410   38.3880 C   0  0  0  0  0  0  0  0  0  0  0  0
   37.4370   28.1870   39.7340 C   0  0  0  0  0  0  0  0  0  0  0  0
   38.8940   24.8750   42.5890 C   0  0  0  0  0  0  0  0  0  0  0  0
   40.1770   25.3970   42.8240 C   0  0  0  0  0  0  0  0  0  0  0  0
   40.3610   26.7840   42.8370 C   0  0  0  0  0  0  0  0  0  0  0  0
   39.2530   27.5460   42.6150 N   0  0  0  0  0  0  0  0  0  0  0  0
   38.0440   27.0280   42.3930 C   0  0  0  0  0  0  0  0  0  0  0  0
   37.8620   25.7020   42.3800 N   0  0  0  0  0  0  0  0  0  0  0  0
   41.6210   27.2300   43.0700 O   0  0  0  0  0  0  0  0  0  0  0  0
   42.2050   27.3660   44.3170 C   0  0  0  0  0  0  0  0  0  0  0  0
   43.1720   28.3770   44.3550 C   0  0  0  0  0  0  0  0  0  0  0  0
   43.6880   28.4340   45.6180 N   0  0  0  0  0  0  0  0  0  0  0  0
   43.0540   27.4790   46.3450 C   0  0  0  0  0  0  0  0  0  0  0  0
   42.1570   26.8340   45.5540 N   0  0  0  0  0  0  0  0  0  0  0  0
   36.0610   27.5719   42.8093 H   0  0  0  0  0  0  0  0  0  0  0  0
   37.2237   28.9313   42.3733 H   0  0  0  0  0  0  0  0  0  0  0  0
   35.9419   26.9512   40.4984 H   0  0  0  0  0  0  0  0  0  0  0  0
   34.5920   28.9512   41.4820 H   0  0  0  0  0  0  0  0  0  0  0  0
   35.8443   30.0544   40.8839 H   0  0  0  0  0  0  0  0  0  0  0  0
   34.4169   28.0080   39.0742 H   0  0  0  0  0  0  0  0  0  0  0  0
   33.8097   29.6492   39.2622 H   0  0  0  0  0  0  0  0  0  0  0  0
   36.2427   30.4714   38.7415 H   0  0  0  0  0  0  0  0  0  0  0  0
   35.4329   29.7050   37.3677 H   0  0  0  0  0  0  0  0  0  0  0  0
   36.4208   27.5096   38.0166 H   0  0  0  0  0  0  0  0  0  0  0  0
   37.6982   28.7832   37.7461 H   0  0  0  0  0  0  0  0  0  0  0  0
   38.0954   27.3073   39.6830 H   0  0  0  0  0  0  0  0  0  0  0  0
   37.9942   29.0834   40.0437 H   0  0  0  0  0  0  0  0  0  0  0  0
   38.7372   23.7863   42.5767 H   0  0  0  0  0  0  0  0  0  0  0  0
   41.0284   24.7221   42.9961 H   0  0  0  0  0  0  0  0  0  0  0  0
   43.4665   29.0173   43.5104 H   0  0  0  0  0  0  0  0  0  0  0  0
   43.2375   27.2614   47.4075 H   0  0  0  0  0  0  0  0  0  0  0  0
   41.5409   26.0640   45.8515 H   0  0  0  0  0  0  0  0  0  0  0  0
  1 12  1  0
  2  1  1  0
  3  2  1  0
  4  3  1  0
  5  6  1  0
  5  4  1  0
  6  7  1  0
  7  2  1  0
  8  9  2  0
  9 10  1  0
 10 14  1  0
 11 10  2  0
 12 11  1  0
 13 12  2  0
 13  8  1  0
 14 15  1  0
 15 16  2  0
 15 19  1  0
 16 17  1  0
 17 18  2  0
 19 18  1  0
  1 20  1  0
  1 21  1  0
  2 22  1  0
  3 23  1  0
  3 24  1  0
  4 25  1  0
  4 26  1  0
  5 27  1  0
  5 28  1  0
  6 29  1  0
  6 30  1  0
  7 31  1  0
  7 32  1  0
  8 33  1  0
  9 34  1  0
 16 35  1  0
 18 36  1  0
 19 37  1  0
M  ISO  8  20   8  21   8  22  13  23  13  24  13  25  13  26  13  27  13
M  ISO  8  28  13  29  13  30  13  31  13  32  13  33  14  34  14  35  14
M  ISO  2  36  14  37   9
M  END
>  <minimizedAffinity>  (1) 
-4.64340353

>  <minimizedRMSD>  (1) 
5.03859615

$$$$
