
     RDKit          3D

 39 40  0  0  0  0  0  0  0  0999 V2000
   36.3970   28.1940   40.7240 C   0  0  0  0  0  0  0  0  0  0  0  0
   35.1800   29.1120   40.5620 C   0  0  0  0  0  0  0  0  0  0  0  0
   34.7270   28.9950   39.1120 C   0  0  0  0  0  0  0  0  0  0  0  0
   35.8080   29.7140   38.3020 C   0  0  0  0  0  0  0  0  0  0  0  0
   37.0580   28.8850   38.4310 C   0  0  0  0  0  0  0  0  0  0  0  0
   37.4900   28.7170   39.8500 C   0  0  0  0  0  0  0  0  0  0  0  0
   36.7310   28.2100   42.1750 C   0  0  0  0  0  0  0  0  0  0  0  0
   39.6890   26.7990   43.8230 C   0  0  0  0  0  0  0  0  0  0  0  0
   39.6860   25.4790   43.3800 C   0  0  0  0  0  0  0  0  0  0  0  0
   38.6730   25.0510   42.5120 C   0  0  0  0  0  0  0  0  0  0  0  0
   37.7420   25.9820   42.1560 N   0  0  0  0  0  0  0  0  0  0  0  0
   37.7610   27.2420   42.5900 C   0  0  0  0  0  0  0  0  0  0  0  0
   38.7290   27.6400   43.4150 N   0  0  0  0  0  0  0  0  0  0  0  0
   38.6940   23.7570   42.0970 O   0  0  0  0  0  0  0  0  0  0  0  0
   38.6180   23.2860   40.7850 C   0  0  0  0  0  0  0  0  0  0  0  0
   37.1530   23.2980   40.3330 C   0  0  0  0  0  0  0  0  0  0  0  0
   39.3530   24.2610   39.8920 C   0  0  0  0  0  0  0  0  0  0  0  0
   36.2212   27.1527   40.4161 H   0  0  0  0  0  0  0  0  0  0  0  0
   34.3727   28.7926   41.2374 H   0  0  0  0  0  0  0  0  0  0  0  0
   35.4356   30.1523   40.8118 H   0  0  0  0  0  0  0  0  0  0  0  0
   34.6573   27.9389   38.8124 H   0  0  0  0  0  0  0  0  0  0  0  0
   33.7306   29.4331   38.9530 H   0  0  0  0  0  0  0  0  0  0  0  0
   35.9775   30.7232   38.7054 H   0  0  0  0  0  0  0  0  0  0  0  0
   35.5098   29.8245   37.2490 H   0  0  0  0  0  0  0  0  0  0  0  0
   36.8677   27.8908   38.0004 H   0  0  0  0  0  0  0  0  0  0  0  0
   37.8635   29.4104   37.8969 H   0  0  0  0  0  0  0  0  0  0  0  0
   38.3337   28.0118   39.8805 H   0  0  0  0  0  0  0  0  0  0  0  0
   37.7766   29.7083   40.2312 H   0  0  0  0  0  0  0  0  0  0  0  0
   37.0880   29.2184   42.4314 H   0  0  0  0  0  0  0  0  0  0  0  0
   35.8103   27.9234   42.7044 H   0  0  0  0  0  0  0  0  0  0  0  0
   40.4768   27.1502   44.5056 H   0  0  0  0  0  0  0  0  0  0  0  0
   40.4699   24.7803   43.7077 H   0  0  0  0  0  0  0  0  0  0  0  0
   39.0430   22.2730   40.7291 H   0  0  0  0  0  0  0  0  0  0  0  0
   36.4969   23.3034   41.2159 H   0  0  0  0  0  0  0  0  0  0  0  0
   36.9629   24.1977   39.7294 H   0  0  0  0  0  0  0  0  0  0  0  0
   36.9482   22.4015   39.7294 H   0  0  0  0  0  0  0  0  0  0  0  0
   39.8997   24.9862   40.5126 H   0  0  0  0  0  0  0  0  0  0  0  0
   40.0641   23.7122   39.2570 H   0  0  0  0  0  0  0  0  0  0  0  0
   38.6297   24.7935   39.2570 H   0  0  0  0  0  0  0  0  0  0  0  0
  1  7  1  0
  2  1  1  0
  3  2  1  0
  4  5  1  0
  4  3  1  0
  5  6  1  0
  6  1  1  0
  7 12  1  0
  9  8  2  0
 10  9  1  0
 11 10  2  0
 11 12  1  0
 12 13  2  0
 13  8  1  0
 14 10  1  0
 15 14  1  0
 16 15  1  0
 17 15  1  0
  1 18  1  0
  2 19  1  0
  2 20  1  0
  3 21  1  0
  3 22  1  0
  4 23  1  0
  4 24  1  0
  5 25  1  0
  5 26  1  0
  6 27  1  0
  6 28  1  0
  7 29  1  0
  7 30  1  0
  8 31  1  0
  9 32  1  0
 15 33  1  0
 16 34  1  0
 16 35  1  0
 16 36  1  0
 17 37  1  0
 17 38  1  0
 17 39  1  0
M  ISO  8  18  13  19  13  20  13  21  13  22  13  23  13  24  13  25  13
M  ISO  8  26  13  27  13  28  13  29   8  30   8  31  14  32  14  33   8
M  ISO  6  34   8  35   8  36   8  37   8  38   8  39   8
M  END
>  <minimizedAffinity>  (1) 
-4.32330036

>  <minimizedRMSD>  (1) 
0.637618244

$$$$
