
     RDKit          3D

 33 34  0  0  0  0  0  0  0  0999 V2000
   36.4420   28.0990   40.7500 C   0  0  0  0  0  0  0  0  0  0  0  0
   35.2260   29.0260   40.5860 C   0  0  0  0  0  0  0  0  0  0  0  0
   34.9500   29.1130   39.0880 C   0  0  0  0  0  0  0  0  0  0  0  0
   36.0840   29.9740   38.5460 C   0  0  0  0  0  0  0  0  0  0  0  0
   37.3510   29.1650   38.7040 C   0  0  0  0  0  0  0  0  0  0  0  0
   37.6230   28.7820   40.1100 C   0  0  0  0  0  0  0  0  0  0  0  0
   36.6030   27.9210   42.2270 C   0  0  0  0  0  0  0  0  0  0  0  0
   39.5850   26.6860   43.9680 C   0  0  0  0  0  0  0  0  0  0  0  0
   39.7560   25.4130   43.4030 C   0  0  0  0  0  0  0  0  0  0  0  0
   38.8640   24.9700   42.4340 C   0  0  0  0  0  0  0  0  0  0  0  0
   37.8380   25.8140   42.0660 N   0  0  0  0  0  0  0  0  0  0  0  0
   37.7110   27.0270   42.6340 C   0  0  0  0  0  0  0  0  0  0  0  0
   38.5650   27.4420   43.5570 N   0  0  0  0  0  0  0  0  0  0  0  0
   39.0530   23.7220   41.8970 O   0  0  0  0  0  0  0  0  0  0  0  0
   38.0970   23.2840   40.9370 C   0  0  0  0  0  0  0  0  0  0  0  0
   36.3363   27.1143   40.2712 H   0  0  0  0  0  0  0  0  0  0  0  0
   34.3544   28.6065   41.1098 H   0  0  0  0  0  0  0  0  0  0  0  0
   35.4218   30.0203   41.0140 H   0  0  0  0  0  0  0  0  0  0  0  0
   34.9667   28.1131   38.6299 H   0  0  0  0  0  0  0  0  0  0  0  0
   33.9587   29.5356   38.8670 H   0  0  0  0  0  0  0  0  0  0  0  0
   36.1572   30.9103   39.1186 H   0  0  0  0  0  0  0  0  0  0  0  0
   35.9118   30.2415   37.4930 H   0  0  0  0  0  0  0  0  0  0  0  0
   37.2588   28.2485   38.1028 H   0  0  0  0  0  0  0  0  0  0  0  0
   38.1874   29.7951   38.3673 H   0  0  0  0  0  0  0  0  0  0  0  0
   38.4832   28.0967   40.1309 H   0  0  0  0  0  0  0  0  0  0  0  0
   37.8311   29.7012   40.6773 H   0  0  0  0  0  0  0  0  0  0  0  0
   36.7825   28.9108   42.6721 H   0  0  0  0  0  0  0  0  0  0  0  0
   35.6776   27.4432   42.5810 H   0  0  0  0  0  0  0  0  0  0  0  0
   40.2801   27.0546   44.7368 H   0  0  0  0  0  0  0  0  0  0  0  0
   40.5894   24.7710   43.7245 H   0  0  0  0  0  0  0  0  0  0  0  0
   37.2151   22.8800   41.4557 H   0  0  0  0  0  0  0  0  0  0  0  0
   37.7946   24.1334   40.3068 H   0  0  0  0  0  0  0  0  0  0  0  0
   38.5428   22.5003   40.3068 H   0  0  0  0  0  0  0  0  0  0  0  0
  1  7  1  0
  2  1  1  0
  3  2  1  0
  4  5  1  0
  4  3  1  0
  5  6  1  0
  6  1  1  0
  7 12  1  0
  9  8  2  0
 10  9  1  0
 11 10  2  0
 11 12  1  0
 12 13  2  0
 13  8  1  0
 14 10  1  0
 15 14  1  0
  1 16  1  0
  2 17  1  0
  2 18  1  0
  3 19  1  0
  3 20  1  0
  4 21  1  0
  4 22  1  0
  5 23  1  0
  5 24  1  0
  6 25  1  0
  6 26  1  0
  7 27  1  0
  7 28  1  0
  8 29  1  0
  9 30  1  0
 15 31  1  0
 15 32  1  0
 15 33  1  0
M  ISO  8  16  13  17  13  18  13  19  13  20  13  21  13  22  13  23  13
M  ISO  8  24  13  25  13  26  13  27   8  28   8  29  14  30  14  31   8
M  ISO  2  32   8  33   8
M  END
>  <minimizedAffinity>  (1) 
-4.22805595

>  <minimizedRMSD>  (1) 
0.211589351

$$$$
