
     RDKit          3D

 30 32  0  0  0  0  0  0  0  0999 V2000
   37.3910   28.3740   41.5530 N   0  0  0  0  0  0  0  0  0  0  0  0
   37.5550   27.2720   42.3180 C   0  0  0  0  0  0  0  0  0  0  0  0
   38.5540   27.6480   43.2230 C   0  0  0  0  0  0  0  0  0  0  0  0
   38.9590   28.9370   42.9870 N   0  0  0  0  0  0  0  0  0  0  0  0
   38.2150   29.3390   41.9510 C   0  0  0  0  0  0  0  0  0  0  0  0
   38.4700   30.6700   41.5160 N   0  0  0  0  0  0  0  0  0  0  0  0
   37.7280   31.3550   40.5940 C   0  0  0  0  0  0  0  0  0  0  0  0
   38.0430   32.6410   40.2360 C   0  0  0  0  0  0  0  0  0  0  0  0
   37.1680   33.3100   39.2160 C   0  0  0  0  0  0  0  0  0  0  0  0
   39.1190   33.3070   40.7840 C   0  0  0  0  0  0  0  0  0  0  0  0
   39.3770   34.4860   40.4320 O   0  0  0  0  0  0  0  0  0  0  0  0
   39.8530   32.6390   41.6910 N   0  0  0  0  0  0  0  0  0  0  0  0
   39.5160   31.3990   42.0090 C   0  0  0  0  0  0  0  0  0  0  0  0
   40.2270   30.7830   42.8730 O   0  0  0  0  0  0  0  0  0  0  0  0
   35.2080   29.0300   40.6770 C   0  0  0  0  0  0  0  0  0  0  0  0
   36.4820   28.4710   40.5030 C   0  0  0  0  0  0  0  0  0  0  0  0
   36.8150   27.9980   39.2030 C   0  0  0  0  0  0  0  0  0  0  0  0
   35.8900   28.1140   38.2100 N   0  0  0  0  0  0  0  0  0  0  0  0
   34.6550   28.6680   38.4270 C   0  0  0  0  0  0  0  0  0  0  0  0
   34.3090   29.1310   39.6670 N   0  0  0  0  0  0  0  0  0  0  0  0
   37.0286   26.3088   42.2463 H   0  0  0  0  0  0  0  0  0  0  0  0
   38.9585   26.9995   44.0141 H   0  0  0  0  0  0  0  0  0  0  0  0
   36.8600   30.8642   40.1296 H   0  0  0  0  0  0  0  0  0  0  0  0
   36.3945   33.9014   39.7278 H   0  0  0  0  0  0  0  0  0  0  0  0
   37.7797   33.9729   38.5864 H   0  0  0  0  0  0  0  0  0  0  0  0
   36.6887   32.5459   38.5864 H   0  0  0  0  0  0  0  0  0  0  0  0
   40.6682   33.0870   42.1334 H   0  0  0  0  0  0  0  0  0  0  0  0
   34.9264   29.4017   41.6733 H   0  0  0  0  0  0  0  0  0  0  0  0
   37.7989   27.5481   39.0041 H   0  0  0  0  0  0  0  0  0  0  0  0
   33.9364   28.7409   37.5974 H   0  0  0  0  0  0  0  0  0  0  0  0
  1  5  1  0
  1  2  1  0
  2  3  2  0
  4  3  1  0
  5  4  2  0
  6  5  1  0
  6 13  1  0
  7  6  1  0
  8  7  2  0
  8 10  1  0
  9  8  1  0
 10 12  1  0
 11 10  2  0
 12 13  1  0
 13 14  2  0
 16 15  2  0
 16  1  1  0
 17 16  1  0
 18 19  1  0
 18 17  2  0
 19 20  2  0
 20 15  1  0
  2 21  1  0
  3 22  1  0
  7 23  1  0
  9 24  1  0
  9 25  1  0
  9 26  1  0
 12 27  1  0
 15 28  1  0
 17 29  1  0
 19 30  1  0
M  ISO  8  21  14  22  14  23  14  24   8  25   8  26   8  27   9  28  14
M  ISO  2  29  14  30  14
M  END
>  <minimizedAffinity>  (1) 
-5.58791065

>  <minimizedRMSD>  (1) 
2.9663837

$$$$
