
     RDKit          3D

 31 34  0  0  0  0  0  0  0  0999 V2000
   38.0510   28.1600   41.7460 N   0  0  0  0  0  0  0  0  0  0  0  0
   38.1220   27.1390   42.6300 C   0  0  0  0  0  0  0  0  0  0  0  0
   39.2910   27.4130   43.3420 C   0  0  0  0  0  0  0  0  0  0  0  0
   39.8820   28.5590   42.8880 N   0  0  0  0  0  0  0  0  0  0  0  0
   39.0790   28.9860   41.8980 C   0  0  0  0  0  0  0  0  0  0  0  0
   39.5200   30.1790   41.2670 N   0  0  0  0  0  0  0  0  0  0  0  0
   39.1070   30.8400   40.1480 C   0  0  0  0  0  0  0  0  0  0  0  0
   39.8550   31.9350   39.9510 N   0  0  0  0  0  0  0  0  0  0  0  0
   40.7870   32.0530   40.9140 C   0  0  0  0  0  0  0  0  0  0  0  0
   41.8080   32.9130   41.2590 C   0  0  0  0  0  0  0  0  0  0  0  0
   41.9650   33.9070   40.4770 O   0  0  0  0  0  0  0  0  0  0  0  0
   42.5930   32.7360   42.3380 N   0  0  0  0  0  0  0  0  0  0  0  0
   42.3340   31.6630   43.0790 C   0  0  0  0  0  0  0  0  0  0  0  0
   43.1180   31.4030   44.2370 N   0  0  0  0  0  0  0  0  0  0  0  0
   41.3450   30.7780   42.7950 N   0  0  0  0  0  0  0  0  0  0  0  0
   40.5530   30.9640   41.6990 C   0  0  0  0  0  0  0  0  0  0  0  0
   35.8700   29.0670   41.0530 C   0  0  0  0  0  0  0  0  0  0  0  0
   37.0280   28.3090   40.8040 C   0  0  0  0  0  0  0  0  0  0  0  0
   37.1370   27.6810   39.5280 C   0  0  0  0  0  0  0  0  0  0  0  0
   36.1370   27.8400   38.6300 N   0  0  0  0  0  0  0  0  0  0  0  0
   35.0290   28.5940   38.9330 C   0  0  0  0  0  0  0  0  0  0  0  0
   34.8830   29.2140   40.1420 N   0  0  0  0  0  0  0  0  0  0  0  0
   37.4266   26.2963   42.7572 H   0  0  0  0  0  0  0  0  0  0  0  0
   39.6840   26.7901   44.1590 H   0  0  0  0  0  0  0  0  0  0  0  0
   38.2781   30.5203   39.4994 H   0  0  0  0  0  0  0  0  0  0  0  0
   43.3497   33.3931   42.5756 H   0  0  0  0  0  0  0  0  0  0  0  0
   42.9227   30.5735   44.8156 H   0  0  0  0  0  0  0  0  0  0  0  0
   43.8810   32.0442   44.4970 H   0  0  0  0  0  0  0  0  0  0  0  0
   35.7633   29.5608   42.0301 H   0  0  0  0  0  0  0  0  0  0  0  0
   38.0210   27.0762   39.2774 H   0  0  0  0  0  0  0  0  0  0  0  0
   34.2351   28.7019   38.1792 H   0  0  0  0  0  0  0  0  0  0  0  0
  1  5  1  0
  1  2  1  0
  2  3  2  0
  4  3  1  0
  5  4  2  0
  6 16  1  0
  6  5  1  0
  7  6  1  0
  8  7  2  0
  8  9  1  0
  9 10  1  0
  9 16  2  0
 10 12  1  0
 11 10  2  0
 12 13  1  0
 13 14  1  0
 15 13  2  0
 16 15  1  0
 18 17  2  0
 18  1  1  0
 19 18  1  0
 20 21  1  0
 20 19  2  0
 21 22  2  0
 22 17  1  0
  2 23  1  0
  3 24  1  0
  7 25  1  0
 12 26  1  0
 14 27  1  0
 14 28  1  0
 17 29  1  0
 19 30  1  0
 21 31  1  0
M  ISO  7  23  14  24  14  25  14  26   9  29  14  30  14  31  14
M  END
>  <minimizedAffinity>  (1) 
-5.24102449

>  <minimizedRMSD>  (1) 
2.31631708

$$$$
