
     RDKit          3D

 28 31  0  0  0  0  0  0  0  0999 V2000
   36.8130   28.4060   41.8320 N   0  0  0  0  0  0  0  0  0  0  0  0
   36.5430   27.6880   42.9420 C   0  0  0  0  0  0  0  0  0  0  0  0
   37.5250   28.1080   43.8440 C   0  0  0  0  0  0  0  0  0  0  0  0
   38.3490   29.0460   43.2830 N   0  0  0  0  0  0  0  0  0  0  0  0
   37.8700   29.1980   42.0350 C   0  0  0  0  0  0  0  0  0  0  0  0
   38.5820   30.1370   41.2390 N   0  0  0  0  0  0  0  0  0  0  0  0
   38.3020   30.6570   40.0060 C   0  0  0  0  0  0  0  0  0  0  0  0
   39.2670   31.5150   39.6350 N   0  0  0  0  0  0  0  0  0  0  0  0
   40.2040   31.5920   40.5900 C   0  0  0  0  0  0  0  0  0  0  0  0
   41.3930   32.2680   40.7940 C   0  0  0  0  0  0  0  0  0  0  0  0
   42.1230   32.1020   41.9330 N   0  0  0  0  0  0  0  0  0  0  0  0
   41.6570   31.2490   42.8780 C   0  0  0  0  0  0  0  0  0  0  0  0
   40.5150   30.5940   42.6900 N   0  0  0  0  0  0  0  0  0  0  0  0
   39.7650   30.7440   41.5580 C   0  0  0  0  0  0  0  0  0  0  0  0
   34.9990   29.1600   40.3580 C   0  0  0  0  0  0  0  0  0  0  0  0
   36.0950   28.3370   40.6420 C   0  0  0  0  0  0  0  0  0  0  0  0
   36.4610   27.3990   39.6380 C   0  0  0  0  0  0  0  0  0  0  0  0
   35.7380   27.3570   38.4840 N   0  0  0  0  0  0  0  0  0  0  0  0
   34.6720   28.1910   38.2650 C   0  0  0  0  0  0  0  0  0  0  0  0
   34.2930   29.1050   39.2100 N   0  0  0  0  0  0  0  0  0  0  0  0
   35.7428   26.9498   43.0993 H   0  0  0  0  0  0  0  0  0  0  0  0
   37.6230   27.7326   44.8733 H   0  0  0  0  0  0  0  0  0  0  0  0
   37.4150   30.4088   39.4047 H   0  0  0  0  0  0  0  0  0  0  0  0
   41.7586   32.9566   40.0180 H   0  0  0  0  0  0  0  0  0  0  0  0
   42.2272   31.0977   43.8064 H   0  0  0  0  0  0  0  0  0  0  0  0
   34.6951   29.8961   41.1168 H   0  0  0  0  0  0  0  0  0  0  0  0
   37.3125   26.7195   39.7903 H   0  0  0  0  0  0  0  0  0  0  0  0
   34.1151   28.1245   37.3187 H   0  0  0  0  0  0  0  0  0  0  0  0
  1  5  1  0
  1  2  1  0
  2  3  2  0
  4  3  1  0
  5  4  2  0
  6 14  1  0
  6  5  1  0
  7  6  1  0
  8  7  2  0
  8  9  1  0
  9 10  2  0
  9 14  1  0
 10 11  1  0
 11 12  2  0
 13 12  1  0
 14 13  2  0
 15 16  2  0
 16  1  1  0
 17 16  1  0
 18 17  2  0
 19 18  1  0
 19 20  2  0
 20 15  1  0
  2 21  1  0
  3 22  1  0
  7 23  1  0
 10 24  1  0
 12 25  1  0
 15 26  1  0
 17 27  1  0
 19 28  1  0
M  ISO  8  21  14  22  14  23  14  24  14  25  14  26  14  27  14  28  14
M  END
>  <minimizedAffinity>  (1) 
-4.8990221

>  <minimizedRMSD>  (1) 
2.83567977

$$$$
