
     RDKit          3D

 24 25  0  0  0  0  0  0  0  0999 V2000
   38.6270   28.0020   42.4830 N   0  0  0  0  0  0  0  0  0  0  0  0
   38.6170   26.7530   43.0160 C   0  0  0  0  0  0  0  0  0  0  0  0
   39.8620   26.6840   43.6560 C   0  0  0  0  0  0  0  0  0  0  0  0
   40.5510   27.8250   43.5020 N   0  0  0  0  0  0  0  0  0  0  0  0
   39.7640   28.6420   42.7610 C   0  0  0  0  0  0  0  0  0  0  0  0
   40.3210   29.9000   42.4150 N   0  0  0  0  0  0  0  0  0  0  0  0
   41.5870   30.3930   42.9110 C   0  0  0  0  0  0  0  0  0  0  0  0
   42.4320   29.4840   43.3500 N   0  0  0  0  0  0  0  0  0  0  0  0
   41.9470   31.7730   42.9500 N   0  0  0  0  0  0  0  0  0  0  0  0
   43.3490   29.8200   43.7110 H   0  0  0  0  0  0  0  0  0  0  0  0
   37.1650   29.8890   41.8970 C   0  0  0  0  0  0  0  0  0  0  0  0
   37.5610   28.5390   41.7540 C   0  0  0  0  0  0  0  0  0  0  0  0
   36.8350   27.7240   40.8320 C   0  0  0  0  0  0  0  0  0  0  0  0
   35.8050   28.2920   40.1410 N   0  0  0  0  0  0  0  0  0  0  0  0
   35.4630   29.6160   40.3200 C   0  0  0  0  0  0  0  0  0  0  0  0
   36.1390   30.4270   41.1990 N   0  0  0  0  0  0  0  0  0  0  0  0
   37.8292   25.9873   42.9596 H   0  0  0  0  0  0  0  0  0  0  0  0
   40.2269   25.8081   44.2124 H   0  0  0  0  0  0  0  0  0  0  0  0
   39.7896   30.5010   41.7690 H   0  0  0  0  0  0  0  0  0  0  0  0
   42.8672   32.0550   43.3168 H   0  0  0  0  0  0  0  0  0  0  0  0
   41.2867   32.4873   42.6113 H   0  0  0  0  0  0  0  0  0  0  0  0
   37.7138   30.5276   42.6048 H   0  0  0  0  0  0  0  0  0  0  0  0
   37.0995   26.6667   40.6833 H   0  0  0  0  0  0  0  0  0  0  0  0
   34.6254   30.0344   39.7427 H   0  0  0  0  0  0  0  0  0  0  0  0
  1  5  1  0
  1  2  1  0
  2  3  2  0
  4  3  1  0
  5  4  2  0
  6  5  1  0
  6  7  1  0
  7  9  1  0
  7  8  2  0
  8 10  1  0
 12 11  2  0
 12  1  1  0
 13 12  1  0
 14 15  1  0
 14 13  2  0
 15 16  2  0
 16 11  1  0
  2 17  1  0
  3 18  1  0
  6 19  1  0
  9 20  1  0
  9 21  1  0
 11 22  1  0
 13 23  1  0
 15 24  1  0
M  ISO  5  17  14  18  14  22  14  23  14  24  14
M  END
>  <minimizedAffinity>  (1) 
-4.05298901

>  <minimizedRMSD>  (1) 
0.852404058

$$$$
