
     RDKit          3D

 24 26  0  0  0  0  0  0  0  0999 V2000
   38.5440   27.9990   42.4590 N   0  0  0  0  0  0  0  0  0  0  0  0
   38.4640   26.7690   43.0500 C   0  0  0  0  0  0  0  0  0  0  0  0
   39.6970   26.6770   43.6950 C   0  0  0  0  0  0  0  0  0  0  0  0
   40.4350   27.7720   43.4920 N   0  0  0  0  0  0  0  0  0  0  0  0
   39.6860   28.6040   42.6980 C   0  0  0  0  0  0  0  0  0  0  0  0
   37.0610   29.8770   41.8340 C   0  0  0  0  0  0  0  0  0  0  0  0
   37.4720   28.5300   41.7080 C   0  0  0  0  0  0  0  0  0  0  0  0
   36.7740   27.6950   40.7750 C   0  0  0  0  0  0  0  0  0  0  0  0
   35.7580   28.2510   40.0640 N   0  0  0  0  0  0  0  0  0  0  0  0
   35.4010   29.5760   40.2240 C   0  0  0  0  0  0  0  0  0  0  0  0
   36.0550   30.4030   41.1150 N   0  0  0  0  0  0  0  0  0  0  0  0
   40.3260   29.8490   42.2830 C   0  0  0  0  0  0  0  0  0  0  0  0
   41.0340   30.0710   41.1140 C   0  0  0  0  0  0  0  0  0  0  0  0
   41.5160   31.3370   41.0110 C   0  0  0  0  0  0  0  0  0  0  0  0
   41.1140   31.9300   42.1240 N   0  0  0  0  0  0  0  0  0  0  0  0
   40.4470   31.0650   42.8190 N   0  0  0  0  0  0  0  0  0  0  0  0
   37.6403   26.0404   43.0236 H   0  0  0  0  0  0  0  0  0  0  0  0
   40.0206   25.8132   44.2943 H   0  0  0  0  0  0  0  0  0  0  0  0
   37.5878   30.5226   42.5521 H   0  0  0  0  0  0  0  0  0  0  0  0
   37.0515   26.6393   40.6391 H   0  0  0  0  0  0  0  0  0  0  0  0
   34.5730   29.9831   39.6250 H   0  0  0  0  0  0  0  0  0  0  0  0
   41.1905   29.2996   40.3456 H   0  0  0  0  0  0  0  0  0  0  0  0
   42.1058   31.7704   40.1899 H   0  0  0  0  0  0  0  0  0  0  0  0
   41.2992   32.9076   42.3903 H   0  0  0  0  0  0  0  0  0  0  0  0
  1  5  1  0
  1  2  1  0
  2  3  2  0
  4  3  1  0
  5  4  2  0
  7  6  2  0
  7  1  1  0
  8  7  1  0
  9 10  1  0
  9  8  2  0
 10 11  2  0
 11  6  1  0
 12  5  1  0
 12 16  2  0
 13 12  1  0
 14 13  2  0
 14 15  1  0
 15 16  1  0
  2 17  1  0
  3 18  1  0
  6 19  1  0
  8 20  1  0
 10 21  1  0
 13 22  1  0
 14 23  1  0
 15 24  1  0
M  ISO  8  17  14  18  14  19  14  20  14  21  14  22  14  23  14  24   9
M  END
>  <minimizedAffinity>  (1) 
-3.94914937

>  <minimizedRMSD>  (1) 
0.926100492

$$$$
