
     RDKit          3D

 27 29  0  0  0  0  0  0  0  0999 V2000
   38.4690   27.9560   42.5540 N   0  0  0  0  0  0  0  0  0  0  0  0
   38.3020   26.8810   43.3560 C   0  0  0  0  0  0  0  0  0  0  0  0
   39.5680   26.6860   43.9170 C   0  0  0  0  0  0  0  0  0  0  0  0
   40.4530   27.6190   43.4610 N   0  0  0  0  0  0  0  0  0  0  0  0
   39.7270   28.3880   42.6150 C   0  0  0  0  0  0  0  0  0  0  0  0
   37.0900   29.8790   41.8920 C   0  0  0  0  0  0  0  0  0  0  0  0
   37.4630   28.5230   41.7780 C   0  0  0  0  0  0  0  0  0  0  0  0
   36.7620   27.7330   40.8210 C   0  0  0  0  0  0  0  0  0  0  0  0
   35.7910   28.3130   40.0780 N   0  0  0  0  0  0  0  0  0  0  0  0
   35.4720   29.6400   40.2330 C   0  0  0  0  0  0  0  0  0  0  0  0
   36.1250   30.4270   41.1450 N   0  0  0  0  0  0  0  0  0  0  0  0
   40.4810   29.4660   41.9850 C   0  0  0  0  0  0  0  0  0  0  0  0
   40.9870   29.3040   40.6850 C   0  0  0  0  0  0  0  0  0  0  0  0
   41.7060   30.2460   39.9780 C   0  0  0  0  0  0  0  0  0  0  0  0
   41.9420   31.4460   40.6170 C   0  0  0  0  0  0  0  0  0  0  0  0
   41.4720   31.6690   41.8950 C   0  0  0  0  0  0  0  0  0  0  0  0
   40.7560   30.7070   42.5750 C   0  0  0  0  0  0  0  0  0  0  0  0
   37.3858   26.2969   43.5272 H   0  0  0  0  0  0  0  0  0  0  0  0
   39.8172   25.8870   44.6308 H   0  0  0  0  0  0  0  0  0  0  0  0
   37.6137   30.5108   42.6245 H   0  0  0  0  0  0  0  0  0  0  0  0
   37.0064   26.6687   40.6885 H   0  0  0  0  0  0  0  0  0  0  0  0
   34.6768   30.0795   39.6129 H   0  0  0  0  0  0  0  0  0  0  0  0
   40.7933   28.3425   40.1870 H   0  0  0  0  0  0  0  0  0  0  0  0
   42.0716   30.0507   38.9591 H   0  0  0  0  0  0  0  0  0  0  0  0
   42.5112   32.2337   40.1018 H   0  0  0  0  0  0  0  0  0  0  0  0
   41.6729   32.6349   42.3816 H   0  0  0  0  0  0  0  0  0  0  0  0
   40.3961   30.9161   43.5932 H   0  0  0  0  0  0  0  0  0  0  0  0
  1  5  1  0
  1  2  1  0
  2  3  2  0
  4  3  1  0
  5  4  2  0
  7  6  2  0
  7  1  1  0
  8  7  1  0
  9 10  1  0
  9  8  2  0
 10 11  2  0
 11  6  1  0
 12 17  1  0
 12  5  1  0
 13 12  2  0
 14 15  2  0
 14 13  1  0
 15 16  1  0
 16 17  2  0
  2 18  1  0
  3 19  1  0
  6 20  1  0
  8 21  1  0
 10 22  1  0
 13 23  1  0
 14 24  1  0
 15 25  1  0
 16 26  1  0
 17 27  1  0
M  ISO  8  18  14  19  14  20  14  21  14  22  14  23  14  24  14  25  14
M  ISO  2  26  14  27  14
M  END
>  <minimizedAffinity>  (1) 
-3.94212818

>  <minimizedRMSD>  (1) 
0.736559331

$$$$
