
     RDKit          3D

 24 26  0  0  0  0  0  0  0  0999 V2000
   38.5020   28.0410   42.4760 N   0  0  0  0  0  0  0  0  0  0  0  0
   38.4400   26.9160   43.2200 C   0  0  0  0  0  0  0  0  0  0  0  0
   39.7200   26.8180   43.7820 C   0  0  0  0  0  0  0  0  0  0  0  0
   40.5140   27.8570   43.3780 N   0  0  0  0  0  0  0  0  0  0  0  0
   39.7140   28.5860   42.5710 C   0  0  0  0  0  0  0  0  0  0  0  0
   40.3510   29.7310   42.0220 N   0  0  0  0  0  0  0  0  0  0  0  0
   40.9240   29.8550   40.7890 C   0  0  0  0  0  0  0  0  0  0  0  0
   41.4390   31.1130   40.5920 C   0  0  0  0  0  0  0  0  0  0  0  0
   41.1780   31.7840   41.7280 N   0  0  0  0  0  0  0  0  0  0  0  0
   40.5320   30.9670   42.5770 C   0  0  0  0  0  0  0  0  0  0  0  0
   37.0320   29.8990   41.8130 C   0  0  0  0  0  0  0  0  0  0  0  0
   37.4500   28.5560   41.7170 C   0  0  0  0  0  0  0  0  0  0  0  0
   36.7650   27.7050   40.8000 C   0  0  0  0  0  0  0  0  0  0  0  0
   35.7530   28.2410   40.0750 N   0  0  0  0  0  0  0  0  0  0  0  0
   35.3850   29.5550   40.2040 C   0  0  0  0  0  0  0  0  0  0  0  0
   36.0240   30.3960   41.0780 N   0  0  0  0  0  0  0  0  0  0  0  0
   37.5856   26.2362   43.3536 H   0  0  0  0  0  0  0  0  0  0  0  0
   40.0436   26.0129   44.4581 H   0  0  0  0  0  0  0  0  0  0  0  0
   40.9679   29.0464   40.0445 H   0  0  0  0  0  0  0  0  0  0  0  0
   41.9546   31.4908   39.6968 H   0  0  0  0  0  0  0  0  0  0  0  0
   40.1941   31.2543   43.5836 H   0  0  0  0  0  0  0  0  0  0  0  0
   37.5516   30.5655   42.5171 H   0  0  0  0  0  0  0  0  0  0  0  0
   37.0487   26.6485   40.6850 H   0  0  0  0  0  0  0  0  0  0  0  0
   34.5577   29.9438   39.5920 H   0  0  0  0  0  0  0  0  0  0  0  0
  1  5  1  0
  1  2  1  0
  2  3  2  0
  4  3  1  0
  5  4  2  0
  6  5  1  0
  6 10  1  0
  7  6  1  0
  8  7  2  0
  8  9  1  0
  9 10  2  0
 12 11  2  0
 12  1  1  0
 13 12  1  0
 14 15  1  0
 14 13  2  0
 15 16  2  0
 16 11  1  0
  2 17  1  0
  3 18  1  0
  7 19  1  0
  8 20  1  0
 10 21  1  0
 11 22  1  0
 13 23  1  0
 15 24  1  0
M  ISO  8  17  14  18  14  19  14  20  14  21  14  22  14  23  14  24  14
M  END
>  <minimizedAffinity>  (1) 
-3.92339897

>  <minimizedRMSD>  (1) 
0.691867888

$$$$
