
     RDKit          3D

 30 31  0  0  0  0  0  0  0  0999 V2000
   37.8040   30.0590   41.2350 C   0  0  0  0  0  0  0  0  0  0  0  0
   38.6020   29.3580   42.1930 C   0  0  0  0  0  0  0  0  0  0  0  0
   39.7890   29.9910   42.5060 C   0  0  0  0  0  0  0  0  0  0  0  0
   40.1550   31.1630   41.9520 N   0  0  0  0  0  0  0  0  0  0  0  0
   39.3630   31.7820   41.0520 C   0  0  0  0  0  0  0  0  0  0  0  0
   38.1960   31.2260   40.7010 N   0  0  0  0  0  0  0  0  0  0  0  0
   38.1130   28.1310   42.7070 N   0  0  0  0  0  0  0  0  0  0  0  0
   37.0490   28.0070   43.6050 C   0  0  0  0  0  0  0  0  0  0  0  0
   36.9320   28.9400   44.5140 N   0  0  0  0  0  0  0  0  0  0  0  0
   36.2060   26.8480   43.4050 N   0  0  0  0  0  0  0  0  0  0  0  0
   36.1810   28.9200   45.2110 H   0  0  0  0  0  0  0  0  0  0  0  0
   39.8990   33.0380   40.5470 C   0  0  0  0  0  0  0  0  0  0  0  0
   39.6000   34.3220   40.9280 C   0  0  0  0  0  0  0  0  0  0  0  0
   40.3410   35.2270   40.1880 C   0  0  0  0  0  0  0  0  0  0  0  0
   41.0770   34.4150   39.3650 C   0  0  0  0  0  0  0  0  0  0  0  0
   40.7950   33.1640   39.6020 O   0  0  0  0  0  0  0  0  0  0  0  0
   42.0540   34.9110   38.3550 C   0  0  0  0  0  0  0  0  0  0  0  0
   41.9550   34.1580   37.1780 F   0  0  0  0  0  0  0  0  0  0  0  0
   41.8110   36.2320   38.0870 F   0  0  0  0  0  0  0  0  0  0  0  0
   43.3400   34.7250   38.7990 F   0  0  0  0  0  0  0  0  0  0  0  0
   40.2890   36.6730   40.3140 C   0  0  0  0  0  0  0  0  0  0  0  0
   39.3300   37.3410   39.8540 O   0  0  0  0  0  0  0  0  0  0  0  0
   41.3120   37.3500   40.9550 O   0  0  0  0  0  0  0  0  0  0  0  0
   36.8399   29.6285   40.9267 H   0  0  0  0  0  0  0  0  0  0  0  0
   40.4623   29.5193   43.2368 H   0  0  0  0  0  0  0  0  0  0  0  0
   38.5765   27.2656   42.3954 H   0  0  0  0  0  0  0  0  0  0  0  0
   35.4001   26.6842   44.0251 H   0  0  0  0  0  0  0  0  0  0  0  0
   36.4119   26.1868   42.6425 H   0  0  0  0  0  0  0  0  0  0  0  0
   38.8751   34.5932   41.7097 H   0  0  0  0  0  0  0  0  0  0  0  0
   41.2759   38.3356   41.0405 H   0  0  0  0  0  0  0  0  0  0  0  0
  1  2  2  0
  2  3  1  0
  2  7  1  0
  4  3  2  0
  5  4  1  0
  6  5  2  0
  6  1  1  0
  7  8  1  0
  8  9  2  0
  9 11  1  0
 10  8  1  0
 12 13  2  0
 12  5  1  0
 14 21  1  0
 14 13  1  0
 15 16  1  0
 15 14  2  0
 16 12  1  0
 17 20  1  0
 17 15  1  0
 18 17  1  0
 19 17  1  0
 21 23  1  0
 22 21  2  0
  1 24  1  0
  3 25  1  0
  7 26  1  0
 10 27  1  0
 10 28  1  0
 13 29  1  0
 23 30  1  0
M  ISO  4  24  14  25  14  29  14  30   3
M  END
>  <minimizedAffinity>  (1) 
-5.77988338

>  <minimizedRMSD>  (1) 
2.04015183

$$$$
