
     RDKit          3D

 43 48  0  0  0  0  0  0  0  0999 V2000
   37.1570   27.9960   41.5570 N   0  0  0  0  0  0  0  0  0  0  0  0
   36.9980   27.0130   42.4630 C   0  0  0  0  0  0  0  0  0  0  0  0
   38.0940   27.1500   43.2930 C   0  0  0  0  0  0  0  0  0  0  0  0
   38.8890   28.1940   42.8870 N   0  0  0  0  0  0  0  0  0  0  0  0
   38.2780   28.6940   41.8120 C   0  0  0  0  0  0  0  0  0  0  0  0
   38.9320   29.8090   41.2070 N   0  0  0  0  0  0  0  0  0  0  0  0
   40.2920   29.9010   41.1450 C   0  0  0  0  0  0  0  0  0  0  0  0
   40.6710   31.0520   40.5230 N   0  0  0  0  0  0  0  0  0  0  0  0
   39.5440   31.7050   40.1820 C   0  0  0  0  0  0  0  0  0  0  0  0
   39.3270   32.9050   39.5380 C   0  0  0  0  0  0  0  0  0  0  0  0
   38.0360   33.2370   39.3710 N   0  0  0  0  0  0  0  0  0  0  0  0
   36.9980   32.4820   39.7860 C   0  0  0  0  0  0  0  0  0  0  0  0
   37.2150   31.3030   40.4190 N   0  0  0  0  0  0  0  0  0  0  0  0
   38.4790   30.9440   40.6010 C   0  0  0  0  0  0  0  0  0  0  0  0
   35.1290   29.0290   40.6140 C   0  0  0  0  0  0  0  0  0  0  0  0
   36.2850   28.2670   40.4930 C   0  0  0  0  0  0  0  0  0  0  0  0
   36.5770   27.7450   39.2060 C   0  0  0  0  0  0  0  0  0  0  0  0
   35.7330   28.0070   38.1720 N   0  0  0  0  0  0  0  0  0  0  0  0
   34.6020   28.7670   38.3540 C   0  0  0  0  0  0  0  0  0  0  0  0
   34.2930   29.2870   39.5910 N   0  0  0  0  0  0  0  0  0  0  0  0
   33.7290   29.0320   37.2660 N   0  0  0  0  0  0  0  0  0  0  0  0
   33.9370   28.9570   35.9590 C   0  0  0  0  0  0  0  0  0  0  0  0
   32.8230   29.3000   35.2750 N   0  0  0  0  0  0  0  0  0  0  0  0
   31.8590   29.6100   36.1900 C   0  0  0  0  0  0  0  0  0  0  0  0
   30.5290   30.0280   36.1550 C   0  0  0  0  0  0  0  0  0  0  0  0
   29.8940   30.2370   37.3180 N   0  0  0  0  0  0  0  0  0  0  0  0
   30.4410   30.0760   38.5280 C   0  0  0  0  0  0  0  0  0  0  0  0
   31.7230   29.6730   38.5540 N   0  0  0  0  0  0  0  0  0  0  0  0
   32.4390   29.4390   37.4390 C   0  0  0  0  0  0  0  0  0  0  0  0
   29.9370   30.2020   34.8750 N   0  0  0  0  0  0  0  0  0  0  0  0
   40.3890   33.7270   39.0870 N   0  0  0  0  0  0  0  0  0  0  0  0
   36.1858   26.2739   42.5274 H   0  0  0  0  0  0  0  0  0  0  0  0
   38.3021   26.5090   44.1624 H   0  0  0  0  0  0  0  0  0  0  0  0
   40.9878   29.1479   41.5433 H   0  0  0  0  0  0  0  0  0  0  0  0
   35.9680   32.8255   39.6095 H   0  0  0  0  0  0  0  0  0  0  0  0
   34.8832   29.4450   41.6022 H   0  0  0  0  0  0  0  0  0  0  0  0
   37.4777   27.1341   39.0461 H   0  0  0  0  0  0  0  0  0  0  0  0
   34.8875   28.6563   35.4941 H   0  0  0  0  0  0  0  0  0  0  0  0
   29.8728   30.2631   39.4511 H   0  0  0  0  0  0  0  0  0  0  0  0
   28.9570   30.5095   34.7984 H   0  0  0  0  0  0  0  0  0  0  0  0
   30.4879   30.0206   34.0238 H   0  0  0  0  0  0  0  0  0  0  0  0
   40.1847   34.6167   38.6099 H   0  0  0  0  0  0  0  0  0  0  0  0
   41.3654   33.4350   39.2362 H   0  0  0  0  0  0  0  0  0  0  0  0
  1  5  1  0
  1  2  1  0
  2  3  2  0
  4  3  1  0
  5  4  2  0
  6  5  1  0
  7  6  1  0
  8  7  2  0
  9  8  1  0
  9 14  2  0
 10  9  1  0
 11 10  2  0
 11 12  1  0
 12 13  2  0
 13 14  1  0
 14  6  1  0
 16 15  2  0
 16  1  1  0
 17 16  1  0
 18 19  1  0
 18 17  2  0
 19 20  2  0
 20 15  1  0
 21 29  1  0
 21 19  1  0
 22 21  1  0
 23 22  2  0
 23 24  1  0
 24 29  2  0
 25 24  1  0
 25 26  2  0
 26 27  1  0
 27 28  2  0
 29 28  1  0
 30 25  1  0
 31 10  1  0
  2 32  1  0
  3 33  1  0
  7 34  1  0
 12 35  1  0
 15 36  1  0
 17 37  1  0
 22 38  1  0
 27 39  1  0
 30 40  1  0
 30 41  1  0
 31 42  1  0
 31 43  1  0
M  ISO  8  32  14  33  14  34  14  35  14  36  14  37  14  38  14  39  14
M  END
>  <minimizedAffinity>  (1) 
-6.69317579

>  <minimizedRMSD>  (1) 
2.94885921

$$$$
