
     RDKit          3D

 40 44  0  0  0  0  0  0  0  0999 V2000
   37.3490   28.3070   41.8000 N   0  0  0  0  0  0  0  0  0  0  0  0
   37.2060   27.3260   42.7190 C   0  0  0  0  0  0  0  0  0  0  0  0
   38.2040   27.5650   43.6250 C   0  0  0  0  0  0  0  0  0  0  0  0
   38.9390   28.6660   43.2660 N   0  0  0  0  0  0  0  0  0  0  0  0
   38.3850   29.0970   42.1370 C   0  0  0  0  0  0  0  0  0  0  0  0
   38.9850   30.2520   41.5580 N   0  0  0  0  0  0  0  0  0  0  0  0
   40.3420   30.4510   41.6050 C   0  0  0  0  0  0  0  0  0  0  0  0
   40.6710   31.6280   40.9800 N   0  0  0  0  0  0  0  0  0  0  0  0
   39.5380   32.1690   40.5410 C   0  0  0  0  0  0  0  0  0  0  0  0
   39.2510   33.3310   39.8520 C   0  0  0  0  0  0  0  0  0  0  0  0
   37.9630   33.5590   39.5710 N   0  0  0  0  0  0  0  0  0  0  0  0
   36.9660   32.7330   39.9210 C   0  0  0  0  0  0  0  0  0  0  0  0
   37.2270   31.5880   40.5980 N   0  0  0  0  0  0  0  0  0  0  0  0
   38.4940   31.3290   40.8910 C   0  0  0  0  0  0  0  0  0  0  0  0
   35.2550   28.9850   40.7040 C   0  0  0  0  0  0  0  0  0  0  0  0
   36.5510   28.4830   40.6690 C   0  0  0  0  0  0  0  0  0  0  0  0
   37.0610   28.1410   39.3980 C   0  0  0  0  0  0  0  0  0  0  0  0
   36.2760   28.3160   38.3040 N   0  0  0  0  0  0  0  0  0  0  0  0
   35.0020   28.8160   38.4020 C   0  0  0  0  0  0  0  0  0  0  0  0
   34.4890   29.1530   39.6160 N   0  0  0  0  0  0  0  0  0  0  0  0
   34.1690   29.0010   37.2250 C   0  0  0  0  0  0  0  0  0  0  0  0
   32.7970   29.1480   37.3840 C   0  0  0  0  0  0  0  0  0  0  0  0
   31.9990   29.3240   36.2650 C   0  0  0  0  0  0  0  0  0  0  0  0
   32.5380   29.3550   34.9880 C   0  0  0  0  0  0  0  0  0  0  0  0
   33.9020   29.2060   34.8590 C   0  0  0  0  0  0  0  0  0  0  0  0
   34.6980   29.0330   35.9550 C   0  0  0  0  0  0  0  0  0  0  0  0
   40.2890   34.2490   39.4620 N   0  0  0  0  0  0  0  0  0  0  0  0
   36.4581   26.5195   42.7351 H   0  0  0  0  0  0  0  0  0  0  0  0
   38.3915   26.9554   44.5213 H   0  0  0  0  0  0  0  0  0  0  0  0
   41.0624   29.7659   42.0758 H   0  0  0  0  0  0  0  0  0  0  0  0
   35.9288   32.9866   39.6567 H   0  0  0  0  0  0  0  0  0  0  0  0
   34.8330   29.2607   41.6817 H   0  0  0  0  0  0  0  0  0  0  0  0
   38.0796   27.7386   39.2953 H   0  0  0  0  0  0  0  0  0  0  0  0
   32.3485   29.1249   38.3881 H   0  0  0  0  0  0  0  0  0  0  0  0
   30.9128   29.4418   36.3928 H   0  0  0  0  0  0  0  0  0  0  0  0
   31.8968   29.4942   34.1051 H   0  0  0  0  0  0  0  0  0  0  0  0
   34.3566   29.2268   33.8575 H   0  0  0  0  0  0  0  0  0  0  0  0
   35.7835   28.9169   35.8200 H   0  0  0  0  0  0  0  0  0  0  0  0
   40.0495   35.1092   38.9486 H   0  0  0  0  0  0  0  0  0  0  0  0
   41.2712   34.0456   39.6963 H   0  0  0  0  0  0  0  0  0  0  0  0
  1  5  1  0
  1  2  1  0
  2  3  2  0
  4  3  1  0
  5  4  2  0
  6  7  1  0
  6  5  1  0
  8  7  2  0
  9 14  2  0
  9  8  1  0
 10  9  1  0
 11 10  2  0
 11 12  1  0
 12 13  2  0
 13 14  1  0
 14  6  1  0
 16 15  2  0
 16  1  1  0
 17 16  1  0
 18 19  1  0
 18 17  2  0
 19 20  2  0
 20 15  1  0
 21 22  2  0
 21 19  1  0
 23 22  1  0
 24 23  2  0
 25 24  1  0
 25 26  2  0
 26 21  1  0
 27 10  1  0
  2 28  1  0
  3 29  1  0
  7 30  1  0
 12 31  1  0
 15 32  1  0
 17 33  1  0
 22 34  1  0
 23 35  1  0
 24 36  1  0
 25 37  1  0
 26 38  1  0
 27 39  1  0
 27 40  1  0
M  ISO  8  28  14  29  14  30  14  31  14  32  14  33  14  34  14  35  14
M  ISO  3  36  14  37  14  38  14
M  END
>  <minimizedAffinity>  (1) 
-6.47895479

>  <minimizedRMSD>  (1) 
2.20778084

$$$$
