
     RDKit          3D

 41 45  0  0  0  0  0  0  0  0999 V2000
   37.0840   28.4490   40.5700 N   0  0  0  0  0  0  0  0  0  0  0  0
   36.5750   27.3090   41.0910 C   0  0  0  0  0  0  0  0  0  0  0  0
   36.8890   27.3820   42.4210 C   0  0  0  0  0  0  0  0  0  0  0  0
   37.5730   28.5390   42.6980 N   0  0  0  0  0  0  0  0  0  0  0  0
   37.6730   29.1730   41.5250 C   0  0  0  0  0  0  0  0  0  0  0  0
   38.3560   30.4220   41.5640 N   0  0  0  0  0  0  0  0  0  0  0  0
   39.4370   30.6300   42.3810 C   0  0  0  0  0  0  0  0  0  0  0  0
   39.9130   31.9020   42.2350 N   0  0  0  0  0  0  0  0  0  0  0  0
   39.1430   32.5140   41.3280 C   0  0  0  0  0  0  0  0  0  0  0  0
   39.1440   33.7810   40.7870 C   0  0  0  0  0  0  0  0  0  0  0  0
   38.1900   34.0450   39.8750 N   0  0  0  0  0  0  0  0  0  0  0  0
   37.2640   33.1500   39.4820 C   0  0  0  0  0  0  0  0  0  0  0  0
   37.2430   31.8980   39.9990 N   0  0  0  0  0  0  0  0  0  0  0  0
   38.1830   31.6040   40.9130 C   0  0  0  0  0  0  0  0  0  0  0  0
   35.8190   29.1590   38.5660 C   0  0  0  0  0  0  0  0  0  0  0  0
   37.0100   28.8290   39.2160 C   0  0  0  0  0  0  0  0  0  0  0  0
   38.1950   28.8900   38.4430 C   0  0  0  0  0  0  0  0  0  0  0  0
   38.1190   29.2540   37.1420 N   0  0  0  0  0  0  0  0  0  0  0  0
   36.9160   29.5670   36.5610 C   0  0  0  0  0  0  0  0  0  0  0  0
   35.7510   29.5190   37.2800 N   0  0  0  0  0  0  0  0  0  0  0  0
   36.7960   29.9550   35.1970 N   0  0  0  0  0  0  0  0  0  0  0  0
   36.5040   29.1150   34.1630 C   0  0  0  0  0  0  0  0  0  0  0  0
   36.4110   29.5940   32.8730 C   0  0  0  0  0  0  0  0  0  0  0  0
   36.6060   30.9290   32.5790 C   0  0  0  0  0  0  0  0  0  0  0  0
   36.5170   31.4560   31.2600 N   0  0  0  0  0  0  0  0  0  0  0  0
   36.8980   31.7710   33.6080 N   0  0  0  0  0  0  0  0  0  0  0  0
   36.9780   31.2430   34.8610 C   0  0  0  0  0  0  0  0  0  0  0  0
   37.2510   32.0600   35.7920 O   0  0  0  0  0  0  0  0  0  0  0  0
   40.0980   34.7570   41.1690 N   0  0  0  0  0  0  0  0  0  0  0  0
   36.0335   26.5080   40.5665 H   0  0  0  0  0  0  0  0  0  0  0  0
   36.6284   26.6168   43.1670 H   0  0  0  0  0  0  0  0  0  0  0  0
   39.8623   29.8766   43.0603 H   0  0  0  0  0  0  0  0  0  0  0  0
   36.5143   33.4394   38.7309 H   0  0  0  0  0  0  0  0  0  0  0  0
   34.8841   29.1207   39.1444 H   0  0  0  0  0  0  0  0  0  0  0  0
   39.1670   28.6441   38.8955 H   0  0  0  0  0  0  0  0  0  0  0  0
   36.3411   28.0451   34.3598 H   0  0  0  0  0  0  0  0  0  0  0  0
   36.1754   28.8945   32.0574 H   0  0  0  0  0  0  0  0  0  0  0  0
   36.6716   32.4609   31.0954 H   0  0  0  0  0  0  0  0  0  0  0  0
   36.2980   30.8325   30.4700 H   0  0  0  0  0  0  0  0  0  0  0  0
   40.0721   35.6957   40.7459 H   0  0  0  0  0  0  0  0  0  0  0  0
   40.8172   34.5276   41.8697 H   0  0  0  0  0  0  0  0  0  0  0  0
  1  2  1  0
  1  5  1  0
  2  3  2  0
  3  4  1  0
  5  6  1  0
  5  4  2  0
  6  7  1  0
  8  7  2  0
  9  8  1  0
 10 29  1  0
 10  9  2  0
 11 10  1  0
 12 11  2  0
 12 13  1  0
 13 14  2  0
 14  9  1  0
 14  6  1  0
 15 16  2  0
 16  1  1  0
 17 16  1  0
 18 17  2  0
 19 18  1  0
 19 20  2  0
 20 15  1  0
 21 19  1  0
 22 21  1  0
 23 22  2  0
 24 23  1  0
 24 26  2  0
 25 24  1  0
 26 27  1  0
 27 21  1  0
 27 28  2  0
  2 30  1  0
  3 31  1  0
  7 32  1  0
 12 33  1  0
 15 34  1  0
 17 35  1  0
 22 36  1  0
 23 37  1  0
 25 38  1  0
 25 39  1  0
 29 40  1  0
 29 41  1  0
M  ISO  8  30  14  31  14  32  14  33  14  34  14  35  14  36  14  37  14
M  END
>  <minimizedAffinity>  (1) 
-6.47761583

>  <minimizedRMSD>  (1) 
0.367763609

$$$$
