
     RDKit          3D

 42 46  0  0  0  0  0  0  0  0999 V2000
   36.7950   28.4190   41.8260 N   0  0  0  0  0  0  0  0  0  0  0  0
   36.2810   27.4760   42.6450 C   0  0  0  0  0  0  0  0  0  0  0  0
   36.9260   27.6760   43.8380 C   0  0  0  0  0  0  0  0  0  0  0  0
   37.8100   28.7150   43.7450 N   0  0  0  0  0  0  0  0  0  0  0  0
   37.7060   29.1560   42.4830 C   0  0  0  0  0  0  0  0  0  0  0  0
   38.5420   30.2470   42.1510 N   0  0  0  0  0  0  0  0  0  0  0  0
   39.8110   30.3750   42.6610 C   0  0  0  0  0  0  0  0  0  0  0  0
   40.4120   31.5130   42.1880 N   0  0  0  0  0  0  0  0  0  0  0  0
   39.5300   32.1110   41.3770 C   0  0  0  0  0  0  0  0  0  0  0  0
   39.5740   33.2740   40.6280 C   0  0  0  0  0  0  0  0  0  0  0  0
   38.4770   33.5640   39.9210 N   0  0  0  0  0  0  0  0  0  0  0  0
   37.3670   32.8040   39.9050 C   0  0  0  0  0  0  0  0  0  0  0  0
   37.3100   31.6620   40.6360 N   0  0  0  0  0  0  0  0  0  0  0  0
   38.3880   31.3450   41.3500 C   0  0  0  0  0  0  0  0  0  0  0  0
   35.2150   29.1110   40.0700 C   0  0  0  0  0  0  0  0  0  0  0  0
   36.4390   28.6130   40.4780 C   0  0  0  0  0  0  0  0  0  0  0  0
   37.3830   28.2820   39.4650 C   0  0  0  0  0  0  0  0  0  0  0  0
   37.0360   28.4700   38.1640 N   0  0  0  0  0  0  0  0  0  0  0  0
   35.8050   28.9680   37.8280 C   0  0  0  0  0  0  0  0  0  0  0  0
   34.8850   29.2920   38.7750 N   0  0  0  0  0  0  0  0  0  0  0  0
   35.4440   29.1640   36.4660 N   0  0  0  0  0  0  0  0  0  0  0  0
   36.2170   29.7600   35.3900 C   0  0  0  0  0  0  0  0  0  0  0  0
   36.0790   28.6520   34.3380 C   0  0  0  0  0  0  0  0  0  0  0  0
   34.7130   28.0160   34.6280 C   0  0  0  0  0  0  0  0  0  0  0  0
   34.1900   28.8030   35.8300 C   0  0  0  0  0  0  0  0  0  0  0  0
   40.7350   34.1140   40.6130 N   0  0  0  0  0  0  0  0  0  0  0  0
   35.5182   26.7195   42.4085 H   0  0  0  0  0  0  0  0  0  0  0  0
   36.7554   27.0810   44.7473 H   0  0  0  0  0  0  0  0  0  0  0  0
   40.2809   29.6619   43.3543 H   0  0  0  0  0  0  0  0  0  0  0  0
   36.5025   33.1093   39.2972 H   0  0  0  0  0  0  0  0  0  0  0  0
   34.4740   29.3724   40.8398 H   0  0  0  0  0  0  0  0  0  0  0  0
   38.3731   27.8823   39.7296 H   0  0  0  0  0  0  0  0  0  0  0  0
   35.7793   30.7090   35.0468 H   0  0  0  0  0  0  0  0  0  0  0  0
   37.2502   30.0333   35.6505 H   0  0  0  0  0  0  0  0  0  0  0  0
   36.8842   27.9104   34.4463 H   0  0  0  0  0  0  0  0  0  0  0  0
   36.1511   29.0388   33.3108 H   0  0  0  0  0  0  0  0  0  0  0  0
   34.0392   28.1251   33.7654 H   0  0  0  0  0  0  0  0  0  0  0  0
   34.7806   26.9358   34.8245 H   0  0  0  0  0  0  0  0  0  0  0  0
   33.6205   29.6912   35.5189 H   0  0  0  0  0  0  0  0  0  0  0  0
   33.4886   28.2512   36.4730 H   0  0  0  0  0  0  0  0  0  0  0  0
   40.7410   34.9743   40.0466 H   0  0  0  0  0  0  0  0  0  0  0  0
   41.5635   33.8575   41.1686 H   0  0  0  0  0  0  0  0  0  0  0  0
  1  5  1  0
  1  2  1  0
  2  3  2  0
  4  3  1  0
  5  4  2  0
  6  5  1  0
  6  7  1  0
  8  7  2  0
  9  8  1  0
 10  9  2  0
 11 10  1  0
 12 11  2  0
 12 13  1  0
 13 14  2  0
 14  9  1  0
 14  6  1  0
 15 16  2  0
 16  1  1  0
 17 16  1  0
 18 17  2  0
 19 18  1  0
 19 20  2  0
 20 15  1  0
 21 19  1  0
 22 21  1  0
 23 24  1  0
 23 22  1  0
 24 25  1  0
 25 21  1  0
 26 10  1  0
  2 27  1  0
  3 28  1  0
  7 29  1  0
 12 30  1  0
 15 31  1  0
 17 32  1  0
 22 33  1  0
 22 34  1  0
 23 35  1  0
 23 36  1  0
 24 37  1  0
 24 38  1  0
 25 39  1  0
 25 40  1  0
 26 41  1  0
 26 42  1  0
M  ISO  8  27  14  28  14  29  14  30  14  31  14  32  14  33  13  34  13
M  ISO  6  35  13  36  13  37  13  38  13  39  13  40  13
M  END
>  <minimizedAffinity>  (1) 
-6.33857155

>  <minimizedRMSD>  (1) 
1.33651614

$$$$
