
     RDKit          3D

 46 50  0  0  0  0  0  0  0  0999 V2000
   37.5060   28.1990   41.8040 N   0  0  0  0  0  0  0  0  0  0  0  0
   37.3300   27.1930   42.6820 C   0  0  0  0  0  0  0  0  0  0  0  0
   38.3360   27.3520   43.5930 C   0  0  0  0  0  0  0  0  0  0  0  0
   39.1130   28.4360   43.2790 N   0  0  0  0  0  0  0  0  0  0  0  0
   38.5700   28.9370   42.1650 C   0  0  0  0  0  0  0  0  0  0  0  0
   39.2220   30.0880   41.6430 N   0  0  0  0  0  0  0  0  0  0  0  0
   40.5740   30.2510   41.6930 C   0  0  0  0  0  0  0  0  0  0  0  0
   40.9560   31.4310   41.1320 N   0  0  0  0  0  0  0  0  0  0  0  0
   39.8330   32.0440   40.7100 C   0  0  0  0  0  0  0  0  0  0  0  0
   39.6050   33.2470   40.0770 C   0  0  0  0  0  0  0  0  0  0  0  0
   38.3170   33.5230   39.8100 N   0  0  0  0  0  0  0  0  0  0  0  0
   37.2960   32.7240   40.1170 C   0  0  0  0  0  0  0  0  0  0  0  0
   37.5070   31.5350   40.7400 N   0  0  0  0  0  0  0  0  0  0  0  0
   38.7680   31.2210   41.0230 C   0  0  0  0  0  0  0  0  0  0  0  0
   35.4130   28.9500   40.7450 C   0  0  0  0  0  0  0  0  0  0  0  0
   36.7180   28.4550   40.6850 C   0  0  0  0  0  0  0  0  0  0  0  0
   37.2400   28.2100   39.3870 C   0  0  0  0  0  0  0  0  0  0  0  0
   36.4650   28.4620   38.3010 N   0  0  0  0  0  0  0  0  0  0  0  0
   35.1960   28.9450   38.4180 C   0  0  0  0  0  0  0  0  0  0  0  0
   34.6590   29.1940   39.6580 N   0  0  0  0  0  0  0  0  0  0  0  0
   34.3510   29.2210   37.2570 C   0  0  0  0  0  0  0  0  0  0  0  0
   34.7240   28.2170   36.1570 C   0  0  0  0  0  0  0  0  0  0  0  0
   34.1670   28.8230   34.8780 C   0  0  0  0  0  0  0  0  0  0  0  0
   32.6780   28.9690   34.9710 C   0  0  0  0  0  0  0  0  0  0  0  0
   32.1820   29.5730   36.2420 C   0  0  0  0  0  0  0  0  0  0  0  0
   32.8800   29.0320   37.4800 C   0  0  0  0  0  0  0  0  0  0  0  0
   40.6600   34.1370   39.7270 N   0  0  0  0  0  0  0  0  0  0  0  0
   36.5506   26.4168   42.6687 H   0  0  0  0  0  0  0  0  0  0  0  0
   38.5000   26.6976   44.4618 H   0  0  0  0  0  0  0  0  0  0  0  0
   41.2696   29.5205   42.1318 H   0  0  0  0  0  0  0  0  0  0  0  0
   36.2705   33.0304   39.8632 H   0  0  0  0  0  0  0  0  0  0  0  0
   34.9782   29.1512   41.7352 H   0  0  0  0  0  0  0  0  0  0  0  0
   38.2611   27.8203   39.2629 H   0  0  0  0  0  0  0  0  0  0  0  0
   34.5257   30.2786   37.0100 H   0  0  0  0  0  0  0  0  0  0  0  0
   35.8160   28.1035   36.0892 H   0  0  0  0  0  0  0  0  0  0  0  0
   34.3185   27.2136   36.3537 H   0  0  0  0  0  0  0  0  0  0  0  0
   34.4142   28.1679   34.0296 H   0  0  0  0  0  0  0  0  0  0  0  0
   34.6134   29.8177   34.7319 H   0  0  0  0  0  0  0  0  0  0  0  0
   32.3448   29.6054   34.1379 H   0  0  0  0  0  0  0  0  0  0  0  0
   32.2661   27.9497   34.9337 H   0  0  0  0  0  0  0  0  0  0  0  0
   32.3434   30.6602   36.1977 H   0  0  0  0  0  0  0  0  0  0  0  0
   31.1165   29.3143   36.3306 H   0  0  0  0  0  0  0  0  0  0  0  0
   32.6496   27.9643   37.6100 H   0  0  0  0  0  0  0  0  0  0  0  0
   32.5447   29.5568   38.3867 H   0  0  0  0  0  0  0  0  0  0  0  0
   40.4474   35.0271   39.2544 H   0  0  0  0  0  0  0  0  0  0  0  0
   41.6357   33.8906   39.9464 H   0  0  0  0  0  0  0  0  0  0  0  0
  1  5  1  0
  1  2  1  0
  2  3  2  0
  4  3  1  0
  5  4  2  0
  6  7  1  0
  6  5  1  0
  8  7  2  0
  9 14  2  0
  9  8  1  0
 10  9  1  0
 11 10  2  0
 11 12  1  0
 12 13  2  0
 13 14  1  0
 14  6  1  0
 16 15  2  0
 16  1  1  0
 17 16  1  0
 18 19  1  0
 18 17  2  0
 19 20  2  0
 20 15  1  0
 21 26  1  0
 21 19  1  0
 22 21  1  0
 23 24  1  0
 23 22  1  0
 24 25  1  0
 25 26  1  0
 27 10  1  0
  2 28  1  0
  3 29  1  0
  7 30  1  0
 12 31  1  0
 15 32  1  0
 17 33  1  0
 21 34  1  0
 22 35  1  0
 22 36  1  0
 23 37  1  0
 23 38  1  0
 24 39  1  0
 24 40  1  0
 25 41  1  0
 25 42  1  0
 26 43  1  0
 26 44  1  0
 27 45  1  0
 27 46  1  0
M  ISO  8  28  14  29  14  30  14  31  14  32  14  33  14  34  13  35  13
M  ISO  8  36  13  37  13  38  13  39  13  40  13  41  13  42  13  43  13
M  ISO  1  44  13
M  END
>  <minimizedAffinity>  (1) 
-6.20510483

>  <minimizedRMSD>  (1) 
2.1988225

$$$$
