
     RDKit          3D

 37 41  0  0  0  0  0  0  0  0999 V2000
   36.8670   28.4320   42.0060 N   0  0  0  0  0  0  0  0  0  0  0  0
   36.4470   27.5230   42.9030 C   0  0  0  0  0  0  0  0  0  0  0  0
   37.2120   27.7680   44.0220 C   0  0  0  0  0  0  0  0  0  0  0  0
   38.0700   28.7980   43.7990 N   0  0  0  0  0  0  0  0  0  0  0  0
   37.8400   29.1940   42.5450 C   0  0  0  0  0  0  0  0  0  0  0  0
   38.6420   30.2840   42.0880 N   0  0  0  0  0  0  0  0  0  0  0  0
   39.9500   30.4190   42.4670 C   0  0  0  0  0  0  0  0  0  0  0  0
   40.4860   31.5390   41.8940 N   0  0  0  0  0  0  0  0  0  0  0  0
   39.5310   32.1120   41.1570 C   0  0  0  0  0  0  0  0  0  0  0  0
   39.5030   33.2460   40.3720 C   0  0  0  0  0  0  0  0  0  0  0  0
   38.3410   33.5180   39.7690 N   0  0  0  0  0  0  0  0  0  0  0  0
   37.2350   32.7570   39.8900 C   0  0  0  0  0  0  0  0  0  0  0  0
   37.2500   31.6400   40.6610 N   0  0  0  0  0  0  0  0  0  0  0  0
   38.3900   31.3450   41.2720 C   0  0  0  0  0  0  0  0  0  0  0  0
   35.1060   29.0550   40.4110 C   0  0  0  0  0  0  0  0  0  0  0  0
   36.3800   28.5820   40.6990 C   0  0  0  0  0  0  0  0  0  0  0  0
   37.2100   28.2390   39.6080 C   0  0  0  0  0  0  0  0  0  0  0  0
   36.7250   28.3890   38.3500 N   0  0  0  0  0  0  0  0  0  0  0  0
   35.4600   28.8610   38.1190 C   0  0  0  0  0  0  0  0  0  0  0  0
   34.6470   29.1960   39.1590 N   0  0  0  0  0  0  0  0  0  0  0  0
   34.9780   29.0070   36.7470 C   0  0  0  0  0  0  0  0  0  0  0  0
   33.6150   28.9460   36.4680 C   0  0  0  0  0  0  0  0  0  0  0  0
   33.4770   29.1150   35.1030 C   0  0  0  0  0  0  0  0  0  0  0  0
   34.7310   29.2740   34.5850 N   0  0  0  0  0  0  0  0  0  0  0  0
   35.6290   29.2070   35.5810 N   0  0  0  0  0  0  0  0  0  0  0  0
   40.6530   34.0810   40.2160 N   0  0  0  0  0  0  0  0  0  0  0  0
   35.6685   26.7568   42.7728 H   0  0  0  0  0  0  0  0  0  0  0  0
   37.1386   27.2075   44.9656 H   0  0  0  0  0  0  0  0  0  0  0  0
   40.4896   29.7296   43.1330 H   0  0  0  0  0  0  0  0  0  0  0  0
   36.3143   33.0431   39.3605 H   0  0  0  0  0  0  0  0  0  0  0  0
   34.4444   29.3259   41.2470 H   0  0  0  0  0  0  0  0  0  0  0  0
   38.2283   27.8582   39.7753 H   0  0  0  0  0  0  0  0  0  0  0  0
   32.8036   28.7927   37.1947 H   0  0  0  0  0  0  0  0  0  0  0  0
   32.5328   29.1204   34.5387 H   0  0  0  0  0  0  0  0  0  0  0  0
   34.9522   29.4216   33.5899 H   0  0  0  0  0  0  0  0  0  0  0  0
   40.6024   34.9218   39.6232 H   0  0  0  0  0  0  0  0  0  0  0  0
   41.5321   33.8418   40.6964 H   0  0  0  0  0  0  0  0  0  0  0  0
  1  5  1  0
  1  2  1  0
  2  3  2  0
  4  3  1  0
  5  4  2  0
  6  7  1  0
  6  5  1  0
  8  7  2  0
  9 14  2  0
  9  8  1  0
 10  9  1  0
 11 12  1  0
 11 10  2  0
 12 13  2  0
 13 14  1  0
 14  6  1  0
 15 16  2  0
 16  1  1  0
 17 16  1  0
 18 17  2  0
 19 18  1  0
 19 20  2  0
 20 15  1  0
 21 19  1  0
 22 21  1  0
 23 22  2  0
 24 23  1  0
 24 25  1  0
 25 21  2  0
 26 10  1  0
  2 27  1  0
  3 28  1  0
  7 29  1  0
 12 30  1  0
 15 31  1  0
 17 32  1  0
 22 33  1  0
 23 34  1  0
 24 35  1  0
 26 36  1  0
 26 37  1  0
M  ISO  8  27  14  28  14  29  14  30  14  31  14  32  14  33  14  34  14
M  ISO  1  35   9
M  END
>  <minimizedAffinity>  (1) 
-6.12586069

>  <minimizedRMSD>  (1) 
1.63148856

$$$$
