
     RDKit          3D

 38 42  0  0  0  0  0  0  0  0999 V2000
   37.5710   28.2880   41.7320 N   0  0  0  0  0  0  0  0  0  0  0  0
   37.4970   27.2830   42.6320 C   0  0  0  0  0  0  0  0  0  0  0  0
   38.5450   27.5180   43.4930 C   0  0  0  0  0  0  0  0  0  0  0  0
   39.2310   28.6320   43.1190 N   0  0  0  0  0  0  0  0  0  0  0  0
   38.6040   29.0850   42.0300 C   0  0  0  0  0  0  0  0  0  0  0  0
   39.1570   30.2670   41.4540 N   0  0  0  0  0  0  0  0  0  0  0  0
   40.5100   30.4990   41.4360 C   0  0  0  0  0  0  0  0  0  0  0  0
   40.7950   31.6890   40.8360 N   0  0  0  0  0  0  0  0  0  0  0  0
   39.6190   32.2300   40.4640 C   0  0  0  0  0  0  0  0  0  0  0  0
   39.2790   33.4020   39.8260 C   0  0  0  0  0  0  0  0  0  0  0  0
   37.9750   33.6120   39.6170 N   0  0  0  0  0  0  0  0  0  0  0  0
   37.0110   32.7540   39.9910 C   0  0  0  0  0  0  0  0  0  0  0  0
   37.3170   31.5930   40.6220 N   0  0  0  0  0  0  0  0  0  0  0  0
   38.6090   31.3590   40.8420 C   0  0  0  0  0  0  0  0  0  0  0  0
   35.4030   28.9400   40.7690 C   0  0  0  0  0  0  0  0  0  0  0  0
   36.7040   28.4780   40.6500 C   0  0  0  0  0  0  0  0  0  0  0  0
   37.1680   28.1840   39.3390 C   0  0  0  0  0  0  0  0  0  0  0  0
   36.3160   28.3730   38.2950 N   0  0  0  0  0  0  0  0  0  0  0  0
   35.0450   28.8310   38.4770 C   0  0  0  0  0  0  0  0  0  0  0  0
   34.5880   29.1160   39.7240 N   0  0  0  0  0  0  0  0  0  0  0  0
   34.1920   29.0070   37.3100 C   0  0  0  0  0  0  0  0  0  0  0  0
   34.7530   29.0040   36.0540 C   0  0  0  0  0  0  0  0  0  0  0  0
   33.8590   29.1800   35.0030 C   0  0  0  0  0  0  0  0  0  0  0  0
   32.5410   29.3420   35.1990 N   0  0  0  0  0  0  0  0  0  0  0  0
   32.0250   29.3380   36.4620 C   0  0  0  0  0  0  0  0  0  0  0  0
   32.8780   29.1700   37.4980 N   0  0  0  0  0  0  0  0  0  0  0  0
   40.2770   34.3440   39.4090 N   0  0  0  0  0  0  0  0  0  0  0  0
   36.7650   26.4627   42.6684 H   0  0  0  0  0  0  0  0  0  0  0  0
   38.7934   26.8920   44.3627 H   0  0  0  0  0  0  0  0  0  0  0  0
   41.2645   29.8146   41.8511 H   0  0  0  0  0  0  0  0  0  0  0  0
   35.9586   32.9966   39.7825 H   0  0  0  0  0  0  0  0  0  0  0  0
   35.0216   29.1737   41.7740 H   0  0  0  0  0  0  0  0  0  0  0  0
   38.1901   27.8130   39.1726 H   0  0  0  0  0  0  0  0  0  0  0  0
   35.8329   28.8717   35.8921 H   0  0  0  0  0  0  0  0  0  0  0  0
   34.2463   29.1867   33.9735 H   0  0  0  0  0  0  0  0  0  0  0  0
   30.9461   29.4677   36.6328 H   0  0  0  0  0  0  0  0  0  0  0  0
   39.9974   35.2138   38.9334 H   0  0  0  0  0  0  0  0  0  0  0  0
   41.2732   34.1506   39.5851 H   0  0  0  0  0  0  0  0  0  0  0  0
  1  5  1  0
  1  2  1  0
  2  3  2  0
  4  3  1  0
  5  4  2  0
  6  5  1  0
  7  6  1  0
  8  7  2  0
  9  8  1  0
  9 14  2  0
 10  9  1  0
 11 10  2  0
 11 12  1  0
 12 13  2  0
 13 14  1  0
 14  6  1  0
 16 15  2  0
 16  1  1  0
 17 16  1  0
 18 19  1  0
 18 17  2  0
 19 20  2  0
 20 15  1  0
 21 26  1  0
 21 19  1  0
 22 21  2  0
 23 24  2  0
 23 22  1  0
 24 25  1  0
 25 26  2  0
 27 10  1  0
  2 28  1  0
  3 29  1  0
  7 30  1  0
 12 31  1  0
 15 32  1  0
 17 33  1  0
 22 34  1  0
 23 35  1  0
 25 36  1  0
 27 37  1  0
 27 38  1  0
M  ISO  8  28  14  29  14  30  14  31  14  32  14  33  14  34  14  35  14
M  ISO  1  36  14
M  END
>  <minimizedAffinity>  (1) 
-6.09308958

>  <minimizedRMSD>  (1) 
2.28255057

$$$$
