
     RDKit          3D

 39 42  0  0  0  0  0  0  0  0999 V2000
   36.8230   28.4280   41.9970 N   0  0  0  0  0  0  0  0  0  0  0  0
   36.4220   27.5550   42.9400 C   0  0  0  0  0  0  0  0  0  0  0  0
   37.1710   27.8910   44.0450 C   0  0  0  0  0  0  0  0  0  0  0  0
   38.0010   28.9410   43.7700 N   0  0  0  0  0  0  0  0  0  0  0  0
   37.7660   29.2530   42.4950 C   0  0  0  0  0  0  0  0  0  0  0  0
   38.5280   30.3360   41.9770 N   0  0  0  0  0  0  0  0  0  0  0  0
   39.8270   30.5480   42.3410 C   0  0  0  0  0  0  0  0  0  0  0  0
   40.3460   31.6430   41.7150 N   0  0  0  0  0  0  0  0  0  0  0  0
   39.3650   32.1380   40.9420 C   0  0  0  0  0  0  0  0  0  0  0  0
   39.3040   33.2290   40.0870 C   0  0  0  0  0  0  0  0  0  0  0  0
   38.1300   33.4220   39.4660 N   0  0  0  0  0  0  0  0  0  0  0  0
   37.0540   32.6370   39.6300 C   0  0  0  0  0  0  0  0  0  0  0  0
   37.0960   31.5670   40.4630 N   0  0  0  0  0  0  0  0  0  0  0  0
   38.2540   31.3420   41.1010 C   0  0  0  0  0  0  0  0  0  0  0  0
   35.0890   28.9710   40.3370 C   0  0  0  0  0  0  0  0  0  0  0  0
   36.3410   28.4840   40.6820 C   0  0  0  0  0  0  0  0  0  0  0  0
   37.1710   28.0200   39.6180 C   0  0  0  0  0  0  0  0  0  0  0  0
   36.6950   28.0790   38.3450 N   0  0  0  0  0  0  0  0  0  0  0  0
   35.4460   28.5700   38.0630 C   0  0  0  0  0  0  0  0  0  0  0  0
   34.6420   29.0180   39.0740 N   0  0  0  0  0  0  0  0  0  0  0  0
   35.0060   28.5990   36.6610 C   0  0  0  0  0  0  0  0  0  0  0  0
   33.5820   29.1000   36.5580 C   0  0  0  0  0  0  0  0  0  0  0  0
   35.8790   29.4650   35.7860 C   0  0  0  0  0  0  0  0  0  0  0  0
   40.4100   34.0840   39.8810 N   0  0  0  0  0  0  0  0  0  0  0  0
   35.6698   26.7576   42.8487 H   0  0  0  0  0  0  0  0  0  0  0  0
   37.1096   27.3826   45.0185 H   0  0  0  0  0  0  0  0  0  0  0  0
   40.3837   29.9163   43.0488 H   0  0  0  0  0  0  0  0  0  0  0  0
   36.1272   32.8637   39.0827 H   0  0  0  0  0  0  0  0  0  0  0  0
   34.4307   29.3365   41.1389 H   0  0  0  0  0  0  0  0  0  0  0  0
   38.1759   27.6224   39.8231 H   0  0  0  0  0  0  0  0  0  0  0  0
   35.0802   27.5618   36.3023 H   0  0  0  0  0  0  0  0  0  0  0  0
   33.1703   29.2448   37.5677 H   0  0  0  0  0  0  0  0  0  0  0  0
   33.5683   30.0569   36.0157 H   0  0  0  0  0  0  0  0  0  0  0  0
   32.9721   28.3625   36.0157 H   0  0  0  0  0  0  0  0  0  0  0  0
   36.5180   30.0988   36.4184 H   0  0  0  0  0  0  0  0  0  0  0  0
   36.5102   28.8260   35.1509 H   0  0  0  0  0  0  0  0  0  0  0  0
   35.2451   30.1013   35.1509 H   0  0  0  0  0  0  0  0  0  0  0  0
   40.3290   34.8851   39.2387 H   0  0  0  0  0  0  0  0  0  0  0  0
   41.2971   33.9061   40.3732 H   0  0  0  0  0  0  0  0  0  0  0  0
  1  5  1  0
  1  2  1  0
  2  3  2  0
  4  3  1  0
  5  4  2  0
  6  7  1  0
  6  5  1  0
  8  7  2  0
  9 14  2  0
  9  8  1  0
 10  9  1  0
 11 12  1  0
 11 10  2  0
 12 13  2  0
 13 14  1  0
 14  6  1  0
 15 16  2  0
 16  1  1  0
 17 16  1  0
 18 17  2  0
 19 18  1  0
 19 20  2  0
 20 15  1  0
 21 19  1  0
 22 21  1  0
 23 21  1  0
 24 10  1  0
  2 25  1  0
  3 26  1  0
  7 27  1  0
 12 28  1  0
 15 29  1  0
 17 30  1  0
 21 31  1  0
 22 32  1  0
 22 33  1  0
 22 34  1  0
 23 35  1  0
 23 36  1  0
 23 37  1  0
 24 38  1  0
 24 39  1  0
M  ISO  8  25  14  26  14  27  14  28  14  29  14  30  14  31   8  32   8
M  ISO  5  33   8  34   8  35   8  36   8  37   8
M  END
>  <minimizedAffinity>  (1) 
-5.89700937

>  <minimizedRMSD>  (1) 
1.57298601

$$$$
