
     RDKit          3D

 37 41  0  0  0  0  0  0  0  0999 V2000
   36.8550   28.3230   41.9490 N   0  0  0  0  0  0  0  0  0  0  0  0
   36.3280   27.4120   42.7900 C   0  0  0  0  0  0  0  0  0  0  0  0
   36.9090   27.6980   44.0020 C   0  0  0  0  0  0  0  0  0  0  0  0
   37.7640   28.7550   43.8910 N   0  0  0  0  0  0  0  0  0  0  0  0
   37.7070   29.1220   42.6000 C   0  0  0  0  0  0  0  0  0  0  0  0
   38.5340   30.2250   42.2520 N   0  0  0  0  0  0  0  0  0  0  0  0
   39.7680   30.4220   42.8100 C   0  0  0  0  0  0  0  0  0  0  0  0
   40.3530   31.5490   42.3060 N   0  0  0  0  0  0  0  0  0  0  0  0
   39.4920   32.0810   41.4210 C   0  0  0  0  0  0  0  0  0  0  0  0
   39.5420   33.1950   40.6210 C   0  0  0  0  0  0  0  0  0  0  0  0
   38.4620   33.4130   39.8430 N   0  0  0  0  0  0  0  0  0  0  0  0
   37.3850   32.6210   39.8170 C   0  0  0  0  0  0  0  0  0  0  0  0
   37.3230   31.5130   40.6040 N   0  0  0  0  0  0  0  0  0  0  0  0
   38.3790   31.2670   41.3890 C   0  0  0  0  0  0  0  0  0  0  0  0
   35.3380   28.8910   40.0850 C   0  0  0  0  0  0  0  0  0  0  0  0
   36.5610   28.4330   40.5780 C   0  0  0  0  0  0  0  0  0  0  0  0
   37.5560   28.0610   39.6310 C   0  0  0  0  0  0  0  0  0  0  0  0
   37.2640   28.1700   38.3090 N   0  0  0  0  0  0  0  0  0  0  0  0
   36.0330   28.6310   37.8860 C   0  0  0  0  0  0  0  0  0  0  0  0
   35.0680   28.9920   38.7730 N   0  0  0  0  0  0  0  0  0  0  0  0
   35.9600   28.6580   36.4170 C   0  0  0  0  0  0  0  0  0  0  0  0
   36.3800   29.6670   35.5940 C   0  0  0  0  0  0  0  0  0  0  0  0
   36.2250   29.5050   34.2390 C   0  0  0  0  0  0  0  0  0  0  0  0
   35.6670   28.3660   33.7270 C   0  0  0  0  0  0  0  0  0  0  0  0
   35.2950   27.3670   35.3040 S   0  0  0  0  0  0  0  0  0  0  0  0
   40.6610   34.0690   40.6100 N   0  0  0  0  0  0  0  0  0  0  0  0
   35.5996   26.6206   42.5594 H   0  0  0  0  0  0  0  0  0  0  0  0
   36.7115   27.1493   44.9347 H   0  0  0  0  0  0  0  0  0  0  0  0
   40.2264   29.7627   43.5619 H   0  0  0  0  0  0  0  0  0  0  0  0
   36.5425   32.8673   39.1541 H   0  0  0  0  0  0  0  0  0  0  0  0
   34.5589   29.1829   40.8046 H   0  0  0  0  0  0  0  0  0  0  0  0
   38.5387   27.6937   39.9619 H   0  0  0  0  0  0  0  0  0  0  0  0
   36.8293   30.5826   36.0061 H   0  0  0  0  0  0  0  0  0  0  0  0
   36.5541   30.3022   33.5562 H   0  0  0  0  0  0  0  0  0  0  0  0
   35.4814   28.0971   32.6766 H   0  0  0  0  0  0  0  0  0  0  0  0
   40.6626   34.8959   39.9959 H   0  0  0  0  0  0  0  0  0  0  0  0
   41.4711   33.8761   41.2161 H   0  0  0  0  0  0  0  0  0  0  0  0
  1  5  1  0
  1  2  1  0
  2  3  2  0
  4  3  1  0
  5  4  2  0
  6  5  1  0
  6  7  1  0
  8  7  2  0
  9  8  1  0
 10  9  2  0
 11 10  1  0
 12 11  2  0
 12 13  1  0
 13 14  2  0
 14  9  1  0
 14  6  1  0
 15 16  2  0
 16  1  1  0
 17 16  1  0
 18 17  2  0
 19 18  1  0
 19 20  2  0
 20 15  1  0
 21 19  1  0
 22 21  2  0
 23 22  1  0
 24 23  2  0
 24 25  1  0
 25 21  1  0
 26 10  1  0
  2 27  1  0
  3 28  1  0
  7 29  1  0
 12 30  1  0
 15 31  1  0
 17 32  1  0
 22 33  1  0
 23 34  1  0
 24 35  1  0
 26 36  1  0
 26 37  1  0
M  ISO  8  27  14  28  14  29  14  30  14  31  14  32  14  33  14  34  14
M  ISO  1  35  14
M  END
>  <minimizedAffinity>  (1) 
-5.82273054

>  <minimizedRMSD>  (1) 
1.46899593

$$$$
