
     RDKit          3D

 32 35  0  0  0  0  0  0  0  0999 V2000
   37.2050   28.2850   40.4780 N   0  0  0  0  0  0  0  0  0  0  0  0
   36.7820   27.1190   41.0020 C   0  0  0  0  0  0  0  0  0  0  0  0
   37.1570   27.1760   42.3130 C   0  0  0  0  0  0  0  0  0  0  0  0
   37.7970   28.3540   42.5850 N   0  0  0  0  0  0  0  0  0  0  0  0
   37.8080   29.0170   41.4280 C   0  0  0  0  0  0  0  0  0  0  0  0
   38.4350   30.2970   41.4640 N   0  0  0  0  0  0  0  0  0  0  0  0
   39.5420   30.5450   42.2360 C   0  0  0  0  0  0  0  0  0  0  0  0
   39.9470   31.8380   42.0970 N   0  0  0  0  0  0  0  0  0  0  0  0
   39.1120   32.4260   41.2410 C   0  0  0  0  0  0  0  0  0  0  0  0
   39.0440   33.7070   40.7380 C   0  0  0  0  0  0  0  0  0  0  0  0
   38.0300   33.9420   39.8690 N   0  0  0  0  0  0  0  0  0  0  0  0
   37.1330   33.0120   39.4990 C   0  0  0  0  0  0  0  0  0  0  0  0
   37.1960   31.7530   39.9900 N   0  0  0  0  0  0  0  0  0  0  0  0
   38.1780   31.4800   40.8490 C   0  0  0  0  0  0  0  0  0  0  0  0
   35.8220   29.0510   38.5910 C   0  0  0  0  0  0  0  0  0  0  0  0
   37.0470   28.6940   39.1400 C   0  0  0  0  0  0  0  0  0  0  0  0
   38.1780   28.7490   38.2960 C   0  0  0  0  0  0  0  0  0  0  0  0
   38.0180   29.1420   37.0160 N   0  0  0  0  0  0  0  0  0  0  0  0
   36.7930   29.4880   36.5060 C   0  0  0  0  0  0  0  0  0  0  0  0
   35.6910   29.4390   37.3090 N   0  0  0  0  0  0  0  0  0  0  0  0
   36.7240   29.8830   35.1630 N   0  0  0  0  0  0  0  0  0  0  0  0
   39.9650   34.7220   41.0960 N   0  0  0  0  0  0  0  0  0  0  0  0
   36.2526   26.3030   40.4883 H   0  0  0  0  0  0  0  0  0  0  0  0
   36.9699   26.3821   43.0511 H   0  0  0  0  0  0  0  0  0  0  0  0
   40.0350   29.8012   42.8792 H   0  0  0  0  0  0  0  0  0  0  0  0
   36.3373   33.2780   38.7877 H   0  0  0  0  0  0  0  0  0  0  0  0
   34.9257   29.0153   39.2277 H   0  0  0  0  0  0  0  0  0  0  0  0
   39.1732   28.4757   38.6766 H   0  0  0  0  0  0  0  0  0  0  0  0
   35.8186   30.1490   34.7503 H   0  0  0  0  0  0  0  0  0  0  0  0
   37.5787   29.9073   34.5888 H   0  0  0  0  0  0  0  0  0  0  0  0
   39.8736   35.6657   40.6934 H   0  0  0  0  0  0  0  0  0  0  0  0
   40.7261   34.5164   41.7589 H   0  0  0  0  0  0  0  0  0  0  0  0
  1  2  1  0
  1  5  1  0
  2  3  2  0
  3  4  1  0
  5  6  1  0
  5  4  2  0
  6  7  1  0
  8  7  2  0
  9  8  1  0
 10 22  1  0
 10  9  2  0
 11 10  1  0
 12 11  2  0
 12 13  1  0
 13 14  2  0
 14  9  1  0
 14  6  1  0
 15 16  2  0
 16  1  1  0
 17 16  1  0
 18 17  2  0
 19 18  1  0
 19 20  2  0
 20 15  1  0
 21 19  1  0
  2 23  1  0
  3 24  1  0
  7 25  1  0
 12 26  1  0
 15 27  1  0
 17 28  1  0
 21 29  1  0
 21 30  1  0
 22 31  1  0
 22 32  1  0
M  ISO  6  23  14  24  14  25  14  26  14  27  14  28  14
M  END
>  <minimizedAffinity>  (1) 
-5.59473228

>  <minimizedRMSD>  (1) 
0.107007004

$$$$
