
     RDKit          3D

 31 34  0  0  0  0  0  0  0  0999 V2000
   37.1690   28.2730   40.5260 N   0  0  0  0  0  0  0  0  0  0  0  0
   36.7560   27.1140   41.0650 C   0  0  0  0  0  0  0  0  0  0  0  0
   37.1830   27.1710   42.3700 C   0  0  0  0  0  0  0  0  0  0  0  0
   37.8410   28.3460   42.6070 N   0  0  0  0  0  0  0  0  0  0  0  0
   37.8190   29.0080   41.4510 C   0  0  0  0  0  0  0  0  0  0  0  0
   38.4580   30.2830   41.4610 N   0  0  0  0  0  0  0  0  0  0  0  0
   39.5920   30.5190   42.1860 C   0  0  0  0  0  0  0  0  0  0  0  0
   40.0040   31.8070   42.0290 N   0  0  0  0  0  0  0  0  0  0  0  0
   39.1400   32.4040   41.2080 C   0  0  0  0  0  0  0  0  0  0  0  0
   39.0620   33.6800   40.7080 C   0  0  0  0  0  0  0  0  0  0  0  0
   38.0170   33.9240   39.8810 N   0  0  0  0  0  0  0  0  0  0  0  0
   37.0990   33.0040   39.5490 C   0  0  0  0  0  0  0  0  0  0  0  0
   37.1670   31.7380   40.0380 N   0  0  0  0  0  0  0  0  0  0  0  0
   38.1820   31.4710   40.8520 C   0  0  0  0  0  0  0  0  0  0  0  0
   35.7360   29.0360   38.6770 C   0  0  0  0  0  0  0  0  0  0  0  0
   36.9670   28.6810   39.1940 C   0  0  0  0  0  0  0  0  0  0  0  0
   38.0750   28.7370   38.3120 C   0  0  0  0  0  0  0  0  0  0  0  0
   37.8700   29.1300   37.0290 N   0  0  0  0  0  0  0  0  0  0  0  0
   36.6240   29.4720   36.5730 C   0  0  0  0  0  0  0  0  0  0  0  0
   35.5480   29.4230   37.4090 N   0  0  0  0  0  0  0  0  0  0  0  0
   36.3870   29.8760   35.2740 O   0  0  0  0  0  0  0  0  0  0  0  0
   40.0070   34.6850   41.0300 N   0  0  0  0  0  0  0  0  0  0  0  0
   36.2009   26.3020   40.5726 H   0  0  0  0  0  0  0  0  0  0  0  0
   37.0185   26.3821   43.1188 H   0  0  0  0  0  0  0  0  0  0  0  0
   40.1020   29.7709   42.8107 H   0  0  0  0  0  0  0  0  0  0  0  0
   36.2782   33.2787   38.8702 H   0  0  0  0  0  0  0  0  0  0  0  0
   34.8620   28.9987   39.3439 H   0  0  0  0  0  0  0  0  0  0  0  0
   39.0827   28.4669   38.6608 H   0  0  0  0  0  0  0  0  0  0  0  0
   35.4691   30.1137   34.9892 H   0  0  0  0  0  0  0  0  0  0  0  0
   39.9098   35.6299   40.6317 H   0  0  0  0  0  0  0  0  0  0  0  0
   40.7913   34.4708   41.6624 H   0  0  0  0  0  0  0  0  0  0  0  0
  1  2  1  0
  1  5  1  0
  2  3  2  0
  3  4  1  0
  5  6  1  0
  5  4  2  0
  6  7  1  0
  8  7  2  0
  9  8  1  0
 10 22  1  0
 10  9  2  0
 11 10  1  0
 12 11  2  0
 12 13  1  0
 13 14  2  0
 14  9  1  0
 14  6  1  0
 15 16  2  0
 16  1  1  0
 17 16  1  0
 18 17  2  0
 19 18  1  0
 19 20  2  0
 20 15  1  0
 21 19  1  0
  2 23  1  0
  3 24  1  0
  7 25  1  0
 12 26  1  0
 15 27  1  0
 17 28  1  0
 21 29  1  0
 22 30  1  0
 22 31  1  0
M  ISO  7  23  14  24  14  25  14  26  14  27  14  28  14  29   3
M  END
>  <minimizedAffinity>  (1) 
-5.44648647

>  <minimizedRMSD>  (1) 
0.0115007535

$$$$
