
     RDKit          3D

 49 53  0  0  0  0  0  0  0  0999 V2000
   35.0980   29.1470   40.5530 C   0  0  0  0  0  0  0  0  0  0  0  0
   36.1140   28.2800   40.9490 C   0  0  0  0  0  0  0  0  0  0  0  0
   36.5740   27.3730   39.9780 C   0  0  0  0  0  0  0  0  0  0  0  0
   36.0270   27.3840   38.7510 N   0  0  0  0  0  0  0  0  0  0  0  0
   35.0340   28.2450   38.3930 C   0  0  0  0  0  0  0  0  0  0  0  0
   34.5560   29.1460   39.3090 N   0  0  0  0  0  0  0  0  0  0  0  0
   36.6680   28.2850   42.2270 N   0  0  0  0  0  0  0  0  0  0  0  0
   36.2990   27.5120   43.2600 C   0  0  0  0  0  0  0  0  0  0  0  0
   37.1320   27.8820   44.2910 C   0  0  0  0  0  0  0  0  0  0  0  0
   37.9860   28.8610   43.8790 N   0  0  0  0  0  0  0  0  0  0  0  0
   37.6880   29.0990   42.6020 C   0  0  0  0  0  0  0  0  0  0  0  0
   38.4670   30.1010   41.9620 N   0  0  0  0  0  0  0  0  0  0  0  0
   39.8070   30.2630   42.2260 C   0  0  0  0  0  0  0  0  0  0  0  0
   40.3230   31.2890   41.4830 N   0  0  0  0  0  0  0  0  0  0  0  0
   39.3240   31.7820   40.7470 C   0  0  0  0  0  0  0  0  0  0  0  0
   39.2660   32.8080   39.8300 C   0  0  0  0  0  0  0  0  0  0  0  0
   38.0630   33.0270   39.2740 N   0  0  0  0  0  0  0  0  0  0  0  0
   36.9680   32.3150   39.5650 C   0  0  0  0  0  0  0  0  0  0  0  0
   37.0070   31.3010   40.4670 N   0  0  0  0  0  0  0  0  0  0  0  0
   38.1930   31.0570   41.0400 C   0  0  0  0  0  0  0  0  0  0  0  0
   40.4140   33.5880   39.4950 N   0  0  0  0  0  0  0  0  0  0  0  0
   34.3920   28.3240   37.0860 C   0  0  0  0  0  0  0  0  0  0  0  0
   33.0120   28.9130   37.1310 C   0  0  0  0  0  0  0  0  0  0  0  0
   34.2420   26.9170   36.5220 C   0  0  0  0  0  0  0  0  0  0  0  0
   35.2450   29.0910   36.1030 C   0  0  0  0  0  0  0  0  0  0  0  0
   36.6630   29.1390   36.4410 C   0  0  0  0  0  0  0  0  0  0  0  0
   37.4230   28.1280   35.8380 C   0  0  0  0  0  0  0  0  0  0  0  0
   38.7410   28.3110   36.2580 C   0  0  0  0  0  0  0  0  0  0  0  0
   38.7700   29.3690   37.0650 N   0  0  0  0  0  0  0  0  0  0  0  0
   37.5560   29.8180   37.1460 N   0  0  0  0  0  0  0  0  0  0  0  0
   34.7149   29.8706   41.2876 H   0  0  0  0  0  0  0  0  0  0  0  0
   37.3755   26.6600   40.2211 H   0  0  0  0  0  0  0  0  0  0  0  0
   35.5055   26.7504   43.2786 H   0  0  0  0  0  0  0  0  0  0  0  0
   37.1115   27.4497   45.3023 H   0  0  0  0  0  0  0  0  0  0  0  0
   40.3838   29.6522   42.9361 H   0  0  0  0  0  0  0  0  0  0  0  0
   36.0187   32.5557   39.0641 H   0  0  0  0  0  0  0  0  0  0  0  0
   40.3363   34.3485   38.8047 H   0  0  0  0  0  0  0  0  0  0  0  0
   41.3198   33.3902   39.9436 H   0  0  0  0  0  0  0  0  0  0  0  0
   32.7035   29.0447   38.1786 H   0  0  0  0  0  0  0  0  0  0  0  0
   33.0132   29.8890   36.6237 H   0  0  0  0  0  0  0  0  0  0  0  0
   32.3081   28.2369   36.6237 H   0  0  0  0  0  0  0  0  0  0  0  0
   34.1652   26.1965   37.3496 H   0  0  0  0  0  0  0  0  0  0  0  0
   33.3332   26.8644   35.9045 H   0  0  0  0  0  0  0  0  0  0  0  0
   35.1193   26.6740   35.9045 H   0  0  0  0  0  0  0  0  0  0  0  0
   34.8684   30.1234   36.0538 H   0  0  0  0  0  0  0  0  0  0  0  0
   35.1702   28.5595   35.1428 H   0  0  0  0  0  0  0  0  0  0  0  0
   37.0522   27.3419   35.1638 H   0  0  0  0  0  0  0  0  0  0  0  0
   39.6034   27.6907   35.9726 H   0  0  0  0  0  0  0  0  0  0  0  0
   39.5995   29.7576   37.5360 H   0  0  0  0  0  0  0  0  0  0  0  0
  1  2  2  0
  2  7  1  0
  3  2  1  0
  4  3  2  0
  5  4  1  0
  5  6  2  0
  6  1  1  0
  7 11  1  0
  7  8  1  0
  8  9  2  0
 10  9  1  0
 11 10  2  0
 12 13  1  0
 12 11  1  0
 14 13  2  0
 15 20  2  0
 15 14  1  0
 16 15  1  0
 17 18  1  0
 17 16  2  0
 18 19  2  0
 19 20  1  0
 20 12  1  0
 21 16  1  0
 22 23  1  0
 22  5  1  0
 24 22  1  0
 25 26  1  0
 25 22  1  0
 26 30  2  0
 27 28  2  0
 27 26  1  0
 28 29  1  0
 29 30  1  0
  1 31  1  0
  3 32  1  0
  8 33  1  0
  9 34  1  0
 13 35  1  0
 18 36  1  0
 21 37  1  0
 21 38  1  0
 23 39  1  0
 23 40  1  0
 23 41  1  0
 24 42  1  0
 24 43  1  0
 24 44  1  0
 25 45  1  0
 25 46  1  0
 27 47  1  0
 28 48  1  0
 29 49  1  0
M  ISO  8  31  14  32  14  33  14  34  14  35  14  36  14  39   8  40   8
M  ISO  8  41   8  42   8  43   8  44   8  45   8  46   8  47  14  48  14
M  ISO  1  49   9
M  END
>  <minimizedAffinity>  (1) 
-6.40211058

>  <minimizedRMSD>  (1) 
0.734851897

$$$$
