
     RDKit          3D

 47 51  0  0  0  0  0  0  0  0999 V2000
   35.1590   29.0840   40.5320 C   0  0  0  0  0  0  0  0  0  0  0  0
   36.1650   28.2310   40.9930 C   0  0  0  0  0  0  0  0  0  0  0  0
   36.6820   27.3130   40.0540 C   0  0  0  0  0  0  0  0  0  0  0  0
   36.2020   27.2940   38.7840 N   0  0  0  0  0  0  0  0  0  0  0  0
   35.2130   28.1550   38.3880 C   0  0  0  0  0  0  0  0  0  0  0  0
   34.6840   29.0600   39.2660 N   0  0  0  0  0  0  0  0  0  0  0  0
   36.6530   28.2560   42.2910 N   0  0  0  0  0  0  0  0  0  0  0  0
   36.2510   27.4710   43.3110 C   0  0  0  0  0  0  0  0  0  0  0  0
   37.0110   27.8570   44.3810 C   0  0  0  0  0  0  0  0  0  0  0  0
   37.8610   28.8600   44.0150 N   0  0  0  0  0  0  0  0  0  0  0  0
   37.6210   29.0900   42.7180 C   0  0  0  0  0  0  0  0  0  0  0  0
   38.4060   30.1110   42.1220 N   0  0  0  0  0  0  0  0  0  0  0  0
   39.7280   30.3140   42.4580 C   0  0  0  0  0  0  0  0  0  0  0  0
   40.2440   31.3540   41.7410 N   0  0  0  0  0  0  0  0  0  0  0  0
   39.2750   31.8260   40.9460 C   0  0  0  0  0  0  0  0  0  0  0  0
   39.2360   32.8430   40.0330 C   0  0  0  0  0  0  0  0  0  0  0  0
   38.0540   33.0230   39.4130 N   0  0  0  0  0  0  0  0  0  0  0  0
   36.9710   32.2820   39.6460 C   0  0  0  0  0  0  0  0  0  0  0  0
   36.9870   31.2710   40.5440 N   0  0  0  0  0  0  0  0  0  0  0  0
   38.1490   31.0600   41.1830 C   0  0  0  0  0  0  0  0  0  0  0  0
   40.3730   33.6600   39.7540 N   0  0  0  0  0  0  0  0  0  0  0  0
   34.6380   28.2000   37.0350 C   0  0  0  0  0  0  0  0  0  0  0  0
   33.2140   28.6980   37.0250 C   0  0  0  0  0  0  0  0  0  0  0  0
   34.6370   26.8160   36.4460 C   0  0  0  0  0  0  0  0  0  0  0  0
   35.4830   29.0930   36.1260 C   0  0  0  0  0  0  0  0  0  0  0  0
   36.9150   28.9650   36.4090 C   0  0  0  0  0  0  0  0  0  0  0  0
   37.7060   29.7430   37.1860 N   0  0  0  0  0  0  0  0  0  0  0  0
   38.9160   29.2790   37.1640 O   0  0  0  0  0  0  0  0  0  0  0  0
   38.9400   28.2150   36.3920 C   0  0  0  0  0  0  0  0  0  0  0  0
   37.7280   27.9890   35.9090 N   0  0  0  0  0  0  0  0  0  0  0  0
   34.7310   29.8132   41.2356 H   0  0  0  0  0  0  0  0  0  0  0  0
   37.4753   26.6115   40.3515 H   0  0  0  0  0  0  0  0  0  0  0  0
   35.4782   26.6886   43.2877 H   0  0  0  0  0  0  0  0  0  0  0  0
   36.9464   27.4223   45.3894 H   0  0  0  0  0  0  0  0  0  0  0  0
   40.2866   29.7222   43.1981 H   0  0  0  0  0  0  0  0  0  0  0  0
   36.0434   32.4976   39.0955 H   0  0  0  0  0  0  0  0  0  0  0  0
   40.3050   34.4172   39.0591 H   0  0  0  0  0  0  0  0  0  0  0  0
   41.2613   33.4922   40.2476 H   0  0  0  0  0  0  0  0  0  0  0  0
   32.8614   28.8213   38.0596 H   0  0  0  0  0  0  0  0  0  0  0  0
   33.1676   29.6657   36.5040 H   0  0  0  0  0  0  0  0  0  0  0  0
   32.5746   27.9701   36.5040 H   0  0  0  0  0  0  0  0  0  0  0  0
   34.6365   26.0725   37.2567 H   0  0  0  0  0  0  0  0  0  0  0  0
   33.7388   26.6823   35.8253 H   0  0  0  0  0  0  0  0  0  0  0  0
   35.5350   26.6810   35.8253 H   0  0  0  0  0  0  0  0  0  0  0  0
   35.1830   30.1403   36.2784 H   0  0  0  0  0  0  0  0  0  0  0  0
   35.3125   28.7779   35.0860 H   0  0  0  0  0  0  0  0  0  0  0  0
   39.8309   27.6056   36.1798 H   0  0  0  0  0  0  0  0  0  0  0  0
  1  2  2  0
  2  7  1  0
  3  2  1  0
  4  3  2  0
  5  4  1  0
  5  6  2  0
  6  1  1  0
  7 11  1  0
  7  8  1  0
  8  9  2  0
 10  9  1  0
 11 10  2  0
 12 13  1  0
 12 11  1  0
 14 13  2  0
 15 20  2  0
 15 14  1  0
 16 15  1  0
 17 18  1  0
 17 16  2  0
 18 19  2  0
 19 20  1  0
 20 12  1  0
 21 16  1  0
 22  5  1  0
 23 22  1  0
 24 22  1  0
 25 26  1  0
 25 22  1  0
 26 27  2  0
 28 27  1  0
 29 28  1  0
 30 29  2  0
 30 26  1  0
  1 31  1  0
  3 32  1  0
  8 33  1  0
  9 34  1  0
 13 35  1  0
 18 36  1  0
 21 37  1  0
 21 38  1  0
 23 39  1  0
 23 40  1  0
 23 41  1  0
 24 42  1  0
 24 43  1  0
 24 44  1  0
 25 45  1  0
 25 46  1  0
 29 47  1  0
M  ISO  8  31  14  32  14  33  14  34  14  35  14  36  14  39   8  40   8
M  ISO  7  41   8  42   8  43   8  44   8  45   8  46   8  47  14
M  END
>  <minimizedAffinity>  (1) 
-6.21997786

>  <minimizedRMSD>  (1) 
0.583230674

$$$$
