
     RDKit          3D

 49 53  0  0  0  0  0  0  0  0999 V2000
   35.1640   29.0940   40.5960 C   0  0  0  0  0  0  0  0  0  0  0  0
   36.1390   28.2220   41.0600 C   0  0  0  0  0  0  0  0  0  0  0  0
   36.6340   27.3100   40.1160 C   0  0  0  0  0  0  0  0  0  0  0  0
   36.1620   27.3190   38.8550 N   0  0  0  0  0  0  0  0  0  0  0  0
   35.2070   28.1880   38.4400 C   0  0  0  0  0  0  0  0  0  0  0  0
   34.6970   29.0950   39.3300 N   0  0  0  0  0  0  0  0  0  0  0  0
   36.6220   28.2240   42.3610 N   0  0  0  0  0  0  0  0  0  0  0  0
   36.2290   27.4140   43.3570 C   0  0  0  0  0  0  0  0  0  0  0  0
   36.9910   27.7970   44.4380 C   0  0  0  0  0  0  0  0  0  0  0  0
   37.8230   28.8170   44.0950 N   0  0  0  0  0  0  0  0  0  0  0  0
   37.5810   29.0670   42.8070 C   0  0  0  0  0  0  0  0  0  0  0  0
   38.3520   30.1160   42.2310 N   0  0  0  0  0  0  0  0  0  0  0  0
   39.6690   30.3250   42.5670 C   0  0  0  0  0  0  0  0  0  0  0  0
   40.1800   31.3940   41.8750 N   0  0  0  0  0  0  0  0  0  0  0  0
   39.1960   31.8680   41.0990 C   0  0  0  0  0  0  0  0  0  0  0  0
   39.1550   32.9090   40.2150 C   0  0  0  0  0  0  0  0  0  0  0  0
   37.9580   33.0930   39.5980 N   0  0  0  0  0  0  0  0  0  0  0  0
   36.8800   32.3270   39.8180 C   0  0  0  0  0  0  0  0  0  0  0  0
   36.9130   31.2930   40.6930 N   0  0  0  0  0  0  0  0  0  0  0  0
   38.0840   31.0860   41.3180 C   0  0  0  0  0  0  0  0  0  0  0  0
   40.2680   33.7470   39.9490 N   0  0  0  0  0  0  0  0  0  0  0  0
   34.6480   28.2840   37.0960 C   0  0  0  0  0  0  0  0  0  0  0  0
   33.3550   29.0830   37.0360 C   0  0  0  0  0  0  0  0  0  0  0  0
   34.3210   26.8780   36.5990 C   0  0  0  0  0  0  0  0  0  0  0  0
   35.6280   28.8720   36.1250 C   0  0  0  0  0  0  0  0  0  0  0  0
   36.9860   28.8800   36.4820 C   0  0  0  0  0  0  0  0  0  0  0  0
   37.7080   27.8530   35.9860 C   0  0  0  0  0  0  0  0  0  0  0  0
   39.0320   27.7760   36.2760 C   0  0  0  0  0  0  0  0  0  0  0  0
   39.6500   28.8320   37.1340 C   0  0  0  0  0  0  0  0  0  0  0  0
   38.1120   29.8890   37.4400 S   0  0  0  0  0  0  0  0  0  0  0  0
   34.7474   29.8276   41.3019 H   0  0  0  0  0  0  0  0  0  0  0  0
   37.4094   26.5859   40.4066 H   0  0  0  0  0  0  0  0  0  0  0  0
   35.4677   26.6209   43.3181 H   0  0  0  0  0  0  0  0  0  0  0  0
   36.9348   27.3422   45.4380 H   0  0  0  0  0  0  0  0  0  0  0  0
   40.2345   29.7191   43.2903 H   0  0  0  0  0  0  0  0  0  0  0  0
   35.9475   32.5428   39.2759 H   0  0  0  0  0  0  0  0  0  0  0  0
   40.1816   34.5185   39.2721 H   0  0  0  0  0  0  0  0  0  0  0  0
   41.1626   33.5840   40.4328 H   0  0  0  0  0  0  0  0  0  0  0  0
   33.0085   29.2971   38.0578 H   0  0  0  0  0  0  0  0  0  0  0  0
   33.5329   30.0289   36.5034 H   0  0  0  0  0  0  0  0  0  0  0  0
   32.5886   28.5008   36.5034 H   0  0  0  0  0  0  0  0  0  0  0  0
   34.1660   26.2115   37.4602 H   0  0  0  0  0  0  0  0  0  0  0  0
   33.4059   26.9082   35.9893 H   0  0  0  0  0  0  0  0  0  0  0  0
   35.1555   26.5013   35.9893 H   0  0  0  0  0  0  0  0  0  0  0  0
   35.3294   29.9163   35.9509 H   0  0  0  0  0  0  0  0  0  0  0  0
   35.5783   28.2086   35.2489 H   0  0  0  0  0  0  0  0  0  0  0  0
   37.2301   27.0889   35.3554 H   0  0  0  0  0  0  0  0  0  0  0  0
   39.6414   26.9479   35.8849 H   0  0  0  0  0  0  0  0  0  0  0  0
   40.6860   28.9567   37.4822 H   0  0  0  0  0  0  0  0  0  0  0  0
  1  2  2  0
  2  7  1  0
  3  2  1  0
  4  3  2  0
  5  4  1  0
  5  6  2  0
  6  1  1  0
  7 11  1  0
  7  8  1  0
  8  9  2  0
 10  9  1  0
 11 10  2  0
 12 13  1  0
 12 11  1  0
 14 13  2  0
 15 20  2  0
 15 14  1  0
 16 15  1  0
 17 18  1  0
 17 16  2  0
 18 19  2  0
 19 20  1  0
 20 12  1  0
 21 16  1  0
 22  5  1  0
 23 22  1  0
 24 22  1  0
 25 26  1  0
 25 22  1  0
 26 30  1  0
 27 28  1  0
 27 26  2  0
 28 29  2  0
 29 30  1  0
  1 31  1  0
  3 32  1  0
  8 33  1  0
  9 34  1  0
 13 35  1  0
 18 36  1  0
 21 37  1  0
 21 38  1  0
 23 39  1  0
 23 40  1  0
 23 41  1  0
 24 42  1  0
 24 43  1  0
 24 44  1  0
 25 45  1  0
 25 46  1  0
 27 47  1  0
 28 48  1  0
 29 49  1  0
M  ISO  8  31  14  32  14  33  14  34  14  35  14  36  14  39   8  40   8
M  ISO  8  41   8  42   8  43   8  44   8  45   8  46   8  47  14  48  14
M  ISO  1  49  14
M  END
>  <minimizedAffinity>  (1) 
-6.20068884

>  <minimizedRMSD>  (1) 
0.747030616

$$$$
