
     RDKit          3D

 34 36  0  0  0  0  0  0  0  0999 V2000
   38.2610   29.6060   40.8960 C   0  0  0  0  0  0  0  0  0  0  0  0
   38.8430   29.1420   42.1070 C   0  0  0  0  0  0  0  0  0  0  0  0
   39.8880   29.9220   42.5610 C   0  0  0  0  0  0  0  0  0  0  0  0
   40.3130   31.0210   41.9080 N   0  0  0  0  0  0  0  0  0  0  0  0
   39.7250   31.4180   40.7600 C   0  0  0  0  0  0  0  0  0  0  0  0
   38.7050   30.7040   40.2660 N   0  0  0  0  0  0  0  0  0  0  0  0
   38.3050   27.9680   42.7000 N   0  0  0  0  0  0  0  0  0  0  0  0
   37.1480   27.9470   43.5110 C   0  0  0  0  0  0  0  0  0  0  0  0
   36.9250   28.9890   44.2690 N   0  0  0  0  0  0  0  0  0  0  0  0
   36.3570   26.7500   43.3860 N   0  0  0  0  0  0  0  0  0  0  0  0
   36.1470   29.0190   44.9250 H   0  0  0  0  0  0  0  0  0  0  0  0
   40.3010   32.6250   40.1790 C   0  0  0  0  0  0  0  0  0  0  0  0
   40.0170   33.9450   40.4770 C   0  0  0  0  0  0  0  0  0  0  0  0
   40.7980   34.7670   39.6840 C   0  0  0  0  0  0  0  0  0  0  0  0
   41.5280   33.8830   38.9320 C   0  0  0  0  0  0  0  0  0  0  0  0
   41.2190   32.6550   39.2410 O   0  0  0  0  0  0  0  0  0  0  0  0
   42.5330   34.2840   37.9080 C   0  0  0  0  0  0  0  0  0  0  0  0
   43.8250   34.2080   38.4390 F   0  0  0  0  0  0  0  0  0  0  0  0
   42.4040   33.4890   36.7960 F   0  0  0  0  0  0  0  0  0  0  0  0
   42.3570   35.6160   37.5640 F   0  0  0  0  0  0  0  0  0  0  0  0
   40.8220   36.2500   39.6690 C   0  0  0  0  0  0  0  0  0  0  0  0
   39.4640   36.9150   40.0140 C   0  0  0  0  0  0  0  0  0  0  0  0
   40.5870   36.9750   40.9900 C   0  0  0  0  0  0  0  0  0  0  0  0
   37.4194   29.0467   40.4614 H   0  0  0  0  0  0  0  0  0  0  0  0
   40.3943   29.6342   43.4942 H   0  0  0  0  0  0  0  0  0  0  0  0
   38.7893   27.0754   42.5277 H   0  0  0  0  0  0  0  0  0  0  0  0
   35.4942   26.6429   43.9382 H   0  0  0  0  0  0  0  0  0  0  0  0
   36.6541   26.0010   42.7444 H   0  0  0  0  0  0  0  0  0  0  0  0
   39.2867   34.2870   41.2251 H   0  0  0  0  0  0  0  0  0  0  0  0
   41.5789   36.3192   38.8738 H   0  0  0  0  0  0  0  0  0  0  0  0
   39.1475   37.8254   39.4838 H   0  0  0  0  0  0  0  0  0  0  0  0
   38.4192   36.5731   40.0521 H   0  0  0  0  0  0  0  0  0  0  0  0
   40.5276   36.3982   41.9247 H   0  0  0  0  0  0  0  0  0  0  0  0
   41.1008   37.7920   41.5178 H   0  0  0  0  0  0  0  0  0  0  0  0
  1  2  2  0
  2  3  1  0
  2  7  1  0
  4  3  2  0
  5  4  1  0
  6  5  2  0
  6  1  1  0
  7  8  1  0
  8  9  2  0
  9 11  1  0
 10  8  1  0
 12 13  2  0
 12  5  1  0
 14 13  1  0
 15 16  1  0
 15 14  2  0
 16 12  1  0
 17 18  1  0
 17 15  1  0
 19 17  1  0
 20 17  1  0
 21 14  1  0
 21 22  1  0
 21 23  1  0
 22 23  1  0
  1 24  1  0
  3 25  1  0
  7 26  1  0
 10 27  1  0
 10 28  1  0
 13 29  1  0
 21 30  1  0
 22 31  1  0
 22 32  1  0
 23 33  1  0
 23 34  1  0
M  ISO  8  24  14  25  14  29  14  30  13  31  13  32  13  33  13  34  13
M  END
>  <minimizedAffinity>  (1) 
-5.52565336

>  <minimizedRMSD>  (1) 
2.24478245

$$$$
