
     RDKit          3D

 27 29  0  0  0  0  0  0  0  0999 V2000
   38.9900   25.2160   41.0060 N   0  0  0  0  0  0  0  0  0  0  0  0
   38.8740   25.2100   39.6710 C   0  0  0  0  0  0  0  0  0  0  0  0
   40.1100   25.1480   39.1390 N   0  0  0  0  0  0  0  0  0  0  0  0
   41.0110   25.1150   40.1420 C   0  0  0  0  0  0  0  0  0  0  0  0
   42.3870   25.0510   40.0560 C   0  0  0  0  0  0  0  0  0  0  0  0
   43.0050   25.0130   38.9650 O   0  0  0  0  0  0  0  0  0  0  0  0
   43.1080   25.0270   41.2060 N   0  0  0  0  0  0  0  0  0  0  0  0
   42.4170   25.0700   42.3600 C   0  0  0  0  0  0  0  0  0  0  0  0
   43.0680   25.0500   43.6310 N   0  0  0  0  0  0  0  0  0  0  0  0
   41.0550   25.1330   42.4620 N   0  0  0  0  0  0  0  0  0  0  0  0
   40.2990   25.1590   41.3250 C   0  0  0  0  0  0  0  0  0  0  0  0
   37.9630   25.2720   42.0150 C   0  0  0  0  0  0  0  0  0  0  0  0
   37.9090   28.8120   43.4210 C   0  0  0  0  0  0  0  0  0  0  0  0
   38.2440   27.4270   43.2840 C   0  0  0  0  0  0  0  0  0  0  0  0
   37.6660   26.7210   42.2280 C   0  0  0  0  0  0  0  0  0  0  0  0
   36.8150   27.3810   41.3840 N   0  0  0  0  0  0  0  0  0  0  0  0
   36.5230   28.7010   41.5510 C   0  0  0  0  0  0  0  0  0  0  0  0
   37.0760   29.3890   42.5640 N   0  0  0  0  0  0  0  0  0  0  0  0
   37.9309   25.2490   39.1062 H   0  0  0  0  0  0  0  0  0  0  0  0
   44.1368   24.9781   41.1958 H   0  0  0  0  0  0  0  0  0  0  0  0
   42.5099   25.0841   44.4960 H   0  0  0  0  0  0  0  0  0  0  0  0
   44.0956   25.0014   43.6826 H   0  0  0  0  0  0  0  0  0  0  0  0
   37.0612   24.7445   41.6708 H   0  0  0  0  0  0  0  0  0  0  0  0
   38.2905   24.7888   42.9473 H   0  0  0  0  0  0  0  0  0  0  0  0
   38.3445   29.4014   44.2413 H   0  0  0  0  0  0  0  0  0  0  0  0
   38.9332   26.9361   43.9868 H   0  0  0  0  0  0  0  0  0  0  0  0
   35.8342   29.2039   40.8563 H   0  0  0  0  0  0  0  0  0  0  0  0
  1 11  1  0
  1 12  1  0
  2  1  1  0
  3  2  2  0
  3  4  1  0
  4 11  2  0
  5  4  1  0
  5  7  1  0
  6  5  2  0
  7  8  1  0
  8 10  2  0
  8  9  1  0
 11 10  1  0
 12 15  1  0
 14 13  2  0
 15 14  1  0
 16 17  1  0
 16 15  2  0
 17 18  2  0
 18 13  1  0
  2 19  1  0
  7 20  1  0
  9 21  1  0
  9 22  1  0
 12 23  1  0
 12 24  1  0
 13 25  1  0
 14 26  1  0
 17 27  1  0
M  ISO  7  19  14  20   9  23   8  24   8  25  14  26  14  27  14
M  END
>  <minimizedAffinity>  (1) 
-4.32480764

>  <minimizedRMSD>  (1) 
1.24131346

$$$$
