
     RDKit          3D

 24 25  0  0  0  0  0  0  0  0999 V2000
   35.3170   29.0080   40.5840 C   0  0  0  0  0  0  0  0  0  0  0  0
   36.1890   27.9490   41.0390 N   0  0  0  0  0  0  0  0  0  0  0  0
   36.6010   28.0060   42.2960 C   0  0  0  0  0  0  0  0  0  0  0  0
   37.4410   27.0500   42.8560 C   0  0  0  0  0  0  0  0  0  0  0  0
   37.8430   26.0080   42.0290 C   0  0  0  0  0  0  0  0  0  0  0  0
   38.6960   24.9950   42.5180 N   0  0  0  0  0  0  0  0  0  0  0  0
   37.4170   25.9740   40.7770 N   0  0  0  0  0  0  0  0  0  0  0  0
   36.6020   26.9250   40.2800 C   0  0  0  0  0  0  0  0  0  0  0  0
   36.2030   26.8740   39.0670 O   0  0  0  0  0  0  0  0  0  0  0  0
   37.2580   32.2560   40.2870 C   0  0  0  0  0  0  0  0  0  0  0  0
   36.5130   31.1960   40.8600 C   0  0  0  0  0  0  0  0  0  0  0  0
   36.1080   30.1530   40.0280 C   0  0  0  0  0  0  0  0  0  0  0  0
   36.4520   30.2180   38.7230 N   0  0  0  0  0  0  0  0  0  0  0  0
   37.1620   31.2360   38.1960 C   0  0  0  0  0  0  0  0  0  0  0  0
   37.5580   32.2480   38.9930 N   0  0  0  0  0  0  0  0  0  0  0  0
   34.6528   28.6153   39.8000 H   0  0  0  0  0  0  0  0  0  0  0  0
   34.7296   29.3708   41.4404 H   0  0  0  0  0  0  0  0  0  0  0  0
   36.2647   28.8446   42.9234 H   0  0  0  0  0  0  0  0  0  0  0  0
   37.7714   27.1153   43.9032 H   0  0  0  0  0  0  0  0  0  0  0  0
   38.9897   24.2259   41.8991 H   0  0  0  0  0  0  0  0  0  0  0  0
   39.0247   25.0250   43.4937 H   0  0  0  0  0  0  0  0  0  0  0  0
   37.5908   33.0926   40.9189 H   0  0  0  0  0  0  0  0  0  0  0  0
   36.2612   31.1958   41.9308 H   0  0  0  0  0  0  0  0  0  0  0  0
   37.4156   31.2404   37.1256 H   0  0  0  0  0  0  0  0  0  0  0  0
  1  2  1  0
  2  3  1  0
  3  4  2  0
  5  6  1  0
  5  4  1  0
  7  5  2  0
  8  7  1  0
  8  2  1  0
  9  8  2  0
 10 11  2  0
 12  1  1  0
 12 11  1  0
 13 12  2  0
 14 13  1  0
 14 15  2  0
 15 10  1  0
  1 16  1  0
  1 17  1  0
  3 18  1  0
  4 19  1  0
  6 20  1  0
  6 21  1  0
 10 22  1  0
 11 23  1  0
 14 24  1  0
M  ISO  7  16   8  17   8  18  14  19  14  22  14  23  14  24  14
M  END
>  <minimizedAffinity>  (1) 
-4.09371758

>  <minimizedRMSD>  (1) 
4.35430145

$$$$
