
     RDKit          3D

 19 20  0  0  0  0  0  0  0  0999 V2000
   38.1300   29.0030   43.3010 C   0  0  0  0  0  0  0  0  0  0  0  0
   37.9670   27.5960   43.3710 C   0  0  0  0  0  0  0  0  0  0  0  0
   37.1300   26.9800   42.4390 C   0  0  0  0  0  0  0  0  0  0  0  0
   36.5270   27.7680   41.5240 N   0  0  0  0  0  0  0  0  0  0  0  0
   36.6940   29.1020   41.4720 C   0  0  0  0  0  0  0  0  0  0  0  0
   37.4910   29.7050   42.3580 N   0  0  0  0  0  0  0  0  0  0  0  0
   36.9270   25.5010   42.4740 C   0  0  0  0  0  0  0  0  0  0  0  0
   37.7760   24.8030   41.4440 C   0  0  0  0  0  0  0  0  0  0  0  0
   38.7720   25.4660   40.6600 C   0  0  0  0  0  0  0  0  0  0  0  0
   39.4040   24.1030   39.6540 S   0  0  0  0  0  0  0  0  0  0  0  0
   38.2210   22.8500   40.4540 C   0  0  0  0  0  0  0  0  0  0  0  0
   37.5750   23.5090   41.2720 N   0  0  0  0  0  0  0  0  0  0  0  0
   38.7820   29.5175   44.0222 H   0  0  0  0  0  0  0  0  0  0  0  0
   38.4867   27.0053   44.1398 H   0  0  0  0  0  0  0  0  0  0  0  0
   36.1762   29.6937   40.7028 H   0  0  0  0  0  0  0  0  0  0  0  0
   37.1965   25.1267   43.4726 H   0  0  0  0  0  0  0  0  0  0  0  0
   35.8706   25.2921   42.2497 H   0  0  0  0  0  0  0  0  0  0  0  0
   39.0733   26.5239   40.6672 H   0  0  0  0  0  0  0  0  0  0  0  0
   38.1321   21.7755   40.2360 H   0  0  0  0  0  0  0  0  0  0  0  0
  1  2  2  0
  3  7  1  0
  3  2  1  0
  4  3  2  0
  5  4  1  0
  5  6  2  0
  6  1  1  0
  8  7  1  0
  9  8  2  0
 10 11  1  0
 10  9  1  0
 11 12  2  0
 12  8  1  0
  1 13  1  0
  2 14  1  0
  5 15  1  0
  7 16  1  0
  7 17  1  0
  9 18  1  0
 11 19  1  0
M  ISO  7  13  14  14  14  15  14  16   8  17   8  18  14  19  14
M  END
>  <minimizedAffinity>  (1) 
-3.38472533

>  <minimizedRMSD>  (1) 
0.644321382

$$$$
