
     RDKit          3D

 18 19  0  0  0  0  0  0  0  0999 V2000
   38.0160   28.9870   43.3710 C   0  0  0  0  0  0  0  0  0  0  0  0
   37.8430   27.5840   43.4580 C   0  0  0  0  0  0  0  0  0  0  0  0
   37.0710   26.9540   42.4650 C   0  0  0  0  0  0  0  0  0  0  0  0
   36.5410   27.7300   41.4880 N   0  0  0  0  0  0  0  0  0  0  0  0
   36.7220   29.0670   41.4280 C   0  0  0  0  0  0  0  0  0  0  0  0
   37.4580   29.6790   42.3710 N   0  0  0  0  0  0  0  0  0  0  0  0
   36.8540   25.4710   42.5080 C   0  0  0  0  0  0  0  0  0  0  0  0
   37.8260   24.8230   41.5970 C   0  0  0  0  0  0  0  0  0  0  0  0
   37.6500   23.5390   41.2500 N   0  0  0  0  0  0  0  0  0  0  0  0
   38.6220   23.2080   40.4560 O   0  0  0  0  0  0  0  0  0  0  0  0
   39.4160   24.2220   40.2770 C   0  0  0  0  0  0  0  0  0  0  0  0
   38.9310   25.2680   40.9960 N   0  0  0  0  0  0  0  0  0  0  0  0
   38.6135   29.5116   44.1311 H   0  0  0  0  0  0  0  0  0  0  0  0
   38.2977   27.0056   44.2757 H   0  0  0  0  0  0  0  0  0  0  0  0
   36.2700   29.6510   40.6127 H   0  0  0  0  0  0  0  0  0  0  0  0
   37.0063   25.1040   43.5337 H   0  0  0  0  0  0  0  0  0  0  0  0
   35.8276   25.2327   42.1924 H   0  0  0  0  0  0  0  0  0  0  0  0
   40.3217   24.2314   39.6528 H   0  0  0  0  0  0  0  0  0  0  0  0
  1  2  2  0
  3  7  1  0
  3  2  1  0
  4  3  2  0
  5  4  1  0
  5  6  2  0
  6  1  1  0
  8  7  1  0
  9  8  2  0
 10  9  1  0
 11 10  1  0
 11 12  2  0
 12  8  1  0
  1 13  1  0
  2 14  1  0
  5 15  1  0
  7 16  1  0
  7 17  1  0
 11 18  1  0
M  ISO  6  13  14  14  14  15  14  16   8  17   8  18  14
M  END
>  <minimizedAffinity>  (1) 
-3.35500026

>  <minimizedRMSD>  (1) 
0.496248364

$$$$
