
     RDKit          3D

 33 34  0  0  0  0  0  0  0  0999 V2000
   37.9720   29.7960   41.0710 C   0  0  0  0  0  0  0  0  0  0  0  0
   38.6680   29.2640   42.2110 C   0  0  0  0  0  0  0  0  0  0  0  0
   39.7420   30.0250   42.6220 C   0  0  0  0  0  0  0  0  0  0  0  0
   40.1020   31.1600   42.0110 N   0  0  0  0  0  0  0  0  0  0  0  0
   39.4160   31.6260   40.9370 C   0  0  0  0  0  0  0  0  0  0  0  0
   38.3600   30.9340   40.4860 N   0  0  0  0  0  0  0  0  0  0  0  0
   38.1830   28.0510   42.7660 N   0  0  0  0  0  0  0  0  0  0  0  0
   37.0650   27.9340   43.5970 C   0  0  0  0  0  0  0  0  0  0  0  0
   36.8480   28.9350   44.4340 N   0  0  0  0  0  0  0  0  0  0  0  0
   36.3100   26.7250   43.4150 N   0  0  0  0  0  0  0  0  0  0  0  0
   36.0340   28.9210   45.0660 H   0  0  0  0  0  0  0  0  0  0  0  0
   39.9270   32.8720   40.3810 C   0  0  0  0  0  0  0  0  0  0  0  0
   39.5430   34.1620   40.6500 C   0  0  0  0  0  0  0  0  0  0  0  0
   40.2960   35.0480   39.8930 C   0  0  0  0  0  0  0  0  0  0  0  0
   41.1240   34.2070   39.1830 C   0  0  0  0  0  0  0  0  0  0  0  0
   40.8870   32.9700   39.4870 O   0  0  0  0  0  0  0  0  0  0  0  0
   42.1530   34.6770   38.2000 C   0  0  0  0  0  0  0  0  0  0  0  0
   42.0890   33.9290   37.0380 F   0  0  0  0  0  0  0  0  0  0  0  0
   41.9670   36.0120   37.9600 F   0  0  0  0  0  0  0  0  0  0  0  0
   43.4250   34.4650   38.7130 F   0  0  0  0  0  0  0  0  0  0  0  0
   40.2080   36.5110   39.8770 C   0  0  0  0  0  0  0  0  0  0  0  0
   41.0150   37.1000   41.0060 C   0  0  0  0  0  0  0  0  0  0  0  0
   37.1015   29.2551   40.6714 H   0  0  0  0  0  0  0  0  0  0  0  0
   40.3276   29.6848   43.4888 H   0  0  0  0  0  0  0  0  0  0  0  0
   38.6961   27.1875   42.5381 H   0  0  0  0  0  0  0  0  0  0  0  0
   35.4692   26.5523   43.9843 H   0  0  0  0  0  0  0  0  0  0  0  0
   36.6097   26.0311   42.7153 H   0  0  0  0  0  0  0  0  0  0  0  0
   38.7547   34.4508   41.3608 H   0  0  0  0  0  0  0  0  0  0  0  0
   40.5972   36.8868   38.9192 H   0  0  0  0  0  0  0  0  0  0  0  0
   39.1554   36.8058   40.0000 H   0  0  0  0  0  0  0  0  0  0  0  0
   40.5839   36.7854   41.9679 H   0  0  0  0  0  0  0  0  0  0  0  0
   42.0544   36.7467   40.9369 H   0  0  0  0  0  0  0  0  0  0  0  0
   40.9955   38.1977   40.9369 H   0  0  0  0  0  0  0  0  0  0  0  0
  1  2  2  0
  2  3  1  0
  2  7  1  0
  4  3  2  0
  5  4  1  0
  6  5  2  0
  6  1  1  0
  7  8  1  0
  8  9  2  0
  9 11  1  0
 10  8  1  0
 12 13  2  0
 12  5  1  0
 14 13  1  0
 15 16  1  0
 15 14  2  0
 16 12  1  0
 17 20  1  0
 17 15  1  0
 18 17  1  0
 19 17  1  0
 21 14  1  0
 21 22  1  0
  1 23  1  0
  3 24  1  0
  7 25  1  0
 10 26  1  0
 10 27  1  0
 13 28  1  0
 21 29  1  0
 21 30  1  0
 22 31  1  0
 22 32  1  0
 22 33  1  0
M  ISO  8  23  14  24  14  28  14  29   8  30   8  31   8  32   8  33   8
M  END
>  <minimizedAffinity>  (1) 
-5.42522764

>  <minimizedRMSD>  (1) 
2.04724598

$$$$
