
     RDKit          3D

 37 39  0  0  0  0  0  0  0  0999 V2000
   41.3860   30.9110   40.8490 C   0  0  0  0  0  0  0  0  0  0  0  0
   40.6510   32.0660   40.9130 C   0  0  0  0  0  0  0  0  0  0  0  0
   41.4590   33.1450   40.5300 C   0  0  0  0  0  0  0  0  0  0  0  0
   42.6600   32.5420   40.2540 C   0  0  0  0  0  0  0  0  0  0  0  0
   42.5860   31.2640   40.4470 O   0  0  0  0  0  0  0  0  0  0  0  0
   39.9030   27.8520   42.3440 C   0  0  0  0  0  0  0  0  0  0  0  0
   40.3300   26.8390   41.4370 C   0  0  0  0  0  0  0  0  0  0  0  0
   41.0900   27.3200   40.3960 C   0  0  0  0  0  0  0  0  0  0  0  0
   41.3970   28.6230   40.2560 N   0  0  0  0  0  0  0  0  0  0  0  0
   40.9610   29.5550   41.1560 C   0  0  0  0  0  0  0  0  0  0  0  0
   40.2200   29.1550   42.1860 N   0  0  0  0  0  0  0  0  0  0  0  0
   39.9380   25.5040   41.6970 N   0  0  0  0  0  0  0  0  0  0  0  0
   40.5240   24.6790   42.6790 C   0  0  0  0  0  0  0  0  0  0  0  0
   41.8080   24.8200   42.8940 N   0  0  0  0  0  0  0  0  0  0  0  0
   39.6030   23.7740   43.3210 N   0  0  0  0  0  0  0  0  0  0  0  0
   42.2990   24.2410   43.5770 H   0  0  0  0  0  0  0  0  0  0  0  0
   40.9420   34.5010   40.4990 C   0  0  0  0  0  0  0  0  0  0  0  0
   41.5170   35.6890   40.8390 C   0  0  0  0  0  0  0  0  0  0  0  0
   40.8460   36.8780   40.7440 C   0  0  0  0  0  0  0  0  0  0  0  0
   39.5620   36.9680   40.3040 C   0  0  0  0  0  0  0  0  0  0  0  0
   38.9310   35.7950   39.9460 C   0  0  0  0  0  0  0  0  0  0  0  0
   39.6180   34.6140   40.0490 C   0  0  0  0  0  0  0  0  0  0  0  0
   43.8470   33.2990   39.8010 C   0  0  0  0  0  0  0  0  0  0  0  0
   44.9050   32.4160   39.5210 F   0  0  0  0  0  0  0  0  0  0  0  0
   43.5540   34.0320   38.6840 F   0  0  0  0  0  0  0  0  0  0  0  0
   44.3430   34.1100   40.8140 F   0  0  0  0  0  0  0  0  0  0  0  0
   39.5959   32.1350   41.2164 H   0  0  0  0  0  0  0  0  0  0  0  0
   39.2894   27.5601   43.2091 H   0  0  0  0  0  0  0  0  0  0  0  0
   41.4633   26.6083   39.6449 H   0  0  0  0  0  0  0  0  0  0  0  0
   39.1736   25.1087   41.1310 H   0  0  0  0  0  0  0  0  0  0  0  0
   39.9383   23.1311   44.0525 H   0  0  0  0  0  0  0  0  0  0  0  0
   38.6098   23.7705   43.0481 H   0  0  0  0  0  0  0  0  0  0  0  0
   42.5554   35.6923   41.2020 H   0  0  0  0  0  0  0  0  0  0  0  0
   41.3678   37.8012   41.0362 H   0  0  0  0  0  0  0  0  0  0  0  0
   39.0474   37.9378   40.2364 H   0  0  0  0  0  0  0  0  0  0  0  0
   37.8925   35.8074   39.5835 H   0  0  0  0  0  0  0  0  0  0  0  0
   39.0953   33.6906   39.7588 H   0  0  0  0  0  0  0  0  0  0  0  0
  1  2  2  0
  1 10  1  0
  3  2  1  0
  4  5  1  0
  4  3  2  0
  5  1  1  0
  7 12  1  0
  7  6  2  0
  8  7  1  0
  9  8  2  0
  9 10  1  0
 10 11  2  0
 11  6  1  0
 12 13  1  0
 13 14  2  0
 13 15  1  0
 14 16  1  0
 17  3  1  0
 17 18  2  0
 19 18  1  0
 20 19  2  0
 21 22  2  0
 21 20  1  0
 22 17  1  0
 23  4  1  0
 23 26  1  0
 24 23  1  0
 25 23  1  0
  2 27  1  0
  6 28  1  0
  8 29  1  0
 12 30  1  0
 15 31  1  0
 15 32  1  0
 18 33  1  0
 19 34  1  0
 20 35  1  0
 21 36  1  0
 22 37  1  0
M  ISO  8  27  14  28  14  29  14  33  14  34  14  35  14  36  14  37  14
M  END
>  <minimizedAffinity>  (1) 
-5.40556145

>  <minimizedRMSD>  (1) 
4.16883612

$$$$
