
     RDKit          3D

 33 35  0  0  0  0  0  0  0  0999 V2000
   38.1500   26.9890   42.9100 C   0  0  0  0  0  0  0  0  0  0  0  0
   39.1550   26.1680   43.2770 C   0  0  0  0  0  0  0  0  0  0  0  0
   39.5500   25.1120   42.5410 C   0  0  0  0  0  0  0  0  0  0  0  0
   38.7610   24.9760   41.3170 C   0  0  0  0  0  0  0  0  0  0  0  0
   37.6080   26.3070   41.3630 S   0  0  0  0  0  0  0  0  0  0  0  0
   38.9740   23.9380   40.3560 N   0  0  0  0  0  0  0  0  0  0  0  0
   38.3240   22.7840   40.6420 C   0  0  0  0  0  0  0  0  0  0  0  0
   38.4470   21.6970   39.7880 C   0  0  0  0  0  0  0  0  0  0  0  0
   37.7240   20.4430   40.1260 C   0  0  0  0  0  0  0  0  0  0  0  0
   39.2400   21.8520   38.6680 C   0  0  0  0  0  0  0  0  0  0  0  0
   39.3290   20.8630   37.9260 O   0  0  0  0  0  0  0  0  0  0  0  0
   39.8580   23.0220   38.4430 N   0  0  0  0  0  0  0  0  0  0  0  0
   39.7470   24.0910   39.2650 C   0  0  0  0  0  0  0  0  0  0  0  0
   40.3190   25.1900   39.0630 O   0  0  0  0  0  0  0  0  0  0  0  0
   37.5150   28.1780   43.4900 C   0  0  0  0  0  0  0  0  0  0  0  0
   39.2090   31.0980   41.7500 C   0  0  0  0  0  0  0  0  0  0  0  0
   39.0090   29.9790   42.5920 C   0  0  0  0  0  0  0  0  0  0  0  0
   37.7800   29.3590   42.6230 C   0  0  0  0  0  0  0  0  0  0  0  0
   36.8100   29.8760   41.8190 N   0  0  0  0  0  0  0  0  0  0  0  0
   37.0010   30.9410   41.0190 C   0  0  0  0  0  0  0  0  0  0  0  0
   38.1870   31.5370   40.9900 N   0  0  0  0  0  0  0  0  0  0  0  0
   39.6774   26.3709   44.2236 H   0  0  0  0  0  0  0  0  0  0  0  0
   40.3675   24.4334   42.8259 H   0  0  0  0  0  0  0  0  0  0  0  0
   37.7021   22.7091   41.5463 H   0  0  0  0  0  0  0  0  0  0  0  0
   37.6634   20.3380   41.2193 H   0  0  0  0  0  0  0  0  0  0  0  0
   36.7087   20.4801   39.7044 H   0  0  0  0  0  0  0  0  0  0  0  0
   38.2648   19.5829   39.7044 H   0  0  0  0  0  0  0  0  0  0  0  0
   40.4464   23.1106   37.6023 H   0  0  0  0  0  0  0  0  0  0  0  0
   36.4298   28.0142   43.5638 H   0  0  0  0  0  0  0  0  0  0  0  0
   37.9289   28.3607   44.4926 H   0  0  0  0  0  0  0  0  0  0  0  0
   40.1857   31.6028   41.7163 H   0  0  0  0  0  0  0  0  0  0  0  0
   39.8319   29.6058   43.2193 H   0  0  0  0  0  0  0  0  0  0  0  0
   36.1785   31.3160   40.3921 H   0  0  0  0  0  0  0  0  0  0  0  0
  1  2  2  0
  1 15  1  0
  3  2  1  0
  4  5  1  0
  4  3  2  0
  5  1  1  0
  6  7  1  0
  6  4  1  0
  8  9  1  0
  8  7  2  0
 10  8  1  0
 11 10  2  0
 12 10  1  0
 12 13  1  0
 13  6  1  0
 14 13  2  0
 16 17  2  0
 17 18  1  0
 18 15  1  0
 19 18  2  0
 20 19  1  0
 21 20  2  0
 21 16  1  0
  2 22  1  0
  3 23  1  0
  7 24  1  0
  9 25  1  0
  9 26  1  0
  9 27  1  0
 12 28  1  0
 15 29  1  0
 15 30  1  0
 16 31  1  0
 17 32  1  0
 20 33  1  0
M  ISO  8  22  14  23  14  24  14  25   8  26   8  27   8  28   9  29   8
M  ISO  4  30   8  31  14  32  14  33  14
M  END
>  <minimizedAffinity>  (1) 
-4.64164352

>  <minimizedRMSD>  (1) 
2.0536418

$$$$
