
     RDKit          3D

 30 32  0  0  0  0  0  0  0  0999 V2000
   36.9580   26.2340   42.3440 C   0  0  0  0  0  0  0  0  0  0  0  0
   36.9970   24.9070   42.5790 C   0  0  0  0  0  0  0  0  0  0  0  0
   37.4640   24.0050   41.6970 C   0  0  0  0  0  0  0  0  0  0  0  0
   37.9190   24.6350   40.4650 C   0  0  0  0  0  0  0  0  0  0  0  0
   37.6390   26.3470   40.7030 S   0  0  0  0  0  0  0  0  0  0  0  0
   38.4780   23.9830   39.3030 C   0  0  0  0  0  0  0  0  0  0  0  0
   38.6810   24.8000   38.2140 C   0  0  0  0  0  0  0  0  0  0  0  0
   39.2210   24.1880   37.0780 C   0  0  0  0  0  0  0  0  0  0  0  0
   39.5180   22.8340   37.1010 C   0  0  0  0  0  0  0  0  0  0  0  0
   39.2850   22.0610   38.2450 C   0  0  0  0  0  0  0  0  0  0  0  0
   38.7460   22.6370   39.4010 C   0  0  0  0  0  0  0  0  0  0  0  0
   36.5210   27.4160   43.0850 C   0  0  0  0  0  0  0  0  0  0  0  0
   39.2210   30.0530   42.6560 C   0  0  0  0  0  0  0  0  0  0  0  0
   38.5300   28.9110   43.1180 C   0  0  0  0  0  0  0  0  0  0  0  0
   37.2800   28.6110   42.6230 C   0  0  0  0  0  0  0  0  0  0  0  0
   36.7670   29.4600   41.6880 N   0  0  0  0  0  0  0  0  0  0  0  0
   37.4340   30.5520   41.2510 C   0  0  0  0  0  0  0  0  0  0  0  0
   38.6450   30.8390   41.7310 N   0  0  0  0  0  0  0  0  0  0  0  0
   36.6256   24.5409   43.5475 H   0  0  0  0  0  0  0  0  0  0  0  0
   37.4982   22.9215   41.8838 H   0  0  0  0  0  0  0  0  0  0  0  0
   38.4331   25.8715   38.2358 H   0  0  0  0  0  0  0  0  0  0  0  0
   39.4093   24.7790   36.1696 H   0  0  0  0  0  0  0  0  0  0  0  0
   39.9440   22.3588   36.2051 H   0  0  0  0  0  0  0  0  0  0  0  0
   39.5285   20.9883   38.2350 H   0  0  0  0  0  0  0  0  0  0  0  0
   38.5518   22.0588   40.3164 H   0  0  0  0  0  0  0  0  0  0  0  0
   35.4464   27.5775   42.9139 H   0  0  0  0  0  0  0  0  0  0  0  0
   36.7066   27.2607   44.1581 H   0  0  0  0  0  0  0  0  0  0  0  0
   40.2192   30.2961   43.0490 H   0  0  0  0  0  0  0  0  0  0  0  0
   38.9912   28.2596   43.8749 H   0  0  0  0  0  0  0  0  0  0  0  0
   36.9755   31.2072   40.4956 H   0  0  0  0  0  0  0  0  0  0  0  0
  1  2  2  0
  1 12  1  0
  3  2  1  0
  4  5  1  0
  4  3  2  0
  5  1  1  0
  6 11  1  0
  6  4  1  0
  7  6  2  0
  8  9  2  0
  8  7  1  0
  9 10  1  0
 10 11  2  0
 13 14  2  0
 15 12  1  0
 15 14  1  0
 16 15  2  0
 17 16  1  0
 17 18  2  0
 18 13  1  0
  2 19  1  0
  3 20  1  0
  7 21  1  0
  8 22  1  0
  9 23  1  0
 10 24  1  0
 11 25  1  0
 12 26  1  0
 12 27  1  0
 13 28  1  0
 14 29  1  0
 17 30  1  0
M  ISO  8  19  14  20  14  21  14  22  14  23  14  24  14  25  14  26   8
M  ISO  4  27   8  28  14  29  14  30  14
M  END
>  <minimizedAffinity>  (1) 
-4.10828638

>  <minimizedRMSD>  (1) 
0.912242234

$$$$
