
     RDKit          3D

 34 36  0  0  0  0  0  0  0  0999 V2000
   37.0200   26.0700   42.2590 C   0  0  0  0  0  0  0  0  0  0  0  0
   37.3670   24.7970   42.5350 C   0  0  0  0  0  0  0  0  0  0  0  0
   37.7390   23.8990   41.6020 C   0  0  0  0  0  0  0  0  0  0  0  0
   37.7140   24.4850   40.2660 C   0  0  0  0  0  0  0  0  0  0  0  0
   37.1860   26.1610   40.5050 S   0  0  0  0  0  0  0  0  0  0  0  0
   38.0740   23.7790   39.0720 N   0  0  0  0  0  0  0  0  0  0  0  0
   39.5040   23.4970   38.9580 C   0  0  0  0  0  0  0  0  0  0  0  0
   39.8290   22.2960   38.1410 C   0  0  0  0  0  0  0  0  0  0  0  0
   38.7070   21.3710   38.1430 N   0  0  0  0  0  0  0  0  0  0  0  0
   37.5640   21.9580   37.4760 C   0  0  0  0  0  0  0  0  0  0  0  0
   37.2300   23.3220   38.0050 C   0  0  0  0  0  0  0  0  0  0  0  0
   36.5950   27.2240   43.0550 C   0  0  0  0  0  0  0  0  0  0  0  0
   39.3270   29.8440   42.6160 C   0  0  0  0  0  0  0  0  0  0  0  0
   38.6580   28.6810   43.0600 C   0  0  0  0  0  0  0  0  0  0  0  0
   37.3700   28.4440   42.6260 C   0  0  0  0  0  0  0  0  0  0  0  0
   36.8010   29.3500   41.7870 N   0  0  0  0  0  0  0  0  0  0  0  0
   37.4590   30.4600   41.3730 C   0  0  0  0  0  0  0  0  0  0  0  0
   38.7100   30.6920   41.7920 N   0  0  0  0  0  0  0  0  0  0  0  0
   37.3451   24.4717   43.5856 H   0  0  0  0  0  0  0  0  0  0  0  0
   38.0245   22.8591   41.8193 H   0  0  0  0  0  0  0  0  0  0  0  0
   39.9913   24.3690   38.4974 H   0  0  0  0  0  0  0  0  0  0  0  0
   39.8665   23.2924   39.9762 H   0  0  0  0  0  0  0  0  0  0  0  0
   40.7129   21.7965   38.5643 H   0  0  0  0  0  0  0  0  0  0  0  0
   40.0351   22.6093   37.1069 H   0  0  0  0  0  0  0  0  0  0  0  0
   38.9790   20.5073   37.6522 H   0  0  0  0  0  0  0  0  0  0  0  0
   36.6943   21.3003   37.6212 H   0  0  0  0  0  0  0  0  0  0  0  0
   37.8161   22.0644   36.4106 H   0  0  0  0  0  0  0  0  0  0  0  0
   37.3096   24.0395   37.1750 H   0  0  0  0  0  0  0  0  0  0  0  0
   36.2150   23.2511   38.4230 H   0  0  0  0  0  0  0  0  0  0  0  0
   35.5201   27.3997   42.9010 H   0  0  0  0  0  0  0  0  0  0  0  0
   36.7854   27.0247   44.1199 H   0  0  0  0  0  0  0  0  0  0  0  0
   40.3549   30.0495   42.9495 H   0  0  0  0  0  0  0  0  0  0  0  0
   39.1565   27.9756   43.7411 H   0  0  0  0  0  0  0  0  0  0  0  0
   36.9659   31.1703   40.6930 H   0  0  0  0  0  0  0  0  0  0  0  0
  1  2  2  0
  1 12  1  0
  3  2  1  0
  4  5  1  0
  4  3  2  0
  5  1  1  0
  6  4  1  0
  7  6  1  0
  8  9  1  0
  8  7  1  0
 10 11  1  0
 10  9  1  0
 11  6  1  0
 13 14  2  0
 15 12  1  0
 15 14  1  0
 16 15  2  0
 17 16  1  0
 17 18  2  0
 18 13  1  0
  2 19  1  0
  3 20  1  0
  7 21  1  0
  7 22  1  0
  8 23  1  0
  8 24  1  0
  9 25  1  0
 10 26  1  0
 10 27  1  0
 11 28  1  0
 11 29  1  0
 12 30  1  0
 12 31  1  0
 13 32  1  0
 14 33  1  0
 17 34  1  0
M  ISO  8  19  14  20  14  21  13  22  13  23  13  24  13  25   5  26  13
M  ISO  8  27  13  28  13  29  13  30   8  31   8  32  14  33  14  34  14
M  END
>  <minimizedAffinity>  (1) 
-3.96671605

>  <minimizedRMSD>  (1) 
0.507377565

$$$$
