
     RDKit          3D

 28 30  0  0  0  0  0  0  0  0999 V2000
   37.0950   25.8210   42.1630 C   0  0  0  0  0  0  0  0  0  0  0  0
   37.5260   24.5590   42.3750 C   0  0  0  0  0  0  0  0  0  0  0  0
   37.8460   23.7100   41.3810 C   0  0  0  0  0  0  0  0  0  0  0  0
   37.6710   24.3150   40.0640 C   0  0  0  0  0  0  0  0  0  0  0  0
   37.0950   25.9550   40.3880 S   0  0  0  0  0  0  0  0  0  0  0  0
   37.9390   23.6340   38.8120 C   0  0  0  0  0  0  0  0  0  0  0  0
   38.9000   22.6620   38.7100 C   0  0  0  0  0  0  0  0  0  0  0  0
   39.0150   22.1230   37.4370 C   0  0  0  0  0  0  0  0  0  0  0  0
   38.2790   22.4900   36.3860 N   0  0  0  0  0  0  0  0  0  0  0  0
   37.3420   23.4590   36.5480 C   0  0  0  0  0  0  0  0  0  0  0  0
   37.1820   24.0270   37.7790 N   0  0  0  0  0  0  0  0  0  0  0  0
   36.6820   26.9520   43.0010 C   0  0  0  0  0  0  0  0  0  0  0  0
   39.5290   29.4530   42.6410 C   0  0  0  0  0  0  0  0  0  0  0  0
   38.8160   28.2850   43.0020 C   0  0  0  0  0  0  0  0  0  0  0  0
   37.4900   28.1570   42.6510 C   0  0  0  0  0  0  0  0  0  0  0  0
   36.9350   29.1940   41.9590 N   0  0  0  0  0  0  0  0  0  0  0  0
   37.6250   30.2980   41.6230 C   0  0  0  0  0  0  0  0  0  0  0  0
   38.8990   30.4240   41.9580 N   0  0  0  0  0  0  0  0  0  0  0  0
   37.6203   24.2070   43.4129 H   0  0  0  0  0  0  0  0  0  0  0  0
   38.1983   22.6805   41.5421 H   0  0  0  0  0  0  0  0  0  0  0  0
   39.5218   22.3395   39.5582 H   0  0  0  0  0  0  0  0  0  0  0  0
   39.7676   21.3358   37.2826 H   0  0  0  0  0  0  0  0  0  0  0  0
   36.7207   23.7818   35.6996 H   0  0  0  0  0  0  0  0  0  0  0  0
   35.6162   27.1639   42.8303 H   0  0  0  0  0  0  0  0  0  0  0  0
   36.8428   26.6997   44.0595 H   0  0  0  0  0  0  0  0  0  0  0  0
   40.5880   29.5649   42.9166 H   0  0  0  0  0  0  0  0  0  0  0  0
   39.3189   27.4821   43.5610 H   0  0  0  0  0  0  0  0  0  0  0  0
   37.1260   31.1037   41.0646 H   0  0  0  0  0  0  0  0  0  0  0  0
  1  2  2  0
  1 12  1  0
  3  2  1  0
  4  5  1  0
  4  3  2  0
  5  1  1  0
  6  4  1  0
  7  6  2  0
  8  7  1  0
  9 10  1  0
  9  8  2  0
 10 11  2  0
 11  6  1  0
 13 14  2  0
 15 12  1  0
 15 14  1  0
 16 15  2  0
 17 18  2  0
 17 16  1  0
 18 13  1  0
  2 19  1  0
  3 20  1  0
  7 21  1  0
  8 22  1  0
 10 23  1  0
 12 24  1  0
 12 25  1  0
 13 26  1  0
 14 27  1  0
 17 28  1  0
M  ISO  8  19  14  20  14  21  14  22  14  23  14  24   8  25   8  26  14
M  ISO  2  27  14  28  14
M  END
>  <minimizedAffinity>  (1) 
-3.83172441

>  <minimizedRMSD>  (1) 
0.187593237

$$$$
