
     RDKit          3D

 23 24  0  0  0  0  0  0  0  0999 V2000
   36.6940   26.9200   42.9780 C   0  0  0  0  0  0  0  0  0  0  0  0
   39.5300   29.4230   42.6250 C   0  0  0  0  0  0  0  0  0  0  0  0
   38.8170   28.2560   42.9770 C   0  0  0  0  0  0  0  0  0  0  0  0
   37.4850   28.1320   42.6280 C   0  0  0  0  0  0  0  0  0  0  0  0
   36.9220   29.1710   41.9460 N   0  0  0  0  0  0  0  0  0  0  0  0
   37.6250   30.2770   41.6200 C   0  0  0  0  0  0  0  0  0  0  0  0
   38.9030   30.4040   41.9500 N   0  0  0  0  0  0  0  0  0  0  0  0
   37.0970   25.7980   42.1220 C   0  0  0  0  0  0  0  0  0  0  0  0
   37.5260   24.5380   42.3440 C   0  0  0  0  0  0  0  0  0  0  0  0
   37.8360   23.6970   41.3400 C   0  0  0  0  0  0  0  0  0  0  0  0
   37.6560   24.2990   40.0210 C   0  0  0  0  0  0  0  0  0  0  0  0
   37.0850   25.9400   40.3630 S   0  0  0  0  0  0  0  0  0  0  0  0
   37.9300   23.5790   38.7530 C   0  0  0  0  0  0  0  0  0  0  0  0
   36.9390   22.6260   38.6470 F   0  0  0  0  0  0  0  0  0  0  0  0
   39.1670   22.9730   38.8860 F   0  0  0  0  0  0  0  0  0  0  0  0
   37.9970   24.4230   37.6750 F   0  0  0  0  0  0  0  0  0  0  0  0
   36.8736   26.6585   44.0312 H   0  0  0  0  0  0  0  0  0  0  0  0
   35.6248   27.1277   42.8244 H   0  0  0  0  0  0  0  0  0  0  0  0
   40.5896   29.5294   42.9004 H   0  0  0  0  0  0  0  0  0  0  0  0
   39.3202   27.4475   43.5276 H   0  0  0  0  0  0  0  0  0  0  0  0
   37.1274   31.0890   41.0695 H   0  0  0  0  0  0  0  0  0  0  0  0
   37.6258   24.1861   43.3814 H   0  0  0  0  0  0  0  0  0  0  0  0
   38.1874   22.6664   41.4959 H   0  0  0  0  0  0  0  0  0  0  0  0
  2  3  2  0
  4  3  1  0
  4  1  1  0
  5  4  2  0
  6  5  1  0
  6  7  2  0
  7  2  1  0
  8  9  2  0
  8  1  1  0
 10  9  1  0
 11 12  1  0
 11 10  2  0
 12  8  1  0
 13 15  1  0
 13 11  1  0
 14 13  1  0
 16 13  1  0
  1 17  1  0
  1 18  1  0
  2 19  1  0
  3 20  1  0
  6 21  1  0
  9 22  1  0
 10 23  1  0
M  ISO  7  17   8  18   8  19  14  20  14  21  14  22  14  23  14
M  END
>  <minimizedAffinity>  (1) 
-3.76040816

>  <minimizedRMSD>  (1) 
0.211993188

$$$$
