
     RDKit          3D

 34 36  0  0  0  0  0  0  0  0999 V2000
   38.5060   28.2020   40.7230 C   0  0  0  0  0  0  0  0  0  0  0  0
   38.7400   27.8300   42.0850 C   0  0  0  0  0  0  0  0  0  0  0  0
   39.4480   28.7680   42.8010 C   0  0  0  0  0  0  0  0  0  0  0  0
   39.8800   29.9310   42.2650 N   0  0  0  0  0  0  0  0  0  0  0  0
   39.6300   30.2310   40.9740 C   0  0  0  0  0  0  0  0  0  0  0  0
   38.9440   29.3610   40.2170 N   0  0  0  0  0  0  0  0  0  0  0  0
   38.2420   26.5880   42.5400 N   0  0  0  0  0  0  0  0  0  0  0  0
   36.9000   26.3300   42.8570 C   0  0  0  0  0  0  0  0  0  0  0  0
   36.2330   27.3020   43.4200 N   0  0  0  0  0  0  0  0  0  0  0  0
   36.4470   25.0000   42.5080 N   0  0  0  0  0  0  0  0  0  0  0  0
   35.2360   27.1900   43.6720 H   0  0  0  0  0  0  0  0  0  0  0  0
   40.1530   31.5080   40.5410 C   0  0  0  0  0  0  0  0  0  0  0  0
   39.7670   32.7770   40.9060 C   0  0  0  0  0  0  0  0  0  0  0  0
   40.5420   33.7210   40.2450 C   0  0  0  0  0  0  0  0  0  0  0  0
   41.3850   32.9480   39.4880 C   0  0  0  0  0  0  0  0  0  0  0  0
   41.1270   31.6850   39.6890 O   0  0  0  0  0  0  0  0  0  0  0  0
   40.4500   35.1520   40.3550 C   0  0  0  0  0  0  0  0  0  0  0  0
   39.3880   35.9240   39.9290 C   0  0  0  0  0  0  0  0  0  0  0  0
   39.6900   37.2460   40.2160 C   0  0  0  0  0  0  0  0  0  0  0  0
   40.9510   37.2060   40.8160 C   0  0  0  0  0  0  0  0  0  0  0  0
   41.3600   35.9570   40.8780 O   0  0  0  0  0  0  0  0  0  0  0  0
   42.4340   33.4890   38.5780 C   0  0  0  0  0  0  0  0  0  0  0  0
   43.1330   32.4490   37.9630 F   0  0  0  0  0  0  0  0  0  0  0  0
   41.8460   34.2920   37.6310 F   0  0  0  0  0  0  0  0  0  0  0  0
   43.3690   34.1980   39.2920 F   0  0  0  0  0  0  0  0  0  0  0  0
   37.9484   27.5134   40.0712 H   0  0  0  0  0  0  0  0  0  0  0  0
   39.6726   28.5618   43.8579 H   0  0  0  0  0  0  0  0  0  0  0  0
   38.9143   25.8150   42.6468 H   0  0  0  0  0  0  0  0  0  0  0  0
   35.4754   24.7192   42.7030 H   0  0  0  0  0  0  0  0  0  0  0  0
   37.0963   24.3346   42.0647 H   0  0  0  0  0  0  0  0  0  0  0  0
   38.9615   33.0101   41.6180 H   0  0  0  0  0  0  0  0  0  0  0  0
   38.4689   35.5568   39.4489 H   0  0  0  0  0  0  0  0  0  0  0  0
   39.0716   38.1332   40.0151 H   0  0  0  0  0  0  0  0  0  0  0  0
   41.5125   38.0796   41.1788 H   0  0  0  0  0  0  0  0  0  0  0  0
  1  2  2  0
  2  7  1  0
  2  3  1  0
  4  3  2  0
  5  4  1  0
  6  1  1  0
  6  5  2  0
  7  8  1  0
  8  9  2  0
  9 11  1  0
 10  8  1  0
 12 13  2  0
 12  5  1  0
 14 17  1  0
 14 13  1  0
 15 16  1  0
 15 14  2  0
 16 12  1  0
 17 21  1  0
 18 19  1  0
 18 17  2  0
 19 20  2  0
 20 21  1  0
 22 25  1  0
 22 15  1  0
 23 22  1  0
 24 22  1  0
  1 26  1  0
  3 27  1  0
  7 28  1  0
 10 29  1  0
 10 30  1  0
 13 31  1  0
 18 32  1  0
 19 33  1  0
 20 34  1  0
M  ISO  6  26  14  27  14  31  14  32  14  33  14  34  14
M  END
>  <minimizedAffinity>  (1) 
-5.18447971

>  <minimizedRMSD>  (1) 
2.92810917

$$$$
