
     RDKit          3D

 20 21  0  0  0  0  0  0  0  0999 V2000
   41.0670   25.2650   43.1330 C   0  0  0  0  0  0  0  0  0  0  0  0
   39.8750   24.5110   42.9470 C   0  0  0  0  0  0  0  0  0  0  0  0
   38.6930   25.2080   42.6850 C   0  0  0  0  0  0  0  0  0  0  0  0
   38.7520   26.5610   42.6220 N   0  0  0  0  0  0  0  0  0  0  0  0
   39.8800   27.2600   42.7980 C   0  0  0  0  0  0  0  0  0  0  0  0
   41.0400   26.6060   43.0540 N   0  0  0  0  0  0  0  0  0  0  0  0
   39.9790   28.6660   42.7390 N   0  0  0  0  0  0  0  0  0  0  0  0
   41.2160   29.1740   42.6750 N   0  0  0  0  0  0  0  0  0  0  0  0
   41.0890   30.5350   42.6250 C   0  0  0  0  0  0  0  0  0  0  0  0
   39.7440   30.8190   42.6620 C   0  0  0  0  0  0  0  0  0  0  0  0
   39.0520   29.6290   42.7350 C   0  0  0  0  0  0  0  0  0  0  0  0
   37.6430   29.4550   42.7940 C   0  0  0  0  0  0  0  0  0  0  0  0
   36.9200   29.8590   41.8470 O   0  0  0  0  0  0  0  0  0  0  0  0
   36.8020   28.9110   43.7000 O   0  0  0  0  0  0  0  0  0  0  0  0
   42.0150   24.7478   43.3424 H   0  0  0  0  0  0  0  0  0  0  0  0
   39.8838   23.4127   43.0076 H   0  0  0  0  0  0  0  0  0  0  0  0
   37.7427   24.6749   42.5343 H   0  0  0  0  0  0  0  0  0  0  0  0
   41.9092   31.2656   42.5662 H   0  0  0  0  0  0  0  0  0  0  0  0
   39.2969   31.8237   42.6375 H   0  0  0  0  0  0  0  0  0  0  0  0
   35.8275   28.8991   43.5262 H   0  0  0  0  0  0  0  0  0  0  0  0
  2  1  2  0
  3  2  1  0
  4  3  2  0
  4  5  1  0
  5  6  2  0
  6  1  1  0
  7  5  1  0
  8  7  1  0
  9 10  1  0
  9  8  2  0
 10 11  2  0
 11  7  1  0
 11 12  1  0
 12 14  1  0
 13 12  2  0
  1 15  1  0
  2 16  1  0
  3 17  1  0
  9 18  1  0
 10 19  1  0
 14 20  1  0
M  ISO  6  15  14  16  14  17  14  18  14  19  14  20   3
M  END
>  <minimizedAffinity>  (1) 
-4.13909578

>  <minimizedRMSD>  (1) 
4.04473019

$$$$
