
     RDKit          3D

 33 35  0  0  0  0  0  0  0  0999 V2000
   38.2050   27.2110   43.0830 C   0  0  0  0  0  0  0  0  0  0  0  0
   39.2150   26.3910   43.4160 C   0  0  0  0  0  0  0  0  0  0  0  0
   39.4680   25.2470   42.7520 C   0  0  0  0  0  0  0  0  0  0  0  0
   38.5430   25.0230   41.6700 C   0  0  0  0  0  0  0  0  0  0  0  0
   37.4490   26.3880   41.6890 S   0  0  0  0  0  0  0  0  0  0  0  0
   38.5320   23.8880   40.7540 C   0  0  0  0  0  0  0  0  0  0  0  0
   39.3340   23.7460   39.6820 C   0  0  0  0  0  0  0  0  0  0  0  0
   38.9350   22.5110   39.1480 C   0  0  0  0  0  0  0  0  0  0  0  0
   37.9390   21.9760   39.8990 N   0  0  0  0  0  0  0  0  0  0  0  0
   37.6980   22.8360   40.8900 N   0  0  0  0  0  0  0  0  0  0  0  0
   37.6710   28.4880   43.5820 C   0  0  0  0  0  0  0  0  0  0  0  0
   39.7950   31.2470   42.0720 C   0  0  0  0  0  0  0  0  0  0  0  0
   39.3960   30.1760   42.9180 C   0  0  0  0  0  0  0  0  0  0  0  0
   38.1490   29.6100   42.7330 C   0  0  0  0  0  0  0  0  0  0  0  0
   37.3520   30.1050   41.7390 N   0  0  0  0  0  0  0  0  0  0  0  0
   37.7670   31.1340   40.9460 C   0  0  0  0  0  0  0  0  0  0  0  0
   38.9480   31.6800   41.1120 N   0  0  0  0  0  0  0  0  0  0  0  0
   36.7910   31.5800   39.8940 C   0  0  0  0  0  0  0  0  0  0  0  0
   37.2460   32.9160   39.3370 C   0  0  0  0  0  0  0  0  0  0  0  0
   39.8605   26.6643   44.2637 H   0  0  0  0  0  0  0  0  0  0  0  0
   40.2888   24.5605   43.0070 H   0  0  0  0  0  0  0  0  0  0  0  0
   40.1122   24.4310   39.3143 H   0  0  0  0  0  0  0  0  0  0  0  0
   39.3670   22.0441   38.2506 H   0  0  0  0  0  0  0  0  0  0  0  0
   37.4610   21.0784   39.7352 H   0  0  0  0  0  0  0  0  0  0  0  0
   36.5717   28.4566   43.5578 H   0  0  0  0  0  0  0  0  0  0  0  0
   38.0192   28.6444   44.6136 H   0  0  0  0  0  0  0  0  0  0  0  0
   40.7814   31.7175   42.1974 H   0  0  0  0  0  0  0  0  0  0  0  0
   40.0680   29.8046   43.7057 H   0  0  0  0  0  0  0  0  0  0  0  0
   36.7543   30.8357   39.0849 H   0  0  0  0  0  0  0  0  0  0  0  0
   35.7883   31.6817   40.3347 H   0  0  0  0  0  0  0  0  0  0  0  0
   37.4787   33.5992   40.1671 H   0  0  0  0  0  0  0  0  0  0  0  0
   38.1448   32.7691   38.7201 H   0  0  0  0  0  0  0  0  0  0  0  0
   36.4444   33.3482   38.7201 H   0  0  0  0  0  0  0  0  0  0  0  0
  1  2  2  0
  1 11  1  0
  3  2  1  0
  4  5  1  0
  4  3  2  0
  5  1  1  0
  6 10  2  0
  6  4  1  0
  7  6  1  0
  8  7  2  0
  8  9  1  0
  9 10  1  0
 12 13  2  0
 14 13  1  0
 14 11  1  0
 15 14  2  0
 16 17  2  0
 16 15  1  0
 17 12  1  0
 18 16  1  0
 19 18  1  0
  2 20  1  0
  3 21  1  0
  7 22  1  0
  8 23  1  0
  9 24  1  0
 11 25  1  0
 11 26  1  0
 12 27  1  0
 13 28  1  0
 18 29  1  0
 18 30  1  0
 19 31  1  0
 19 32  1  0
 19 33  1  0
M  ISO  8  20  14  21  14  22  14  23  14  24   9  25   8  26   8  27  14
M  ISO  6  28  14  29   8  30   8  31   8  32   8  33   8
M  END
>  <minimizedAffinity>  (1) 
-4.74171495

>  <minimizedRMSD>  (1) 
1.88159084

$$$$
