
     RDKit          3D

 29 31  0  0  0  0  0  0  0  0999 V2000
   36.9060   26.3050   42.2830 C   0  0  0  0  0  0  0  0  0  0  0  0
   37.1000   25.0030   42.5450 C   0  0  0  0  0  0  0  0  0  0  0  0
   37.3910   24.1090   41.5820 C   0  0  0  0  0  0  0  0  0  0  0  0
   37.4650   24.7090   40.2760 C   0  0  0  0  0  0  0  0  0  0  0  0
   37.1290   26.4190   40.5190 S   0  0  0  0  0  0  0  0  0  0  0  0
   37.7560   24.0490   39.0140 C   0  0  0  0  0  0  0  0  0  0  0  0
   38.7610   23.1490   38.8290 C   0  0  0  0  0  0  0  0  0  0  0  0
   38.6480   22.7980   37.4870 C   0  0  0  0  0  0  0  0  0  0  0  0
   37.6120   23.4770   36.9290 N   0  0  0  0  0  0  0  0  0  0  0  0
   37.0690   24.2460   37.8820 N   0  0  0  0  0  0  0  0  0  0  0  0
   36.5830   27.5010   43.0780 C   0  0  0  0  0  0  0  0  0  0  0  0
   39.4510   29.9380   42.5960 C   0  0  0  0  0  0  0  0  0  0  0  0
   38.6980   28.8200   43.0460 C   0  0  0  0  0  0  0  0  0  0  0  0
   37.4040   28.6520   42.6340 C   0  0  0  0  0  0  0  0  0  0  0  0
   36.8790   29.5880   41.7870 N   0  0  0  0  0  0  0  0  0  0  0  0
   37.6050   30.6560   41.3620 C   0  0  0  0  0  0  0  0  0  0  0  0
   38.8490   30.8190   41.7560 N   0  0  0  0  0  0  0  0  0  0  0  0
   36.9590   31.6040   40.4580 C   0  0  0  0  0  0  0  0  0  0  0  0
   37.4170   32.7560   40.2440 O   0  0  0  0  0  0  0  0  0  0  0  0
   37.0182   24.6538   43.5849 H   0  0  0  0  0  0  0  0  0  0  0  0
   37.5543   23.0379   41.7722 H   0  0  0  0  0  0  0  0  0  0  0  0
   39.4909   22.7849   39.5670 H   0  0  0  0  0  0  0  0  0  0  0  0
   39.2964   22.0824   36.9602 H   0  0  0  0  0  0  0  0  0  0  0  0
   37.3002   23.4122   35.9495 H   0  0  0  0  0  0  0  0  0  0  0  0
   35.5179   27.7445   42.9504 H   0  0  0  0  0  0  0  0  0  0  0  0
   36.7988   27.2953   44.1368 H   0  0  0  0  0  0  0  0  0  0  0  0
   40.4921   30.0856   42.9190 H   0  0  0  0  0  0  0  0  0  0  0  0
   39.1564   28.0879   43.7271 H   0  0  0  0  0  0  0  0  0  0  0  0
   36.0356   31.2987   39.9440 H   0  0  0  0  0  0  0  0  0  0  0  0
  1  2  2  0
  1 11  1  0
  3  2  1  0
  4  5  1  0
  4  3  2  0
  5  1  1  0
  6  4  1  0
  7  6  1  0
  8  7  2  0
  9  8  1  0
  9 10  1  0
 10  6  2  0
 12 13  2  0
 14 13  1  0
 14 11  1  0
 15 14  2  0
 16 17  2  0
 16 15  1  0
 17 12  1  0
 18 16  1  0
 19 18  2  0
  2 20  1  0
  3 21  1  0
  7 22  1  0
  8 23  1  0
  9 24  1  0
 11 25  1  0
 11 26  1  0
 12 27  1  0
 13 28  1  0
 18 29  1  0
M  ISO  8  20  14  21  14  22  14  23  14  24   9  25   8  26   8  27  14
M  ISO  2  28  14  29   6
M  END
>  <minimizedAffinity>  (1) 
-4.26925182

>  <minimizedRMSD>  (1) 
0.483158112

$$$$
