
     RDKit          3D

 28 30  0  0  0  0  0  0  0  0999 V2000
   36.9900   26.0330   42.2460 C   0  0  0  0  0  0  0  0  0  0  0  0
   37.3700   24.7790   42.5360 C   0  0  0  0  0  0  0  0  0  0  0  0
   37.6910   23.8880   41.5810 C   0  0  0  0  0  0  0  0  0  0  0  0
   37.5770   24.4320   40.2520 C   0  0  0  0  0  0  0  0  0  0  0  0
   37.0500   26.0840   40.4690 S   0  0  0  0  0  0  0  0  0  0  0  0
   37.8470   23.7440   38.9940 C   0  0  0  0  0  0  0  0  0  0  0  0
   39.0320   23.1880   38.6640 C   0  0  0  0  0  0  0  0  0  0  0  0
   38.7920   22.6620   37.3850 C   0  0  0  0  0  0  0  0  0  0  0  0
   37.5010   22.9190   37.0120 N   0  0  0  0  0  0  0  0  0  0  0  0
   36.9320   23.5910   38.0210 N   0  0  0  0  0  0  0  0  0  0  0  0
   36.5880   27.2110   43.0310 C   0  0  0  0  0  0  0  0  0  0  0  0
   39.4100   29.7290   42.6960 C   0  0  0  0  0  0  0  0  0  0  0  0
   38.6780   28.5840   43.1080 C   0  0  0  0  0  0  0  0  0  0  0  0
   37.3960   28.3910   42.6340 C   0  0  0  0  0  0  0  0  0  0  0  0
   36.8810   29.3240   41.7780 N   0  0  0  0  0  0  0  0  0  0  0  0
   37.5990   30.4150   41.3950 C   0  0  0  0  0  0  0  0  0  0  0  0
   38.8330   30.5980   41.8540 N   0  0  0  0  0  0  0  0  0  0  0  0
   36.8680   31.5990   40.2740 S   0  0  0  0  0  0  0  0  0  0  0  0
   37.4206   24.4694   43.5903 H   0  0  0  0  0  0  0  0  0  0  0  0
   38.0065   22.8555   41.7920 H   0  0  0  0  0  0  0  0  0  0  0  0
   39.9599   23.1552   39.2539 H   0  0  0  0  0  0  0  0  0  0  0  0
   39.5314   22.1236   36.7739 H   0  0  0  0  0  0  0  0  0  0  0  0
   37.0527   22.6477   36.1253 H   0  0  0  0  0  0  0  0  0  0  0  0
   35.5236   27.4220   42.8506 H   0  0  0  0  0  0  0  0  0  0  0  0
   36.7540   27.0048   44.0987 H   0  0  0  0  0  0  0  0  0  0  0  0
   40.4333   29.9000   43.0616 H   0  0  0  0  0  0  0  0  0  0  0  0
   39.1289   27.8568   43.7992 H   0  0  0  0  0  0  0  0  0  0  0  0
   36.2555   32.5911   40.9934 H   0  0  0  0  0  0  0  0  0  0  0  0
  1  2  2  0
  1 11  1  0
  3  2  1  0
  4  5  1  0
  4  3  2  0
  5  1  1  0
  6  4  1  0
  7  6  1  0
  8  7  2  0
  9  8  1  0
  9 10  1  0
 10  6  2  0
 12 13  2  0
 14 11  1  0
 14 13  1  0
 15 14  2  0
 16 15  1  0
 16 17  2  0
 17 12  1  0
 18 16  1  0
  2 19  1  0
  3 20  1  0
  7 21  1  0
  8 22  1  0
  9 23  1  0
 11 24  1  0
 11 25  1  0
 12 26  1  0
 13 27  1  0
 18 28  1  0
M  ISO  8  19  14  20  14  21  14  22  14  23   9  24   8  25   8  26  14
M  ISO  2  27  14  28  11
M  END
>  <minimizedAffinity>  (1) 
-4.13461208

>  <minimizedRMSD>  (1) 
0.10948585

$$$$
