
     RDKit          3D

 30 32  0  0  0  0  0  0  0  0999 V2000
   41.4520   33.1920   39.2550 C   0  0  0  0  0  0  0  0  0  0  0  0
   40.1130   32.7620   39.5230 C   0  0  0  0  0  0  0  0  0  0  0  0
   40.0040   31.4440   39.9130 C   0  0  0  0  0  0  0  0  0  0  0  0
   41.1190   30.6510   40.0180 N   0  0  0  0  0  0  0  0  0  0  0  0
   42.3500   31.1050   39.7550 C   0  0  0  0  0  0  0  0  0  0  0  0
   42.5050   32.3850   39.3720 N   0  0  0  0  0  0  0  0  0  0  0  0
   38.6950   30.9690   40.1900 N   0  0  0  0  0  0  0  0  0  0  0  0
   38.1270   30.8750   41.4040 C   0  0  0  0  0  0  0  0  0  0  0  0
   36.8840   30.3840   41.2840 N   0  0  0  0  0  0  0  0  0  0  0  0
   36.6170   30.1480   39.9670 C   0  0  0  0  0  0  0  0  0  0  0  0
   35.5010   29.6520   39.3090 C   0  0  0  0  0  0  0  0  0  0  0  0
   35.5740   29.5450   37.9790 N   0  0  0  0  0  0  0  0  0  0  0  0
   36.7110   29.9160   37.3340 C   0  0  0  0  0  0  0  0  0  0  0  0
   37.8170   30.4040   37.9490 N   0  0  0  0  0  0  0  0  0  0  0  0
   37.7850   30.5290   39.2970 C   0  0  0  0  0  0  0  0  0  0  0  0
   34.3950   29.3120   40.1400 N   0  0  0  0  0  0  0  0  0  0  0  0
   39.0570   33.6840   39.3740 N   0  0  0  0  0  0  0  0  0  0  0  0
   38.7560   34.7250   40.2820 C   0  0  0  0  0  0  0  0  0  0  0  0
   38.9060   34.4300   41.5550 N   0  0  0  0  0  0  0  0  0  0  0  0
   38.3250   35.9750   39.6930 N   0  0  0  0  0  0  0  0  0  0  0  0
   38.7590   35.1440   42.2860 H   0  0  0  0  0  0  0  0  0  0  0  0
   41.6181   34.2325   38.9392 H   0  0  0  0  0  0  0  0  0  0  0  0
   43.2220   30.4414   39.8506 H   0  0  0  0  0  0  0  0  0  0  0  0
   38.6078   31.1576   42.3521 H   0  0  0  0  0  0  0  0  0  0  0  0
   36.7361   29.8136   36.2391 H   0  0  0  0  0  0  0  0  0  0  0  0
   33.5319   28.9376   39.7209 H   0  0  0  0  0  0  0  0  0  0  0  0
   34.4585   29.4406   41.1600 H   0  0  0  0  0  0  0  0  0  0  0  0
   38.4593   33.5922   38.5402 H   0  0  0  0  0  0  0  0  0  0  0  0
   38.0898   36.7751   40.2975 H   0  0  0  0  0  0  0  0  0  0  0  0
   38.2535   36.0644   38.6694 H   0  0  0  0  0  0  0  0  0  0  0  0
  1  6  2  0
  1  2  1  0
  2  3  2  0
  3  4  1  0
  3  7  1  0
  5  4  2  0
  6  5  1  0
  7  8  1  0
  9  8  2  0
 10  9  1  0
 11 10  2  0
 11 16  1  0
 12 11  1  0
 13 14  1  0
 13 12  2  0
 14 15  2  0
 15 10  1  0
 15  7  1  0
 17  2  1  0
 17 18  1  0
 18 19  2  0
 19 21  1  0
 20 18  1  0
  1 22  1  0
  5 23  1  0
  8 24  1  0
 13 25  1  0
 16 26  1  0
 16 27  1  0
 17 28  1  0
 20 29  1  0
 20 30  1  0
M  ISO  4  22  14  23  14  24  14  25  14
M  END
>  <minimizedAffinity>  (1) 
-5.39087677

>  <minimizedRMSD>  (1) 
4.89166832

$$$$
