
     RDKit          3D

 34 36  0  0  0  0  0  0  0  0999 V2000
   40.3520   31.2880   40.3940 C   0  0  0  0  0  0  0  0  0  0  0  0
   40.0560   32.5500   40.8740 C   0  0  0  0  0  0  0  0  0  0  0  0
   40.8120   33.4920   40.1860 C   0  0  0  0  0  0  0  0  0  0  0  0
   41.5440   32.7350   39.3050 C   0  0  0  0  0  0  0  0  0  0  0  0
   41.2570   31.4750   39.4490 O   0  0  0  0  0  0  0  0  0  0  0  0
   38.7010   27.9720   40.5630 C   0  0  0  0  0  0  0  0  0  0  0  0
   38.8910   27.6220   41.9450 C   0  0  0  0  0  0  0  0  0  0  0  0
   39.5710   28.5740   42.6670 C   0  0  0  0  0  0  0  0  0  0  0  0
   40.0170   29.7250   42.1340 N   0  0  0  0  0  0  0  0  0  0  0  0
   39.8070   30.0050   40.8110 C   0  0  0  0  0  0  0  0  0  0  0  0
   39.1590   29.1320   40.0590 N   0  0  0  0  0  0  0  0  0  0  0  0
   38.3790   26.3850   42.3990 N   0  0  0  0  0  0  0  0  0  0  0  0
   37.0430   26.1450   42.7300 C   0  0  0  0  0  0  0  0  0  0  0  0
   36.3900   27.1370   43.3150 N   0  0  0  0  0  0  0  0  0  0  0  0
   36.5370   24.8470   42.3930 N   0  0  0  0  0  0  0  0  0  0  0  0
   35.4140   27.0470   43.6000 H   0  0  0  0  0  0  0  0  0  0  0  0
   40.7500   34.8850   40.4320 N   0  0  0  0  0  0  0  0  0  0  0  0
   41.5060   35.7760   41.0570 N   0  0  0  0  0  0  0  0  0  0  0  0
   40.9380   37.0030   40.9720 C   0  0  0  0  0  0  0  0  0  0  0  0
   39.7590   36.8590   40.2500 C   0  0  0  0  0  0  0  0  0  0  0  0
   39.6700   35.5030   39.9220 C   0  0  0  0  0  0  0  0  0  0  0  0
   42.5090   33.3150   38.3460 C   0  0  0  0  0  0  0  0  0  0  0  0
   43.1660   32.2900   37.6520 F   0  0  0  0  0  0  0  0  0  0  0  0
   41.8320   34.1140   37.4350 F   0  0  0  0  0  0  0  0  0  0  0  0
   43.4920   34.0330   38.9820 F   0  0  0  0  0  0  0  0  0  0  0  0
   39.3355   32.7737   41.6745 H   0  0  0  0  0  0  0  0  0  0  0  0
   38.1677   27.2735   39.9015 H   0  0  0  0  0  0  0  0  0  0  0  0
   39.7596   28.3846   43.7340 H   0  0  0  0  0  0  0  0  0  0  0  0
   39.0409   25.6014   42.4929 H   0  0  0  0  0  0  0  0  0  0  0  0
   35.5599   24.6032   42.6089 H   0  0  0  0  0  0  0  0  0  0  0  0
   37.1505   24.1581   41.9349 H   0  0  0  0  0  0  0  0  0  0  0  0
   41.3352   37.9376   41.3949 H   0  0  0  0  0  0  0  0  0  0  0  0
   39.0416   37.6512   39.9896 H   0  0  0  0  0  0  0  0  0  0  0  0
   38.8609   35.0265   39.3490 H   0  0  0  0  0  0  0  0  0  0  0  0
  1 10  1  0
  1  2  2  0
  3 17  1  0
  3  2  1  0
  4  5  1  0
  4  3  2  0
  5  1  1  0
  6  7  2  0
  7 12  1  0
  7  8  1  0
  9  8  2  0
 10  9  1  0
 11  6  1  0
 11 10  2  0
 12 13  1  0
 13 14  2  0
 14 16  1  0
 15 13  1  0
 17 18  1  0
 19 18  2  0
 20 19  1  0
 21 20  2  0
 21 17  1  0
 22 25  1  0
 22  4  1  0
 23 22  1  0
 24 22  1  0
  2 26  1  0
  6 27  1  0
  8 28  1  0
 12 29  1  0
 15 30  1  0
 15 31  1  0
 19 32  1  0
 20 33  1  0
 21 34  1  0
M  ISO  6  26  14  27  14  28  14  32  14  33  14  34  14
M  END
>  <minimizedAffinity>  (1) 
-5.14150476

>  <minimizedRMSD>  (1) 
3.22472835

$$$$
