
     RDKit          3D

 27 28  0  0  0  0  0  0  0  0999 V2000
   38.5940   30.0790   42.1610 C   0  0  0  0  0  0  0  0  0  0  0  0
   37.7660   29.8890   41.0140 C   0  0  0  0  0  0  0  0  0  0  0  0
   36.7870   28.9290   41.1740 C   0  0  0  0  0  0  0  0  0  0  0  0
   36.6550   28.2410   42.3480 N   0  0  0  0  0  0  0  0  0  0  0  0
   37.4710   28.4650   43.4040 C   0  0  0  0  0  0  0  0  0  0  0  0
   38.4370   29.3920   43.2890 N   0  0  0  0  0  0  0  0  0  0  0  0
   35.9190   28.6790   40.0740 N   0  0  0  0  0  0  0  0  0  0  0  0
   34.7860   29.2780   39.7300 C   0  0  0  0  0  0  0  0  0  0  0  0
   34.0960   28.8650   38.6050 C   0  0  0  0  0  0  0  0  0  0  0  0
   34.5760   27.8180   37.8140 C   0  0  0  0  0  0  0  0  0  0  0  0
   33.9160   27.4850   36.8080 O   0  0  0  0  0  0  0  0  0  0  0  0
   35.7380   27.2390   38.2050 N   0  0  0  0  0  0  0  0  0  0  0  0
   36.3900   27.6560   39.3030 C   0  0  0  0  0  0  0  0  0  0  0  0
   37.4570   26.9850   39.4990 O   0  0  0  0  0  0  0  0  0  0  0  0
   37.9830   30.6470   39.8490 N   0  0  0  0  0  0  0  0  0  0  0  0
   37.7740   32.0460   39.7580 C   0  0  0  0  0  0  0  0  0  0  0  0
   36.7170   32.5110   40.3890 N   0  0  0  0  0  0  0  0  0  0  0  0
   38.7560   32.7790   38.9810 N   0  0  0  0  0  0  0  0  0  0  0  0
   36.5130   33.5210   40.3930 H   0  0  0  0  0  0  0  0  0  0  0  0
   39.3984   30.8275   42.1097 H   0  0  0  0  0  0  0  0  0  0  0  0
   37.3459   27.8990   44.3389 H   0  0  0  0  0  0  0  0  0  0  0  0
   34.3948   30.1048   40.3410 H   0  0  0  0  0  0  0  0  0  0  0  0
   33.1570   29.3673   38.3292 H   0  0  0  0  0  0  0  0  0  0  0  0
   36.1283   26.4645   37.6494 H   0  0  0  0  0  0  0  0  0  0  0  0
   38.3151   30.1537   39.0080 H   0  0  0  0  0  0  0  0  0  0  0  0
   38.6685   33.7994   38.8713 H   0  0  0  0  0  0  0  0  0  0  0  0
   39.5406   32.2789   38.5392 H   0  0  0  0  0  0  0  0  0  0  0  0
  1  6  2  0
  2  3  2  0
  2  1  1  0
  3  4  1  0
  4  5  2  0
  6  5  1  0
  7  3  1  0
  8  7  1  0
  9  8  2  0
 10 12  1  0
 10  9  1  0
 11 10  2  0
 12 13  1  0
 13 14  2  0
 13  7  1  0
 15  2  1  0
 16 15  1  0
 16 17  2  0
 17 19  1  0
 18 16  1  0
  1 20  1  0
  5 21  1  0
  8 22  1  0
  9 23  1  0
 12 24  1  0
 15 25  1  0
 18 26  1  0
 18 27  1  0
M  ISO  5  20  14  21  14  22  14  23  14  24   9
M  END
>  <minimizedAffinity>  (1) 
-4.87793684

>  <minimizedRMSD>  (1) 
1.65920651

$$$$
