
     RDKit          3D

 26 27  0  0  0  0  0  0  0  0999 V2000
   38.5680   29.1930   42.5280 C   0  0  0  0  0  0  0  0  0  0  0  0
   37.7840   29.1170   41.3300 C   0  0  0  0  0  0  0  0  0  0  0  0
   37.2310   27.8740   41.1040 C   0  0  0  0  0  0  0  0  0  0  0  0
   37.4260   26.8370   41.9520 N   0  0  0  0  0  0  0  0  0  0  0  0
   38.1790   26.9770   43.0700 C   0  0  0  0  0  0  0  0  0  0  0  0
   38.7500   28.1630   43.3540 N   0  0  0  0  0  0  0  0  0  0  0  0
   37.6490   30.2630   40.5170 N   0  0  0  0  0  0  0  0  0  0  0  0
   36.7930   31.3600   40.8130 C   0  0  0  0  0  0  0  0  0  0  0  0
   35.6240   31.0400   41.3240 N   0  0  0  0  0  0  0  0  0  0  0  0
   37.3110   32.6610   40.5160 N   0  0  0  0  0  0  0  0  0  0  0  0
   34.9400   31.7710   41.5790 H   0  0  0  0  0  0  0  0  0  0  0  0
   36.4220   27.7340   39.8980 C   0  0  0  0  0  0  0  0  0  0  0  0
   36.6960   26.7430   38.9780 C   0  0  0  0  0  0  0  0  0  0  0  0
   35.9760   26.5460   37.8140 C   0  0  0  0  0  0  0  0  0  0  0  0
   34.9230   27.4380   37.6190 C   0  0  0  0  0  0  0  0  0  0  0  0
   34.6640   28.4290   38.5590 C   0  0  0  0  0  0  0  0  0  0  0  0
   35.4130   28.5670   39.6860 N   0  0  0  0  0  0  0  0  0  0  0  0
   39.0445   30.1522   42.7787 H   0  0  0  0  0  0  0  0  0  0  0  0
   38.3239   26.1213   43.7459 H   0  0  0  0  0  0  0  0  0  0  0  0
   38.2071   30.3079   39.6524 H   0  0  0  0  0  0  0  0  0  0  0  0
   36.7416   33.4979   40.7065 H   0  0  0  0  0  0  0  0  0  0  0  0
   38.2532   32.7603   40.1118 H   0  0  0  0  0  0  0  0  0  0  0  0
   37.5397   26.0676   39.1832 H   0  0  0  0  0  0  0  0  0  0  0  0
   36.2158   25.7469   37.0972 H   0  0  0  0  0  0  0  0  0  0  0  0
   34.2954   27.3577   36.7192 H   0  0  0  0  0  0  0  0  0  0  0  0
   33.8279   29.1226   38.3861 H   0  0  0  0  0  0  0  0  0  0  0  0
  1  6  2  0
  2  1  1  0
  3  2  2  0
  3  4  1  0
  4  5  2  0
  5  6  1  0
  7  8  1  0
  7  2  1  0
  8  9  2  0
  9 11  1  0
 10  8  1  0
 12  3  1  0
 13 12  2  0
 14 13  1  0
 15 14  2  0
 15 16  1  0
 16 17  2  0
 17 12  1  0
  1 18  1  0
  5 19  1  0
  7 20  1  0
 10 21  1  0
 10 22  1  0
 13 23  1  0
 14 24  1  0
 15 25  1  0
 16 26  1  0
M  ISO  6  18  14  19  14  23  14  24  14  25  14  26  14
M  END
>  <minimizedAffinity>  (1) 
-4.84195471

>  <minimizedRMSD>  (1) 
0.832457602

$$$$
