
     RDKit          3D

 25 26  0  0  0  0  0  0  0  0999 V2000
   38.5670   29.2180   42.5590 C   0  0  0  0  0  0  0  0  0  0  0  0
   37.8110   29.1390   41.3530 C   0  0  0  0  0  0  0  0  0  0  0  0
   37.2760   27.8930   41.1030 C   0  0  0  0  0  0  0  0  0  0  0  0
   37.4610   26.8430   41.9400 N   0  0  0  0  0  0  0  0  0  0  0  0
   38.1910   26.9790   43.0750 C   0  0  0  0  0  0  0  0  0  0  0  0
   38.7360   28.1710   43.3680 N   0  0  0  0  0  0  0  0  0  0  0  0
   37.6670   30.2800   40.5380 N   0  0  0  0  0  0  0  0  0  0  0  0
   36.7890   31.3600   40.8180 C   0  0  0  0  0  0  0  0  0  0  0  0
   35.6200   31.0300   41.3200 N   0  0  0  0  0  0  0  0  0  0  0  0
   37.3000   32.6780   40.5120 N   0  0  0  0  0  0  0  0  0  0  0  0
   34.9120   31.7420   41.5430 H   0  0  0  0  0  0  0  0  0  0  0  0
   36.4880   27.7350   39.8850 C   0  0  0  0  0  0  0  0  0  0  0  0
   36.8310   26.7480   38.9740 C   0  0  0  0  0  0  0  0  0  0  0  0
   36.0250   26.6940   37.8740 C   0  0  0  0  0  0  0  0  0  0  0  0
   34.9770   27.4960   37.6330 N   0  0  0  0  0  0  0  0  0  0  0  0
   34.6800   28.4530   38.5620 C   0  0  0  0  0  0  0  0  0  0  0  0
   35.4490   28.5490   39.6720 N   0  0  0  0  0  0  0  0  0  0  0  0
   39.0283   30.1784   42.8327 H   0  0  0  0  0  0  0  0  0  0  0  0
   38.3352   26.1216   43.7488 H   0  0  0  0  0  0  0  0  0  0  0  0
   38.2370   30.3339   39.6818 H   0  0  0  0  0  0  0  0  0  0  0  0
   36.7186   33.5096   40.6889 H   0  0  0  0  0  0  0  0  0  0  0  0
   38.2453   32.7850   40.1172 H   0  0  0  0  0  0  0  0  0  0  0  0
   37.6808   26.0661   39.1249 H   0  0  0  0  0  0  0  0  0  0  0  0
   36.2545   25.9267   37.1200 H   0  0  0  0  0  0  0  0  0  0  0  0
   33.8298   29.1344   38.4104 H   0  0  0  0  0  0  0  0  0  0  0  0
  1  6  2  0
  2  1  1  0
  3  2  2  0
  3  4  1  0
  4  5  2  0
  5  6  1  0
  7  8  1  0
  7  2  1  0
  8  9  2  0
  9 11  1  0
 10  8  1  0
 12  3  1  0
 13 12  2  0
 14 13  1  0
 15 14  2  0
 15 16  1  0
 16 17  2  0
 17 12  1  0
  1 18  1  0
  5 19  1  0
  7 20  1  0
 10 21  1  0
 10 22  1  0
 13 23  1  0
 14 24  1  0
 16 25  1  0
M  ISO  5  18  14  19  14  23  14  24  14  25  14
M  END
>  <minimizedAffinity>  (1) 
-4.74282646

>  <minimizedRMSD>  (1) 
0.6887995

$$$$
