
     RDKit          3D

 25 26  0  0  0  0  0  0  0  0999 V2000
   38.5600   29.2170   42.5550 C   0  0  0  0  0  0  0  0  0  0  0  0
   37.8040   29.1380   41.3440 C   0  0  0  0  0  0  0  0  0  0  0  0
   37.2750   27.8870   41.0980 C   0  0  0  0  0  0  0  0  0  0  0  0
   37.4630   26.8430   41.9380 N   0  0  0  0  0  0  0  0  0  0  0  0
   38.1910   26.9800   43.0730 C   0  0  0  0  0  0  0  0  0  0  0  0
   38.7340   28.1780   43.3670 N   0  0  0  0  0  0  0  0  0  0  0  0
   37.6640   30.2820   40.5350 N   0  0  0  0  0  0  0  0  0  0  0  0
   36.7910   31.3720   40.8160 C   0  0  0  0  0  0  0  0  0  0  0  0
   35.6210   31.0320   41.3120 N   0  0  0  0  0  0  0  0  0  0  0  0
   37.3100   32.6750   40.5230 N   0  0  0  0  0  0  0  0  0  0  0  0
   34.9180   31.7580   41.5460 H   0  0  0  0  0  0  0  0  0  0  0  0
   36.4910   27.7330   39.8780 C   0  0  0  0  0  0  0  0  0  0  0  0
   36.7690   26.7910   38.9070 C   0  0  0  0  0  0  0  0  0  0  0  0
   35.9800   26.7070   37.7780 C   0  0  0  0  0  0  0  0  0  0  0  0
   34.9250   27.5570   37.6220 N   0  0  0  0  0  0  0  0  0  0  0  0
   34.6690   28.4580   38.5620 C   0  0  0  0  0  0  0  0  0  0  0  0
   35.4400   28.5510   39.6820 N   0  0  0  0  0  0  0  0  0  0  0  0
   39.0179   30.1794   42.8271 H   0  0  0  0  0  0  0  0  0  0  0  0
   38.3371   26.1229   43.7468 H   0  0  0  0  0  0  0  0  0  0  0  0
   38.2338   30.3344   39.6785 H   0  0  0  0  0  0  0  0  0  0  0  0
   36.7345   33.5105   40.7007 H   0  0  0  0  0  0  0  0  0  0  0  0
   38.2586   32.7762   40.1347 H   0  0  0  0  0  0  0  0  0  0  0  0
   37.6208   26.1066   39.0338 H   0  0  0  0  0  0  0  0  0  0  0  0
   36.2016   25.9560   37.0054 H   0  0  0  0  0  0  0  0  0  0  0  0
   33.8179   29.1432   38.4348 H   0  0  0  0  0  0  0  0  0  0  0  0
  1  6  2  0
  2  1  1  0
  3  2  2  0
  3  4  1  0
  4  5  2  0
  5  6  1  0
  7  8  1  0
  7  2  1  0
  8  9  2  0
  9 11  1  0
 10  8  1  0
 12  3  1  0
 13 12  2  0
 14 13  1  0
 15 14  2  0
 15 16  1  0
 16 17  2  0
 17 12  1  0
  1 18  1  0
  5 19  1  0
  7 20  1  0
 10 21  1  0
 10 22  1  0
 13 23  1  0
 14 24  1  0
 16 25  1  0
M  ISO  5  18  14  19  14  23  14  24  14  25  14
M  END
>  <minimizedAffinity>  (1) 
-4.73700476

>  <minimizedRMSD>  (1) 
0.562342823

$$$$
