
     RDKit          3D

 24 25  0  0  0  0  0  0  0  0999 V2000
   38.6310   29.3140   42.5700 C   0  0  0  0  0  0  0  0  0  0  0  0
   37.9060   29.1880   41.3480 C   0  0  0  0  0  0  0  0  0  0  0  0
   37.4540   27.9090   41.0930 C   0  0  0  0  0  0  0  0  0  0  0  0
   37.6960   26.8880   41.9480 N   0  0  0  0  0  0  0  0  0  0  0  0
   38.3880   27.0680   43.0880 C   0  0  0  0  0  0  0  0  0  0  0  0
   38.8550   28.2890   43.3950 N   0  0  0  0  0  0  0  0  0  0  0  0
   37.7130   30.3220   40.5310 N   0  0  0  0  0  0  0  0  0  0  0  0
   36.7740   31.3530   40.7950 C   0  0  0  0  0  0  0  0  0  0  0  0
   35.6160   30.9630   41.2820 N   0  0  0  0  0  0  0  0  0  0  0  0
   37.2150   32.7020   40.4930 N   0  0  0  0  0  0  0  0  0  0  0  0
   34.8790   31.6440   41.5140 H   0  0  0  0  0  0  0  0  0  0  0  0
   36.7230   27.7150   39.8870 N   0  0  0  0  0  0  0  0  0  0  0  0
   35.6050   28.2970   39.5730 N   0  0  0  0  0  0  0  0  0  0  0  0
   35.1730   27.8870   38.3490 C   0  0  0  0  0  0  0  0  0  0  0  0
   36.1430   26.9760   37.9160 C   0  0  0  0  0  0  0  0  0  0  0  0
   37.1110   26.8790   38.8940 C   0  0  0  0  0  0  0  0  0  0  0  0
   39.0244   30.3036   42.8457 H   0  0  0  0  0  0  0  0  0  0  0  0
   38.5700   26.2199   43.7644 H   0  0  0  0  0  0  0  0  0  0  0  0
   38.2936   30.4075   39.6846 H   0  0  0  0  0  0  0  0  0  0  0  0
   36.5847   33.4994   40.6600 H   0  0  0  0  0  0  0  0  0  0  0  0
   38.1583   32.8622   40.1117 H   0  0  0  0  0  0  0  0  0  0  0  0
   34.2628   28.2021   37.8178 H   0  0  0  0  0  0  0  0  0  0  0  0
   36.1350   26.4312   36.9604 H   0  0  0  0  0  0  0  0  0  0  0  0
   38.0138   26.2510   38.8721 H   0  0  0  0  0  0  0  0  0  0  0  0
  1  6  2  0
  2  1  1  0
  3  2  2  0
  3  4  1  0
  4  5  2  0
  5  6  1  0
  7  8  1  0
  7  2  1  0
  8  9  2  0
  9 11  1  0
 10  8  1  0
 12  3  1  0
 13 12  1  0
 14 13  2  0
 15 14  1  0
 15 16  2  0
 16 12  1  0
  1 17  1  0
  5 18  1  0
  7 19  1  0
 10 20  1  0
 10 21  1  0
 14 22  1  0
 15 23  1  0
 16 24  1  0
M  ISO  5  17  14  18  14  22  14  23  14  24  14
M  END
>  <minimizedAffinity>  (1) 
-4.57599783

>  <minimizedRMSD>  (1) 
0.146757767

$$$$
