
     RDKit          3D

 29 30  0  0  0  0  0  0  0  0999 V2000
   38.4240   29.3880   42.7290 C   0  0  0  0  0  0  0  0  0  0  0  0
   37.9380   29.2290   41.3980 C   0  0  0  0  0  0  0  0  0  0  0  0
   37.6920   27.9220   41.0500 C   0  0  0  0  0  0  0  0  0  0  0  0
   37.9050   26.9030   41.9190 N   0  0  0  0  0  0  0  0  0  0  0  0
   38.3610   27.1050   43.1550 C   0  0  0  0  0  0  0  0  0  0  0  0
   38.6160   28.3570   43.5440 N   0  0  0  0  0  0  0  0  0  0  0  0
   37.7490   30.3460   40.5640 N   0  0  0  0  0  0  0  0  0  0  0  0
   36.7640   31.3550   40.7820 C   0  0  0  0  0  0  0  0  0  0  0  0
   35.5930   30.9120   41.1900 N   0  0  0  0  0  0  0  0  0  0  0  0
   37.1720   32.7200   40.5290 N   0  0  0  0  0  0  0  0  0  0  0  0
   34.8080   31.5560   41.3540 H   0  0  0  0  0  0  0  0  0  0  0  0
   37.2030   27.6210   39.7530 N   0  0  0  0  0  0  0  0  0  0  0  0
   38.0510   27.1940   38.6250 C   0  0  0  0  0  0  0  0  0  0  0  0
   37.4590   25.8260   38.3200 C   0  0  0  0  0  0  0  0  0  0  0  0
   35.9740   26.1380   38.4950 C   0  0  0  0  0  0  0  0  0  0  0  0
   35.9600   27.5770   39.0250 C   0  0  0  0  0  0  0  0  0  0  0  0
   38.6480   30.4012   43.0940 H   0  0  0  0  0  0  0  0  0  0  0  0
   38.5237   26.2594   43.8395 H   0  0  0  0  0  0  0  0  0  0  0  0
   38.3620   30.4418   39.7419 H   0  0  0  0  0  0  0  0  0  0  0  0
   36.5041   33.4915   40.6689 H   0  0  0  0  0  0  0  0  0  0  0  0
   38.1304   32.9202   40.2090 H   0  0  0  0  0  0  0  0  0  0  0  0
   37.9560   27.8759   37.7671 H   0  0  0  0  0  0  0  0  0  0  0  0
   39.1286   27.1833   38.8458 H   0  0  0  0  0  0  0  0  0  0  0  0
   37.8033   25.0633   39.0339 H   0  0  0  0  0  0  0  0  0  0  0  0
   37.7336   25.4091   37.3398 H   0  0  0  0  0  0  0  0  0  0  0  0
   35.4437   26.0697   37.5337 H   0  0  0  0  0  0  0  0  0  0  0  0
   35.4687   25.4320   39.1704 H   0  0  0  0  0  0  0  0  0  0  0  0
   35.9481   28.3087   38.2037 H   0  0  0  0  0  0  0  0  0  0  0  0
   35.0749   27.8265   39.6287 H   0  0  0  0  0  0  0  0  0  0  0  0
  1  6  2  0
  2  1  1  0
  3  2  2  0
  3  4  1  0
  4  5  2  0
  5  6  1  0
  7  8  1  0
  7  2  1  0
  8  9  2  0
  9 11  1  0
 10  8  1  0
 12  3  1  0
 13 12  1  0
 14 15  1  0
 14 13  1  0
 15 16  1  0
 16 12  1  0
  1 17  1  0
  5 18  1  0
  7 19  1  0
 10 20  1  0
 10 21  1  0
 13 22  1  0
 13 23  1  0
 14 24  1  0
 14 25  1  0
 15 26  1  0
 15 27  1  0
 16 28  1  0
 16 29  1  0
M  ISO  8  17  14  18  14  22  13  23  13  24  13  25  13  26  13  27  13
M  ISO  2  28  13  29  13
M  END
>  <minimizedAffinity>  (1) 
-4.52067614

>  <minimizedRMSD>  (1) 
0.813754439

$$$$
