
     RDKit          3D

 24 25  0  0  0  0  0  0  0  0999 V2000
   38.5550   29.3600   42.6090 C   0  0  0  0  0  0  0  0  0  0  0  0
   37.9040   29.2140   41.3620 C   0  0  0  0  0  0  0  0  0  0  0  0
   37.5210   27.9230   41.0810 C   0  0  0  0  0  0  0  0  0  0  0  0
   37.7560   26.8990   41.9320 N   0  0  0  0  0  0  0  0  0  0  0  0
   38.3860   27.1020   43.1160 C   0  0  0  0  0  0  0  0  0  0  0  0
   38.7870   28.3430   43.4530 N   0  0  0  0  0  0  0  0  0  0  0  0
   37.7160   30.3470   40.5520 N   0  0  0  0  0  0  0  0  0  0  0  0
   36.7600   31.3670   40.7960 C   0  0  0  0  0  0  0  0  0  0  0  0
   35.6190   30.9740   41.2660 N   0  0  0  0  0  0  0  0  0  0  0  0
   37.1950   32.7170   40.4860 N   0  0  0  0  0  0  0  0  0  0  0  0
   34.8630   31.6450   41.5150 H   0  0  0  0  0  0  0  0  0  0  0  0
   36.8390   27.6320   39.8320 C   0  0  0  0  0  0  0  0  0  0  0  0
   35.6340   27.9510   39.2570 C   0  0  0  0  0  0  0  0  0  0  0  0
   35.4900   27.4050   38.0530 N   0  0  0  0  0  0  0  0  0  0  0  0
   36.6040   26.7040   37.7980 C   0  0  0  0  0  0  0  0  0  0  0  0
   37.3990   26.8560   38.8820 N   0  0  0  0  0  0  0  0  0  0  0  0
   38.8905   30.3652   42.9040 H   0  0  0  0  0  0  0  0  0  0  0  0
   38.5684   26.2578   43.7972 H   0  0  0  0  0  0  0  0  0  0  0  0
   38.3160   30.4441   39.7204 H   0  0  0  0  0  0  0  0  0  0  0  0
   36.5566   33.5111   40.6366 H   0  0  0  0  0  0  0  0  0  0  0  0
   38.1420   32.8806   40.1155 H   0  0  0  0  0  0  0  0  0  0  0  0
   34.8745   28.5856   39.7371 H   0  0  0  0  0  0  0  0  0  0  0  0
   36.8266   26.1229   36.8909 H   0  0  0  0  0  0  0  0  0  0  0  0
   38.3306   26.4258   38.9719 H   0  0  0  0  0  0  0  0  0  0  0  0
  1  6  2  0
  2  1  1  0
  3  2  2  0
  3  4  1  0
  4  5  2  0
  5  6  1  0
  7  8  1  0
  7  2  1  0
  8  9  2  0
  9 11  1  0
 10  8  1  0
 12  3  1  0
 13 12  2  0
 14 13  1  0
 15 14  2  0
 15 16  1  0
 16 12  1  0
  1 17  1  0
  5 18  1  0
  7 19  1  0
 10 20  1  0
 10 21  1  0
 13 22  1  0
 15 23  1  0
 16 24  1  0
M  ISO  5  17  14  18  14  22  14  23  14  24   9
M  END
>  <minimizedAffinity>  (1) 
-4.45308399

>  <minimizedRMSD>  (1) 
0.47493127

$$$$
