
     RDKit          3D

 24 25  0  0  0  0  0  0  0  0999 V2000
   38.2970   29.4010   42.7870 C   0  0  0  0  0  0  0  0  0  0  0  0
   37.9250   29.2330   41.4170 C   0  0  0  0  0  0  0  0  0  0  0  0
   37.7490   27.9220   41.0300 C   0  0  0  0  0  0  0  0  0  0  0  0
   37.9210   26.8890   41.8960 N   0  0  0  0  0  0  0  0  0  0  0  0
   38.2750   27.1020   43.1870 C   0  0  0  0  0  0  0  0  0  0  0  0
   38.4580   28.3570   43.6150 N   0  0  0  0  0  0  0  0  0  0  0  0
   37.7720   30.3740   40.6020 N   0  0  0  0  0  0  0  0  0  0  0  0
   36.7720   31.3730   40.7840 C   0  0  0  0  0  0  0  0  0  0  0  0
   35.5920   30.9240   41.1540 N   0  0  0  0  0  0  0  0  0  0  0  0
   37.1830   32.7330   40.5400 N   0  0  0  0  0  0  0  0  0  0  0  0
   34.8010   31.5680   41.3040 H   0  0  0  0  0  0  0  0  0  0  0  0
   37.3660   27.6770   39.6360 C   0  0  0  0  0  0  0  0  0  0  0  0
   36.6190   26.4140   39.4070 C   0  0  0  0  0  0  0  0  0  0  0  0
   35.9240   27.7340   39.2240 C   0  0  0  0  0  0  0  0  0  0  0  0
   38.4563   30.4180   43.1748 H   0  0  0  0  0  0  0  0  0  0  0  0
   38.4102   26.2540   43.8744 H   0  0  0  0  0  0  0  0  0  0  0  0
   38.4304   30.4938   39.8190 H   0  0  0  0  0  0  0  0  0  0  0  0
   36.5085   33.5031   40.6536 H   0  0  0  0  0  0  0  0  0  0  0  0
   38.1512   32.9346   40.2521 H   0  0  0  0  0  0  0  0  0  0  0  0
   38.2713   28.1628   39.2431 H   0  0  0  0  0  0  0  0  0  0  0  0
   36.8512   25.7896   38.5317 H   0  0  0  0  0  0  0  0  0  0  0  0
   36.4230   25.5096   40.0016 H   0  0  0  0  0  0  0  0  0  0  0  0
   35.6512   28.0791   38.2158 H   0  0  0  0  0  0  0  0  0  0  0  0
   35.0133   28.2009   39.6272 H   0  0  0  0  0  0  0  0  0  0  0  0
  1  6  2  0
  2  1  1  0
  3  2  2  0
  3  4  1  0
  4  5  2  0
  5  6  1  0
  7  8  1  0
  7  2  1  0
  8  9  2  0
  9 11  1  0
 10  8  1  0
 12  3  1  0
 13 12  1  0
 14 13  1  0
 14 12  1  0
  1 15  1  0
  5 16  1  0
  7 17  1  0
 10 18  1  0
 10 19  1  0
 12 20  1  0
 13 21  1  0
 13 22  1  0
 14 23  1  0
 14 24  1  0
M  ISO  7  15  14  16  14  20  13  21  13  22  13  23  13  24  13
M  END
>  <minimizedAffinity>  (1) 
-4.41858435

>  <minimizedRMSD>  (1) 
0.832092762

$$$$
