
     RDKit          3D

 24 25  0  0  0  0  0  0  0  0999 V2000
   38.7150   29.5290   42.5140 C   0  0  0  0  0  0  0  0  0  0  0  0
   38.0490   29.3220   41.2650 C   0  0  0  0  0  0  0  0  0  0  0  0
   37.7670   28.0000   40.9880 C   0  0  0  0  0  0  0  0  0  0  0  0
   38.1070   27.0050   41.8450 N   0  0  0  0  0  0  0  0  0  0  0  0
   38.7330   27.2480   43.0100 C   0  0  0  0  0  0  0  0  0  0  0  0
   39.0270   28.5160   43.3230 N   0  0  0  0  0  0  0  0  0  0  0  0
   37.7410   30.4310   40.4460 N   0  0  0  0  0  0  0  0  0  0  0  0
   36.7480   31.3960   40.7500 C   0  0  0  0  0  0  0  0  0  0  0  0
   35.6420   30.9320   41.2910 N   0  0  0  0  0  0  0  0  0  0  0  0
   37.0860   32.7690   40.4250 N   0  0  0  0  0  0  0  0  0  0  0  0
   34.8740   31.5680   41.5540 H   0  0  0  0  0  0  0  0  0  0  0  0
   37.1030   27.7380   39.7540 N   0  0  0  0  0  0  0  0  0  0  0  0
   37.8080   27.2860   38.6780 C   0  0  0  0  0  0  0  0  0  0  0  0
   36.9090   27.1260   37.6450 C   0  0  0  0  0  0  0  0  0  0  0  0
   35.7020   27.4710   38.0860 N   0  0  0  0  0  0  0  0  0  0  0  0
   35.8020   27.8460   39.3680 C   0  0  0  0  0  0  0  0  0  0  0  0
   38.9774   30.5537   42.8158 H   0  0  0  0  0  0  0  0  0  0  0  0
   38.9972   26.4245   43.6897 H   0  0  0  0  0  0  0  0  0  0  0  0
   38.2724   30.5459   39.5712 H   0  0  0  0  0  0  0  0  0  0  0  0
   36.4130   33.5245   40.6178 H   0  0  0  0  0  0  0  0  0  0  0  0
   37.9989   32.9882   40.0015 H   0  0  0  0  0  0  0  0  0  0  0  0
   38.8892   27.0868   38.6411 H   0  0  0  0  0  0  0  0  0  0  0  0
   37.1484   26.7737   36.6308 H   0  0  0  0  0  0  0  0  0  0  0  0
   34.9707   28.1850   40.0036 H   0  0  0  0  0  0  0  0  0  0  0  0
  1  6  2  0
  2  1  1  0
  3  2  2  0
  3  4  1  0
  4  5  2  0
  5  6  1  0
  7  8  1  0
  7  2  1  0
  8  9  2  0
  9 11  1  0
 10  8  1  0
 12  3  1  0
 13 12  1  0
 14 15  1  0
 14 13  2  0
 15 16  2  0
 16 12  1  0
  1 17  1  0
  5 18  1  0
  7 19  1  0
 10 20  1  0
 10 21  1  0
 13 22  1  0
 14 23  1  0
 16 24  1  0
M  ISO  5  17  14  18  14  22  14  23  14  24  14
M  END
>  <minimizedAffinity>  (1) 
-4.4162674

>  <minimizedRMSD>  (1) 
0.72582382

$$$$
