
     RDKit          3D

 23 23  0  0  0  0  0  0  0  0999 V2000
   38.7090   29.2810   42.4930 C   0  0  0  0  0  0  0  0  0  0  0  0
   37.8760   29.1580   41.3590 C   0  0  0  0  0  0  0  0  0  0  0  0
   37.3380   27.9000   41.2060 C   0  0  0  0  0  0  0  0  0  0  0  0
   37.6000   26.8780   42.0850 N   0  0  0  0  0  0  0  0  0  0  0  0
   38.4100   27.0770   43.1490 C   0  0  0  0  0  0  0  0  0  0  0  0
   38.9640   28.2920   43.3440 N   0  0  0  0  0  0  0  0  0  0  0  0
   37.6310   30.2300   40.4810 N   0  0  0  0  0  0  0  0  0  0  0  0
   36.7400   31.3060   40.7730 C   0  0  0  0  0  0  0  0  0  0  0  0
   35.6030   30.9510   41.3360 N   0  0  0  0  0  0  0  0  0  0  0  0
   37.1750   32.6490   40.4290 N   0  0  0  0  0  0  0  0  0  0  0  0
   34.8940   31.6500   41.5980 H   0  0  0  0  0  0  0  0  0  0  0  0
   36.4400   27.5890   40.0620 C   0  0  0  0  0  0  0  0  0  0  0  0
   36.5790   26.1540   39.6110 C   0  0  0  0  0  0  0  0  0  0  0  0
   39.1768   30.2580   42.6843 H   0  0  0  0  0  0  0  0  0  0  0  0
   38.6159   26.2549   43.8503 H   0  0  0  0  0  0  0  0  0  0  0  0
   38.1227   30.2386   39.5760 H   0  0  0  0  0  0  0  0  0  0  0  0
   36.5625   33.4542   40.6227 H   0  0  0  0  0  0  0  0  0  0  0  0
   38.0958   32.7959   39.9915 H   0  0  0  0  0  0  0  0  0  0  0  0
   35.3986   27.7661   40.3689 H   0  0  0  0  0  0  0  0  0  0  0  0
   36.7215   28.2396   39.2209 H   0  0  0  0  0  0  0  0  0  0  0  0
   36.6426   25.4975   40.4913 H   0  0  0  0  0  0  0  0  0  0  0  0
   35.7039   25.8732   39.0066 H   0  0  0  0  0  0  0  0  0  0  0  0
   37.4918   26.0464   39.0066 H   0  0  0  0  0  0  0  0  0  0  0  0
  1  6  2  0
  2  1  1  0
  3  2  2  0
  3  4  1  0
  4  5  2  0
  5  6  1  0
  7  8  1  0
  7  2  1  0
  8  9  2  0
  9 11  1  0
 10  8  1  0
 12  3  1  0
 13 12  1  0
  1 14  1  0
  5 15  1  0
  7 16  1  0
 10 17  1  0
 10 18  1  0
 12 19  1  0
 12 20  1  0
 13 21  1  0
 13 22  1  0
 13 23  1  0
M  ISO  7  14  14  15  14  19   8  20   8  21   8  22   8  23   8
M  END
>  <minimizedAffinity>  (1) 
-4.2851367

>  <minimizedRMSD>  (1) 
0.622975051

$$$$
