
     RDKit          3D

 46 49  0  0  1  0  0  0  0  0999 V2000
   37.5620   26.8640   40.9280 C   0  0  2  0  0  0  0  0  0  0  0  0
   37.3450   25.6620   41.8110 C   0  0  0  0  0  0  0  0  0  0  0  0
   36.4300   24.8200   40.9440 C   0  0  0  0  0  0  0  0  0  0  0  0
   36.7650   25.1700   39.5450 C   0  0  0  0  0  0  0  0  0  0  0  0
   37.9550   26.1800   39.6340 C   0  0  1  0  0  0  0  0  0  0  0  0
   37.7970   26.8970   38.3880 C   0  0  0  0  0  0  0  0  0  0  0  0
   38.8740   26.8430   37.4880 C   0  0  0  0  0  0  0  0  0  0  0  0
   38.8330   27.5330   36.2930 C   0  0  0  0  0  0  0  0  0  0  0  0
   37.7500   28.3000   35.9280 C   0  0  0  0  0  0  0  0  0  0  0  0
   36.6760   28.3750   36.7910 C   0  0  0  0  0  0  0  0  0  0  0  0
   35.5440   29.1170   36.5170 C   0  0  0  0  0  0  0  0  0  0  0  0
   34.4570   29.1990   37.3770 C   0  0  0  0  0  0  0  0  0  0  0  0
   34.5230   28.4900   38.5810 C   0  0  0  0  0  0  0  0  0  0  0  0
   35.6640   27.7580   38.8300 C   0  0  0  0  0  0  0  0  0  0  0  0
   36.7420   27.6760   37.9770 C   0  0  0  0  0  0  0  0  0  0  0  0
   39.5430   29.7940   42.1560 C   0  0  0  0  0  0  0  0  0  0  0  0
   38.5780   29.0980   41.3310 C   0  0  0  0  0  0  0  0  0  0  0  0
   38.5210   27.7530   41.5020 C   0  0  0  0  0  0  0  0  0  0  0  0
   39.3720   27.1630   42.4260 N   0  0  0  0  0  0  0  0  0  0  0  0
   40.2430   27.8460   43.1630 C   0  0  0  0  0  0  0  0  0  0  0  0
   40.3290   29.1790   43.0240 N   0  0  0  0  0  0  0  0  0  0  0  0
   37.8400   29.8390   40.4080 N   0  0  0  0  0  0  0  0  0  0  0  0
   36.7540   30.7020   40.7540 C   0  0  0  0  0  0  0  0  0  0  0  0
   36.0110   30.3320   41.7510 N   0  0  0  0  0  0  0  0  0  0  0  0
   36.6200   31.9120   39.9520 N   0  0  0  0  0  0  0  0  0  0  0  0
   35.2160   30.8990   42.0750 H   0  0  0  0  0  0  0  0  0  0  0  0
   36.7089   27.5431   40.7828 H   0  0  0  0  0  0  0  0  0  0  0  0
   38.2907   25.1416   42.0229 H   0  0  0  0  0  0  0  0  0  0  0  0
   36.9337   25.8995   42.8032 H   0  0  0  0  0  0  0  0  0  0  0  0
   36.6092   23.7498   41.1245 H   0  0  0  0  0  0  0  0  0  0  0  0
   35.3703   25.0132   41.1670 H   0  0  0  0  0  0  0  0  0  0  0  0
   35.9014   25.6377   39.0495 H   0  0  0  0  0  0  0  0  0  0  0  0
   37.0318   24.2796   38.9568 H   0  0  0  0  0  0  0  0  0  0  0  0
   39.0163   25.8972   39.6947 H   0  0  0  0  0  0  0  0  0  0  0  0
   39.7614   26.2433   37.7385 H   0  0  0  0  0  0  0  0  0  0  0  0
   39.6934   27.4677   35.6107 H   0  0  0  0  0  0  0  0  0  0  0  0
   37.7409   28.8408   34.9702 H   0  0  0  0  0  0  0  0  0  0  0  0
   35.5012   29.6719   35.5682 H   0  0  0  0  0  0  0  0  0  0  0  0
   33.5733   29.8015   37.1200 H   0  0  0  0  0  0  0  0  0  0  0  0
   33.6938   28.5157   39.3034 H   0  0  0  0  0  0  0  0  0  0  0  0
   35.7173   27.2001   39.7765 H   0  0  0  0  0  0  0  0  0  0  0  0
   39.6265   30.8863   42.0562 H   0  0  0  0  0  0  0  0  0  0  0  0
   40.8894   27.3221   43.8825 H   0  0  0  0  0  0  0  0  0  0  0  0
   38.0938   29.7593   39.4130 H   0  0  0  0  0  0  0  0  0  0  0  0
   35.8590   32.5779   40.1477 H   0  0  0  0  0  0  0  0  0  0  0  0
   37.2864   32.1010   39.1897 H   0  0  0  0  0  0  0  0  0  0  0  0
  1 18  1  0
  1  2  1  0
  3  2  1  0
  4  5  1  0
  4  3  1  0
  5  1  1  0
  6  5  1  0
  7  6  2  0
  8  7  1  0
  9  8  2  0
  9 10  1  0
 10 15  2  0
 11 10  1  0
 11 12  2  0
 12 13  1  0
 13 14  2  0
 15  6  1  0
 15 14  1  0
 16 21  2  0
 17 18  2  0
 17 16  1  0
 18 19  1  0
 19 20  2  0
 21 20  1  0
 22 23  1  0
 22 17  1  0
 23 24  2  0
 24 26  1  0
 25 23  1  0
  1 27  1  6
  2 28  1  0
  2 29  1  0
  3 30  1  0
  3 31  1  0
  4 32  1  0
  4 33  1  0
  5 34  1  1
  7 35  1  0
  8 36  1  0
  9 37  1  0
 11 38  1  0
 12 39  1  0
 13 40  1  0
 14 41  1  0
 16 42  1  0
 20 43  1  0
 22 44  1  0
 25 45  1  0
 25 46  1  0
M  ISO  8  27  13  28  13  29  13  30  13  31  13  32  13  33  13  34  13
M  ISO  8  35  14  36  14  37  14  38  14  39  14  40  14  41  14  42  14
M  ISO  1  43  14
M  END
>  <minimizedAffinity>  (1) 
-5.68726349

>  <minimizedRMSD>  (1) 
2.38809252

$$$$
