
     RDKit          3D

 44 47  0  0  1  0  0  0  0  0999 V2000
   37.3530   26.9470   40.4020 C   0  0  2  0  0  0  0  0  0  0  0  0
   37.0640   25.6600   41.1330 C   0  0  0  0  0  0  0  0  0  0  0  0
   36.3760   24.8570   40.0510 C   0  0  0  0  0  0  0  0  0  0  0  0
   36.9200   25.3600   38.7640 C   0  0  0  0  0  0  0  0  0  0  0  0
   38.0050   26.4200   39.1540 C   0  0  1  0  0  0  0  0  0  0  0  0
   37.9860   27.2740   37.9530 C   0  0  0  0  0  0  0  0  0  0  0  0
   39.1360   27.6100   37.2230 C   0  0  0  0  0  0  0  0  0  0  0  0
   38.7670   28.4530   36.2120 N   0  0  0  0  0  0  0  0  0  0  0  0
   37.4390   28.6590   36.2780 C   0  0  0  0  0  0  0  0  0  0  0  0
   36.4990   29.3820   35.5690 C   0  0  0  0  0  0  0  0  0  0  0  0
   35.1540   29.3950   35.8950 C   0  0  0  0  0  0  0  0  0  0  0  0
   34.7200   28.6480   36.9810 C   0  0  0  0  0  0  0  0  0  0  0  0
   35.6070   27.9070   37.7260 C   0  0  0  0  0  0  0  0  0  0  0  0
   36.9430   27.9400   37.3450 C   0  0  0  0  0  0  0  0  0  0  0  0
   38.8700   29.8630   42.1970 C   0  0  0  0  0  0  0  0  0  0  0  0
   38.1180   29.1920   41.1540 C   0  0  0  0  0  0  0  0  0  0  0  0
   38.1220   27.8370   41.2200 C   0  0  0  0  0  0  0  0  0  0  0  0
   38.8230   27.2230   42.2480 N   0  0  0  0  0  0  0  0  0  0  0  0
   39.4970   27.8820   43.1800 C   0  0  0  0  0  0  0  0  0  0  0  0
   39.5190   29.2280   43.1520 N   0  0  0  0  0  0  0  0  0  0  0  0
   37.5170   29.9690   40.1680 N   0  0  0  0  0  0  0  0  0  0  0  0
   36.5590   31.0030   40.4210 C   0  0  0  0  0  0  0  0  0  0  0  0
   35.7480   30.8060   41.4110 N   0  0  0  0  0  0  0  0  0  0  0  0
   36.6280   32.1590   39.5410 N   0  0  0  0  0  0  0  0  0  0  0  0
   35.0430   31.5050   41.6840 H   0  0  0  0  0  0  0  0  0  0  0  0
   36.4950   27.5890   40.1535 H   0  0  0  0  0  0  0  0  0  0  0  0
   37.9898   25.1714   41.4708 H   0  0  0  0  0  0  0  0  0  0  0  0
   36.4697   25.7848   42.0502 H   0  0  0  0  0  0  0  0  0  0  0  0
   36.5991   23.7863   40.1685 H   0  0  0  0  0  0  0  0  0  0  0  0
   35.2826   24.9679   40.0987 H   0  0  0  0  0  0  0  0  0  0  0  0
   36.1234   25.8272   38.1663 H   0  0  0  0  0  0  0  0  0  0  0  0
   37.3434   24.5479   38.1547 H   0  0  0  0  0  0  0  0  0  0  0  0
   39.0579   26.1860   39.3701 H   0  0  0  0  0  0  0  0  0  0  0  0
   40.1572   27.2565   37.4284 H   0  0  0  0  0  0  0  0  0  0  0  0
   39.4025   28.8638   35.5132 H   0  0  0  0  0  0  0  0  0  0  0  0
   36.8352   29.9747   34.7055 H   0  0  0  0  0  0  0  0  0  0  0  0
   34.4409   29.9876   35.3031 H   0  0  0  0  0  0  0  0  0  0  0  0
   33.6532   28.6486   37.2492 H   0  0  0  0  0  0  0  0  0  0  0  0
   35.2725   27.3121   38.5887 H   0  0  0  0  0  0  0  0  0  0  0  0
   38.9002   30.9626   42.1905 H   0  0  0  0  0  0  0  0  0  0  0  0
   40.0333   27.3343   43.9689 H   0  0  0  0  0  0  0  0  0  0  0  0
   37.7794   29.7878   39.1886 H   0  0  0  0  0  0  0  0  0  0  0  0
   35.9692   32.9409   39.6653 H   0  0  0  0  0  0  0  0  0  0  0  0
   37.3357   32.1957   38.7935 H   0  0  0  0  0  0  0  0  0  0  0  0
  1  2  1  0
  1 17  1  0
  3  2  1  0
  4  5  1  0
  4  3  1  0
  5  1  1  0
  6  5  1  0
  7  6  2  0
  8  9  1  0
  8  7  1  0
  9 14  2  0
 10 11  2  0
 10  9  1  0
 11 12  1  0
 12 13  2  0
 14 13  1  0
 14  6  1  0
 15 20  2  0
 16 17  2  0
 16 15  1  0
 17 18  1  0
 18 19  2  0
 20 19  1  0
 21 22  1  0
 21 16  1  0
 22 23  2  0
 23 25  1  0
 24 22  1  0
  1 26  1  6
  2 27  1  0
  2 28  1  0
  3 29  1  0
  3 30  1  0
  4 31  1  0
  4 32  1  0
  5 33  1  1
  7 34  1  0
  8 35  1  0
 10 36  1  0
 11 37  1  0
 12 38  1  0
 13 39  1  0
 15 40  1  0
 19 41  1  0
 21 42  1  0
 24 43  1  0
 24 44  1  0
M  ISO  8  26  13  27  13  28  13  29  13  30  13  31  13  32  13  33  13
M  ISO  8  34  14  35   9  36  14  37  14  38  14  39  14  40  14  41  14
M  END
>  <minimizedAffinity>  (1) 
-5.58443737

>  <minimizedRMSD>  (1) 
1.45548284

$$$$
