
     RDKit          3D

 30 31  0  0  0  0  0  0  0  0999 V2000
   37.4140   30.0510   41.3510 C   0  0  0  0  0  0  0  0  0  0  0  0
   38.3250   29.3970   42.2480 C   0  0  0  0  0  0  0  0  0  0  0  0
   39.4270   30.1620   42.5740 C   0  0  0  0  0  0  0  0  0  0  0  0
   39.6120   31.4100   42.0810 N   0  0  0  0  0  0  0  0  0  0  0  0
   38.7150   31.9790   41.2360 C   0  0  0  0  0  0  0  0  0  0  0  0
   37.6340   31.2900   40.8860 N   0  0  0  0  0  0  0  0  0  0  0  0
   38.0250   28.0940   42.6930 N   0  0  0  0  0  0  0  0  0  0  0  0
   36.9950   27.7780   43.6120 C   0  0  0  0  0  0  0  0  0  0  0  0
   36.7770   28.6500   44.5800 N   0  0  0  0  0  0  0  0  0  0  0  0
   36.3250   26.5390   43.3600 N   0  0  0  0  0  0  0  0  0  0  0  0
   36.0900   28.4730   45.3050 H   0  0  0  0  0  0  0  0  0  0  0  0
   39.0790   33.3240   40.8100 C   0  0  0  0  0  0  0  0  0  0  0  0
   38.2480   34.3560   40.4320 C   0  0  0  0  0  0  0  0  0  0  0  0
   39.0070   35.4660   40.1020 C   0  0  0  0  0  0  0  0  0  0  0  0
   40.3060   35.0250   40.3070 C   0  0  0  0  0  0  0  0  0  0  0  0
   40.3130   33.7920   40.7130 O   0  0  0  0  0  0  0  0  0  0  0  0
   41.4990   35.8700   40.0850 C   0  0  0  0  0  0  0  0  0  0  0  0
   42.6590   35.1680   40.4420 F   0  0  0  0  0  0  0  0  0  0  0  0
   41.5590   36.2460   38.7610 F   0  0  0  0  0  0  0  0  0  0  0  0
   41.4720   36.9920   40.8890 F   0  0  0  0  0  0  0  0  0  0  0  0
   38.4800   36.7880   39.6430 C   0  0  0  0  0  0  0  0  0  0  0  0
   36.5052   29.5181   41.0345 H   0  0  0  0  0  0  0  0  0  0  0  0
   40.1806   29.7438   43.2575 H   0  0  0  0  0  0  0  0  0  0  0  0
   38.5938   27.3184   42.3246 H   0  0  0  0  0  0  0  0  0  0  0  0
   35.5621   26.2307   43.9796 H   0  0  0  0  0  0  0  0  0  0  0  0
   36.6056   25.9554   42.5590 H   0  0  0  0  0  0  0  0  0  0  0  0
   37.1497   34.3057   40.3977 H   0  0  0  0  0  0  0  0  0  0  0  0
   38.2329   37.4079   40.5175 H   0  0  0  0  0  0  0  0  0  0  0  0
   39.2440   37.2969   39.0369 H   0  0  0  0  0  0  0  0  0  0  0  0
   37.5754   36.6317   39.0369 H   0  0  0  0  0  0  0  0  0  0  0  0
  1  2  2  0
  2  3  1  0
  2  7  1  0
  4  3  2  0
  5  4  1  0
  6  5  2  0
  6  1  1  0
  7  8  1  0
  8  9  2  0
  9 11  1  0
 10  8  1  0
 12  5  1  0
 13 12  2  0
 14 15  2  0
 14 13  1  0
 15 16  1  0
 16 12  1  0
 17 15  1  0
 17 18  1  0
 17 20  1  0
 19 17  1  0
 21 14  1  0
  1 22  1  0
  3 23  1  0
  7 24  1  0
 10 25  1  0
 10 26  1  0
 13 27  1  0
 21 28  1  0
 21 29  1  0
 21 30  1  0
M  ISO  6  22  14  23  14  27  14  28   8  29   8  30   8
M  END
>  <minimizedAffinity>  (1) 
-5.04986858

>  <minimizedRMSD>  (1) 
0.539049387

$$$$
