
     RDKit          3D

 29 30  0  0  0  0  0  0  0  0999 V2000
   37.7440   30.0820   41.2120 C   0  0  0  0  0  0  0  0  0  0  0  0
   38.6160   29.3000   42.0450 C   0  0  0  0  0  0  0  0  0  0  0  0
   39.8810   29.8590   42.2080 C   0  0  0  0  0  0  0  0  0  0  0  0
   40.2440   31.0230   41.6350 N   0  0  0  0  0  0  0  0  0  0  0  0
   39.3630   31.7150   40.8520 C   0  0  0  0  0  0  0  0  0  0  0  0
   38.1450   31.2350   40.6600 N   0  0  0  0  0  0  0  0  0  0  0  0
   38.1490   28.0910   42.6050 N   0  0  0  0  0  0  0  0  0  0  0  0
   37.0950   28.0180   43.5470 C   0  0  0  0  0  0  0  0  0  0  0  0
   37.0480   28.9800   44.4540 N   0  0  0  0  0  0  0  0  0  0  0  0
   36.1990   26.8980   43.3980 N   0  0  0  0  0  0  0  0  0  0  0  0
   36.3250   28.9860   45.1800 H   0  0  0  0  0  0  0  0  0  0  0  0
   39.9230   32.9490   40.3150 C   0  0  0  0  0  0  0  0  0  0  0  0
   39.5600   34.2580   40.6210 C   0  0  0  0  0  0  0  0  0  0  0  0
   40.3560   35.1290   39.8750 C   0  0  0  0  0  0  0  0  0  0  0  0
   41.1580   34.2740   39.1570 C   0  0  0  0  0  0  0  0  0  0  0  0
   40.8820   33.0460   39.4340 O   0  0  0  0  0  0  0  0  0  0  0  0
   42.1880   34.7650   38.2030 C   0  0  0  0  0  0  0  0  0  0  0  0
   42.0900   34.0570   36.9980 F   0  0  0  0  0  0  0  0  0  0  0  0
   41.9860   36.1140   37.9550 F   0  0  0  0  0  0  0  0  0  0  0  0
   43.4570   34.5480   38.6810 F   0  0  0  0  0  0  0  0  0  0  0  0
   40.2460   36.5650   39.9460 C   0  0  0  0  0  0  0  0  0  0  0  0
   39.1930   37.2490   39.9040 O   0  0  0  0  0  0  0  0  0  0  0  0
   36.7210   29.7246   41.0228 H   0  0  0  0  0  0  0  0  0  0  0  0
   40.6152   29.3274   42.8312 H   0  0  0  0  0  0  0  0  0  0  0  0
   38.6005   27.2130   42.3117 H   0  0  0  0  0  0  0  0  0  0  0  0
   35.4087   26.7807   44.0481 H   0  0  0  0  0  0  0  0  0  0  0  0
   36.3493   26.2154   42.6415 H   0  0  0  0  0  0  0  0  0  0  0  0
   38.7760   34.5563   41.3326 H   0  0  0  0  0  0  0  0  0  0  0  0
   41.1882   37.1233   40.0482 H   0  0  0  0  0  0  0  0  0  0  0  0
  1  2  2  0
  2  3  1  0
  2  7  1  0
  4  3  2  0
  5  4  1  0
  6  5  2  0
  6  1  1  0
  7  8  1  0
  8  9  2  0
  9 11  1  0
 10  8  1  0
 12 13  2  0
 12  5  1  0
 14 21  1  0
 14 13  1  0
 15 16  1  0
 15 14  2  0
 16 12  1  0
 17 20  1  0
 17 15  1  0
 18 17  1  0
 19 17  1  0
 22 21  2  0
  1 23  1  0
  3 24  1  0
  7 25  1  0
 10 26  1  0
 10 27  1  0
 13 28  1  0
 21 29  1  0
M  ISO  4  23  14  24  14  28  14  29   6
M  END
>  <minimizedAffinity>  (1) 
-5.36603022

>  <minimizedRMSD>  (1) 
1.98846018

$$$$
