
     RDKit          3D

 40 42  0  0  1  0  0  0  0  0999 V2000
   36.8810   27.6170   39.8070 C   0  0  2  0  0  0  0  0  0  0  0  0
   36.7450   26.1270   39.7990 C   0  0  0  0  0  0  0  0  0  0  0  0
   35.9050   25.9190   38.5440 C   0  0  0  0  0  0  0  0  0  0  0  0
   36.2010   27.0920   37.6400 C   0  0  0  0  0  0  0  0  0  0  0  0
   37.2560   27.9050   38.3840 C   0  0  2  0  0  0  0  0  0  0  0  0
   38.8280   29.5410   42.3570 C   0  0  0  0  0  0  0  0  0  0  0  0
   38.0470   29.3770   41.1630 C   0  0  0  0  0  0  0  0  0  0  0  0
   37.7360   28.0810   40.8490 C   0  0  0  0  0  0  0  0  0  0  0  0
   38.1870   27.0790   41.6800 N   0  0  0  0  0  0  0  0  0  0  0  0
   38.9070   27.2830   42.7730 C   0  0  0  0  0  0  0  0  0  0  0  0
   39.2240   28.5370   43.1050 N   0  0  0  0  0  0  0  0  0  0  0  0
   37.6730   30.4800   40.3650 N   0  0  0  0  0  0  0  0  0  0  0  0
   36.7040   31.4350   40.7180 C   0  0  0  0  0  0  0  0  0  0  0  0
   35.6500   30.9410   41.3040 N   0  0  0  0  0  0  0  0  0  0  0  0
   36.9960   32.8130   40.3920 N   0  0  0  0  0  0  0  0  0  0  0  0
   34.8600   31.5400   41.6040 H   0  0  0  0  0  0  0  0  0  0  0  0
   38.5780   27.6370   37.9090 C   0  0  0  0  0  0  0  0  0  0  0  0
   39.3540   28.7690   37.5990 C   0  0  0  0  0  0  0  0  0  0  0  0
   40.6650   28.7030   37.1090 C   0  0  0  0  0  0  0  0  0  0  0  0
   41.2340   27.4880   36.9190 C   0  0  0  0  0  0  0  0  0  0  0  0
   40.5410   26.3370   37.1980 C   0  0  0  0  0  0  0  0  0  0  0  0
   39.2540   26.4590   37.6760 C   0  0  0  0  0  0  0  0  0  0  0  0
   35.9779   28.1861   40.0728 H   0  0  0  0  0  0  0  0  0  0  0  0
   37.7240   25.6323   39.7165 H   0  0  0  0  0  0  0  0  0  0  0  0
   36.3040   25.7067   40.7149 H   0  0  0  0  0  0  0  0  0  0  0  0
   36.1844   24.9767   38.0499 H   0  0  0  0  0  0  0  0  0  0  0  0
   34.8333   25.8585   38.7843 H   0  0  0  0  0  0  0  0  0  0  0  0
   35.2942   27.6927   37.4760 H   0  0  0  0  0  0  0  0  0  0  0  0
   36.5494   26.7718   36.6470 H   0  0  0  0  0  0  0  0  0  0  0  0
   37.2765   28.9940   38.2298 H   0  0  0  0  0  0  0  0  0  0  0  0
   39.1090   30.5602   42.6606 H   0  0  0  0  0  0  0  0  0  0  0  0
   39.2369   26.4372   43.3941 H   0  0  0  0  0  0  0  0  0  0  0  0
   38.1453   30.5933   39.4567 H   0  0  0  0  0  0  0  0  0  0  0  0
   36.3195   33.5527   40.6288 H   0  0  0  0  0  0  0  0  0  0  0  0
   37.8805   33.0550   39.9229 H   0  0  0  0  0  0  0  0  0  0  0  0
   38.9060   29.7622   37.7499 H   0  0  0  0  0  0  0  0  0  0  0  0
   41.2236   29.6231   36.8821 H   0  0  0  0  0  0  0  0  0  0  0  0
   42.2634   27.4236   36.5367 H   0  0  0  0  0  0  0  0  0  0  0  0
   40.9981   25.3482   37.0450 H   0  0  0  0  0  0  0  0  0  0  0  0
   38.7141   25.5254   37.8925 H   0  0  0  0  0  0  0  0  0  0  0  0
  1  8  1  0
  2  1  1  0
  3  2  1  0
  4  5  1  0
  4  3  1  0
  5  1  1  0
  6 11  2  0
  7  6  1  0
  8  7  2  0
  8  9  1  0
  9 10  2  0
 10 11  1  0
 12 13  1  0
 12  7  1  0
 13 14  2  0
 14 16  1  0
 15 13  1  0
 17  5  1  0
 18 17  2  0
 19 18  1  0
 20 19  2  0
 20 21  1  0
 21 22  2  0
 22 17  1  0
  1 23  1  1
  2 24  1  0
  2 25  1  0
  3 26  1  0
  3 27  1  0
  4 28  1  0
  4 29  1  0
  5 30  1  6
  6 31  1  0
 10 32  1  0
 12 33  1  0
 15 34  1  0
 15 35  1  0
 18 36  1  0
 19 37  1  0
 20 38  1  0
 21 39  1  0
 22 40  1  0
M  ISO  8  23  13  24  13  25  13  26  13  27  13  28  13  29  13  30  13
M  ISO  7  31  14  32  14  36  14  37  14  38  14  39  14  40  14
M  END
>  <minimizedAffinity>  (1) 
-5.18546104

>  <minimizedRMSD>  (1) 
0.995439649

$$$$
