
     RDKit          3D

 36 38  0  0  1  0  0  0  0  0999 V2000
   36.8920   27.5850   39.8650 C   0  0  2  0  0  0  0  0  0  0  0  0
   36.5500   26.1200   39.8090 C   0  0  0  0  0  0  0  0  0  0  0  0
   36.0330   25.9910   38.3890 C   0  0  0  0  0  0  0  0  0  0  0  0
   36.7480   27.0310   37.6100 C   0  0  0  0  0  0  0  0  0  0  0  0
   37.7380   27.7040   38.6140 C   0  0  1  0  0  0  0  0  0  0  0  0
   38.3280   29.2520   42.8880 C   0  0  0  0  0  0  0  0  0  0  0  0
   37.8420   29.1710   41.5260 C   0  0  0  0  0  0  0  0  0  0  0  0
   37.5180   27.9230   41.1030 C   0  0  0  0  0  0  0  0  0  0  0  0
   37.6740   26.8630   41.9820 N   0  0  0  0  0  0  0  0  0  0  0  0
   38.1230   26.9830   43.2220 C   0  0  0  0  0  0  0  0  0  0  0  0
   38.4550   28.2090   43.6830 N   0  0  0  0  0  0  0  0  0  0  0  0
   37.8020   30.3360   40.7630 N   0  0  0  0  0  0  0  0  0  0  0  0
   36.7770   31.3300   40.8640 C   0  0  0  0  0  0  0  0  0  0  0  0
   35.5800   30.9000   41.1240 N   0  0  0  0  0  0  0  0  0  0  0  0
   37.1990   32.7070   40.6800 N   0  0  0  0  0  0  0  0  0  0  0  0
   34.7860   31.5480   41.2270 H   0  0  0  0  0  0  0  0  0  0  0  0
   37.8960   29.0440   38.0350 C   0  0  0  0  0  0  0  0  0  0  0  0
   36.8260   29.7020   37.4310 C   0  0  0  0  0  0  0  0  0  0  0  0
   37.5620   31.2640   36.9040 S   0  0  0  0  0  0  0  0  0  0  0  0
   39.2540   30.7610   37.6070 C   0  0  0  0  0  0  0  0  0  0  0  0
   39.0080   29.7310   38.0210 N   0  0  0  0  0  0  0  0  0  0  0  0
   36.0558   28.2997   39.8606 H   0  0  0  0  0  0  0  0  0  0  0  0
   37.4383   25.4923   39.9729 H   0  0  0  0  0  0  0  0  0  0  0  0
   35.8366   25.7936   40.5801 H   0  0  0  0  0  0  0  0  0  0  0  0
   36.2547   24.9907   37.9887 H   0  0  0  0  0  0  0  0  0  0  0  0
   34.9420   26.1221   38.3388 H   0  0  0  0  0  0  0  0  0  0  0  0
   37.2997   26.5737   36.7754 H   0  0  0  0  0  0  0  0  0  0  0  0
   36.0518   27.7625   37.1739 H   0  0  0  0  0  0  0  0  0  0  0  0
   38.7523   27.3268   38.8115 H   0  0  0  0  0  0  0  0  0  0  0  0
   38.6070   30.2407   43.2811 H   0  0  0  0  0  0  0  0  0  0  0  0
   38.2242   26.0978   43.8671 H   0  0  0  0  0  0  0  0  0  0  0  0
   38.5590   30.4921   40.0822 H   0  0  0  0  0  0  0  0  0  0  0  0
   36.5092   33.4695   40.7405 H   0  0  0  0  0  0  0  0  0  0  0  0
   38.1882   32.9213   40.4890 H   0  0  0  0  0  0  0  0  0  0  0  0
   35.7895   29.3553   37.3063 H   0  0  0  0  0  0  0  0  0  0  0  0
   40.2058   31.3123   37.6121 H   0  0  0  0  0  0  0  0  0  0  0  0
  1  8  1  0
  2  1  1  0
  3  2  1  0
  4  3  1  0
  4  5  1  0
  5  1  1  0
  6 11  2  0
  7  6  1  0
  8  7  2  0
  8  9  1  0
  9 10  2  0
 10 11  1  0
 12 13  1  0
 12  7  1  0
 13 14  2  0
 14 16  1  0
 15 13  1  0
 17  5  1  0
 18 17  2  0
 19 18  1  0
 19 20  1  0
 20 21  2  0
 21 17  1  0
  1 22  1  6
  2 23  1  0
  2 24  1  0
  3 25  1  0
  3 26  1  0
  4 27  1  0
  4 28  1  0
  5 29  1  1
  6 30  1  0
 10 31  1  0
 12 32  1  0
 15 33  1  0
 15 34  1  0
 18 35  1  0
 20 36  1  0
M  ISO  8  22  13  23  13  24  13  25  13  26  13  27  13  28  13  29  13
M  ISO  4  30  14  31  14  35  14  36  14
M  END
>  <minimizedAffinity>  (1) 
-5.0853076

>  <minimizedRMSD>  (1) 
0.377697855

$$$$
