
     RDKit          3D

 37 39  0  0  1  0  0  0  0  0999 V2000
   36.9380   27.5430   39.8980 C   0  0  2  0  0  0  0  0  0  0  0  0
   36.5700   26.0850   39.9250 C   0  0  0  0  0  0  0  0  0  0  0  0
   36.0290   25.8870   38.5250 C   0  0  0  0  0  0  0  0  0  0  0  0
   36.6830   26.9100   37.6740 C   0  0  0  0  0  0  0  0  0  0  0  0
   37.7320   27.6070   38.6090 C   0  0  1  0  0  0  0  0  0  0  0  0
   38.4830   29.3190   42.8080 C   0  0  0  0  0  0  0  0  0  0  0  0
   37.9180   29.1940   41.4780 C   0  0  0  0  0  0  0  0  0  0  0  0
   37.6230   27.9280   41.0950 C   0  0  0  0  0  0  0  0  0  0  0  0
   37.8780   26.8870   41.9740 N   0  0  0  0  0  0  0  0  0  0  0  0
   38.3970   27.0490   43.1830 C   0  0  0  0  0  0  0  0  0  0  0  0
   38.7050   28.2950   43.6060 N   0  0  0  0  0  0  0  0  0  0  0  0
   37.7870   30.3440   40.7030 N   0  0  0  0  0  0  0  0  0  0  0  0
   36.7170   31.2850   40.8390 C   0  0  0  0  0  0  0  0  0  0  0  0
   35.5570   30.8010   41.1470 N   0  0  0  0  0  0  0  0  0  0  0  0
   37.0670   32.6830   40.6320 N   0  0  0  0  0  0  0  0  0  0  0  0
   34.7340   31.4080   41.2800 H   0  0  0  0  0  0  0  0  0  0  0  0
   37.8380   28.9310   37.9770 C   0  0  0  0  0  0  0  0  0  0  0  0
   39.0620   29.5550   37.7550 C   0  0  0  0  0  0  0  0  0  0  0  0
   38.7190   30.7280   37.1530 N   0  0  0  0  0  0  0  0  0  0  0  0
   37.3620   30.7950   37.0240 C   0  0  0  0  0  0  0  0  0  0  0  0
   36.7970   29.6660   37.5410 N   0  0  0  0  0  0  0  0  0  0  0  0
   36.1076   28.2644   39.8944 H   0  0  0  0  0  0  0  0  0  0  0  0
   37.4500   25.4514   40.1095 H   0  0  0  0  0  0  0  0  0  0  0  0
   35.8625   25.8147   40.7227 H   0  0  0  0  0  0  0  0  0  0  0  0
   36.2733   24.8777   38.1621 H   0  0  0  0  0  0  0  0  0  0  0  0
   34.9341   25.9908   38.5026 H   0  0  0  0  0  0  0  0  0  0  0  0
   37.1838   26.4367   36.8166 H   0  0  0  0  0  0  0  0  0  0  0  0
   35.9587   27.6268   37.2598 H   0  0  0  0  0  0  0  0  0  0  0  0
   38.7531   27.2302   38.7685 H   0  0  0  0  0  0  0  0  0  0  0  0
   38.7404   30.3252   43.1704 H   0  0  0  0  0  0  0  0  0  0  0  0
   38.5747   26.1801   43.8338 H   0  0  0  0  0  0  0  0  0  0  0  0
   38.5047   30.5287   39.9876 H   0  0  0  0  0  0  0  0  0  0  0  0
   36.3446   33.4125   40.7149 H   0  0  0  0  0  0  0  0  0  0  0  0
   38.0370   32.9425   40.4027 H   0  0  0  0  0  0  0  0  0  0  0  0
   40.0681   29.1880   38.0061 H   0  0  0  0  0  0  0  0  0  0  0  0
   36.8085   31.6314   36.5723 H   0  0  0  0  0  0  0  0  0  0  0  0
   35.7959   29.4283   37.5876 H   0  0  0  0  0  0  0  0  0  0  0  0
  1  2  1  0
  1  8  1  0
  3  2  1  0
  4  3  1  0
  4  5  1  0
  5  1  1  0
  6 11  2  0
  7  6  1  0
  8  7  2  0
  8  9  1  0
  9 10  2  0
 10 11  1  0
 12 13  1  0
 12  7  1  0
 13 14  2  0
 14 16  1  0
 15 13  1  0
 17  5  1  0
 18 17  2  0
 19 18  1  0
 20 19  2  0
 20 21  1  0
 21 17  1  0
  1 22  1  6
  2 23  1  0
  2 24  1  0
  3 25  1  0
  3 26  1  0
  4 27  1  0
  4 28  1  0
  5 29  1  1
  6 30  1  0
 10 31  1  0
 12 32  1  0
 15 33  1  0
 15 34  1  0
 18 35  1  0
 20 36  1  0
 21 37  1  0
M  ISO  8  22  13  23  13  24  13  25  13  26  13  27  13  28  13  29  13
M  ISO  5  30  14  31  14  35  14  36  14  37   9
M  END
>  <minimizedAffinity>  (1) 
-5.06672955

>  <minimizedRMSD>  (1) 
0.259741813

$$$$
