
     RDKit          3D

 31 32  0  0  1  0  0  0  0  0999 V2000
   38.4610   29.3410   42.6770 C   0  0  0  0  0  0  0  0  0  0  0  0
   37.8990   29.1850   41.3520 C   0  0  0  0  0  0  0  0  0  0  0  0
   37.6280   27.9010   40.9840 C   0  0  0  0  0  0  0  0  0  0  0  0
   37.9060   26.8780   41.8770 N   0  0  0  0  0  0  0  0  0  0  0  0
   38.4230   27.0760   43.0840 C   0  0  0  0  0  0  0  0  0  0  0  0
   38.7030   28.3300   43.4870 N   0  0  0  0  0  0  0  0  0  0  0  0
   36.9470   27.4760   39.8020 C   0  0  2  0  0  0  0  0  0  0  0  0
   36.5690   26.0300   39.8600 C   0  0  0  0  0  0  0  0  0  0  0  0
   36.0530   25.7870   38.4540 C   0  0  0  0  0  0  0  0  0  0  0  0
   36.7090   26.8010   37.5840 C   0  0  0  0  0  0  0  0  0  0  0  0
   37.7560   27.5010   38.5110 C   0  0  1  0  0  0  0  0  0  0  0  0
   37.8980   28.7350   37.9690 O   0  0  0  0  0  0  0  0  0  0  0  0
   37.7220   30.3100   40.5460 N   0  0  0  0  0  0  0  0  0  0  0  0
   36.7420   31.3230   40.7850 C   0  0  0  0  0  0  0  0  0  0  0  0
   35.6000   30.9160   41.2610 N   0  0  0  0  0  0  0  0  0  0  0  0
   37.1410   32.6860   40.4770 N   0  0  0  0  0  0  0  0  0  0  0  0
   34.8390   31.5750   41.4710 H   0  0  0  0  0  0  0  0  0  0  0  0
   38.6985   30.3568   43.0260 H   0  0  0  0  0  0  0  0  0  0  0  0
   38.6209   26.2226   43.7492 H   0  0  0  0  0  0  0  0  0  0  0  0
   36.1152   28.1955   39.7813 H   0  0  0  0  0  0  0  0  0  0  0  0
   37.4407   25.3968   40.0817 H   0  0  0  0  0  0  0  0  0  0  0  0
   35.8407   25.7914   40.6491 H   0  0  0  0  0  0  0  0  0  0  0  0
   36.3177   24.7723   38.1217 H   0  0  0  0  0  0  0  0  0  0  0  0
   34.9573   25.8739   38.4110 H   0  0  0  0  0  0  0  0  0  0  0  0
   37.2080   26.3165   36.7318 H   0  0  0  0  0  0  0  0  0  0  0  0
   35.9874   27.5138   37.1583 H   0  0  0  0  0  0  0  0  0  0  0  0
   38.7670   27.0890   38.6452 H   0  0  0  0  0  0  0  0  0  0  0  0
   37.9752   29.4063   38.6925 H   0  0  0  0  0  0  0  0  0  0  0  0
   38.3366   30.4175   39.7265 H   0  0  0  0  0  0  0  0  0  0  0  0
   36.4808   33.4622   40.6269 H   0  0  0  0  0  0  0  0  0  0  0  0
   38.0840   32.8758   40.1088 H   0  0  0  0  0  0  0  0  0  0  0  0
  1  6  2  0
  2  1  1  0
  3  2  2  0
  3  4  1  0
  4  5  2  0
  5  6  1  0
  7  8  1  0
  7  3  1  0
  9  8  1  0
 10  9  1  0
 10 11  1  0
 11  7  1  0
 12 11  1  0
 13 14  1  0
 13  2  1  0
 14 15  2  0
 15 17  1  0
 16 14  1  0
  1 18  1  0
  5 19  1  0
  7 20  1  6
  8 21  1  0
  8 22  1  0
  9 23  1  0
  9 24  1  0
 10 25  1  0
 10 26  1  0
 11 27  1  1
 12 28  1  0
 13 29  1  0
 16 30  1  0
 16 31  1  0
M  ISO  8  18  14  19  14  20  13  21  13  22  13  23  13  24  13  25  13
M  ISO  3  26  13  27  13  28   3
M  END
>  <minimizedAffinity>  (1) 
-4.8487587

>  <minimizedRMSD>  (1) 
0.0503956117

$$$$
