
     RDKit          3D

 39 40  0  0  1  0  0  0  0  0999 V2000
   38.8110   29.5390   42.3830 C   0  0  0  0  0  0  0  0  0  0  0  0
   38.0570   29.3670   41.1760 C   0  0  0  0  0  0  0  0  0  0  0  0
   37.7580   28.0740   40.8480 C   0  0  0  0  0  0  0  0  0  0  0  0
   38.1960   27.0710   41.6870 N   0  0  0  0  0  0  0  0  0  0  0  0
   38.8920   27.2790   42.7960 C   0  0  0  0  0  0  0  0  0  0  0  0
   39.1970   28.5350   43.1370 N   0  0  0  0  0  0  0  0  0  0  0  0
   36.9200   27.6130   39.7860 C   0  0  2  0  0  0  0  0  0  0  0  0
   36.7220   26.1380   39.8110 C   0  0  0  0  0  0  0  0  0  0  0  0
   35.9600   25.9100   38.5130 C   0  0  0  0  0  0  0  0  0  0  0  0
   36.3240   27.0600   37.6020 C   0  0  0  0  0  0  0  0  0  0  0  0
   37.4070   27.8350   38.3730 C   0  0  2  0  0  0  0  0  0  0  0  0
   38.7120   27.3120   37.9950 C   0  0  0  0  0  0  0  0  0  0  0  0
   39.8980   28.1690   38.2020 C   0  0  0  0  0  0  0  0  0  0  0  0
   38.6520   26.9270   36.5230 C   0  0  0  0  0  0  0  0  0  0  0  0
   37.6860   30.4770   40.3750 N   0  0  0  0  0  0  0  0  0  0  0  0
   36.7170   31.4320   40.7200 C   0  0  0  0  0  0  0  0  0  0  0  0
   35.6520   30.9390   41.3020 N   0  0  0  0  0  0  0  0  0  0  0  0
   37.0080   32.8110   40.4030 N   0  0  0  0  0  0  0  0  0  0  0  0
   34.8640   31.5390   41.5960 H   0  0  0  0  0  0  0  0  0  0  0  0
   39.0790   30.5600   42.6924 H   0  0  0  0  0  0  0  0  0  0  0  0
   39.2124   26.4342   43.4235 H   0  0  0  0  0  0  0  0  0  0  0  0
   36.0228   28.2162   39.9888 H   0  0  0  0  0  0  0  0  0  0  0  0
   37.6836   25.6038   39.8112 H   0  0  0  0  0  0  0  0  0  0  0  0
   36.1998   25.7715   40.7071 H   0  0  0  0  0  0  0  0  0  0  0  0
   36.2590   24.9541   38.0583 H   0  0  0  0  0  0  0  0  0  0  0  0
   34.8749   25.8655   38.6880 H   0  0  0  0  0  0  0  0  0  0  0  0
   35.4486   27.6989   37.4137 H   0  0  0  0  0  0  0  0  0  0  0  0
   36.6755   26.7182   36.6173 H   0  0  0  0  0  0  0  0  0  0  0  0
   37.5451   28.9104   38.1872 H   0  0  0  0  0  0  0  0  0  0  0  0
   38.8748   26.4733   38.6879 H   0  0  0  0  0  0  0  0  0  0  0  0
   40.0745   28.2966   39.2802 H   0  0  0  0  0  0  0  0  0  0  0  0
   40.7772   27.6962   37.7399 H   0  0  0  0  0  0  0  0  0  0  0  0
   39.7251   29.1522   37.7399 H   0  0  0  0  0  0  0  0  0  0  0  0
   38.4832   25.8437   36.4339 H   0  0  0  0  0  0  0  0  0  0  0  0
   37.8273   27.4679   36.0358 H   0  0  0  0  0  0  0  0  0  0  0  0
   39.6022   27.1913   36.0358 H   0  0  0  0  0  0  0  0  0  0  0  0
   38.1646   30.5912   39.4701 H   0  0  0  0  0  0  0  0  0  0  0  0
   36.3274   33.5479   40.6369 H   0  0  0  0  0  0  0  0  0  0  0  0
   37.8961   33.0574   39.9431 H   0  0  0  0  0  0  0  0  0  0  0  0
  1  6  2  0
  2  1  1  0
  3  2  2  0
  3  4  1  0
  4  5  2  0
  5  6  1  0
  7  8  1  0
  7  3  1  0
  9  8  1  0
 10 11  1  0
 10  9  1  0
 11  7  1  0
 12 13  1  0
 12 11  1  0
 14 12  1  0
 15 16  1  0
 15  2  1  0
 16 17  2  0
 17 19  1  0
 18 16  1  0
  1 20  1  0
  5 21  1  0
  7 22  1  6
  8 23  1  0
  8 24  1  0
  9 25  1  0
  9 26  1  0
 10 27  1  0
 10 28  1  0
 11 29  1  6
 12 30  1  0
 13 31  1  0
 13 32  1  0
 13 33  1  0
 14 34  1  0
 14 35  1  0
 14 36  1  0
 15 37  1  0
 18 38  1  0
 18 39  1  0
M  ISO  8  20  14  21  14  22  13  23  13  24  13  25  13  26  13  27  13
M  ISO  8  28  13  29  13  30   8  31   8  32   8  33   8  34   8  35   8
M  ISO  1  36   8
M  END
>  <minimizedAffinity>  (1) 
-4.80634975

>  <minimizedRMSD>  (1) 
1.03834808

$$$$
