
     RDKit          3D

 32 33  0  0  1  0  0  0  0  0999 V2000
   38.4060   29.3700   42.7130 C   0  0  0  0  0  0  0  0  0  0  0  0
   37.9020   29.2050   41.3820 C   0  0  0  0  0  0  0  0  0  0  0  0
   37.6660   27.9220   40.9770 C   0  0  0  0  0  0  0  0  0  0  0  0
   37.9280   26.8960   41.8740 N   0  0  0  0  0  0  0  0  0  0  0  0
   38.3950   27.1080   43.1040 C   0  0  0  0  0  0  0  0  0  0  0  0
   38.6360   28.3470   43.5270 N   0  0  0  0  0  0  0  0  0  0  0  0
   37.0380   27.4850   39.7690 C   0  0  2  0  0  0  0  0  0  0  0  0
   36.5550   26.0790   39.8590 C   0  0  0  0  0  0  0  0  0  0  0  0
   36.1130   25.8240   38.4200 C   0  0  0  0  0  0  0  0  0  0  0  0
   36.9770   26.7230   37.5630 C   0  0  0  0  0  0  0  0  0  0  0  0
   37.9690   27.3720   38.5480 C   0  0  2  0  0  0  0  0  0  0  0  0
   39.0930   26.5510   38.8340 N   0  0  0  0  0  0  0  0  0  0  0  0
   37.6940   30.3310   40.5460 N   0  0  0  0  0  0  0  0  0  0  0  0
   36.7520   31.3480   40.7780 C   0  0  0  0  0  0  0  0  0  0  0  0
   35.6020   30.9220   41.2490 N   0  0  0  0  0  0  0  0  0  0  0  0
   37.1530   32.7020   40.4780 N   0  0  0  0  0  0  0  0  0  0  0  0
   34.8200   31.5670   41.4460 H   0  0  0  0  0  0  0  0  0  0  0  0
   38.6111   30.3880   43.0759 H   0  0  0  0  0  0  0  0  0  0  0  0
   38.5822   26.2551   43.7730 H   0  0  0  0  0  0  0  0  0  0  0  0
   36.2607   28.2539   39.6478 H   0  0  0  0  0  0  0  0  0  0  0  0
   37.3615   25.3943   40.1602 H   0  0  0  0  0  0  0  0  0  0  0  0
   35.7656   25.9201   40.6084 H   0  0  0  0  0  0  0  0  0  0  0  0
   36.2714   24.7692   38.1510 H   0  0  0  0  0  0  0  0  0  0  0  0
   35.0425   26.0346   38.2799 H   0  0  0  0  0  0  0  0  0  0  0  0
   37.5136   26.1354   36.8036 H   0  0  0  0  0  0  0  0  0  0  0  0
   36.3838   27.4718   37.0177 H   0  0  0  0  0  0  0  0  0  0  0  0
   38.4298   28.3045   38.1901 H   0  0  0  0  0  0  0  0  0  0  0  0
   39.2067   26.4679   39.8543 H   0  0  0  0  0  0  0  0  0  0  0  0
   38.9474   25.6159   38.4275 H   0  0  0  0  0  0  0  0  0  0  0  0
   38.2793   30.4100   39.7022 H   0  0  0  0  0  0  0  0  0  0  0  0
   36.4957   33.4799   40.6322 H   0  0  0  0  0  0  0  0  0  0  0  0
   38.0964   32.8901   40.1098 H   0  0  0  0  0  0  0  0  0  0  0  0
  1  6  2  0
  2  1  1  0
  3  2  2  0
  3  4  1  0
  4  5  2  0
  5  6  1  0
  7  8  1  0
  7  3  1  0
  9  8  1  0
 10  9  1  0
 10 11  1  0
 11 12  1  0
 11  7  1  0
 13 14  1  0
 13  2  1  0
 14 15  2  0
 15 17  1  0
 16 14  1  0
  1 18  1  0
  5 19  1  0
  7 20  1  6
  8 21  1  0
  8 22  1  0
  9 23  1  0
  9 24  1  0
 10 25  1  0
 10 26  1  0
 11 27  1  6
 12 28  1  0
 12 29  1  0
 13 30  1  0
 16 31  1  0
 16 32  1  0
M  ISO  8  18  14  19  14  20  13  21  13  22  13  23  13  24  13  25  13
M  ISO  4  26  13  27  13  28   5  29   5
M  END
>  <minimizedAffinity>  (1) 
-4.75994682

>  <minimizedRMSD>  (1) 
0.0975332558

$$$$
