
     RDKit          3D

 39 42  0  0  0  0  0  0  0  0999 V2000
   37.6310   28.7920   43.7340 C   0  0  0  0  0  0  0  0  0  0  0  0
   37.1410   27.5130   43.4130 C   0  0  0  0  0  0  0  0  0  0  0  0
   37.4740   27.0110   42.1510 C   0  0  0  0  0  0  0  0  0  0  0  0
   38.2270   27.7740   41.3470 N   0  0  0  0  0  0  0  0  0  0  0  0
   38.6860   28.9880   41.6610 C   0  0  0  0  0  0  0  0  0  0  0  0
   38.3840   29.5070   42.8760 N   0  0  0  0  0  0  0  0  0  0  0  0
   37.0560   25.7500   41.6940 N   0  0  0  0  0  0  0  0  0  0  0  0
   39.4830   29.8030   40.8190 N   0  0  0  0  0  0  0  0  0  0  0  0
   39.7920   29.2710   39.6170 C   0  0  0  0  0  0  0  0  0  0  0  0
   40.5580   29.9020   38.6520 C   0  0  0  0  0  0  0  0  0  0  0  0
   41.0200   31.1630   38.9710 C   0  0  0  0  0  0  0  0  0  0  0  0
   41.7200   31.8040   38.1560 O   0  0  0  0  0  0  0  0  0  0  0  0
   40.7010   31.6730   40.1710 N   0  0  0  0  0  0  0  0  0  0  0  0
   39.9550   31.0430   41.0960 C   0  0  0  0  0  0  0  0  0  0  0  0
   39.6490   31.5020   42.2160 O   0  0  0  0  0  0  0  0  0  0  0  0
   41.1440   32.9660   40.5650 C   0  0  0  0  0  0  0  0  0  0  0  0
   42.3800   33.0860   41.1760 C   0  0  0  0  0  0  0  0  0  0  0  0
   42.5740   34.4080   41.4550 N   0  0  0  0  0  0  0  0  0  0  0  0
   41.4980   35.1150   41.0360 C   0  0  0  0  0  0  0  0  0  0  0  0
   41.1590   36.4550   41.0600 C   0  0  0  0  0  0  0  0  0  0  0  0
   39.9430   36.8360   40.5280 C   0  0  0  0  0  0  0  0  0  0  0  0
   39.0550   35.9360   39.9760 C   0  0  0  0  0  0  0  0  0  0  0  0
   39.3770   34.5780   39.9400 C   0  0  0  0  0  0  0  0  0  0  0  0
   40.6010   34.2280   40.4800 C   0  0  0  0  0  0  0  0  0  0  0  0
   40.8490   29.2400   37.3550 C   0  0  0  0  0  0  0  0  0  0  0  0
   37.3914   29.2222   44.7176 H   0  0  0  0  0  0  0  0  0  0  0  0
   36.5263   26.9363   44.1198 H   0  0  0  0  0  0  0  0  0  0  0  0
   37.3286   25.4262   40.7550 H   0  0  0  0  0  0  0  0  0  0  0  0
   36.4770   25.1493   42.2980 H   0  0  0  0  0  0  0  0  0  0  0  0
   39.4081   28.2658   39.3887 H   0  0  0  0  0  0  0  0  0  0  0  0
   43.0787   32.2655   41.3966 H   0  0  0  0  0  0  0  0  0  0  0  0
   43.4073   34.8050   41.9121 H   0  0  0  0  0  0  0  0  0  0  0  0
   41.8422   37.2006   41.4929 H   0  0  0  0  0  0  0  0  0  0  0  0
   39.6710   37.9017   40.5451 H   0  0  0  0  0  0  0  0  0  0  0  0
   38.0967   36.2871   39.5657 H   0  0  0  0  0  0  0  0  0  0  0  0
   38.6966   33.8299   39.5072 H   0  0  0  0  0  0  0  0  0  0  0  0
   41.2854   28.2473   37.5398 H   0  0  0  0  0  0  0  0  0  0  0  0
   39.9164   29.1297   36.7822 H   0  0  0  0  0  0  0  0  0  0  0  0
   41.5608   29.8526   36.7822 H   0  0  0  0  0  0  0  0  0  0  0  0
  2  1  2  0
  3  2  1  0
  4  5  1  0
  4  3  2  0
  5  6  2  0
  6  1  1  0
  7  3  1  0
  8 14  1  0
  8  5  1  0
  9  8  1  0
 10 11  1  0
 10  9  2  0
 11 13  1  0
 12 11  2  0
 13 16  1  0
 13 14  1  0
 14 15  2  0
 16 17  2  0
 17 18  1  0
 19 20  2  0
 19 18  1  0
 21 20  1  0
 22 21  2  0
 23 22  1  0
 23 24  2  0
 24 16  1  0
 24 19  1  0
 25 10  1  0
  1 26  1  0
  2 27  1  0
  7 28  1  0
  7 29  1  0
  9 30  1  0
 17 31  1  0
 18 32  1  0
 20 33  1  0
 21 34  1  0
 22 35  1  0
 23 36  1  0
 25 37  1  0
 25 38  1  0
 25 39  1  0
M  ISO  8  26  14  27  14  30  14  31  14  32   9  33  14  34  14  35  14
M  ISO  4  36  14  37   8  38   8  39   8
M  END
>  <minimizedAffinity>  (1) 
-6.76770592

>  <minimizedRMSD>  (1) 
3.19548297

$$$$
