
     RDKit          3D

 38 40  0  0  0  0  0  0  0  0999 V2000
   38.9140   27.4540   43.3350 C   0  0  0  0  0  0  0  0  0  0  0  0
   38.2950   26.1830   43.1960 C   0  0  0  0  0  0  0  0  0  0  0  0
   37.5380   25.9620   42.0340 C   0  0  0  0  0  0  0  0  0  0  0  0
   37.4410   26.9490   41.1320 N   0  0  0  0  0  0  0  0  0  0  0  0
   38.0360   28.1490   41.2840 C   0  0  0  0  0  0  0  0  0  0  0  0
   38.7680   28.3970   42.3830 N   0  0  0  0  0  0  0  0  0  0  0  0
   36.8820   24.7510   41.7850 N   0  0  0  0  0  0  0  0  0  0  0  0
   37.9360   29.1990   40.3290 N   0  0  0  0  0  0  0  0  0  0  0  0
   37.1920   28.9450   39.2340 C   0  0  0  0  0  0  0  0  0  0  0  0
   36.9800   29.8400   38.2000 C   0  0  0  0  0  0  0  0  0  0  0  0
   37.5910   31.0760   38.3350 C   0  0  0  0  0  0  0  0  0  0  0  0
   37.4350   31.9310   37.4300 O   0  0  0  0  0  0  0  0  0  0  0  0
   38.3270   31.3120   39.4310 N   0  0  0  0  0  0  0  0  0  0  0  0
   38.5030   30.4100   40.4070 C   0  0  0  0  0  0  0  0  0  0  0  0
   39.1930   30.6230   41.4400 O   0  0  0  0  0  0  0  0  0  0  0  0
   39.9670   35.1990   39.8990 C   0  0  0  0  0  0  0  0  0  0  0  0
   38.6680   34.9020   40.2970 C   0  0  0  0  0  0  0  0  0  0  0  0
   38.1730   33.6070   40.1230 C   0  0  0  0  0  0  0  0  0  0  0  0
   38.9490   32.5920   39.5550 C   0  0  0  0  0  0  0  0  0  0  0  0
   40.2420   32.9080   39.1640 C   0  0  0  0  0  0  0  0  0  0  0  0
   40.7230   34.1890   39.3400 C   0  0  0  0  0  0  0  0  0  0  0  0
   40.5510   36.8170   40.1290 S   0  0  0  0  0  0  0  0  0  0  0  0
   41.2240   36.8930   41.4790 O   0  0  0  0  0  0  0  0  0  0  0  0
   39.4260   37.8090   40.0850 O   0  0  0  0  0  0  0  0  0  0  0  0
   36.1420   29.4710   37.0280 C   0  0  0  0  0  0  0  0  0  0  0  0
   39.5183   27.6707   44.2282 H   0  0  0  0  0  0  0  0  0  0  0  0
   38.4040   25.4049   43.9659 H   0  0  0  0  0  0  0  0  0  0  0  0
   36.3365   24.6292   40.9198 H   0  0  0  0  0  0  0  0  0  0  0  0
   36.9447   23.9816   42.4669 H   0  0  0  0  0  0  0  0  0  0  0  0
   36.7192   27.9548   39.1568 H   0  0  0  0  0  0  0  0  0  0  0  0
   38.0345   35.6813   40.7458 H   0  0  0  0  0  0  0  0  0  0  0  0
   37.1449   33.3799   40.4415 H   0  0  0  0  0  0  0  0  0  0  0  0
   40.8840   32.1368   38.7134 H   0  0  0  0  0  0  0  0  0  0  0  0
   41.7515   34.4145   39.0216 H   0  0  0  0  0  0  0  0  0  0  0  0
   41.4309   37.1204   39.1237 H   0  0  0  0  0  0  0  0  0  0  0  0
   35.1875   29.0507   37.3776 H   0  0  0  0  0  0  0  0  0  0  0  0
   35.9474   30.3667   36.4198 H   0  0  0  0  0  0  0  0  0  0  0  0
   36.6713   28.7227   36.4198 H   0  0  0  0  0  0  0  0  0  0  0  0
  2  1  2  0
  3  2  1  0
  4  5  1  0
  4  3  2  0
  5  6  2  0
  6  1  1  0
  7  3  1  0
  8 14  1  0
  8  5  1  0
  9  8  1  0
 10 11  1  0
 10  9  2  0
 11 13  1  0
 12 11  2  0
 13 19  1  0
 13 14  1  0
 14 15  2  0
 16 22  1  0
 16 17  2  0
 18 17  1  0
 19 18  2  0
 20 21  2  0
 20 19  1  0
 21 16  1  0
 22 23  2  0
 24 22  2  0
 25 10  1  0
  1 26  1  0
  2 27  1  0
  7 28  1  0
  7 29  1  0
  9 30  1  0
 17 31  1  0
 18 32  1  0
 20 33  1  0
 21 34  1  0
 22 35  1  0
 25 36  1  0
 25 37  1  0
 25 38  1  0
M  ISO  8  26  14  27  14  30  14  31  14  32  14  33  14  34  14  35  11
M  ISO  3  36   8  37   8  38   8
M  END
>  <minimizedAffinity>  (1) 
-6.53484535

>  <minimizedRMSD>  (1) 
1.86036456

$$$$
