
     RDKit          3D

 35 37  0  0  0  0  0  0  0  0999 V2000
   39.4570   27.8700   43.3490 C   0  0  0  0  0  0  0  0  0  0  0  0
   38.7830   26.6280   43.3360 C   0  0  0  0  0  0  0  0  0  0  0  0
   37.8740   26.4000   42.2970 C   0  0  0  0  0  0  0  0  0  0  0  0
   37.6970   27.3730   41.3760 N   0  0  0  0  0  0  0  0  0  0  0  0
   38.3440   28.5400   41.4080 C   0  0  0  0  0  0  0  0  0  0  0  0
   39.2340   28.8030   42.3970 N   0  0  0  0  0  0  0  0  0  0  0  0
   37.1420   25.2130   42.1710 N   0  0  0  0  0  0  0  0  0  0  0  0
   38.1690   29.5750   40.4450 N   0  0  0  0  0  0  0  0  0  0  0  0
   37.3610   29.2740   39.3980 C   0  0  0  0  0  0  0  0  0  0  0  0
   37.0690   30.1380   38.3680 C   0  0  0  0  0  0  0  0  0  0  0  0
   37.6440   31.3880   38.4220 C   0  0  0  0  0  0  0  0  0  0  0  0
   37.4290   32.2350   37.5240 O   0  0  0  0  0  0  0  0  0  0  0  0
   38.4450   31.6680   39.4730 N   0  0  0  0  0  0  0  0  0  0  0  0
   38.7130   30.8040   40.4660 C   0  0  0  0  0  0  0  0  0  0  0  0
   39.4540   31.0500   41.4460 O   0  0  0  0  0  0  0  0  0  0  0  0
   39.0750   32.9380   39.6000 C   0  0  0  0  0  0  0  0  0  0  0  0
   38.4020   33.9970   40.2120 C   0  0  0  0  0  0  0  0  0  0  0  0
   39.0050   35.2340   40.3390 C   0  0  0  0  0  0  0  0  0  0  0  0
   40.2820   35.3320   39.8300 C   0  0  0  0  0  0  0  0  0  0  0  0
   40.9880   34.3170   39.2180 C   0  0  0  0  0  0  0  0  0  0  0  0
   40.3540   33.0750   39.1020 C   0  0  0  0  0  0  0  0  0  0  0  0
   36.1750   29.7370   37.2530 C   0  0  0  0  0  0  0  0  0  0  0  0
   40.1789   28.0820   44.1515 H   0  0  0  0  0  0  0  0  0  0  0  0
   38.9658   25.8703   44.1122 H   0  0  0  0  0  0  0  0  0  0  0  0
   36.4846   25.0941   41.3870 H   0  0  0  0  0  0  0  0  0  0  0  0
   37.2609   24.4588   42.8623 H   0  0  0  0  0  0  0  0  0  0  0  0
   36.9088   28.2716   39.3706 H   0  0  0  0  0  0  0  0  0  0  0  0
   37.3826   33.8455   40.5966 H   0  0  0  0  0  0  0  0  0  0  0  0
   38.4981   36.0859   40.8158 H   0  0  0  0  0  0  0  0  0  0  0  0
   40.7833   36.3070   39.9198 H   0  0  0  0  0  0  0  0  0  0  0  0
   42.0073   34.4774   38.8369 H   0  0  0  0  0  0  0  0  0  0  0  0
   40.8646   32.2261   38.6239 H   0  0  0  0  0  0  0  0  0  0  0  0
   35.2434   29.3191   37.6622 H   0  0  0  0  0  0  0  0  0  0  0  0
   35.9420   30.6168   36.6353 H   0  0  0  0  0  0  0  0  0  0  0  0
   36.6771   28.9779   36.6353 H   0  0  0  0  0  0  0  0  0  0  0  0
  2  1  2  0
  3  2  1  0
  4  5  1  0
  4  3  2  0
  5  6  2  0
  6  1  1  0
  7  3  1  0
  8 14  1  0
  8  5  1  0
  9  8  1  0
 10 11  1  0
 10  9  2  0
 11 13  1  0
 12 11  2  0
 13 16  1  0
 13 14  1  0
 14 15  2  0
 16 17  2  0
 17 18  1  0
 19 18  2  0
 20 19  1  0
 21 20  2  0
 21 16  1  0
 22 10  1  0
  1 23  1  0
  2 24  1  0
  7 25  1  0
  7 26  1  0
  9 27  1  0
 17 28  1  0
 18 29  1  0
 19 30  1  0
 20 31  1  0
 21 32  1  0
 22 33  1  0
 22 34  1  0
 22 35  1  0
M  ISO  8  23  14  24  14  27  14  28  14  29  14  30  14  31  14  32  14
M  ISO  3  33   8  34   8  35   8
M  END
>  <minimizedAffinity>  (1) 
-6.10155487

>  <minimizedRMSD>  (1) 
1.67934728

$$$$
