
     RDKit          3D

 35 37  0  0  0  0  0  0  0  0999 V2000
   39.4870   27.8830   43.3410 C   0  0  0  0  0  0  0  0  0  0  0  0
   38.7920   26.6450   43.3500 C   0  0  0  0  0  0  0  0  0  0  0  0
   37.8710   26.4440   42.3200 C   0  0  0  0  0  0  0  0  0  0  0  0
   37.6890   27.4000   41.3980 N   0  0  0  0  0  0  0  0  0  0  0  0
   38.3590   28.5610   41.4120 C   0  0  0  0  0  0  0  0  0  0  0  0
   39.2570   28.8050   42.3820 N   0  0  0  0  0  0  0  0  0  0  0  0
   37.1190   25.2700   42.2080 N   0  0  0  0  0  0  0  0  0  0  0  0
   38.1820   29.5940   40.4420 N   0  0  0  0  0  0  0  0  0  0  0  0
   37.3850   29.2990   39.3990 C   0  0  0  0  0  0  0  0  0  0  0  0
   37.0900   30.1630   38.3590 C   0  0  0  0  0  0  0  0  0  0  0  0
   37.6690   31.4110   38.4200 C   0  0  0  0  0  0  0  0  0  0  0  0
   37.4540   32.2550   37.5140 O   0  0  0  0  0  0  0  0  0  0  0  0
   38.4630   31.6860   39.4700 N   0  0  0  0  0  0  0  0  0  0  0  0
   38.7230   30.8180   40.4600 C   0  0  0  0  0  0  0  0  0  0  0  0
   39.4620   31.0680   41.4430 O   0  0  0  0  0  0  0  0  0  0  0  0
   39.0920   32.9550   39.5960 C   0  0  0  0  0  0  0  0  0  0  0  0
   38.3930   33.9800   40.2070 C   0  0  0  0  0  0  0  0  0  0  0  0
   38.9900   35.2130   40.3360 C   0  0  0  0  0  0  0  0  0  0  0  0
   40.2760   35.3660   39.8390 C   0  0  0  0  0  0  0  0  0  0  0  0
   40.9800   34.3590   39.2310 C   0  0  0  0  0  0  0  0  0  0  0  0
   40.3770   33.1150   39.1020 C   0  0  0  0  0  0  0  0  0  0  0  0
   36.1970   29.7480   37.2450 C   0  0  0  0  0  0  0  0  0  0  0  0
   40.2252   28.0945   44.1286 H   0  0  0  0  0  0  0  0  0  0  0  0
   38.9694   25.8858   44.1259 H   0  0  0  0  0  0  0  0  0  0  0  0
   36.4492   25.1593   41.4333 H   0  0  0  0  0  0  0  0  0  0  0  0
   37.2350   24.5161   42.9002 H   0  0  0  0  0  0  0  0  0  0  0  0
   36.9341   28.2960   39.3708 H   0  0  0  0  0  0  0  0  0  0  0  0
   37.3737   33.8119   40.5847 H   0  0  0  0  0  0  0  0  0  0  0  0
   38.4643   36.0506   40.8178 H   0  0  0  0  0  0  0  0  0  0  0  0
   40.7576   36.3500   39.9383 H   0  0  0  0  0  0  0  0  0  0  0  0
   41.9988   34.5325   38.8542 H   0  0  0  0  0  0  0  0  0  0  0  0
   40.9051   32.2787   38.6206 H   0  0  0  0  0  0  0  0  0  0  0  0
   35.2721   29.3182   37.6571 H   0  0  0  0  0  0  0  0  0  0  0  0
   35.9506   30.6239   36.6268 H   0  0  0  0  0  0  0  0  0  0  0  0
   36.7076   28.9949   36.6268 H   0  0  0  0  0  0  0  0  0  0  0  0
  1  2  2  0
  3  2  1  0
  4  5  1  0
  4  3  2  0
  5  6  2  0
  6  1  1  0
  7  3  1  0
  8 14  1  0
  8  5  1  0
  9  8  1  0
 10 11  1  0
 10  9  2  0
 11 13  1  0
 12 11  2  0
 13 16  1  0
 13 14  1  0
 14 15  2  0
 16 17  2  0
 17 18  1  0
 19 18  2  0
 20 19  1  0
 21 20  2  0
 21 16  1  0
 22 10  1  0
  1 23  1  0
  2 24  1  0
  7 25  1  0
  7 26  1  0
  9 27  1  0
 17 28  1  0
 18 29  1  0
 19 30  1  0
 20 31  1  0
 21 32  1  0
 22 33  1  0
 22 34  1  0
 22 35  1  0
M  ISO  8  23  14  24  14  27  14  28  14  29  14  30  14  31  14  32  14
M  ISO  3  33   8  34   8  35   8
M  END
>  <minimizedAffinity>  (1) 
-6.10349226

>  <minimizedRMSD>  (1) 
1.53504097

$$$$
