
     RDKit          3D

 37 39  0  0  0  0  0  0  0  0999 V2000
   39.4530   27.8850   43.3170 C   0  0  0  0  0  0  0  0  0  0  0  0
   38.7700   26.6330   43.2980 C   0  0  0  0  0  0  0  0  0  0  0  0
   37.8970   26.4240   42.2410 C   0  0  0  0  0  0  0  0  0  0  0  0
   37.7400   27.3800   41.3140 N   0  0  0  0  0  0  0  0  0  0  0  0
   38.3920   28.5490   41.3500 C   0  0  0  0  0  0  0  0  0  0  0  0
   39.2480   28.8040   42.3490 N   0  0  0  0  0  0  0  0  0  0  0  0
   37.1670   25.2490   42.1180 N   0  0  0  0  0  0  0  0  0  0  0  0
   38.2380   29.5740   40.3680 N   0  0  0  0  0  0  0  0  0  0  0  0
   37.4960   29.2650   39.2870 C   0  0  0  0  0  0  0  0  0  0  0  0
   37.2320   30.1190   38.2380 C   0  0  0  0  0  0  0  0  0  0  0  0
   37.7810   31.3850   38.3170 C   0  0  0  0  0  0  0  0  0  0  0  0
   37.5910   32.2250   37.4040 O   0  0  0  0  0  0  0  0  0  0  0  0
   38.5160   31.6690   39.3980 N   0  0  0  0  0  0  0  0  0  0  0  0
   38.7530   30.8090   40.4080 C   0  0  0  0  0  0  0  0  0  0  0  0
   39.4410   31.0760   41.4250 O   0  0  0  0  0  0  0  0  0  0  0  0
   39.1210   32.9580   39.5580 C   0  0  0  0  0  0  0  0  0  0  0  0
   38.3790   33.9450   40.1630 C   0  0  0  0  0  0  0  0  0  0  0  0
   38.9590   35.1890   40.3150 C   0  0  0  0  0  0  0  0  0  0  0  0
   40.2470   35.3860   39.8600 C   0  0  0  0  0  0  0  0  0  0  0  0
   40.9800   34.4020   39.2600 C   0  0  0  0  0  0  0  0  0  0  0  0
   40.4180   33.1450   39.0950 C   0  0  0  0  0  0  0  0  0  0  0  0
   36.3960   29.6930   37.0840 C   0  0  0  0  0  0  0  0  0  0  0  0
   37.1960   29.6640   35.8800 N   0  0  0  0  0  0  0  0  0  0  0  0
   40.1575   28.1053   44.1326 H   0  0  0  0  0  0  0  0  0  0  0  0
   38.9272   25.8746   44.0791 H   0  0  0  0  0  0  0  0  0  0  0  0
   36.5260   25.1219   41.3218 H   0  0  0  0  0  0  0  0  0  0  0  0
   37.2666   24.5046   42.8229 H   0  0  0  0  0  0  0  0  0  0  0  0
   37.0678   28.2530   39.2377 H   0  0  0  0  0  0  0  0  0  0  0  0
   37.3553   33.7497   40.5150 H   0  0  0  0  0  0  0  0  0  0  0  0
   38.4031   36.0101   40.7913 H   0  0  0  0  0  0  0  0  0  0  0  0
   40.7032   36.3790   39.9861 H   0  0  0  0  0  0  0  0  0  0  0  0
   42.0037   34.6041   38.9119 H   0  0  0  0  0  0  0  0  0  0  0  0
   40.9771   32.3276   38.6162 H   0  0  0  0  0  0  0  0  0  0  0  0
   35.9920   28.6883   37.2776 H   0  0  0  0  0  0  0  0  0  0  0  0
   35.5699   30.4073   36.9524 H   0  0  0  0  0  0  0  0  0  0  0  0
   38.1941   29.6278   36.1318 H   0  0  0  0  0  0  0  0  0  0  0  0
   36.9514   28.8313   35.3253 H   0  0  0  0  0  0  0  0  0  0  0  0
  2  1  2  0
  3  2  1  0
  4  5  1  0
  4  3  2  0
  5  6  2  0
  6  1  1  0
  7  3  1  0
  8 14  1  0
  8  5  1  0
  9  8  1  0
 10 11  1  0
 10  9  2  0
 11 13  1  0
 12 11  2  0
 13 16  1  0
 13 14  1  0
 14 15  2  0
 16 17  2  0
 17 18  1  0
 19 18  2  0
 20 19  1  0
 21 20  2  0
 21 16  1  0
 22 10  1  0
 23 22  1  0
  1 24  1  0
  2 25  1  0
  7 26  1  0
  7 27  1  0
  9 28  1  0
 17 29  1  0
 18 30  1  0
 19 31  1  0
 20 32  1  0
 21 33  1  0
 22 34  1  0
 22 35  1  0
 23 36  1  0
 23 37  1  0
M  ISO  8  24  14  25  14  28  14  29  14  30  14  31  14  32  14  33  14
M  ISO  4  34   8  35   8  36   5  37   5
M  END
>  <minimizedAffinity>  (1) 
-6.02166843

>  <minimizedRMSD>  (1) 
0.129138246

$$$$
