
     RDKit          3D

 31 33  0  0  1  0  0  0  0  0999 V2000
   38.6560   32.6490   40.4390 C   0  0  0  0  0  0  0  0  0  0  0  0
   37.2790   32.5490   40.1640 C   0  0  0  0  0  0  0  0  0  0  0  0
   36.9260   31.2560   40.5360 C   0  0  0  0  0  0  0  0  0  0  0  0
   38.0490   30.6400   41.0040 N   0  0  0  0  0  0  0  0  0  0  0  0
   39.0700   31.4730   40.9420 N   0  0  0  0  0  0  0  0  0  0  0  0
   39.3790   36.2310   40.1150 C   0  0  0  0  0  0  0  0  0  0  0  0
   40.7170   36.2300   39.6450 C   0  0  0  0  0  0  0  0  0  0  0  0
   41.3550   34.9760   39.4450 C   0  0  0  0  0  0  0  0  0  0  0  0
   40.6480   33.8590   39.7160 N   0  0  0  0  0  0  0  0  0  0  0  0
   39.3700   33.8980   40.1640 C   0  0  0  0  0  0  0  0  0  0  0  0
   38.7430   35.0830   40.3610 N   0  0  0  0  0  0  0  0  0  0  0  0
   38.1410   29.2650   41.5050 C   0  0  2  0  0  0  0  0  0  0  0  0
   36.9040   28.5140   41.2540 C   0  0  0  0  0  0  0  0  0  0  0  0
   36.2740   27.7890   42.3750 C   0  0  0  0  0  0  0  0  0  0  0  0
   36.9780   27.7640   43.6770 C   0  0  0  0  0  0  0  0  0  0  0  0
   38.4850   28.0260   43.5610 C   0  0  0  0  0  0  0  0  0  0  0  0
   38.5270   29.4150   42.9550 C   0  0  0  0  0  0  0  0  0  0  0  0
   36.6231   33.3263   39.7450 H   0  0  0  0  0  0  0  0  0  0  0  0
   35.9225   30.8109   40.4654 H   0  0  0  0  0  0  0  0  0  0  0  0
   38.8600   37.1870   40.2785 H   0  0  0  0  0  0  0  0  0  0  0  0
   41.2458   37.1728   39.4411 H   0  0  0  0  0  0  0  0  0  0  0  0
   42.3914   34.9178   39.0811 H   0  0  0  0  0  0  0  0  0  0  0  0
   38.8938   28.6550   40.9842 H   0  0  0  0  0  0  0  0  0  0  0  0
   36.4555   28.4922   40.2498 H   0  0  0  0  0  0  0  0  0  0  0  0
   35.3070   27.2808   42.2463 H   0  0  0  0  0  0  0  0  0  0  0  0
   36.5389   28.5364   44.3255 H   0  0  0  0  0  0  0  0  0  0  0  0
   36.8557   26.7528   44.0924 H   0  0  0  0  0  0  0  0  0  0  0  0
   38.9695   28.0076   44.5484 H   0  0  0  0  0  0  0  0  0  0  0  0
   39.0185   27.2701   42.9660 H   0  0  0  0  0  0  0  0  0  0  0  0
   39.5408   29.8340   43.0364 H   0  0  0  0  0  0  0  0  0  0  0  0
   37.8415   30.0971   43.4792 H   0  0  0  0  0  0  0  0  0  0  0  0
  1  5  2  0
  2  1  1  0
  2  3  2  0
  3  4  1  0
  5  4  1  0
  6 11  2  0
  7  6  1  0
  8  7  2  0
  8  9  1  0
  9 10  2  0
 10 11  1  0
 10  1  1  0
 12  4  1  0
 12 17  1  0
 13 12  1  0
 13 14  2  0
 14 15  1  0
 16 15  1  0
 17 16  1  0
  2 18  1  0
  3 19  1  0
  6 20  1  0
  7 21  1  0
  8 22  1  0
 12 23  1  6
 13 24  1  0
 14 25  1  0
 15 26  1  0
 15 27  1  0
 16 28  1  0
 16 29  1  0
 17 30  1  0
 17 31  1  0
M  ISO  8  18  14  19  14  20  14  21  14  22  14  23  13  24  13  25  13
M  ISO  6  26  13  27  13  28  13  29  13  30  13  31  13
M  END
>  <minimizedAffinity>  (1) 
-5.76179981

>  <minimizedRMSD>  (1) 
6.68055582

$$$$
