
     RDKit          3D

 23 24  0  0  0  0  0  0  0  0999 V2000
   38.3890   29.0490   42.6000 C   0  0  0  0  0  0  0  0  0  0  0  0
   37.4050   28.5090   43.4240 C   0  0  0  0  0  0  0  0  0  0  0  0
   38.0170   27.4030   44.0180 C   0  0  0  0  0  0  0  0  0  0  0  0
   39.2820   27.2980   43.5680 N   0  0  0  0  0  0  0  0  0  0  0  0
   39.4710   28.2950   42.7240 N   0  0  0  0  0  0  0  0  0  0  0  0
   36.6110   31.4770   40.4870 C   0  0  0  0  0  0  0  0  0  0  0  0
   37.5710   32.4790   40.2810 C   0  0  0  0  0  0  0  0  0  0  0  0
   38.8260   32.3070   40.8740 C   0  0  0  0  0  0  0  0  0  0  0  0
   39.0450   31.1910   41.6100 N   0  0  0  0  0  0  0  0  0  0  0  0
   38.1160   30.2480   41.7940 C   0  0  0  0  0  0  0  0  0  0  0  0
   36.8860   30.3920   41.2270 N   0  0  0  0  0  0  0  0  0  0  0  0
   40.3040   26.3200   43.8910 C   0  0  0  0  0  0  0  0  0  0  0  0
   39.8750   24.9630   43.3160 C   0  0  0  0  0  0  0  0  0  0  0  0
   36.3773   28.8717   43.5734 H   0  0  0  0  0  0  0  0  0  0  0  0
   37.5404   26.7240   44.7403 H   0  0  0  0  0  0  0  0  0  0  0  0
   35.6144   31.5827   40.0335 H   0  0  0  0  0  0  0  0  0  0  0  0
   37.3447   33.3684   39.6746 H   0  0  0  0  0  0  0  0  0  0  0  0
   39.6170   33.0606   40.7457 H   0  0  0  0  0  0  0  0  0  0  0  0
   41.2633   26.6249   43.4475 H   0  0  0  0  0  0  0  0  0  0  0  0
   40.4258   26.2468   44.9818 H   0  0  0  0  0  0  0  0  0  0  0  0
   39.6554   24.2684   44.1402 H   0  0  0  0  0  0  0  0  0  0  0  0
   38.9747   25.0948   42.6979 H   0  0  0  0  0  0  0  0  0  0  0  0
   40.6874   24.5533   42.6979 H   0  0  0  0  0  0  0  0  0  0  0  0
  1  5  2  0
  1  2  1  0
  2  3  2  0
  4 12  1  0
  4  3  1  0
  5  4  1  0
  6 11  2  0
  7  6  1  0
  7  8  2  0
  8  9  1  0
  9 10  2  0
 10  1  1  0
 11 10  1  0
 13 12  1  0
  2 14  1  0
  3 15  1  0
  6 16  1  0
  7 17  1  0
  8 18  1  0
 12 19  1  0
 12 20  1  0
 13 21  1  0
 13 22  1  0
 13 23  1  0
M  ISO  8  14  14  15  14  16  14  17  14  18  14  19   8  20   8  21   8
M  ISO  2  22   8  23   8
M  END
>  <minimizedAffinity>  (1) 
-3.94641542

>  <minimizedRMSD>  (1) 
5.84942341

$$$$
