
     RDKit          3D

 24 26  0  0  0  0  0  0  0  0999 V2000
   38.8420   28.7930   42.6160 C   0  0  0  0  0  0  0  0  0  0  0  0
   38.0620   27.7560   43.1580 C   0  0  0  0  0  0  0  0  0  0  0  0
   38.9750   26.9110   43.7810 C   0  0  0  0  0  0  0  0  0  0  0  0
   40.2070   27.4230   43.6160 N   0  0  0  0  0  0  0  0  0  0  0  0
   40.1280   28.5520   42.9170 N   0  0  0  0  0  0  0  0  0  0  0  0
   36.2570   30.8320   40.9950 C   0  0  0  0  0  0  0  0  0  0  0  0
   37.0000   31.9180   40.4870 C   0  0  0  0  0  0  0  0  0  0  0  0
   38.3850   31.9380   40.7090 C   0  0  0  0  0  0  0  0  0  0  0  0
   38.9380   30.9160   41.3970 N   0  0  0  0  0  0  0  0  0  0  0  0
   38.2090   29.8810   41.8770 C   0  0  0  0  0  0  0  0  0  0  0  0
   36.8600   29.8470   41.6690 N   0  0  0  0  0  0  0  0  0  0  0  0
   41.3990   26.7790   44.1500 C   0  0  0  0  0  0  0  0  0  0  0  0
   42.6710   26.8960   43.2600 C   0  0  0  0  0  0  0  0  0  0  0  0
   41.9570   25.5760   43.4760 C   0  0  0  0  0  0  0  0  0  0  0  0
   36.9697   27.6387   43.1017 H   0  0  0  0  0  0  0  0  0  0  0  0
   38.7304   25.9822   44.3172 H   0  0  0  0  0  0  0  0  0  0  0  0
   35.1693   30.7949   40.8349 H   0  0  0  0  0  0  0  0  0  0  0  0
   36.5061   32.7285   39.9310 H   0  0  0  0  0  0  0  0  0  0  0  0
   39.0047   32.7650   40.3323 H   0  0  0  0  0  0  0  0  0  0  0  0
   41.1194   26.9970   45.1913 H   0  0  0  0  0  0  0  0  0  0  0  0
   43.6548   27.0771   43.7176 H   0  0  0  0  0  0  0  0  0  0  0  0
   42.9740   27.4972   42.3901 H   0  0  0  0  0  0  0  0  0  0  0  0
   41.4050   25.1145   42.6439 H   0  0  0  0  0  0  0  0  0  0  0  0
   42.2768   24.5838   43.8271 H   0  0  0  0  0  0  0  0  0  0  0  0
  1  5  2  0
  1  2  1  0
  2  3  2  0
  4  3  1  0
  4 12  1  0
  5  4  1  0
  6 11  2  0
  7  8  2  0
  7  6  1  0
  8  9  1  0
  9 10  2  0
 10  1  1  0
 11 10  1  0
 13 14  1  0
 13 12  1  0
 14 12  1  0
  2 15  1  0
  3 16  1  0
  6 17  1  0
  7 18  1  0
  8 19  1  0
 12 20  1  0
 13 21  1  0
 13 22  1  0
 14 23  1  0
 14 24  1  0
M  ISO  8  15  14  16  14  17  14  18  14  19  14  20  13  21  13  22  13
M  ISO  2  23  13  24  13
M  END
>  <minimizedAffinity>  (1) 
-3.97067428

>  <minimizedRMSD>  (1) 
6.4710288

$$$$
