
     RDKit          3D

 27 29  0  0  1  0  0  0  0  0999 V2000
   38.7860   28.7610   42.6680 C   0  0  0  0  0  0  0  0  0  0  0  0
   37.9890   27.7870   43.2760 C   0  0  0  0  0  0  0  0  0  0  0  0
   38.9070   26.9280   43.8860 C   0  0  0  0  0  0  0  0  0  0  0  0
   40.1460   27.3630   43.6550 N   0  0  0  0  0  0  0  0  0  0  0  0
   40.0780   28.4610   42.9250 N   0  0  0  0  0  0  0  0  0  0  0  0
   36.2780   30.8370   40.9980 C   0  0  0  0  0  0  0  0  0  0  0  0
   37.0590   31.9090   40.4950 C   0  0  0  0  0  0  0  0  0  0  0  0
   38.4510   31.9050   40.7380 C   0  0  0  0  0  0  0  0  0  0  0  0
   38.9660   30.8820   41.4370 N   0  0  0  0  0  0  0  0  0  0  0  0
   38.1980   29.8660   41.9080 C   0  0  0  0  0  0  0  0  0  0  0  0
   36.8540   29.8510   41.6860 N   0  0  0  0  0  0  0  0  0  0  0  0
   41.2970   26.6550   44.1770 C   0  0  2  0  0  0  0  0  0  0  0  0
   42.6230   26.9070   43.3900 C   0  0  0  0  0  0  0  0  0  0  0  0
   41.9130   25.5570   43.3620 C   0  0  2  0  0  0  0  0  0  0  0  0
   41.2750   25.2730   42.0130 C   0  0  0  0  0  0  0  0  0  0  0  0
   36.8915   27.7135   43.2746 H   0  0  0  0  0  0  0  0  0  0  0  0
   38.6474   26.0310   44.4673 H   0  0  0  0  0  0  0  0  0  0  0  0
   35.1927   30.8192   40.8197 H   0  0  0  0  0  0  0  0  0  0  0  0
   36.5906   32.7266   39.9274 H   0  0  0  0  0  0  0  0  0  0  0  0
   39.0933   32.7164   40.3652 H   0  0  0  0  0  0  0  0  0  0  0  0
   40.9525   26.7158   45.2199 H   0  0  0  0  0  0  0  0  0  0  0  0
   42.6256   27.5515   42.4986 H   0  0  0  0  0  0  0  0  0  0  0  0
   43.6337   27.2617   43.6404 H   0  0  0  0  0  0  0  0  0  0  0  0
   42.1789   24.5164   43.5994 H   0  0  0  0  0  0  0  0  0  0  0  0
   40.2796   24.8299   42.1642 H   0  0  0  0  0  0  0  0  0  0  0  0
   41.1765   26.2122   41.4490 H   0  0  0  0  0  0  0  0  0  0  0  0
   41.9069   24.5712   41.4490 H   0  0  0  0  0  0  0  0  0  0  0  0
  1  5  2  0
  1  2  1  0
  2  3  2  0
  4  3  1  0
  4 12  1  0
  5  4  1  0
  6 11  2  0
  7  8  2  0
  7  6  1  0
  8  9  1  0
  9 10  2  0
 10  1  1  0
 11 10  1  0
 13 12  1  0
 14 13  1  0
 14 12  1  0
 15 14  1  0
  2 16  1  0
  3 17  1  0
  6 18  1  0
  7 19  1  0
  8 20  1  0
 12 21  1  1
 13 22  1  0
 13 23  1  0
 14 24  1  1
 15 25  1  0
 15 26  1  0
 15 27  1  0
M  ISO  8  16  14  17  14  18  14  19  14  20  14  21  13  22  13  23  13
M  ISO  4  24  13  25   8  26   8  27   8
M  END
>  <minimizedAffinity>  (1) 
-4.21850634

>  <minimizedRMSD>  (1) 
0.0857565477

$$$$
