
     RDKit          3D

 43 47  0  0  1  0  0  0  0  0999 V2000
   39.8800   26.1910   43.6520 C   0  0  2  0  0  0  0  0  0  0  0  0
   40.9220   25.7430   42.6150 C   0  0  0  0  0  0  0  0  0  0  0  0
   39.6960   24.9340   42.8510 C   0  0  2  0  0  0  0  0  0  0  0  0
   38.6080   24.8640   41.8470 C   0  0  0  0  0  0  0  0  0  0  0  0
   37.4970   24.0790   42.0980 C   0  0  0  0  0  0  0  0  0  0  0  0
   36.5750   24.0860   41.0810 C   0  0  0  0  0  0  0  0  0  0  0  0
   36.6460   24.7530   39.9190 N   0  0  0  0  0  0  0  0  0  0  0  0
   37.7640   25.5080   39.7300 C   0  0  0  0  0  0  0  0  0  0  0  0
   38.7050   25.5480   40.6800 N   0  0  0  0  0  0  0  0  0  0  0  0
   37.8450   26.2160   38.4990 N   0  0  0  0  0  0  0  0  0  0  0  0
   38.7420   26.0290   37.5160 C   0  0  0  0  0  0  0  0  0  0  0  0
   38.7020   26.7970   36.3650 C   0  0  0  0  0  0  0  0  0  0  0  0
   37.7220   27.7610   36.2410 C   0  0  0  0  0  0  0  0  0  0  0  0
   37.6550   28.5660   35.0710 N   0  0  0  0  0  0  0  0  0  0  0  0
   36.8430   27.9170   37.2470 N   0  0  0  0  0  0  0  0  0  0  0  0
   36.8910   27.1590   38.3750 C   0  0  0  0  0  0  0  0  0  0  0  0
   35.9780   27.4720   39.1820 O   0  0  0  0  0  0  0  0  0  0  0  0
   38.4650   29.2700   42.4860 C   0  0  0  0  0  0  0  0  0  0  0  0
   37.4750   28.8520   43.3930 C   0  0  0  0  0  0  0  0  0  0  0  0
   37.9250   27.6500   43.9120 C   0  0  0  0  0  0  0  0  0  0  0  0
   39.1120   27.3800   43.3400 N   0  0  0  0  0  0  0  0  0  0  0  0
   39.4440   28.3490   42.4820 N   0  0  0  0  0  0  0  0  0  0  0  0
   37.0000   31.9000   40.4030 C   0  0  0  0  0  0  0  0  0  0  0  0
   38.0220   32.8670   40.3450 C   0  0  0  0  0  0  0  0  0  0  0  0
   39.2140   32.5970   41.0300 C   0  0  0  0  0  0  0  0  0  0  0  0
   39.3370   31.4300   41.7150 N   0  0  0  0  0  0  0  0  0  0  0  0
   38.3180   30.5150   41.7480 C   0  0  0  0  0  0  0  0  0  0  0  0
   37.1410   30.7580   41.0830 N   0  0  0  0  0  0  0  0  0  0  0  0
   39.8606   26.4237   44.7269 H   0  0  0  0  0  0  0  0  0  0  0  0
   41.9021   25.3678   42.9448 H   0  0  0  0  0  0  0  0  0  0  0  0
   41.3962   26.2034   41.7357 H   0  0  0  0  0  0  0  0  0  0  0  0
   39.5271   23.8740   43.0916 H   0  0  0  0  0  0  0  0  0  0  0  0
   37.3647   23.5030   43.0258 H   0  0  0  0  0  0  0  0  0  0  0  0
   35.6741   23.4743   41.2367 H   0  0  0  0  0  0  0  0  0  0  0  0
   39.5172   25.2565   37.6273 H   0  0  0  0  0  0  0  0  0  0  0  0
   39.4386   26.6417   35.5629 H   0  0  0  0  0  0  0  0  0  0  0  0
   36.9225   29.2845   34.9815 H   0  0  0  0  0  0  0  0  0  0  0  0
   38.3390   28.4306   34.3129 H   0  0  0  0  0  0  0  0  0  0  0  0
   36.5375   29.3722   43.6391 H   0  0  0  0  0  0  0  0  0  0  0  0
   37.4061   27.0287   44.6568 H   0  0  0  0  0  0  0  0  0  0  0  0
   36.0557   32.0905   39.8719 H   0  0  0  0  0  0  0  0  0  0  0  0
   37.8891   33.8022   39.7813 H   0  0  0  0  0  0  0  0  0  0  0  0
   40.0412   33.3218   41.0134 H   0  0  0  0  0  0  0  0  0  0  0  0
  2  3  1  0
  2  1  1  0
  3  1  1  0
  4  5  2  0
  4  3  1  0
  6  5  1  0
  7  6  2  0
  8  7  1  0
  8  9  2  0
  9  4  1  0
 10  8  1  0
 11 10  1  0
 12 11  2  0
 13 12  1  0
 13 15  2  0
 14 13  1  0
 15 16  1  0
 16 10  1  0
 16 17  2  0
 18 19  1  0
 19 20  2  0
 21  1  1  0
 21 20  1  0
 22 18  2  0
 22 21  1  0
 23 28  2  0
 24 23  1  0
 24 25  2  0
 25 26  1  0
 26 27  2  0
 27 18  1  0
 28 27  1  0
  1 29  1  1
  2 30  1  0
  2 31  1  0
  3 32  1  1
  5 33  1  0
  6 34  1  0
 11 35  1  0
 12 36  1  0
 14 37  1  0
 14 38  1  0
 19 39  1  0
 20 40  1  0
 23 41  1  0
 24 42  1  0
 25 43  1  0
M  ISO  8  29  13  30  13  31  13  32  13  33  14  34  14  35  14  36  14
M  ISO  5  39  14  40  14  41  14  42  14  43  14
M  END
>  <minimizedAffinity>  (1) 
-6.59453106

>  <minimizedRMSD>  (1) 
0.873666346

$$$$
