
     RDKit          3D

 44 48  0  0  1  0  0  0  0  0999 V2000
   39.8660   26.2050   43.8870 C   0  0  2  0  0  0  0  0  0  0  0  0
   41.0210   25.7940   42.9610 C   0  0  0  0  0  0  0  0  0  0  0  0
   39.8140   24.9350   43.0860 C   0  0  2  0  0  0  0  0  0  0  0  0
   38.8240   24.8080   41.9860 C   0  0  0  0  0  0  0  0  0  0  0  0
   37.5900   24.2360   42.2450 C   0  0  0  0  0  0  0  0  0  0  0  0
   36.7680   24.1600   41.1450 C   0  0  0  0  0  0  0  0  0  0  0  0
   37.0660   24.5830   39.8940 N   0  0  0  0  0  0  0  0  0  0  0  0
   38.2860   25.1300   39.7130 C   0  0  0  0  0  0  0  0  0  0  0  0
   39.1350   25.2340   40.7400 N   0  0  0  0  0  0  0  0  0  0  0  0
   38.6680   25.5960   38.4220 N   0  0  0  0  0  0  0  0  0  0  0  0
   38.4980   24.9470   37.1410 C   0  0  0  0  0  0  0  0  0  0  0  0
   38.2240   26.0510   36.1700 C   0  0  0  0  0  0  0  0  0  0  0  0
   38.9720   27.2190   36.7210 C   0  0  0  0  0  0  0  0  0  0  0  0
   39.3210   26.8540   38.1110 C   0  0  0  0  0  0  0  0  0  0  0  0
   38.4400   29.2130   42.5590 C   0  0  0  0  0  0  0  0  0  0  0  0
   37.3910   28.7610   43.3620 C   0  0  0  0  0  0  0  0  0  0  0  0
   37.8380   27.5810   43.9350 C   0  0  0  0  0  0  0  0  0  0  0  0
   39.0820   27.3590   43.4890 N   0  0  0  0  0  0  0  0  0  0  0  0
   39.4570   28.3320   42.6610 N   0  0  0  0  0  0  0  0  0  0  0  0
   37.0200   31.8230   40.4210 C   0  0  0  0  0  0  0  0  0  0  0  0
   38.0600   32.7720   40.3340 C   0  0  0  0  0  0  0  0  0  0  0  0
   39.2560   32.4910   41.0260 C   0  0  0  0  0  0  0  0  0  0  0  0
   39.3540   31.3360   41.7360 N   0  0  0  0  0  0  0  0  0  0  0  0
   38.3200   30.4480   41.7920 C   0  0  0  0  0  0  0  0  0  0  0  0
   37.1460   30.7000   41.1260 N   0  0  0  0  0  0  0  0  0  0  0  0
   39.7325   26.4448   44.9522 H   0  0  0  0  0  0  0  0  0  0  0  0
   41.9793   25.4637   43.3884 H   0  0  0  0  0  0  0  0  0  0  0  0
   41.5585   26.2679   42.1264 H   0  0  0  0  0  0  0  0  0  0  0  0
   39.6706   23.8694   43.3182 H   0  0  0  0  0  0  0  0  0  0  0  0
   37.2938   23.8749   43.2409 H   0  0  0  0  0  0  0  0  0  0  0  0
   35.7742   23.7132   41.2960 H   0  0  0  0  0  0  0  0  0  0  0  0
   39.4130   24.4052   36.8596 H   0  0  0  0  0  0  0  0  0  0  0  0
   37.6831   24.2084   37.1614 H   0  0  0  0  0  0  0  0  0  0  0  0
   37.1466   26.2669   36.1189 H   0  0  0  0  0  0  0  0  0  0  0  0
   38.5349   25.7974   35.1458 H   0  0  0  0  0  0  0  0  0  0  0  0
   39.8832   27.4025   36.1328 H   0  0  0  0  0  0  0  0  0  0  0  0
   38.3710   28.1395   36.6827 H   0  0  0  0  0  0  0  0  0  0  0  0
   40.4112   26.7418   38.2049 H   0  0  0  0  0  0  0  0  0  0  0  0
   38.9894   27.6388   38.8068 H   0  0  0  0  0  0  0  0  0  0  0  0
   36.4127   29.2418   43.5093 H   0  0  0  0  0  0  0  0  0  0  0  0
   37.2737   26.9421   44.6302 H   0  0  0  0  0  0  0  0  0  0  0  0
   36.0760   32.0163   39.8904 H   0  0  0  0  0  0  0  0  0  0  0  0
   37.9425   33.6959   39.7487 H   0  0  0  0  0  0  0  0  0  0  0  0
   40.0987   33.1972   40.9917 H   0  0  0  0  0  0  0  0  0  0  0  0
  2  3  1  0
  2  1  1  0
  3  1  1  0
  4  5  2  0
  4  3  1  0
  6  5  1  0
  7  6  2  0
  8  7  1  0
  8  9  2  0
  9  4  1  0
 10  8  1  0
 11 10  1  0
 12 13  1  0
 12 11  1  0
 13 14  1  0
 14 10  1  0
 15 19  2  0
 15 16  1  0
 16 17  2  0
 18  1  1  0
 18 17  1  0
 19 18  1  0
 20 25  2  0
 21 20  1  0
 21 22  2  0
 22 23  1  0
 23 24  2  0
 24 15  1  0
 25 24  1  0
  1 26  1  1
  2 27  1  0
  2 28  1  0
  3 29  1  1
  5 30  1  0
  6 31  1  0
 11 32  1  0
 11 33  1  0
 12 34  1  0
 12 35  1  0
 13 36  1  0
 13 37  1  0
 14 38  1  0
 14 39  1  0
 16 40  1  0
 17 41  1  0
 20 42  1  0
 21 43  1  0
 22 44  1  0
M  ISO  8  26  13  27  13  28  13  29  13  30  14  31  14  32  13  33  13
M  ISO  8  34  13  35  13  36  13  37  13  38  13  39  13  40  14  41  14
M  ISO  3  42  14  43  14  44  14
M  END
>  <minimizedAffinity>  (1) 
-5.78447247

>  <minimizedRMSD>  (1) 
0.0589687973

$$$$
