
     RDKit          3D

 38 42  0  0  1  0  0  0  0  0999 V2000
   39.9040   26.1580   43.9190 C   0  0  2  0  0  0  0  0  0  0  0  0
   41.0800   25.7790   43.0070 C   0  0  0  0  0  0  0  0  0  0  0  0
   39.8850   24.8970   43.1050 C   0  0  2  0  0  0  0  0  0  0  0  0
   38.9270   24.7710   41.9780 C   0  0  0  0  0  0  0  0  0  0  0  0
   37.6670   24.2530   42.2130 C   0  0  0  0  0  0  0  0  0  0  0  0
   36.8840   24.1700   41.0860 C   0  0  0  0  0  0  0  0  0  0  0  0
   37.2230   24.5310   39.8430 N   0  0  0  0  0  0  0  0  0  0  0  0
   38.4700   25.0330   39.6690 C   0  0  0  0  0  0  0  0  0  0  0  0
   39.2860   25.1420   40.7230 N   0  0  0  0  0  0  0  0  0  0  0  0
   38.9770   25.4600   38.4070 N   0  0  0  0  0  0  0  0  0  0  0  0
   40.1560   25.6720   37.8050 C   0  0  0  0  0  0  0  0  0  0  0  0
   39.9120   26.0960   36.5350 N   0  0  0  0  0  0  0  0  0  0  0  0
   38.5830   26.1390   36.3690 C   0  0  0  0  0  0  0  0  0  0  0  0
   38.0110   25.7480   37.5200 N   0  0  0  0  0  0  0  0  0  0  0  0
   38.4410   29.1480   42.5880 C   0  0  0  0  0  0  0  0  0  0  0  0
   37.3960   28.6840   43.3870 C   0  0  0  0  0  0  0  0  0  0  0  0
   37.8530   27.5110   43.9620 C   0  0  0  0  0  0  0  0  0  0  0  0
   39.1070   27.3030   43.5180 N   0  0  0  0  0  0  0  0  0  0  0  0
   39.4640   28.2800   42.6950 N   0  0  0  0  0  0  0  0  0  0  0  0
   36.9980   31.7590   40.4650 C   0  0  0  0  0  0  0  0  0  0  0  0
   38.0350   32.7010   40.3680 C   0  0  0  0  0  0  0  0  0  0  0  0
   39.2380   32.4280   41.0420 C   0  0  0  0  0  0  0  0  0  0  0  0
   39.3440   31.2740   41.7520 N   0  0  0  0  0  0  0  0  0  0  0  0
   38.3090   30.3820   41.8210 C   0  0  0  0  0  0  0  0  0  0  0  0
   37.1290   30.6320   41.1700 N   0  0  0  0  0  0  0  0  0  0  0  0
   39.7500   26.3829   44.9847 H   0  0  0  0  0  0  0  0  0  0  0  0
   42.0375   25.4610   43.4453 H   0  0  0  0  0  0  0  0  0  0  0  0
   41.6217   26.2715   42.1860 H   0  0  0  0  0  0  0  0  0  0  0  0
   39.7501   23.8286   43.3291 H   0  0  0  0  0  0  0  0  0  0  0  0
   37.3230   23.9367   43.2088 H   0  0  0  0  0  0  0  0  0  0  0  0
   35.8708   23.7635   41.2205 H   0  0  0  0  0  0  0  0  0  0  0  0
   41.1478   25.5283   38.2585 H   0  0  0  0  0  0  0  0  0  0  0  0
   38.0542   26.4409   35.4529 H   0  0  0  0  0  0  0  0  0  0  0  0
   36.4117   29.1536   43.5305 H   0  0  0  0  0  0  0  0  0  0  0  0
   37.2936   26.8660   44.6555 H   0  0  0  0  0  0  0  0  0  0  0  0
   36.0490   31.9552   39.9446 H   0  0  0  0  0  0  0  0  0  0  0  0
   37.9098   33.6239   39.7827 H   0  0  0  0  0  0  0  0  0  0  0  0
   40.0787   33.1359   40.9956 H   0  0  0  0  0  0  0  0  0  0  0  0
  2  3  1  0
  2  1  1  0
  3  1  1  0
  4  5  2  0
  4  3  1  0
  6  5  1  0
  7  6  2  0
  8  7  1  0
  8  9  2  0
  9  4  1  0
 10  8  1  0
 11 10  1  0
 12 11  2  0
 13 12  1  0
 13 14  2  0
 14 10  1  0
 15 19  2  0
 15 16  1  0
 16 17  2  0
 18  1  1  0
 18 17  1  0
 19 18  1  0
 20 25  2  0
 21 20  1  0
 21 22  2  0
 22 23  1  0
 23 24  2  0
 24 15  1  0
 25 24  1  0
  1 26  1  1
  2 27  1  0
  2 28  1  0
  3 29  1  1
  5 30  1  0
  6 31  1  0
 11 32  1  0
 13 33  1  0
 16 34  1  0
 17 35  1  0
 20 36  1  0
 21 37  1  0
 22 38  1  0
M  ISO  8  26  13  27  13  28  13  29  13  30  14  31  14  32  14  33  14
M  ISO  5  34  14  35  14  36  14  37  14  38  14
M  END
>  <minimizedAffinity>  (1) 
-5.69826698

>  <minimizedRMSD>  (1) 
0.137058794

$$$$
