
     RDKit          3D

 39 43  0  0  1  0  0  0  0  0999 V2000
   39.8740   26.1770   43.8960 C   0  0  2  0  0  0  0  0  0  0  0  0
   41.0260   25.7690   42.9660 C   0  0  0  0  0  0  0  0  0  0  0  0
   39.8220   24.9060   43.0950 C   0  0  2  0  0  0  0  0  0  0  0  0
   38.8330   24.7790   41.9950 C   0  0  0  0  0  0  0  0  0  0  0  0
   37.5840   24.2480   42.2640 C   0  0  0  0  0  0  0  0  0  0  0  0
   36.7750   24.1670   41.1590 C   0  0  0  0  0  0  0  0  0  0  0  0
   37.0740   24.5410   39.9000 N   0  0  0  0  0  0  0  0  0  0  0  0
   38.3080   25.0510   39.7030 C   0  0  0  0  0  0  0  0  0  0  0  0
   39.1580   25.1620   40.7350 N   0  0  0  0  0  0  0  0  0  0  0  0
   38.6660   25.4640   38.3510 C   0  0  0  0  0  0  0  0  0  0  0  0
   39.9220   25.7020   37.8290 C   0  0  0  0  0  0  0  0  0  0  0  0
   39.7630   26.0660   36.5240 N   0  0  0  0  0  0  0  0  0  0  0  0
   38.4290   26.0480   36.2650 C   0  0  0  0  0  0  0  0  0  0  0  0
   37.7750   25.6850   37.3720 N   0  0  0  0  0  0  0  0  0  0  0  0
   38.4420   29.1820   42.5660 C   0  0  0  0  0  0  0  0  0  0  0  0
   37.3900   28.7260   43.3760 C   0  0  0  0  0  0  0  0  0  0  0  0
   37.8400   27.5480   43.9490 C   0  0  0  0  0  0  0  0  0  0  0  0
   39.0850   27.3280   43.5000 N   0  0  0  0  0  0  0  0  0  0  0  0
   39.4480   28.3030   42.6730 N   0  0  0  0  0  0  0  0  0  0  0  0
   37.0120   31.7950   40.4400 C   0  0  0  0  0  0  0  0  0  0  0  0
   38.0550   32.7420   40.3520 C   0  0  0  0  0  0  0  0  0  0  0  0
   39.2510   32.4620   41.0370 C   0  0  0  0  0  0  0  0  0  0  0  0
   39.3490   31.3050   41.7430 N   0  0  0  0  0  0  0  0  0  0  0  0
   38.3150   30.4150   41.8020 C   0  0  0  0  0  0  0  0  0  0  0  0
   37.1390   30.6690   41.1420 N   0  0  0  0  0  0  0  0  0  0  0  0
   39.7444   26.4169   44.9617 H   0  0  0  0  0  0  0  0  0  0  0  0
   41.9868   25.4414   43.3898 H   0  0  0  0  0  0  0  0  0  0  0  0
   41.5589   26.2445   42.1294 H   0  0  0  0  0  0  0  0  0  0  0  0
   39.6804   23.8406   43.3293 H   0  0  0  0  0  0  0  0  0  0  0  0
   37.2701   23.9223   43.2667 H   0  0  0  0  0  0  0  0  0  0  0  0
   35.7698   23.7500   41.3190 H   0  0  0  0  0  0  0  0  0  0  0  0
   40.8771   25.6141   38.3676 H   0  0  0  0  0  0  0  0  0  0  0  0
   37.9627   26.2929   35.2993 H   0  0  0  0  0  0  0  0  0  0  0  0
   36.7531   25.5902   37.4598 H   0  0  0  0  0  0  0  0  0  0  0  0
   36.4110   29.2050   43.5248 H   0  0  0  0  0  0  0  0  0  0  0  0
   37.2783   26.9086   44.6460 H   0  0  0  0  0  0  0  0  0  0  0  0
   36.0664   31.9920   39.9137 H   0  0  0  0  0  0  0  0  0  0  0  0
   37.9365   33.6667   39.7681 H   0  0  0  0  0  0  0  0  0  0  0  0
   40.0936   33.1682   41.0018 H   0  0  0  0  0  0  0  0  0  0  0  0
  2  3  1  0
  2  1  1  0
  3  1  1  0
  4  5  2  0
  4  3  1  0
  6  5  1  0
  7  6  2  0
  8  7  1  0
  8  9  2  0
  9  4  1  0
 10  8  1  0
 11 10  2  0
 12 11  1  0
 13 12  2  0
 13 14  1  0
 14 10  1  0
 15 19  2  0
 15 16  1  0
 16 17  2  0
 18  1  1  0
 18 17  1  0
 19 18  1  0
 20 25  2  0
 21 20  1  0
 21 22  2  0
 22 23  1  0
 23 24  2  0
 24 15  1  0
 25 24  1  0
  1 26  1  1
  2 27  1  0
  2 28  1  0
  3 29  1  1
  5 30  1  0
  6 31  1  0
 11 32  1  0
 13 33  1  0
 14 34  1  0
 16 35  1  0
 17 36  1  0
 20 37  1  0
 21 38  1  0
 22 39  1  0
M  ISO  8  26  13  27  13  28  13  29  13  30  14  31  14  32  14  33  14
M  ISO  6  34   9  35  14  36  14  37  14  38  14  39  14
M  END
>  <minimizedAffinity>  (1) 
-5.44610834

>  <minimizedRMSD>  (1) 
0.0359987095

$$$$
