
     RDKit          3D

 35 38  0  0  1  0  0  0  0  0999 V2000
   39.8530   26.2010   43.9020 C   0  0  2  0  0  0  0  0  0  0  0  0
   40.9950   25.7740   42.9680 C   0  0  0  0  0  0  0  0  0  0  0  0
   39.7840   24.9250   43.1140 C   0  0  2  0  0  0  0  0  0  0  0  0
   38.7810   24.7930   42.0310 C   0  0  0  0  0  0  0  0  0  0  0  0
   37.5430   24.2390   42.3060 C   0  0  0  0  0  0  0  0  0  0  0  0
   36.7230   24.1580   41.2120 C   0  0  0  0  0  0  0  0  0  0  0  0
   36.9970   24.5480   39.9520 N   0  0  0  0  0  0  0  0  0  0  0  0
   38.2240   25.0820   39.7460 C   0  0  0  0  0  0  0  0  0  0  0  0
   39.0850   25.1960   40.7710 N   0  0  0  0  0  0  0  0  0  0  0  0
   38.5260   25.5120   38.3570 C   0  0  0  0  0  0  0  0  0  0  0  0
   38.0190   24.5670   37.4860 F   0  0  0  0  0  0  0  0  0  0  0  0
   37.8260   26.6760   38.1100 F   0  0  0  0  0  0  0  0  0  0  0  0
   39.8730   25.6810   38.1260 F   0  0  0  0  0  0  0  0  0  0  0  0
   38.4380   29.2110   42.5620 C   0  0  0  0  0  0  0  0  0  0  0  0
   37.3820   28.7610   43.3700 C   0  0  0  0  0  0  0  0  0  0  0  0
   37.8260   27.5830   43.9460 C   0  0  0  0  0  0  0  0  0  0  0  0
   39.0700   27.3560   43.5010 N   0  0  0  0  0  0  0  0  0  0  0  0
   39.4450   28.3300   42.6690 N   0  0  0  0  0  0  0  0  0  0  0  0
   37.0300   31.8250   40.4160 C   0  0  0  0  0  0  0  0  0  0  0  0
   38.0640   32.7610   40.3410 C   0  0  0  0  0  0  0  0  0  0  0  0
   39.2560   32.4900   41.0350 C   0  0  0  0  0  0  0  0  0  0  0  0
   39.3500   31.3360   41.7450 N   0  0  0  0  0  0  0  0  0  0  0  0
   38.3170   30.4410   41.7960 C   0  0  0  0  0  0  0  0  0  0  0  0
   37.1480   30.6910   41.1240 N   0  0  0  0  0  0  0  0  0  0  0  0
   39.7335   26.4521   44.9663 H   0  0  0  0  0  0  0  0  0  0  0  0
   41.9555   25.4411   43.3882 H   0  0  0  0  0  0  0  0  0  0  0  0
   41.5268   26.2364   42.1234 H   0  0  0  0  0  0  0  0  0  0  0  0
   39.6372   23.8622   43.3566 H   0  0  0  0  0  0  0  0  0  0  0  0
   37.2458   23.8963   43.3081 H   0  0  0  0  0  0  0  0  0  0  0  0
   35.7263   23.7248   41.3817 H   0  0  0  0  0  0  0  0  0  0  0  0
   36.4045   29.2441   43.5153 H   0  0  0  0  0  0  0  0  0  0  0  0
   37.2600   26.9477   44.6432 H   0  0  0  0  0  0  0  0  0  0  0  0
   36.0909   32.0232   39.8787 H   0  0  0  0  0  0  0  0  0  0  0  0
   37.9487   33.6848   39.7550 H   0  0  0  0  0  0  0  0  0  0  0  0
   40.0965   33.1989   41.0037 H   0  0  0  0  0  0  0  0  0  0  0  0
  2  3  1  0
  2  1  1  0
  3  1  1  0
  4  5  2  0
  4  3  1  0
  6  5  1  0
  7  6  2  0
  8  7  1  0
  8  9  2  0
  9  4  1  0
 10  8  1  0
 11 10  1  0
 12 10  1  0
 13 10  1  0
 14 18  2  0
 14 15  1  0
 15 16  2  0
 17  1  1  0
 17 16  1  0
 18 17  1  0
 19 24  2  0
 20 19  1  0
 20 21  2  0
 21 22  1  0
 22 23  2  0
 23 14  1  0
 24 23  1  0
  1 25  1  1
  2 26  1  0
  2 27  1  0
  3 28  1  1
  5 29  1  0
  6 30  1  0
 15 31  1  0
 16 32  1  0
 19 33  1  0
 20 34  1  0
 21 35  1  0
M  ISO  8  25  13  26  13  27  13  28  13  29  14  30  14  31  14  32  14
M  ISO  3  33  14  34  14  35  14
M  END
>  <minimizedAffinity>  (1) 
-5.24580956

>  <minimizedRMSD>  (1) 
0.0881311297

$$$$
