
     RDKit          3D

 41 44  0  0  1  0  0  0  0  0999 V2000
   39.8560   26.2010   43.9040 C   0  0  2  0  0  0  0  0  0  0  0  0
   40.9970   25.7750   42.9710 C   0  0  0  0  0  0  0  0  0  0  0  0
   39.7870   24.9230   43.1160 C   0  0  2  0  0  0  0  0  0  0  0  0
   38.7880   24.7920   42.0280 C   0  0  0  0  0  0  0  0  0  0  0  0
   37.5470   24.2420   42.3020 C   0  0  0  0  0  0  0  0  0  0  0  0
   36.7300   24.1590   41.2050 C   0  0  0  0  0  0  0  0  0  0  0  0
   37.0110   24.5440   39.9570 N   0  0  0  0  0  0  0  0  0  0  0  0
   38.2400   25.0760   39.7430 C   0  0  0  0  0  0  0  0  0  0  0  0
   39.0970   25.1900   40.7680 N   0  0  0  0  0  0  0  0  0  0  0  0
   38.6520   25.5370   38.3820 C   0  0  0  0  0  0  0  0  0  0  0  0
   38.8140   24.3970   37.4310 C   0  0  0  0  0  0  0  0  0  0  0  0
   37.6470   26.5730   37.9330 C   0  0  0  0  0  0  0  0  0  0  0  0
   38.4450   29.2100   42.5550 C   0  0  0  0  0  0  0  0  0  0  0  0
   37.3850   28.7610   43.3640 C   0  0  0  0  0  0  0  0  0  0  0  0
   37.8300   27.5830   43.9430 C   0  0  0  0  0  0  0  0  0  0  0  0
   39.0750   27.3550   43.5000 N   0  0  0  0  0  0  0  0  0  0  0  0
   39.4500   28.3290   42.6660 N   0  0  0  0  0  0  0  0  0  0  0  0
   37.0240   31.8200   40.4260 C   0  0  0  0  0  0  0  0  0  0  0  0
   38.0620   32.7700   40.3420 C   0  0  0  0  0  0  0  0  0  0  0  0
   39.2550   32.4830   41.0360 C   0  0  0  0  0  0  0  0  0  0  0  0
   39.3530   31.3310   41.7410 N   0  0  0  0  0  0  0  0  0  0  0  0
   38.3170   30.4390   41.7910 C   0  0  0  0  0  0  0  0  0  0  0  0
   37.1440   30.6880   41.1280 N   0  0  0  0  0  0  0  0  0  0  0  0
   39.7357   26.4519   44.9682 H   0  0  0  0  0  0  0  0  0  0  0  0
   41.9579   25.4435   43.3914 H   0  0  0  0  0  0  0  0  0  0  0  0
   41.5280   26.2383   42.1264 H   0  0  0  0  0  0  0  0  0  0  0  0
   39.6390   23.8607   43.3602 H   0  0  0  0  0  0  0  0  0  0  0  0
   37.2458   23.9040   43.3045 H   0  0  0  0  0  0  0  0  0  0  0  0
   35.7318   23.7274   41.3704 H   0  0  0  0  0  0  0  0  0  0  0  0
   39.6493   26.0002   38.4100 H   0  0  0  0  0  0  0  0  0  0  0  0
   38.9467   23.4633   37.9971 H   0  0  0  0  0  0  0  0  0  0  0  0
   37.9181   24.3177   36.7977 H   0  0  0  0  0  0  0  0  0  0  0  0
   39.6965   24.5704   36.7977 H   0  0  0  0  0  0  0  0  0  0  0  0
   37.1887   27.0454   38.8144 H   0  0  0  0  0  0  0  0  0  0  0  0
   38.1551   27.3391   37.3289 H   0  0  0  0  0  0  0  0  0  0  0  0
   36.8658   26.0884   37.3289 H   0  0  0  0  0  0  0  0  0  0  0  0
   36.4072   29.2441   43.5071 H   0  0  0  0  0  0  0  0  0  0  0  0
   37.2635   26.9488   44.6408 H   0  0  0  0  0  0  0  0  0  0  0  0
   36.0811   32.0169   39.8949 H   0  0  0  0  0  0  0  0  0  0  0  0
   37.9460   33.6960   39.7596 H   0  0  0  0  0  0  0  0  0  0  0  0
   40.0985   33.1883   41.0051 H   0  0  0  0  0  0  0  0  0  0  0  0
  2  3  1  0
  2  1  1  0
  3  1  1  0
  4  5  2  0
  4  3  1  0
  6  5  1  0
  7  6  2  0
  8  7  1  0
  8  9  2  0
  9  4  1  0
 10  8  1  0
 11 10  1  0
 12 10  1  0
 13 17  2  0
 13 14  1  0
 14 15  2  0
 16  1  1  0
 16 15  1  0
 17 16  1  0
 18 23  2  0
 19 18  1  0
 19 20  2  0
 20 21  1  0
 21 22  2  0
 22 13  1  0
 23 22  1  0
  1 24  1  1
  2 25  1  0
  2 26  1  0
  3 27  1  1
  5 28  1  0
  6 29  1  0
 10 30  1  0
 11 31  1  0
 11 32  1  0
 11 33  1  0
 12 34  1  0
 12 35  1  0
 12 36  1  0
 14 37  1  0
 15 38  1  0
 18 39  1  0
 19 40  1  0
 20 41  1  0
M  ISO  8  24  13  25  13  26  13  27  13  28  14  29  14  30   8  31   8
M  ISO  8  32   8  33   8  34   8  35   8  36   8  37  14  38  14  39  14
M  ISO  2  40  14  41  14
M  END
>  <minimizedAffinity>  (1) 
-5.1893363

>  <minimizedRMSD>  (1) 
0.0788501799

$$$$
