
     RDKit          3D

 33 36  0  0  0  0  0  0  0  0999 V2000
   37.5030   30.5020   38.7570 C   0  0  0  0  0  0  0  0  0  0  0  0
   36.4690   30.5020   39.6610 C   0  0  0  0  0  0  0  0  0  0  0  0
   36.6630   31.2800   40.8070 C   0  0  0  0  0  0  0  0  0  0  0  0
   37.8600   31.9870   40.9560 C   0  0  0  0  0  0  0  0  0  0  0  0
   38.8760   31.9690   40.0360 C   0  0  0  0  0  0  0  0  0  0  0  0
   38.6000   31.2090   38.9920 N   0  0  0  0  0  0  0  0  0  0  0  0
   40.0220   32.7640   40.3810 C   0  0  0  0  0  0  0  0  0  0  0  0
   41.1880   32.2090   40.7560 N   0  0  0  0  0  0  0  0  0  0  0  0
   42.2920   32.8730   41.0890 C   0  0  0  0  0  0  0  0  0  0  0  0
   42.3310   34.2130   41.0780 N   0  0  0  0  0  0  0  0  0  0  0  0
   41.2120   34.8760   40.7150 C   0  0  0  0  0  0  0  0  0  0  0  0
   41.2200   36.2530   40.6920 C   0  0  0  0  0  0  0  0  0  0  0  0
   40.0970   36.9670   40.3270 C   0  0  0  0  0  0  0  0  0  0  0  0
   38.9590   36.2350   39.9830 C   0  0  0  0  0  0  0  0  0  0  0  0
   39.0100   34.8660   40.0250 C   0  0  0  0  0  0  0  0  0  0  0  0
   40.1000   34.1370   40.3790 C   0  0  0  0  0  0  0  0  0  0  0  0
   38.2570   28.0560   36.1200 C   0  0  0  0  0  0  0  0  0  0  0  0
   37.1740   28.1750   35.2530 C   0  0  0  0  0  0  0  0  0  0  0  0
   36.1750   29.1030   35.5700 C   0  0  0  0  0  0  0  0  0  0  0  0
   36.3070   29.8420   36.7050 N   0  0  0  0  0  0  0  0  0  0  0  0
   37.3710   29.7030   37.5260 C   0  0  0  0  0  0  0  0  0  0  0  0
   38.3360   28.8080   37.2230 N   0  0  0  0  0  0  0  0  0  0  0  0
   35.5465   29.9265   39.4942 H   0  0  0  0  0  0  0  0  0  0  0  0
   35.8836   31.3350   41.5813 H   0  0  0  0  0  0  0  0  0  0  0  0
   37.9942   32.5929   41.8643 H   0  0  0  0  0  0  0  0  0  0  0  0
   43.1916   32.3106   41.3794 H   0  0  0  0  0  0  0  0  0  0  0  0
   42.1374   36.7929   40.9694 H   0  0  0  0  0  0  0  0  0  0  0  0
   40.0984   38.0668   40.3079 H   0  0  0  0  0  0  0  0  0  0  0  0
   38.0345   36.7497   39.6825 H   0  0  0  0  0  0  0  0  0  0  0  0
   38.0981   34.3153   39.7509 H   0  0  0  0  0  0  0  0  0  0  0  0
   39.0568   27.3351   35.8951 H   0  0  0  0  0  0  0  0  0  0  0  0
   37.1054   27.5576   34.3452 H   0  0  0  0  0  0  0  0  0  0  0  0
   35.3009   29.2322   34.9148 H   0  0  0  0  0  0  0  0  0  0  0  0
  1  6  1  0
  1  2  2  0
  2  3  1  0
  3  4  2  0
  5  7  1  0
  5  4  1  0
  6  5  2  0
  7  8  2  0
  8  9  1  0
 10  9  2  0
 11 10  1  0
 12 11  2  0
 13 12  1  0
 14 15  1  0
 14 13  2  0
 15 16  2  0
 16  7  1  0
 16 11  1  0
 17 22  2  0
 18 19  2  0
 18 17  1  0
 19 20  1  0
 20 21  2  0
 21  1  1  0
 22 21  1  0
  2 23  1  0
  3 24  1  0
  4 25  1  0
  9 26  1  0
 12 27  1  0
 13 28  1  0
 14 29  1  0
 15 30  1  0
 17 31  1  0
 18 32  1  0
 19 33  1  0
M  ISO  8  23  14  24  14  25  14  26  14  27  14  28  14  29  14  30  14
M  ISO  3  31  14  32  14  33  14
M  END
>  <minimizedAffinity>  (1) 
-5.58225012

>  <minimizedRMSD>  (1) 
6.19267321

$$$$
