
     RDKit          3D

 26 28  0  0  0  0  0  0  0  0999 V2000
   38.2290   31.8640   40.7990 C   0  0  0  0  0  0  0  0  0  0  0  0
   36.8830   31.8410   40.4460 C   0  0  0  0  0  0  0  0  0  0  0  0
   36.1470   30.7250   40.8200 C   0  0  0  0  0  0  0  0  0  0  0  0
   36.7730   29.7040   41.5150 C   0  0  0  0  0  0  0  0  0  0  0  0
   38.0900   29.7470   41.8520 C   0  0  0  0  0  0  0  0  0  0  0  0
   38.8000   30.8330   41.4850 N   0  0  0  0  0  0  0  0  0  0  0  0
   38.7500   28.6920   42.5740 N   0  0  0  0  0  0  0  0  0  0  0  0
   40.1050   28.7070   42.7370 C   0  0  0  0  0  0  0  0  0  0  0  0
   40.5390   27.6110   43.4560 C   0  0  0  0  0  0  0  0  0  0  0  0
   39.4070   26.9430   43.7180 N   0  0  0  0  0  0  0  0  0  0  0  0
   38.3470   27.5860   43.1930 C   0  0  0  0  0  0  0  0  0  0  0  0
   40.9420   33.8370   39.3320 C   0  0  0  0  0  0  0  0  0  0  0  0
   40.6170   35.1530   39.7030 C   0  0  0  0  0  0  0  0  0  0  0  0
   39.4440   35.3600   40.4720 C   0  0  0  0  0  0  0  0  0  0  0  0
   38.7140   34.2670   40.7960 N   0  0  0  0  0  0  0  0  0  0  0  0
   39.0530   33.0260   40.4240 C   0  0  0  0  0  0  0  0  0  0  0  0
   40.1650   32.8080   39.6930 N   0  0  0  0  0  0  0  0  0  0  0  0
   36.4215   32.6727   39.8935 H   0  0  0  0  0  0  0  0  0  0  0  0
   35.0789   30.6526   40.5672 H   0  0  0  0  0  0  0  0  0  0  0  0
   36.1818   28.8233   41.8061 H   0  0  0  0  0  0  0  0  0  0  0  0
   40.7675   29.4928   42.3451 H   0  0  0  0  0  0  0  0  0  0  0  0
   41.5676   27.3489   43.7447 H   0  0  0  0  0  0  0  0  0  0  0  0
   37.3030   27.2470   43.2653 H   0  0  0  0  0  0  0  0  0  0  0  0
   41.8477   33.6496   38.7365 H   0  0  0  0  0  0  0  0  0  0  0  0
   41.2546   35.9984   39.4052 H   0  0  0  0  0  0  0  0  0  0  0  0
   39.1396   36.3674   40.7922 H   0  0  0  0  0  0  0  0  0  0  0  0
  1  6  1  0
  2  1  2  0
  2  3  1  0
  3  4  2  0
  4  5  1  0
  5  7  1  0
  6  5  2  0
  7  8  1  0
  7 11  1  0
  8  9  2  0
  9 10  1  0
 11 10  2  0
 12 17  2  0
 12 13  1  0
 13 14  2  0
 14 15  1  0
 16 15  2  0
 16  1  1  0
 17 16  1  0
  2 18  1  0
  3 19  1  0
  4 20  1  0
  8 21  1  0
  9 22  1  0
 11 23  1  0
 12 24  1  0
 13 25  1  0
 14 26  1  0
M  ISO  8  18  14  19  14  20  14  21  14  22  14  23  14  24  14  25  14
M  ISO  1  26  14
M  END
>  <minimizedAffinity>  (1) 
-5.31611061

>  <minimizedRMSD>  (1) 
6.13081026

$$$$
