
     RDKit          3D

 33 36  0  0  0  0  0  0  0  0999 V2000
   37.9570   27.9770   41.5500 C   0  0  0  0  0  0  0  0  0  0  0  0
   37.6320   29.0040   42.4250 C   0  0  0  0  0  0  0  0  0  0  0  0
   37.0810   30.1620   41.9150 C   0  0  0  0  0  0  0  0  0  0  0  0
   36.8830   30.2230   40.5280 C   0  0  0  0  0  0  0  0  0  0  0  0
   37.2060   29.2090   39.6860 C   0  0  0  0  0  0  0  0  0  0  0  0
   37.7440   28.0900   40.2170 N   0  0  0  0  0  0  0  0  0  0  0  0
   36.9820   29.3190   38.2490 C   0  0  0  0  0  0  0  0  0  0  0  0
   37.9720   29.5900   37.3060 C   0  0  0  0  0  0  0  0  0  0  0  0
   37.3490   29.6050   36.1040 N   0  0  0  0  0  0  0  0  0  0  0  0
   36.0330   29.3610   36.2320 C   0  0  0  0  0  0  0  0  0  0  0  0
   34.9900   29.2710   35.3330 C   0  0  0  0  0  0  0  0  0  0  0  0
   33.6960   29.0010   35.7510 C   0  0  0  0  0  0  0  0  0  0  0  0
   33.5310   28.8310   37.1090 C   0  0  0  0  0  0  0  0  0  0  0  0
   34.5320   28.9080   38.0590 C   0  0  0  0  0  0  0  0  0  0  0  0
   35.7840   29.1780   37.5780 C   0  0  0  0  0  0  0  0  0  0  0  0
   39.9220   25.7270   43.6780 C   0  0  0  0  0  0  0  0  0  0  0  0
   39.6580   24.4620   43.1340 C   0  0  0  0  0  0  0  0  0  0  0  0
   38.7920   24.3810   42.0190 C   0  0  0  0  0  0  0  0  0  0  0  0
   38.2760   25.5370   41.5530 N   0  0  0  0  0  0  0  0  0  0  0  0
   38.5420   26.7470   42.0910 C   0  0  0  0  0  0  0  0  0  0  0  0
   39.3690   26.8270   43.1560 N   0  0  0  0  0  0  0  0  0  0  0  0
   37.8103   28.8970   43.5052 H   0  0  0  0  0  0  0  0  0  0  0  0
   36.8083   31.0028   42.5697 H   0  0  0  0  0  0  0  0  0  0  0  0
   36.4445   31.1374   40.1018 H   0  0  0  0  0  0  0  0  0  0  0  0
   39.0419   29.7576   37.4991 H   0  0  0  0  0  0  0  0  0  0  0  0
   37.8226   29.7808   35.2064 H   0  0  0  0  0  0  0  0  0  0  0  0
   35.1897   29.4167   34.2611 H   0  0  0  0  0  0  0  0  0  0  0  0
   32.8557   28.9272   35.0450 H   0  0  0  0  0  0  0  0  0  0  0  0
   32.5138   28.6152   37.4679 H   0  0  0  0  0  0  0  0  0  0  0  0
   34.3350   28.7618   39.1313 H   0  0  0  0  0  0  0  0  0  0  0  0
   40.5927   25.8158   44.5454 H   0  0  0  0  0  0  0  0  0  0  0  0
   40.1124   23.5568   43.5631 H   0  0  0  0  0  0  0  0  0  0  0  0
   38.5492   23.4155   41.5511 H   0  0  0  0  0  0  0  0  0  0  0  0
  1 20  1  0
  1  2  2  0
  3  2  1  0
  4  3  2  0
  5  6  2  0
  5  4  1  0
  6  1  1  0
  7  5  1  0
  8  7  2  0
  9 10  1  0
  9  8  1  0
 10 15  2  0
 11 12  2  0
 11 10  1  0
 12 13  1  0
 13 14  2  0
 15 14  1  0
 15  7  1  0
 17 16  2  0
 18 17  1  0
 19 18  2  0
 19 20  1  0
 20 21  2  0
 21 16  1  0
  2 22  1  0
  3 23  1  0
  4 24  1  0
  8 25  1  0
  9 26  1  0
 11 27  1  0
 12 28  1  0
 13 29  1  0
 14 30  1  0
 16 31  1  0
 17 32  1  0
 18 33  1  0
M  ISO  8  22  14  23  14  24  14  25  14  26   9  27  14  28  14  29  14
M  ISO  4  30  14  31  14  32  14  33  14
M  END
>  <minimizedAffinity>  (1) 
-5.31583118

>  <minimizedRMSD>  (1) 
3.6630218

$$$$
