
     RDKit          3D

 29 31  0  0  0  0  0  0  0  0999 V2000
   37.6960   30.0770   40.8370 C   0  0  0  0  0  0  0  0  0  0  0  0
   37.9500   31.4240   41.0560 C   0  0  0  0  0  0  0  0  0  0  0  0
   37.6110   32.3080   40.0370 C   0  0  0  0  0  0  0  0  0  0  0  0
   37.0490   31.8110   38.8750 C   0  0  0  0  0  0  0  0  0  0  0  0
   36.8120   30.4870   38.6880 C   0  0  0  0  0  0  0  0  0  0  0  0
   37.1400   29.6390   39.6740 N   0  0  0  0  0  0  0  0  0  0  0  0
   39.6300   27.6940   42.8410 C   0  0  0  0  0  0  0  0  0  0  0  0
   38.7270   27.2990   43.8340 C   0  0  0  0  0  0  0  0  0  0  0  0
   37.4220   27.8680   43.8130 C   0  0  0  0  0  0  0  0  0  0  0  0
   37.1650   28.7470   42.8260 N   0  0  0  0  0  0  0  0  0  0  0  0
   38.0370   29.1130   41.8860 C   0  0  0  0  0  0  0  0  0  0  0  0
   39.2710   28.5770   41.9040 N   0  0  0  0  0  0  0  0  0  0  0  0
   36.2230   29.9100   37.4850 C   0  0  0  0  0  0  0  0  0  0  0  0
   36.8820   30.0760   36.2840 C   0  0  0  0  0  0  0  0  0  0  0  0
   36.3890   29.5590   35.0880 C   0  0  0  0  0  0  0  0  0  0  0  0
   35.1900   28.8590   35.1600 C   0  0  0  0  0  0  0  0  0  0  0  0
   34.4830   28.6590   36.3320 C   0  0  0  0  0  0  0  0  0  0  0  0
   35.0390   29.2040   37.4710 C   0  0  0  0  0  0  0  0  0  0  0  0
   38.4002   31.7773   41.9954 H   0  0  0  0  0  0  0  0  0  0  0  0
   37.7874   33.3875   40.1537 H   0  0  0  0  0  0  0  0  0  0  0  0
   36.7841   32.5147   38.0721 H   0  0  0  0  0  0  0  0  0  0  0  0
   40.6463   27.2733   42.8313 H   0  0  0  0  0  0  0  0  0  0  0  0
   39.0162   26.5716   44.6068 H   0  0  0  0  0  0  0  0  0  0  0  0
   36.6632   27.6032   44.5641 H   0  0  0  0  0  0  0  0  0  0  0  0
   37.8289   30.6356   36.2705 H   0  0  0  0  0  0  0  0  0  0  0  0
   36.9212   29.6976   34.1353 H   0  0  0  0  0  0  0  0  0  0  0  0
   34.7792   28.4393   34.2299 H   0  0  0  0  0  0  0  0  0  0  0  0
   33.5359   28.0999   36.3545 H   0  0  0  0  0  0  0  0  0  0  0  0
   34.5064   29.0672   38.4237 H   0  0  0  0  0  0  0  0  0  0  0  0
  1  2  2  0
  1 11  1  0
  3  2  1  0
  4  3  2  0
  5  4  1  0
  5  6  2  0
  6  1  1  0
  7  8  2  0
  9  8  1  0
 10  9  2  0
 11 12  2  0
 11 10  1  0
 12  7  1  0
 13  5  1  0
 14 13  2  0
 15 16  2  0
 15 14  1  0
 16 17  1  0
 17 18  2  0
 18 13  1  0
  2 19  1  0
  3 20  1  0
  4 21  1  0
  7 22  1  0
  8 23  1  0
  9 24  1  0
 14 25  1  0
 15 26  1  0
 16 27  1  0
 17 28  1  0
 18 29  1  0
M  ISO  8  19  14  20  14  21  14  22  14  23  14  24  14  25  14  26  14
M  ISO  3  27  14  28  14  29  14
M  END
>  <minimizedAffinity>  (1) 
-4.83611202

>  <minimizedRMSD>  (1) 
2.17725825

$$$$
