
     RDKit          3D

 31 33  0  0  0  0  0  0  0  0999 V2000
   37.1750   30.1220   40.4280 C   0  0  0  0  0  0  0  0  0  0  0  0
   37.1790   31.5060   40.5420 C   0  0  0  0  0  0  0  0  0  0  0  0
   37.1770   32.2620   39.3850 C   0  0  0  0  0  0  0  0  0  0  0  0
   37.1690   31.5800   38.1600 C   0  0  0  0  0  0  0  0  0  0  0  0
   37.1650   30.2100   38.0620 C   0  0  0  0  0  0  0  0  0  0  0  0
   37.1680   29.5160   39.2130 N   0  0  0  0  0  0  0  0  0  0  0  0
   37.1580   29.5600   36.7920 N   0  0  0  0  0  0  0  0  0  0  0  0
   38.0050   28.4320   36.4590 C   0  0  0  0  0  0  0  0  0  0  0  0
   37.2400   27.7700   35.3450 C   0  0  0  0  0  0  0  0  0  0  0  0
   36.6610   28.9520   34.5990 C   0  0  0  0  0  0  0  0  0  0  0  0
   36.3050   29.9450   35.6830 C   0  0  0  0  0  0  0  0  0  0  0  0
   38.0590   28.9050   43.7710 C   0  0  0  0  0  0  0  0  0  0  0  0
   37.2140   27.8130   43.9540 C   0  0  0  0  0  0  0  0  0  0  0  0
   36.3270   27.4880   42.9140 C   0  0  0  0  0  0  0  0  0  0  0  0
   36.3580   28.2700   41.7990 N   0  0  0  0  0  0  0  0  0  0  0  0
   37.1790   29.3090   41.6530 C   0  0  0  0  0  0  0  0  0  0  0  0
   38.0250   29.6190   42.6410 N   0  0  0  0  0  0  0  0  0  0  0  0
   37.1837   31.9893   41.5301 H   0  0  0  0  0  0  0  0  0  0  0  0
   37.1815   33.3613   39.4239 H   0  0  0  0  0  0  0  0  0  0  0  0
   37.1658   32.1709   37.2322 H   0  0  0  0  0  0  0  0  0  0  0  0
   38.9959   28.7658   36.1175 H   0  0  0  0  0  0  0  0  0  0  0  0
   38.2042   27.7657   37.3113 H   0  0  0  0  0  0  0  0  0  0  0  0
   37.9078   27.1807   34.6994 H   0  0  0  0  0  0  0  0  0  0  0  0
   36.4791   27.0582   35.6977 H   0  0  0  0  0  0  0  0  0  0  0  0
   37.4042   29.3787   33.9094 H   0  0  0  0  0  0  0  0  0  0  0  0
   35.7924   28.6743   33.9839 H   0  0  0  0  0  0  0  0  0  0  0  0
   36.5216   30.9738   35.3597 H   0  0  0  0  0  0  0  0  0  0  0  0
   35.2358   29.9309   35.9412 H   0  0  0  0  0  0  0  0  0  0  0  0
   38.7645   29.1840   44.5675 H   0  0  0  0  0  0  0  0  0  0  0  0
   37.2403   27.2241   44.8827 H   0  0  0  0  0  0  0  0  0  0  0  0
   35.6355   26.6365   42.9968 H   0  0  0  0  0  0  0  0  0  0  0  0
  1  2  2  0
  1 16  1  0
  3  2  1  0
  4  3  2  0
  5  4  1  0
  5  6  2  0
  6  1  1  0
  7  5  1  0
  8  7  1  0
  9  8  1  0
 10  9  1  0
 10 11  1  0
 11  7  1  0
 12 13  2  0
 14 13  1  0
 15 14  2  0
 16 15  1  0
 16 17  2  0
 17 12  1  0
  2 18  1  0
  3 19  1  0
  4 20  1  0
  8 21  1  0
  8 22  1  0
  9 23  1  0
  9 24  1  0
 10 25  1  0
 10 26  1  0
 11 27  1  0
 11 28  1  0
 12 29  1  0
 13 30  1  0
 14 31  1  0
M  ISO  8  18  14  19  14  20  14  21  13  22  13  23  13  24  13  25  13
M  ISO  6  26  13  27  13  28  13  29  14  30  14  31  14
M  END
>  <minimizedAffinity>  (1) 
-4.63621616

>  <minimizedRMSD>  (1) 
0.864109039

$$$$
