
     RDKit          3D

 26 28  0  0  0  0  0  0  0  0999 V2000
   37.1960   30.2440   40.2720 C   0  0  0  0  0  0  0  0  0  0  0  0
   37.3520   31.6170   40.4130 C   0  0  0  0  0  0  0  0  0  0  0  0
   37.3370   32.3780   39.2540 C   0  0  0  0  0  0  0  0  0  0  0  0
   37.1690   31.7270   38.0270 C   0  0  0  0  0  0  0  0  0  0  0  0
   37.0200   30.3810   37.9230 C   0  0  0  0  0  0  0  0  0  0  0  0
   37.0360   29.6540   39.0580 N   0  0  0  0  0  0  0  0  0  0  0  0
   38.1030   28.9560   43.5770 C   0  0  0  0  0  0  0  0  0  0  0  0
   37.2610   27.8500   43.7440 C   0  0  0  0  0  0  0  0  0  0  0  0
   36.3690   27.5420   42.7050 C   0  0  0  0  0  0  0  0  0  0  0  0
   36.3810   28.3410   41.6020 N   0  0  0  0  0  0  0  0  0  0  0  0
   37.2050   29.3940   41.4830 C   0  0  0  0  0  0  0  0  0  0  0  0
   38.0710   29.7070   42.4710 N   0  0  0  0  0  0  0  0  0  0  0  0
   36.8450   29.7040   36.6430 C   0  0  0  0  0  0  0  0  0  0  0  0
   36.6310   28.3530   36.4640 C   0  0  0  0  0  0  0  0  0  0  0  0
   36.5230   28.1320   35.1390 N   0  0  0  0  0  0  0  0  0  0  0  0
   36.6700   29.3370   34.5420 C   0  0  0  0  0  0  0  0  0  0  0  0
   36.8670   30.3040   35.4380 N   0  0  0  0  0  0  0  0  0  0  0  0
   37.4819   32.0808   41.4019 H   0  0  0  0  0  0  0  0  0  0  0  0
   37.4547   33.4708   39.2983 H   0  0  0  0  0  0  0  0  0  0  0  0
   37.1571   32.3309   37.1076 H   0  0  0  0  0  0  0  0  0  0  0  0
   38.8109   29.2145   44.3782 H   0  0  0  0  0  0  0  0  0  0  0  0
   37.2973   27.2420   44.6600 H   0  0  0  0  0  0  0  0  0  0  0  0
   35.6837   26.6847   42.7790 H   0  0  0  0  0  0  0  0  0  0  0  0
   36.5613   27.5947   37.2578 H   0  0  0  0  0  0  0  0  0  0  0  0
   36.6318   29.4984   33.4546 H   0  0  0  0  0  0  0  0  0  0  0  0
   37.0075   31.3064   35.2473 H   0  0  0  0  0  0  0  0  0  0  0  0
  1  2  2  0
  1 11  1  0
  3  2  1  0
  4  3  2  0
  5  4  1  0
  5  6  2  0
  6  1  1  0
  7  8  2  0
  9  8  1  0
 10  9  2  0
 11 10  1  0
 11 12  2  0
 12  7  1  0
 13  5  1  0
 14 13  2  0
 15 14  1  0
 16 15  2  0
 16 17  1  0
 17 13  1  0
  2 18  1  0
  3 19  1  0
  4 20  1  0
  7 21  1  0
  8 22  1  0
  9 23  1  0
 14 24  1  0
 16 25  1  0
 17 26  1  0
M  ISO  8  18  14  19  14  20  14  21  14  22  14  23  14  24  14  25  14
M  ISO  1  26   9
M  END
>  <minimizedAffinity>  (1) 
-4.61894989

>  <minimizedRMSD>  (1) 
1.02653456

$$$$
