
     RDKit          3D

 32 34  0  0  0  0  0  0  0  0999 V2000
   37.1720   30.2520   40.4310 C   0  0  0  0  0  0  0  0  0  0  0  0
   37.3190   31.6090   40.6200 C   0  0  0  0  0  0  0  0  0  0  0  0
   37.3380   32.4310   39.5070 C   0  0  0  0  0  0  0  0  0  0  0  0
   37.2060   31.8440   38.2590 C   0  0  0  0  0  0  0  0  0  0  0  0
   37.0590   30.4860   38.0800 C   0  0  0  0  0  0  0  0  0  0  0  0
   37.0450   29.7140   39.1840 N   0  0  0  0  0  0  0  0  0  0  0  0
   36.9250   29.9000   36.7870 N   0  0  0  0  0  0  0  0  0  0  0  0
   36.6150   30.7500   35.6500 C   0  0  0  0  0  0  0  0  0  0  0  0
   36.1070   29.9360   34.4770 C   0  0  0  0  0  0  0  0  0  0  0  0
   36.9860   28.8560   34.3210 O   0  0  0  0  0  0  0  0  0  0  0  0
   36.6820   27.9450   35.3250 C   0  0  0  0  0  0  0  0  0  0  0  0
   37.1090   28.4650   36.6750 C   0  0  0  0  0  0  0  0  0  0  0  0
   37.9770   28.8280   43.7060 C   0  0  0  0  0  0  0  0  0  0  0  0
   37.1400   27.7180   43.8020 C   0  0  0  0  0  0  0  0  0  0  0  0
   36.2840   27.4560   42.7240 C   0  0  0  0  0  0  0  0  0  0  0  0
   36.3240   28.2950   41.6570 N   0  0  0  0  0  0  0  0  0  0  0  0
   37.1490   29.3530   41.6080 C   0  0  0  0  0  0  0  0  0  0  0  0
   37.9850   29.6340   42.6290 N   0  0  0  0  0  0  0  0  0  0  0  0
   37.4189   32.0289   41.6318 H   0  0  0  0  0  0  0  0  0  0  0  0
   37.4546   33.5199   39.6102 H   0  0  0  0  0  0  0  0  0  0  0  0
   37.2192   32.4920   37.3703 H   0  0  0  0  0  0  0  0  0  0  0  0
   35.8420   31.4750   35.9447 H   0  0  0  0  0  0  0  0  0  0  0  0
   37.5356   31.2669   35.3414 H   0  0  0  0  0  0  0  0  0  0  0  0
   35.0903   29.5698   34.6825 H   0  0  0  0  0  0  0  0  0  0  0  0
   36.0658   30.5459   33.5625 H   0  0  0  0  0  0  0  0  0  0  0  0
   35.5962   27.7692   35.3344 H   0  0  0  0  0  0  0  0  0  0  0  0
   37.2226   27.0084   35.1235 H   0  0  0  0  0  0  0  0  0  0  0  0
   36.5103   27.9683   37.4527 H   0  0  0  0  0  0  0  0  0  0  0  0
   38.1803   28.2487   36.7994 H   0  0  0  0  0  0  0  0  0  0  0  0
   38.6561   29.0534   44.5415 H   0  0  0  0  0  0  0  0  0  0  0  0
   37.1509   27.0711   44.6916 H   0  0  0  0  0  0  0  0  0  0  0  0
   35.5992   26.5953   42.7416 H   0  0  0  0  0  0  0  0  0  0  0  0
  1  2  2  0
  1 17  1  0
  3  2  1  0
  4  3  2  0
  5  4  1  0
  5  6  2  0
  6  1  1  0
  7  5  1  0
  8  7  1  0
  9  8  1  0
 10  9  1  0
 10 11  1  0
 11 12  1  0
 12  7  1  0
 13 14  2  0
 15 14  1  0
 16 15  2  0
 17 16  1  0
 17 18  2  0
 18 13  1  0
  2 19  1  0
  3 20  1  0
  4 21  1  0
  8 22  1  0
  8 23  1  0
  9 24  1  0
  9 25  1  0
 11 26  1  0
 11 27  1  0
 12 28  1  0
 12 29  1  0
 13 30  1  0
 14 31  1  0
 15 32  1  0
M  ISO  8  19  14  20  14  21  14  22  13  23  13  24  13  25  13  26  13
M  ISO  6  27  13  28  13  29  13  30  14  31  14  32  14
M  END
>  <minimizedAffinity>  (1) 
-4.53772831

>  <minimizedRMSD>  (1) 
1.05738008

$$$$
