
     RDKit          3D

 22 23  0  0  0  0  0  0  0  0999 V2000
   37.2420   30.4860   40.3240 C   0  0  0  0  0  0  0  0  0  0  0  0
   37.2950   31.8490   40.5850 C   0  0  0  0  0  0  0  0  0  0  0  0
   37.3140   32.6980   39.4780 C   0  0  0  0  0  0  0  0  0  0  0  0
   37.2800   32.1450   38.1940 C   0  0  0  0  0  0  0  0  0  0  0  0
   37.2290   30.8060   37.9870 C   0  0  0  0  0  0  0  0  0  0  0  0
   37.2100   30.0030   39.0550 N   0  0  0  0  0  0  0  0  0  0  0  0
   38.0650   28.9170   43.5390 C   0  0  0  0  0  0  0  0  0  0  0  0
   37.2000   27.8280   43.5970 C   0  0  0  0  0  0  0  0  0  0  0  0
   36.3170   27.6250   42.5170 C   0  0  0  0  0  0  0  0  0  0  0  0
   36.3640   28.5060   41.4820 N   0  0  0  0  0  0  0  0  0  0  0  0
   37.2200   29.5540   41.4610 C   0  0  0  0  0  0  0  0  0  0  0  0
   38.0580   29.7480   42.4860 N   0  0  0  0  0  0  0  0  0  0  0  0
   37.1930   30.2280   36.6470 C   0  0  0  0  0  0  0  0  0  0  0  0
   37.1130   28.9840   36.4770 O   0  0  0  0  0  0  0  0  0  0  0  0
   37.2490   31.0460   35.5270 O   0  0  0  0  0  0  0  0  0  0  0  0
   37.3207   32.2396   41.6130 H   0  0  0  0  0  0  0  0  0  0  0  0
   37.3552   33.7888   39.6135 H   0  0  0  0  0  0  0  0  0  0  0  0
   37.2951   32.8180   37.3240 H   0  0  0  0  0  0  0  0  0  0  0  0
   38.7643   29.0987   44.3685 H   0  0  0  0  0  0  0  0  0  0  0  0
   37.2053   27.1460   44.4600 H   0  0  0  0  0  0  0  0  0  0  0  0
   35.6121   26.7805   42.5116 H   0  0  0  0  0  0  0  0  0  0  0  0
   37.2241   30.6474   34.6211 H   0  0  0  0  0  0  0  0  0  0  0  0
  1  2  2  0
  1 11  1  0
  3  2  1  0
  4  3  2  0
  5  4  1  0
  5  6  2  0
  6  1  1  0
  7  8  2  0
  9  8  1  0
 10  9  2  0
 11 10  1  0
 11 12  2  0
 12  7  1  0
 13  5  1  0
 14 13  2  0
 15 13  1  0
  2 16  1  0
  3 17  1  0
  4 18  1  0
  7 19  1  0
  8 20  1  0
  9 21  1  0
 15 22  1  0
M  ISO  7  16  14  17  14  18  14  19  14  20  14  21  14  22   3
M  END
>  <minimizedAffinity>  (1) 
-4.39496613

>  <minimizedRMSD>  (1) 
0.592599332

$$$$
