
     RDKit          3D

 20 21  0  0  0  0  0  0  0  0999 V2000
   37.3390   30.4480   40.2010 C   0  0  0  0  0  0  0  0  0  0  0  0
   37.1260   31.7990   40.3990 C   0  0  0  0  0  0  0  0  0  0  0  0
   37.1860   32.6040   39.2630 C   0  0  0  0  0  0  0  0  0  0  0  0
   37.4510   32.0260   38.0290 C   0  0  0  0  0  0  0  0  0  0  0  0
   37.6560   30.6880   37.8710 C   0  0  0  0  0  0  0  0  0  0  0  0
   37.5930   29.9320   38.9730 N   0  0  0  0  0  0  0  0  0  0  0  0
   38.0800   28.9710   43.4770 C   0  0  0  0  0  0  0  0  0  0  0  0
   37.2110   27.8780   43.5490 C   0  0  0  0  0  0  0  0  0  0  0  0
   36.3590   27.6450   42.4580 C   0  0  0  0  0  0  0  0  0  0  0  0
   36.4470   28.5020   41.4170 N   0  0  0  0  0  0  0  0  0  0  0  0
   37.2880   29.5450   41.3670 C   0  0  0  0  0  0  0  0  0  0  0  0
   38.1040   29.7720   42.4070 N   0  0  0  0  0  0  0  0  0  0  0  0
   37.9130   30.2030   36.5950 O   0  0  0  0  0  0  0  0  0  0  0  0
   36.9208   32.2152   41.3963 H   0  0  0  0  0  0  0  0  0  0  0  0
   37.0246   33.6891   39.3435 H   0  0  0  0  0  0  0  0  0  0  0  0
   37.4974   32.6749   37.1420 H   0  0  0  0  0  0  0  0  0  0  0  0
   38.7581   29.1761   44.3185 H   0  0  0  0  0  0  0  0  0  0  0  0
   37.1955   27.2220   44.4319 H   0  0  0  0  0  0  0  0  0  0  0  0
   35.6516   26.8027   42.4508 H   0  0  0  0  0  0  0  0  0  0  0  0
   38.0652   29.2349   36.4548 H   0  0  0  0  0  0  0  0  0  0  0  0
  1  2  2  0
  1 11  1  0
  3  2  1  0
  4  3  2  0
  5  4  1  0
  5  6  2  0
  6  1  1  0
  7  8  2  0
  9  8  1  0
 10  9  2  0
 11 10  1  0
 11 12  2  0
 12  7  1  0
 13  5  1  0
  2 14  1  0
  3 15  1  0
  4 16  1  0
  7 17  1  0
  8 18  1  0
  9 19  1  0
 13 20  1  0
M  ISO  7  14  14  15  14  16  14  17  14  18  14  19  14  20   3
M  END
>  <minimizedAffinity>  (1) 
-4.27511454

>  <minimizedRMSD>  (1) 
0.0810076594

$$$$
