
     RDKit          3D

 34 37  0  0  0  0  0  0  0  0999 V2000
   38.1020   29.0220   41.3230 C   0  0  0  0  0  0  0  0  0  0  0  0
   38.8570   30.1630   41.4420 C   0  0  0  0  0  0  0  0  0  0  0  0
   39.9300   30.1170   42.3350 C   0  0  0  0  0  0  0  0  0  0  0  0
   40.1700   28.9400   43.0440 C   0  0  0  0  0  0  0  0  0  0  0  0
   39.4050   27.8300   42.9030 C   0  0  0  0  0  0  0  0  0  0  0  0
   38.3790   27.8900   42.0420 N   0  0  0  0  0  0  0  0  0  0  0  0
   34.6680   29.1390   40.0830 C   0  0  0  0  0  0  0  0  0  0  0  0
   34.8020   28.9730   38.6970 C   0  0  0  0  0  0  0  0  0  0  0  0
   36.0920   28.8220   38.1940 C   0  0  0  0  0  0  0  0  0  0  0  0
   37.1290   28.8430   39.0750 N   0  0  0  0  0  0  0  0  0  0  0  0
   36.9660   29.0040   40.4030 C   0  0  0  0  0  0  0  0  0  0  0  0
   35.7250   29.1510   40.9010 N   0  0  0  0  0  0  0  0  0  0  0  0
   39.7630   26.3580   43.8400 S   0  0  0  0  0  0  0  0  0  0  0  0
   41.4990   25.9590   43.5590 C   0  0  0  0  0  0  0  0  0  0  0  0
   42.0220   25.1780   42.5300 C   0  0  0  0  0  0  0  0  0  0  0  0
   43.3640   25.1460   42.7070 N   0  0  0  0  0  0  0  0  0  0  0  0
   43.6680   25.8730   43.7970 C   0  0  0  0  0  0  0  0  0  0  0  0
   44.8900   26.1590   44.4090 C   0  0  0  0  0  0  0  0  0  0  0  0
   44.8830   26.9600   45.5530 C   0  0  0  0  0  0  0  0  0  0  0  0
   43.7410   27.4820   46.1070 C   0  0  0  0  0  0  0  0  0  0  0  0
   42.5340   27.1930   45.4950 C   0  0  0  0  0  0  0  0  0  0  0  0
   42.5300   26.4030   44.3650 C   0  0  0  0  0  0  0  0  0  0  0  0
   38.6278   31.0692   40.8621 H   0  0  0  0  0  0  0  0  0  0  0  0
   40.5761   30.9958   42.4770 H   0  0  0  0  0  0  0  0  0  0  0  0
   41.0155   28.9114   43.7470 H   0  0  0  0  0  0  0  0  0  0  0  0
   33.6620   29.2632   40.5102 H   0  0  0  0  0  0  0  0  0  0  0  0
   33.9242   28.9625   38.0342 H   0  0  0  0  0  0  0  0  0  0  0  0
   36.2675   28.6896   37.1162 H   0  0  0  0  0  0  0  0  0  0  0  0
   41.4540   24.6830   41.7285 H   0  0  0  0  0  0  0  0  0  0  0  0
   44.0384   24.6488   42.1079 H   0  0  0  0  0  0  0  0  0  0  0  0
   45.8323   25.7643   44.0013 H   0  0  0  0  0  0  0  0  0  0  0  0
   45.8452   27.1848   46.0364 H   0  0  0  0  0  0  0  0  0  0  0  0
   43.7838   28.1102   47.0090 H   0  0  0  0  0  0  0  0  0  0  0  0
   41.5921   27.5875   45.9038 H   0  0  0  0  0  0  0  0  0  0  0  0
  1  2  2  0
  1  6  1  0
  2  3  1  0
  3  4  2  0
  5  4  1  0
  5 13  1  0
  6  5  2  0
  7 12  2  0
  8  7  1  0
  9  8  2  0
  9 10  1  0
 10 11  2  0
 11 12  1  0
 11  1  1  0
 14 13  1  0
 14 22  1  0
 15 16  1  0
 15 14  2  0
 16 17  1  0
 17 22  2  0
 17 18  1  0
 18 19  2  0
 19 20  1  0
 21 20  2  0
 22 21  1  0
  2 23  1  0
  3 24  1  0
  4 25  1  0
  7 26  1  0
  8 27  1  0
  9 28  1  0
 15 29  1  0
 16 30  1  0
 18 31  1  0
 19 32  1  0
 20 33  1  0
 21 34  1  0
M  ISO  8  23  14  24  14  25  14  26  14  27  14  28  14  29  14  30   9
M  ISO  4  31  14  32  14  33  14  34  14
M  END
>  <minimizedAffinity>  (1) 
-5.10406017

>  <minimizedRMSD>  (1) 
7.35142088

$$$$
