
     RDKit          3D

 27 29  0  0  0  0  0  0  0  0999 V2000
   37.1780   30.3460   40.3650 C   0  0  0  0  0  0  0  0  0  0  0  0
   37.2790   31.7070   40.5680 C   0  0  0  0  0  0  0  0  0  0  0  0
   37.2820   32.5170   39.4450 C   0  0  0  0  0  0  0  0  0  0  0  0
   37.1840   31.9400   38.1990 C   0  0  0  0  0  0  0  0  0  0  0  0
   37.0840   30.5820   38.0100 C   0  0  0  0  0  0  0  0  0  0  0  0
   37.0840   29.8220   39.1180 N   0  0  0  0  0  0  0  0  0  0  0  0
   38.0530   28.8920   43.6110 C   0  0  0  0  0  0  0  0  0  0  0  0
   37.2030   27.7800   43.7080 C   0  0  0  0  0  0  0  0  0  0  0  0
   36.3300   27.5360   42.6500 C   0  0  0  0  0  0  0  0  0  0  0  0
   36.3440   28.3870   41.5780 N   0  0  0  0  0  0  0  0  0  0  0  0
   37.1710   29.4390   41.5220 C   0  0  0  0  0  0  0  0  0  0  0  0
   38.0190   29.6850   42.5380 N   0  0  0  0  0  0  0  0  0  0  0  0
   36.9600   29.8800   36.3760 S   0  0  0  0  0  0  0  0  0  0  0  0
   37.7420   28.2990   36.3080 C   0  0  0  0  0  0  0  0  0  0  0  0
   39.0890   28.1320   36.5960 C   0  0  0  0  0  0  0  0  0  0  0  0
   39.4130   26.8300   36.4660 N   0  0  0  0  0  0  0  0  0  0  0  0
   38.2910   26.1550   36.0980 C   0  0  0  0  0  0  0  0  0  0  0  0
   37.3110   27.0690   36.0140 N   0  0  0  0  0  0  0  0  0  0  0  0
   37.3540   32.1311   41.5802 H   0  0  0  0  0  0  0  0  0  0  0  0
   37.3618   33.6093   39.5473 H   0  0  0  0  0  0  0  0  0  0  0  0
   37.1858   32.5948   37.3151 H   0  0  0  0  0  0  0  0  0  0  0  0
   38.7553   29.1127   44.4284 H   0  0  0  0  0  0  0  0  0  0  0  0
   37.2251   27.1228   44.5898 H   0  0  0  0  0  0  0  0  0  0  0  0
   35.6434   26.6769   42.6756 H   0  0  0  0  0  0  0  0  0  0  0  0
   39.7829   28.9352   36.8848 H   0  0  0  0  0  0  0  0  0  0  0  0
   38.2038   25.0752   35.9072 H   0  0  0  0  0  0  0  0  0  0  0  0
   36.3395   26.8476   35.7531 H   0  0  0  0  0  0  0  0  0  0  0  0
  1  2  2  0
  1 11  1  0
  3  2  1  0
  4  3  2  0
  5  4  1  0
  5  6  2  0
  6  1  1  0
  7  8  2  0
  9  8  1  0
 10  9  2  0
 11 10  1  0
 11 12  2  0
 12  7  1  0
 13  5  1  0
 14 13  1  0
 14 15  2  0
 16 15  1  0
 17 16  2  0
 18 17  1  0
 18 14  1  0
  2 19  1  0
  3 20  1  0
  4 21  1  0
  7 22  1  0
  8 23  1  0
  9 24  1  0
 15 25  1  0
 17 26  1  0
 18 27  1  0
M  ISO  8  19  14  20  14  21  14  22  14  23  14  24  14  25  14  26  14
M  ISO  1  27   9
M  END
>  <minimizedAffinity>  (1) 
-4.39201641

>  <minimizedRMSD>  (1) 
1.01689279

$$$$
