
     RDKit          3D

 33 35  0  0  0  0  0  0  0  0999 V2000
   37.7070   28.7170   43.8590 C   0  0  0  0  0  0  0  0  0  0  0  0
   37.0590   27.4620   43.8420 C   0  0  0  0  0  0  0  0  0  0  0  0
   36.5250   27.0080   42.6170 C   0  0  0  0  0  0  0  0  0  0  0  0
   36.6770   27.8160   41.5350 N   0  0  0  0  0  0  0  0  0  0  0  0
   37.3030   29.0110   41.5840 C   0  0  0  0  0  0  0  0  0  0  0  0
   37.8180   29.4620   42.7450 N   0  0  0  0  0  0  0  0  0  0  0  0
   37.3930   29.7590   40.3820 N   0  0  0  0  0  0  0  0  0  0  0  0
   36.8250   29.3470   39.2430 C   0  0  0  0  0  0  0  0  0  0  0  0
   37.0020   30.1800   38.1720 C   0  0  0  0  0  0  0  0  0  0  0  0
   37.7040   31.3720   38.1890 C   0  0  0  0  0  0  0  0  0  0  0  0
   37.8370   32.0970   37.1830 O   0  0  0  0  0  0  0  0  0  0  0  0
   38.2580   31.7390   39.3690 N   0  0  0  0  0  0  0  0  0  0  0  0
   38.0930   30.9250   40.4460 C   0  0  0  0  0  0  0  0  0  0  0  0
   38.6280   31.3100   41.5290 O   0  0  0  0  0  0  0  0  0  0  0  0
   39.0050   32.9500   39.5100 C   0  0  0  0  0  0  0  0  0  0  0  0
   40.3330   33.1670   39.2230 C   0  0  0  0  0  0  0  0  0  0  0  0
   40.8840   34.4150   39.4260 C   0  0  0  0  0  0  0  0  0  0  0  0
   40.1390   35.4730   39.9130 C   0  0  0  0  0  0  0  0  0  0  0  0
   38.8030   35.2360   40.1960 C   0  0  0  0  0  0  0  0  0  0  0  0
   38.2330   33.9800   39.9970 C   0  0  0  0  0  0  0  0  0  0  0  0
   36.4130   29.8170   36.8610 C   0  0  0  0  0  0  0  0  0  0  0  0
   38.1294   29.0926   44.8027 H   0  0  0  0  0  0  0  0  0  0  0  0
   36.9731   26.8565   44.7563 H   0  0  0  0  0  0  0  0  0  0  0  0
   36.0073   26.0404   42.5412 H   0  0  0  0  0  0  0  0  0  0  0  0
   36.2573   28.4075   39.1726 H   0  0  0  0  0  0  0  0  0  0  0  0
   40.9538   32.3471   38.8326 H   0  0  0  0  0  0  0  0  0  0  0  0
   41.9475   34.5732   39.1936 H   0  0  0  0  0  0  0  0  0  0  0  0
   40.5891   36.4644   40.0698 H   0  0  0  0  0  0  0  0  0  0  0  0
   38.1806   36.0552   40.5852 H   0  0  0  0  0  0  0  0  0  0  0  0
   37.1707   33.8126   40.2282 H   0  0  0  0  0  0  0  0  0  0  0  0
   35.4865   29.2460   37.0208 H   0  0  0  0  0  0  0  0  0  0  0  0
   36.1865   30.7324   36.2947 H   0  0  0  0  0  0  0  0  0  0  0  0
   37.1289   29.2032   36.2947 H   0  0  0  0  0  0  0  0  0  0  0  0
  2  1  2  0
  3  2  1  0
  4  5  1  0
  4  3  2  0
  5  6  2  0
  6  1  1  0
  7 13  1  0
  7  5  1  0
  8  7  1  0
  9 10  1  0
  9  8  2  0
 10 12  1  0
 11 10  2  0
 12 15  1  0
 12 13  1  0
 13 14  2  0
 15 20  2  0
 16 17  2  0
 16 15  1  0
 17 18  1  0
 18 19  2  0
 20 19  1  0
 21  9  1  0
  1 22  1  0
  2 23  1  0
  3 24  1  0
  8 25  1  0
 16 26  1  0
 17 27  1  0
 18 28  1  0
 19 29  1  0
 20 30  1  0
 21 31  1  0
 21 32  1  0
 21 33  1  0
M  ISO  8  22  14  23  14  24  14  25  14  26  14  27  14  28  14  29  14
M  ISO  4  30  14  31   8  32   8  33   8
M  END
>  <minimizedAffinity>  (1) 
-6.13651037

>  <minimizedRMSD>  (1) 
3.09990454

$$$$
