
     RDKit          3D

 46 50  0  0  1  0  0  0  0  0999 V2000
   33.9580   26.8320   36.5830 N   0  0  0  0  0  0  0  0  0  0  0  0
   35.3200   26.9510   36.1390 C   0  0  0  0  0  0  0  0  0  0  0  0
   36.3170   27.0730   37.2660 C   0  0  0  0  0  0  0  0  0  0  0  0
   35.7150   27.6980   38.4900 C   0  0  2  0  0  0  0  0  0  0  0  0
   34.5720   28.6350   38.1470 C   0  0  0  0  0  0  0  0  0  0  0  0
   33.5030   27.9700   37.3550 C   0  0  1  0  0  0  0  0  0  0  0  0
   32.8350   28.9670   36.5350 N   0  0  0  0  0  0  0  0  0  0  0  0
   33.1660   29.2300   35.2590 C   0  0  0  0  0  0  0  0  0  0  0  0
   32.3480   30.1990   34.8150 N   0  0  0  0  0  0  0  0  0  0  0  0
   31.5120   30.5470   35.7870 C   0  0  0  0  0  0  0  0  0  0  0  0
   30.4710   31.4690   35.9100 C   0  0  0  0  0  0  0  0  0  0  0  0
   29.8250   31.5440   37.0910 N   0  0  0  0  0  0  0  0  0  0  0  0
   30.1190   30.7850   38.1620 C   0  0  0  0  0  0  0  0  0  0  0  0
   31.1240   29.8970   38.0380 N   0  0  0  0  0  0  0  0  0  0  0  0
   31.8120   29.7690   36.8890 C   0  0  0  0  0  0  0  0  0  0  0  0
   36.9810   28.7210   39.2890 S   0  0  0  0  0  0  0  0  0  0  0  0
   38.7290   27.1740   42.5740 C   0  0  0  0  0  0  0  0  0  0  0  0
   37.7620   27.2350   43.5480 C   0  0  0  0  0  0  0  0  0  0  0  0
   36.5240   27.7650   43.2070 C   0  0  0  0  0  0  0  0  0  0  0  0
   36.3210   28.2080   41.9020 C   0  0  0  0  0  0  0  0  0  0  0  0
   37.3010   28.1380   40.9440 C   0  0  0  0  0  0  0  0  0  0  0  0
   38.4890   27.6180   41.3100 N   0  0  0  0  0  0  0  0  0  0  0  0
   41.8620   26.5460   44.3510 C   0  0  0  0  0  0  0  0  0  0  0  0
   42.5300   25.6330   43.5220 C   0  0  0  0  0  0  0  0  0  0  0  0
   41.8830   25.2330   42.3320 C   0  0  0  0  0  0  0  0  0  0  0  0
   40.6570   25.7630   42.0770 N   0  0  0  0  0  0  0  0  0  0  0  0
   40.0460   26.6270   42.8810 C   0  0  0  0  0  0  0  0  0  0  0  0
   40.6630   26.9960   43.9950 N   0  0  0  0  0  0  0  0  0  0  0  0
   33.8778   25.9878   37.1676 H   0  0  0  0  0  0  0  0  0  0  0  0
   35.5718   26.0583   35.5477 H   0  0  0  0  0  0  0  0  0  0  0  0
   35.3862   27.8773   35.5494 H   0  0  0  0  0  0  0  0  0  0  0  0
   36.6837   26.0687   37.5249 H   0  0  0  0  0  0  0  0  0  0  0  0
   37.1362   27.7223   36.9234 H   0  0  0  0  0  0  0  0  0  0  0  0
   35.3464   26.8830   39.1303 H   0  0  0  0  0  0  0  0  0  0  0  0
   34.1337   29.0127   39.0825 H   0  0  0  0  0  0  0  0  0  0  0  0
   34.9829   29.4496   37.5326 H   0  0  0  0  0  0  0  0  0  0  0  0
   32.7835   27.5340   38.0637 H   0  0  0  0  0  0  0  0  0  0  0  0
   33.9637   28.7397   34.6817 H   0  0  0  0  0  0  0  0  0  0  0  0
   30.1859   32.1159   35.0673 H   0  0  0  0  0  0  0  0  0  0  0  0
   29.5596   30.8858   39.1037 H   0  0  0  0  0  0  0  0  0  0  0  0
   37.9622   26.8748   44.5679 H   0  0  0  0  0  0  0  0  0  0  0  0
   35.7190   27.8336   43.9535 H   0  0  0  0  0  0  0  0  0  0  0  0
   35.3415   28.6284   41.6301 H   0  0  0  0  0  0  0  0  0  0  0  0
   42.3265   26.8869   45.2881 H   0  0  0  0  0  0  0  0  0  0  0  0
   43.5229   25.2422   43.7892 H   0  0  0  0  0  0  0  0  0  0  0  0
   42.3527   24.5202   41.6382 H   0  0  0  0  0  0  0  0  0  0  0  0
  1  6  1  0
  2  1  1  0
  2  3  1  0
  3  4  1  0
  4 16  1  0
  5  4  1  0
  6  5  1  0
  7 15  1  0
  7  6  1  0
  8  7  1  0
  9  8  2  0
  9 10  1  0
 10 11  2  0
 10 15  1  0
 11 12  1  0
 12 13  2  0
 14 13  1  0
 15 14  2  0
 16 21  1  0
 17 27  1  0
 17 18  2  0
 19 18  1  0
 20 19  2  0
 21 22  2  0
 21 20  1  0
 22 17  1  0
 24 23  2  0
 25 24  1  0
 26 25  2  0
 26 27  1  0
 27 28  2  0
 28 23  1  0
  1 29  1  0
  2 30  1  0
  2 31  1  0
  3 32  1  0
  3 33  1  0
  4 34  1  1
  5 35  1  0
  5 36  1  0
  6 37  1  1
  8 38  1  0
 11 39  1  0
 13 40  1  0
 18 41  1  0
 19 42  1  0
 20 43  1  0
 23 44  1  0
 24 45  1  0
 25 46  1  0
M  ISO  8  29   5  30  13  31  13  32  13  33  13  34  13  35  13  36  13
M  ISO  8  37  13  38  14  39  14  40  14  41  14  42  14  43  14  44  14
M  ISO  2  45  14  46  14
M  END
>  <minimizedAffinity>  (1) 
-5.64827871

>  <minimizedRMSD>  (1) 
5.56048059

$$$$
