
     RDKit          3D

 48 52  0  0  1  0  0  0  0  0999 V2000
   33.3350   27.0360   37.0050 N   0  0  0  0  0  0  0  0  0  0  0  0
   33.2590   28.4740   37.0200 C   0  0  0  0  0  0  0  0  0  0  0  0
   34.4060   29.1420   36.2920 C   0  0  0  0  0  0  0  0  0  0  0  0
   35.6460   28.2890   36.3240 C   0  0  2  0  0  0  0  0  0  0  0  0
   35.6990   27.4040   37.5500 C   0  0  0  0  0  0  0  0  0  0  0  0
   34.4820   26.5280   37.7040 C   0  0  2  0  0  0  0  0  0  0  0  0
   34.7350   25.1540   37.3920 N   0  0  0  0  0  0  0  0  0  0  0  0
   34.3700   24.4970   36.2520 C   0  0  0  0  0  0  0  0  0  0  0  0
   34.7710   23.2260   36.3050 N   0  0  0  0  0  0  0  0  0  0  0  0
   35.4070   23.0510   37.4960 C   0  0  0  0  0  0  0  0  0  0  0  0
   36.0170   21.9450   38.0730 C   0  0  0  0  0  0  0  0  0  0  0  0
   36.5890   22.0400   39.2960 N   0  0  0  0  0  0  0  0  0  0  0  0
   36.5510   23.2420   39.9440 C   0  0  0  0  0  0  0  0  0  0  0  0
   35.9600   24.3120   39.3840 N   0  0  0  0  0  0  0  0  0  0  0  0
   35.3860   24.2500   38.1740 C   0  0  0  0  0  0  0  0  0  0  0  0
   35.9930   20.7450   37.3020 N   0  0  0  0  0  0  0  0  0  0  0  0
   37.1020   29.3720   36.4530 S   0  0  0  0  0  0  0  0  0  0  0  0
   37.1650   30.1400   40.4030 C   0  0  0  0  0  0  0  0  0  0  0  0
   37.1620   31.5100   40.4950 C   0  0  0  0  0  0  0  0  0  0  0  0
   37.1400   32.2450   39.3280 C   0  0  0  0  0  0  0  0  0  0  0  0
   37.1220   31.5600   38.1130 C   0  0  0  0  0  0  0  0  0  0  0  0
   37.1260   30.1860   38.0320 C   0  0  0  0  0  0  0  0  0  0  0  0
   37.1480   29.5060   39.1980 N   0  0  0  0  0  0  0  0  0  0  0  0
   38.1270   28.9410   43.7130 C   0  0  0  0  0  0  0  0  0  0  0  0
   37.2840   27.8260   43.9180 C   0  0  0  0  0  0  0  0  0  0  0  0
   36.3780   27.4950   42.8890 C   0  0  0  0  0  0  0  0  0  0  0  0
   36.3840   28.2710   41.7870 N   0  0  0  0  0  0  0  0  0  0  0  0
   37.1890   29.3180   41.6200 C   0  0  0  0  0  0  0  0  0  0  0  0
   38.0440   29.6290   42.5890 N   0  0  0  0  0  0  0  0  0  0  0  0
   32.4860   26.6577   37.4487 H   0  0  0  0  0  0  0  0  0  0  0  0
   32.3168   28.7788   36.5412 H   0  0  0  0  0  0  0  0  0  0  0  0
   33.3114   28.7920   38.0717 H   0  0  0  0  0  0  0  0  0  0  0  0
   34.6225   30.1069   36.7737 H   0  0  0  0  0  0  0  0  0  0  0  0
   34.1124   29.2879   35.2420 H   0  0  0  0  0  0  0  0  0  0  0  0
   35.6336   27.6762   35.4106 H   0  0  0  0  0  0  0  0  0  0  0  0
   36.5870   26.7589   37.4772 H   0  0  0  0  0  0  0  0  0  0  0  0
   35.7389   28.0650   38.4284 H   0  0  0  0  0  0  0  0  0  0  0  0
   34.2358   26.5611   38.7756 H   0  0  0  0  0  0  0  0  0  0  0  0
   33.8242   24.9504   35.4115 H   0  0  0  0  0  0  0  0  0  0  0  0
   37.0108   23.3359   40.9389 H   0  0  0  0  0  0  0  0  0  0  0  0
   36.4275   19.8871   37.6709 H   0  0  0  0  0  0  0  0  0  0  0  0
   35.5411   20.7365   36.3764 H   0  0  0  0  0  0  0  0  0  0  0  0
   37.1768   32.0091   41.4752 H   0  0  0  0  0  0  0  0  0  0  0  0
   37.1367   33.3447   39.3548 H   0  0  0  0  0  0  0  0  0  0  0  0
   37.1038   32.1426   37.1801 H   0  0  0  0  0  0  0  0  0  0  0  0
   38.8505   29.2352   44.4876 H   0  0  0  0  0  0  0  0  0  0  0  0
   37.3325   27.2376   44.8461 H   0  0  0  0  0  0  0  0  0  0  0  0
   35.6943   26.6383   42.9821 H   0  0  0  0  0  0  0  0  0  0  0  0
  1  2  1  0
  1  6  1  0
  3  4  1  0
  3  2  1  0
  4 17  1  0
  4  5  1  0
  5  6  1  0
  7  6  1  0
  7 15  1  0
  8  9  2  0
  8  7  1  0
  9 10  1  0
 10 11  1  0
 10 15  2  0
 11 12  2  0
 12 13  1  0
 14 13  2  0
 15 14  1  0
 16 11  1  0
 17 22  1  0
 18 19  2  0
 18 28  1  0
 20 19  1  0
 21 20  2  0
 22 21  1  0
 22 23  2  0
 23 18  1  0
 24 25  2  0
 26 25  1  0
 27 26  2  0
 28 27  1  0
 28 29  2  0
 29 24  1  0
  1 30  1  0
  2 31  1  0
  2 32  1  0
  3 33  1  0
  3 34  1  0
  4 35  1  6
  5 36  1  0
  5 37  1  0
  6 38  1  1
  8 39  1  0
 13 40  1  0
 16 41  1  0
 16 42  1  0
 19 43  1  0
 20 44  1  0
 21 45  1  0
 24 46  1  0
 25 47  1  0
 26 48  1  0
M  ISO  8  30   5  31  13  32  13  33  13  34  13  35  13  36  13  37  13
M  ISO  8  38  13  39  14  40  14  43  14  44  14  45  14  46  14  47  14
M  ISO  1  48  14
M  END
>  <minimizedAffinity>  (1) 
-5.28550625

>  <minimizedRMSD>  (1) 
1.85691953

$$$$
