
     RDKit          3D

 42 45  0  0  1  0  0  0  0  0999 V2000
   34.1170   26.6830   37.1460 N   0  0  0  0  0  0  0  0  0  0  0  0
   33.8670   27.9850   37.6930 C   0  0  0  0  0  0  0  0  0  0  0  0
   34.6010   29.0810   36.9460 C   0  0  0  0  0  0  0  0  0  0  0  0
   35.8830   28.5700   36.3280 C   0  0  2  0  0  0  0  0  0  0  0  0
   36.4570   27.4100   37.0880 C   0  0  0  0  0  0  0  0  0  0  0  0
   35.5080   26.2720   37.2140 C   0  0  1  0  0  0  0  0  0  0  0  0
   35.7610   25.4080   38.3430 N   0  0  0  0  0  0  0  0  0  0  0  0
   35.2500   24.2010   38.5040 N   0  0  0  0  0  0  0  0  0  0  0  0
   35.6770   23.6530   39.6560 C   0  0  0  0  0  0  0  0  0  0  0  0
   36.5190   24.5790   40.2710 C   0  0  0  0  0  0  0  0  0  0  0  0
   36.5480   25.6520   39.4310 C   0  0  0  0  0  0  0  0  0  0  0  0
   37.1100   29.9070   36.4030 S   0  0  0  0  0  0  0  0  0  0  0  0
   37.2060   30.3970   40.4040 C   0  0  0  0  0  0  0  0  0  0  0  0
   37.2450   31.7530   40.5910 C   0  0  0  0  0  0  0  0  0  0  0  0
   37.2430   32.5710   39.4650 C   0  0  0  0  0  0  0  0  0  0  0  0
   37.2020   31.9710   38.2140 C   0  0  0  0  0  0  0  0  0  0  0  0
   37.1630   30.6100   38.0350 C   0  0  0  0  0  0  0  0  0  0  0  0
   37.1650   29.8540   39.1460 N   0  0  0  0  0  0  0  0  0  0  0  0
   38.1570   28.9240   43.6110 C   0  0  0  0  0  0  0  0  0  0  0  0
   37.2780   27.8310   43.7360 C   0  0  0  0  0  0  0  0  0  0  0  0
   36.3550   27.6100   42.7020 C   0  0  0  0  0  0  0  0  0  0  0  0
   36.3670   28.4610   41.6480 N   0  0  0  0  0  0  0  0  0  0  0  0
   37.2050   29.4850   41.5500 C   0  0  0  0  0  0  0  0  0  0  0  0
   38.0870   29.7020   42.5310 N   0  0  0  0  0  0  0  0  0  0  0  0
   33.8279   26.6859   36.1574 H   0  0  0  0  0  0  0  0  0  0  0  0
   32.7868   28.1868   37.6430 H   0  0  0  0  0  0  0  0  0  0  0  0
   34.2320   27.9865   38.7307 H   0  0  0  0  0  0  0  0  0  0  0  0
   33.9495   29.4677   36.1485 H   0  0  0  0  0  0  0  0  0  0  0  0
   34.8569   29.8748   37.6632 H   0  0  0  0  0  0  0  0  0  0  0  0
   35.6573   28.2466   35.3011 H   0  0  0  0  0  0  0  0  0  0  0  0
   37.3581   27.0588   36.5639 H   0  0  0  0  0  0  0  0  0  0  0  0
   36.6850   27.7628   38.1046 H   0  0  0  0  0  0  0  0  0  0  0  0
   35.7059   25.6563   36.3242 H   0  0  0  0  0  0  0  0  0  0  0  0
   35.4110   22.6578   40.0418 H   0  0  0  0  0  0  0  0  0  0  0  0
   37.0471   24.4673   41.2295 H   0  0  0  0  0  0  0  0  0  0  0  0
   37.1197   26.5757   39.6040 H   0  0  0  0  0  0  0  0  0  0  0  0
   37.2770   32.1836   41.6027 H   0  0  0  0  0  0  0  0  0  0  0  0
   37.2732   33.6661   39.5640 H   0  0  0  0  0  0  0  0  0  0  0  0
   37.2007   32.6166   37.3234 H   0  0  0  0  0  0  0  0  0  0  0  0
   38.8957   29.1341   44.3985 H   0  0  0  0  0  0  0  0  0  0  0  0
   37.3136   27.1716   44.6157 H   0  0  0  0  0  0  0  0  0  0  0  0
   35.6440   26.7719   42.7461 H   0  0  0  0  0  0  0  0  0  0  0  0
  1  6  1  0
  1  2  1  0
  3  2  1  0
  4 12  1  0
  4  3  1  0
  4  5  1  0
  5  6  1  0
  6  7  1  0
  7  8  1  0
  7 11  1  0
  8  9  2  0
  9 10  1  0
 11 10  2  0
 12 17  1  0
 13 14  2  0
 13 23  1  0
 15 14  1  0
 16 15  2  0
 17 16  1  0
 17 18  2  0
 18 13  1  0
 19 20  2  0
 21 20  1  0
 22 21  2  0
 23 22  1  0
 23 24  2  0
 24 19  1  0
  1 25  1  0
  2 26  1  0
  2 27  1  0
  3 28  1  0
  3 29  1  0
  4 30  1  6
  5 31  1  0
  5 32  1  0
  6 33  1  6
  9 34  1  0
 10 35  1  0
 11 36  1  0
 14 37  1  0
 15 38  1  0
 16 39  1  0
 19 40  1  0
 20 41  1  0
 21 42  1  0
M  ISO  8  25   5  26  13  27  13  28  13  29  13  30  13  31  13  32  13
M  ISO  8  33  13  34  14  35  14  36  14  37  14  38  14  39  14  40  14
M  ISO  2  41  14  42  14
M  END
>  <minimizedAffinity>  (1) 
-5.12701178

>  <minimizedRMSD>  (1) 
1.07892203

$$$$
