
     RDKit          3D

 48 51  0  0  1  0  0  0  0  0999 V2000
   33.3100   27.0640   36.9750 N   0  0  0  0  0  0  0  0  0  0  0  0
   33.2710   28.5030   37.1340 C   0  0  0  0  0  0  0  0  0  0  0  0
   34.3940   29.2090   36.4220 C   0  0  0  0  0  0  0  0  0  0  0  0
   35.6160   28.3310   36.2840 C   0  0  2  0  0  0  0  0  0  0  0  0
   35.7030   27.3180   37.3910 C   0  0  0  0  0  0  0  0  0  0  0  0
   34.4920   26.4440   37.5180 C   0  0  2  0  0  0  0  0  0  0  0  0
   34.6600   25.1440   36.9210 N   0  0  0  0  0  0  0  0  0  0  0  0
   33.6200   24.2250   37.2480 C   0  0  0  0  0  0  0  0  0  0  0  0
   33.9860   23.2560   38.3380 C   0  0  0  0  0  0  0  0  0  0  0  0
   35.2300   22.6840   38.1850 O   0  0  0  0  0  0  0  0  0  0  0  0
   35.8910   23.0730   37.0440 C   0  0  0  0  0  0  0  0  0  0  0  0
   35.9760   24.5970   37.0580 C   0  0  0  0  0  0  0  0  0  0  0  0
   37.0820   29.3780   36.4430 S   0  0  0  0  0  0  0  0  0  0  0  0
   37.1540   30.1320   40.3990 C   0  0  0  0  0  0  0  0  0  0  0  0
   37.1640   31.5020   40.5000 C   0  0  0  0  0  0  0  0  0  0  0  0
   37.1470   32.2350   39.3200 C   0  0  0  0  0  0  0  0  0  0  0  0
   37.1230   31.5590   38.1040 C   0  0  0  0  0  0  0  0  0  0  0  0
   37.1140   30.1850   38.0290 C   0  0  0  0  0  0  0  0  0  0  0  0
   37.1300   29.5100   39.1860 N   0  0  0  0  0  0  0  0  0  0  0  0
   38.0900   28.9200   43.7240 C   0  0  0  0  0  0  0  0  0  0  0  0
   37.2500   27.7990   43.8960 C   0  0  0  0  0  0  0  0  0  0  0  0
   36.3640   27.4660   42.8650 C   0  0  0  0  0  0  0  0  0  0  0  0
   36.3680   28.2450   41.7560 N   0  0  0  0  0  0  0  0  0  0  0  0
   37.1700   29.3080   41.6030 C   0  0  0  0  0  0  0  0  0  0  0  0
   38.0050   29.6110   42.5900 N   0  0  0  0  0  0  0  0  0  0  0  0
   32.4879   26.6638   37.4492 H   0  0  0  0  0  0  0  0  0  0  0  0
   32.3157   28.8732   36.7336 H   0  0  0  0  0  0  0  0  0  0  0  0
   33.3794   28.7163   38.2077 H   0  0  0  0  0  0  0  0  0  0  0  0
   34.0508   29.5005   35.4184 H   0  0  0  0  0  0  0  0  0  0  0  0
   34.6738   30.0903   37.0179 H   0  0  0  0  0  0  0  0  0  0  0  0
   35.5527   27.8162   35.3140 H   0  0  0  0  0  0  0  0  0  0  0  0
   36.5750   26.6746   37.2026 H   0  0  0  0  0  0  0  0  0  0  0  0
   35.7865   27.8825   38.3314 H   0  0  0  0  0  0  0  0  0  0  0  0
   34.3630   26.3069   38.6018 H   0  0  0  0  0  0  0  0  0  0  0  0
   32.7405   24.7989   37.5753 H   0  0  0  0  0  0  0  0  0  0  0  0
   33.4225   23.6302   36.3440 H   0  0  0  0  0  0  0  0  0  0  0  0
   33.9677   23.7924   39.2982 H   0  0  0  0  0  0  0  0  0  0  0  0
   33.2521   22.4377   38.2959 H   0  0  0  0  0  0  0  0  0  0  0  0
   35.3364   22.7362   36.1557 H   0  0  0  0  0  0  0  0  0  0  0  0
   36.8972   22.6298   37.0098 H   0  0  0  0  0  0  0  0  0  0  0  0
   36.6048   24.9379   36.2223 H   0  0  0  0  0  0  0  0  0  0  0  0
   36.4187   24.9334   38.0072 H   0  0  0  0  0  0  0  0  0  0  0  0
   37.1847   32.0008   41.4802 H   0  0  0  0  0  0  0  0  0  0  0  0
   37.1524   33.3347   39.3466 H   0  0  0  0  0  0  0  0  0  0  0  0
   37.1108   32.1424   37.1715 H   0  0  0  0  0  0  0  0  0  0  0  0
   38.7997   29.2161   44.5105 H   0  0  0  0  0  0  0  0  0  0  0  0
   37.2907   27.2012   44.8185 H   0  0  0  0  0  0  0  0  0  0  0  0
   35.6882   26.6024   42.9518 H   0  0  0  0  0  0  0  0  0  0  0  0
  1  2  1  0
  1  6  1  0
  3  2  1  0
  4  3  1  0
  4 13  1  0
  4  5  1  0
  5  6  1  0
  7 12  1  0
  7  8  1  0
  7  6  1  0
  8  9  1  0
 10  9  1  0
 11 12  1  0
 11 10  1  0
 13 18  1  0
 14 15  2  0
 14 24  1  0
 16 15  1  0
 17 16  2  0
 18 17  1  0
 18 19  2  0
 19 14  1  0
 20 21  2  0
 22 21  1  0
 23 22  2  0
 24 23  1  0
 24 25  2  0
 25 20  1  0
  1 26  1  0
  2 27  1  0
  2 28  1  0
  3 29  1  0
  3 30  1  0
  4 31  1  6
  5 32  1  0
  5 33  1  0
  6 34  1  1
  8 35  1  0
  8 36  1  0
  9 37  1  0
  9 38  1  0
 11 39  1  0
 11 40  1  0
 12 41  1  0
 12 42  1  0
 15 43  1  0
 16 44  1  0
 17 45  1  0
 20 46  1  0
 21 47  1  0
 22 48  1  0
M  ISO  8  26   5  27  13  28  13  29  13  30  13  31  13  32  13  33  13
M  ISO  8  34  13  35  13  36  13  37  13  38  13  39  13  40  13  41  13
M  ISO  7  42  13  43  14  44  14  45  14  46  14  47  14  48  14
M  END
>  <minimizedAffinity>  (1) 
-4.85874414

>  <minimizedRMSD>  (1) 
1.60371935

$$$$
