
     RDKit          3D

 47 49  0  0  1  0  0  0  0  0999 V2000
   37.0840   28.9160   36.3480 S   0  0  0  0  0  0  0  0  0  0  0  0
   33.0160   27.1080   36.7630 N   0  0  0  0  0  0  0  0  0  0  0  0
   33.1810   28.5140   36.9980 C   0  0  0  0  0  0  0  0  0  0  0  0
   34.3870   29.1150   36.3330 C   0  0  0  0  0  0  0  0  0  0  0  0
   35.4810   28.0880   36.1400 C   0  0  2  0  0  0  0  0  0  0  0  0
   35.4350   27.0000   37.1980 C   0  0  0  0  0  0  0  0  0  0  0  0
   34.1150   26.3240   37.2760 C   0  0  2  0  0  0  0  0  0  0  0  0
   34.1180   24.9260   36.7440 C   0  0  0  0  0  0  0  0  0  0  0  0
   35.4440   24.2210   36.9800 C   0  0  0  0  0  0  0  0  0  0  0  0
   33.8520   24.8300   35.2620 C   0  0  0  0  0  0  0  0  0  0  0  0
   33.0770   24.0540   37.4180 C   0  0  0  0  0  0  0  0  0  0  0  0
   37.1570   29.9670   40.2260 C   0  0  0  0  0  0  0  0  0  0  0  0
   37.1670   31.3340   40.2240 C   0  0  0  0  0  0  0  0  0  0  0  0
   37.1510   31.9860   38.9970 C   0  0  0  0  0  0  0  0  0  0  0  0
   37.1260   31.2160   37.8430 C   0  0  0  0  0  0  0  0  0  0  0  0
   37.1160   29.8450   37.8640 C   0  0  0  0  0  0  0  0  0  0  0  0
   37.1320   29.2440   39.0690 N   0  0  0  0  0  0  0  0  0  0  0  0
   38.1040   29.0030   43.6320 C   0  0  0  0  0  0  0  0  0  0  0  0
   37.2690   27.9010   43.9000 C   0  0  0  0  0  0  0  0  0  0  0  0
   36.3790   27.4970   42.8960 C   0  0  0  0  0  0  0  0  0  0  0  0
   36.3790   28.1910   41.7330 N   0  0  0  0  0  0  0  0  0  0  0  0
   37.1740   29.2240   41.5020 C   0  0  0  0  0  0  0  0  0  0  0  0
   38.0200   29.6110   42.4540 N   0  0  0  0  0  0  0  0  0  0  0  0
   32.1475   26.7971   37.2211 H   0  0  0  0  0  0  0  0  0  0  0  0
   32.2865   29.0332   36.6233 H   0  0  0  0  0  0  0  0  0  0  0  0
   33.3247   28.6374   38.0816 H   0  0  0  0  0  0  0  0  0  0  0  0
   34.0927   29.5131   35.3507 H   0  0  0  0  0  0  0  0  0  0  0  0
   34.7749   29.9163   36.9791 H   0  0  0  0  0  0  0  0  0  0  0  0
   35.3438   27.6440   35.1430 H   0  0  0  0  0  0  0  0  0  0  0  0
   36.2012   26.2472   36.9607 H   0  0  0  0  0  0  0  0  0  0  0  0
   35.6184   27.4786   38.1713 H   0  0  0  0  0  0  0  0  0  0  0  0
   33.9312   26.2342   38.3568 H   0  0  0  0  0  0  0  0  0  0  0  0
   35.6217   24.1265   38.0614 H   0  0  0  0  0  0  0  0  0  0  0  0
   35.4133   23.2201   36.5247 H   0  0  0  0  0  0  0  0  0  0  0  0
   36.2565   24.8062   36.5247 H   0  0  0  0  0  0  0  0  0  0  0  0
   32.8291   24.4608   35.0962 H   0  0  0  0  0  0  0  0  0  0  0  0
   33.9616   25.8244   34.8046 H   0  0  0  0  0  0  0  0  0  0  0  0
   34.5714   24.1348   34.8046 H   0  0  0  0  0  0  0  0  0  0  0  0
   33.1787   24.1392   38.5100 H   0  0  0  0  0  0  0  0  0  0  0  0
   32.0718   24.3836   37.1165 H   0  0  0  0  0  0  0  0  0  0  0  0
   33.2252   23.0066   37.1165 H   0  0  0  0  0  0  0  0  0  0  0  0
   37.1871   31.9013   41.1662 H   0  0  0  0  0  0  0  0  0  0  0  0
   37.1580   33.0846   38.9420 H   0  0  0  0  0  0  0  0  0  0  0  0
   37.1137   31.7275   36.8692 H   0  0  0  0  0  0  0  0  0  0  0  0
   38.8182   29.3565   44.3902 H   0  0  0  0  0  0  0  0  0  0  0  0
   37.3140   27.3751   44.8651 H   0  0  0  0  0  0  0  0  0  0  0  0
   35.7019   26.6434   43.0476 H   0  0  0  0  0  0  0  0  0  0  0  0
  1 16  1  0
  2  3  1  0
  2  7  1  0
  4  3  1  0
  5  4  1  0
  5  1  1  0
  5  6  1  0
  6  7  1  0
  8  9  1  0
  8  7  1  0
  8 11  1  0
 10  8  1  0
 12 22  1  0
 13 12  2  0
 14 13  1  0
 15 16  1  0
 15 14  2  0
 16 17  2  0
 17 12  1  0
 18 19  2  0
 20 19  1  0
 21 20  2  0
 22 21  1  0
 22 23  2  0
 23 18  1  0
  2 24  1  0
  3 25  1  0
  3 26  1  0
  4 27  1  0
  4 28  1  0
  5 29  1  6
  6 30  1  0
  6 31  1  0
  7 32  1  1
  9 33  1  0
  9 34  1  0
  9 35  1  0
 10 36  1  0
 10 37  1  0
 10 38  1  0
 11 39  1  0
 11 40  1  0
 11 41  1  0
 13 42  1  0
 14 43  1  0
 15 44  1  0
 18 45  1  0
 19 46  1  0
 20 47  1  0
M  ISO  8  24   5  25  13  26  13  27  13  28  13  29  13  30  13  31  13
M  ISO  8  32  13  33   8  34   8  35   8  36   8  37   8  38   8  39   8
M  ISO  8  40   8  41   8  42  14  43  14  44  14  45  14  46  14  47  14
M  END
>  <minimizedAffinity>  (1) 
-4.73415852

>  <minimizedRMSD>  (1) 
0.284099698

$$$$
