
     RDKit          3D

 44 46  0  0  1  0  0  0  0  0999 V2000
   37.0620   28.8680   36.1870 S   0  0  0  0  0  0  0  0  0  0  0  0
   32.9870   27.1160   36.7720 N   0  0  0  0  0  0  0  0  0  0  0  0
   33.1510   28.5540   36.8800 C   0  0  0  0  0  0  0  0  0  0  0  0
   34.3660   29.0720   36.1490 C   0  0  0  0  0  0  0  0  0  0  0  0
   35.4590   28.0230   36.0530 C   0  0  2  0  0  0  0  0  0  0  0  0
   35.4020   27.0450   37.2110 C   0  0  0  0  0  0  0  0  0  0  0  0
   34.0780   26.3840   37.3430 C   0  0  2  0  0  0  0  0  0  0  0  0
   34.0690   24.9580   36.8340 C   0  0  0  0  0  0  0  0  0  0  0  0
   32.7760   24.2750   37.2250 C   0  0  0  0  0  0  0  0  0  0  0  0
   35.2020   24.1470   37.3780 C   0  0  0  0  0  0  0  0  0  0  0  0
   37.2290   29.9960   40.0540 C   0  0  0  0  0  0  0  0  0  0  0  0
   37.2740   31.3750   40.0170 C   0  0  0  0  0  0  0  0  0  0  0  0
   37.2530   31.9940   38.7760 C   0  0  0  0  0  0  0  0  0  0  0  0
   37.1890   31.2010   37.6370 C   0  0  0  0  0  0  0  0  0  0  0  0
   37.1440   29.8270   37.6910 C   0  0  0  0  0  0  0  0  0  0  0  0
   37.1650   29.2580   38.9050 N   0  0  0  0  0  0  0  0  0  0  0  0
   38.1830   29.1070   43.4650 C   0  0  0  0  0  0  0  0  0  0  0  0
   37.3330   28.0160   43.7680 C   0  0  0  0  0  0  0  0  0  0  0  0
   36.4320   27.6020   42.7720 C   0  0  0  0  0  0  0  0  0  0  0  0
   36.4300   28.2650   41.5940 N   0  0  0  0  0  0  0  0  0  0  0  0
   37.2480   29.2960   41.3340 C   0  0  0  0  0  0  0  0  0  0  0  0
   38.0960   29.6810   42.2780 N   0  0  0  0  0  0  0  0  0  0  0  0
   32.1204   26.8469   37.2593 H   0  0  0  0  0  0  0  0  0  0  0  0
   32.2576   29.0399   36.4608 H   0  0  0  0  0  0  0  0  0  0  0  0
   33.2875   28.7876   37.9462 H   0  0  0  0  0  0  0  0  0  0  0  0
   34.0692   29.3703   35.1327 H   0  0  0  0  0  0  0  0  0  0  0  0
   34.7640   29.9282   36.7134 H   0  0  0  0  0  0  0  0  0  0  0  0
   35.3276   27.4837   35.1033 H   0  0  0  0  0  0  0  0  0  0  0  0
   36.1673   26.2705   37.0546 H   0  0  0  0  0  0  0  0  0  0  0  0
   35.5805   27.6152   38.1346 H   0  0  0  0  0  0  0  0  0  0  0  0
   33.9147   26.3654   38.4307 H   0  0  0  0  0  0  0  0  0  0  0  0
   34.1726   25.0169   35.7405 H   0  0  0  0  0  0  0  0  0  0  0  0
   32.6997   24.2347   38.3216 H   0  0  0  0  0  0  0  0  0  0  0  0
   31.9249   24.8411   36.8188 H   0  0  0  0  0  0  0  0  0  0  0  0
   32.7638   23.2528   36.8188 H   0  0  0  0  0  0  0  0  0  0  0  0
   35.1730   24.1677   38.4774 H   0  0  0  0  0  0  0  0  0  0  0  0
   35.1103   23.1081   37.0283 H   0  0  0  0  0  0  0  0  0  0  0  0
   36.1559   24.5688   37.0283 H   0  0  0  0  0  0  0  0  0  0  0  0
   37.3250   31.9653   40.9438 H   0  0  0  0  0  0  0  0  0  0  0  0
   37.2863   33.0905   38.6952 H   0  0  0  0  0  0  0  0  0  0  0  0
   37.1737   31.6914   36.6525 H   0  0  0  0  0  0  0  0  0  0  0  0
   38.9068   29.4722   44.2085 H   0  0  0  0  0  0  0  0  0  0  0  0
   37.3761   27.5121   44.7448 H   0  0  0  0  0  0  0  0  0  0  0  0
   35.7460   26.7600   42.9466 H   0  0  0  0  0  0  0  0  0  0  0  0
  1 15  1  0
  2  3  1  0
  2  7  1  0
  4  3  1  0
  5  4  1  0
  5  1  1  0
  5  6  1  0
  6  7  1  0
  8  9  1  0
  8  7  1  0
  8 10  1  0
 11 21  1  0
 12 11  2  0
 13 12  1  0
 14 15  1  0
 14 13  2  0
 15 16  2  0
 16 11  1  0
 17 18  2  0
 19 18  1  0
 20 19  2  0
 21 20  1  0
 21 22  2  0
 22 17  1  0
  2 23  1  0
  3 24  1  0
  3 25  1  0
  4 26  1  0
  4 27  1  0
  5 28  1  6
  6 29  1  0
  6 30  1  0
  7 31  1  1
  8 32  1  0
  9 33  1  0
  9 34  1  0
  9 35  1  0
 10 36  1  0
 10 37  1  0
 10 38  1  0
 12 39  1  0
 13 40  1  0
 14 41  1  0
 17 42  1  0
 18 43  1  0
 19 44  1  0
M  ISO  8  23   5  24  13  25  13  26  13  27  13  28  13  29  13  30  13
M  ISO  8  31  13  32   8  33   8  34   8  35   8  36   8  37   8  38   8
M  ISO  6  39  14  40  14  41  14  42  14  43  14  44  14
M  END
>  <minimizedAffinity>  (1) 
-4.69026232

>  <minimizedRMSD>  (1) 
0.392434806

$$$$
