
     RDKit          3D

 43 46  0  0  1  0  0  0  0  0999 V2000
   33.0930   27.0250   36.8020 N   0  0  0  0  0  0  0  0  0  0  0  0
   33.2180   28.4400   37.0510 C   0  0  0  0  0  0  0  0  0  0  0  0
   34.4050   29.0620   36.3570 C   0  0  0  0  0  0  0  0  0  0  0  0
   35.5280   28.0710   36.1470 C   0  0  2  0  0  0  0  0  0  0  0  0
   35.5180   26.9880   37.1990 C   0  0  0  0  0  0  0  0  0  0  0  0
   34.2240   26.2570   37.2780 C   0  0  2  0  0  0  0  0  0  0  0  0
   34.2660   24.9470   36.5710 C   0  0  0  0  0  0  0  0  0  0  0  0
   34.7720   23.7750   37.1440 C   0  0  0  0  0  0  0  0  0  0  0  0
   34.7420   22.6290   36.3540 C   0  0  0  0  0  0  0  0  0  0  0  0
   34.2500   22.6460   35.1010 N   0  0  0  0  0  0  0  0  0  0  0  0
   33.7600   23.7920   34.5570 C   0  0  0  0  0  0  0  0  0  0  0  0
   33.7870   24.8990   35.3150 N   0  0  0  0  0  0  0  0  0  0  0  0
   37.1050   28.9510   36.3380 S   0  0  0  0  0  0  0  0  0  0  0  0
   37.1660   29.9700   40.2360 C   0  0  0  0  0  0  0  0  0  0  0  0
   37.1760   31.3470   40.2330 C   0  0  0  0  0  0  0  0  0  0  0  0
   37.1640   31.9960   39.0040 C   0  0  0  0  0  0  0  0  0  0  0  0
   37.1430   31.2370   37.8440 C   0  0  0  0  0  0  0  0  0  0  0  0
   37.1330   29.8630   37.8670 C   0  0  0  0  0  0  0  0  0  0  0  0
   37.1450   29.2510   39.0670 N   0  0  0  0  0  0  0  0  0  0  0  0
   38.0780   29.0070   43.6410 C   0  0  0  0  0  0  0  0  0  0  0  0
   37.2530   27.9010   43.9010 C   0  0  0  0  0  0  0  0  0  0  0  0
   36.3770   27.4910   42.8840 C   0  0  0  0  0  0  0  0  0  0  0  0
   36.3820   28.1850   41.7250 N   0  0  0  0  0  0  0  0  0  0  0  0
   37.1770   29.2340   41.5020 C   0  0  0  0  0  0  0  0  0  0  0  0
   38.0070   29.6250   42.4590 N   0  0  0  0  0  0  0  0  0  0  0  0
   32.2440   26.6837   37.2749 H   0  0  0  0  0  0  0  0  0  0  0  0
   32.3043   28.9396   36.6967 H   0  0  0  0  0  0  0  0  0  0  0  0
   33.3663   28.5702   38.1332 H   0  0  0  0  0  0  0  0  0  0  0  0
   34.0822   29.4444   35.3774 H   0  0  0  0  0  0  0  0  0  0  0  0
   34.7846   29.8716   36.9976 H   0  0  0  0  0  0  0  0  0  0  0  0
   35.4017   27.6233   35.1502 H   0  0  0  0  0  0  0  0  0  0  0  0
   36.3135   26.2655   36.9641 H   0  0  0  0  0  0  0  0  0  0  0  0
   35.6764   27.4767   38.1717 H   0  0  0  0  0  0  0  0  0  0  0  0
   34.0779   26.0787   38.3536 H   0  0  0  0  0  0  0  0  0  0  0  0
   35.1736   23.7599   38.1680 H   0  0  0  0  0  0  0  0  0  0  0  0
   35.1304   21.6852   36.7643 H   0  0  0  0  0  0  0  0  0  0  0  0
   33.3566   23.8108   33.5338 H   0  0  0  0  0  0  0  0  0  0  0  0
   37.1930   31.9158   41.1743 H   0  0  0  0  0  0  0  0  0  0  0  0
   37.1711   33.0948   38.9525 H   0  0  0  0  0  0  0  0  0  0  0  0
   37.1340   31.7522   36.8721 H   0  0  0  0  0  0  0  0  0  0  0  0
   38.7808   29.3635   44.4085 H   0  0  0  0  0  0  0  0  0  0  0  0
   37.2918   27.3752   44.8664 H   0  0  0  0  0  0  0  0  0  0  0  0
   35.7066   26.6306   43.0263 H   0  0  0  0  0  0  0  0  0  0  0  0
  1  2  1  0
  1  6  1  0
  3  2  1  0
  4 13  1  0
  4  3  1  0
  4  5  1  0
  5  6  1  0
  7  8  2  0
  7  6  1  0
  9  8  1  0
 10  9  2  0
 11 10  1  0
 11 12  2  0
 12  7  1  0
 13 18  1  0
 14 24  1  0
 15 14  2  0
 16 15  1  0
 17 18  1  0
 17 16  2  0
 18 19  2  0
 19 14  1  0
 20 21  2  0
 22 21  1  0
 23 22  2  0
 24 23  1  0
 24 25  2  0
 25 20  1  0
  1 26  1  0
  2 27  1  0
  2 28  1  0
  3 29  1  0
  3 30  1  0
  4 31  1  6
  5 32  1  0
  5 33  1  0
  6 34  1  1
  8 35  1  0
  9 36  1  0
 11 37  1  0
 15 38  1  0
 16 39  1  0
 17 40  1  0
 20 41  1  0
 21 42  1  0
 22 43  1  0
M  ISO  8  26   5  27  13  28  13  29  13  30  13  31  13  32  13  33  13
M  ISO  8  34  13  35  14  36  14  37  14  38  14  39  14  40  14  41  14
M  ISO  2  42  14  43  14
M  END
>  <minimizedAffinity>  (1) 
-4.67021418

>  <minimizedRMSD>  (1) 
0.570104897

$$$$
