
     RDKit          3D

 42 45  0  0  1  0  0  0  0  0999 V2000
   33.1410   26.9750   36.8080 N   0  0  0  0  0  0  0  0  0  0  0  0
   33.2460   28.3890   37.0480 C   0  0  0  0  0  0  0  0  0  0  0  0
   34.4260   29.0280   36.3440 C   0  0  0  0  0  0  0  0  0  0  0  0
   35.5570   28.0520   36.1540 C   0  0  2  0  0  0  0  0  0  0  0  0
   35.5610   26.9790   37.2230 C   0  0  0  0  0  0  0  0  0  0  0  0
   34.2830   26.2290   37.3040 C   0  0  2  0  0  0  0  0  0  0  0  0
   34.3150   24.8810   36.7120 C   0  0  0  0  0  0  0  0  0  0  0  0
   34.3970   23.7820   37.5460 C   0  0  0  0  0  0  0  0  0  0  0  0
   34.4110   22.6840   36.7710 N   0  0  0  0  0  0  0  0  0  0  0  0
   34.3420   23.0500   35.4700 C   0  0  0  0  0  0  0  0  0  0  0  0
   34.2840   24.3910   35.4710 N   0  0  0  0  0  0  0  0  0  0  0  0
   37.1210   28.9500   36.3380 S   0  0  0  0  0  0  0  0  0  0  0  0
   37.1720   29.9730   40.2340 C   0  0  0  0  0  0  0  0  0  0  0  0
   37.1790   31.3500   40.2270 C   0  0  0  0  0  0  0  0  0  0  0  0
   37.1680   32.0000   39.0020 C   0  0  0  0  0  0  0  0  0  0  0  0
   37.1510   31.2360   37.8390 C   0  0  0  0  0  0  0  0  0  0  0  0
   37.1440   29.8650   37.8630 C   0  0  0  0  0  0  0  0  0  0  0  0
   37.1540   29.2660   39.0650 N   0  0  0  0  0  0  0  0  0  0  0  0
   38.1070   29.0240   43.6320 C   0  0  0  0  0  0  0  0  0  0  0  0
   37.2660   27.9120   43.8950 C   0  0  0  0  0  0  0  0  0  0  0  0
   36.3730   27.5000   42.8810 C   0  0  0  0  0  0  0  0  0  0  0  0
   36.3850   28.2000   41.7220 N   0  0  0  0  0  0  0  0  0  0  0  0
   37.1830   29.2340   41.5010 C   0  0  0  0  0  0  0  0  0  0  0  0
   38.0210   29.6200   42.4600 N   0  0  0  0  0  0  0  0  0  0  0  0
   32.2924   26.6250   37.2751 H   0  0  0  0  0  0  0  0  0  0  0  0
   32.3238   28.8731   36.6942 H   0  0  0  0  0  0  0  0  0  0  0  0
   33.3965   28.5268   38.1289 H   0  0  0  0  0  0  0  0  0  0  0  0
   34.0991   29.3910   35.3584 H   0  0  0  0  0  0  0  0  0  0  0  0
   34.7900   29.8570   36.9688 H   0  0  0  0  0  0  0  0  0  0  0  0
   35.4356   27.5902   35.1631 H   0  0  0  0  0  0  0  0  0  0  0  0
   36.3702   26.2677   37.0012 H   0  0  0  0  0  0  0  0  0  0  0  0
   35.7064   27.4822   38.1903 H   0  0  0  0  0  0  0  0  0  0  0  0
   34.1526   26.0879   38.3871 H   0  0  0  0  0  0  0  0  0  0  0  0
   34.4425   23.8023   38.6449 H   0  0  0  0  0  0  0  0  0  0  0  0
   34.3349   22.3859   34.5931 H   0  0  0  0  0  0  0  0  0  0  0  0
   34.2232   24.9692   34.6208 H   0  0  0  0  0  0  0  0  0  0  0  0
   37.1929   31.9193   41.1681 H   0  0  0  0  0  0  0  0  0  0  0  0
   37.1726   33.0988   38.9506 H   0  0  0  0  0  0  0  0  0  0  0  0
   37.1429   31.7499   36.8664 H   0  0  0  0  0  0  0  0  0  0  0  0
   38.8172   29.3817   44.3920 H   0  0  0  0  0  0  0  0  0  0  0  0
   37.3081   27.3861   44.8602 H   0  0  0  0  0  0  0  0  0  0  0  0
   35.6957   26.6456   43.0269 H   0  0  0  0  0  0  0  0  0  0  0  0
  1  2  1  0
  1  6  1  0
  3  2  1  0
  4 12  1  0
  4  3  1  0
  4  5  1  0
  5  6  1  0
  7  6  1  0
  7  8  2  0
  9  8  1  0
 10 11  1  0
 10  9  2  0
 11  7  1  0
 12 17  1  0
 13 23  1  0
 14 13  2  0
 15 14  1  0
 16 17  1  0
 16 15  2  0
 17 18  2  0
 18 13  1  0
 19 20  2  0
 21 20  1  0
 22 21  2  0
 23 22  1  0
 23 24  2  0
 24 19  1  0
  1 25  1  0
  2 26  1  0
  2 27  1  0
  3 28  1  0
  3 29  1  0
  4 30  1  6
  5 31  1  0
  5 32  1  0
  6 33  1  1
  8 34  1  0
 10 35  1  0
 11 36  1  0
 14 37  1  0
 15 38  1  0
 16 39  1  0
 19 40  1  0
 20 41  1  0
 21 42  1  0
M  ISO  8  25   5  26  13  27  13  28  13  29  13  30  13  31  13  32  13
M  ISO  8  33  13  34  14  35  14  36   9  37  14  38  14  39  14  40  14
M  ISO  2  41  14  42  14
M  END
>  <minimizedAffinity>  (1) 
-4.64745188

>  <minimizedRMSD>  (1) 
0.384535521

$$$$
