
     RDKit          3D

 37 39  0  0  1  0  0  0  0  0999 V2000
   37.0630   29.0750   36.3360 S   0  0  0  0  0  0  0  0  0  0  0  0
   33.1210   27.0500   36.8460 N   0  0  0  0  0  0  0  0  0  0  0  0
   33.2750   28.3950   37.3480 C   0  0  0  0  0  0  0  0  0  0  0  0
   34.3840   29.1490   36.6560 C   0  0  0  0  0  0  0  0  0  0  0  0
   35.4730   28.2210   36.1670 C   0  0  2  0  0  0  0  0  0  0  0  0
   35.5690   26.9660   36.9900 C   0  0  0  0  0  0  0  0  0  0  0  0
   34.2760   26.2150   37.0830 C   0  0  2  0  0  0  0  0  0  0  0  0
   34.2420   25.0520   36.2400 N   0  0  0  0  0  0  0  0  0  0  0  0
   37.1920   30.0310   40.2470 C   0  0  0  0  0  0  0  0  0  0  0  0
   37.2460   31.3990   40.2640 C   0  0  0  0  0  0  0  0  0  0  0  0
   37.2450   32.0780   39.0490 C   0  0  0  0  0  0  0  0  0  0  0  0
   37.1880   31.3400   37.8820 C   0  0  0  0  0  0  0  0  0  0  0  0
   37.1340   29.9700   37.8750 C   0  0  0  0  0  0  0  0  0  0  0  0
   37.1380   29.3540   39.0670 N   0  0  0  0  0  0  0  0  0  0  0  0
   38.0800   28.9950   43.6380 C   0  0  0  0  0  0  0  0  0  0  0  0
   37.2530   27.8890   43.8640 C   0  0  0  0  0  0  0  0  0  0  0  0
   36.3830   27.4970   42.8380 C   0  0  0  0  0  0  0  0  0  0  0  0
   36.4040   28.2180   41.7000 N   0  0  0  0  0  0  0  0  0  0  0  0
   37.1920   29.2640   41.4970 C   0  0  0  0  0  0  0  0  0  0  0  0
   38.0240   29.6400   42.4790 N   0  0  0  0  0  0  0  0  0  0  0  0
   32.9547   27.0972   35.8306 H   0  0  0  0  0  0  0  0  0  0  0  0
   32.3308   28.9384   37.1953 H   0  0  0  0  0  0  0  0  0  0  0  0
   33.5347   28.3249   38.4146 H   0  0  0  0  0  0  0  0  0  0  0  0
   33.9638   29.6898   35.7952 H   0  0  0  0  0  0  0  0  0  0  0  0
   34.8286   29.8459   37.3817 H   0  0  0  0  0  0  0  0  0  0  0  0
   35.2350   27.9510   35.1275 H   0  0  0  0  0  0  0  0  0  0  0  0
   36.3229   26.3071   36.5344 H   0  0  0  0  0  0  0  0  0  0  0  0
   35.8434   27.2678   38.0116 H   0  0  0  0  0  0  0  0  0  0  0  0
   34.2247   25.8689   38.1259 H   0  0  0  0  0  0  0  0  0  0  0  0
   34.2172   24.2046   36.8249 H   0  0  0  0  0  0  0  0  0  0  0  0
   33.4016   25.0834   35.6454 H   0  0  0  0  0  0  0  0  0  0  0  0
   37.2892   31.9487   41.2158 H   0  0  0  0  0  0  0  0  0  0  0  0
   37.2886   33.1767   39.0184 H   0  0  0  0  0  0  0  0  0  0  0  0
   37.1859   31.8732   36.9199 H   0  0  0  0  0  0  0  0  0  0  0  0
   38.7765   29.3300   44.4207 H   0  0  0  0  0  0  0  0  0  0  0  0
   37.2850   27.3436   44.8187 H   0  0  0  0  0  0  0  0  0  0  0  0
   35.7098   26.6352   42.9568 H   0  0  0  0  0  0  0  0  0  0  0  0
  1 13  1  0
  2  7  1  0
  2  3  1  0
  4  3  1  0
  5  1  1  0
  5  4  1  0
  5  6  1  0
  6  7  1  0
  8  7  1  0
  9 10  2  0
  9 19  1  0
 11 10  1  0
 12 11  2  0
 13 12  1  0
 13 14  2  0
 14  9  1  0
 15 16  2  0
 17 16  1  0
 18 17  2  0
 19 18  1  0
 19 20  2  0
 20 15  1  0
  2 21  1  0
  3 22  1  0
  3 23  1  0
  4 24  1  0
  4 25  1  0
  5 26  1  6
  6 27  1  0
  6 28  1  0
  7 29  1  1
  8 30  1  0
  8 31  1  0
 10 32  1  0
 11 33  1  0
 12 34  1  0
 15 35  1  0
 16 36  1  0
 17 37  1  0
M  ISO  8  21   5  22  13  23  13  24  13  25  13  26  13  27  13  28  13
M  ISO  8  29  13  30   5  31   5  32  14  33  14  34  14  35  14  36  14
M  ISO  1  37  14
M  END
>  <minimizedAffinity>  (1) 
-4.58329296

>  <minimizedRMSD>  (1) 
0.0122882109

$$$$
