
     RDKit          3D

 33 36  0  0  0  0  0  0  0  0999 V2000
   37.1600   28.0380   39.6290 C   0  0  0  0  0  0  0  0  0  0  0  0
   37.5330   27.0210   40.5160 C   0  0  0  0  0  0  0  0  0  0  0  0
   37.7760   25.7620   39.9590 C   0  0  0  0  0  0  0  0  0  0  0  0
   37.6510   25.5680   38.6290 N   0  0  0  0  0  0  0  0  0  0  0  0
   37.2860   26.5860   37.8030 C   0  0  0  0  0  0  0  0  0  0  0  0
   37.0410   27.8250   38.3140 N   0  0  0  0  0  0  0  0  0  0  0  0
   36.8780   29.3540   40.0830 N   0  0  0  0  0  0  0  0  0  0  0  0
   35.9670   29.9800   40.8780 C   0  0  0  0  0  0  0  0  0  0  0  0
   36.2430   31.2890   40.9240 N   0  0  0  0  0  0  0  0  0  0  0  0
   37.3340   31.5190   40.1590 C   0  0  0  0  0  0  0  0  0  0  0  0
   37.9290   32.7460   39.9520 C   0  0  0  0  0  0  0  0  0  0  0  0
   39.0180   32.7560   39.1470 N   0  0  0  0  0  0  0  0  0  0  0  0
   39.4390   31.5810   38.6090 C   0  0  0  0  0  0  0  0  0  0  0  0
   38.8420   30.4140   38.8290 N   0  0  0  0  0  0  0  0  0  0  0  0
   37.7390   30.3120   39.6280 C   0  0  0  0  0  0  0  0  0  0  0  0
   37.6710   27.1910   41.8920 N   0  0  0  0  0  0  0  0  0  0  0  0
   36.7120   26.8610   42.9280 C   0  0  0  0  0  0  0  0  0  0  0  0
   36.9870   27.8840   44.0250 C   0  0  0  0  0  0  0  0  0  0  0  0
   38.1680   28.6870   43.5620 C   0  0  0  0  0  0  0  0  0  0  0  0
   38.8080   27.7270   42.5980 C   0  0  0  0  0  0  0  0  0  0  0  0
   38.0708   24.9245   40.6084 H   0  0  0  0  0  0  0  0  0  0  0  0
   37.1887   26.4084   36.7218 H   0  0  0  0  0  0  0  0  0  0  0  0
   35.1342   29.4870   41.4009 H   0  0  0  0  0  0  0  0  0  0  0  0
   37.5407   33.6652   40.4149 H   0  0  0  0  0  0  0  0  0  0  0  0
   40.3233   31.5967   37.9549 H   0  0  0  0  0  0  0  0  0  0  0  0
   35.6825   26.9573   42.5528 H   0  0  0  0  0  0  0  0  0  0  0  0
   36.8110   25.8241   43.2817 H   0  0  0  0  0  0  0  0  0  0  0  0
   36.1131   28.5371   44.1652 H   0  0  0  0  0  0  0  0  0  0  0  0
   37.1885   27.3939   44.9889 H   0  0  0  0  0  0  0  0  0  0  0  0
   37.8543   29.6143   43.0602 H   0  0  0  0  0  0  0  0  0  0  0  0
   38.8311   29.0261   44.3715 H   0  0  0  0  0  0  0  0  0  0  0  0
   39.3554   26.9349   43.1299 H   0  0  0  0  0  0  0  0  0  0  0  0
   39.5521   28.1977   41.9387 H   0  0  0  0  0  0  0  0  0  0  0  0
  1  7  1  0
  1  2  1  0
  2 16  1  0
  3  2  2  0
  4  3  1  0
  5  6  1  0
  5  4  2  0
  6  1  2  0
  7  8  1  0
  8  9  2  0
 10  9  1  0
 11 10  2  0
 12 11  1  0
 13 14  1  0
 13 12  2  0
 14 15  2  0
 15  7  1  0
 15 10  1  0
 16 20  1  0
 16 17  1  0
 17 18  1  0
 19 18  1  0
 20 19  1  0
  3 21  1  0
  5 22  1  0
  8 23  1  0
 11 24  1  0
 13 25  1  0
 17 26  1  0
 17 27  1  0
 18 28  1  0
 18 29  1  0
 19 30  1  0
 19 31  1  0
 20 32  1  0
 20 33  1  0
M  ISO  8  21  14  22  14  23  14  24  14  25  14  26  13  27  13  28  13
M  ISO  5  29  13  30  13  31  13  32  13  33  13
M  END
>  <minimizedAffinity>  (1) 
-5.01684427

>  <minimizedRMSD>  (1) 
3.20023274

$$$$
