
     RDKit          3D

 36 39  0  0  0  0  0  0  0  0999 V2000
   38.5780   27.4990   41.0270 C   0  0  0  0  0  0  0  0  0  0  0  0
   38.6320   26.5060   41.9860 C   0  0  0  0  0  0  0  0  0  0  0  0
   39.2960   26.7920   43.2260 C   0  0  0  0  0  0  0  0  0  0  0  0
   39.8430   28.0190   43.4060 N   0  0  0  0  0  0  0  0  0  0  0  0
   39.7780   28.9570   42.4650 C   0  0  0  0  0  0  0  0  0  0  0  0
   39.1650   28.6690   41.3390 N   0  0  0  0  0  0  0  0  0  0  0  0
   38.0980   25.2200   41.8350 N   0  0  0  0  0  0  0  0  0  0  0  0
   38.8170   23.9860   41.4490 C   0  0  0  0  0  0  0  0  0  0  0  0
   37.7790   23.1540   40.7710 C   0  0  0  0  0  0  0  0  0  0  0  0
   36.4820   23.9210   40.9370 C   0  0  0  0  0  0  0  0  0  0  0  0
   36.7580   24.8030   42.0740 C   0  0  0  0  0  0  0  0  0  0  0  0
   37.9850   27.4250   39.7190 C   0  0  0  0  0  0  0  0  0  0  0  0
   38.4320   26.9770   38.5810 N   0  0  0  0  0  0  0  0  0  0  0  0
   38.0220   26.9080   37.3570 C   0  0  0  0  0  0  0  0  0  0  0  0
   36.8080   27.4250   37.1370 N   0  0  0  0  0  0  0  0  0  0  0  0
   36.1430   27.9620   38.2070 C   0  0  0  0  0  0  0  0  0  0  0  0
   34.9230   28.4900   37.8720 C   0  0  0  0  0  0  0  0  0  0  0  0
   34.2090   29.0740   38.8860 C   0  0  0  0  0  0  0  0  0  0  0  0
   34.6890   29.1290   40.1660 C   0  0  0  0  0  0  0  0  0  0  0  0
   35.9260   28.5590   40.3550 C   0  0  0  0  0  0  0  0  0  0  0  0
   36.7490   27.9420   39.4420 C   0  0  0  0  0  0  0  0  0  0  0  0
   39.3598   26.0292   44.0159 H   0  0  0  0  0  0  0  0  0  0  0  0
   40.2261   29.9487   42.6254 H   0  0  0  0  0  0  0  0  0  0  0  0
   39.6438   24.2154   40.7607 H   0  0  0  0  0  0  0  0  0  0  0  0
   39.2694   23.4747   42.3115 H   0  0  0  0  0  0  0  0  0  0  0  0
   37.7058   22.1652   41.2474 H   0  0  0  0  0  0  0  0  0  0  0  0
   38.0201   22.9794   39.7120 H   0  0  0  0  0  0  0  0  0  0  0  0
   36.2497   24.5034   40.0332 H   0  0  0  0  0  0  0  0  0  0  0  0
   35.6121   23.2676   41.0990 H   0  0  0  0  0  0  0  0  0  0  0  0
   36.6769   24.2583   43.0262 H   0  0  0  0  0  0  0  0  0  0  0  0
   36.0502   25.6411   42.1555 H   0  0  0  0  0  0  0  0  0  0  0  0
   38.6265   26.4576   36.5559 H   0  0  0  0  0  0  0  0  0  0  0  0
   34.5370   28.4472   36.8428 H   0  0  0  0  0  0  0  0  0  0  0  0
   33.2237   29.5101   38.6646 H   0  0  0  0  0  0  0  0  0  0  0  0
   34.1249   29.5965   40.9865 H   0  0  0  0  0  0  0  0  0  0  0  0
   36.3127   28.6028   41.3838 H   0  0  0  0  0  0  0  0  0  0  0  0
  1  6  2  0
  1  2  1  0
  2  3  2  0
  3  4  1  0
  5  4  2  0
  6  5  1  0
  7  2  1  0
  7 11  1  0
  8  7  1  0
  9 10  1  0
  9  8  1  0
 10 11  1  0
 12  1  1  0
 13 12  2  0
 14 13  1  0
 15 14  2  0
 15 16  1  0
 16 21  2  0
 17 16  1  0
 17 18  2  0
 18 19  1  0
 19 20  2  0
 21 12  1  0
 21 20  1  0
  3 22  1  0
  5 23  1  0
  8 24  1  0
  8 25  1  0
  9 26  1  0
  9 27  1  0
 10 28  1  0
 10 29  1  0
 11 30  1  0
 11 31  1  0
 14 32  1  0
 17 33  1  0
 18 34  1  0
 19 35  1  0
 20 36  1  0
M  ISO  8  22  14  23  14  24  13  25  13  26  13  27  13  28  13  29  13
M  ISO  7  30  13  31  13  32  14  33  14  34  14  35  14  36  14
M  END
>  <minimizedAffinity>  (1) 
-4.81301928

>  <minimizedRMSD>  (1) 
5.82926559

$$$$
