
     RDKit          3D

 31 33  0  0  0  0  0  0  0  0999 V2000
   37.0680   30.0610   39.1790 C   0  0  0  0  0  0  0  0  0  0  0  0
   36.9430   28.8770   39.9060 C   0  0  0  0  0  0  0  0  0  0  0  0
   36.0880   27.8890   39.3580 C   0  0  0  0  0  0  0  0  0  0  0  0
   35.4560   28.1350   38.1940 N   0  0  0  0  0  0  0  0  0  0  0  0
   35.5970   29.2810   37.5190 C   0  0  0  0  0  0  0  0  0  0  0  0
   36.4130   30.2460   38.0270 N   0  0  0  0  0  0  0  0  0  0  0  0
   37.5960   28.6050   41.1000 N   0  0  0  0  0  0  0  0  0  0  0  0
   37.1970   28.9910   42.4450 C   0  0  0  0  0  0  0  0  0  0  0  0
   38.5050   29.2570   43.1620 C   0  0  0  0  0  0  0  0  0  0  0  0
   39.5820   28.7610   42.2300 C   0  0  0  0  0  0  0  0  0  0  0  0
   38.7940   27.8660   41.3160 C   0  0  0  0  0  0  0  0  0  0  0  0
   37.8360   31.2330   39.5420 C   0  0  0  0  0  0  0  0  0  0  0  0
   37.1260   32.4470   39.4990 C   0  0  0  0  0  0  0  0  0  0  0  0
   37.5950   33.7330   39.7760 C   0  0  0  0  0  0  0  0  0  0  0  0
   38.9130   33.8180   40.1370 C   0  0  0  0  0  0  0  0  0  0  0  0
   39.6400   32.6530   40.1900 C   0  0  0  0  0  0  0  0  0  0  0  0
   39.0920   31.4840   39.9050 N   0  0  0  0  0  0  0  0  0  0  0  0
   35.9417   26.9307   39.8778 H   0  0  0  0  0  0  0  0  0  0  0  0
   35.0635   29.4413   36.5705 H   0  0  0  0  0  0  0  0  0  0  0  0
   36.5742   29.8974   42.4216 H   0  0  0  0  0  0  0  0  0  0  0  0
   36.5947   28.2169   42.9430 H   0  0  0  0  0  0  0  0  0  0  0  0
   38.6271   30.3334   43.3527 H   0  0  0  0  0  0  0  0  0  0  0  0
   38.5456   28.7525   44.1386 H   0  0  0  0  0  0  0  0  0  0  0  0
   40.0489   29.5897   41.6774 H   0  0  0  0  0  0  0  0  0  0  0  0
   40.4199   28.2603   42.7371 H   0  0  0  0  0  0  0  0  0  0  0  0
   38.5813   26.8993   41.7958 H   0  0  0  0  0  0  0  0  0  0  0  0
   39.3259   27.6201   40.3851 H   0  0  0  0  0  0  0  0  0  0  0  0
   36.0670   32.3739   39.2106 H   0  0  0  0  0  0  0  0  0  0  0  0
   36.9477   34.6198   39.7085 H   0  0  0  0  0  0  0  0  0  0  0  0
   39.3749   34.7871   40.3768 H   0  0  0  0  0  0  0  0  0  0  0  0
   40.7014   32.6940   40.4759 H   0  0  0  0  0  0  0  0  0  0  0  0
  1 12  1  0
  1  2  1  0
  2  7  1  0
  3  2  2  0
  4  3  1  0
  5  6  1  0
  5  4  2  0
  6  1  2  0
  7 11  1  0
  7  8  1  0
  8  9  1  0
 10  9  1  0
 11 10  1  0
 12 17  1  0
 13 12  2  0
 13 14  1  0
 14 15  2  0
 15 16  1  0
 17 16  2  0
  3 18  1  0
  5 19  1  0
  8 20  1  0
  8 21  1  0
  9 22  1  0
  9 23  1  0
 10 24  1  0
 10 25  1  0
 11 26  1  0
 11 27  1  0
 13 28  1  0
 14 29  1  0
 15 30  1  0
 16 31  1  0
M  ISO  8  18  14  19  14  20  13  21  13  22  13  23  13  24  13  25  13
M  ISO  6  26  13  27  13  28  14  29  14  30  14  31  14
M  END
>  <minimizedAffinity>  (1) 
-4.33969736

>  <minimizedRMSD>  (1) 
3.25580072

$$$$
