
     RDKit          3D

 29 31  0  0  0  0  0  0  0  0999 V2000
   38.2430   29.8220   42.0150 C   0  0  0  0  0  0  0  0  0  0  0  0
   38.1020   30.2220   40.6930 C   0  0  0  0  0  0  0  0  0  0  0  0
   39.0630   31.1400   40.1680 C   0  0  0  0  0  0  0  0  0  0  0  0
   40.0580   31.5760   40.9710 N   0  0  0  0  0  0  0  0  0  0  0  0
   40.1740   31.1780   42.2370 C   0  0  0  0  0  0  0  0  0  0  0  0
   39.2850   30.3310   42.7230 N   0  0  0  0  0  0  0  0  0  0  0  0
   37.0790   29.7980   39.8460 N   0  0  0  0  0  0  0  0  0  0  0  0
   35.6730   30.2160   39.8500 C   0  0  0  0  0  0  0  0  0  0  0  0
   34.9210   29.0210   39.3370 C   0  0  0  0  0  0  0  0  0  0  0  0
   35.9850   28.0140   38.9490 C   0  0  0  0  0  0  0  0  0  0  0  0
   37.1650   28.9000   38.7430 C   0  0  0  0  0  0  0  0  0  0  0  0
   37.5030   28.8530   42.7850 C   0  0  0  0  0  0  0  0  0  0  0  0
   36.7260   27.7510   42.6400 C   0  0  0  0  0  0  0  0  0  0  0  0
   36.2640   27.1870   43.7910 C   0  0  0  0  0  0  0  0  0  0  0  0
   36.8200   28.0310   44.7120 C   0  0  0  0  0  0  0  0  0  0  0  0
   37.4960   28.9350   44.1140 O   0  0  0  0  0  0  0  0  0  0  0  0
   38.9937   31.4863   39.1262 H   0  0  0  0  0  0  0  0  0  0  0  0
   40.9962   31.5485   42.8668 H   0  0  0  0  0  0  0  0  0  0  0  0
   35.3469   30.4720   40.8689 H   0  0  0  0  0  0  0  0  0  0  0  0
   35.5024   31.1119   39.2349 H   0  0  0  0  0  0  0  0  0  0  0  0
   34.2696   28.6097   40.1222 H   0  0  0  0  0  0  0  0  0  0  0  0
   34.2720   29.2792   38.4872 H   0  0  0  0  0  0  0  0  0  0  0  0
   36.1636   27.2864   39.7545 H   0  0  0  0  0  0  0  0  0  0  0  0
   35.7255   27.3991   38.0746 H   0  0  0  0  0  0  0  0  0  0  0  0
   38.1024   28.3252   38.7717 H   0  0  0  0  0  0  0  0  0  0  0  0
   37.1652   29.4067   37.7667 H   0  0  0  0  0  0  0  0  0  0  0  0
   36.4829   27.3365   41.6505 H   0  0  0  0  0  0  0  0  0  0  0  0
   35.6252   26.3036   43.9377 H   0  0  0  0  0  0  0  0  0  0  0  0
   36.7029   27.9446   45.8023 H   0  0  0  0  0  0  0  0  0  0  0  0
  1  6  2  0
  1 12  1  0
  2  1  1  0
  3  2  2  0
  3  4  1  0
  4  5  2  0
  5  6  1  0
  7  8  1  0
  7  2  1  0
  9  8  1  0
 10  9  1  0
 11 10  1  0
 11  7  1  0
 12 16  1  0
 13 12  2  0
 13 14  1  0
 14 15  2  0
 16 15  1  0
  3 17  1  0
  5 18  1  0
  8 19  1  0
  8 20  1  0
  9 21  1  0
  9 22  1  0
 10 23  1  0
 10 24  1  0
 11 25  1  0
 11 26  1  0
 13 27  1  0
 14 28  1  0
 15 29  1  0
M  ISO  8  17  14  18  14  19  13  20  13  21  13  22  13  23  13  24  13
M  ISO  5  25  13  26  13  27  14  28  14  29  14
M  END
>  <minimizedAffinity>  (1) 
-4.3080678

>  <minimizedRMSD>  (1) 
4.55281448

$$$$
