
     RDKit          3D

 28 30  0  0  0  0  0  0  0  0999 V2000
   38.7300   27.8070   43.3360 C   0  0  0  0  0  0  0  0  0  0  0  0
   37.4420   27.2540   43.1600 C   0  0  0  0  0  0  0  0  0  0  0  0
   36.5330   27.9710   42.3800 C   0  0  0  0  0  0  0  0  0  0  0  0
   36.9390   29.1540   41.8370 N   0  0  0  0  0  0  0  0  0  0  0  0
   38.1810   29.6530   42.0270 C   0  0  0  0  0  0  0  0  0  0  0  0
   39.0720   28.9890   42.7690 N   0  0  0  0  0  0  0  0  0  0  0  0
   38.4970   30.8920   41.4140 N   0  0  0  0  0  0  0  0  0  0  0  0
   37.5900   31.5820   40.7050 C   0  0  0  0  0  0  0  0  0  0  0  0
   38.0390   32.7630   40.1720 C   0  0  0  0  0  0  0  0  0  0  0  0
   39.3180   33.2550   40.3230 C   0  0  0  0  0  0  0  0  0  0  0  0
   39.7040   34.3450   39.8220 O   0  0  0  0  0  0  0  0  0  0  0  0
   40.1830   32.5130   41.0490 N   0  0  0  0  0  0  0  0  0  0  0  0
   39.7610   31.3450   41.5820 C   0  0  0  0  0  0  0  0  0  0  0  0
   40.6210   30.6870   42.2580 O   0  0  0  0  0  0  0  0  0  0  0  0
   41.5110   32.9980   41.2200 C   0  0  0  0  0  0  0  0  0  0  0  0
   41.8820   34.2270   40.7860 N   0  0  0  0  0  0  0  0  0  0  0  0
   43.1380   34.4290   41.0610 O   0  0  0  0  0  0  0  0  0  0  0  0
   43.6400   33.3730   41.6730 C   0  0  0  0  0  0  0  0  0  0  0  0
   42.6420   32.4770   41.7780 N   0  0  0  0  0  0  0  0  0  0  0  0
   37.1210   33.6070   39.3690 C   0  0  0  0  0  0  0  0  0  0  0  0
   39.4698   27.2673   43.9454 H   0  0  0  0  0  0  0  0  0  0  0  0
   37.1656   26.2940   43.6205 H   0  0  0  0  0  0  0  0  0  0  0  0
   35.5151   27.5913   42.2078 H   0  0  0  0  0  0  0  0  0  0  0  0
   36.5593   31.2254   40.5616 H   0  0  0  0  0  0  0  0  0  0  0  0
   44.6737   33.2494   42.0283 H   0  0  0  0  0  0  0  0  0  0  0  0
   36.4807   34.1957   40.0424 H   0  0  0  0  0  0  0  0  0  0  0  0
   37.7086   34.2868   38.7345 H   0  0  0  0  0  0  0  0  0  0  0  0
   36.4928   32.9645   38.7345 H   0  0  0  0  0  0  0  0  0  0  0  0
  2  1  2  0
  3  2  1  0
  4  5  1  0
  4  3  2  0
  5  6  2  0
  6  1  1  0
  7 13  1  0
  7  5  1  0
  8  7  1  0
  9 10  1  0
  9  8  2  0
 10 12  1  0
 11 10  2  0
 12 15  1  0
 12 13  1  0
 13 14  2  0
 15 19  1  0
 16 17  1  0
 16 15  2  0
 17 18  1  0
 18 19  2  0
 20  9  1  0
  1 21  1  0
  2 22  1  0
  3 23  1  0
  8 24  1  0
 18 25  1  0
 20 26  1  0
 20 27  1  0
 20 28  1  0
M  ISO  8  21  14  22  14  23  14  24  14  25  14  26   8  27   8  28   8
M  END
>  <minimizedAffinity>  (1) 
-5.7725668

>  <minimizedRMSD>  (1) 
0.540868223

$$$$
