
     RDKit          3D

 29 31  0  0  0  0  0  0  0  0999 V2000
   37.9040   29.8010   41.6250 C   0  0  0  0  0  0  0  0  0  0  0  0
   37.3810   28.5180   41.8380 C   0  0  0  0  0  0  0  0  0  0  0  0
   36.0790   28.2890   41.3740 C   0  0  0  0  0  0  0  0  0  0  0  0
   35.4240   29.3130   40.7580 N   0  0  0  0  0  0  0  0  0  0  0  0
   35.9620   30.5250   40.5740 C   0  0  0  0  0  0  0  0  0  0  0  0
   37.2260   30.7750   41.0150 N   0  0  0  0  0  0  0  0  0  0  0  0
   39.2150   30.1200   42.0690 N   0  0  0  0  0  0  0  0  0  0  0  0
   39.9330   31.0600   42.7060 C   0  0  0  0  0  0  0  0  0  0  0  0
   41.2520   30.6650   42.7900 C   0  0  0  0  0  0  0  0  0  0  0  0
   41.3300   29.4450   42.1820 N   0  0  0  0  0  0  0  0  0  0  0  0
   40.0800   29.1150   41.7420 C   0  0  0  0  0  0  0  0  0  0  0  0
   38.0700   27.4830   42.4650 N   0  0  0  0  0  0  0  0  0  0  0  0
   38.4420   27.3820   43.8600 C   0  0  0  0  0  0  0  0  0  0  0  0
   39.7690   26.6290   43.8360 C   0  0  0  0  0  0  0  0  0  0  0  0
   39.9510   26.1590   42.4140 C   0  0  0  0  0  0  0  0  0  0  0  0
   38.5630   26.2690   41.8510 C   0  0  0  0  0  0  0  0  0  0  0  0
   35.5980   27.3082   41.5036 H   0  0  0  0  0  0  0  0  0  0  0  0
   35.3862   31.3147   40.0693 H   0  0  0  0  0  0  0  0  0  0  0  0
   39.5293   32.0037   43.1015 H   0  0  0  0  0  0  0  0  0  0  0  0
   42.0781   31.2229   43.2551 H   0  0  0  0  0  0  0  0  0  0  0  0
   39.8131   28.1897   41.2104 H   0  0  0  0  0  0  0  0  0  0  0  0
   38.5672   28.3805   44.3043 H   0  0  0  0  0  0  0  0  0  0  0  0
   37.6778   26.8728   44.4656 H   0  0  0  0  0  0  0  0  0  0  0  0
   40.5933   27.2967   44.1269 H   0  0  0  0  0  0  0  0  0  0  0  0
   39.7686   25.7865   44.5433 H   0  0  0  0  0  0  0  0  0  0  0  0
   40.6530   26.8069   41.8686 H   0  0  0  0  0  0  0  0  0  0  0  0
   40.3739   25.1463   42.3392 H   0  0  0  0  0  0  0  0  0  0  0  0
   38.5848   26.3587   40.7549 H   0  0  0  0  0  0  0  0  0  0  0  0
   37.9361   25.3887   42.0560 H   0  0  0  0  0  0  0  0  0  0  0  0
  1  2  1  0
  1  7  1  0
  2 12  1  0
  3  2  2  0
  4  3  1  0
  5  4  2  0
  5  6  1  0
  6  1  2  0
  7  8  1  0
  8  9  2  0
 10  9  1  0
 11  7  1  0
 11 10  2  0
 12 13  1  0
 14 13  1  0
 15 14  1  0
 16 15  1  0
 16 12  1  0
  3 17  1  0
  5 18  1  0
  8 19  1  0
  9 20  1  0
 11 21  1  0
 13 22  1  0
 13 23  1  0
 14 24  1  0
 14 25  1  0
 15 26  1  0
 15 27  1  0
 16 28  1  0
 16 29  1  0
M  ISO  8  17  14  18  14  19  14  20  14  21  14  22  13  23  13  24  13
M  ISO  5  25  13  26  13  27  13  28  13  29  13
M  END
>  <minimizedAffinity>  (1) 
-4.18147421

>  <minimizedRMSD>  (1) 
1.29259765

$$$$
