
     RDKit          3D

 29 31  0  0  0  0  0  0  0  0999 V2000
   37.0900   27.5040   41.0210 C   0  0  0  0  0  0  0  0  0  0  0  0
   37.6500   28.4470   41.8640 C   0  0  0  0  0  0  0  0  0  0  0  0
   37.1000   29.7710   41.8810 C   0  0  0  0  0  0  0  0  0  0  0  0
   36.0550   30.0440   41.0750 N   0  0  0  0  0  0  0  0  0  0  0  0
   35.5310   29.1250   40.2770 C   0  0  0  0  0  0  0  0  0  0  0  0
   36.0420   27.9060   40.2660 N   0  0  0  0  0  0  0  0  0  0  0  0
   38.6990   28.1760   42.7590 N   0  0  0  0  0  0  0  0  0  0  0  0
   40.0580   28.7320   42.6950 C   0  0  0  0  0  0  0  0  0  0  0  0
   40.8950   27.6150   43.2660 C   0  0  0  0  0  0  0  0  0  0  0  0
   39.9210   26.7000   43.9560 C   0  0  0  0  0  0  0  0  0  0  0  0
   38.6320   27.3360   43.9500 C   0  0  0  0  0  0  0  0  0  0  0  0
   37.4700   26.1530   40.7960 C   0  0  0  0  0  0  0  0  0  0  0  0
   36.9710   25.1030   41.5960 C   0  0  0  0  0  0  0  0  0  0  0  0
   37.4930   23.9070   41.3230 N   0  0  0  0  0  0  0  0  0  0  0  0
   38.3630   24.0700   40.3330 C   0  0  0  0  0  0  0  0  0  0  0  0
   38.2760   25.3700   40.1060 N   0  0  0  0  0  0  0  0  0  0  0  0
   37.5216   30.5466   42.5373 H   0  0  0  0  0  0  0  0  0  0  0  0
   34.6778   29.3745   39.6291 H   0  0  0  0  0  0  0  0  0  0  0  0
   40.3476   28.9554   41.6576 H   0  0  0  0  0  0  0  0  0  0  0  0
   40.1685   29.6833   43.2361 H   0  0  0  0  0  0  0  0  0  0  0  0
   41.4229   27.0802   42.4627 H   0  0  0  0  0  0  0  0  0  0  0  0
   41.6635   27.9913   43.9573 H   0  0  0  0  0  0  0  0  0  0  0  0
   39.8663   25.7409   43.4202 H   0  0  0  0  0  0  0  0  0  0  0  0
   40.2459   26.5055   44.9888 H   0  0  0  0  0  0  0  0  0  0  0  0
   38.4837   27.9421   44.8559 H   0  0  0  0  0  0  0  0  0  0  0  0
   37.7927   26.6251   43.9382 H   0  0  0  0  0  0  0  0  0  0  0  0
   36.2146   25.2584   42.3794 H   0  0  0  0  0  0  0  0  0  0  0  0
   38.9921   23.3193   39.8322 H   0  0  0  0  0  0  0  0  0  0  0  0
   38.8580   25.7852   39.3645 H   0  0  0  0  0  0  0  0  0  0  0  0
  1  2  1  0
  2  3  2  0
  2  7  1  0
  4  3  1  0
  5  4  2  0
  6  5  1  0
  6  1  2  0
  7 11  1  0
  8  7  1  0
  8  9  1  0
  9 10  1  0
 11 10  1  0
 12  1  1  0
 12 13  2  0
 14 13  1  0
 15 14  2  0
 16 15  1  0
 16 12  1  0
  3 17  1  0
  5 18  1  0
  8 19  1  0
  8 20  1  0
  9 21  1  0
  9 22  1  0
 10 23  1  0
 10 24  1  0
 11 25  1  0
 11 26  1  0
 13 27  1  0
 15 28  1  0
 16 29  1  0
M  ISO  8  17  14  18  14  19  13  20  13  21  13  22  13  23  13  24  13
M  ISO  5  25  13  26  13  27  14  28  14  29   9
M  END
>  <minimizedAffinity>  (1) 
-4.09241962

>  <minimizedRMSD>  (1) 
4.49495125

$$$$
