
     RDKit          3D

 36 38  0  0  0  0  0  0  0  0999 V2000
   37.7010   28.8640   43.7660 C   0  0  0  0  0  0  0  0  0  0  0  0
   37.1160   27.5780   43.8140 C   0  0  0  0  0  0  0  0  0  0  0  0
   36.5970   27.0450   42.6310 C   0  0  0  0  0  0  0  0  0  0  0  0
   36.6990   27.8110   41.5170 N   0  0  0  0  0  0  0  0  0  0  0  0
   37.2570   29.0350   41.4810 C   0  0  0  0  0  0  0  0  0  0  0  0
   37.7520   29.5490   42.6020 N   0  0  0  0  0  0  0  0  0  0  0  0
   37.2990   29.7320   40.2510 N   0  0  0  0  0  0  0  0  0  0  0  0
   36.7400   29.2090   39.1330 C   0  0  0  0  0  0  0  0  0  0  0  0
   36.8630   30.0070   38.0190 C   0  0  0  0  0  0  0  0  0  0  0  0
   37.4830   31.2330   37.9750 C   0  0  0  0  0  0  0  0  0  0  0  0
   37.5510   31.8950   36.9160 O   0  0  0  0  0  0  0  0  0  0  0  0
   38.0240   31.7000   39.1340 N   0  0  0  0  0  0  0  0  0  0  0  0
   37.9150   30.9310   40.2460 C   0  0  0  0  0  0  0  0  0  0  0  0
   38.4250   31.3940   41.2960 O   0  0  0  0  0  0  0  0  0  0  0  0
   38.6960   32.9890   39.1660 C   0  0  0  0  0  0  0  0  0  0  0  0
   40.1020   32.9240   39.6890 C   0  0  0  0  0  0  0  0  0  0  0  0
   40.4050   34.2580   40.3220 C   0  0  0  0  0  0  0  0  0  0  0  0
   39.1110   35.0120   40.3220 C   0  0  0  0  0  0  0  0  0  0  0  0
   38.0100   34.0050   40.0080 C   0  0  0  0  0  0  0  0  0  0  0  0
   36.2820   29.5270   36.7280 C   0  0  0  0  0  0  0  0  0  0  0  0
   38.1172   29.3098   44.6814 H   0  0  0  0  0  0  0  0  0  0  0  0
   37.0706   27.0125   44.7564 H   0  0  0  0  0  0  0  0  0  0  0  0
   36.1277   26.0505   42.6049 H   0  0  0  0  0  0  0  0  0  0  0  0
   36.2329   28.2330   39.1174 H   0  0  0  0  0  0  0  0  0  0  0  0
   38.6806   33.2820   38.1059 H   0  0  0  0  0  0  0  0  0  0  0  0
   40.1887   32.1232   40.4381 H   0  0  0  0  0  0  0  0  0  0  0  0
   40.8110   32.7077   38.8763 H   0  0  0  0  0  0  0  0  0  0  0  0
   40.7682   34.1202   41.3511 H   0  0  0  0  0  0  0  0  0  0  0  0
   41.1891   34.7988   39.7718 H   0  0  0  0  0  0  0  0  0  0  0  0
   38.9379   35.4659   41.3089 H   0  0  0  0  0  0  0  0  0  0  0  0
   39.1276   35.8214   39.5773 H   0  0  0  0  0  0  0  0  0  0  0  0
   37.1871   34.4822   39.4557 H   0  0  0  0  0  0  0  0  0  0  0  0
   37.5540   33.5743   40.9116 H   0  0  0  0  0  0  0  0  0  0  0  0
   35.4490   28.8388   36.9342 H   0  0  0  0  0  0  0  0  0  0  0  0
   35.9127   30.3869   36.1499 H   0  0  0  0  0  0  0  0  0  0  0  0
   37.0568   29.0021   36.1499 H   0  0  0  0  0  0  0  0  0  0  0  0
  1  2  2  0
  3  2  1  0
  4  3  2  0
  5  4  1  0
  5  6  2  0
  6  1  1  0
  7  5  1  0
  8  7  1  0
  9  8  2  0
 10  9  1  0
 10 12  1  0
 11 10  2  0
 12 15  1  0
 12 13  1  0
 13  7  1  0
 13 14  2  0
 15 16  1  0
 15 19  1  0
 16 17  1  0
 18 17  1  0
 19 18  1  0
 20  9  1  0
  1 21  1  0
  2 22  1  0
  3 23  1  0
  8 24  1  0
 15 25  1  0
 16 26  1  0
 16 27  1  0
 17 28  1  0
 17 29  1  0
 18 30  1  0
 18 31  1  0
 19 32  1  0
 19 33  1  0
 20 34  1  0
 20 35  1  0
 20 36  1  0
M  ISO  8  21  14  22  14  23  14  24  14  25  13  26  13  27  13  28  13
M  ISO  8  29  13  30  13  31  13  32  13  33  13  34   8  35   8  36   8
M  END
>  <minimizedAffinity>  (1) 
-5.68356276

>  <minimizedRMSD>  (1) 
3.25736165

$$$$
