
     RDKit          3D

 30 32  0  0  0  0  0  0  0  0999 V2000
   37.5950   28.5960   43.9300 C   0  0  0  0  0  0  0  0  0  0  0  0
   37.0170   27.3040   43.8480 C   0  0  0  0  0  0  0  0  0  0  0  0
   36.5560   26.8610   42.6110 C   0  0  0  0  0  0  0  0  0  0  0  0
   36.6940   27.7050   41.5560 N   0  0  0  0  0  0  0  0  0  0  0  0
   37.2480   28.9330   41.6570 C   0  0  0  0  0  0  0  0  0  0  0  0
   37.7000   29.3830   42.8420 N   0  0  0  0  0  0  0  0  0  0  0  0
   37.3390   29.7290   40.4790 N   0  0  0  0  0  0  0  0  0  0  0  0
   36.8210   29.3100   39.3130 C   0  0  0  0  0  0  0  0  0  0  0  0
   36.9790   30.1750   38.2580 C   0  0  0  0  0  0  0  0  0  0  0  0
   37.6090   31.3870   38.3420 C   0  0  0  0  0  0  0  0  0  0  0  0
   37.7420   32.1670   37.3600 O   0  0  0  0  0  0  0  0  0  0  0  0
   38.1120   31.7540   39.5530 N   0  0  0  0  0  0  0  0  0  0  0  0
   37.9730   30.9240   40.6100 C   0  0  0  0  0  0  0  0  0  0  0  0
   38.4520   31.3020   41.7110 O   0  0  0  0  0  0  0  0  0  0  0  0
   38.7680   33.0020   39.6680 C   0  0  0  0  0  0  0  0  0  0  0  0
   38.1940   34.2400   40.0570 C   0  0  0  0  0  0  0  0  0  0  0  0
   38.9960   35.3490   40.1090 C   0  0  0  0  0  0  0  0  0  0  0  0
   40.3820   35.1450   39.7540 C   0  0  0  0  0  0  0  0  0  0  0  0
   40.4340   33.3460   39.3650 S   0  0  0  0  0  0  0  0  0  0  0  0
   36.4460   29.8080   36.9320 C   0  0  0  0  0  0  0  0  0  0  0  0
   37.9642   28.9622   44.8993 H   0  0  0  0  0  0  0  0  0  0  0  0
   36.9347   26.6665   44.7406 H   0  0  0  0  0  0  0  0  0  0  0  0
   36.0985   25.8676   42.4931 H   0  0  0  0  0  0  0  0  0  0  0  0
   36.3068   28.3430   39.2102 H   0  0  0  0  0  0  0  0  0  0  0  0
   37.1260   34.3077   40.3117 H   0  0  0  0  0  0  0  0  0  0  0  0
   38.6085   36.3356   40.4032 H   0  0  0  0  0  0  0  0  0  0  0  0
   41.2001   35.8797   39.7238 H   0  0  0  0  0  0  0  0  0  0  0  0
   35.5459   29.1882   37.0573 H   0  0  0  0  0  0  0  0  0  0  0  0
   36.1880   30.7208   36.3751 H   0  0  0  0  0  0  0  0  0  0  0  0
   37.2067   29.2413   36.3751 H   0  0  0  0  0  0  0  0  0  0  0  0
  2  1  2  0
  3  2  1  0
  4  5  1  0
  4  3  2  0
  5  6  2  0
  6  1  1  0
  7 13  1  0
  7  5  1  0
  8  7  1  0
  9 10  1  0
  9  8  2  0
 10 12  1  0
 11 10  2  0
 12 15  1  0
 12 13  1  0
 13 14  2  0
 15 16  2  0
 16 17  1  0
 18 17  2  0
 19 15  1  0
 19 18  1  0
 20  9  1  0
  1 21  1  0
  2 22  1  0
  3 23  1  0
  8 24  1  0
 16 25  1  0
 17 26  1  0
 18 27  1  0
 20 28  1  0
 20 29  1  0
 20 30  1  0
M  ISO  8  21  14  22  14  23  14  24  14  25  14  26  14  27  14  28   8
M  ISO  2  29   8  30   8
M  END
>  <minimizedAffinity>  (1) 
-5.61713409

>  <minimizedRMSD>  (1) 
3.02575135

$$$$
