
     RDKit          3D

 41 44  0  0  1  0  0  0  0  0999 V2000
   37.9980   29.4980   39.5870 C   0  0  0  0  0  0  0  0  0  0  0  0
   38.6820   29.2130   40.7580 C   0  0  0  0  0  0  0  0  0  0  0  0
   40.0210   29.6610   40.8530 C   0  0  0  0  0  0  0  0  0  0  0  0
   40.5700   30.3350   39.8170 N   0  0  0  0  0  0  0  0  0  0  0  0
   39.8610   30.5920   38.6820 C   0  0  0  0  0  0  0  0  0  0  0  0
   38.5780   30.1770   38.5630 N   0  0  0  0  0  0  0  0  0  0  0  0
   36.6650   29.1840   39.2400 N   0  0  0  0  0  0  0  0  0  0  0  0
   35.4800   28.5970   39.8340 C   0  0  0  0  0  0  0  0  0  0  0  0
   34.3260   29.0260   38.9760 C   0  0  0  0  0  0  0  0  0  0  0  0
   34.9290   29.1180   37.5980 C   0  0  0  0  0  0  0  0  0  0  0  0
   36.3130   29.5670   37.8680 C   0  0  0  0  0  0  0  0  0  0  0  0
   38.1240   28.5260   41.8150 N   0  0  0  0  0  0  0  0  0  0  0  0
   37.1740   29.0330   42.8040 C   0  0  0  0  0  0  0  0  0  0  0  0
   37.4650   28.2490   44.0480 C   0  0  0  0  0  0  0  0  0  0  0  0
   38.4560   27.2150   43.6520 C   0  0  0  0  0  0  0  0  0  0  0  0
   38.3550   27.1510   42.1750 C   0  0  1  0  0  0  0  0  0  0  0  0
   37.1480   26.3380   41.7550 C   0  0  0  0  0  0  0  0  0  0  0  0
   37.0730   24.8820   42.0880 C   0  0  0  0  0  0  0  0  0  0  0  0
   37.3570   25.3340   40.6470 C   0  0  0  0  0  0  0  0  0  0  0  0
   40.6097   29.4629   41.7609 H   0  0  0  0  0  0  0  0  0  0  0  0
   40.3353   31.1414   37.8554 H   0  0  0  0  0  0  0  0  0  0  0  0
   35.5614   27.5001   39.8432 H   0  0  0  0  0  0  0  0  0  0  0  0
   35.3490   28.9250   40.8757 H   0  0  0  0  0  0  0  0  0  0  0  0
   33.5175   28.2806   39.0027 H   0  0  0  0  0  0  0  0  0  0  0  0
   33.8716   29.9707   39.3093 H   0  0  0  0  0  0  0  0  0  0  0  0
   34.3898   29.8501   36.9788 H   0  0  0  0  0  0  0  0  0  0  0  0
   34.8821   28.1707   37.0408 H   0  0  0  0  0  0  0  0  0  0  0  0
   37.0041   29.0871   37.1594 H   0  0  0  0  0  0  0  0  0  0  0  0
   36.3861   30.6582   37.7497 H   0  0  0  0  0  0  0  0  0  0  0  0
   37.3310   30.1079   42.9773 H   0  0  0  0  0  0  0  0  0  0  0  0
   36.1305   28.9195   42.4751 H   0  0  0  0  0  0  0  0  0  0  0  0
   37.8853   28.9049   44.8247 H   0  0  0  0  0  0  0  0  0  0  0  0
   36.5527   27.7971   44.4646 H   0  0  0  0  0  0  0  0  0  0  0  0
   39.4700   27.5100   43.9600 H   0  0  0  0  0  0  0  0  0  0  0  0
   38.2589   26.2428   44.1273 H   0  0  0  0  0  0  0  0  0  0  0  0
   39.2391   26.6923   41.7082 H   0  0  0  0  0  0  0  0  0  0  0  0
   36.4683   27.1841   41.9346 H   0  0  0  0  0  0  0  0  0  0  0  0
   37.8685   24.4117   42.6847 H   0  0  0  0  0  0  0  0  0  0  0  0
   36.3288   24.2294   42.5680 H   0  0  0  0  0  0  0  0  0  0  0  0
   36.5933   25.2049   39.8659 H   0  0  0  0  0  0  0  0  0  0  0  0
   38.1437   25.1380   39.9036 H   0  0  0  0  0  0  0  0  0  0  0  0
  1  2  1  0
  2  3  2  0
  2 12  1  0
  4  3  1  0
  5  4  2  0
  6  5  1  0
  6  1  2  0
  7  1  1  0
  7  8  1  0
  9  8  1  0
 10 11  1  0
 10  9  1  0
 11  7  1  0
 12 16  1  0
 12 13  1  0
 13 14  1  0
 15 14  1  0
 16 15  1  0
 17 18  1  0
 17 16  1  0
 19 17  1  0
 19 18  1  0
  3 20  1  0
  5 21  1  0
  8 22  1  0
  8 23  1  0
  9 24  1  0
  9 25  1  0
 10 26  1  0
 10 27  1  0
 11 28  1  0
 11 29  1  0
 13 30  1  0
 13 31  1  0
 14 32  1  0
 14 33  1  0
 15 34  1  0
 15 35  1  0
 16 36  1  6
 17 37  1  0
 18 38  1  0
 18 39  1  0
 19 40  1  0
 19 41  1  0
M  ISO  8  20  14  21  14  22  13  23  13  24  13  25  13  26  13  27  13
M  ISO  8  28  13  29  13  30  13  31  13  32  13  33  13  34  13  35  13
M  ISO  6  36  13  37  13  38  13  39  13  40  13  41  13
M  END
>  <minimizedAffinity>  (1) 
-4.97600079

>  <minimizedRMSD>  (1) 
2.42205834

$$$$
