
     RDKit          3D

 48 51  0  0  1  0  0  0  0  0999 V2000
   37.5190   28.5310   41.4140 C   0  0  0  0  0  0  0  0  0  0  0  0
   37.8110   27.1690   41.5380 C   0  0  0  0  0  0  0  0  0  0  0  0
   37.9860   26.6760   42.8390 C   0  0  0  0  0  0  0  0  0  0  0  0
   37.8710   27.5070   43.8940 N   0  0  0  0  0  0  0  0  0  0  0  0
   37.5850   28.8260   43.7260 C   0  0  0  0  0  0  0  0  0  0  0  0
   37.4090   29.3370   42.4880 N   0  0  0  0  0  0  0  0  0  0  0  0
   37.2950   29.2830   40.2270 N   0  0  0  0  0  0  0  0  0  0  0  0
   37.2560   29.1120   38.7860 C   0  0  0  0  0  0  0  0  0  0  0  0
   36.5370   30.3280   38.2540 C   0  0  0  0  0  0  0  0  0  0  0  0
   36.9040   31.4150   39.2220 C   0  0  0  0  0  0  0  0  0  0  0  0
   37.0140   30.6910   40.5120 C   0  0  0  0  0  0  0  0  0  0  0  0
   37.9220   26.3190   40.4390 N   0  0  0  0  0  0  0  0  0  0  0  0
   39.0910   26.0890   39.6200 C   0  0  0  0  0  0  0  0  0  0  0  0
   38.5490   25.7500   38.2580 C   0  0  0  0  0  0  0  0  0  0  0  0
   37.0860   25.6210   38.4390 C   0  0  0  0  0  0  0  0  0  0  0  0
   36.8760   25.5270   39.9040 C   0  0  1  0  0  0  0  0  0  0  0  0
   36.6330   24.2720   40.4810 N   0  0  0  0  0  0  0  0  0  0  0  0
   35.6730   23.4870   39.8240 C   0  0  0  0  0  0  0  0  0  0  0  0
   36.1530   22.2640   39.1160 C   0  0  0  0  0  0  0  0  0  0  0  0
   37.2770   21.6290   39.7460 N   0  0  0  0  0  0  0  0  0  0  0  0
   38.2560   22.5470   40.2550 C   0  0  0  0  0  0  0  0  0  0  0  0
   37.6200   23.5620   41.1710 C   0  0  0  0  0  0  0  0  0  0  0  0
   38.2169   25.6124   42.9984 H   0  0  0  0  0  0  0  0  0  0  0  0
   37.4963   29.4816   44.6048 H   0  0  0  0  0  0  0  0  0  0  0  0
   38.2760   29.0594   38.3775 H   0  0  0  0  0  0  0  0  0  0  0  0
   36.7472   28.1797   38.4997 H   0  0  0  0  0  0  0  0  0  0  0  0
   36.8824   30.5744   37.2391 H   0  0  0  0  0  0  0  0  0  0  0  0
   35.4501   30.1783   38.1756 H   0  0  0  0  0  0  0  0  0  0  0  0
   37.8616   31.8816   38.9478 H   0  0  0  0  0  0  0  0  0  0  0  0
   36.1735   32.2370   39.2476 H   0  0  0  0  0  0  0  0  0  0  0  0
   36.0688   30.7764   41.0681 H   0  0  0  0  0  0  0  0  0  0  0  0
   37.8220   31.1227   41.1209 H   0  0  0  0  0  0  0  0  0  0  0  0
   39.7153   26.9935   39.5739 H   0  0  0  0  0  0  0  0  0  0  0  0
   39.7280   25.2880   40.0233 H   0  0  0  0  0  0  0  0  0  0  0  0
   38.9774   24.8030   37.8980 H   0  0  0  0  0  0  0  0  0  0  0  0
   38.8032   26.5187   37.5133 H   0  0  0  0  0  0  0  0  0  0  0  0
   36.5689   26.5025   38.0321 H   0  0  0  0  0  0  0  0  0  0  0  0
   36.6849   24.7430   37.9116 H   0  0  0  0  0  0  0  0  0  0  0  0
   35.8833   25.9098   40.1834 H   0  0  0  0  0  0  0  0  0  0  0  0
   34.9385   23.1653   40.5770 H   0  0  0  0  0  0  0  0  0  0  0  0
   35.2766   24.1350   39.0284 H   0  0  0  0  0  0  0  0  0  0  0  0
   36.4438   22.5475   38.0937 H   0  0  0  0  0  0  0  0  0  0  0  0
   35.3256   21.5394   39.1347 H   0  0  0  0  0  0  0  0  0  0  0  0
   36.9293   21.0586   40.5300 H   0  0  0  0  0  0  0  0  0  0  0  0
   39.0189   21.9857   40.8144 H   0  0  0  0  0  0  0  0  0  0  0  0
   38.7130   23.0780   39.4069 H   0  0  0  0  0  0  0  0  0  0  0  0
   38.3890   24.2617   41.5303 H   0  0  0  0  0  0  0  0  0  0  0  0
   37.1622   23.0424   42.0256 H   0  0  0  0  0  0  0  0  0  0  0  0
  1  2  1  0
  1  6  2  0
  2  3  2  0
  3  4  1  0
  5  4  2  0
  6  5  1  0
  7 11  1  0
  7  1  1  0
  8  7  1  0
  9  8  1  0
  9 10  1  0
 10 11  1  0
 12  2  1  0
 13 12  1  0
 14 15  1  0
 14 13  1  0
 15 16  1  0
 16 12  1  0
 16 17  1  0
 17 22  1  0
 18 17  1  0
 19 20  1  0
 19 18  1  0
 20 21  1  0
 21 22  1  0
  3 23  1  0
  5 24  1  0
  8 25  1  0
  8 26  1  0
  9 27  1  0
  9 28  1  0
 10 29  1  0
 10 30  1  0
 11 31  1  0
 11 32  1  0
 13 33  1  0
 13 34  1  0
 14 35  1  0
 14 36  1  0
 15 37  1  0
 15 38  1  0
 16 39  1  6
 18 40  1  0
 18 41  1  0
 19 42  1  0
 19 43  1  0
 20 44  1  0
 21 45  1  0
 21 46  1  0
 22 47  1  0
 22 48  1  0
M  ISO  8  23  14  24  14  25  13  26  13  27  13  28  13  29  13  30  13
M  ISO  8  31  13  32  13  33  13  34  13  35  13  36  13  37  13  38  13
M  ISO  8  39  13  40  13  41  13  42  13  43  13  44   5  45  13  46  13
M  ISO  2  47  13  48  13
M  END
>  <minimizedAffinity>  (1) 
-4.88056707

>  <minimizedRMSD>  (1) 
5.44801855

$$$$
