
     RDKit          3D

 43 45  0  0  1  0  0  0  0  0999 V2000
   37.9050   28.1310   40.6880 C   0  0  0  0  0  0  0  0  0  0  0  0
   37.6900   29.1260   41.6270 C   0  0  0  0  0  0  0  0  0  0  0  0
   37.4370   28.7360   42.9550 C   0  0  0  0  0  0  0  0  0  0  0  0
   37.4160   27.4170   43.2570 N   0  0  0  0  0  0  0  0  0  0  0  0
   37.6320   26.4710   42.3110 C   0  0  0  0  0  0  0  0  0  0  0  0
   37.8790   26.8200   41.0170 N   0  0  0  0  0  0  0  0  0  0  0  0
   38.1660   28.2520   39.3030 N   0  0  0  0  0  0  0  0  0  0  0  0
   38.4230   29.2800   38.3130 C   0  0  0  0  0  0  0  0  0  0  0  0
   38.9680   28.5930   37.1120 C   0  0  0  0  0  0  0  0  0  0  0  0
   38.4110   27.2110   37.1650 C   0  0  0  0  0  0  0  0  0  0  0  0
   38.2080   26.9590   38.6070 C   0  0  0  0  0  0  0  0  0  0  0  0
   37.7400   30.4830   41.3180 N   0  0  0  0  0  0  0  0  0  0  0  0
   36.6330   31.2890   40.7760 C   0  0  0  0  0  0  0  0  0  0  0  0
   37.2820   32.3600   39.9710 C   0  0  0  0  0  0  0  0  0  0  0  0
   38.7320   32.1930   40.1920 C   0  0  0  0  0  0  0  0  0  0  0  0
   38.8270   31.3820   41.4460 C   0  0  2  0  0  0  0  0  0  0  0  0
   40.1990   30.7660   41.4440 C   0  0  0  0  0  0  0  0  0  0  0  0
   41.0110   31.3330   40.2490 C   0  0  0  0  0  0  0  0  0  0  0  0
   41.0490   31.0350   42.6320 C   0  0  0  0  0  0  0  0  0  0  0  0
   37.2592   29.4909   43.7350 H   0  0  0  0  0  0  0  0  0  0  0  0
   37.6076   25.4076   42.5912 H   0  0  0  0  0  0  0  0  0  0  0  0
   37.4892   29.8031   38.0590 H   0  0  0  0  0  0  0  0  0  0  0  0
   39.1327   30.0282   38.6959 H   0  0  0  0  0  0  0  0  0  0  0  0
   40.0671   28.5674   37.1479 H   0  0  0  0  0  0  0  0  0  0  0  0
   38.6928   29.1115   36.1817 H   0  0  0  0  0  0  0  0  0  0  0  0
   37.4570   27.1534   36.6205 H   0  0  0  0  0  0  0  0  0  0  0  0
   39.0753   26.4699   36.6964 H   0  0  0  0  0  0  0  0  0  0  0  0
   37.2594   26.4236   38.7605 H   0  0  0  0  0  0  0  0  0  0  0  0
   39.0299   26.3439   39.0022 H   0  0  0  0  0  0  0  0  0  0  0  0
   35.9819   30.6708   40.1405 H   0  0  0  0  0  0  0  0  0  0  0  0
   35.9995   31.7036   41.5740 H   0  0  0  0  0  0  0  0  0  0  0  0
   36.9523   33.3520   40.3134 H   0  0  0  0  0  0  0  0  0  0  0  0
   37.0197   32.2863   38.9053 H   0  0  0  0  0  0  0  0  0  0  0  0
   39.1955   31.6607   39.3483 H   0  0  0  0  0  0  0  0  0  0  0  0
   39.2569   33.1561   40.2751 H   0  0  0  0  0  0  0  0  0  0  0  0
   38.7426   31.9034   42.4109 H   0  0  0  0  0  0  0  0  0  0  0  0
   39.9921   29.6862   41.4088 H   0  0  0  0  0  0  0  0  0  0  0  0
   41.8575   31.9241   40.6285 H   0  0  0  0  0  0  0  0  0  0  0  0
   41.3897   30.5020   39.6358 H   0  0  0  0  0  0  0  0  0  0  0  0
   40.3613   31.9748   39.6358 H   0  0  0  0  0  0  0  0  0  0  0  0
   40.4680   30.8511   43.5478 H   0  0  0  0  0  0  0  0  0  0  0  0
   41.9252   30.3703   42.6140 H   0  0  0  0  0  0  0  0  0  0  0  0
   41.3833   32.0828   42.6140 H   0  0  0  0  0  0  0  0  0  0  0  0
  1  6  2  0
  1  2  1  0
  2  3  2  0
  3  4  1  0
  5  4  2  0
  6  5  1  0
  7  1  1  0
  8  7  1  0
  9 10  1  0
  9  8  1  0
 10 11  1  0
 11  7  1  0
 12 16  1  0
 12  2  1  0
 13 12  1  0
 14 15  1  0
 14 13  1  0
 15 16  1  0
 17 16  1  0
 17 19  1  0
 18 17  1  0
  3 20  1  0
  5 21  1  0
  8 22  1  0
  8 23  1  0
  9 24  1  0
  9 25  1  0
 10 26  1  0
 10 27  1  0
 11 28  1  0
 11 29  1  0
 13 30  1  0
 13 31  1  0
 14 32  1  0
 14 33  1  0
 15 34  1  0
 15 35  1  0
 16 36  1  1
 17 37  1  0
 18 38  1  0
 18 39  1  0
 18 40  1  0
 19 41  1  0
 19 42  1  0
 19 43  1  0
M  ISO  8  20  14  21  14  22  13  23  13  24  13  25  13  26  13  27  13
M  ISO  8  28  13  29  13  30  13  31  13  32  13  33  13  34  13  35  13
M  ISO  8  36  13  37   8  38   8  39   8  40   8  41   8  42   8  43   8
M  END
>  <minimizedAffinity>  (1) 
-4.21165323

>  <minimizedRMSD>  (1) 
4.46862316

$$$$
