
     RDKit          3D

 36 38  0  0  1  0  0  0  0  0999 V2000
   38.1110   30.0020   40.9400 C   0  0  0  0  0  0  0  0  0  0  0  0
   38.7280   29.4030   42.0430 C   0  0  0  0  0  0  0  0  0  0  0  0
   39.7490   30.1340   42.6940 C   0  0  0  0  0  0  0  0  0  0  0  0
   40.0860   31.3580   42.2350 N   0  0  0  0  0  0  0  0  0  0  0  0
   39.4570   31.9030   41.1530 C   0  0  0  0  0  0  0  0  0  0  0  0
   38.4790   31.2260   40.5160 N   0  0  0  0  0  0  0  0  0  0  0  0
   37.0760   29.4720   40.1270 N   0  0  0  0  0  0  0  0  0  0  0  0
   36.2320   28.3140   39.9990 C   0  0  0  0  0  0  0  0  0  0  0  0
   35.0430   28.7790   39.1780 C   0  0  0  0  0  0  0  0  0  0  0  0
   35.6760   29.7470   38.2160 C   0  0  0  0  0  0  0  0  0  0  0  0
   36.7370   30.3890   39.0420 C   0  0  0  0  0  0  0  0  0  0  0  0
   38.3930   28.1440   42.5240 N   0  0  0  0  0  0  0  0  0  0  0  0
   38.7550   26.8420   41.9670 C   0  0  0  0  0  0  0  0  0  0  0  0
   37.5720   25.9540   42.2960 C   0  0  0  0  0  0  0  0  0  0  0  0
   36.7420   26.7470   43.2280 C   0  0  0  0  0  0  0  0  0  0  0  0
   37.6120   27.8500   43.6810 C   0  0  2  0  0  0  0  0  0  0  0  0
   36.8640   28.9900   44.1810 N   0  0  0  0  0  0  0  0  0  0  0  0
   40.2645   29.7084   43.5676 H   0  0  0  0  0  0  0  0  0  0  0  0
   39.7498   32.9020   40.7976 H   0  0  0  0  0  0  0  0  0  0  0  0
   36.7652   27.5031   39.4812 H   0  0  0  0  0  0  0  0  0  0  0  0
   35.9263   27.9170   40.9782 H   0  0  0  0  0  0  0  0  0  0  0  0
   34.5732   27.9386   38.6460 H   0  0  0  0  0  0  0  0  0  0  0  0
   34.2372   29.2218   39.7818 H   0  0  0  0  0  0  0  0  0  0  0  0
   34.9452   30.4896   37.8631 H   0  0  0  0  0  0  0  0  0  0  0  0
   36.0646   29.2652   37.3066 H   0  0  0  0  0  0  0  0  0  0  0  0
   37.6263   30.5822   38.4241 H   0  0  0  0  0  0  0  0  0  0  0  0
   36.3804   31.3475   39.4471 H   0  0  0  0  0  0  0  0  0  0  0  0
   39.6729   26.4586   42.4365 H   0  0  0  0  0  0  0  0  0  0  0  0
   38.9593   26.8882   40.8871 H   0  0  0  0  0  0  0  0  0  0  0  0
   37.0055   25.7122   41.3846 H   0  0  0  0  0  0  0  0  0  0  0  0
   37.8858   24.9962   42.7367 H   0  0  0  0  0  0  0  0  0  0  0  0
   35.8546   27.1429   42.7124 H   0  0  0  0  0  0  0  0  0  0  0  0
   36.3764   26.1404   44.0697 H   0  0  0  0  0  0  0  0  0  0  0  0
   38.2347   27.5775   44.5459 H   0  0  0  0  0  0  0  0  0  0  0  0
   36.8706   28.9800   45.2109 H   0  0  0  0  0  0  0  0  0  0  0  0
   37.2986   29.8606   43.8433 H   0  0  0  0  0  0  0  0  0  0  0  0
  1  2  1  0
  2 12  1  0
  2  3  2  0
  4  3  1  0
  5  4  2  0
  6  1  2  0
  6  5  1  0
  7  1  1  0
  8  7  1  0
  9  8  1  0
 10 11  1  0
 10  9  1  0
 11  7  1  0
 12 16  1  0
 13 14  1  0
 13 12  1  0
 14 15  1  0
 15 16  1  0
 16 17  1  0
  3 18  1  0
  5 19  1  0
  8 20  1  0
  8 21  1  0
  9 22  1  0
  9 23  1  0
 10 24  1  0
 10 25  1  0
 11 26  1  0
 11 27  1  0
 13 28  1  0
 13 29  1  0
 14 30  1  0
 14 31  1  0
 15 32  1  0
 15 33  1  0
 16 34  1  1
 17 35  1  0
 17 36  1  0
M  ISO  8  18  14  19  14  20  13  21  13  22  13  23  13  24  13  25  13
M  ISO  8  26  13  27  13  28  13  29  13  30  13  31  13  32  13  33  13
M  ISO  3  34  13  35   5  36   5
M  END
>  <minimizedAffinity>  (1) 
-5.08980608

>  <minimizedRMSD>  (1) 
0.503530204

$$$$
