
     RDKit          3D

 30 32  0  0  0  0  0  0  0  0999 V2000
   37.5840   28.5910   43.9330 C   0  0  0  0  0  0  0  0  0  0  0  0
   37.0210   27.2950   43.8360 C   0  0  0  0  0  0  0  0  0  0  0  0
   36.5820   26.8640   42.5850 C   0  0  0  0  0  0  0  0  0  0  0  0
   36.7200   27.7120   41.5220 N   0  0  0  0  0  0  0  0  0  0  0  0
   37.2640   28.9470   41.6530 C   0  0  0  0  0  0  0  0  0  0  0  0
   37.6940   29.3880   42.8410 N   0  0  0  0  0  0  0  0  0  0  0  0
   37.3580   29.7500   40.4690 N   0  0  0  0  0  0  0  0  0  0  0  0
   36.8650   29.3270   39.2970 C   0  0  0  0  0  0  0  0  0  0  0  0
   37.0340   30.2100   38.2660 C   0  0  0  0  0  0  0  0  0  0  0  0
   37.6480   31.4380   38.3640 C   0  0  0  0  0  0  0  0  0  0  0  0
   37.7890   32.2330   37.3900 O   0  0  0  0  0  0  0  0  0  0  0  0
   38.1310   31.8130   39.5870 N   0  0  0  0  0  0  0  0  0  0  0  0
   37.9700   30.9510   40.6140 C   0  0  0  0  0  0  0  0  0  0  0  0
   38.4260   31.3250   41.7310 O   0  0  0  0  0  0  0  0  0  0  0  0
   38.7670   33.0690   39.7230 C   0  0  0  0  0  0  0  0  0  0  0  0
   38.2500   34.2970   40.0780 C   0  0  0  0  0  0  0  0  0  0  0  0
   39.2620   35.2430   40.0750 C   0  0  0  0  0  0  0  0  0  0  0  0
   40.3780   34.5190   39.7060 C   0  0  0  0  0  0  0  0  0  0  0  0
   40.0400   33.2810   39.5150 O   0  0  0  0  0  0  0  0  0  0  0  0
   36.5410   29.8770   36.9170 C   0  0  0  0  0  0  0  0  0  0  0  0
   37.9373   28.9566   44.9084 H   0  0  0  0  0  0  0  0  0  0  0  0
   36.9328   26.6480   44.7212 H   0  0  0  0  0  0  0  0  0  0  0  0
   36.1359   25.8668   42.4567 H   0  0  0  0  0  0  0  0  0  0  0  0
   36.3673   28.3537   39.1745 H   0  0  0  0  0  0  0  0  0  0  0  0
   37.1966   34.4949   40.3254 H   0  0  0  0  0  0  0  0  0  0  0  0
   39.1928   36.3153   40.3105 H   0  0  0  0  0  0  0  0  0  0  0  0
   41.3931   34.9271   39.5920 H   0  0  0  0  0  0  0  0  0  0  0  0
   35.6321   29.2630   37.0000 H   0  0  0  0  0  0  0  0  0  0  0  0
   36.3088   30.8040   36.3723 H   0  0  0  0  0  0  0  0  0  0  0  0
   37.3143   29.3155   36.3723 H   0  0  0  0  0  0  0  0  0  0  0  0
  2  1  2  0
  3  2  1  0
  4  5  1  0
  4  3  2  0
  5  6  2  0
  6  1  1  0
  7 13  1  0
  7  5  1  0
  8  7  1  0
  9 10  1  0
  9  8  2  0
 10 12  1  0
 11 10  2  0
 12 15  1  0
 12 13  1  0
 13 14  2  0
 15 16  2  0
 17 16  1  0
 18 17  2  0
 19 18  1  0
 19 15  1  0
 20  9  1  0
  1 21  1  0
  2 22  1  0
  3 23  1  0
  8 24  1  0
 16 25  1  0
 17 26  1  0
 18 27  1  0
 20 28  1  0
 20 29  1  0
 20 30  1  0
M  ISO  8  21  14  22  14  23  14  24  14  25  14  26  14  27  14  28   8
M  ISO  2  29   8  30   8
M  END
>  <minimizedAffinity>  (1) 
-5.46914053

>  <minimizedRMSD>  (1) 
2.95666528

$$$$
