
     RDKit          3D

 42 44  0  0  1  0  0  0  0  0999 V2000
   39.6820   29.9760   41.7470 C   0  0  0  0  0  0  0  0  0  0  0  0
   40.1230   28.6950   42.0700 C   0  0  0  0  0  0  0  0  0  0  0  0
   41.3620   28.6020   42.7610 C   0  0  0  0  0  0  0  0  0  0  0  0
   42.0410   29.7280   43.0690 N   0  0  0  0  0  0  0  0  0  0  0  0
   41.5570   30.9480   42.7270 C   0  0  0  0  0  0  0  0  0  0  0  0
   40.3880   31.0770   42.0710 N   0  0  0  0  0  0  0  0  0  0  0  0
   38.4770   30.3350   41.0670 N   0  0  0  0  0  0  0  0  0  0  0  0
   37.2920   29.7420   40.4910 C   0  0  0  0  0  0  0  0  0  0  0  0
   36.2990   30.8720   40.3810 C   0  0  0  0  0  0  0  0  0  0  0  0
   37.1590   32.0600   40.0860 C   0  0  0  0  0  0  0  0  0  0  0  0
   38.3770   31.7780   40.8790 C   0  0  0  0  0  0  0  0  0  0  0  0
   39.4270   27.5450   41.7620 N   0  0  0  0  0  0  0  0  0  0  0  0
   39.4160   26.7930   40.5270 C   0  0  0  0  0  0  0  0  0  0  0  0
   38.0080   26.2300   40.4410 C   0  0  0  0  0  0  0  0  0  0  0  0
   37.4360   26.4250   41.7900 C   0  0  0  0  0  0  0  0  0  0  0  0
   38.5440   26.8470   42.6490 C   0  0  2  0  0  0  0  0  0  0  0  0
   38.1690   27.5370   43.8150 N   0  0  0  0  0  0  0  0  0  0  0  0
   37.0670   28.3590   43.9020 C   0  0  0  0  0  0  0  0  0  0  0  0
   36.4340   28.1130   45.2870 C   0  0  0  0  0  0  0  0  0  0  0  0
   41.7654   27.6183   43.0432 H   0  0  0  0  0  0  0  0  0  0  0  0
   42.1302   31.8491   42.9905 H   0  0  0  0  0  0  0  0  0  0  0  0
   37.5132   29.3246   39.4976 H   0  0  0  0  0  0  0  0  0  0  0  0
   36.9067   28.9138   41.1039 H   0  0  0  0  0  0  0  0  0  0  0  0
   35.5846   30.6904   39.5645 H   0  0  0  0  0  0  0  0  0  0  0  0
   35.6884   30.9976   41.2873 H   0  0  0  0  0  0  0  0  0  0  0  0
   37.3900   32.1269   39.0126 H   0  0  0  0  0  0  0  0  0  0  0  0
   36.6835   33.0193   40.3383 H   0  0  0  0  0  0  0  0  0  0  0  0
   39.2639   32.1455   40.3420 H   0  0  0  0  0  0  0  0  0  0  0  0
   38.3202   32.2843   41.8539 H   0  0  0  0  0  0  0  0  0  0  0  0
   39.6260   27.4493   39.6696 H   0  0  0  0  0  0  0  0  0  0  0  0
   40.1844   26.0061   40.5080 H   0  0  0  0  0  0  0  0  0  0  0  0
   37.4189   26.7748   39.6886 H   0  0  0  0  0  0  0  0  0  0  0  0
   38.0032   25.1724   40.1387 H   0  0  0  0  0  0  0  0  0  0  0  0
   36.6567   27.2009   41.7648 H   0  0  0  0  0  0  0  0  0  0  0  0
   36.9695   25.5016   42.1638 H   0  0  0  0  0  0  0  0  0  0  0  0
   39.0504   25.9897   43.1167 H   0  0  0  0  0  0  0  0  0  0  0  0
   38.0361   26.8143   44.5367 H   0  0  0  0  0  0  0  0  0  0  0  0
   37.3716   29.4117   43.8067 H   0  0  0  0  0  0  0  0  0  0  0  0
   36.3495   28.1429   43.0967 H   0  0  0  0  0  0  0  0  0  0  0  0
   37.1515   28.3918   46.0728 H   0  0  0  0  0  0  0  0  0  0  0  0
   35.5242   28.7230   45.3879 H   0  0  0  0  0  0  0  0  0  0  0  0
   36.1749   27.0487   45.3879 H   0  0  0  0  0  0  0  0  0  0  0  0
  1  2  1  0
  1  6  2  0
  2  3  2  0
  3  4  1  0
  5  4  2  0
  6  5  1  0
  7  1  1  0
  8  7  1  0
  9  8  1  0
 10  9  1  0
 10 11  1  0
 11  7  1  0
 12  2  1  0
 12 16  1  0
 13 12  1  0
 14 13  1  0
 14 15  1  0
 15 16  1  0
 16 17  1  0
 17 18  1  0
 18 19  1  0
  3 20  1  0
  5 21  1  0
  8 22  1  0
  8 23  1  0
  9 24  1  0
  9 25  1  0
 10 26  1  0
 10 27  1  0
 11 28  1  0
 11 29  1  0
 13 30  1  0
 13 31  1  0
 14 32  1  0
 14 33  1  0
 15 34  1  0
 15 35  1  0
 16 36  1  1
 17 37  1  0
 18 38  1  0
 18 39  1  0
 19 40  1  0
 19 41  1  0
 19 42  1  0
M  ISO  8  20  14  21  14  22  13  23  13  24  13  25  13  26  13  27  13
M  ISO  8  28  13  29  13  30  13  31  13  32  13  33  13  34  13  35  13
M  ISO  7  36  13  37   5  38   8  39   8  40   8  41   8  42   8
M  END
>  <minimizedAffinity>  (1) 
-4.62393618

>  <minimizedRMSD>  (1) 
2.20255327

$$$$
