
     RDKit          3D

 28 30  0  0  0  0  0  0  0  0999 V2000
   40.6100   31.9760   40.9320 C   0  0  0  0  0  0  0  0  0  0  0  0
   41.9420   31.8600   41.0880 N   0  0  0  0  0  0  0  0  0  0  0  0
   42.8130   32.8470   40.9790 C   0  0  0  0  0  0  0  0  0  0  0  0
   42.4190   34.0760   40.6970 N   0  0  0  0  0  0  0  0  0  0  0  0
   41.1090   34.3320   40.5180 C   0  0  0  0  0  0  0  0  0  0  0  0
   40.6840   35.6150   40.2220 C   0  0  0  0  0  0  0  0  0  0  0  0
   39.3650   35.9020   40.0360 C   0  0  0  0  0  0  0  0  0  0  0  0
   38.4570   34.8470   40.1530 C   0  0  0  0  0  0  0  0  0  0  0  0
   38.9230   33.5910   40.4470 C   0  0  0  0  0  0  0  0  0  0  0  0
   40.2380   33.2710   40.6410 C   0  0  0  0  0  0  0  0  0  0  0  0
   38.8690   29.0220   39.8530 C   0  0  0  0  0  0  0  0  0  0  0  0
   38.0200   28.6200   40.8820 C   0  0  0  0  0  0  0  0  0  0  0  0
   38.0400   29.4070   42.0230 C   0  0  0  0  0  0  0  0  0  0  0  0
   38.8640   30.4680   42.0270 N   0  0  0  0  0  0  0  0  0  0  0  0
   39.6820   30.8710   41.0590 C   0  0  0  0  0  0  0  0  0  0  0  0
   39.6370   30.0930   39.9780 N   0  0  0  0  0  0  0  0  0  0  0  0
   37.3020   29.2190   43.1600 O   0  0  0  0  0  0  0  0  0  0  0  0
   37.2970   28.0600   43.9440 C   0  0  0  0  0  0  0  0  0  0  0  0
   36.7570   28.3340   45.1800 F   0  0  0  0  0  0  0  0  0  0  0  0
   36.3990   27.1770   43.3340 F   0  0  0  0  0  0  0  0  0  0  0  0
   38.5150   27.4210   43.9990 F   0  0  0  0  0  0  0  0  0  0  0  0
   43.8838   32.6423   41.1254 H   0  0  0  0  0  0  0  0  0  0  0  0
   41.4273   36.4212   40.1349 H   0  0  0  0  0  0  0  0  0  0  0  0
   39.0289   36.9232   39.8031 H   0  0  0  0  0  0  0  0  0  0  0  0
   37.3803   35.0216   40.0109 H   0  0  0  0  0  0  0  0  0  0  0  0
   38.1838   32.7809   40.5331 H   0  0  0  0  0  0  0  0  0  0  0  0
   38.9017   28.4393   38.9206 H   0  0  0  0  0  0  0  0  0  0  0  0
   37.3744   27.7337   40.7945 H   0  0  0  0  0  0  0  0  0  0  0  0
  1 15  1  0
  1  2  2  0
  3  2  1  0
  4  3  2  0
  5 10  2  0
  5  4  1  0
  6  5  1  0
  7  8  1  0
  7  6  2  0
  8  9  2  0
  9 10  1  0
 10  1  1  0
 11 16  2  0
 11 12  1  0
 12 13  2  0
 13 14  1  0
 13 17  1  0
 15 14  2  0
 16 15  1  0
 17 18  1  0
 18 21  1  0
 18 19  1  0
 20 18  1  0
  3 22  1  0
  6 23  1  0
  7 24  1  0
  8 25  1  0
  9 26  1  0
 11 27  1  0
 12 28  1  0
M  ISO  7  22  14  23  14  24  14  25  14  26  14  27  14  28  14
M  END
>  <minimizedAffinity>  (1) 
-6.05933237

>  <minimizedRMSD>  (1) 
4.35821342

$$$$
