
     RDKit          3D

 28 30  0  0  0  0  0  0  0  0999 V2000
   39.0540   31.1410   40.9910 C   0  0  0  0  0  0  0  0  0  0  0  0
   39.1810   32.4100   41.4000 N   0  0  0  0  0  0  0  0  0  0  0  0
   38.8200   33.4700   40.6930 C   0  0  0  0  0  0  0  0  0  0  0  0
   38.2920   33.3510   39.5000 N   0  0  0  0  0  0  0  0  0  0  0  0
   38.1090   32.1310   38.9700 C   0  0  0  0  0  0  0  0  0  0  0  0
   37.5570   31.9950   37.7140 C   0  0  0  0  0  0  0  0  0  0  0  0
   37.3630   30.7720   37.1560 C   0  0  0  0  0  0  0  0  0  0  0  0
   37.7430   29.6340   37.8990 C   0  0  0  0  0  0  0  0  0  0  0  0
   38.2900   29.8330   39.1470 C   0  0  0  0  0  0  0  0  0  0  0  0
   38.5020   31.0430   39.7430 C   0  0  0  0  0  0  0  0  0  0  0  0
   41.3760   28.7760   42.3830 C   0  0  0  0  0  0  0  0  0  0  0  0
   40.6810   27.8730   43.1700 C   0  0  0  0  0  0  0  0  0  0  0  0
   39.3060   28.0810   43.2370 C   0  0  0  0  0  0  0  0  0  0  0  0
   38.8040   29.1170   42.5430 N   0  0  0  0  0  0  0  0  0  0  0  0
   39.4600   29.9860   41.7880 C   0  0  0  0  0  0  0  0  0  0  0  0
   40.7540   29.7590   41.7490 N   0  0  0  0  0  0  0  0  0  0  0  0
   38.3750   27.3460   43.9340 O   0  0  0  0  0  0  0  0  0  0  0  0
   37.0830   27.7800   44.1230 C   0  0  0  0  0  0  0  0  0  0  0  0
   36.0800   27.1590   43.6680 O   0  0  0  0  0  0  0  0  0  0  0  0
   36.6350   28.9040   44.8010 O   0  0  0  0  0  0  0  0  0  0  0  0
   38.9670   34.4741   41.1175 H   0  0  0  0  0  0  0  0  0  0  0  0
   37.2678   32.8954   37.1523 H   0  0  0  0  0  0  0  0  0  0  0  0
   36.9221   30.6714   36.1532 H   0  0  0  0  0  0  0  0  0  0  0  0
   37.6066   28.6203   37.4942 H   0  0  0  0  0  0  0  0  0  0  0  0
   38.5823   28.9371   39.7144 H   0  0  0  0  0  0  0  0  0  0  0  0
   42.4667   28.6750   42.2822 H   0  0  0  0  0  0  0  0  0  0  0  0
   41.1795   27.0505   43.7038 H   0  0  0  0  0  0  0  0  0  0  0  0
   35.6651   29.0941   44.8575 H   0  0  0  0  0  0  0  0  0  0  0  0
  1  2  2  0
  1 15  1  0
  3  2  1  0
  4  3  2  0
  5  4  1  0
  5 10  2  0
  6  5  1  0
  7  6  2  0
  7  8  1  0
  8  9  2  0
  9 10  1  0
 10  1  1  0
 11 12  2  0
 12 13  1  0
 13 17  1  0
 14 13  2  0
 15 14  1  0
 16 15  2  0
 16 11  1  0
 17 18  1  0
 18 20  1  0
 19 18  2  0
  3 21  1  0
  6 22  1  0
  7 23  1  0
  8 24  1  0
  9 25  1  0
 11 26  1  0
 12 27  1  0
 20 28  1  0
M  ISO  8  21  14  22  14  23  14  24  14  25  14  26  14  27  14  28   3
M  END
>  <minimizedAffinity>  (1) 
-5.17190361

>  <minimizedRMSD>  (1) 
1.80553305

$$$$
