
     RDKit          3D

 27 29  0  0  0  0  0  0  0  0999 V2000
   37.6960   32.0550   39.9610 C   0  0  0  0  0  0  0  0  0  0  0  0
   37.0950   31.6260   41.0760 N   0  0  0  0  0  0  0  0  0  0  0  0
   36.2150   30.6350   41.1300 C   0  0  0  0  0  0  0  0  0  0  0  0
   35.8550   29.9750   40.0500 N   0  0  0  0  0  0  0  0  0  0  0  0
   36.3850   30.3070   38.8660 C   0  0  0  0  0  0  0  0  0  0  0  0
   36.0160   29.6210   37.7200 C   0  0  0  0  0  0  0  0  0  0  0  0
   36.5420   29.9400   36.5040 C   0  0  0  0  0  0  0  0  0  0  0  0
   37.4670   30.9830   36.4490 C   0  0  0  0  0  0  0  0  0  0  0  0
   37.7990   31.6310   37.6190 C   0  0  0  0  0  0  0  0  0  0  0  0
   37.3010   31.3470   38.8460 C   0  0  0  0  0  0  0  0  0  0  0  0
   38.7510   35.4930   40.0630 C   0  0  0  0  0  0  0  0  0  0  0  0
   40.1310   35.5330   39.9220 C   0  0  0  0  0  0  0  0  0  0  0  0
   40.7530   34.3040   39.7810 C   0  0  0  0  0  0  0  0  0  0  0  0
   39.9820   33.2020   39.7940 N   0  0  0  0  0  0  0  0  0  0  0  0
   38.6590   33.1460   39.9280 C   0  0  0  0  0  0  0  0  0  0  0  0
   38.0910   34.3400   40.0610 N   0  0  0  0  0  0  0  0  0  0  0  0
   42.0970   34.0550   39.6250 O   0  0  0  0  0  0  0  0  0  0  0  0
   42.5980   34.2850   38.3320 C   0  0  0  0  0  0  0  0  0  0  0  0
   42.4460   34.0500   37.1060 O   0  0  0  0  0  0  0  0  0  0  0  0
   35.7760   30.3585   42.1000 H   0  0  0  0  0  0  0  0  0  0  0  0
   35.2842   28.8030   37.7932 H   0  0  0  0  0  0  0  0  0  0  0  0
   36.2471   29.3934   35.5961 H   0  0  0  0  0  0  0  0  0  0  0  0
   37.9213   31.2815   35.4927 H   0  0  0  0  0  0  0  0  0  0  0  0
   38.5312   32.4490   37.5505 H   0  0  0  0  0  0  0  0  0  0  0  0
   38.1930   36.4339   40.1786 H   0  0  0  0  0  0  0  0  0  0  0  0
   40.6934   36.4784   39.9222 H   0  0  0  0  0  0  0  0  0  0  0  0
   43.4808   34.9333   38.4338 H   0  0  0  0  0  0  0  0  0  0  0  0
  1  2  2  0
  2  3  1  0
  4  3  2  0
  5  4  1  0
  6  5  2  0
  7  6  1  0
  8  7  2  0
  8  9  1  0
  9 10  2  0
 10  5  1  0
 10  1  1  0
 12 11  2  0
 13 14  2  0
 13 12  1  0
 14 15  1  0
 15  1  1  0
 15 16  2  0
 16 11  1  0
 17 13  1  0
 18 17  1  0
 19 18  2  0
  3 20  1  0
  6 21  1  0
  7 22  1  0
  8 23  1  0
  9 24  1  0
 11 25  1  0
 12 26  1  0
 18 27  1  0
M  ISO  8  20  14  21  14  22  14  23  14  24  14  25  14  26  14  27   6
M  END
>  <minimizedAffinity>  (1) 
-5.09321404

>  <minimizedRMSD>  (1) 
6.13931751

$$$$
