
     RDKit          3D

 34 36  0  0  0  0  0  0  0  0999 V2000
   37.6750   32.0500   40.0370 C   0  0  0  0  0  0  0  0  0  0  0  0
   37.0660   31.5840   41.1320 N   0  0  0  0  0  0  0  0  0  0  0  0
   36.2040   30.5750   41.1690 C   0  0  0  0  0  0  0  0  0  0  0  0
   35.8740   29.9320   40.0760 N   0  0  0  0  0  0  0  0  0  0  0  0
   36.4110   30.2960   38.8990 C   0  0  0  0  0  0  0  0  0  0  0  0
   36.0640   29.6240   37.7440 C   0  0  0  0  0  0  0  0  0  0  0  0
   36.5920   29.9750   36.5430 C   0  0  0  0  0  0  0  0  0  0  0  0
   37.5080   31.0460   36.5000 C   0  0  0  0  0  0  0  0  0  0  0  0
   37.8080   31.6720   37.6950 C   0  0  0  0  0  0  0  0  0  0  0  0
   37.2970   31.3490   38.9210 C   0  0  0  0  0  0  0  0  0  0  0  0
   38.6510   35.5040   39.9880 C   0  0  0  0  0  0  0  0  0  0  0  0
   40.0400   35.5670   40.0210 C   0  0  0  0  0  0  0  0  0  0  0  0
   40.7030   34.3450   40.0630 C   0  0  0  0  0  0  0  0  0  0  0  0
   39.9340   33.2490   40.0680 N   0  0  0  0  0  0  0  0  0  0  0  0
   38.6150   33.1610   40.0370 C   0  0  0  0  0  0  0  0  0  0  0  0
   38.0150   34.3410   39.9970 N   0  0  0  0  0  0  0  0  0  0  0  0
   42.0390   34.1390   40.1000 O   0  0  0  0  0  0  0  0  0  0  0  0
   42.7780   33.8770   41.2670 C   0  0  0  0  0  0  0  0  0  0  0  0
   43.1760   35.1810   41.9520 C   0  0  0  0  0  0  0  0  0  0  0  0
   44.0300   33.0990   40.8560 C   0  0  0  0  0  0  0  0  0  0  0  0
   35.7609   30.2748   42.1300 H   0  0  0  0  0  0  0  0  0  0  0  0
   35.3481   28.7906   37.7974 H   0  0  0  0  0  0  0  0  0  0  0  0
   36.3117   29.4366   35.6257 H   0  0  0  0  0  0  0  0  0  0  0  0
   37.9654   31.3702   35.5536 H   0  0  0  0  0  0  0  0  0  0  0  0
   38.5235   32.5066   37.6560 H   0  0  0  0  0  0  0  0  0  0  0  0
   38.0692   36.4369   39.9538 H   0  0  0  0  0  0  0  0  0  0  0  0
   40.5811   36.5247   40.0143 H   0  0  0  0  0  0  0  0  0  0  0  0
   42.1729   33.2946   41.9774 H   0  0  0  0  0  0  0  0  0  0  0  0
   43.1357   35.0490   43.0433 H   0  0  0  0  0  0  0  0  0  0  0  0
   44.1986   35.4548   41.6533 H   0  0  0  0  0  0  0  0  0  0  0  0
   42.4806   35.9792   41.6533 H   0  0  0  0  0  0  0  0  0  0  0  0
   44.5666   32.7656   41.7565 H   0  0  0  0  0  0  0  0  0  0  0  0
   43.7377   32.2232   40.2580 H   0  0  0  0  0  0  0  0  0  0  0  0
   44.6857   33.7489   40.2580 H   0  0  0  0  0  0  0  0  0  0  0  0
  1 15  1  0
  1  2  2  0
  2  3  1  0
  4  3  2  0
  5 10  2  0
  5  4  1  0
  6  5  1  0
  7  6  2  0
  8  7  1  0
  8  9  2  0
  9 10  1  0
 10  1  1  0
 11 16  2  0
 11 12  1  0
 12 13  2  0
 13 14  1  0
 13 17  1  0
 15 14  2  0
 16 15  1  0
 17 18  1  0
 18 19  1  0
 20 18  1  0
  3 21  1  0
  6 22  1  0
  7 23  1  0
  8 24  1  0
  9 25  1  0
 11 26  1  0
 12 27  1  0
 18 28  1  0
 19 29  1  0
 19 30  1  0
 19 31  1  0
 20 32  1  0
 20 33  1  0
 20 34  1  0
M  ISO  8  21  14  22  14  23  14  24  14  25  14  26  14  27  14  28   8
M  ISO  6  29   8  30   8  31   8  32   8  33   8  34   8
M  END
>  <minimizedAffinity>  (1) 
-5.17414713

>  <minimizedRMSD>  (1) 
6.36859417

$$$$
