
     RDKit          3D

 47 50  0  0  1  0  0  0  0  0999 V2000
   38.8910   35.5840   40.0770 C   0  0  0  0  0  0  0  0  0  0  0  0
   40.2050   36.0080   40.3070 C   0  0  0  0  0  0  0  0  0  0  0  0
   41.1220   35.0090   40.6570 C   0  0  0  0  0  0  0  0  0  0  0  0
   40.6430   33.7710   40.7330 N   0  0  0  0  0  0  0  0  0  0  0  0
   39.4210   33.3340   40.5250 C   0  0  0  0  0  0  0  0  0  0  0  0
   38.5670   34.3050   40.1940 N   0  0  0  0  0  0  0  0  0  0  0  0
   38.7890   32.0260   40.5770 C   0  0  0  0  0  0  0  0  0  0  0  0
   38.7110   31.2890   41.6960 N   0  0  0  0  0  0  0  0  0  0  0  0
   38.1390   30.0860   41.7830 C   0  0  0  0  0  0  0  0  0  0  0  0
   37.5950   29.5310   40.7340 N   0  0  0  0  0  0  0  0  0  0  0  0
   37.6020   30.1640   39.5440 C   0  0  0  0  0  0  0  0  0  0  0  0
   37.0250   29.5710   38.4390 C   0  0  0  0  0  0  0  0  0  0  0  0
   37.0280   30.2090   37.2290 C   0  0  0  0  0  0  0  0  0  0  0  0
   37.6350   31.4810   37.1330 C   0  0  0  0  0  0  0  0  0  0  0  0
   38.1880   32.0010   38.2820 C   0  0  0  0  0  0  0  0  0  0  0  0
   38.2060   31.4060   39.5000 C   0  0  0  0  0  0  0  0  0  0  0  0
   42.4050   35.2410   40.9090 O   0  0  0  0  0  0  0  0  0  0  0  0
   42.9640   35.4260   42.2010 C   0  0  2  0  0  0  0  0  0  0  0  0
   42.4730   36.8010   42.7150 C   0  0  0  0  0  0  0  0  0  0  0  0
   44.4680   35.4320   42.1100 C   0  0  0  0  0  0  0  0  0  0  0  0
   45.1390   34.8740   43.2410 N   0  0  0  0  0  0  0  0  0  0  0  0
   44.7070   35.2650   44.4780 C   0  0  0  0  0  0  0  0  0  0  0  0
   45.2320   34.8450   45.6730 C   0  0  0  0  0  0  0  0  0  0  0  0
   44.6920   35.3270   46.9670 C   0  0  0  0  0  0  0  0  0  0  0  0
   46.2760   33.9600   45.6630 C   0  0  0  0  0  0  0  0  0  0  0  0
   46.8000   33.5370   46.7090 O   0  0  0  0  0  0  0  0  0  0  0  0
   46.6960   33.5790   44.4440 N   0  0  0  0  0  0  0  0  0  0  0  0
   46.1650   34.0060   43.2900 C   0  0  0  0  0  0  0  0  0  0  0  0
   46.5910   33.6200   42.1730 O   0  0  0  0  0  0  0  0  0  0  0  0
   38.1216   36.3185   39.7970 H   0  0  0  0  0  0  0  0  0  0  0  0
   40.5001   37.0639   40.2181 H   0  0  0  0  0  0  0  0  0  0  0  0
   38.1259   29.5574   42.7476 H   0  0  0  0  0  0  0  0  0  0  0  0
   36.5596   28.5787   38.5321 H   0  0  0  0  0  0  0  0  0  0  0  0
   36.5664   29.7404   36.3473 H   0  0  0  0  0  0  0  0  0  0  0  0
   37.6646   32.0323   36.1816 H   0  0  0  0  0  0  0  0  0  0  0  0
   38.6592   32.9919   38.2042 H   0  0  0  0  0  0  0  0  0  0  0  0
   42.6586   34.6159   42.8796 H   0  0  0  0  0  0  0  0  0  0  0  0
   42.4725   36.8024   43.8150 H   0  0  0  0  0  0  0  0  0  0  0  0
   43.1446   37.5909   42.3476 H   0  0  0  0  0  0  0  0  0  0  0  0
   41.4529   36.9868   42.3476 H   0  0  0  0  0  0  0  0  0  0  0  0
   44.7593   34.8546   41.2202 H   0  0  0  0  0  0  0  0  0  0  0  0
   44.7709   36.4883   42.0604 H   0  0  0  0  0  0  0  0  0  0  0  0
   43.8684   35.9757   44.5178 H   0  0  0  0  0  0  0  0  0  0  0  0
   45.2337   34.8435   47.7933 H   0  0  0  0  0  0  0  0  0  0  0  0
   44.8189   36.4176   47.0339 H   0  0  0  0  0  0  0  0  0  0  0  0
   43.6228   35.0775   47.0339 H   0  0  0  0  0  0  0  0  0  0  0  0
   47.4800   32.9129   44.3935 H   0  0  0  0  0  0  0  0  0  0  0  0
  1  6  2  0
  1  2  1  0
  2  3  2  0
  3  4  1  0
  3 17  1  0
  5  7  1  0
  5  4  2  0
  6  5  1  0
  7  8  2  0
  8  9  1  0
 10  9  2  0
 11 10  1  0
 12 11  2  0
 13 12  1  0
 14 13  2  0
 14 15  1  0
 15 16  2  0
 16 11  1  0
 16  7  1  0
 17 18  1  0
 18 19  1  0
 20 18  1  0
 20 21  1  0
 21 28  1  0
 21 22  1  0
 22 23  2  0
 23 24  1  0
 25 23  1  0
 25 26  2  0
 27 25  1  0
 28 27  1  0
 29 28  2  0
  1 30  1  0
  2 31  1  0
  9 32  1  0
 12 33  1  0
 13 34  1  0
 14 35  1  0
 15 36  1  0
 18 37  1  1
 19 38  1  0
 19 39  1  0
 19 40  1  0
 20 41  1  0
 20 42  1  0
 22 43  1  0
 24 44  1  0
 24 45  1  0
 24 46  1  0
 27 47  1  0
M  ISO  8  30  14  31  14  32  14  33  14  34  14  35  14  36  14  37   8
M  ISO  8  38   8  39   8  40   8  41   8  42   8  43  14  44   8  45   8
M  ISO  2  46   8  47   9
M  END
>  <minimizedAffinity>  (1) 
-6.94390535

>  <minimizedRMSD>  (1) 
1.7761122

$$$$
