
     RDKit          3D

 41 44  0  0  1  0  0  0  0  0999 V2000
   38.7880   35.6210   40.0310 C   0  0  0  0  0  0  0  0  0  0  0  0
   40.0890   36.0810   40.2670 C   0  0  0  0  0  0  0  0  0  0  0  0
   41.0310   35.1100   40.6370 C   0  0  0  0  0  0  0  0  0  0  0  0
   40.5820   33.8620   40.7210 N   0  0  0  0  0  0  0  0  0  0  0  0
   39.3720   33.3910   40.5090 C   0  0  0  0  0  0  0  0  0  0  0  0
   38.4990   34.3340   40.1590 N   0  0  0  0  0  0  0  0  0  0  0  0
   38.7750   32.0690   40.5700 C   0  0  0  0  0  0  0  0  0  0  0  0
   38.7160   31.3290   41.6850 N   0  0  0  0  0  0  0  0  0  0  0  0
   38.1780   30.1200   41.7780 C   0  0  0  0  0  0  0  0  0  0  0  0
   37.6400   29.5380   40.7300 N   0  0  0  0  0  0  0  0  0  0  0  0
   37.6310   30.1730   39.5390 C   0  0  0  0  0  0  0  0  0  0  0  0
   37.0670   29.5670   38.4340 C   0  0  0  0  0  0  0  0  0  0  0  0
   37.0520   30.1980   37.2260 C   0  0  0  0  0  0  0  0  0  0  0  0
   37.6190   31.4750   37.1250 C   0  0  0  0  0  0  0  0  0  0  0  0
   38.1640   32.0200   38.2720 C   0  0  0  0  0  0  0  0  0  0  0  0
   38.2020   31.4280   39.4920 C   0  0  0  0  0  0  0  0  0  0  0  0
   42.3080   35.3760   40.8980 O   0  0  0  0  0  0  0  0  0  0  0  0
   42.8700   35.4420   42.1970 C   0  0  2  0  0  0  0  0  0  0  0  0
   42.4720   36.8060   42.8070 C   0  0  0  0  0  0  0  0  0  0  0  0
   44.3720   35.3480   42.1160 C   0  0  0  0  0  0  0  0  0  0  0  0
   44.7980   34.6270   43.3560 C   0  0  0  0  0  0  0  0  0  0  0  0
   45.2230   35.0860   44.5440 C   0  0  0  0  0  0  0  0  0  0  0  0
   45.5640   34.2610   45.5490 C   0  0  0  0  0  0  0  0  0  0  0  0
   45.4280   32.8580   45.2280 C   0  0  0  0  0  0  0  0  0  0  0  0
   44.8000   32.9120   43.4390 S   0  0  0  0  0  0  0  0  0  0  0  0
   38.0013   36.3317   39.7377 H   0  0  0  0  0  0  0  0  0  0  0  0
   40.3571   37.1432   40.1679 H   0  0  0  0  0  0  0  0  0  0  0  0
   38.1823   29.5974   42.7459 H   0  0  0  0  0  0  0  0  0  0  0  0
   36.6251   28.5642   38.5296 H   0  0  0  0  0  0  0  0  0  0  0  0
   36.6029   29.7134   36.3465 H   0  0  0  0  0  0  0  0  0  0  0  0
   37.6300   32.0221   36.1708 H   0  0  0  0  0  0  0  0  0  0  0  0
   38.6066   33.0236   38.1883 H   0  0  0  0  0  0  0  0  0  0  0  0
   42.5017   34.6108   42.8163 H   0  0  0  0  0  0  0  0  0  0  0  0
   42.4922   36.7367   43.9046 H   0  0  0  0  0  0  0  0  0  0  0  0
   43.1825   37.5774   42.4752 H   0  0  0  0  0  0  0  0  0  0  0  0
   41.4581   37.0742   42.4752 H   0  0  0  0  0  0  0  0  0  0  0  0
   44.6736   34.7839   41.2211 H   0  0  0  0  0  0  0  0  0  0  0  0
   44.8384   36.3415   42.0425 H   0  0  0  0  0  0  0  0  0  0  0  0
   45.2945   36.1725   44.7000 H   0  0  0  0  0  0  0  0  0  0  0  0
   45.9149   34.6210   46.5274 H   0  0  0  0  0  0  0  0  0  0  0  0
   45.6358   31.9822   45.8602 H   0  0  0  0  0  0  0  0  0  0  0  0
  1  6  2  0
  1  2  1  0
  2  3  2  0
  3  4  1  0
  3 17  1  0
  5  7  1  0
  5  4  2  0
  6  5  1  0
  7  8  2  0
  8  9  1  0
 10  9  2  0
 11 10  1  0
 12 11  2  0
 13 12  1  0
 14 13  2  0
 14 15  1  0
 15 16  2  0
 16 11  1  0
 16  7  1  0
 17 18  1  0
 18 19  1  0
 20 18  1  0
 20 21  1  0
 21 25  1  0
 21 22  2  0
 22 23  1  0
 24 23  2  0
 25 24  1  0
  1 26  1  0
  2 27  1  0
  9 28  1  0
 12 29  1  0
 13 30  1  0
 14 31  1  0
 15 32  1  0
 18 33  1  1
 19 34  1  0
 19 35  1  0
 19 36  1  0
 20 37  1  0
 20 38  1  0
 22 39  1  0
 23 40  1  0
 24 41  1  0
M  ISO  8  26  14  27  14  28  14  29  14  30  14  31  14  32  14  33   8
M  ISO  8  34   8  35   8  36   8  37   8  38   8  39  14  40  14  41  14
M  END
>  <minimizedAffinity>  (1) 
-6.06131268

>  <minimizedRMSD>  (1) 
1.5597955

$$$$
