
     RDKit          3D

 47 50  0  0  1  0  0  0  0  0999 V2000
   38.6270   35.5850   39.9780 C   0  0  0  0  0  0  0  0  0  0  0  0
   40.0270   35.6630   39.9330 C   0  0  0  0  0  0  0  0  0  0  0  0
   40.7040   34.4340   39.9090 C   0  0  0  0  0  0  0  0  0  0  0  0
   39.9380   33.3520   39.9350 N   0  0  0  0  0  0  0  0  0  0  0  0
   38.6310   33.2370   39.9780 C   0  0  0  0  0  0  0  0  0  0  0  0
   38.0140   34.4180   39.9990 N   0  0  0  0  0  0  0  0  0  0  0  0
   37.7120   32.1140   40.0070 C   0  0  0  0  0  0  0  0  0  0  0  0
   37.1350   31.6520   41.1140 N   0  0  0  0  0  0  0  0  0  0  0  0
   36.2890   30.6260   41.1750 C   0  0  0  0  0  0  0  0  0  0  0  0
   35.9530   29.9710   40.0910 N   0  0  0  0  0  0  0  0  0  0  0  0
   36.4610   30.3310   38.9010 C   0  0  0  0  0  0  0  0  0  0  0  0
   36.1050   29.6370   37.7550 C   0  0  0  0  0  0  0  0  0  0  0  0
   36.6180   29.9950   36.5390 C   0  0  0  0  0  0  0  0  0  0  0  0
   37.5060   31.0730   36.4730 C   0  0  0  0  0  0  0  0  0  0  0  0
   37.8160   31.7170   37.6540 C   0  0  0  0  0  0  0  0  0  0  0  0
   37.3310   31.3980   38.8900 C   0  0  0  0  0  0  0  0  0  0  0  0
   42.0290   34.3140   39.8650 O   0  0  0  0  0  0  0  0  0  0  0  0
   42.8430   33.8230   40.9170 C   0  0  2  0  0  0  0  0  0  0  0  0
   43.1580   35.0290   41.8410 C   0  0  0  0  0  0  0  0  0  0  0  0
   44.1280   33.2930   40.3490 C   0  0  0  0  0  0  0  0  0  0  0  0
   44.2660   33.4700   38.8750 C   0  0  0  0  0  0  0  0  0  0  0  0
   45.5660   34.0410   38.4140 C   0  0  0  0  0  0  0  0  0  0  0  0
   45.9280   33.3230   37.1340 C   0  0  0  0  0  0  0  0  0  0  0  0
   45.0200   32.1470   36.9830 C   0  0  0  0  0  0  0  0  0  0  0  0
   44.2580   32.0580   38.2760 C   0  0  0  0  0  0  0  0  0  0  0  0
   38.0325   36.5103   39.9960 H   0  0  0  0  0  0  0  0  0  0  0  0
   40.5596   36.6253   39.9175 H   0  0  0  0  0  0  0  0  0  0  0  0
   35.8676   30.3249   42.1455 H   0  0  0  0  0  0  0  0  0  0  0  0
   35.4044   28.7918   37.8243 H   0  0  0  0  0  0  0  0  0  0  0  0
   36.3370   29.4447   35.6289 H   0  0  0  0  0  0  0  0  0  0  0  0
   37.9413   31.3958   35.5158 H   0  0  0  0  0  0  0  0  0  0  0  0
   38.5165   32.5630   37.5941 H   0  0  0  0  0  0  0  0  0  0  0  0
   42.3356   33.0163   41.4663 H   0  0  0  0  0  0  0  0  0  0  0  0
   43.0764   34.7164   42.8925 H   0  0  0  0  0  0  0  0  0  0  0  0
   44.1795   35.3858   41.6428 H   0  0  0  0  0  0  0  0  0  0  0  0
   42.4415   35.8398   41.6428 H   0  0  0  0  0  0  0  0  0  0  0  0
   44.9628   33.8160   40.8385 H   0  0  0  0  0  0  0  0  0  0  0  0
   44.1330   32.2094   40.5382 H   0  0  0  0  0  0  0  0  0  0  0  0
   43.4598   34.1549   38.5733 H   0  0  0  0  0  0  0  0  0  0  0  0
   45.4607   35.1198   38.2265 H   0  0  0  0  0  0  0  0  0  0  0  0
   46.3481   33.9085   39.1761 H   0  0  0  0  0  0  0  0  0  0  0  0
   45.8021   34.0024   36.2781 H   0  0  0  0  0  0  0  0  0  0  0  0
   46.9760   32.9905   37.1693 H   0  0  0  0  0  0  0  0  0  0  0  0
   44.3300   32.3000   36.1401 H   0  0  0  0  0  0  0  0  0  0  0  0
   45.5802   31.2234   36.7755 H   0  0  0  0  0  0  0  0  0  0  0  0
   43.2252   31.7292   38.0882 H   0  0  0  0  0  0  0  0  0  0  0  0
   44.7150   31.3290   38.9614 H   0  0  0  0  0  0  0  0  0  0  0  0
  1  6  2  0
  2  1  1  0
  3  2  2  0
  3  4  1  0
  4  5  2  0
  5  6  1  0
  5  7  1  0
  7  8  2  0
  8  9  1  0
 10  9  2  0
 11 10  1  0
 12 11  2  0
 13 12  1  0
 14 13  2  0
 14 15  1  0
 15 16  2  0
 16 11  1  0
 16  7  1  0
 17  3  1  0
 17 18  1  0
 18 19  1  0
 20 18  1  0
 21 20  1  0
 22 21  1  0
 23 22  1  0
 24 23  1  0
 24 25  1  0
 25 21  1  0
  1 26  1  0
  2 27  1  0
  9 28  1  0
 12 29  1  0
 13 30  1  0
 14 31  1  0
 15 32  1  0
 18 33  1  1
 19 34  1  0
 19 35  1  0
 19 36  1  0
 20 37  1  0
 20 38  1  0
 21 39  1  0
 22 40  1  0
 22 41  1  0
 23 42  1  0
 23 43  1  0
 24 44  1  0
 24 45  1  0
 25 46  1  0
 25 47  1  0
M  ISO  8  26  14  27  14  28  14  29  14  30  14  31  14  32  14  33   8
M  ISO  8  34   8  35   8  36   8  37   8  38   8  39  13  40  13  41  13
M  ISO  6  42  13  43  13  44  13  45  13  46  13  47  13
M  END
>  <minimizedAffinity>  (1) 
-5.55615568

>  <minimizedRMSD>  (1) 
1.29762697

$$$$
