
     RDKit          3D

 35 37  0  0  1  0  0  0  0  0999 V2000
   38.6390   35.4960   39.9890 C   0  0  0  0  0  0  0  0  0  0  0  0
   40.0310   35.5410   40.0360 C   0  0  0  0  0  0  0  0  0  0  0  0
   40.6940   34.3070   40.0870 C   0  0  0  0  0  0  0  0  0  0  0  0
   39.9220   33.2260   40.0840 N   0  0  0  0  0  0  0  0  0  0  0  0
   38.6080   33.1430   40.0390 C   0  0  0  0  0  0  0  0  0  0  0  0
   38.0020   34.3310   39.9920 N   0  0  0  0  0  0  0  0  0  0  0  0
   37.6650   32.0350   40.0320 C   0  0  0  0  0  0  0  0  0  0  0  0
   37.0510   31.5680   41.1360 N   0  0  0  0  0  0  0  0  0  0  0  0
   36.1910   30.5680   41.1670 C   0  0  0  0  0  0  0  0  0  0  0  0
   35.8550   29.9220   40.0650 N   0  0  0  0  0  0  0  0  0  0  0  0
   36.4020   30.2920   38.8860 C   0  0  0  0  0  0  0  0  0  0  0  0
   36.0610   29.6260   37.7280 C   0  0  0  0  0  0  0  0  0  0  0  0
   36.5920   29.9740   36.5310 C   0  0  0  0  0  0  0  0  0  0  0  0
   37.5110   31.0450   36.4950 C   0  0  0  0  0  0  0  0  0  0  0  0
   37.8060   31.6650   37.6930 C   0  0  0  0  0  0  0  0  0  0  0  0
   37.2920   31.3400   38.9050 C   0  0  0  0  0  0  0  0  0  0  0  0
   42.0170   34.1720   40.1360 O   0  0  0  0  0  0  0  0  0  0  0  0
   42.7520   33.8130   41.2970 C   0  0  2  0  0  0  0  0  0  0  0  0
   43.2420   35.1310   41.9480 C   0  0  0  0  0  0  0  0  0  0  0  0
   43.9430   32.9780   40.9190 C   0  0  0  0  0  0  0  0  0  0  0  0
   43.5320   31.5710   39.8980 S   0  0  0  0  0  0  0  0  0  0  0  0
   38.0636   36.4327   39.9491 H   0  0  0  0  0  0  0  0  0  0  0  0
   40.5802   36.4941   40.0332 H   0  0  0  0  0  0  0  0  0  0  0  0
   35.7462   30.2671   42.1270 H   0  0  0  0  0  0  0  0  0  0  0  0
   35.3426   28.7944   37.7769 H   0  0  0  0  0  0  0  0  0  0  0  0
   36.3145   29.4366   35.6122 H   0  0  0  0  0  0  0  0  0  0  0  0
   37.9729   31.3720   35.5518 H   0  0  0  0  0  0  0  0  0  0  0  0
   38.5232   32.4984   37.6613 H   0  0  0  0  0  0  0  0  0  0  0  0
   42.1235   33.2307   41.9868 H   0  0  0  0  0  0  0  0  0  0  0  0
   43.2061   35.0345   43.0432 H   0  0  0  0  0  0  0  0  0  0  0  0
   44.2757   35.3341   41.6315 H   0  0  0  0  0  0  0  0  0  0  0  0
   42.5920   35.9601   41.6315 H   0  0  0  0  0  0  0  0  0  0  0  0
   44.6524   33.6128   40.3678 H   0  0  0  0  0  0  0  0  0  0  0  0
   44.3724   32.5857   41.8526 H   0  0  0  0  0  0  0  0  0  0  0  0
   43.2199   30.5027   40.6969 H   0  0  0  0  0  0  0  0  0  0  0  0
  1  6  2  0
  1  2  1  0
  2  3  2  0
  3 17  1  0
  4  3  1  0
  5  4  2  0
  6  5  1  0
  7  5  1  0
  7  8  2  0
  8  9  1  0
 10  9  2  0
 11 16  2  0
 11 10  1  0
 12 11  1  0
 13 12  2  0
 14 13  1  0
 14 15  2  0
 15 16  1  0
 16  7  1  0
 17 18  1  0
 18 19  1  0
 20 18  1  0
 21 20  1  0
  1 22  1  0
  2 23  1  0
  9 24  1  0
 12 25  1  0
 13 26  1  0
 14 27  1  0
 15 28  1  0
 18 29  1  1
 19 30  1  0
 19 31  1  0
 19 32  1  0
 20 33  1  0
 20 34  1  0
 21 35  1  0
M  ISO  8  22  14  23  14  24  14  25  14  26  14  27  14  28  14  29   8
M  ISO  6  30   8  31   8  32   8  33   8  34   8  35  11
M  END
>  <minimizedAffinity>  (1) 
-5.0160923

>  <minimizedRMSD>  (1) 
0.0606224835

$$$$
