
     RDKit          3D

 40 43  0  0  1  0  0  0  0  0999 V2000
   38.7830   35.5160   40.1420 C   0  0  0  0  0  0  0  0  0  0  0  0
   40.1230   35.8950   40.2660 C   0  0  0  0  0  0  0  0  0  0  0  0
   41.0420   34.8580   40.4900 C   0  0  0  0  0  0  0  0  0  0  0  0
   40.5350   33.6320   40.5580 N   0  0  0  0  0  0  0  0  0  0  0  0
   39.2860   33.2360   40.4470 C   0  0  0  0  0  0  0  0  0  0  0  0
   38.4350   34.2360   40.2360 N   0  0  0  0  0  0  0  0  0  0  0  0
   38.6250   31.9440   40.5030 C   0  0  0  0  0  0  0  0  0  0  0  0
   38.4930   31.2200   41.6230 N   0  0  0  0  0  0  0  0  0  0  0  0
   37.8970   30.0400   41.7100 C   0  0  0  0  0  0  0  0  0  0  0  0
   37.3660   29.4690   40.6480 N   0  0  0  0  0  0  0  0  0  0  0  0
   37.4280   30.0930   39.4530 C   0  0  0  0  0  0  0  0  0  0  0  0
   36.8710   29.4990   38.3370 C   0  0  0  0  0  0  0  0  0  0  0  0
   36.9180   30.1040   37.1240 C   0  0  0  0  0  0  0  0  0  0  0  0
   37.5560   31.3680   37.0270 C   0  0  0  0  0  0  0  0  0  0  0  0
   38.0860   31.8920   38.1830 C   0  0  0  0  0  0  0  0  0  0  0  0
   38.0570   31.3170   39.4120 C   0  0  0  0  0  0  0  0  0  0  0  0
   42.3530   35.0430   40.6310 O   0  0  0  0  0  0  0  0  0  0  0  0
   43.0590   34.9360   41.8560 C   0  0  2  0  0  0  0  0  0  0  0  0
   42.8800   36.2820   42.6020 C   0  0  0  0  0  0  0  0  0  0  0  0
   44.5240   34.7090   41.5850 C   0  0  0  0  0  0  0  0  0  0  0  0
   45.0990   34.2010   42.8400 N   0  0  0  0  0  0  0  0  0  0  0  0
   46.2490   34.6970   43.3820 C   0  0  0  0  0  0  0  0  0  0  0  0
   46.5170   34.0260   44.5300 N   0  0  0  0  0  0  0  0  0  0  0  0
   45.5190   33.1140   44.6810 C   0  0  0  0  0  0  0  0  0  0  0  0
   44.6580   33.2350   43.6380 N   0  0  0  0  0  0  0  0  0  0  0  0
   38.0123   36.2808   39.9657 H   0  0  0  0  0  0  0  0  0  0  0  0
   40.4391   36.9460   40.1922 H   0  0  0  0  0  0  0  0  0  0  0  0
   37.8447   29.5296   42.6830 H   0  0  0  0  0  0  0  0  0  0  0  0
   36.3811   28.5189   38.4338 H   0  0  0  0  0  0  0  0  0  0  0  0
   36.4730   29.6272   36.2382 H   0  0  0  0  0  0  0  0  0  0  0  0
   37.6237   31.9050   36.0694 H   0  0  0  0  0  0  0  0  0  0  0  0
   38.5809   32.8712   38.1038 H   0  0  0  0  0  0  0  0  0  0  0  0
   42.6784   34.0939   42.4526 H   0  0  0  0  0  0  0  0  0  0  0  0
   42.9035   36.1055   43.6875 H   0  0  0  0  0  0  0  0  0  0  0  0
   43.6950   36.9665   42.3241 H   0  0  0  0  0  0  0  0  0  0  0  0
   41.9144   36.7297   42.3241 H   0  0  0  0  0  0  0  0  0  0  0  0
   44.6530   33.9706   40.7799 H   0  0  0  0  0  0  0  0  0  0  0  0
   45.0206   35.6361   41.2626 H   0  0  0  0  0  0  0  0  0  0  0  0
   46.8588   35.5081   42.9575 H   0  0  0  0  0  0  0  0  0  0  0  0
   45.4251   32.3975   45.5103 H   0  0  0  0  0  0  0  0  0  0  0  0
  1  6  2  0
  1  2  1  0
  2  3  2  0
  3  4  1  0
  3 17  1  0
  5  7  1  0
  5  4  2  0
  6  5  1  0
  7  8  2  0
  8  9  1  0
 10  9  2  0
 11 10  1  0
 12 11  2  0
 13 12  1  0
 14 13  2  0
 14 15  1  0
 15 16  2  0
 16 11  1  0
 16  7  1  0
 17 18  1  0
 18 19  1  0
 20 18  1  0
 20 21  1  0
 21 22  1  0
 21 25  1  0
 22 23  2  0
 23 24  1  0
 25 24  2  0
  1 26  1  0
  2 27  1  0
  9 28  1  0
 12 29  1  0
 13 30  1  0
 14 31  1  0
 15 32  1  0
 18 33  1  1
 19 34  1  0
 19 35  1  0
 19 36  1  0
 20 37  1  0
 20 38  1  0
 22 39  1  0
 24 40  1  0
M  ISO  8  26  14  27  14  28  14  29  14  30  14  31  14  32  14  33   8
M  ISO  7  34   8  35   8  36   8  37   8  38   8  39  14  40  14
M  END
>  <minimizedAffinity>  (1) 
-5.81734371

>  <minimizedRMSD>  (1) 
1.18973136

$$$$
