
     RDKit          3D

 47 51  0  0  1  0  0  0  0  0999 V2000
   39.0040   35.5040   40.2330 C   0  0  0  0  0  0  0  0  0  0  0  0
   40.3530   35.8460   40.3870 C   0  0  0  0  0  0  0  0  0  0  0  0
   41.2510   34.7810   40.6250 C   0  0  0  0  0  0  0  0  0  0  0  0
   40.7180   33.5770   40.6780 N   0  0  0  0  0  0  0  0  0  0  0  0
   39.4690   33.2050   40.5420 C   0  0  0  0  0  0  0  0  0  0  0  0
   38.6370   34.2280   40.3180 N   0  0  0  0  0  0  0  0  0  0  0  0
   38.7830   31.9290   40.5850 C   0  0  0  0  0  0  0  0  0  0  0  0
   38.6630   31.1840   41.7040 N   0  0  0  0  0  0  0  0  0  0  0  0
   38.0420   30.0140   41.7790 C   0  0  0  0  0  0  0  0  0  0  0  0
   37.4770   29.4800   40.7170 N   0  0  0  0  0  0  0  0  0  0  0  0
   37.5230   30.1260   39.5240 C   0  0  0  0  0  0  0  0  0  0  0  0
   36.9330   29.5730   38.4060 C   0  0  0  0  0  0  0  0  0  0  0  0
   36.9670   30.2010   37.2070 C   0  0  0  0  0  0  0  0  0  0  0  0
   37.6310   31.4540   37.1240 C   0  0  0  0  0  0  0  0  0  0  0  0
   38.1960   31.9430   38.2790 C   0  0  0  0  0  0  0  0  0  0  0  0
   38.1780   31.3390   39.4940 C   0  0  0  0  0  0  0  0  0  0  0  0
   42.5410   35.0020   40.7860 O   0  0  0  0  0  0  0  0  0  0  0  0
   43.2620   34.8120   41.9890 C   0  0  2  0  0  0  0  0  0  0  0  0
   43.1330   36.1980   42.7350 C   0  0  0  0  0  0  0  0  0  0  0  0
   44.7010   34.5370   41.7510 C   0  0  0  0  0  0  0  0  0  0  0  0
   45.2690   34.0760   43.0120 N   0  0  0  0  0  0  0  0  0  0  0  0
   46.4580   34.4920   43.5200 C   0  0  0  0  0  0  0  0  0  0  0  0
   46.6970   33.8830   44.6970 N   0  0  0  0  0  0  0  0  0  0  0  0
   45.6180   33.0650   44.9160 C   0  0  0  0  0  0  0  0  0  0  0  0
   44.7680   33.2060   43.8750 N   0  0  0  0  0  0  0  0  0  0  0  0
   45.5300   32.2380   46.1140 C   0  0  0  0  0  0  0  0  0  0  0  0
   44.4120   31.5010   46.4470 C   0  0  0  0  0  0  0  0  0  0  0  0
   44.5780   30.8100   47.6160 C   0  0  0  0  0  0  0  0  0  0  0  0
   45.8400   31.1490   47.9920 N   0  0  0  0  0  0  0  0  0  0  0  0
   46.3940   31.9760   47.1240 N   0  0  0  0  0  0  0  0  0  0  0  0
   38.2529   36.2849   40.0431 H   0  0  0  0  0  0  0  0  0  0  0  0
   40.6960   36.8894   40.3259 H   0  0  0  0  0  0  0  0  0  0  0  0
   37.9988   29.4832   42.7415 H   0  0  0  0  0  0  0  0  0  0  0  0
   36.4243   28.6014   38.4906 H   0  0  0  0  0  0  0  0  0  0  0  0
   36.4932   29.7530   36.3211 H   0  0  0  0  0  0  0  0  0  0  0  0
   37.6908   32.0096   36.1765 H   0  0  0  0  0  0  0  0  0  0  0  0
   38.7098   32.9133   38.2114 H   0  0  0  0  0  0  0  0  0  0  0  0
   42.8679   33.9513   42.5492 H   0  0  0  0  0  0  0  0  0  0  0  0
   43.1484   36.0320   43.8223 H   0  0  0  0  0  0  0  0  0  0  0  0
   43.9746   36.8469   42.4512 H   0  0  0  0  0  0  0  0  0  0  0  0
   42.1861   36.6804   42.4512 H   0  0  0  0  0  0  0  0  0  0  0  0
   44.8133   33.7594   40.9811 H   0  0  0  0  0  0  0  0  0  0  0  0
   45.2174   35.4424   41.3994 H   0  0  0  0  0  0  0  0  0  0  0  0
   47.1281   35.2203   43.0399 H   0  0  0  0  0  0  0  0  0  0  0  0
   43.4935   31.4724   45.8424 H   0  0  0  0  0  0  0  0  0  0  0  0
   43.8661   30.1443   48.1260 H   0  0  0  0  0  0  0  0  0  0  0  0
   46.3044   30.8049   48.8445 H   0  0  0  0  0  0  0  0  0  0  0  0
  1  6  2  0
  1  2  1  0
  2  3  2  0
  3  4  1  0
  3 17  1  0
  5  7  1  0
  5  4  2  0
  6  5  1  0
  7  8  2  0
  8  9  1  0
 10  9  2  0
 11 10  1  0
 12 11  2  0
 13 12  1  0
 14 13  2  0
 14 15  1  0
 15 16  2  0
 16 11  1  0
 16  7  1  0
 17 18  1  0
 18 19  1  0
 20 18  1  0
 20 21  1  0
 21 22  1  0
 21 25  1  0
 22 23  2  0
 23 24  1  0
 24 26  1  0
 25 24  2  0
 26 27  1  0
 26 30  2  0
 27 28  2  0
 28 29  1  0
 30 29  1  0
  1 31  1  0
  2 32  1  0
  9 33  1  0
 12 34  1  0
 13 35  1  0
 14 36  1  0
 15 37  1  0
 18 38  1  1
 19 39  1  0
 19 40  1  0
 19 41  1  0
 20 42  1  0
 20 43  1  0
 22 44  1  0
 27 45  1  0
 28 46  1  0
 29 47  1  0
M  ISO  8  31  14  32  14  33  14  34  14  35  14  36  14  37  14  38   8
M  ISO  8  39   8  40   8  41   8  42   8  43   8  44  14  45  14  46  14
M  ISO  1  47   9
M  END
>  <minimizedAffinity>  (1) 
-7.07360029

>  <minimizedRMSD>  (1) 
0.326239526

$$$$
