
     RDKit          3D

 52 55  0  0  1  0  0  0  0  0999 V2000
   38.7570   35.6130   40.0280 C   0  0  0  0  0  0  0  0  0  0  0  0
   40.0750   36.0550   40.2390 C   0  0  0  0  0  0  0  0  0  0  0  0
   41.0180   35.0590   40.5790 C   0  0  0  0  0  0  0  0  0  0  0  0
   40.5610   33.8240   40.6610 N   0  0  0  0  0  0  0  0  0  0  0  0
   39.3430   33.3720   40.4720 C   0  0  0  0  0  0  0  0  0  0  0  0
   38.4660   34.3210   40.1530 N   0  0  0  0  0  0  0  0  0  0  0  0
   38.7370   32.0540   40.5370 C   0  0  0  0  0  0  0  0  0  0  0  0
   38.6690   31.3180   41.6670 N   0  0  0  0  0  0  0  0  0  0  0  0
   38.1270   30.1170   41.7650 C   0  0  0  0  0  0  0  0  0  0  0  0
   37.5880   29.5260   40.7080 N   0  0  0  0  0  0  0  0  0  0  0  0
   37.5910   30.1610   39.5120 C   0  0  0  0  0  0  0  0  0  0  0  0
   37.0300   29.5550   38.4060 C   0  0  0  0  0  0  0  0  0  0  0  0
   37.0160   30.1580   37.1970 C   0  0  0  0  0  0  0  0  0  0  0  0
   37.6000   31.4520   37.0900 C   0  0  0  0  0  0  0  0  0  0  0  0
   38.1400   31.9950   38.2350 C   0  0  0  0  0  0  0  0  0  0  0  0
   38.1670   31.4100   39.4590 C   0  0  0  0  0  0  0  0  0  0  0  0
   42.2800   35.3680   40.8020 O   0  0  0  0  0  0  0  0  0  0  0  0
   42.9520   35.2330   42.0400 C   0  0  2  0  0  0  0  0  0  0  0  0
   42.6930   36.6120   42.7640 C   0  0  0  0  0  0  0  0  0  0  0  0
   44.4150   35.0520   41.8740 C   0  0  0  0  0  0  0  0  0  0  0  0
   44.8910   34.2920   43.0240 N   0  0  0  0  0  0  0  0  0  0  0  0
   45.9190   34.6770   43.8310 C   0  0  0  0  0  0  0  0  0  0  0  0
   46.1100   33.7610   44.7990 N   0  0  0  0  0  0  0  0  0  0  0  0
   45.1730   32.7880   44.5780 C   0  0  0  0  0  0  0  0  0  0  0  0
   44.4460   33.1390   43.4920 N   0  0  0  0  0  0  0  0  0  0  0  0
   44.9480   31.5530   45.3550 C   0  0  0  0  0  0  0  0  0  0  0  0
   44.4650   31.8560   46.7610 C   0  0  0  0  0  0  0  0  0  0  0  0
   46.1890   30.7060   45.4720 C   0  0  0  0  0  0  0  0  0  0  0  0
   43.8690   30.7740   44.6000 C   0  0  0  0  0  0  0  0  0  0  0  0
   37.9695   36.3329   39.7606 H   0  0  0  0  0  0  0  0  0  0  0  0
   40.3557   37.1144   40.1449 H   0  0  0  0  0  0  0  0  0  0  0  0
   38.1230   29.6009   42.7364 H   0  0  0  0  0  0  0  0  0  0  0  0
   36.5829   28.5555   38.5116 H   0  0  0  0  0  0  0  0  0  0  0  0
   36.5672   29.6644   36.3224 H   0  0  0  0  0  0  0  0  0  0  0  0
   37.6192   31.9951   36.1336 H   0  0  0  0  0  0  0  0  0  0  0  0
   38.5908   32.9947   38.1492 H   0  0  0  0  0  0  0  0  0  0  0  0
   42.5905   34.3515   42.5898 H   0  0  0  0  0  0  0  0  0  0  0  0
   42.7206   36.4649   43.8538 H   0  0  0  0  0  0  0  0  0  0  0  0
   43.4717   37.3317   42.4713 H   0  0  0  0  0  0  0  0  0  0  0  0
   41.7062   37.0002   42.4713 H   0  0  0  0  0  0  0  0  0  0  0  0
   44.6231   34.4999   40.9456 H   0  0  0  0  0  0  0  0  0  0  0  0
   44.9235   36.0255   41.8130 H   0  0  0  0  0  0  0  0  0  0  0  0
   46.5059   35.5994   43.7096 H   0  0  0  0  0  0  0  0  0  0  0  0
   45.1624   31.4185   47.4905 H   0  0  0  0  0  0  0  0  0  0  0  0
   44.4185   32.9454   46.9059 H   0  0  0  0  0  0  0  0  0  0  0  0
   43.4639   31.4238   46.9059 H   0  0  0  0  0  0  0  0  0  0  0  0
   46.4244   30.5453   46.5344 H   0  0  0  0  0  0  0  0  0  0  0  0
   46.0179   29.7354   44.9835 H   0  0  0  0  0  0  0  0  0  0  0  0
   47.0305   31.2191   44.9835 H   0  0  0  0  0  0  0  0  0  0  0  0
   43.1955   30.2878   45.3211 H   0  0  0  0  0  0  0  0  0  0  0  0
   43.2921   31.4653   43.9681 H   0  0  0  0  0  0  0  0  0  0  0  0
   44.3436   30.0089   43.9681 H   0  0  0  0  0  0  0  0  0  0  0  0
  1  6  2  0
  1  2  1  0
  2  3  2  0
  3  4  1  0
  3 17  1  0
  5  7  1  0
  5  4  2  0
  6  5  1  0
  7  8  2  0
  8  9  1  0
 10  9  2  0
 11 10  1  0
 12 11  2  0
 13 12  1  0
 14 13  2  0
 14 15  1  0
 15 16  2  0
 16 11  1  0
 16  7  1  0
 17 18  1  0
 18 19  1  0
 20 18  1  0
 20 21  1  0
 21 25  1  0
 21 22  1  0
 22 23  2  0
 24 23  1  0
 24 26  1  0
 25 24  2  0
 26 28  1  0
 26 27  1  0
 29 26  1  0
  1 30  1  0
  2 31  1  0
  9 32  1  0
 12 33  1  0
 13 34  1  0
 14 35  1  0
 15 36  1  0
 18 37  1  1
 19 38  1  0
 19 39  1  0
 19 40  1  0
 20 41  1  0
 20 42  1  0
 22 43  1  0
 27 44  1  0
 27 45  1  0
 27 46  1  0
 28 47  1  0
 28 48  1  0
 28 49  1  0
 29 50  1  0
 29 51  1  0
 29 52  1  0
M  ISO  8  30  14  31  14  32  14  33  14  34  14  35  14  36  14  37   8
M  ISO  8  38   8  39   8  40   8  41   8  42   8  43  14  44   8  45   8
M  ISO  7  46   8  47   8  48   8  49   8  50   8  51   8  52   8
M  END
>  <minimizedAffinity>  (1) 
-6.34193087

>  <minimizedRMSD>  (1) 
0.451443374

$$$$
