
     RDKit          3D

 38 41  0  0  0  0  0  0  0  0999 V2000
   38.7090   27.3700   43.8230 C   0  0  0  0  0  0  0  0  0  0  0  0
   39.1690   26.4030   42.9170 C   0  0  0  0  0  0  0  0  0  0  0  0
   39.1350   26.7180   41.5450 C   0  0  0  0  0  0  0  0  0  0  0  0
   38.6580   27.9430   41.1890 N   0  0  0  0  0  0  0  0  0  0  0  0
   38.2250   28.8430   42.0970 C   0  0  0  0  0  0  0  0  0  0  0  0
   38.2430   28.5710   43.4290 N   0  0  0  0  0  0  0  0  0  0  0  0
   37.7760   30.0430   41.4610 N   0  0  0  0  0  0  0  0  0  0  0  0
   36.4620   30.2050   41.1070 C   0  0  0  0  0  0  0  0  0  0  0  0
   36.2860   31.3990   40.5340 N   0  0  0  0  0  0  0  0  0  0  0  0
   37.4750   32.0190   40.5100 C   0  0  0  0  0  0  0  0  0  0  0  0
   37.9320   33.2530   40.0570 C   0  0  0  0  0  0  0  0  0  0  0  0
   39.2460   33.5590   40.2030 N   0  0  0  0  0  0  0  0  0  0  0  0
   40.1030   32.7060   40.7680 C   0  0  0  0  0  0  0  0  0  0  0  0
   39.6960   31.4910   41.2240 N   0  0  0  0  0  0  0  0  0  0  0  0
   38.3850   31.1560   41.0920 C   0  0  0  0  0  0  0  0  0  0  0  0
   36.9350   34.0660   39.4780 N   0  0  0  0  0  0  0  0  0  0  0  0
   41.4740   33.0650   40.9030 N   0  0  0  0  0  0  0  0  0  0  0  0
   41.8750   34.4490   40.7340 C   0  0  0  0  0  0  0  0  0  0  0  0
   43.0370   34.7690   41.6110 C   0  0  0  0  0  0  0  0  0  0  0  0
   44.1690   33.7990   41.5740 C   0  0  0  0  0  0  0  0  0  0  0  0
   43.8440   32.5890   40.7340 C   0  0  0  0  0  0  0  0  0  0  0  0
   42.4930   32.0780   41.2070 C   0  0  0  0  0  0  0  0  0  0  0  0
   38.7296   27.1384   44.8981 H   0  0  0  0  0  0  0  0  0  0  0  0
   39.5442   25.4300   43.2670 H   0  0  0  0  0  0  0  0  0  0  0  0
   39.4816   25.9998   40.7873 H   0  0  0  0  0  0  0  0  0  0  0  0
   35.6685   29.4610   41.2707 H   0  0  0  0  0  0  0  0  0  0  0  0
   35.9639   33.7277   39.4204 H   0  0  0  0  0  0  0  0  0  0  0  0
   37.1782   34.9979   39.1129 H   0  0  0  0  0  0  0  0  0  0  0  0
   42.1569   34.6182   39.6843 H   0  0  0  0  0  0  0  0  0  0  0  0
   41.0319   35.0990   41.0109 H   0  0  0  0  0  0  0  0  0  0  0  0
   43.4262   35.7525   41.3089 H   0  0  0  0  0  0  0  0  0  0  0  0
   42.6505   34.7355   42.6403 H   0  0  0  0  0  0  0  0  0  0  0  0
   45.0525   34.2992   41.1507 H   0  0  0  0  0  0  0  0  0  0  0  0
   44.3612   33.4591   42.6024 H   0  0  0  0  0  0  0  0  0  0  0  0
   44.6121   31.8139   40.8728 H   0  0  0  0  0  0  0  0  0  0  0  0
   43.8173   32.8457   39.6647 H   0  0  0  0  0  0  0  0  0  0  0  0
   42.5251   31.9054   42.2929 H   0  0  0  0  0  0  0  0  0  0  0  0
   42.2561   31.1339   40.6947 H   0  0  0  0  0  0  0  0  0  0  0  0
  2  1  2  0
  3  2  1  0
  4  3  2  0
  4  5  1  0
  5  6  2  0
  6  1  1  0
  7  5  1  0
  8  7  1  0
  9  8  2  0
 10  9  1  0
 10 15  2  0
 11 12  2  0
 11 10  1  0
 12 13  1  0
 13 17  1  0
 13 14  2  0
 15 14  1  0
 15  7  1  0
 16 11  1  0
 17 22  1  0
 18 17  1  0
 18 19  1  0
 20 19  1  0
 21 22  1  0
 21 20  1  0
  1 23  1  0
  2 24  1  0
  3 25  1  0
  8 26  1  0
 16 27  1  0
 16 28  1  0
 18 29  1  0
 18 30  1  0
 19 31  1  0
 19 32  1  0
 20 33  1  0
 20 34  1  0
 21 35  1  0
 21 36  1  0
 22 37  1  0
 22 38  1  0
M  ISO  8  23  14  24  14  25  14  26  14  29  13  30  13  31  13  32  13
M  ISO  6  33  13  34  13  35  13  36  13  37  13  38  13
M  END
>  <minimizedAffinity>  (1) 
-6.46649694

>  <minimizedRMSD>  (1) 
1.26881385

$$$$
