
     RDKit          3D

 30 32  0  0  0  0  0  0  0  0999 V2000
   38.4960   27.2770   43.8570 C   0  0  0  0  0  0  0  0  0  0  0  0
   39.0150   26.3320   42.9760 C   0  0  0  0  0  0  0  0  0  0  0  0
   39.0850   26.6670   41.6220 C   0  0  0  0  0  0  0  0  0  0  0  0
   38.6420   27.8970   41.2620 N   0  0  0  0  0  0  0  0  0  0  0  0
   38.1440   28.7990   42.1330 C   0  0  0  0  0  0  0  0  0  0  0  0
   38.0750   28.4760   43.4410 N   0  0  0  0  0  0  0  0  0  0  0  0
   37.7520   30.0060   41.4960 N   0  0  0  0  0  0  0  0  0  0  0  0
   36.4730   30.1820   41.0530 C   0  0  0  0  0  0  0  0  0  0  0  0
   36.3480   31.3990   40.4880 N   0  0  0  0  0  0  0  0  0  0  0  0
   37.5450   31.9990   40.5680 C   0  0  0  0  0  0  0  0  0  0  0  0
   38.0420   33.2400   40.1700 C   0  0  0  0  0  0  0  0  0  0  0  0
   39.3480   33.5320   40.4150 N   0  0  0  0  0  0  0  0  0  0  0  0
   40.1500   32.6570   41.0250 C   0  0  0  0  0  0  0  0  0  0  0  0
   39.6860   31.4420   41.4210 N   0  0  0  0  0  0  0  0  0  0  0  0
   38.3970   31.1200   41.1940 C   0  0  0  0  0  0  0  0  0  0  0  0
   37.0980   34.0790   39.5340 N   0  0  0  0  0  0  0  0  0  0  0  0
   41.5130   32.9830   41.2720 N   0  0  0  0  0  0  0  0  0  0  0  0
   41.8790   34.3420   41.4840 C   0  0  0  0  0  0  0  0  0  0  0  0
   41.1690   35.2820   40.9150 N   0  0  0  0  0  0  0  0  0  0  0  0
   43.0210   34.6340   42.3170 N   0  0  0  0  0  0  0  0  0  0  0  0
   41.3660   36.2960   41.0170 H   0  0  0  0  0  0  0  0  0  0  0  0
   38.4304   27.0299   44.9269 H   0  0  0  0  0  0  0  0  0  0  0  0
   39.3595   25.3512   43.3356 H   0  0  0  0  0  0  0  0  0  0  0  0
   39.4833   25.9617   40.8778 H   0  0  0  0  0  0  0  0  0  0  0  0
   35.6650   29.4411   41.1436 H   0  0  0  0  0  0  0  0  0  0  0  0
   36.1296   33.7552   39.3992 H   0  0  0  0  0  0  0  0  0  0  0  0
   37.3788   35.0140   39.2055 H   0  0  0  0  0  0  0  0  0  0  0  0
   42.2282   32.2422   41.2971 H   0  0  0  0  0  0  0  0  0  0  0  0
   43.3015   35.6112   42.4823 H   0  0  0  0  0  0  0  0  0  0  0  0
   43.5554   33.8652   42.7462 H   0  0  0  0  0  0  0  0  0  0  0  0
  2  1  2  0
  3  2  1  0
  4  3  2  0
  4  5  1  0
  5  6  2  0
  6  1  1  0
  7  5  1  0
  8  7  1  0
  9 10  1  0
  9  8  2  0
 10 15  2  0
 11 12  2  0
 11 10  1  0
 12 13  1  0
 13 17  1  0
 13 14  2  0
 15 14  1  0
 15  7  1  0
 16 11  1  0
 17 18  1  0
 18 20  1  0
 19 21  1  0
 19 18  2  0
  1 22  1  0
  2 23  1  0
  3 24  1  0
  8 25  1  0
 16 26  1  0
 16 27  1  0
 17 28  1  0
 20 29  1  0
 20 30  1  0
M  ISO  4  22  14  23  14  24  14  25  14
M  END
>  <minimizedAffinity>  (1) 
-6.46536446

>  <minimizedRMSD>  (1) 
1.29109824

$$$$
