
     RDKit          3D

 31 34  0  0  0  0  0  0  0  0999 V2000
   38.6070   27.3000   43.8280 C   0  0  0  0  0  0  0  0  0  0  0  0
   39.0670   26.3300   42.9290 C   0  0  0  0  0  0  0  0  0  0  0  0
   39.0530   26.6540   41.5610 C   0  0  0  0  0  0  0  0  0  0  0  0
   38.5930   27.8840   41.2050 N   0  0  0  0  0  0  0  0  0  0  0  0
   38.1600   28.7880   42.1070 C   0  0  0  0  0  0  0  0  0  0  0  0
   38.1610   28.5050   43.4390 N   0  0  0  0  0  0  0  0  0  0  0  0
   37.7330   29.9960   41.4760 N   0  0  0  0  0  0  0  0  0  0  0  0
   36.4370   30.1870   41.1180 C   0  0  0  0  0  0  0  0  0  0  0  0
   36.2950   31.3990   40.5450 N   0  0  0  0  0  0  0  0  0  0  0  0
   37.4880   31.9860   40.5320 C   0  0  0  0  0  0  0  0  0  0  0  0
   37.9690   33.2110   40.0850 C   0  0  0  0  0  0  0  0  0  0  0  0
   39.2980   33.4870   40.2380 N   0  0  0  0  0  0  0  0  0  0  0  0
   40.1410   32.6110   40.8080 C   0  0  0  0  0  0  0  0  0  0  0  0
   39.6880   31.4080   41.2530 N   0  0  0  0  0  0  0  0  0  0  0  0
   38.3810   31.1050   41.1150 C   0  0  0  0  0  0  0  0  0  0  0  0
   36.9970   34.0460   39.5030 N   0  0  0  0  0  0  0  0  0  0  0  0
   41.5520   32.9480   40.9520 C   0  0  0  0  0  0  0  0  0  0  0  0
   42.1480   33.8230   40.0690 C   0  0  0  0  0  0  0  0  0  0  0  0
   43.4890   34.1550   40.1900 C   0  0  0  0  0  0  0  0  0  0  0  0
   44.1810   33.6070   41.1820 N   0  0  0  0  0  0  0  0  0  0  0  0
   43.6050   32.7480   42.0530 C   0  0  0  0  0  0  0  0  0  0  0  0
   42.2850   32.4280   41.9240 N   0  0  0  0  0  0  0  0  0  0  0  0
   38.6113   27.0638   44.9023 H   0  0  0  0  0  0  0  0  0  0  0  0
   39.4259   25.3512   43.2799 H   0  0  0  0  0  0  0  0  0  0  0  0
   39.4024   25.9369   40.8036 H   0  0  0  0  0  0  0  0  0  0  0  0
   35.6248   29.4614   41.2724 H   0  0  0  0  0  0  0  0  0  0  0  0
   36.0182   33.7313   39.4408 H   0  0  0  0  0  0  0  0  0  0  0  0
   37.2644   34.9718   39.1392 H   0  0  0  0  0  0  0  0  0  0  0  0
   41.5514   34.2641   39.2569 H   0  0  0  0  0  0  0  0  0  0  0  0
   43.9655   34.8519   39.4848 H   0  0  0  0  0  0  0  0  0  0  0  0
   44.2008   32.3071   42.8658 H   0  0  0  0  0  0  0  0  0  0  0  0
  2  1  2  0
  3  2  1  0
  4  3  2  0
  4  5  1  0
  5  6  2  0
  6  1  1  0
  7  5  1  0
  8  7  1  0
  9  8  2  0
 10  9  1  0
 10 15  2  0
 11 12  2  0
 11 10  1  0
 12 13  1  0
 13 17  1  0
 13 14  2  0
 15 14  1  0
 15  7  1  0
 16 11  1  0
 17 22  2  0
 18 19  2  0
 18 17  1  0
 19 20  1  0
 20 21  2  0
 22 21  1  0
  1 23  1  0
  2 24  1  0
  3 25  1  0
  8 26  1  0
 16 27  1  0
 16 28  1  0
 18 29  1  0
 19 30  1  0
 21 31  1  0
M  ISO  7  23  14  24  14  25  14  26  14  29  14  30  14  31  14
M  END
>  <minimizedAffinity>  (1) 
-6.00063372

>  <minimizedRMSD>  (1) 
1.28553188

$$$$
