
     RDKit          3D

 33 36  0  0  0  0  0  0  0  0999 V2000
   38.8340   27.0820   43.8140 C   0  0  0  0  0  0  0  0  0  0  0  0
   39.2670   26.1350   42.8960 C   0  0  0  0  0  0  0  0  0  0  0  0
   39.1770   26.4760   41.5310 C   0  0  0  0  0  0  0  0  0  0  0  0
   38.6770   27.6950   41.2250 N   0  0  0  0  0  0  0  0  0  0  0  0
   38.2620   28.5950   42.1580 C   0  0  0  0  0  0  0  0  0  0  0  0
   38.3430   28.2810   43.4680 N   0  0  0  0  0  0  0  0  0  0  0  0
   37.7790   29.7880   41.5590 N   0  0  0  0  0  0  0  0  0  0  0  0
   36.4480   29.9310   41.2580 C   0  0  0  0  0  0  0  0  0  0  0  0
   36.2260   31.1310   40.7040 N   0  0  0  0  0  0  0  0  0  0  0  0
   37.4150   31.7660   40.6440 C   0  0  0  0  0  0  0  0  0  0  0  0
   37.8350   33.0090   40.1910 C   0  0  0  0  0  0  0  0  0  0  0  0
   39.1440   33.3340   40.2930 N   0  0  0  0  0  0  0  0  0  0  0  0
   40.0460   32.4850   40.8200 C   0  0  0  0  0  0  0  0  0  0  0  0
   39.6580   31.2550   41.2720 N   0  0  0  0  0  0  0  0  0  0  0  0
   38.3510   30.9110   41.1790 C   0  0  0  0  0  0  0  0  0  0  0  0
   36.8200   33.8250   39.6580 N   0  0  0  0  0  0  0  0  0  0  0  0
   41.4590   32.8510   40.9240 C   0  0  0  0  0  0  0  0  0  0  0  0
   41.9650   33.7870   40.0430 C   0  0  0  0  0  0  0  0  0  0  0  0
   43.2930   34.1910   40.0720 C   0  0  0  0  0  0  0  0  0  0  0  0
   44.1020   33.6110   41.0320 C   0  0  0  0  0  0  0  0  0  0  0  0
   43.6180   32.6640   41.9340 C   0  0  0  0  0  0  0  0  0  0  0  0
   42.2940   32.2810   41.8830 C   0  0  0  0  0  0  0  0  0  0  0  0
   38.8971   26.8353   44.8841 H   0  0  0  0  0  0  0  0  0  0  0  0
   39.6630   25.1611   43.2195 H   0  0  0  0  0  0  0  0  0  0  0  0
   39.5009   25.7777   40.7452 H   0  0  0  0  0  0  0  0  0  0  0  0
   35.6751   29.1708   41.4444 H   0  0  0  0  0  0  0  0  0  0  0  0
   35.8488   33.4835   39.6250 H   0  0  0  0  0  0  0  0  0  0  0  0
   37.0482   34.7638   39.3009 H   0  0  0  0  0  0  0  0  0  0  0  0
   41.2924   34.2276   39.2924 H   0  0  0  0  0  0  0  0  0  0  0  0
   43.6834   34.9374   39.3646 H   0  0  0  0  0  0  0  0  0  0  0  0
   45.1604   33.9059   41.0858 H   0  0  0  0  0  0  0  0  0  0  0  0
   44.2907   32.2234   42.6846 H   0  0  0  0  0  0  0  0  0  0  0  0
   41.9022   31.5352   42.5903 H   0  0  0  0  0  0  0  0  0  0  0  0
  2  1  2  0
  3  2  1  0
  4  3  2  0
  4  5  1  0
  5  6  2  0
  6  1  1  0
  7  5  1  0
  8  7  1  0
  9  8  2  0
 10  9  1  0
 10 15  2  0
 11 12  2  0
 11 10  1  0
 12 13  1  0
 13 17  1  0
 13 14  2  0
 15 14  1  0
 15  7  1  0
 16 11  1  0
 17 22  2  0
 18 19  2  0
 18 17  1  0
 19 20  1  0
 20 21  2  0
 22 21  1  0
  1 23  1  0
  2 24  1  0
  3 25  1  0
  8 26  1  0
 16 27  1  0
 16 28  1  0
 18 29  1  0
 19 30  1  0
 20 31  1  0
 21 32  1  0
 22 33  1  0
M  ISO  8  23  14  24  14  25  14  26  14  29  14  30  14  31  14  32  14
M  ISO  1  33  14
M  END
>  <minimizedAffinity>  (1) 
-5.9570837

>  <minimizedRMSD>  (1) 
1.03264952

$$$$
