
     RDKit          3D

 30 33  0  0  0  0  0  0  0  0999 V2000
   38.6290   27.2980   43.8120 C   0  0  0  0  0  0  0  0  0  0  0  0
   39.0870   26.3330   42.9180 C   0  0  0  0  0  0  0  0  0  0  0  0
   39.0700   26.6640   41.5510 C   0  0  0  0  0  0  0  0  0  0  0  0
   38.6140   27.8900   41.1820 N   0  0  0  0  0  0  0  0  0  0  0  0
   38.1750   28.7990   42.1070 C   0  0  0  0  0  0  0  0  0  0  0  0
   38.1810   28.5050   43.4320 N   0  0  0  0  0  0  0  0  0  0  0  0
   37.7500   30.0040   41.4770 N   0  0  0  0  0  0  0  0  0  0  0  0
   36.4360   30.1740   41.1180 C   0  0  0  0  0  0  0  0  0  0  0  0
   36.2730   31.3830   40.5420 N   0  0  0  0  0  0  0  0  0  0  0  0
   37.4690   31.9870   40.5310 C   0  0  0  0  0  0  0  0  0  0  0  0
   37.9610   33.2180   40.0860 C   0  0  0  0  0  0  0  0  0  0  0  0
   39.2750   33.5020   40.2430 N   0  0  0  0  0  0  0  0  0  0  0  0
   40.1260   32.6330   40.8150 C   0  0  0  0  0  0  0  0  0  0  0  0
   39.6730   31.4240   41.2570 N   0  0  0  0  0  0  0  0  0  0  0  0
   38.3740   31.1130   41.1160 C   0  0  0  0  0  0  0  0  0  0  0  0
   36.9800   34.0370   39.4970 N   0  0  0  0  0  0  0  0  0  0  0  0
   41.5290   33.0120   40.9470 C   0  0  0  0  0  0  0  0  0  0  0  0
   42.0620   33.8280   39.9550 C   0  0  0  0  0  0  0  0  0  0  0  0
   43.3900   34.0490   40.2990 C   0  0  0  0  0  0  0  0  0  0  0  0
   43.5860   33.3500   41.4840 C   0  0  0  0  0  0  0  0  0  0  0  0
   42.4620   32.7610   41.8190 O   0  0  0  0  0  0  0  0  0  0  0  0
   38.6347   27.0585   44.8856 H   0  0  0  0  0  0  0  0  0  0  0  0
   39.4467   25.3536   43.2663 H   0  0  0  0  0  0  0  0  0  0  0  0
   39.4189   25.9447   40.7955 H   0  0  0  0  0  0  0  0  0  0  0  0
   35.6362   29.4355   41.2762 H   0  0  0  0  0  0  0  0  0  0  0  0
   36.0055   33.7094   39.4341 H   0  0  0  0  0  0  0  0  0  0  0  0
   37.2364   34.9641   39.1288 H   0  0  0  0  0  0  0  0  0  0  0  0
   41.5361   34.2209   39.0723 H   0  0  0  0  0  0  0  0  0  0  0  0
   44.1296   34.6500   39.7496 H   0  0  0  0  0  0  0  0  0  0  0  0
   44.5286   33.2988   42.0486 H   0  0  0  0  0  0  0  0  0  0  0  0
  2  1  2  0
  3  2  1  0
  4  3  2  0
  4  5  1  0
  5  6  2  0
  6  1  1  0
  7  5  1  0
  8  7  1  0
  9  8  2  0
 10  9  1  0
 10 15  2  0
 11 12  2  0
 11 10  1  0
 12 13  1  0
 13 17  1  0
 13 14  2  0
 15 14  1  0
 15  7  1  0
 16 11  1  0
 17 21  1  0
 18 19  1  0
 18 17  2  0
 19 20  2  0
 20 21  1  0
  1 22  1  0
  2 23  1  0
  3 24  1  0
  8 25  1  0
 16 26  1  0
 16 27  1  0
 18 28  1  0
 19 29  1  0
 20 30  1  0
M  ISO  7  22  14  23  14  24  14  25  14  28  14  29  14  30  14
M  END
>  <minimizedAffinity>  (1) 
-5.88406801

>  <minimizedRMSD>  (1) 
1.33834636

$$$$
