
     RDKit          3D

 26 28  0  0  0  0  0  0  0  0999 V2000
   38.5940   27.3620   43.8730 C   0  0  0  0  0  0  0  0  0  0  0  0
   39.0550   26.3800   42.9990 C   0  0  0  0  0  0  0  0  0  0  0  0
   39.0460   26.6830   41.6310 C   0  0  0  0  0  0  0  0  0  0  0  0
   38.5930   27.9070   41.2390 N   0  0  0  0  0  0  0  0  0  0  0  0
   38.1550   28.8300   42.1180 C   0  0  0  0  0  0  0  0  0  0  0  0
   38.1540   28.5560   43.4530 N   0  0  0  0  0  0  0  0  0  0  0  0
   37.7310   30.0310   41.4820 N   0  0  0  0  0  0  0  0  0  0  0  0
   36.4290   30.2170   41.1320 C   0  0  0  0  0  0  0  0  0  0  0  0
   36.2800   31.4200   40.5520 N   0  0  0  0  0  0  0  0  0  0  0  0
   37.4920   32.0120   40.5280 C   0  0  0  0  0  0  0  0  0  0  0  0
   37.9610   33.2310   40.0680 C   0  0  0  0  0  0  0  0  0  0  0  0
   39.2860   33.5070   40.2130 N   0  0  0  0  0  0  0  0  0  0  0  0
   40.1260   32.6400   40.7810 C   0  0  0  0  0  0  0  0  0  0  0  0
   39.6740   31.4340   41.2380 N   0  0  0  0  0  0  0  0  0  0  0  0
   38.3720   31.1360   41.1080 C   0  0  0  0  0  0  0  0  0  0  0  0
   36.9650   34.0610   39.4890 N   0  0  0  0  0  0  0  0  0  0  0  0
   41.5580   33.0060   40.9060 C   0  0  0  0  0  0  0  0  0  0  0  0
   42.0730   32.3890   42.0340 F   0  0  0  0  0  0  0  0  0  0  0  0
   42.2820   32.6080   39.7760 F   0  0  0  0  0  0  0  0  0  0  0  0
   41.6800   34.3880   41.0450 F   0  0  0  0  0  0  0  0  0  0  0  0
   38.5911   27.1485   44.9521 H   0  0  0  0  0  0  0  0  0  0  0  0
   39.4114   25.4068   43.3676 H   0  0  0  0  0  0  0  0  0  0  0  0
   39.3967   25.9494   40.8902 H   0  0  0  0  0  0  0  0  0  0  0  0
   35.6196   29.4911   41.2989 H   0  0  0  0  0  0  0  0  0  0  0  0
   35.9892   33.7353   39.4377 H   0  0  0  0  0  0  0  0  0  0  0  0
   37.2183   34.9888   39.1203 H   0  0  0  0  0  0  0  0  0  0  0  0
  2  1  2  0
  3  2  1  0
  4  3  2  0
  4  5  1  0
  5  6  2  0
  6  1  1  0
  7  5  1  0
  8  7  1  0
  9  8  2  0
 10  9  1  0
 10 15  2  0
 11 12  2  0
 11 10  1  0
 12 13  1  0
 13 17  1  0
 13 14  2  0
 15 14  1  0
 15  7  1  0
 16 11  1  0
 17 20  1  0
 17 18  1  0
 19 17  1  0
  1 21  1  0
  2 22  1  0
  3 23  1  0
  8 24  1  0
 16 25  1  0
 16 26  1  0
M  ISO  4  21  14  22  14  23  14  24  14
M  END
>  <minimizedAffinity>  (1) 
-5.67093754

>  <minimizedRMSD>  (1) 
1.27725065

$$$$
