
     RDKit          3D

 27 29  0  0  0  0  0  0  0  0999 V2000
   38.9260   32.2010   39.7330 O   0  0  0  0  0  0  0  0  0  0  0  0
   38.7430   31.3130   40.7630 C   0  0  0  0  0  0  0  0  0  0  0  0
   39.4940   31.0880   41.8960 C   0  0  0  0  0  0  0  0  0  0  0  0
   39.1420   30.1370   42.8290 C   0  0  0  0  0  0  0  0  0  0  0  0
   38.0140   29.3590   42.6720 C   0  0  0  0  0  0  0  0  0  0  0  0
   37.2560   29.5760   41.5420 C   0  0  0  0  0  0  0  0  0  0  0  0
   36.1350   28.7610   41.4440 C   0  0  0  0  0  0  0  0  0  0  0  0
   35.3130   28.9060   40.3450 C   0  0  0  0  0  0  0  0  0  0  0  0
   35.6210   29.8440   39.3820 C   0  0  0  0  0  0  0  0  0  0  0  0
   36.7440   30.6330   39.5190 C   0  0  0  0  0  0  0  0  0  0  0  0
   37.5960   30.5270   40.5970 C   0  0  0  0  0  0  0  0  0  0  0  0
   39.1390   35.7950   40.2290 C   0  0  0  0  0  0  0  0  0  0  0  0
   40.4780   36.0060   39.8170 C   0  0  0  0  0  0  0  0  0  0  0  0
   41.1910   34.8730   39.4010 C   0  0  0  0  0  0  0  0  0  0  0  0
   40.5740   33.6510   39.4140 N   0  0  0  0  0  0  0  0  0  0  0  0
   39.2940   33.5200   39.8190 C   0  0  0  0  0  0  0  0  0  0  0  0
   38.5820   34.5830   40.2240 N   0  0  0  0  0  0  0  0  0  0  0  0
   40.4025   31.6859   42.0608 H   0  0  0  0  0  0  0  0  0  0  0  0
   39.7741   29.9953   43.7180 H   0  0  0  0  0  0  0  0  0  0  0  0
   37.7321   28.5992   43.4157 H   0  0  0  0  0  0  0  0  0  0  0  0
   35.9083   28.0184   42.2232 H   0  0  0  0  0  0  0  0  0  0  0  0
   34.4171   28.2769   40.2377 H   0  0  0  0  0  0  0  0  0  0  0  0
   34.9700   29.9631   38.5033 H   0  0  0  0  0  0  0  0  0  0  0  0
   36.9680   31.3749   38.7383 H   0  0  0  0  0  0  0  0  0  0  0  0
   38.5412   36.6559   40.5628 H   0  0  0  0  0  0  0  0  0  0  0  0
   40.9344   37.0068   39.8232 H   0  0  0  0  0  0  0  0  0  0  0  0
   42.2352   34.9649   39.0676 H   0  0  0  0  0  0  0  0  0  0  0  0
  1 16  1  0
  1  2  1  0
  2  3  2  0
  3  4  1  0
  5  4  2  0
  6  5  1  0
  7  6  2  0
  8  7  1  0
  9 10  1  0
  9  8  2  0
 10 11  2  0
 11  2  1  0
 11  6  1  0
 13 12  2  0
 14 15  2  0
 14 13  1  0
 15 16  1  0
 16 17  2  0
 17 12  1  0
  3 18  1  0
  4 19  1  0
  5 20  1  0
  7 21  1  0
  8 22  1  0
  9 23  1  0
 10 24  1  0
 12 25  1  0
 13 26  1  0
 14 27  1  0
M  ISO  8  18  14  19  14  20  14  21  14  22  14  23  14  24  14  25  14
M  ISO  2  26  14  27  14
M  END
>  <minimizedAffinity>  (1) 
-5.33292341

>  <minimizedRMSD>  (1) 
5.74351788

$$$$
