
     RDKit          3D

 19 20  0  0  0  0  0  0  0  0999 V2000
   38.6780   28.7810   43.1930 C   0  0  0  0  0  0  0  0  0  0  0  0
   38.1790   27.4880   43.4350 C   0  0  0  0  0  0  0  0  0  0  0  0
   36.9460   27.1660   42.8470 C   0  0  0  0  0  0  0  0  0  0  0  0
   36.3170   28.1130   42.0870 N   0  0  0  0  0  0  0  0  0  0  0  0
   36.8420   29.3350   41.8890 C   0  0  0  0  0  0  0  0  0  0  0  0
   38.0260   29.6730   42.4430 N   0  0  0  0  0  0  0  0  0  0  0  0
   35.9790   30.0550   41.0860 O   0  0  0  0  0  0  0  0  0  0  0  0
   36.5030   30.7700   40.0160 C   0  0  0  0  0  0  0  0  0  0  0  0
   36.6250   30.0620   38.8360 C   0  0  0  0  0  0  0  0  0  0  0  0
   37.1400   30.6730   37.6870 C   0  0  0  0  0  0  0  0  0  0  0  0
   37.5060   31.9830   37.7950 N   0  0  0  0  0  0  0  0  0  0  0  0
   37.3840   32.6730   38.9540 C   0  0  0  0  0  0  0  0  0  0  0  0
   36.8860   32.0610   40.0440 N   0  0  0  0  0  0  0  0  0  0  0  0
   39.6419   29.0681   43.6385 H   0  0  0  0  0  0  0  0  0  0  0  0
   38.7286   26.7645   44.0550 H   0  0  0  0  0  0  0  0  0  0  0  0
   36.4954   26.1734   42.9943 H   0  0  0  0  0  0  0  0  0  0  0  0
   36.3142   29.0075   38.7991 H   0  0  0  0  0  0  0  0  0  0  0  0
   37.2449   30.1225   36.7405 H   0  0  0  0  0  0  0  0  0  0  0  0
   37.6904   33.7283   39.0040 H   0  0  0  0  0  0  0  0  0  0  0  0
  1  2  2  0
  3  2  1  0
  4  3  2  0
  5  4  1  0
  5  6  2  0
  6  1  1  0
  7  5  1  0
  8 13  1  0
  8  7  1  0
  9  8  2  0
 10 11  2  0
 10  9  1  0
 11 12  1  0
 12 13  2  0
  1 14  1  0
  2 15  1  0
  3 16  1  0
  9 17  1  0
 10 18  1  0
 12 19  1  0
M  ISO  6  14  14  15  14  16  14  17  14  18  14  19  14
M  END
>  <minimizedAffinity>  (1) 
-3.93909621

>  <minimizedRMSD>  (1) 
1.37298739

$$$$
