
     RDKit          3D

 29 32  0  0  0  0  0  0  0  0999 V2000
   36.5440   30.7810   40.3230 C   0  0  0  0  0  0  0  0  0  0  0  0
   36.4080   30.9220   38.9820 N   0  0  0  0  0  0  0  0  0  0  0  0
   37.0000   32.0300   38.6060 O   0  0  0  0  0  0  0  0  0  0  0  0
   37.5070   32.5910   39.6880 C   0  0  0  0  0  0  0  0  0  0  0  0
   37.2460   31.8430   40.7890 N   0  0  0  0  0  0  0  0  0  0  0  0
   38.2560   33.8100   39.8790 N   0  0  0  0  0  0  0  0  0  0  0  0
   37.8490   35.0980   39.7130 C   0  0  0  0  0  0  0  0  0  0  0  0
   38.9080   35.9040   40.0110 N   0  0  0  0  0  0  0  0  0  0  0  0
   39.9360   35.1380   40.3500 C   0  0  0  0  0  0  0  0  0  0  0  0
   41.2420   35.4280   40.7390 C   0  0  0  0  0  0  0  0  0  0  0  0
   42.1050   34.4260   41.0350 N   0  0  0  0  0  0  0  0  0  0  0  0
   41.7030   33.1410   40.9520 C   0  0  0  0  0  0  0  0  0  0  0  0
   40.4390   32.8690   40.5750 N   0  0  0  0  0  0  0  0  0  0  0  0
   39.5430   33.8310   40.2710 C   0  0  0  0  0  0  0  0  0  0  0  0
   41.6970   36.7670   40.8350 N   0  0  0  0  0  0  0  0  0  0  0  0
   36.0850   29.7670   41.1740 O   0  0  0  0  0  0  0  0  0  0  0  0
   38.8800   28.5340   43.1570 C   0  0  0  0  0  0  0  0  0  0  0  0
   38.5370   27.1790   43.2260 C   0  0  0  0  0  0  0  0  0  0  0  0
   37.3360   26.7870   42.5650 C   0  0  0  0  0  0  0  0  0  0  0  0
   36.6150   27.7390   41.9210 N   0  0  0  0  0  0  0  0  0  0  0  0
   36.9930   29.0270   41.8880 C   0  0  0  0  0  0  0  0  0  0  0  0
   38.1320   29.4310   42.5090 N   0  0  0  0  0  0  0  0  0  0  0  0
   36.8488   35.4285   39.3964 H   0  0  0  0  0  0  0  0  0  0  0  0
   42.4002   32.3240   41.1897 H   0  0  0  0  0  0  0  0  0  0  0  0
   42.6661   36.9621   41.1243 H   0  0  0  0  0  0  0  0  0  0  0  0
   41.0585   37.5449   40.6155 H   0  0  0  0  0  0  0  0  0  0  0  0
   39.8002   28.8731   43.6552 H   0  0  0  0  0  0  0  0  0  0  0  0
   39.1632   26.4520   43.7638 H   0  0  0  0  0  0  0  0  0  0  0  0
   37.0023   25.7389   42.5769 H   0  0  0  0  0  0  0  0  0  0  0  0
  1  5  1  0
  1 16  1  0
  2  1  2  0
  3  2  1  0
  3  4  1  0
  4  6  1  0
  4  5  2  0
  6 14  1  0
  7  6  1  0
  7  8  2  0
  8  9  1  0
  9 10  2  0
 10 15  1  0
 10 11  1  0
 12 11  2  0
 13 12  1  0
 14  9  1  0
 14 13  2  0
 16 21  1  0
 17 18  2  0
 19 18  1  0
 20 19  2  0
 21 20  1  0
 21 22  2  0
 22 17  1  0
  7 23  1  0
 12 24  1  0
 15 25  1  0
 15 26  1  0
 17 27  1  0
 18 28  1  0
 19 29  1  0
M  ISO  5  23  14  24  14  27  14  28  14  29  14
M  END
>  <minimizedAffinity>  (1) 
-6.27757788

>  <minimizedRMSD>  (1) 
0.988085628

$$$$
