
     RDKit          3D

 29 31  0  0  0  0  0  0  0  0999 V2000
   36.7300   31.1820   40.3180 C   0  0  0  0  0  0  0  0  0  0  0  0
   36.6960   31.4780   38.9930 N   0  0  0  0  0  0  0  0  0  0  0  0
   37.5420   32.4530   38.7560 O   0  0  0  0  0  0  0  0  0  0  0  0
   38.1060   32.7740   39.9060 C   0  0  0  0  0  0  0  0  0  0  0  0
   37.6260   32.0010   40.9100 N   0  0  0  0  0  0  0  0  0  0  0  0
   39.1010   33.7650   40.2450 N   0  0  0  0  0  0  0  0  0  0  0  0
   38.7080   35.0300   39.9690 C   0  0  0  0  0  0  0  0  0  0  0  0
   39.5550   36.0810   40.2400 C   0  0  0  0  0  0  0  0  0  0  0  0
   39.1790   37.5110   39.9570 C   0  0  0  0  0  0  0  0  0  0  0  0
   40.7890   35.7810   40.7920 C   0  0  0  0  0  0  0  0  0  0  0  0
   41.6320   36.6910   41.0730 O   0  0  0  0  0  0  0  0  0  0  0  0
   41.1410   34.5070   41.0510 N   0  0  0  0  0  0  0  0  0  0  0  0
   40.3050   33.4820   40.7820 C   0  0  0  0  0  0  0  0  0  0  0  0
   40.5470   32.2640   40.9900 O   0  0  0  0  0  0  0  0  0  0  0  0
   36.0100   30.2210   41.0410 O   0  0  0  0  0  0  0  0  0  0  0  0
   37.9970   28.1700   43.2870 C   0  0  0  0  0  0  0  0  0  0  0  0
   37.8810   26.9290   42.6430 C   0  0  0  0  0  0  0  0  0  0  0  0
   37.1020   26.9050   41.4520 C   0  0  0  0  0  0  0  0  0  0  0  0
   36.5280   28.0550   41.0130 N   0  0  0  0  0  0  0  0  0  0  0  0
   36.6830   29.2110   41.6830 C   0  0  0  0  0  0  0  0  0  0  0  0
   37.4160   29.2710   42.8170 N   0  0  0  0  0  0  0  0  0  0  0  0
   37.7169   35.2177   39.5304 H   0  0  0  0  0  0  0  0  0  0  0  0
   39.0378   38.0478   40.9067 H   0  0  0  0  0  0  0  0  0  0  0  0
   39.9808   37.9934   39.3788 H   0  0  0  0  0  0  0  0  0  0  0  0
   38.2436   37.5366   39.3788 H   0  0  0  0  0  0  0  0  0  0  0  0
   42.0650   34.3113   41.4618 H   0  0  0  0  0  0  0  0  0  0  0  0
   38.5885   28.2351   44.2121 H   0  0  0  0  0  0  0  0  0  0  0  0
   38.3658   26.0237   43.0371 H   0  0  0  0  0  0  0  0  0  0  0  0
   36.9665   25.9667   40.8940 H   0  0  0  0  0  0  0  0  0  0  0  0
  1  5  1  0
  1 15  1  0
  2  1  2  0
  3  2  1  0
  3  4  1  0
  4  6  1  0
  4  5  2  0
  6 13  1  0
  7  8  2  0
  7  6  1  0
  8 10  1  0
  9  8  1  0
 10 12  1  0
 10 11  2  0
 13 14  2  0
 13 12  1  0
 15 20  1  0
 17 16  2  0
 18 17  1  0
 19 18  2  0
 19 20  1  0
 20 21  2  0
 21 16  1  0
  7 22  1  0
  9 23  1  0
  9 24  1  0
  9 25  1  0
 12 26  1  0
 16 27  1  0
 17 28  1  0
 18 29  1  0
M  ISO  8  22  14  23   8  24   8  25   8  26   9  27  14  28  14  29  14
M  END
>  <minimizedAffinity>  (1) 
-6.11755848

>  <minimizedRMSD>  (1) 
1.89371037

$$$$
