
     RDKit          3D

 23 25  0  0  0  0  0  0  0  0999 V2000
   36.9960   31.5040   40.4880 C   0  0  0  0  0  0  0  0  0  0  0  0
   36.8740   31.5940   39.1250 N   0  0  0  0  0  0  0  0  0  0  0  0
   37.6940   32.5320   38.6960 O   0  0  0  0  0  0  0  0  0  0  0  0
   38.3190   33.0260   39.7450 C   0  0  0  0  0  0  0  0  0  0  0  0
   37.9130   32.4120   40.8840 N   0  0  0  0  0  0  0  0  0  0  0  0
   39.2980   34.0620   39.7530 N   0  0  0  0  0  0  0  0  0  0  0  0
   40.5840   34.1010   39.4330 N   0  0  0  0  0  0  0  0  0  0  0  0
   41.0650   35.3520   39.6240 C   0  0  0  0  0  0  0  0  0  0  0  0
   40.0040   36.1230   40.0900 C   0  0  0  0  0  0  0  0  0  0  0  0
   38.8910   35.2880   40.1660 C   0  0  0  0  0  0  0  0  0  0  0  0
   36.3430   30.6680   41.3890 O   0  0  0  0  0  0  0  0  0  0  0  0
   38.6400   28.4930   43.1870 C   0  0  0  0  0  0  0  0  0  0  0  0
   38.0630   27.2540   42.8840 C   0  0  0  0  0  0  0  0  0  0  0  0
   36.9070   27.2570   42.0690 C   0  0  0  0  0  0  0  0  0  0  0  0
   36.4210   28.4530   41.6270 N   0  0  0  0  0  0  0  0  0  0  0  0
   37.0140   29.6120   41.9490 C   0  0  0  0  0  0  0  0  0  0  0  0
   38.1090   29.6360   42.7190 N   0  0  0  0  0  0  0  0  0  0  0  0
   42.0954   35.6932   39.4454 H   0  0  0  0  0  0  0  0  0  0  0  0
   40.0378   37.1914   40.3497 H   0  0  0  0  0  0  0  0  0  0  0  0
   37.8800   35.5684   40.4964 H   0  0  0  0  0  0  0  0  0  0  0  0
   39.5408   28.5319   43.8171 H   0  0  0  0  0  0  0  0  0  0  0  0
   38.4917   26.3152   43.2647 H   0  0  0  0  0  0  0  0  0  0  0  0
   36.4098   26.3142   41.7970 H   0  0  0  0  0  0  0  0  0  0  0  0
  1  5  1  0
  1 11  1  0
  2  1  2  0
  3  2  1  0
  3  4  1  0
  4  6  1  0
  4  5  2  0
  6 10  1  0
  7  8  2  0
  7  6  1  0
  8  9  1  0
  9 10  2  0
 11 16  1  0
 13 12  2  0
 14 13  1  0
 15 16  1  0
 15 14  2  0
 16 17  2  0
 17 12  1  0
  8 18  1  0
  9 19  1  0
 10 20  1  0
 12 21  1  0
 13 22  1  0
 14 23  1  0
M  ISO  6  18  14  19  14  20  14  21  14  22  14  23  14
M  END
>  <minimizedAffinity>  (1) 
-5.3243494

>  <minimizedRMSD>  (1) 
1.27982354

$$$$
