
     RDKit          3D

 24 26  0  0  0  0  0  0  0  0999 V2000
   36.9030   31.4600   40.2990 C   0  0  0  0  0  0  0  0  0  0  0  0
   37.0270   31.5940   38.9390 N   0  0  0  0  0  0  0  0  0  0  0  0
   37.8720   32.5660   38.7000 O   0  0  0  0  0  0  0  0  0  0  0  0
   38.2840   33.0470   39.8480 C   0  0  0  0  0  0  0  0  0  0  0  0
   37.6930   32.3740   40.8690 N   0  0  0  0  0  0  0  0  0  0  0  0
   39.2410   34.1500   40.0720 C   0  0  0  0  0  0  0  0  0  0  0  0
   38.8460   35.4750   40.0570 C   0  0  0  0  0  0  0  0  0  0  0  0
   39.8530   36.3920   40.2800 C   0  0  0  0  0  0  0  0  0  0  0  0
   41.1230   36.0510   40.4990 N   0  0  0  0  0  0  0  0  0  0  0  0
   41.4790   34.7570   40.5090 C   0  0  0  0  0  0  0  0  0  0  0  0
   40.5320   33.8180   40.2950 N   0  0  0  0  0  0  0  0  0  0  0  0
   36.1270   30.5710   41.0300 O   0  0  0  0  0  0  0  0  0  0  0  0
   38.0000   28.2770   43.1490 C   0  0  0  0  0  0  0  0  0  0  0  0
   37.7120   27.0610   42.4790 C   0  0  0  0  0  0  0  0  0  0  0  0
   36.8780   27.1430   41.3300 C   0  0  0  0  0  0  0  0  0  0  0  0
   36.4140   28.3690   40.9510 N   0  0  0  0  0  0  0  0  0  0  0  0
   36.7280   29.4770   41.6340 C   0  0  0  0  0  0  0  0  0  0  0  0
   37.5110   29.4410   42.7210 N   0  0  0  0  0  0  0  0  0  0  0  0
   37.8031   35.7768   39.8799 H   0  0  0  0  0  0  0  0  0  0  0  0
   39.5939   37.4611   40.2769 H   0  0  0  0  0  0  0  0  0  0  0  0
   42.5245   34.4660   40.6885 H   0  0  0  0  0  0  0  0  0  0  0  0
   38.6416   28.2595   44.0423 H   0  0  0  0  0  0  0  0  0  0  0  0
   38.1146   26.0998   42.8312 H   0  0  0  0  0  0  0  0  0  0  0  0
   36.6133   26.2399   40.7605 H   0  0  0  0  0  0  0  0  0  0  0  0
  1  5  1  0
  1 12  1  0
  2  1  2  0
  3  2  1  0
  3  4  1  0
  4  6  1  0
  4  5  2  0
  6 11  1  0
  7  6  2  0
  7  8  1  0
  8  9  2  0
  9 10  1  0
 11 10  2  0
 12 17  1  0
 14 13  2  0
 15 14  1  0
 16 15  2  0
 16 17  1  0
 17 18  2  0
 18 13  1  0
  7 19  1  0
  8 20  1  0
 10 21  1  0
 13 22  1  0
 14 23  1  0
 15 24  1  0
M  ISO  6  19  14  20  14  21  14  22  14  23  14  24  14
M  END
>  <minimizedAffinity>  (1) 
-5.07849646

>  <minimizedRMSD>  (1) 
1.56016266

$$$$
