
     RDKit          3D

 22 24  0  0  0  0  0  0  0  0999 V2000
   37.0040   31.5060   40.5010 C   0  0  0  0  0  0  0  0  0  0  0  0
   36.8980   31.6350   39.1610 N   0  0  0  0  0  0  0  0  0  0  0  0
   37.7230   32.5760   38.7610 O   0  0  0  0  0  0  0  0  0  0  0  0
   38.3450   33.0410   39.8060 C   0  0  0  0  0  0  0  0  0  0  0  0
   37.9180   32.3960   40.8950 N   0  0  0  0  0  0  0  0  0  0  0  0
   39.3640   34.1160   39.7860 C   0  0  0  0  0  0  0  0  0  0  0  0
   38.9690   35.4450   40.2270 C   0  0  0  0  0  0  0  0  0  0  0  0
   40.4700   36.4060   40.0410 S   0  0  0  0  0  0  0  0  0  0  0  0
   41.4270   34.8940   39.3960 C   0  0  0  0  0  0  0  0  0  0  0  0
   40.6310   34.0810   39.4190 N   0  0  0  0  0  0  0  0  0  0  0  0
   36.3400   30.6490   41.3750 O   0  0  0  0  0  0  0  0  0  0  0  0
   38.6310   28.4950   43.1890 C   0  0  0  0  0  0  0  0  0  0  0  0
   38.0600   27.2450   42.8980 C   0  0  0  0  0  0  0  0  0  0  0  0
   36.9050   27.2500   42.0820 C   0  0  0  0  0  0  0  0  0  0  0  0
   36.4340   28.4490   41.6420 N   0  0  0  0  0  0  0  0  0  0  0  0
   37.0200   29.6030   41.9510 C   0  0  0  0  0  0  0  0  0  0  0  0
   38.1240   29.6430   42.7280 N   0  0  0  0  0  0  0  0  0  0  0  0
   37.9852   35.7795   40.5879 H   0  0  0  0  0  0  0  0  0  0  0  0
   42.4788   34.8236   39.0817 H   0  0  0  0  0  0  0  0  0  0  0  0
   39.5306   28.5307   43.8210 H   0  0  0  0  0  0  0  0  0  0  0  0
   38.4896   26.3094   43.2853 H   0  0  0  0  0  0  0  0  0  0  0  0
   36.4010   26.3108   41.8103 H   0  0  0  0  0  0  0  0  0  0  0  0
  1  5  1  0
  1 11  1  0
  2  1  2  0
  3  2  1  0
  3  4  1  0
  4  5  2  0
  6  4  1  0
  6  7  2  0
  8  7  1  0
  9 10  2  0
  9  8  1  0
 10  6  1  0
 11 16  1  0
 13 12  2  0
 14 13  1  0
 15 16  1  0
 15 14  2  0
 16 17  2  0
 17 12  1  0
  7 18  1  0
  9 19  1  0
 12 20  1  0
 13 21  1  0
 14 22  1  0
M  ISO  5  18  14  19  14  20  14  21  14  22  14
M  END
>  <minimizedAffinity>  (1) 
-4.95214462

>  <minimizedRMSD>  (1) 
1.31336784

$$$$
