
     RDKit          3D

 19 20  0  0  0  0  0  0  0  0999 V2000
   38.6910   28.6770   43.1550 C   0  0  0  0  0  0  0  0  0  0  0  0
   38.2710   27.3570   43.4700 C   0  0  0  0  0  0  0  0  0  0  0  0
   37.0620   26.9330   42.8950 C   0  0  0  0  0  0  0  0  0  0  0  0
   36.3670   27.7860   42.0840 N   0  0  0  0  0  0  0  0  0  0  0  0
   36.8230   29.0230   41.8290 C   0  0  0  0  0  0  0  0  0  0  0  0
   37.9810   29.4760   42.3570 N   0  0  0  0  0  0  0  0  0  0  0  0
   35.9360   29.6650   40.9890 O   0  0  0  0  0  0  0  0  0  0  0  0
   36.4170   30.6670   40.1450 C   0  0  0  0  0  0  0  0  0  0  0  0
   36.6300   30.6420   38.7900 N   0  0  0  0  0  0  0  0  0  0  0  0
   37.0960   31.8140   38.4110 O   0  0  0  0  0  0  0  0  0  0  0  0
   37.1720   32.5550   39.5030 C   0  0  0  0  0  0  0  0  0  0  0  0
   36.7690   31.9000   40.5920 N   0  0  0  0  0  0  0  0  0  0  0  0
   37.6390   33.9800   39.6480 C   0  0  0  0  0  0  0  0  0  0  0  0
   39.6322   29.0524   43.5830 H   0  0  0  0  0  0  0  0  0  0  0  0
   38.8608   26.7025   44.1286 H   0  0  0  0  0  0  0  0  0  0  0  0
   36.6773   25.9222   43.0957 H   0  0  0  0  0  0  0  0  0  0  0  0
   37.7216   34.2320   40.7156 H   0  0  0  0  0  0  0  0  0  0  0  0
   38.6217   34.0945   39.1672 H   0  0  0  0  0  0  0  0  0  0  0  0
   36.9147   34.6539   39.1672 H   0  0  0  0  0  0  0  0  0  0  0  0
  1  2  2  0
  3  2  1  0
  4  3  2  0
  5  4  1  0
  5  6  2  0
  6  1  1  0
  7  5  1  0
  8 12  1  0
  8  7  1  0
  9  8  2  0
 10  9  1  0
 10 11  1  0
 11 13  1  0
 11 12  2  0
  1 14  1  0
  2 15  1  0
  3 16  1  0
 13 17  1  0
 13 18  1  0
 13 19  1  0
M  ISO  6  14  14  15  14  16  14  17   8  18   8  19   8
M  END
>  <minimizedAffinity>  (1) 
-3.98976159

>  <minimizedRMSD>  (1) 
0.451401234

$$$$
