
     RDKit          3D

 36 39  0  0  0  0  0  0  0  0999 V2000
   38.5970   28.3820   43.4560 C   0  0  0  0  0  0  0  0  0  0  0  0
   38.4700   27.0910   42.9110 C   0  0  0  0  0  0  0  0  0  0  0  0
   37.5880   26.8830   41.8100 C   0  0  0  0  0  0  0  0  0  0  0  0
   36.9260   27.9810   41.3700 N   0  0  0  0  0  0  0  0  0  0  0  0
   37.0640   29.1860   41.9030 C   0  0  0  0  0  0  0  0  0  0  0  0
   37.8930   29.3820   42.9370 N   0  0  0  0  0  0  0  0  0  0  0  0
   37.4440   25.5840   41.2400 N   0  0  0  0  0  0  0  0  0  0  0  0
   36.7000   25.3830   40.1640 C   0  0  0  0  0  0  0  0  0  0  0  0
   36.5990   24.0830   39.6540 C   0  0  0  0  0  0  0  0  0  0  0  0
   35.7970   23.7480   38.4600 C   0  0  0  0  0  0  0  0  0  0  0  0
   37.2880   23.0900   40.3130 C   0  0  0  0  0  0  0  0  0  0  0  0
   37.2110   21.9110   39.8690 O   0  0  0  0  0  0  0  0  0  0  0  0
   38.0450   23.3110   41.4120 N   0  0  0  0  0  0  0  0  0  0  0  0
   38.1010   24.5790   41.8540 C   0  0  0  0  0  0  0  0  0  0  0  0
   38.8170   24.7890   42.8920 O   0  0  0  0  0  0  0  0  0  0  0  0
   36.2680   30.1170   41.2560 O   0  0  0  0  0  0  0  0  0  0  0  0
   36.8570   31.0630   40.4260 C   0  0  0  0  0  0  0  0  0  0  0  0
   36.7280   31.2890   39.0900 N   0  0  0  0  0  0  0  0  0  0  0  0
   37.4910   32.3060   38.7520 O   0  0  0  0  0  0  0  0  0  0  0  0
   38.0950   32.7230   39.8430 C   0  0  0  0  0  0  0  0  0  0  0  0
   37.7310   31.9830   40.8980 N   0  0  0  0  0  0  0  0  0  0  0  0
   39.0290   33.8430   39.8650 C   0  0  0  0  0  0  0  0  0  0  0  0
   38.7420   35.1350   40.3330 C   0  0  0  0  0  0  0  0  0  0  0  0
   39.8610   35.9230   40.1990 C   0  0  0  0  0  0  0  0  0  0  0  0
   40.8070   35.0570   39.6410 C   0  0  0  0  0  0  0  0  0  0  0  0
   40.2670   33.8820   39.4750 O   0  0  0  0  0  0  0  0  0  0  0  0
   39.2734   28.5618   44.3046 H   0  0  0  0  0  0  0  0  0  0  0  0
   39.0446   26.2516   43.3296 H   0  0  0  0  0  0  0  0  0  0  0  0
   36.1726   26.2189   39.6811 H   0  0  0  0  0  0  0  0  0  0  0  0
   34.8242   23.3417   38.7739 H   0  0  0  0  0  0  0  0  0  0  0  0
   35.6385   24.6552   37.8584 H   0  0  0  0  0  0  0  0  0  0  0  0
   36.3309   22.9977   37.8584 H   0  0  0  0  0  0  0  0  0  0  0  0
   38.5512   22.5486   41.8846 H   0  0  0  0  0  0  0  0  0  0  0  0
   37.7755   35.4647   40.7419 H   0  0  0  0  0  0  0  0  0  0  0  0
   39.9831   36.9828   40.4670 H   0  0  0  0  0  0  0  0  0  0  0  0
   41.8423   35.3248   39.3831 H   0  0  0  0  0  0  0  0  0  0  0  0
  2  1  2  0
  3  2  1  0
  4  3  2  0
  4  5  1  0
  5  6  2  0
  6  1  1  0
  7  3  1  0
  7 14  1  0
  8  7  1  0
  9  8  2  0
  9 11  1  0
 10  9  1  0
 11 13  1  0
 12 11  2  0
 13 14  1  0
 14 15  2  0
 16  5  1  0
 17 21  1  0
 17 16  1  0
 18 17  2  0
 19 18  1  0
 19 20  1  0
 20 22  1  0
 20 21  2  0
 22 23  2  0
 24 23  1  0
 25 24  2  0
 26 25  1  0
 26 22  1  0
  1 27  1  0
  2 28  1  0
  8 29  1  0
 10 30  1  0
 10 31  1  0
 10 32  1  0
 13 33  1  0
 23 34  1  0
 24 35  1  0
 25 36  1  0
M  ISO  8  27  14  28  14  29  14  30   8  31   8  32   8  33   9  34  14
M  ISO  2  35  14  36  14
M  END
>  <minimizedAffinity>  (1) 
-6.82974863

>  <minimizedRMSD>  (1) 
1.24582386

$$$$
