
     RDKit          3D

 32 35  0  0  0  0  0  0  0  0999 V2000
   38.4980   28.3600   43.2460 C   0  0  0  0  0  0  0  0  0  0  0  0
   38.1710   27.1540   42.5800 C   0  0  0  0  0  0  0  0  0  0  0  0
   37.2350   27.2200   41.5330 C   0  0  0  0  0  0  0  0  0  0  0  0
   36.7070   28.4290   41.2310 N   0  0  0  0  0  0  0  0  0  0  0  0
   37.0400   29.5460   41.8830 C   0  0  0  0  0  0  0  0  0  0  0  0
   37.9330   29.5200   42.8900 N   0  0  0  0  0  0  0  0  0  0  0  0
   36.8880   25.9900   40.8370 C   0  0  0  0  0  0  0  0  0  0  0  0
   36.9970   24.7870   41.5040 C   0  0  0  0  0  0  0  0  0  0  0  0
   36.6390   23.6920   40.7390 C   0  0  0  0  0  0  0  0  0  0  0  0
   36.2110   23.7690   39.4290 C   0  0  0  0  0  0  0  0  0  0  0  0
   36.1260   25.0270   38.8220 C   0  0  0  0  0  0  0  0  0  0  0  0
   36.4760   26.1180   39.5630 N   0  0  0  0  0  0  0  0  0  0  0  0
   36.3740   30.6360   41.3950 O   0  0  0  0  0  0  0  0  0  0  0  0
   36.9980   31.5030   40.5080 C   0  0  0  0  0  0  0  0  0  0  0  0
   36.8760   31.6540   39.1600 N   0  0  0  0  0  0  0  0  0  0  0  0
   37.6800   32.6140   38.7720 O   0  0  0  0  0  0  0  0  0  0  0  0
   38.3020   33.0670   39.8440 C   0  0  0  0  0  0  0  0  0  0  0  0
   37.9040   32.4040   40.9340 N   0  0  0  0  0  0  0  0  0  0  0  0
   39.2830   34.1460   39.8070 C   0  0  0  0  0  0  0  0  0  0  0  0
   39.0730   35.4570   40.2060 C   0  0  0  0  0  0  0  0  0  0  0  0
   40.2290   36.1890   40.0270 C   0  0  0  0  0  0  0  0  0  0  0  0
   41.1280   35.2560   39.5060 C   0  0  0  0  0  0  0  0  0  0  0  0
   40.5210   34.1150   39.4090 O   0  0  0  0  0  0  0  0  0  0  0  0
   39.2278   28.3433   44.0689 H   0  0  0  0  0  0  0  0  0  0  0  0
   38.6330   26.1992   42.8715 H   0  0  0  0  0  0  0  0  0  0  0  0
   37.3370   24.7065   42.5470 H   0  0  0  0  0  0  0  0  0  0  0  0
   36.6991   22.6968   41.2038 H   0  0  0  0  0  0  0  0  0  0  0  0
   35.9419   22.8589   38.8728 H   0  0  0  0  0  0  0  0  0  0  0  0
   35.7878   25.1330   37.7807 H   0  0  0  0  0  0  0  0  0  0  0  0
   38.1278   35.8537   40.6050 H   0  0  0  0  0  0  0  0  0  0  0  0
   40.4013   37.2537   40.2432 H   0  0  0  0  0  0  0  0  0  0  0  0
   42.1729   35.4554   39.2258 H   0  0  0  0  0  0  0  0  0  0  0  0
  2  1  2  0
  3  2  1  0
  4  3  2  0
  4  5  1  0
  5  6  2  0
  6  1  1  0
  7  8  2  0
  7  3  1  0
  9  8  1  0
 10  9  2  0
 11 10  1  0
 11 12  2  0
 12  7  1  0
 13  5  1  0
 14 18  1  0
 14 13  1  0
 15 14  2  0
 16 15  1  0
 16 17  1  0
 17 18  2  0
 19 17  1  0
 19 20  2  0
 21 20  1  0
 22 21  2  0
 23 22  1  0
 23 19  1  0
  1 24  1  0
  2 25  1  0
  8 26  1  0
  9 27  1  0
 10 28  1  0
 11 29  1  0
 20 30  1  0
 21 31  1  0
 22 32  1  0
M  ISO  8  24  14  25  14  26  14  27  14  28  14  29  14  30  14  31  14
M  ISO  1  32  14
M  END
>  <minimizedAffinity>  (1) 
-6.11810112

>  <minimizedRMSD>  (1) 
1.17475355

$$$$
