
     RDKit          3D

 37 40  0  0  0  0  0  0  0  0999 V2000
   38.4800   28.3760   43.2850 C   0  0  0  0  0  0  0  0  0  0  0  0
   38.1970   27.1510   42.6530 C   0  0  0  0  0  0  0  0  0  0  0  0
   37.2650   27.1700   41.5740 C   0  0  0  0  0  0  0  0  0  0  0  0
   36.7260   28.3690   41.2480 N   0  0  0  0  0  0  0  0  0  0  0  0
   37.0220   29.5000   41.8750 C   0  0  0  0  0  0  0  0  0  0  0  0
   37.8960   29.5000   42.8880 N   0  0  0  0  0  0  0  0  0  0  0  0
   36.9230   25.9560   40.8760 N   0  0  0  0  0  0  0  0  0  0  0  0
   36.5460   26.0030   39.4760 C   0  0  0  0  0  0  0  0  0  0  0  0
   37.4260   25.0500   38.7210 C   0  0  0  0  0  0  0  0  0  0  0  0
   37.8660   23.9640   39.5500 N   0  0  0  0  0  0  0  0  0  0  0  0
   36.9150   23.5960   40.5830 C   0  0  0  0  0  0  0  0  0  0  0  0
   36.9730   24.7320   41.6090 C   0  0  0  0  0  0  0  0  0  0  0  0
   36.3420   30.5720   41.3520 O   0  0  0  0  0  0  0  0  0  0  0  0
   36.9690   31.4450   40.4890 C   0  0  0  0  0  0  0  0  0  0  0  0
   36.8510   31.6040   39.1410 N   0  0  0  0  0  0  0  0  0  0  0  0
   37.6600   32.5740   38.7610 O   0  0  0  0  0  0  0  0  0  0  0  0
   38.2760   33.0180   39.8380 C   0  0  0  0  0  0  0  0  0  0  0  0
   37.8710   32.3420   40.9170 N   0  0  0  0  0  0  0  0  0  0  0  0
   39.2560   34.0970   39.8150 C   0  0  0  0  0  0  0  0  0  0  0  0
   39.0310   35.4130   40.2200 C   0  0  0  0  0  0  0  0  0  0  0  0
   40.1970   36.1330   40.0480 C   0  0  0  0  0  0  0  0  0  0  0  0
   41.1010   35.2090   39.5370 C   0  0  0  0  0  0  0  0  0  0  0  0
   40.4930   34.0770   39.4330 O   0  0  0  0  0  0  0  0  0  0  0  0
   39.1955   28.4025   44.1201 H   0  0  0  0  0  0  0  0  0  0  0  0
   38.6758   26.2157   42.9785 H   0  0  0  0  0  0  0  0  0  0  0  0
   35.4929   25.7058   39.3638 H   0  0  0  0  0  0  0  0  0  0  0  0
   36.6670   27.0236   39.0840 H   0  0  0  0  0  0  0  0  0  0  0  0
   36.8619   24.6424   37.8691 H   0  0  0  0  0  0  0  0  0  0  0  0
   38.3139   25.6013   38.3780 H   0  0  0  0  0  0  0  0  0  0  0  0
   38.0289   23.1425   38.9504 H   0  0  0  0  0  0  0  0  0  0  0  0
   35.9027   23.5089   40.1614 H   0  0  0  0  0  0  0  0  0  0  0  0
   37.1565   22.6226   41.0348 H   0  0  0  0  0  0  0  0  0  0  0  0
   37.9083   24.6740   42.1850 H   0  0  0  0  0  0  0  0  0  0  0  0
   36.1358   24.6640   42.3193 H   0  0  0  0  0  0  0  0  0  0  0  0
   38.0830   35.8108   40.6111 H   0  0  0  0  0  0  0  0  0  0  0  0
   40.3709   37.1970   40.2661 H   0  0  0  0  0  0  0  0  0  0  0  0
   42.1491   35.4083   39.2690 H   0  0  0  0  0  0  0  0  0  0  0  0
  2  1  2  0
  3  2  1  0
  4  3  2  0
  4  5  1  0
  5  6  2  0
  6  1  1  0
  7  3  1  0
  7 12  1  0
  8  7  1  0
  9  8  1  0
  9 10  1  0
 10 11  1  0
 11 12  1  0
 13  5  1  0
 14 18  1  0
 14 13  1  0
 15 14  2  0
 16 15  1  0
 16 17  1  0
 17 18  2  0
 19 17  1  0
 19 20  2  0
 21 20  1  0
 22 21  2  0
 23 22  1  0
 23 19  1  0
  1 24  1  0
  2 25  1  0
  8 26  1  0
  8 27  1  0
  9 28  1  0
  9 29  1  0
 10 30  1  0
 11 31  1  0
 11 32  1  0
 12 33  1  0
 12 34  1  0
 20 35  1  0
 21 36  1  0
 22 37  1  0
M  ISO  8  24  14  25  14  26  13  27  13  28  13  29  13  30   5  31  13
M  ISO  6  32  13  33  13  34  13  35  14  36  14  37  14
M  END
>  <minimizedAffinity>  (1) 
-6.09016848

>  <minimizedRMSD>  (1) 
0.805359304

$$$$
