
     RDKit          3D

 45 49  0  0  0  0  0  0  0  0999 V2000
   37.5810   28.6160   43.9060 C   0  0  0  0  0  0  0  0  0  0  0  0
   37.1680   27.2830   43.8700 C   0  0  0  0  0  0  0  0  0  0  0  0
   36.8240   26.7290   42.6360 C   0  0  0  0  0  0  0  0  0  0  0  0
   36.9130   27.5250   41.5330 N   0  0  0  0  0  0  0  0  0  0  0  0
   37.3170   28.8150   41.6000 C   0  0  0  0  0  0  0  0  0  0  0  0
   37.6500   29.3620   42.7790 N   0  0  0  0  0  0  0  0  0  0  0  0
   37.3700   29.5450   40.3750 N   0  0  0  0  0  0  0  0  0  0  0  0
   37.0540   28.9870   39.1880 C   0  0  0  0  0  0  0  0  0  0  0  0
   37.1630   29.8330   38.1190 C   0  0  0  0  0  0  0  0  0  0  0  0
   37.5550   31.1440   38.1840 C   0  0  0  0  0  0  0  0  0  0  0  0
   37.6490   31.9030   37.1940 O   0  0  0  0  0  0  0  0  0  0  0  0
   37.8610   31.6520   39.3980 N   0  0  0  0  0  0  0  0  0  0  0  0
   37.7680   30.8460   40.5080 C   0  0  0  0  0  0  0  0  0  0  0  0
   38.0630   31.3630   41.6150 O   0  0  0  0  0  0  0  0  0  0  0  0
   38.2840   33.0170   39.5800 C   0  0  0  0  0  0  0  0  0  0  0  0
   37.6400   34.2220   39.7260 C   0  0  0  0  0  0  0  0  0  0  0  0
   38.5780   35.1930   39.8660 N   0  0  0  0  0  0  0  0  0  0  0  0
   39.8070   34.6230   39.8100 C   0  0  0  0  0  0  0  0  0  0  0  0
   41.0630   35.1910   39.9010 C   0  0  0  0  0  0  0  0  0  0  0  0
   42.2170   34.4380   39.8210 C   0  0  0  0  0  0  0  0  0  0  0  0
   42.0700   33.0780   39.6440 C   0  0  0  0  0  0  0  0  0  0  0  0
   40.8180   32.5290   39.5550 C   0  0  0  0  0  0  0  0  0  0  0  0
   39.6490   33.2690   39.6330 C   0  0  0  0  0  0  0  0  0  0  0  0
   36.8440   29.3320   36.7770 C   0  0  0  0  0  0  0  0  0  0  0  0
   35.4370   29.2410   36.4380 C   0  0  0  0  0  0  0  0  0  0  0  0
   34.9400   29.2740   35.1290 C   0  0  0  0  0  0  0  0  0  0  0  0
   33.5560   29.1760   35.0250 C   0  0  0  0  0  0  0  0  0  0  0  0
   32.7390   29.0570   36.0670 N   0  0  0  0  0  0  0  0  0  0  0  0
   33.2410   29.0270   37.3160 C   0  0  0  0  0  0  0  0  0  0  0  0
   34.5720   29.1180   37.4880 N   0  0  0  0  0  0  0  0  0  0  0  0
   37.8559   29.0692   44.8699 H   0  0  0  0  0  0  0  0  0  0  0  0
   37.1150   26.6842   44.7912 H   0  0  0  0  0  0  0  0  0  0  0  0
   36.4917   25.6834   42.5561 H   0  0  0  0  0  0  0  0  0  0  0  0
   36.7352   27.9389   39.0883 H   0  0  0  0  0  0  0  0  0  0  0  0
   36.5505   34.3738   39.7289 H   0  0  0  0  0  0  0  0  0  0  0  0
   38.3876   36.1972   39.9937 H   0  0  0  0  0  0  0  0  0  0  0  0
   41.1461   36.2788   40.0418 H   0  0  0  0  0  0  0  0  0  0  0  0
   43.2113   34.9026   39.8952 H   0  0  0  0  0  0  0  0  0  0  0  0
   42.9588   32.4337   39.5742 H   0  0  0  0  0  0  0  0  0  0  0  0
   40.7362   31.4412   39.4139 H   0  0  0  0  0  0  0  0  0  0  0  0
   37.3208   30.0033   36.0476 H   0  0  0  0  0  0  0  0  0  0  0  0
   37.2160   28.2970   36.7566 H   0  0  0  0  0  0  0  0  0  0  0  0
   35.5942   29.3701   34.2499 H   0  0  0  0  0  0  0  0  0  0  0  0
   33.1107   29.1983   34.0194 H   0  0  0  0  0  0  0  0  0  0  0  0
   32.5720   28.9294   38.1837 H   0  0  0  0  0  0  0  0  0  0  0  0
  2  1  2  0
  3  2  1  0
  4  5  1  0
  4  3  2  0
  5  6  2  0
  6  1  1  0
  7 13  1  0
  7  5  1  0
  8  7  1  0
  9 10  1  0
  9  8  2  0
 10 12  1  0
 11 10  2  0
 12 15  1  0
 12 13  1  0
 13 14  2  0
 15 23  1  0
 15 16  2  0
 16 17  1  0
 18 17  1  0
 18 19  2  0
 20 19  1  0
 21 20  2  0
 22 23  2  0
 22 21  1  0
 23 18  1  0
 24  9  1  0
 25 24  1  0
 25 30  1  0
 26 25  2  0
 27 26  1  0
 27 28  2  0
 28 29  1  0
 29 30  2  0
  1 31  1  0
  2 32  1  0
  3 33  1  0
  8 34  1  0
 16 35  1  0
 17 36  1  0
 19 37  1  0
 20 38  1  0
 21 39  1  0
 22 40  1  0
 24 41  1  0
 24 42  1  0
 26 43  1  0
 27 44  1  0
 29 45  1  0
M  ISO  8  31  14  32  14  33  14  34  14  35  14  36   9  37  14  38  14
M  ISO  7  39  14  40  14  41   8  42   8  43  14  44  14  45  14
M  END
>  <minimizedAffinity>  (1) 
-6.84032965

>  <minimizedRMSD>  (1) 
1.9515779

$$$$
