
     RDKit          3D

 28 31  0  0  0  0  0  0  0  0999 V2000
   38.4190   31.4130   38.1420 O   0  0  0  0  0  0  0  0  0  0  0  0
   41.8930   32.3380   37.6030 C   0  0  0  0  0  0  0  0  0  0  0  0
   41.9410   33.4760   38.4380 C   0  0  0  0  0  0  0  0  0  0  0  0
   40.7730   33.8470   39.1290 C   0  0  0  0  0  0  0  0  0  0  0  0
   39.6610   33.0900   38.9560 N   0  0  0  0  0  0  0  0  0  0  0  0
   39.6540   32.0180   38.1560 C   0  0  0  0  0  0  0  0  0  0  0  0
   40.7600   31.6440   37.4850 N   0  0  0  0  0  0  0  0  0  0  0  0
   40.8190   35.0230   39.9930 C   0  0  0  0  0  0  0  0  0  0  0  0
   39.9450   36.0210   39.9840 N   0  0  0  0  0  0  0  0  0  0  0  0
   40.2700   36.9270   40.8840 O   0  0  0  0  0  0  0  0  0  0  0  0
   41.3770   36.5140   41.4940 C   0  0  0  0  0  0  0  0  0  0  0  0
   41.7310   35.3160   40.9420 N   0  0  0  0  0  0  0  0  0  0  0  0
   37.7580   31.1430   39.3260 C   0  0  0  0  0  0  0  0  0  0  0  0
   36.7860   31.8400   39.9750 N   0  0  0  0  0  0  0  0  0  0  0  0
   36.4640   31.1970   41.0660 O   0  0  0  0  0  0  0  0  0  0  0  0
   37.2120   30.1090   41.1210 C   0  0  0  0  0  0  0  0  0  0  0  0
   38.0170   30.0550   40.0580 N   0  0  0  0  0  0  0  0  0  0  0  0
   37.1320   29.1400   42.2020 C   0  0  0  0  0  0  0  0  0  0  0  0
   36.4490   27.9230   42.1510 C   0  0  0  0  0  0  0  0  0  0  0  0
   36.6060   27.2830   43.3710 C   0  0  0  0  0  0  0  0  0  0  0  0
   37.3860   28.1520   44.1170 C   0  0  0  0  0  0  0  0  0  0  0  0
   37.6480   29.1850   43.3910 O   0  0  0  0  0  0  0  0  0  0  0  0
   42.7903   32.0238   37.0497 H   0  0  0  0  0  0  0  0  0  0  0  0
   42.8684   34.0577   38.5454 H   0  0  0  0  0  0  0  0  0  0  0  0
   41.9111   37.0418   42.2979 H   0  0  0  0  0  0  0  0  0  0  0  0
   35.8831   27.5378   41.2900 H   0  0  0  0  0  0  0  0  0  0  0  0
   36.2027   26.3065   43.6773 H   0  0  0  0  0  0  0  0  0  0  0  0
   37.7237   27.9887   45.1511 H   0  0  0  0  0  0  0  0  0  0  0  0
  1  6  1  0
  1 13  1  0
  2  3  2  0
  3  4  1  0
  4  8  1  0
  5  4  2  0
  6  5  1  0
  7  2  1  0
  7  6  2  0
  8 12  1  0
  9  8  2  0
  9 10  1  0
 10 11  1  0
 12 11  2  0
 13 14  2  0
 13 17  1  0
 14 15  1  0
 15 16  1  0
 16 18  1  0
 17 16  2  0
 18 22  1  0
 19 18  2  0
 19 20  1  0
 20 21  2  0
 22 21  1  0
  2 23  1  0
  3 24  1  0
 11 25  1  0
 19 26  1  0
 20 27  1  0
 21 28  1  0
M  ISO  6  23  14  24  14  25  14  26  14  27  14  28  14
M  END
>  <minimizedAffinity>  (1) 
-5.79861975

>  <minimizedRMSD>  (1) 
8.11640739

$$$$
