
     RDKit          3D

 47 51  0  0  0  0  0  0  0  0999 V2000
   37.5550   28.6230   43.8600 C   0  0  0  0  0  0  0  0  0  0  0  0
   37.1520   27.2860   43.8140 C   0  0  0  0  0  0  0  0  0  0  0  0
   36.8350   26.7440   42.5630 C   0  0  0  0  0  0  0  0  0  0  0  0
   36.9360   27.5400   41.4680 N   0  0  0  0  0  0  0  0  0  0  0  0
   37.3260   28.8210   41.5410 C   0  0  0  0  0  0  0  0  0  0  0  0
   37.6390   29.3750   42.7330 N   0  0  0  0  0  0  0  0  0  0  0  0
   37.3980   29.5650   40.3330 N   0  0  0  0  0  0  0  0  0  0  0  0
   37.0970   29.0300   39.1520 C   0  0  0  0  0  0  0  0  0  0  0  0
   37.2140   29.8750   38.0760 C   0  0  0  0  0  0  0  0  0  0  0  0
   37.6100   31.1890   38.1480 C   0  0  0  0  0  0  0  0  0  0  0  0
   37.7140   31.9560   37.1560 O   0  0  0  0  0  0  0  0  0  0  0  0
   37.9040   31.6840   39.3760 N   0  0  0  0  0  0  0  0  0  0  0  0
   37.7950   30.8610   40.4660 C   0  0  0  0  0  0  0  0  0  0  0  0
   38.0840   31.3760   41.5950 O   0  0  0  0  0  0  0  0  0  0  0  0
   38.3300   33.0490   39.5750 C   0  0  0  0  0  0  0  0  0  0  0  0
   37.6700   34.2530   39.7310 C   0  0  0  0  0  0  0  0  0  0  0  0
   38.6030   35.2240   39.8850 N   0  0  0  0  0  0  0  0  0  0  0  0
   39.8410   34.6580   39.8310 C   0  0  0  0  0  0  0  0  0  0  0  0
   41.0790   35.2330   39.9370 C   0  0  0  0  0  0  0  0  0  0  0  0
   42.2370   34.4800   39.8540 C   0  0  0  0  0  0  0  0  0  0  0  0
   42.1050   33.1210   39.6620 C   0  0  0  0  0  0  0  0  0  0  0  0
   40.8560   32.5720   39.5600 C   0  0  0  0  0  0  0  0  0  0  0  0
   39.6850   33.3080   39.6390 C   0  0  0  0  0  0  0  0  0  0  0  0
   36.9130   29.4150   36.7070 C   0  0  0  0  0  0  0  0  0  0  0  0
   35.7250   28.5260   36.6930 C   0  0  0  0  0  0  0  0  0  0  0  0
   35.7590   27.1690   36.4420 C   0  0  0  0  0  0  0  0  0  0  0  0
   34.5830   26.4150   36.4510 C   0  0  0  0  0  0  0  0  0  0  0  0
   33.3990   27.0870   36.7200 C   0  0  0  0  0  0  0  0  0  0  0  0
   33.3410   28.4560   36.9750 C   0  0  0  0  0  0  0  0  0  0  0  0
   34.5380   29.1690   36.9560 C   0  0  0  0  0  0  0  0  0  0  0  0
   37.8095   29.0757   44.8297 H   0  0  0  0  0  0  0  0  0  0  0  0
   37.0861   26.6800   44.7296 H   0  0  0  0  0  0  0  0  0  0  0  0
   36.5114   25.6969   42.4693 H   0  0  0  0  0  0  0  0  0  0  0  0
   36.7766   27.9831   39.0453 H   0  0  0  0  0  0  0  0  0  0  0  0
   36.5796   34.3978   39.7303 H   0  0  0  0  0  0  0  0  0  0  0  0
   38.4079   36.2262   40.0207 H   0  0  0  0  0  0  0  0  0  0  0  0
   41.1549   36.3194   40.0918 H   0  0  0  0  0  0  0  0  0  0  0  0
   43.2283   34.9493   39.9383 H   0  0  0  0  0  0  0  0  0  0  0  0
   42.9979   32.4825   39.5913 H   0  0  0  0  0  0  0  0  0  0  0  0
   40.7772   31.4856   39.4067 H   0  0  0  0  0  0  0  0  0  0  0  0
   36.7155   30.2892   36.0692 H   0  0  0  0  0  0  0  0  0  0  0  0
   37.7778   28.8496   36.3296 H   0  0  0  0  0  0  0  0  0  0  0  0
   36.7205   26.6771   36.2331 H   0  0  0  0  0  0  0  0  0  0  0  0
   34.5950   25.3330   36.2530 H   0  0  0  0  0  0  0  0  0  0  0  0
   32.4615   26.5117   36.7326 H   0  0  0  0  0  0  0  0  0  0  0  0
   32.3838   28.9561   37.1839 H   0  0  0  0  0  0  0  0  0  0  0  0
   34.5336   30.2513   37.1523 H   0  0  0  0  0  0  0  0  0  0  0  0
  2  1  2  0
  3  2  1  0
  4  5  1  0
  4  3  2  0
  5  6  2  0
  6  1  1  0
  7 13  1  0
  7  5  1  0
  8  7  1  0
  9 10  1  0
  9  8  2  0
 10 12  1  0
 11 10  2  0
 12 15  1  0
 12 13  1  0
 13 14  2  0
 15 23  1  0
 15 16  2  0
 16 17  1  0
 18 17  1  0
 18 19  2  0
 20 19  1  0
 21 20  2  0
 22 23  2  0
 22 21  1  0
 23 18  1  0
 24  9  1  0
 25 24  1  0
 25 30  2  0
 26 27  2  0
 26 25  1  0
 27 28  1  0
 28 29  2  0
 30 29  1  0
  1 31  1  0
  2 32  1  0
  3 33  1  0
  8 34  1  0
 16 35  1  0
 17 36  1  0
 19 37  1  0
 20 38  1  0
 21 39  1  0
 22 40  1  0
 24 41  1  0
 24 42  1  0
 26 43  1  0
 27 44  1  0
 28 45  1  0
 29 46  1  0
 30 47  1  0
M  ISO  8  31  14  32  14  33  14  34  14  35  14  36   9  37  14  38  14
M  ISO  8  39  14  40  14  41   8  42   8  43  14  44  14  45  14  46  14
M  ISO  1  47  14
M  END
>  <minimizedAffinity>  (1) 
-6.82424402

>  <minimizedRMSD>  (1) 
0.846499681

$$$$
