
     RDKit          3D

 43 46  0  0  0  0  0  0  0  0999 V2000
   39.1020   28.7150   43.1540 C   0  0  0  0  0  0  0  0  0  0  0  0
   38.5760   27.4040   43.0490 C   0  0  0  0  0  0  0  0  0  0  0  0
   37.3650   27.2580   42.3860 C   0  0  0  0  0  0  0  0  0  0  0  0
   36.7710   28.3610   41.8890 N   0  0  0  0  0  0  0  0  0  0  0  0
   37.2780   29.5750   41.9970 C   0  0  0  0  0  0  0  0  0  0  0  0
   38.4500   29.7600   42.6320 N   0  0  0  0  0  0  0  0  0  0  0  0
   36.8810   25.8800   42.3190 C   0  0  0  0  0  0  0  0  0  0  0  0
   37.9520   24.8670   42.0790 C   0  0  0  0  0  0  0  0  0  0  0  0
   37.4170   23.7130   41.4010 N   0  0  0  0  0  0  0  0  0  0  0  0
   36.2900   24.0660   40.5960 C   0  0  0  0  0  0  0  0  0  0  0  0
   36.7520   24.0750   39.1390 C   0  0  0  0  0  0  0  0  0  0  0  0
   37.0150   22.7160   38.7500 N   0  0  0  0  0  0  0  0  0  0  0  0
   37.8930   22.0450   39.6650 C   0  0  0  0  0  0  0  0  0  0  0  0
   38.4270   22.9340   40.7550 C   0  0  0  0  0  0  0  0  0  0  0  0
   36.4830   30.5180   41.4040 O   0  0  0  0  0  0  0  0  0  0  0  0
   37.0340   31.4570   40.5350 C   0  0  0  0  0  0  0  0  0  0  0  0
   36.8140   31.6720   39.2120 N   0  0  0  0  0  0  0  0  0  0  0  0
   37.5640   32.6740   38.8090 O   0  0  0  0  0  0  0  0  0  0  0  0
   38.2530   33.0870   39.8670 C   0  0  0  0  0  0  0  0  0  0  0  0
   37.9470   32.3580   40.9400 N   0  0  0  0  0  0  0  0  0  0  0  0
   39.2020   34.1930   39.8190 C   0  0  0  0  0  0  0  0  0  0  0  0
   38.9470   35.5070   40.1850 C   0  0  0  0  0  0  0  0  0  0  0  0
   40.0890   36.2410   39.9970 C   0  0  0  0  0  0  0  0  0  0  0  0
   41.0190   35.3360   39.5160 C   0  0  0  0  0  0  0  0  0  0  0  0
   40.4580   34.1620   39.4300 O   0  0  0  0  0  0  0  0  0  0  0  0
   40.0592   28.8759   43.6716 H   0  0  0  0  0  0  0  0  0  0  0  0
   39.1046   26.5383   43.4747 H   0  0  0  0  0  0  0  0  0  0  0  0
   36.3871   25.6409   43.2724 H   0  0  0  0  0  0  0  0  0  0  0  0
   36.1963   25.8264   41.4598 H   0  0  0  0  0  0  0  0  0  0  0  0
   38.7420   25.3162   41.4593 H   0  0  0  0  0  0  0  0  0  0  0  0
   38.3630   24.5494   43.0486 H   0  0  0  0  0  0  0  0  0  0  0  0
   35.4860   23.3275   40.7307 H   0  0  0  0  0  0  0  0  0  0  0  0
   35.9007   25.0532   40.8855 H   0  0  0  0  0  0  0  0  0  0  0  0
   35.9645   24.5009   38.4999 H   0  0  0  0  0  0  0  0  0  0  0  0
   37.6591   24.6874   39.0286 H   0  0  0  0  0  0  0  0  0  0  0  0
   36.1221   22.2040   38.7128 H   0  0  0  0  0  0  0  0  0  0  0  0
   37.3401   21.2168   40.1324 H   0  0  0  0  0  0  0  0  0  0  0  0
   38.7585   21.6967   39.0822 H   0  0  0  0  0  0  0  0  0  0  0  0
   38.9165   22.3024   41.5110 H   0  0  0  0  0  0  0  0  0  0  0  0
   39.1276   23.6390   40.2837 H   0  0  0  0  0  0  0  0  0  0  0  0
   37.9892   35.8944   40.5626 H   0  0  0  0  0  0  0  0  0  0  0  0
   40.2346   37.3147   40.1869 H   0  0  0  0  0  0  0  0  0  0  0  0
   42.0606   35.5688   39.2499 H   0  0  0  0  0  0  0  0  0  0  0  0
  2  1  2  0
  3  2  1  0
  4  5  1  0
  4  3  2  0
  5  6  2  0
  6  1  1  0
  7  3  1  0
  8  7  1  0
  9  8  1  0
 10  9  1  0
 11 10  1  0
 12 11  1  0
 12 13  1  0
 13 14  1  0
 14  9  1  0
 15  5  1  0
 16 20  1  0
 16 15  1  0
 17 16  2  0
 18 17  1  0
 18 19  1  0
 19 20  2  0
 21 19  1  0
 21 22  2  0
 23 22  1  0
 24 23  2  0
 25 24  1  0
 25 21  1  0
  1 26  1  0
  2 27  1  0
  7 28  1  0
  7 29  1  0
  8 30  1  0
  8 31  1  0
 10 32  1  0
 10 33  1  0
 11 34  1  0
 11 35  1  0
 12 36  1  0
 13 37  1  0
 13 38  1  0
 14 39  1  0
 14 40  1  0
 22 41  1  0
 23 42  1  0
 24 43  1  0
M  ISO  8  26  14  27  14  28   8  29   8  30   8  31   8  32  13  33  13
M  ISO  8  34  13  35  13  36   5  37  13  38  13  39  13  40  13  41  14
M  ISO  2  42  14  43  14
M  END
>  <minimizedAffinity>  (1) 
-5.8113184

>  <minimizedRMSD>  (1) 
0.72969228

$$$$
