
     RDKit          3D

 36 39  0  0  0  0  0  0  0  0999 V2000
   38.4070   28.3270   43.2590 C   0  0  0  0  0  0  0  0  0  0  0  0
   38.1400   27.1350   42.5570 C   0  0  0  0  0  0  0  0  0  0  0  0
   37.2570   27.2340   41.4790 C   0  0  0  0  0  0  0  0  0  0  0  0
   36.7230   28.4320   41.1760 N   0  0  0  0  0  0  0  0  0  0  0  0
   37.0030   29.5350   41.8670 C   0  0  0  0  0  0  0  0  0  0  0  0
   37.8450   29.4860   42.9100 N   0  0  0  0  0  0  0  0  0  0  0  0
   36.9970   25.9790   40.7680 C   0  0  0  0  0  0  0  0  0  0  0  0
   37.0200   24.7630   41.6310 C   0  0  0  0  0  0  0  0  0  0  0  0
   36.9780   23.5820   40.6960 C   0  0  0  0  0  0  0  0  0  0  0  0
   36.0540   23.2430   39.7380 C   0  0  0  0  0  0  0  0  0  0  0  0
   36.4980   22.0610   39.1710 C   0  0  0  0  0  0  0  0  0  0  0  0
   37.6490   21.6960   39.7610 N   0  0  0  0  0  0  0  0  0  0  0  0
   37.9230   22.6110   40.6690 N   0  0  0  0  0  0  0  0  0  0  0  0
   36.3430   30.6230   41.3740 O   0  0  0  0  0  0  0  0  0  0  0  0
   36.9880   31.5050   40.5100 C   0  0  0  0  0  0  0  0  0  0  0  0
   36.8680   31.6530   39.1540 N   0  0  0  0  0  0  0  0  0  0  0  0
   37.6780   32.6160   38.7720 O   0  0  0  0  0  0  0  0  0  0  0  0
   38.2910   33.0630   39.8580 C   0  0  0  0  0  0  0  0  0  0  0  0
   37.8890   32.4040   40.9270 N   0  0  0  0  0  0  0  0  0  0  0  0
   39.2720   34.1420   39.8190 C   0  0  0  0  0  0  0  0  0  0  0  0
   39.0820   35.4510   40.2120 C   0  0  0  0  0  0  0  0  0  0  0  0
   40.2290   36.1630   40.0270 C   0  0  0  0  0  0  0  0  0  0  0  0
   41.1270   35.2510   39.5100 C   0  0  0  0  0  0  0  0  0  0  0  0
   40.5150   34.1110   39.4150 O   0  0  0  0  0  0  0  0  0  0  0  0
   39.0959   28.3017   44.1162 H   0  0  0  0  0  0  0  0  0  0  0  0
   38.6018   26.1782   42.8423 H   0  0  0  0  0  0  0  0  0  0  0  0
   36.0043   26.0489   40.2993 H   0  0  0  0  0  0  0  0  0  0  0  0
   37.8103   25.8593   40.0371 H   0  0  0  0  0  0  0  0  0  0  0  0
   37.9404   24.7401   42.2329 H   0  0  0  0  0  0  0  0  0  0  0  0
   36.1702   24.7514   42.3293 H   0  0  0  0  0  0  0  0  0  0  0  0
   35.1428   23.7998   39.4740 H   0  0  0  0  0  0  0  0  0  0  0  0
   35.9902   21.5089   38.3665 H   0  0  0  0  0  0  0  0  0  0  0  0
   38.2103   20.8600   39.5446 H   0  0  0  0  0  0  0  0  0  0  0  0
   38.1435   35.8593   40.6150 H   0  0  0  0  0  0  0  0  0  0  0  0
   40.4011   37.2280   40.2419 H   0  0  0  0  0  0  0  0  0  0  0  0
   42.1712   35.4538   39.2297 H   0  0  0  0  0  0  0  0  0  0  0  0
  2  1  2  0
  3  2  1  0
  4  3  2  0
  4  5  1  0
  5  6  2  0
  6  1  1  0
  7  3  1  0
  7  8  1  0
  9  8  1  0
 10  9  1  0
 11 10  2  0
 11 12  1  0
 12 13  1  0
 13  9  2  0
 14  5  1  0
 15 19  1  0
 15 14  1  0
 16 15  2  0
 17 16  1  0
 17 18  1  0
 18 19  2  0
 20 18  1  0
 20 21  2  0
 22 21  1  0
 23 22  2  0
 24 23  1  0
 24 20  1  0
  1 25  1  0
  2 26  1  0
  7 27  1  0
  7 28  1  0
  8 29  1  0
  8 30  1  0
 10 31  1  0
 11 32  1  0
 12 33  1  0
 21 34  1  0
 22 35  1  0
 23 36  1  0
M  ISO  8  25  14  26  14  27   8  28   8  29   8  30   8  31  14  32  14
M  ISO  4  33   9  34  14  35  14  36  14
M  END
>  <minimizedAffinity>  (1) 
-5.77706051

>  <minimizedRMSD>  (1) 
0.351131588

$$$$
