
     RDKit          3D

 41 44  0  0  0  0  0  0  0  0999 V2000
   39.1180   28.7530   43.1490 C   0  0  0  0  0  0  0  0  0  0  0  0
   38.5910   27.4300   43.0780 C   0  0  0  0  0  0  0  0  0  0  0  0
   37.3720   27.3040   42.4260 C   0  0  0  0  0  0  0  0  0  0  0  0
   36.7730   28.3940   41.9140 N   0  0  0  0  0  0  0  0  0  0  0  0
   37.2890   29.6080   41.9970 C   0  0  0  0  0  0  0  0  0  0  0  0
   38.4660   29.7980   42.6160 N   0  0  0  0  0  0  0  0  0  0  0  0
   36.8770   25.9190   42.3840 C   0  0  0  0  0  0  0  0  0  0  0  0
   37.8490   24.9260   41.8500 C   0  0  0  0  0  0  0  0  0  0  0  0
   37.2140   23.7100   41.3660 N   0  0  0  0  0  0  0  0  0  0  0  0
   38.1780   22.8680   40.6740 C   0  0  0  0  0  0  0  0  0  0  0  0
   38.2010   23.3490   39.2500 C   0  0  0  0  0  0  0  0  0  0  0  0
   37.0740   24.3520   39.1600 C   0  0  0  0  0  0  0  0  0  0  0  0
   36.2240   23.9770   40.3540 C   0  0  0  0  0  0  0  0  0  0  0  0
   36.4850   30.5400   41.3970 O   0  0  0  0  0  0  0  0  0  0  0  0
   37.0440   31.4790   40.5290 C   0  0  0  0  0  0  0  0  0  0  0  0
   36.8290   31.6960   39.1920 N   0  0  0  0  0  0  0  0  0  0  0  0
   37.5870   32.6940   38.8060 O   0  0  0  0  0  0  0  0  0  0  0  0
   38.2620   33.1010   39.8580 C   0  0  0  0  0  0  0  0  0  0  0  0
   37.9570   32.3770   40.9430 N   0  0  0  0  0  0  0  0  0  0  0  0
   39.2160   34.2050   39.8130 C   0  0  0  0  0  0  0  0  0  0  0  0
   38.9700   35.5170   40.1840 C   0  0  0  0  0  0  0  0  0  0  0  0
   40.1090   36.2700   40.0020 C   0  0  0  0  0  0  0  0  0  0  0  0
   41.0360   35.3570   39.5100 C   0  0  0  0  0  0  0  0  0  0  0  0
   40.4570   34.1970   39.4280 O   0  0  0  0  0  0  0  0  0  0  0  0
   40.0815   28.9211   43.6524 H   0  0  0  0  0  0  0  0  0  0  0  0
   39.1159   26.5659   43.5114 H   0  0  0  0  0  0  0  0  0  0  0  0
   36.6095   25.6197   43.4081 H   0  0  0  0  0  0  0  0  0  0  0  0
   36.0203   25.9165   41.6941 H   0  0  0  0  0  0  0  0  0  0  0  0
   38.4004   25.3882   41.0179 H   0  0  0  0  0  0  0  0  0  0  0  0
   38.5154   24.6413   42.6775 H   0  0  0  0  0  0  0  0  0  0  0  0
   39.1738   22.9735   41.1292 H   0  0  0  0  0  0  0  0  0  0  0  0
   37.9022   21.8049   40.7359 H   0  0  0  0  0  0  0  0  0  0  0  0
   39.1642   23.8273   39.0186 H   0  0  0  0  0  0  0  0  0  0  0  0
   38.0796   22.5242   38.5324 H   0  0  0  0  0  0  0  0  0  0  0  0
   37.4486   25.3828   39.2439 H   0  0  0  0  0  0  0  0  0  0  0  0
   36.5317   24.3255   38.2033 H   0  0  0  0  0  0  0  0  0  0  0  0
   35.5656   24.8069   40.6503 H   0  0  0  0  0  0  0  0  0  0  0  0
   35.5491   23.1293   40.1645 H   0  0  0  0  0  0  0  0  0  0  0  0
   38.0116   35.8990   40.5656 H   0  0  0  0  0  0  0  0  0  0  0  0
   40.2521   37.3426   40.1996 H   0  0  0  0  0  0  0  0  0  0  0  0
   42.0784   35.5788   39.2376 H   0  0  0  0  0  0  0  0  0  0  0  0
  2  1  2  0
  3  2  1  0
  4  5  1  0
  4  3  2  0
  5  6  2  0
  6  1  1  0
  7  3  1  0
  8  7  1  0
  9  8  1  0
 10  9  1  0
 11 10  1  0
 12 11  1  0
 12 13  1  0
 13  9  1  0
 14  5  1  0
 15 19  1  0
 15 14  1  0
 16 15  2  0
 17 16  1  0
 17 18  1  0
 18 19  2  0
 20 18  1  0
 20 21  2  0
 22 21  1  0
 23 22  2  0
 24 23  1  0
 24 20  1  0
  1 25  1  0
  2 26  1  0
  7 27  1  0
  7 28  1  0
  8 29  1  0
  8 30  1  0
 10 31  1  0
 10 32  1  0
 11 33  1  0
 11 34  1  0
 12 35  1  0
 12 36  1  0
 13 37  1  0
 13 38  1  0
 21 39  1  0
 22 40  1  0
 23 41  1  0
M  ISO  8  25  14  26  14  27   8  28   8  29   8  30   8  31  13  32  13
M  ISO  8  33  13  34  13  35  13  36  13  37  13  38  13  39  14  40  14
M  ISO  1  41  14
M  END
>  <minimizedAffinity>  (1) 
-5.74606323

>  <minimizedRMSD>  (1) 
0.697679639

$$$$
