
     RDKit          3D

 36 39  0  0  0  0  0  0  0  0999 V2000
   38.2610   28.2130   43.1810 C   0  0  0  0  0  0  0  0  0  0  0  0
   37.9950   27.0660   42.3760 C   0  0  0  0  0  0  0  0  0  0  0  0
   37.1580   27.2450   41.2770 C   0  0  0  0  0  0  0  0  0  0  0  0
   36.6570   28.4820   41.0450 N   0  0  0  0  0  0  0  0  0  0  0  0
   36.9180   29.5330   41.8050 C   0  0  0  0  0  0  0  0  0  0  0  0
   37.7260   29.4070   42.8830 N   0  0  0  0  0  0  0  0  0  0  0  0
   36.9320   26.0290   40.5170 C   0  0  0  0  0  0  0  0  0  0  0  0
   36.9580   24.7760   41.3280 C   0  0  0  0  0  0  0  0  0  0  0  0
   37.0490   23.5560   40.5980 C   0  0  0  0  0  0  0  0  0  0  0  0
   38.0080   22.5500   40.5920 C   0  0  0  0  0  0  0  0  0  0  0  0
   37.8460   21.4620   39.7790 C   0  0  0  0  0  0  0  0  0  0  0  0
   36.6690   21.4170   38.9580 C   0  0  0  0  0  0  0  0  0  0  0  0
   35.7940   22.9710   39.3750 S   0  0  0  0  0  0  0  0  0  0  0  0
   36.2900   30.6570   41.3530 O   0  0  0  0  0  0  0  0  0  0  0  0
   36.9600   31.5180   40.4830 C   0  0  0  0  0  0  0  0  0  0  0  0
   36.8810   31.6510   39.1210 N   0  0  0  0  0  0  0  0  0  0  0  0
   37.7030   32.5980   38.7440 O   0  0  0  0  0  0  0  0  0  0  0  0
   38.2960   33.0610   39.8370 C   0  0  0  0  0  0  0  0  0  0  0  0
   37.8570   32.4150   40.9150 N   0  0  0  0  0  0  0  0  0  0  0  0
   39.2830   34.1290   39.8050 C   0  0  0  0  0  0  0  0  0  0  0  0
   39.0820   35.4490   40.2130 C   0  0  0  0  0  0  0  0  0  0  0  0
   40.2410   36.1560   40.0330 C   0  0  0  0  0  0  0  0  0  0  0  0
   41.1340   35.2410   39.5150 C   0  0  0  0  0  0  0  0  0  0  0  0
   40.5170   34.1010   39.4110 O   0  0  0  0  0  0  0  0  0  0  0  0
   38.9152   28.1173   44.0602 H   0  0  0  0  0  0  0  0  0  0  0  0
   38.4312   26.0842   42.6124 H   0  0  0  0  0  0  0  0  0  0  0  0
   35.9468   26.1045   40.0336 H   0  0  0  0  0  0  0  0  0  0  0  0
   37.7606   25.9522   39.7976 H   0  0  0  0  0  0  0  0  0  0  0  0
   37.8263   24.8299   42.0011 H   0  0  0  0  0  0  0  0  0  0  0  0
   35.9870   24.7388   41.8435 H   0  0  0  0  0  0  0  0  0  0  0  0
   38.8942   22.6285   41.2389 H   0  0  0  0  0  0  0  0  0  0  0  0
   38.5897   20.6518   39.7551 H   0  0  0  0  0  0  0  0  0  0  0  0
   36.3649   20.6346   38.2471 H   0  0  0  0  0  0  0  0  0  0  0  0
   38.1425   35.8562   40.6149 H   0  0  0  0  0  0  0  0  0  0  0  0
   40.4203   37.2188   40.2529 H   0  0  0  0  0  0  0  0  0  0  0  0
   42.1802   35.4400   39.2394 H   0  0  0  0  0  0  0  0  0  0  0  0
  2  1  2  0
  3  2  1  0
  4  3  2  0
  4  5  1  0
  5  6  2  0
  6  1  1  0
  7  3  1  0
  7  8  1  0
  9  8  1  0
 10  9  2  0
 11 10  1  0
 12 13  1  0
 12 11  2  0
 13  9  1  0
 14  5  1  0
 15 19  1  0
 15 14  1  0
 16 15  2  0
 17 16  1  0
 17 18  1  0
 18 19  2  0
 20 18  1  0
 20 21  2  0
 22 21  1  0
 23 22  2  0
 24 23  1  0
 24 20  1  0
  1 25  1  0
  2 26  1  0
  7 27  1  0
  7 28  1  0
  8 29  1  0
  8 30  1  0
 10 31  1  0
 11 32  1  0
 12 33  1  0
 21 34  1  0
 22 35  1  0
 23 36  1  0
M  ISO  8  25  14  26  14  27   8  28   8  29   8  30   8  31  14  32  14
M  ISO  4  33  14  34  14  35  14  36  14
M  END
>  <minimizedAffinity>  (1) 
-5.73135519

>  <minimizedRMSD>  (1) 
0.582114995

$$$$
