
     RDKit          3D

 30 32  0  0  0  0  0  0  0  0999 V2000
   38.5800   28.4020   43.2280 C   0  0  0  0  0  0  0  0  0  0  0  0
   38.3210   27.1900   42.5410 C   0  0  0  0  0  0  0  0  0  0  0  0
   37.3960   27.2440   41.4760 C   0  0  0  0  0  0  0  0  0  0  0  0
   36.8240   28.4300   41.1820 N   0  0  0  0  0  0  0  0  0  0  0  0
   37.0970   29.5490   41.8570 C   0  0  0  0  0  0  0  0  0  0  0  0
   37.9770   29.5460   42.8850 N   0  0  0  0  0  0  0  0  0  0  0  0
   37.1630   25.9790   40.8020 C   0  0  0  0  0  0  0  0  0  0  0  0
   37.4630   24.7710   41.6620 C   0  0  0  0  0  0  0  0  0  0  0  0
   36.3440   24.3940   42.4030 O   0  0  0  0  0  0  0  0  0  0  0  0
   36.3970   30.6110   41.3730 O   0  0  0  0  0  0  0  0  0  0  0  0
   36.9980   31.5160   40.4970 C   0  0  0  0  0  0  0  0  0  0  0  0
   36.8300   31.7150   39.1570 N   0  0  0  0  0  0  0  0  0  0  0  0
   37.6210   32.6880   38.7770 O   0  0  0  0  0  0  0  0  0  0  0  0
   38.2770   33.0950   39.8540 C   0  0  0  0  0  0  0  0  0  0  0  0
   37.9120   32.3950   40.9140 N   0  0  0  0  0  0  0  0  0  0  0  0
   39.2560   34.1730   39.8170 C   0  0  0  0  0  0  0  0  0  0  0  0
   39.0600   35.4860   40.2040 C   0  0  0  0  0  0  0  0  0  0  0  0
   40.2170   36.2010   40.0200 C   0  0  0  0  0  0  0  0  0  0  0  0
   41.1120   35.2760   39.5120 C   0  0  0  0  0  0  0  0  0  0  0  0
   40.4960   34.1400   39.4220 O   0  0  0  0  0  0  0  0  0  0  0  0
   39.2947   28.4023   44.0642 H   0  0  0  0  0  0  0  0  0  0  0  0
   38.8178   26.2504   42.8245 H   0  0  0  0  0  0  0  0  0  0  0  0
   36.1067   25.9361   40.4982 H   0  0  0  0  0  0  0  0  0  0  0  0
   37.8473   25.9408   39.9416 H   0  0  0  0  0  0  0  0  0  0  0  0
   37.7639   23.9343   41.0144 H   0  0  0  0  0  0  0  0  0  0  0  0
   38.2735   25.0301   42.3591 H   0  0  0  0  0  0  0  0  0  0  0  0
   36.5493   24.4632   43.3690 H   0  0  0  0  0  0  0  0  0  0  0  0
   38.1189   35.8956   40.5996 H   0  0  0  0  0  0  0  0  0  0  0  0
   40.3928   37.2666   40.2288 H   0  0  0  0  0  0  0  0  0  0  0  0
   42.1585   35.4704   39.2345 H   0  0  0  0  0  0  0  0  0  0  0  0
  2  1  2  0
  3  2  1  0
  4  3  2  0
  4  5  1  0
  5  6  2  0
  6  1  1  0
  7  3  1  0
  7  8  1  0
  8  9  1  0
 10  5  1  0
 11 15  1  0
 11 10  1  0
 12 11  2  0
 13 12  1  0
 13 14  1  0
 14 15  2  0
 16 14  1  0
 16 17  2  0
 18 17  1  0
 19 18  2  0
 20 19  1  0
 20 16  1  0
  1 21  1  0
  2 22  1  0
  7 23  1  0
  7 24  1  0
  8 25  1  0
  8 26  1  0
  9 27  1  0
 17 28  1  0
 18 29  1  0
 19 30  1  0
M  ISO  8  21  14  22  14  23   8  24   8  25   8  26   8  27   3  28  14
M  ISO  2  29  14  30  14
M  END
>  <minimizedAffinity>  (1) 
-5.25021362

>  <minimizedRMSD>  (1) 
0.360822171

$$$$
