
     RDKit          3D

 40 43  0  0  0  0  0  0  0  0999 V2000
   36.7780   31.2020   40.4280 C   0  0  0  0  0  0  0  0  0  0  0  0
   36.6720   31.4640   39.0780 N   0  0  0  0  0  0  0  0  0  0  0  0
   37.5640   32.3780   38.7650 O   0  0  0  0  0  0  0  0  0  0  0  0
   38.2130   32.6840   39.8770 C   0  0  0  0  0  0  0  0  0  0  0  0
   37.7520   31.9780   40.9100 N   0  0  0  0  0  0  0  0  0  0  0  0
   39.2820   33.6650   39.9200 C   0  0  0  0  0  0  0  0  0  0  0  0
   39.1690   35.0120   40.1660 C   0  0  0  0  0  0  0  0  0  0  0  0
   40.4060   35.6140   40.1220 C   0  0  0  0  0  0  0  0  0  0  0  0
   41.2700   34.5720   39.8390 C   0  0  0  0  0  0  0  0  0  0  0  0
   40.5720   33.4790   39.7330 O   0  0  0  0  0  0  0  0  0  0  0  0
   42.6810   34.4740   39.6530 N   0  0  0  0  0  0  0  0  0  0  0  0
   43.4510   34.3540   40.7530 C   0  0  0  0  0  0  0  0  0  0  0  0
   44.8170   34.2620   40.5190 C   0  0  0  0  0  0  0  0  0  0  0  0
   45.3710   34.2880   39.2540 C   0  0  0  0  0  0  0  0  0  0  0  0
   46.6120   34.2040   39.0610 O   0  0  0  0  0  0  0  0  0  0  0  0
   44.5300   34.4120   38.2000 N   0  0  0  0  0  0  0  0  0  0  0  0
   43.1940   34.5040   38.3930 C   0  0  0  0  0  0  0  0  0  0  0  0
   42.3910   34.6200   37.4140 O   0  0  0  0  0  0  0  0  0  0  0  0
   36.0480   30.3090   41.2270 O   0  0  0  0  0  0  0  0  0  0  0  0
   37.9860   28.0790   43.3530 C   0  0  0  0  0  0  0  0  0  0  0  0
   37.8100   26.8810   42.5940 C   0  0  0  0  0  0  0  0  0  0  0  0
   37.0520   26.9470   41.4400 C   0  0  0  0  0  0  0  0  0  0  0  0
   36.5280   28.1430   41.1040 N   0  0  0  0  0  0  0  0  0  0  0  0
   36.6910   29.2490   41.8040 C   0  0  0  0  0  0  0  0  0  0  0  0
   37.4220   29.2350   42.9400 N   0  0  0  0  0  0  0  0  0  0  0  0
   36.9510   25.6710   40.7720 C   0  0  0  0  0  0  0  0  0  0  0  0
   37.0700   24.4710   41.6100 C   0  0  0  0  0  0  0  0  0  0  0  0
   37.8560   23.0840   40.7100 S   0  0  0  0  0  0  0  0  0  0  0  0
   38.2232   35.5356   40.3694 H   0  0  0  0  0  0  0  0  0  0  0  0
   40.6502   36.6755   40.2759 H   0  0  0  0  0  0  0  0  0  0  0  0
   43.0262   34.3305   41.7674 H   0  0  0  0  0  0  0  0  0  0  0  0
   45.4904   34.1636   41.3832 H   0  0  0  0  0  0  0  0  0  0  0  0
   44.9106   34.4365   37.2432 H   0  0  0  0  0  0  0  0  0  0  0  0
   38.5828   28.0598   44.2768 H   0  0  0  0  0  0  0  0  0  0  0  0
   38.2647   25.9335   42.9188 H   0  0  0  0  0  0  0  0  0  0  0  0
   35.9706   25.6330   40.2746 H   0  0  0  0  0  0  0  0  0  0  0  0
   37.8157   25.6335   40.0932 H   0  0  0  0  0  0  0  0  0  0  0  0
   37.6799   24.7130   42.4929 H   0  0  0  0  0  0  0  0  0  0  0  0
   36.0568   24.1573   41.9014 H   0  0  0  0  0  0  0  0  0  0  0  0
   38.3651   22.1856   41.6103 H   0  0  0  0  0  0  0  0  0  0  0  0
  1  5  1  0
  1 19  1  0
  2  1  2  0
  3  2  1  0
  3  4  1  0
  4  6  1  0
  4  5  2  0
  6  7  2  0
  8  7  1  0
  9  8  2  0
 10  9  1  0
 10  6  1  0
 11  9  1  0
 11 12  1  0
 13 12  2  0
 14 13  1  0
 15 14  2  0
 16 17  1  0
 16 14  1  0
 17 11  1  0
 18 17  2  0
 19 24  1  0
 21 20  2  0
 22 21  1  0
 23 22  2  0
 23 24  1  0
 24 25  2  0
 25 20  1  0
 26 22  1  0
 26 27  1  0
 28 27  1  0
  7 29  1  0
  8 30  1  0
 12 31  1  0
 13 32  1  0
 16 33  1  0
 20 34  1  0
 21 35  1  0
 26 36  1  0
 26 37  1  0
 27 38  1  0
 27 39  1  0
 28 40  1  0
M  ISO  8  29  14  30  14  31  14  32  14  33   9  34  14  35  14  36   8
M  ISO  4  37   8  38   8  39   8  40  11
M  END
>  <minimizedAffinity>  (1) 
-6.47878027

>  <minimizedRMSD>  (1) 
0.92997241

$$$$
