
     RDKit          3D

 38 41  0  0  0  0  0  0  0  0999 V2000
   36.7750   31.3000   40.2170 C   0  0  0  0  0  0  0  0  0  0  0  0
   36.8800   31.6150   38.8750 N   0  0  0  0  0  0  0  0  0  0  0  0
   37.7530   32.5840   38.7480 O   0  0  0  0  0  0  0  0  0  0  0  0
   38.1890   32.8790   39.9390 C   0  0  0  0  0  0  0  0  0  0  0  0
   37.6110   32.1100   40.8650 N   0  0  0  0  0  0  0  0  0  0  0  0
   39.1790   33.9140   40.2100 C   0  0  0  0  0  0  0  0  0  0  0  0
   39.0420   35.2750   40.0990 C   0  0  0  0  0  0  0  0  0  0  0  0
   40.1940   35.9180   40.4420 C   0  0  0  0  0  0  0  0  0  0  0  0
   41.0500   34.8790   40.7720 C   0  0  0  0  0  0  0  0  0  0  0  0
   40.4240   33.7730   40.6230 O   0  0  0  0  0  0  0  0  0  0  0  0
   42.4420   35.0460   41.2180 C   0  0  0  0  0  0  0  0  0  0  0  0
   42.7430   35.9110   42.2530 C   0  0  0  0  0  0  0  0  0  0  0  0
   44.0600   36.0410   42.6430 C   0  0  0  0  0  0  0  0  0  0  0  0
   45.0340   35.3280   42.0130 N   0  0  0  0  0  0  0  0  0  0  0  0
   44.7190   34.4880   41.0030 C   0  0  0  0  0  0  0  0  0  0  0  0
   43.4200   34.3580   40.6170 N   0  0  0  0  0  0  0  0  0  0  0  0
   35.9800   30.3380   40.8620 O   0  0  0  0  0  0  0  0  0  0  0  0
   37.7830   28.1790   43.1760 C   0  0  0  0  0  0  0  0  0  0  0  0
   37.6630   26.9640   42.4400 C   0  0  0  0  0  0  0  0  0  0  0  0
   36.9840   26.9930   41.2390 C   0  0  0  0  0  0  0  0  0  0  0  0
   36.4770   28.1730   40.8320 N   0  0  0  0  0  0  0  0  0  0  0  0
   36.5900   29.2990   41.5150 C   0  0  0  0  0  0  0  0  0  0  0  0
   37.2470   29.3150   42.7010 N   0  0  0  0  0  0  0  0  0  0  0  0
   36.9280   25.6970   40.6000 C   0  0  0  0  0  0  0  0  0  0  0  0
   36.9530   24.5220   41.4820 C   0  0  0  0  0  0  0  0  0  0  0  0
   37.8360   23.1150   40.7180 S   0  0  0  0  0  0  0  0  0  0  0  0
   38.1211   35.7818   39.7749 H   0  0  0  0  0  0  0  0  0  0  0  0
   40.3954   36.9993   40.4540 H   0  0  0  0  0  0  0  0  0  0  0  0
   41.9494   36.4837   42.7552 H   0  0  0  0  0  0  0  0  0  0  0  0
   44.3239   36.7225   43.4651 H   0  0  0  0  0  0  0  0  0  0  0  0
   45.5073   33.9126   40.4956 H   0  0  0  0  0  0  0  0  0  0  0  0
   38.3172   28.1860   44.1376 H   0  0  0  0  0  0  0  0  0  0  0  0
   38.0999   26.0285   42.8193 H   0  0  0  0  0  0  0  0  0  0  0  0
   35.9974   25.6543   40.0150 H   0  0  0  0  0  0  0  0  0  0  0  0
   37.8503   25.6296   40.0044 H   0  0  0  0  0  0  0  0  0  0  0  0
   37.4593   24.7924   42.4204 H   0  0  0  0  0  0  0  0  0  0  0  0
   35.9138   24.2124   41.6671 H   0  0  0  0  0  0  0  0  0  0  0  0
   38.3434   22.3064   41.7007 H   0  0  0  0  0  0  0  0  0  0  0  0
  1 17  1  0
  1  5  1  0
  2  1  2  0
  3  2  1  0
  3  4  1  0
  4  6  1  0
  4  5  2  0
  6 10  1  0
  7  6  2  0
  7  8  1  0
  8  9  2  0
  9 11  1  0
 10  9  1  0
 11 12  2  0
 12 13  1  0
 14 13  2  0
 15 14  1  0
 16 15  2  0
 16 11  1  0
 17 22  1  0
 19 18  2  0
 20 19  1  0
 21 20  2  0
 21 22  1  0
 22 23  2  0
 23 18  1  0
 24 20  1  0
 24 25  1  0
 26 25  1  0
  7 27  1  0
  8 28  1  0
 12 29  1  0
 13 30  1  0
 15 31  1  0
 18 32  1  0
 19 33  1  0
 24 34  1  0
 24 35  1  0
 25 36  1  0
 25 37  1  0
 26 38  1  0
M  ISO  8  27  14  28  14  29  14  30  14  31  14  32  14  33  14  34   8
M  ISO  4  35   8  36   8  37   8  38  11
M  END
>  <minimizedAffinity>  (1) 
-6.21941042

>  <minimizedRMSD>  (1) 
1.40751672

$$$$
