
     RDKit          3D

 37 40  0  0  0  0  0  0  0  0999 V2000
   36.7860   31.0370   40.5870 C   0  0  0  0  0  0  0  0  0  0  0  0
   36.5360   31.3220   39.2570 N   0  0  0  0  0  0  0  0  0  0  0  0
   37.4310   32.1860   38.8470 O   0  0  0  0  0  0  0  0  0  0  0  0
   38.2180   32.4470   39.8530 C   0  0  0  0  0  0  0  0  0  0  0  0
   37.8510   31.7600   40.9320 N   0  0  0  0  0  0  0  0  0  0  0  0
   39.3450   33.3700   39.7850 C   0  0  0  0  0  0  0  0  0  0  0  0
   39.3440   34.7200   40.1000 C   0  0  0  0  0  0  0  0  0  0  0  0
   40.6000   35.2470   39.9090 C   0  0  0  0  0  0  0  0  0  0  0  0
   41.3500   34.1720   39.4700 C   0  0  0  0  0  0  0  0  0  0  0  0
   40.5820   33.1370   39.4210 O   0  0  0  0  0  0  0  0  0  0  0  0
   42.7680   34.2400   39.1310 C   0  0  0  0  0  0  0  0  0  0  0  0
   43.8400   34.0080   39.9600 C   0  0  0  0  0  0  0  0  0  0  0  0
   45.0330   34.1680   39.2800 C   0  0  0  0  0  0  0  0  0  0  0  0
   44.6440   34.5000   38.0370 N   0  0  0  0  0  0  0  0  0  0  0  0
   43.3100   34.5440   37.9400 N   0  0  0  0  0  0  0  0  0  0  0  0
   36.1160   30.1800   41.4720 O   0  0  0  0  0  0  0  0  0  0  0  0
   38.1530   27.9190   43.4710 C   0  0  0  0  0  0  0  0  0  0  0  0
   37.9460   26.7350   42.7000 C   0  0  0  0  0  0  0  0  0  0  0  0
   37.1380   26.8150   41.5830 C   0  0  0  0  0  0  0  0  0  0  0  0
   36.5940   28.0160   41.2880 N   0  0  0  0  0  0  0  0  0  0  0  0
   36.7840   29.1120   41.9980 C   0  0  0  0  0  0  0  0  0  0  0  0
   37.5680   29.0790   43.1040 N   0  0  0  0  0  0  0  0  0  0  0  0
   37.0120   25.5530   40.8960 C   0  0  0  0  0  0  0  0  0  0  0  0
   37.2880   24.3410   41.6820 C   0  0  0  0  0  0  0  0  0  0  0  0
   37.9370   22.9880   40.6320 S   0  0  0  0  0  0  0  0  0  0  0  0
   38.4684   35.2859   40.4508 H   0  0  0  0  0  0  0  0  0  0  0  0
   40.9310   36.2838   40.0686 H   0  0  0  0  0  0  0  0  0  0  0  0
   43.7593   33.7321   41.0218 H   0  0  0  0  0  0  0  0  0  0  0  0
   46.0569   34.0514   39.6647 H   0  0  0  0  0  0  0  0  0  0  0  0
   45.2899   34.6955   37.2588 H   0  0  0  0  0  0  0  0  0  0  0  0
   38.7909   27.8858   44.3665 H   0  0  0  0  0  0  0  0  0  0  0  0
   38.4178   25.7841   42.9883 H   0  0  0  0  0  0  0  0  0  0  0  0
   35.9804   25.4793   40.5215 H   0  0  0  0  0  0  0  0  0  0  0  0
   37.7854   25.5719   40.1140 H   0  0  0  0  0  0  0  0  0  0  0  0
   38.0318   24.5797   42.4564 H   0  0  0  0  0  0  0  0  0  0  0  0
   36.3441   24.0024   42.1341 H   0  0  0  0  0  0  0  0  0  0  0  0
   38.4191   21.9830   41.4285 H   0  0  0  0  0  0  0  0  0  0  0  0
  1  5  1  0
  1 16  1  0
  2  1  2  0
  3  2  1  0
  3  4  1  0
  4  5  2  0
  6  4  1  0
  6  7  2  0
  8  7  1  0
  9  8  2  0
 10  9  1  0
 10  6  1  0
 11  9  1  0
 11 12  1  0
 13 12  2  0
 14 13  1  0
 15 14  1  0
 15 11  2  0
 16 21  1  0
 18 17  2  0
 19 18  1  0
 20 19  2  0
 20 21  1  0
 21 22  2  0
 22 17  1  0
 23 19  1  0
 23 24  1  0
 25 24  1  0
  7 26  1  0
  8 27  1  0
 12 28  1  0
 13 29  1  0
 14 30  1  0
 17 31  1  0
 18 32  1  0
 23 33  1  0
 23 34  1  0
 24 35  1  0
 24 36  1  0
 25 37  1  0
M  ISO  8  26  14  27  14  28  14  29  14  30   9  31  14  32  14  33   8
M  ISO  4  34   8  35   8  36   8  37  11
M  END
>  <minimizedAffinity>  (1) 
-5.75548792

>  <minimizedRMSD>  (1) 
0.819446921

$$$$
