
     RDKit          3D

 49 53  0  0  0  0  0  0  0  0999 V2000
   37.5330   28.6210   43.8750 C   0  0  0  0  0  0  0  0  0  0  0  0
   37.1730   27.2660   43.8190 C   0  0  0  0  0  0  0  0  0  0  0  0
   36.9450   26.7120   42.5720 C   0  0  0  0  0  0  0  0  0  0  0  0
   37.0830   27.5020   41.4700 N   0  0  0  0  0  0  0  0  0  0  0  0
   37.4310   28.7970   41.5550 C   0  0  0  0  0  0  0  0  0  0  0  0
   37.6590   29.3710   42.7520 N   0  0  0  0  0  0  0  0  0  0  0  0
   37.5480   29.5320   40.3440 N   0  0  0  0  0  0  0  0  0  0  0  0
   37.3320   28.9610   39.1450 C   0  0  0  0  0  0  0  0  0  0  0  0
   37.4870   29.7960   38.0620 C   0  0  0  0  0  0  0  0  0  0  0  0
   37.8390   31.1340   38.1550 C   0  0  0  0  0  0  0  0  0  0  0  0
   37.9750   31.8770   37.1600 O   0  0  0  0  0  0  0  0  0  0  0  0
   38.0430   31.6530   39.3890 N   0  0  0  0  0  0  0  0  0  0  0  0
   37.8950   30.8400   40.4850 C   0  0  0  0  0  0  0  0  0  0  0  0
   38.0970   31.3770   41.6040 O   0  0  0  0  0  0  0  0  0  0  0  0
   38.4110   33.0230   39.5850 C   0  0  0  0  0  0  0  0  0  0  0  0
   37.7170   34.2080   39.7110 C   0  0  0  0  0  0  0  0  0  0  0  0
   38.6140   35.2110   39.8820 N   0  0  0  0  0  0  0  0  0  0  0  0
   39.8590   34.6900   39.8680 C   0  0  0  0  0  0  0  0  0  0  0  0
   41.0980   35.3030   40.0030 C   0  0  0  0  0  0  0  0  0  0  0  0
   42.2760   34.5850   39.9600 C   0  0  0  0  0  0  0  0  0  0  0  0
   42.1870   33.2350   39.7780 C   0  0  0  0  0  0  0  0  0  0  0  0
   40.9590   32.6320   39.6450 C   0  0  0  0  0  0  0  0  0  0  0  0
   39.7660   33.3260   39.6840 C   0  0  0  0  0  0  0  0  0  0  0  0
   37.2870   29.2990   36.6930 C   0  0  0  0  0  0  0  0  0  0  0  0
   35.9520   29.5650   36.2690 N   0  0  0  0  0  0  0  0  0  0  0  0
   35.7070   29.2330   34.8860 C   0  0  0  0  0  0  0  0  0  0  0  0
   34.3030   28.7360   34.7740 C   0  0  0  0  0  0  0  0  0  0  0  0
   33.7910   28.5680   36.1790 C   0  0  0  0  0  0  0  0  0  0  0  0
   34.9080   29.0330   37.0770 C   0  0  0  0  0  0  0  0  0  0  0  0
   37.7177   29.0867   44.8543 H   0  0  0  0  0  0  0  0  0  0  0  0
   37.0754   26.6649   44.7351 H   0  0  0  0  0  0  0  0  0  0  0  0
   36.6580   25.6548   42.4719 H   0  0  0  0  0  0  0  0  0  0  0  0
   37.0516   27.9027   39.0380 H   0  0  0  0  0  0  0  0  0  0  0  0
   36.6233   34.3206   39.6784 H   0  0  0  0  0  0  0  0  0  0  0  0
   38.3828   36.2074   40.0028 H   0  0  0  0  0  0  0  0  0  0  0  0
   41.1417   36.3925   40.1484 H   0  0  0  0  0  0  0  0  0  0  0  0
   43.2511   35.0825   40.0684 H   0  0  0  0  0  0  0  0  0  0  0  0
   43.1026   32.6267   39.7376 H   0  0  0  0  0  0  0  0  0  0  0  0
   40.9250   31.5421   39.5003 H   0  0  0  0  0  0  0  0  0  0  0  0
   37.9919   29.8032   36.0156 H   0  0  0  0  0  0  0  0  0  0  0  0
   37.4632   28.2134   36.6731 H   0  0  0  0  0  0  0  0  0  0  0  0
   35.8381   30.1268   34.2584 H   0  0  0  0  0  0  0  0  0  0  0  0
   36.4142   28.4620   34.5463 H   0  0  0  0  0  0  0  0  0  0  0  0
   33.6849   29.4652   34.2298 H   0  0  0  0  0  0  0  0  0  0  0  0
   34.2623   27.7857   34.2215 H   0  0  0  0  0  0  0  0  0  0  0  0
   32.8918   29.1819   36.3357 H   0  0  0  0  0  0  0  0  0  0  0  0
   33.5095   27.5252   36.3871 H   0  0  0  0  0  0  0  0  0  0  0  0
   35.2896   28.1839   37.6630 H   0  0  0  0  0  0  0  0  0  0  0  0
   34.5373   29.8056   37.7667 H   0  0  0  0  0  0  0  0  0  0  0  0
  2  1  2  0
  3  2  1  0
  4  5  1  0
  4  3  2  0
  5  6  2  0
  6  1  1  0
  7 13  1  0
  7  5  1  0
  8  7  1  0
  9 10  1  0
  9  8  2  0
 10 12  1  0
 11 10  2  0
 12 15  1  0
 12 13  1  0
 13 14  2  0
 15 23  1  0
 15 16  2  0
 16 17  1  0
 18 17  1  0
 18 19  2  0
 20 19  1  0
 21 20  2  0
 22 23  2  0
 22 21  1  0
 23 18  1  0
 24  9  1  0
 25 24  1  0
 25 29  1  0
 26 25  1  0
 27 26  1  0
 27 28  1  0
 28 29  1  0
  1 30  1  0
  2 31  1  0
  3 32  1  0
  8 33  1  0
 16 34  1  0
 17 35  1  0
 19 36  1  0
 20 37  1  0
 21 38  1  0
 22 39  1  0
 24 40  1  0
 24 41  1  0
 26 42  1  0
 26 43  1  0
 27 44  1  0
 27 45  1  0
 28 46  1  0
 28 47  1  0
 29 48  1  0
 29 49  1  0
M  ISO  8  30  14  31  14  32  14  33  14  34  14  35   9  36  14  37  14
M  ISO  8  38  14  39  14  40   8  41   8  42  13  43  13  44  13  45  13
M  ISO  4  46  13  47  13  48  13  49  13
M  END
>  <minimizedAffinity>  (1) 
-6.57268715

>  <minimizedRMSD>  (1) 
0.497752488

$$$$
