
     RDKit          3D

 36 39  0  0  0  0  0  0  0  0999 V2000
   36.8580   31.2770   40.4660 C   0  0  0  0  0  0  0  0  0  0  0  0
   36.6850   31.6470   39.1530 N   0  0  0  0  0  0  0  0  0  0  0  0
   37.6250   32.5120   38.8440 O   0  0  0  0  0  0  0  0  0  0  0  0
   38.3700   32.6870   39.9190 C   0  0  0  0  0  0  0  0  0  0  0  0
   37.9180   31.9400   40.9250 N   0  0  0  0  0  0  0  0  0  0  0  0
   39.5170   33.5790   39.9600 C   0  0  0  0  0  0  0  0  0  0  0  0
   39.5020   34.9450   40.1120 C   0  0  0  0  0  0  0  0  0  0  0  0
   40.7840   35.4280   40.1010 C   0  0  0  0  0  0  0  0  0  0  0  0
   41.5770   34.2920   39.9330 C   0  0  0  0  0  0  0  0  0  0  0  0
   40.7780   33.2940   39.8620 O   0  0  0  0  0  0  0  0  0  0  0  0
   43.0550   34.2730   39.8550 C   0  0  0  0  0  0  0  0  0  0  0  0
   43.8790   34.4440   41.0850 C   0  0  0  0  0  0  0  0  0  0  0  0
   45.5340   34.3450   40.4480 S   0  0  0  0  0  0  0  0  0  0  0  0
   44.9360   34.0950   38.6600 C   0  0  0  0  0  0  0  0  0  0  0  0
   43.7490   34.1130   38.7450 N   0  0  0  0  0  0  0  0  0  0  0  0
   36.1150   30.3830   41.2560 O   0  0  0  0  0  0  0  0  0  0  0  0
   38.0060   28.1110   43.3590 C   0  0  0  0  0  0  0  0  0  0  0  0
   37.8180   26.9160   42.5970 C   0  0  0  0  0  0  0  0  0  0  0  0
   37.0670   26.9960   41.4410 C   0  0  0  0  0  0  0  0  0  0  0  0
   36.5540   28.2040   41.1020 N   0  0  0  0  0  0  0  0  0  0  0  0
   36.7350   29.3020   41.8150 C   0  0  0  0  0  0  0  0  0  0  0  0
   37.4590   29.2770   42.9510 N   0  0  0  0  0  0  0  0  0  0  0  0
   36.9520   25.7300   40.7580 C   0  0  0  0  0  0  0  0  0  0  0  0
   37.0140   24.5280   41.6070 C   0  0  0  0  0  0  0  0  0  0  0  0
   37.8230   23.1330   40.7430 S   0  0  0  0  0  0  0  0  0  0  0  0
   38.5961   35.5586   40.2255 H   0  0  0  0  0  0  0  0  0  0  0  0
   41.1132   36.4728   40.2016 H   0  0  0  0  0  0  0  0  0  0  0  0
   43.5468   34.5935   42.1229 H   0  0  0  0  0  0  0  0  0  0  0  0
   45.5471   33.9638   37.7548 H   0  0  0  0  0  0  0  0  0  0  0  0
   38.6003   28.0808   44.2841 H   0  0  0  0  0  0  0  0  0  0  0  0
   38.2583   25.9617   42.9218 H   0  0  0  0  0  0  0  0  0  0  0  0
   35.9870   25.7193   40.2302 H   0  0  0  0  0  0  0  0  0  0  0  0
   37.8289   25.6703   40.0966 H   0  0  0  0  0  0  0  0  0  0  0  0
   37.5849   24.7632   42.5174 H   0  0  0  0  0  0  0  0  0  0  0  0
   35.9849   24.2286   41.8545 H   0  0  0  0  0  0  0  0  0  0  0  0
   38.3310   22.2571   41.6659 H   0  0  0  0  0  0  0  0  0  0  0  0
  1  5  1  0
  1 16  1  0
  2  1  2  0
  3  2  1  0
  3  4  1  0
  4  6  1  0
  4  5  2  0
  6  7  2  0
  8  7  1  0
  9  8  2  0
 10  9  1  0
 10  6  1  0
 11  9  1  0
 11 12  2  0
 13 12  1  0
 14 15  2  0
 14 13  1  0
 15 11  1  0
 16 21  1  0
 18 17  2  0
 19 18  1  0
 20 19  2  0
 20 21  1  0
 21 22  2  0
 22 17  1  0
 23 19  1  0
 23 24  1  0
 25 24  1  0
  7 26  1  0
  8 27  1  0
 12 28  1  0
 14 29  1  0
 17 30  1  0
 18 31  1  0
 23 32  1  0
 23 33  1  0
 24 34  1  0
 24 35  1  0
 25 36  1  0
M  ISO  8  26  14  27  14  28  14  29  14  30  14  31  14  32   8  33   8
M  ISO  3  34   8  35   8  36  11
M  END
>  <minimizedAffinity>  (1) 
-5.59485674

>  <minimizedRMSD>  (1) 
0.970453143

$$$$
