
     RDKit          3D

 23 24  0  0  0  0  0  0  0  0999 V2000
   38.1840   29.4680   42.3770 C   0  0  0  0  0  0  0  0  0  0  0  0
   37.7940   28.1210   42.5090 C   0  0  0  0  0  0  0  0  0  0  0  0
   36.5840   27.7310   41.8950 C   0  0  0  0  0  0  0  0  0  0  0  0
   35.8790   28.6740   41.2210 N   0  0  0  0  0  0  0  0  0  0  0  0
   36.2790   29.9640   41.1080 C   0  0  0  0  0  0  0  0  0  0  0  0
   37.4410   30.3450   41.6980 N   0  0  0  0  0  0  0  0  0  0  0  0
   38.5710   27.1210   43.2400 C   0  0  0  0  0  0  0  0  0  0  0  0
   40.0160   27.4520   43.4540 C   0  0  0  0  0  0  0  0  0  0  0  0
   40.5810   26.0890   43.8800 C   0  0  0  0  0  0  0  0  0  0  0  0
   39.6080   25.0540   43.3590 C   0  0  0  0  0  0  0  0  0  0  0  0
   38.7200   25.8500   42.3960 C   0  0  0  0  0  0  0  0  0  0  0  0
   39.1214   29.8048   42.8437 H   0  0  0  0  0  0  0  0  0  0  0  0
   36.2237   26.6938   41.9611 H   0  0  0  0  0  0  0  0  0  0  0  0
   35.6722   30.6904   40.5475 H   0  0  0  0  0  0  0  0  0  0  0  0
   38.0173   27.0419   44.1872 H   0  0  0  0  0  0  0  0  0  0  0  0
   40.4878   27.8110   42.5274 H   0  0  0  0  0  0  0  0  0  0  0  0
   40.1890   28.2575   44.1829 H   0  0  0  0  0  0  0  0  0  0  0  0
   41.5769   25.9334   43.4397 H   0  0  0  0  0  0  0  0  0  0  0  0
   40.6938   26.0227   44.9722 H   0  0  0  0  0  0  0  0  0  0  0  0
   40.1374   24.2478   42.8301 H   0  0  0  0  0  0  0  0  0  0  0  0
   39.0372   24.5613   44.1599 H   0  0  0  0  0  0  0  0  0  0  0  0
   37.7545   25.3551   42.2148 H   0  0  0  0  0  0  0  0  0  0  0  0
   39.1165   25.9904   41.3796 H   0  0  0  0  0  0  0  0  0  0  0  0
  1  2  2  0
  2  7  1  0
  3  2  1  0
  4  3  2  0
  5  4  1  0
  5  6  2  0
  6  1  1  0
  7  8  1  0
  8  9  1  0
 10  9  1  0
 11  7  1  0
 11 10  1  0
  1 12  1  0
  3 13  1  0
  5 14  1  0
  7 15  1  0
  8 16  1  0
  8 17  1  0
  9 18  1  0
  9 19  1  0
 10 20  1  0
 10 21  1  0
 11 22  1  0
 11 23  1  0
M  ISO  8  12  14  13  14  14  14  15  13  16  13  17  13  18  13  19  13
M  ISO  4  20  13  21  13  22  13  23  13
M  END
>  <minimizedAffinity>  (1) 
-3.74708748

>  <minimizedRMSD>  (1) 
1.88657069

$$$$
