
     RDKit          3D

 33 35  0  0  1  0  0  0  0  0999 V2000
   39.6700   30.8710   42.1920 C   0  0  2  0  0  0  0  0  0  0  0  0
   41.1010   31.2640   42.1740 C   0  0  0  0  0  0  0  0  0  0  0  0
   41.8360   30.0770   42.7450 C   0  0  0  0  0  0  0  0  0  0  0  0
   40.8560   28.9610   42.7820 C   0  0  0  0  0  0  0  0  0  0  0  0
   39.6740   29.4160   41.9140 C   0  0  1  0  0  0  0  0  0  0  0  0
   37.6430   31.1740   40.6740 C   0  0  0  0  0  0  0  0  0  0  0  0
   38.8150   31.6380   41.2810 C   0  0  0  0  0  0  0  0  0  0  0  0
   39.2370   32.9390   41.0180 C   0  0  0  0  0  0  0  0  0  0  0  0
   38.4740   33.7070   40.1690 N   0  0  0  0  0  0  0  0  0  0  0  0
   37.3310   33.2270   39.5890 C   0  0  0  0  0  0  0  0  0  0  0  0
   36.9290   31.9460   39.8570 N   0  0  0  0  0  0  0  0  0  0  0  0
   38.5460   28.6560   42.5190 C   0  0  0  0  0  0  0  0  0  0  0  0
   37.9060   28.8760   43.7230 C   0  0  0  0  0  0  0  0  0  0  0  0
   36.8810   28.0510   44.1360 C   0  0  0  0  0  0  0  0  0  0  0  0
   36.4330   26.9760   43.3970 C   0  0  0  0  0  0  0  0  0  0  0  0
   37.0410   26.7160   42.1870 C   0  0  0  0  0  0  0  0  0  0  0  0
   38.0640   27.5550   41.7950 C   0  0  0  0  0  0  0  0  0  0  0  0
   39.2147   31.1015   43.1665 H   0  0  0  0  0  0  0  0  0  0  0  0
   41.4337   31.4672   41.1454 H   0  0  0  0  0  0  0  0  0  0  0  0
   41.2858   32.1823   42.7506 H   0  0  0  0  0  0  0  0  0  0  0  0
   42.6903   29.8132   42.1042 H   0  0  0  0  0  0  0  0  0  0  0  0
   42.2325   30.2955   43.7475 H   0  0  0  0  0  0  0  0  0  0  0  0
   41.3033   28.0442   42.3705 H   0  0  0  0  0  0  0  0  0  0  0  0
   40.5398   28.7327   43.8105 H   0  0  0  0  0  0  0  0  0  0  0  0
   39.6652   29.2515   40.8264 H   0  0  0  0  0  0  0  0  0  0  0  0
   37.3034   30.1475   40.8764 H   0  0  0  0  0  0  0  0  0  0  0  0
   40.1532   33.3406   41.4755 H   0  0  0  0  0  0  0  0  0  0  0  0
   36.7410   33.8644   38.9140 H   0  0  0  0  0  0  0  0  0  0  0  0
   38.2171   29.7179   44.3590 H   0  0  0  0  0  0  0  0  0  0  0  0
   36.3973   28.2604   45.1015 H   0  0  0  0  0  0  0  0  0  0  0  0
   35.6119   26.3424   43.7635 H   0  0  0  0  0  0  0  0  0  0  0  0
   36.7226   25.8717   41.5580 H   0  0  0  0  0  0  0  0  0  0  0  0
   38.5445   27.3416   40.8288 H   0  0  0  0  0  0  0  0  0  0  0  0
  2  1  1  0
  2  3  1  0
  3  4  1  0
  5  1  1  0
  5 12  1  0
  5  4  1  0
  6  7  2  0
  7  1  1  0
  8  7  1  0
  9  8  2  0
 10 11  2  0
 10  9  1  0
 11  6  1  0
 12 13  2  0
 13 14  1  0
 15 14  2  0
 16 15  1  0
 17 16  2  0
 17 12  1  0
  1 18  1  1
  2 19  1  0
  2 20  1  0
  3 21  1  0
  3 22  1  0
  4 23  1  0
  4 24  1  0
  5 25  1  6
  6 26  1  0
  8 27  1  0
 10 28  1  0
 13 29  1  0
 14 30  1  0
 15 31  1  0
 16 32  1  0
 17 33  1  0
M  ISO  8  18  13  19  13  20  13  21  13  22  13  23  13  24  13  25  13
M  ISO  8  26  14  27  14  28  14  29  14  30  14  31  14  32  14  33  14
M  END
>  <minimizedAffinity>  (1) 
-5.19750309

>  <minimizedRMSD>  (1) 
4.13921309

$$$$
