
     RDKit          3D

 30 32  0  0  1  0  0  0  0  0999 V2000
   38.3950   26.9310   43.1880 C   0  0  2  0  0  0  0  0  0  0  0  0
   39.7660   27.2690   43.6350 C   0  0  0  0  0  0  0  0  0  0  0  0
   40.4300   25.9280   43.8760 C   0  0  0  0  0  0  0  0  0  0  0  0
   39.5500   24.9320   43.1940 C   0  0  0  0  0  0  0  0  0  0  0  0
   38.6400   25.7390   42.2580 C   0  0  1  0  0  0  0  0  0  0  0  0
   38.3280   29.2200   42.0650 C   0  0  0  0  0  0  0  0  0  0  0  0
   37.7250   28.0120   42.4380 C   0  0  0  0  0  0  0  0  0  0  0  0
   36.3990   27.8590   42.0400 C   0  0  0  0  0  0  0  0  0  0  0  0
   35.7980   28.8400   41.3500 N   0  0  0  0  0  0  0  0  0  0  0  0
   36.4010   29.9940   41.0050 C   0  0  0  0  0  0  0  0  0  0  0  0
   37.6820   30.1640   41.3780 N   0  0  0  0  0  0  0  0  0  0  0  0
   37.4030   24.8410   42.1390 C   0  0  0  0  0  0  0  0  0  0  0  0
   36.7790   24.6820   40.8310 C   0  0  0  0  0  0  0  0  0  0  0  0
   37.6660   23.5990   41.2370 C   0  0  0  0  0  0  0  0  0  0  0  0
   37.7305   26.7395   44.0434 H   0  0  0  0  0  0  0  0  0  0  0  0
   40.3006   27.8328   42.8563 H   0  0  0  0  0  0  0  0  0  0  0  0
   39.7677   27.9033   44.5337 H   0  0  0  0  0  0  0  0  0  0  0  0
   41.4402   25.9131   43.4409 H   0  0  0  0  0  0  0  0  0  0  0  0
   40.5454   25.7111   44.9482 H   0  0  0  0  0  0  0  0  0  0  0  0
   40.1565   24.2193   42.6159 H   0  0  0  0  0  0  0  0  0  0  0  0
   38.9643   24.3493   43.9202 H   0  0  0  0  0  0  0  0  0  0  0  0
   38.9704   26.0335   41.2510 H   0  0  0  0  0  0  0  0  0  0  0  0
   39.3756   29.3975   42.3497 H   0  0  0  0  0  0  0  0  0  0  0  0
   35.8484   26.9401   42.2898 H   0  0  0  0  0  0  0  0  0  0  0  0
   35.8649   30.7697   40.4384 H   0  0  0  0  0  0  0  0  0  0  0  0
   37.0108   25.0708   43.1407 H   0  0  0  0  0  0  0  0  0  0  0  0
   37.0828   25.3445   40.0071 H   0  0  0  0  0  0  0  0  0  0  0  0
   35.7332   24.7072   40.4910 H   0  0  0  0  0  0  0  0  0  0  0  0
   37.2547   22.6160   41.5103 H   0  0  0  0  0  0  0  0  0  0  0  0
   38.5515   23.1014   40.8147 H   0  0  0  0  0  0  0  0  0  0  0  0
  1  2  1  0
  2  3  1  0
  4  3  1  0
  5  1  1  0
  5  4  1  0
  6  7  2  0
  7  1  1  0
  8  7  1  0
  9  8  2  0
 10  9  1  0
 10 11  2  0
 11  6  1  0
 12  5  1  0
 13 14  1  0
 13 12  1  0
 14 12  1  0
  1 15  1  1
  2 16  1  0
  2 17  1  0
  3 18  1  0
  3 19  1  0
  4 20  1  0
  4 21  1  0
  5 22  1  6
  6 23  1  0
  8 24  1  0
 10 25  1  0
 12 26  1  0
 13 27  1  0
 13 28  1  0
 14 29  1  0
 14 30  1  0
M  ISO  8  15  13  16  13  17  13  18  13  19  13  20  13  21  13  22  13
M  ISO  8  23  14  24  14  25  14  26  13  27  13  28  13  29  13  30  13
M  END
>  <minimizedAffinity>  (1) 
-4.54367018

>  <minimizedRMSD>  (1) 
0.404424369

$$$$
