
     RDKit          3D

 30 32  0  0  1  0  0  0  0  0999 V2000
   38.7550   27.3390   43.2300 C   0  0  2  0  0  0  0  0  0  0  0  0
   40.1670   27.6740   43.4470 C   0  0  0  0  0  0  0  0  0  0  0  0
   40.7490   26.3570   43.9510 C   0  0  0  0  0  0  0  0  0  0  0  0
   39.7790   25.2860   43.5520 C   0  0  0  0  0  0  0  0  0  0  0  0
   38.8070   25.9530   42.6090 C   0  0  2  0  0  0  0  0  0  0  0  0
   38.3570   29.5250   42.0810 C   0  0  0  0  0  0  0  0  0  0  0  0
   37.9220   28.2330   42.4680 C   0  0  0  0  0  0  0  0  0  0  0  0
   36.6330   27.8320   42.1150 C   0  0  0  0  0  0  0  0  0  0  0  0
   35.8690   28.7170   41.4140 N   0  0  0  0  0  0  0  0  0  0  0  0
   36.3100   29.9580   41.0530 C   0  0  0  0  0  0  0  0  0  0  0  0
   37.5760   30.3540   41.3990 N   0  0  0  0  0  0  0  0  0  0  0  0
   39.3350   25.8960   41.2530 C   0  0  0  0  0  0  0  0  0  0  0  0
   39.2910   26.6610   40.1020 C   0  0  0  0  0  0  0  0  0  0  0  0
   40.0000   26.0850   39.0730 C   0  0  0  0  0  0  0  0  0  0  0  0
   40.4690   24.9580   39.6380 N   0  0  0  0  0  0  0  0  0  0  0  0
   40.1050   24.8280   40.8750 N   0  0  0  0  0  0  0  0  0  0  0  0
   38.2417   27.4163   44.1998 H   0  0  0  0  0  0  0  0  0  0  0  0
   40.6491   27.9880   42.5094 H   0  0  0  0  0  0  0  0  0  0  0  0
   40.3152   28.5123   44.1436 H   0  0  0  0  0  0  0  0  0  0  0  0
   41.7302   26.1730   43.4890 H   0  0  0  0  0  0  0  0  0  0  0  0
   40.8955   26.3767   45.0410 H   0  0  0  0  0  0  0  0  0  0  0  0
   40.3029   24.4624   43.0448 H   0  0  0  0  0  0  0  0  0  0  0  0
   39.2686   24.8521   44.4245 H   0  0  0  0  0  0  0  0  0  0  0  0
   37.8060   25.5092   42.5038 H   0  0  0  0  0  0  0  0  0  0  0  0
   39.3717   29.8505   42.3538 H   0  0  0  0  0  0  0  0  0  0  0  0
   36.2479   26.8395   42.3918 H   0  0  0  0  0  0  0  0  0  0  0  0
   35.6533   30.6358   40.4880 H   0  0  0  0  0  0  0  0  0  0  0  0
   38.7529   27.6168   40.0188 H   0  0  0  0  0  0  0  0  0  0  0  0
   40.1464   26.4533   38.0469 H   0  0  0  0  0  0  0  0  0  0  0  0
   41.0546   24.2719   39.1408 H   0  0  0  0  0  0  0  0  0  0  0  0
  1  2  1  0
  2  3  1  0
  4  3  1  0
  5  1  1  0
  5  4  1  0
  6  7  2  0
  7  1  1  0
  8  7  1  0
  9  8  2  0
 10 11  2  0
 10  9  1  0
 11  6  1  0
 12  5  1  0
 13 12  1  0
 14 15  1  0
 14 13  2  0
 15 16  1  0
 16 12  2  0
  1 17  1  1
  2 18  1  0
  2 19  1  0
  3 20  1  0
  3 21  1  0
  4 22  1  0
  4 23  1  0
  5 24  1  6
  6 25  1  0
  8 26  1  0
 10 27  1  0
 13 28  1  0
 14 29  1  0
 15 30  1  0
M  ISO  8  17  13  18  13  19  13  20  13  21  13  22  13  23  13  24  13
M  ISO  6  25  14  26  14  27  14  28  14  29  14  30   9
M  END
>  <minimizedAffinity>  (1) 
-4.1714797

>  <minimizedRMSD>  (1) 
0.440053135

$$$$
