
     RDKit          3D

 30 32  0  0  1  0  0  0  0  0999 V2000
   38.5590   26.9640   43.2590 C   0  0  2  0  0  0  0  0  0  0  0  0
   39.9250   27.2740   43.6960 C   0  0  0  0  0  0  0  0  0  0  0  0
   40.5830   25.9010   43.8760 C   0  0  0  0  0  0  0  0  0  0  0  0
   39.6460   24.8970   43.2400 C   0  0  0  0  0  0  0  0  0  0  0  0
   38.7320   25.7410   42.3870 C   0  0  2  0  0  0  0  0  0  0  0  0
   38.3980   29.3090   42.2730 C   0  0  0  0  0  0  0  0  0  0  0  0
   37.8460   28.0270   42.5360 C   0  0  0  0  0  0  0  0  0  0  0  0
   36.5520   27.7450   42.0730 C   0  0  0  0  0  0  0  0  0  0  0  0
   35.9110   28.7210   41.4010 N   0  0  0  0  0  0  0  0  0  0  0  0
   36.4540   29.9520   41.1540 C   0  0  0  0  0  0  0  0  0  0  0  0
   37.7190   30.2310   41.6060 N   0  0  0  0  0  0  0  0  0  0  0  0
   39.1420   25.9720   41.0660 C   0  0  0  0  0  0  0  0  0  0  0  0
   40.2420   26.6430   40.4380 C   0  0  0  0  0  0  0  0  0  0  0  0
   40.3340   26.6820   39.0910 C   0  0  0  0  0  0  0  0  0  0  0  0
   39.2140   25.9810   38.3490 C   0  0  0  0  0  0  0  0  0  0  0  0
   38.1670   25.3530   39.7850 S   0  0  0  0  0  0  0  0  0  0  0  0
   37.9177   26.8204   44.1411 H   0  0  0  0  0  0  0  0  0  0  0  0
   40.4545   27.8633   42.9329 H   0  0  0  0  0  0  0  0  0  0  0  0
   39.9465   27.8755   44.6167 H   0  0  0  0  0  0  0  0  0  0  0  0
   41.5623   25.8789   43.3755 H   0  0  0  0  0  0  0  0  0  0  0  0
   40.7522   25.6739   44.9389 H   0  0  0  0  0  0  0  0  0  0  0  0
   40.2040   24.1780   42.6222 H   0  0  0  0  0  0  0  0  0  0  0  0
   39.0988   24.2985   43.9832 H   0  0  0  0  0  0  0  0  0  0  0  0
   37.7833   25.2398   42.1447 H   0  0  0  0  0  0  0  0  0  0  0  0
   39.4118   29.5417   42.6310 H   0  0  0  0  0  0  0  0  0  0  0  0
   36.0803   26.7674   42.2513 H   0  0  0  0  0  0  0  0  0  0  0  0
   35.8824   30.7103   40.5988 H   0  0  0  0  0  0  0  0  0  0  0  0
   41.0133   27.1275   41.0547 H   0  0  0  0  0  0  0  0  0  0  0  0
   41.1617   27.1860   38.5705 H   0  0  0  0  0  0  0  0  0  0  0  0
   39.0552   25.8690   37.2663 H   0  0  0  0  0  0  0  0  0  0  0  0
  1  2  1  0
  2  3  1  0
  4  3  1  0
  5  4  1  0
  5  1  1  0
  6  7  2  0
  7  1  1  0
  8  7  1  0
  9  8  2  0
 10  9  1  0
 10 11  2  0
 11  6  1  0
 12  5  1  0
 13 12  2  0
 14 13  1  0
 15 14  2  0
 15 16  1  0
 16 12  1  0
  1 17  1  1
  2 18  1  0
  2 19  1  0
  3 20  1  0
  3 21  1  0
  4 22  1  0
  4 23  1  0
  5 24  1  6
  6 25  1  0
  8 26  1  0
 10 27  1  0
 13 28  1  0
 14 29  1  0
 15 30  1  0
M  ISO  8  17  13  18  13  19  13  20  13  21  13  22  13  23  13  24  13
M  ISO  6  25  14  26  14  27  14  28  14  29  14  30  14
M  END
>  <minimizedAffinity>  (1) 
-4.09113932

>  <minimizedRMSD>  (1) 
0.298184395

$$$$
