
     RDKit          3D

 29 30  0  0  1  0  0  0  0  0999 V2000
   38.7630   27.1380   43.2050 C   0  0  2  0  0  0  0  0  0  0  0  0
   40.1510   27.4690   43.5230 C   0  0  0  0  0  0  0  0  0  0  0  0
   40.7550   26.0950   43.8710 C   0  0  0  0  0  0  0  0  0  0  0  0
   39.7210   25.0710   43.4570 C   0  0  0  0  0  0  0  0  0  0  0  0
   38.8870   25.8490   42.4160 C   0  0  2  0  0  0  0  0  0  0  0  0
   38.3770   29.4790   42.2900 C   0  0  0  0  0  0  0  0  0  0  0  0
   37.9670   28.1330   42.5150 C   0  0  0  0  0  0  0  0  0  0  0  0
   36.6990   27.7130   42.0300 C   0  0  0  0  0  0  0  0  0  0  0  0
   35.9530   28.6370   41.3740 N   0  0  0  0  0  0  0  0  0  0  0  0
   36.3760   29.9230   41.1740 C   0  0  0  0  0  0  0  0  0  0  0  0
   37.5970   30.3300   41.6410 N   0  0  0  0  0  0  0  0  0  0  0  0
   39.7810   25.9160   41.2360 C   0  0  0  0  0  0  0  0  0  0  0  0
   39.8230   24.7410   40.3320 C   0  0  0  0  0  0  0  0  0  0  0  0
   38.1857   27.0625   44.1383 H   0  0  0  0  0  0  0  0  0  0  0  0
   40.6600   27.9185   42.6576 H   0  0  0  0  0  0  0  0  0  0  0  0
   40.2495   28.2071   44.3326 H   0  0  0  0  0  0  0  0  0  0  0  0
   41.6924   25.9377   43.3173 H   0  0  0  0  0  0  0  0  0  0  0  0
   40.9935   26.0181   44.9421 H   0  0  0  0  0  0  0  0  0  0  0  0
   40.1946   24.1859   43.0072 H   0  0  0  0  0  0  0  0  0  0  0  0
   39.1261   24.6812   44.2961 H   0  0  0  0  0  0  0  0  0  0  0  0
   37.9135   25.4900   42.0508 H   0  0  0  0  0  0  0  0  0  0  0  0
   39.3561   29.8163   42.6610 H   0  0  0  0  0  0  0  0  0  0  0  0
   36.3384   26.6846   42.1798 H   0  0  0  0  0  0  0  0  0  0  0  0
   35.7317   30.6334   40.6353 H   0  0  0  0  0  0  0  0  0  0  0  0
   39.4659   26.7814   40.6346 H   0  0  0  0  0  0  0  0  0  0  0  0
   40.7944   25.9756   41.6596 H   0  0  0  0  0  0  0  0  0  0  0  0
   39.8560   23.8188   40.9307 H   0  0  0  0  0  0  0  0  0  0  0  0
   38.9245   24.7343   39.6974 H   0  0  0  0  0  0  0  0  0  0  0  0
   40.7197   24.7985   39.6974 H   0  0  0  0  0  0  0  0  0  0  0  0
  1  2  1  0
  2  3  1  0
  4  3  1  0
  5  1  1  0
  5  4  1  0
  6  7  2  0
  7  1  1  0
  8  7  1  0
  9  8  2  0
 10  9  1  0
 10 11  2  0
 11  6  1  0
 12  5  1  0
 13 12  1  0
  1 14  1  1
  2 15  1  0
  2 16  1  0
  3 17  1  0
  3 18  1  0
  4 19  1  0
  4 20  1  0
  5 21  1  6
  6 22  1  0
  8 23  1  0
 10 24  1  0
 12 25  1  0
 12 26  1  0
 13 27  1  0
 13 28  1  0
 13 29  1  0
M  ISO  8  14  13  15  13  16  13  17  13  18  13  19  13  20  13  21  13
M  ISO  8  22  14  23  14  24  14  25   8  26   8  27   8  28   8  29   8
M  END
>  <minimizedAffinity>  (1) 
-3.86714411

>  <minimizedRMSD>  (1) 
0.579399586

$$$$
