
     RDKit          3D

 42 46  0  0  1  0  0  0  0  0999 V2000
   38.0710   27.4560   42.7870 C   0  0  2  0  0  0  0  0  0  0  0  0
   39.1440   27.8960   43.6880 C   0  0  0  0  0  0  0  0  0  0  0  0
   39.9840   26.6520   43.9280 C   0  0  0  0  0  0  0  0  0  0  0  0
   39.5630   25.6610   42.8990 C   0  0  0  0  0  0  0  0  0  0  0  0
   38.7240   26.4380   41.8750 C   0  0  1  0  0  0  0  0  0  0  0  0
   37.9500   29.7950   41.7740 C   0  0  0  0  0  0  0  0  0  0  0  0
   37.4040   28.5070   42.0370 C   0  0  0  0  0  0  0  0  0  0  0  0
   36.1330   28.2060   41.5370 C   0  0  0  0  0  0  0  0  0  0  0  0
   35.4720   29.1780   40.8140 N   0  0  0  0  0  0  0  0  0  0  0  0
   36.0300   30.4110   40.5790 C   0  0  0  0  0  0  0  0  0  0  0  0
   37.2770   30.7070   41.0700 N   0  0  0  0  0  0  0  0  0  0  0  0
   37.7770   25.3820   41.4090 C   0  0  0  0  0  0  0  0  0  0  0  0
   36.8370   24.8340   42.1720 N   0  0  0  0  0  0  0  0  0  0  0  0
   36.2080   23.9550   41.4380 O   0  0  0  0  0  0  0  0  0  0  0  0
   36.7380   23.9370   40.2150 C   0  0  0  0  0  0  0  0  0  0  0  0
   37.7130   24.8210   40.1870 N   0  0  0  0  0  0  0  0  0  0  0  0
   36.0910   22.9670   39.2990 C   0  0  0  0  0  0  0  0  0  0  0  0
   35.0150   23.2220   38.5410 N   0  0  0  0  0  0  0  0  0  0  0  0
   34.4730   22.3100   37.7330 C   0  0  0  0  0  0  0  0  0  0  0  0
   34.9630   21.0530   37.6140 N   0  0  0  0  0  0  0  0  0  0  0  0
   36.0610   20.7090   38.3520 C   0  0  0  0  0  0  0  0  0  0  0  0
   36.5530   19.4310   38.2250 C   0  0  0  0  0  0  0  0  0  0  0  0
   37.6550   19.0500   38.9530 C   0  0  0  0  0  0  0  0  0  0  0  0
   38.2230   19.9850   39.7910 C   0  0  0  0  0  0  0  0  0  0  0  0
   37.6770   21.2400   39.8660 C   0  0  0  0  0  0  0  0  0  0  0  0
   36.5890   21.6870   39.1760 C   0  0  0  0  0  0  0  0  0  0  0  0
   37.2430   27.0427   43.3816 H   0  0  0  0  0  0  0  0  0  0  0  0
   39.7470   28.6856   43.2159 H   0  0  0  0  0  0  0  0  0  0  0  0
   38.7522   28.3195   44.6245 H   0  0  0  0  0  0  0  0  0  0  0  0
   41.0529   26.8864   43.8167 H   0  0  0  0  0  0  0  0  0  0  0  0
   39.8378   26.2599   44.9453 H   0  0  0  0  0  0  0  0  0  0  0  0
   40.4447   25.2184   42.4125 H   0  0  0  0  0  0  0  0  0  0  0  0
   38.9874   24.8376   43.3470 H   0  0  0  0  0  0  0  0  0  0  0  0
   39.1934   26.9278   41.0091 H   0  0  0  0  0  0  0  0  0  0  0  0
   38.9495   30.0441   42.1599 H   0  0  0  0  0  0  0  0  0  0  0  0
   35.6734   27.2226   41.7150 H   0  0  0  0  0  0  0  0  0  0  0  0
   35.4766   31.1622   39.9964 H   0  0  0  0  0  0  0  0  0  0  0  0
   33.5911   22.5904   37.1383 H   0  0  0  0  0  0  0  0  0  0  0  0
   36.0669   18.7170   37.5440 H   0  0  0  0  0  0  0  0  0  0  0  0
   38.0690   18.0343   38.8696 H   0  0  0  0  0  0  0  0  0  0  0  0
   39.1060   19.7267   40.3939 H   0  0  0  0  0  0  0  0  0  0  0  0
   38.1624   21.9543   40.5473 H   0  0  0  0  0  0  0  0  0  0  0  0
  1  2  1  0
  2  3  1  0
  4  3  1  0
  5  1  1  0
  5  4  1  0
  6  7  2  0
  7  1  1  0
  8  7  1  0
  9  8  2  0
 10  9  1  0
 10 11  2  0
 11  6  1  0
 12  5  1  0
 12 13  2  0
 14 13  1  0
 15 14  1  0
 16 15  2  0
 16 12  1  0
 17 15  1  0
 18 17  2  0
 19 18  1  0
 20 19  2  0
 20 21  1  0
 21 26  2  0
 22 21  1  0
 22 23  2  0
 23 24  1  0
 24 25  2  0
 26 17  1  0
 26 25  1  0
  1 27  1  1
  2 28  1  0
  2 29  1  0
  3 30  1  0
  3 31  1  0
  4 32  1  0
  4 33  1  0
  5 34  1  6
  6 35  1  0
  8 36  1  0
 10 37  1  0
 19 38  1  0
 22 39  1  0
 23 40  1  0
 24 41  1  0
 25 42  1  0
M  ISO  8  27  13  28  13  29  13  30  13  31  13  32  13  33  13  34  13
M  ISO  8  35  14  36  14  37  14  38  14  39  14  40  14  41  14  42  14
M  END
>  <minimizedAffinity>  (1) 
-5.36850929

>  <minimizedRMSD>  (1) 
1.41949916

$$$$
