
     RDKit          3D

 44 48  0  0  0  0  0  0  0  0999 V2000
   37.5660   28.6030   43.8130 C   0  0  0  0  0  0  0  0  0  0  0  0
   37.1340   27.2570   43.7460 C   0  0  0  0  0  0  0  0  0  0  0  0
   36.7890   26.7440   42.5090 C   0  0  0  0  0  0  0  0  0  0  0  0
   36.8880   27.5670   41.4280 N   0  0  0  0  0  0  0  0  0  0  0  0
   37.3010   28.8420   41.5130 C   0  0  0  0  0  0  0  0  0  0  0  0
   37.6390   29.3620   42.7000 N   0  0  0  0  0  0  0  0  0  0  0  0
   37.3550   29.5910   40.2960 N   0  0  0  0  0  0  0  0  0  0  0  0
   37.0250   29.0700   39.1170 C   0  0  0  0  0  0  0  0  0  0  0  0
   37.1350   29.9300   38.0520 C   0  0  0  0  0  0  0  0  0  0  0  0
   37.5460   31.2370   38.1300 C   0  0  0  0  0  0  0  0  0  0  0  0
   37.6460   32.0260   37.1590 O   0  0  0  0  0  0  0  0  0  0  0  0
   37.8730   31.7220   39.3580 N   0  0  0  0  0  0  0  0  0  0  0  0
   37.7730   30.8830   40.4470 C   0  0  0  0  0  0  0  0  0  0  0  0
   38.0850   31.3750   41.5670 O   0  0  0  0  0  0  0  0  0  0  0  0
   38.3170   33.0710   39.5680 C   0  0  0  0  0  0  0  0  0  0  0  0
   37.6910   34.2810   39.7390 C   0  0  0  0  0  0  0  0  0  0  0  0
   38.6310   35.2410   39.9000 N   0  0  0  0  0  0  0  0  0  0  0  0
   39.8480   34.6560   39.8340 C   0  0  0  0  0  0  0  0  0  0  0  0
   41.1160   35.2060   39.9400 C   0  0  0  0  0  0  0  0  0  0  0  0
   42.2670   34.4280   39.8430 C   0  0  0  0  0  0  0  0  0  0  0  0
   42.0920   33.0920   39.6390 C   0  0  0  0  0  0  0  0  0  0  0  0
   40.8320   32.5510   39.5350 C   0  0  0  0  0  0  0  0  0  0  0  0
   39.6820   33.3030   39.6270 C   0  0  0  0  0  0  0  0  0  0  0  0
   36.8010   29.4830   36.6900 C   0  0  0  0  0  0  0  0  0  0  0  0
   35.3530   29.2170   36.4390 C   0  0  0  0  0  0  0  0  0  0  0  0
   34.9760   28.8990   34.9750 C   0  0  0  0  0  0  0  0  0  0  0  0
   34.8340   27.8940   36.0550 C   0  0  0  0  0  0  0  0  0  0  0  0
   37.8458   29.0358   44.7848 H   0  0  0  0  0  0  0  0  0  0  0  0
   37.0743   26.6364   44.6523 H   0  0  0  0  0  0  0  0  0  0  0  0
   36.4456   25.7045   42.4014 H   0  0  0  0  0  0  0  0  0  0  0  0
   36.6893   28.0286   39.0039 H   0  0  0  0  0  0  0  0  0  0  0  0
   36.6031   34.4435   39.7443 H   0  0  0  0  0  0  0  0  0  0  0  0
   38.4504   36.2443   40.0474 H   0  0  0  0  0  0  0  0  0  0  0  0
   41.2160   36.2889   40.1056 H   0  0  0  0  0  0  0  0  0  0  0  0
   43.2703   34.8711   39.9271 H   0  0  0  0  0  0  0  0  0  0  0  0
   42.9716   32.4367   39.5563 H   0  0  0  0  0  0  0  0  0  0  0  0
   40.7384   31.4674   39.3707 H   0  0  0  0  0  0  0  0  0  0  0  0
   37.1294   30.2627   35.9870 H   0  0  0  0  0  0  0  0  0  0  0  0
   37.3138   28.5195   36.5535 H   0  0  0  0  0  0  0  0  0  0  0  0
   35.0685   29.9236   37.2326 H   0  0  0  0  0  0  0  0  0  0  0  0
   35.7601   28.7866   34.2118 H   0  0  0  0  0  0  0  0  0  0  0  0
   34.3123   29.3418   34.2177 H   0  0  0  0  0  0  0  0  0  0  0  0
   33.8290   27.5906   36.3834 H   0  0  0  0  0  0  0  0  0  0  0  0
   35.2017   26.8659   36.1888 H   0  0  0  0  0  0  0  0  0  0  0  0
  2  1  2  0
  3  2  1  0
  4  5  1  0
  4  3  2  0
  5  6  2  0
  6  1  1  0
  7 13  1  0
  7  5  1  0
  8  7  1  0
  9 10  1  0
  9  8  2  0
 10 12  1  0
 11 10  2  0
 12 15  1  0
 12 13  1  0
 13 14  2  0
 15 23  1  0
 15 16  2  0
 16 17  1  0
 18 17  1  0
 18 19  2  0
 20 19  1  0
 21 20  2  0
 22 23  2  0
 22 21  1  0
 23 18  1  0
 24  9  1  0
 25 24  1  0
 26 27  1  0
 26 25  1  0
 27 25  1  0
  1 28  1  0
  2 29  1  0
  3 30  1  0
  8 31  1  0
 16 32  1  0
 17 33  1  0
 19 34  1  0
 20 35  1  0
 21 36  1  0
 22 37  1  0
 24 38  1  0
 24 39  1  0
 25 40  1  0
 26 41  1  0
 26 42  1  0
 27 43  1  0
 27 44  1  0
M  ISO  8  28  14  29  14  30  14  31  14  32  14  33   9  34  14  35  14
M  ISO  8  36  14  37  14  38   8  39   8  40  13  41  13  42  13  43  13
M  ISO  1  44  13
M  END
>  <minimizedAffinity>  (1) 
-6.39130735

>  <minimizedRMSD>  (1) 
0.527154267

$$$$
