
     RDKit          3D

 34 37  0  0  1  0  0  0  0  0999 V2000
   37.9510   27.3670   42.7370 C   0  0  2  0  0  0  0  0  0  0  0  0
   39.0340   27.6640   43.6810 C   0  0  0  0  0  0  0  0  0  0  0  0
   39.7590   26.3410   43.8610 C   0  0  0  0  0  0  0  0  0  0  0  0
   39.3100   25.4720   42.7420 C   0  0  0  0  0  0  0  0  0  0  0  0
   38.5650   26.3730   41.7690 C   0  0  1  0  0  0  0  0  0  0  0  0
   37.9900   29.7770   41.9160 C   0  0  0  0  0  0  0  0  0  0  0  0
   37.3670   28.5130   42.0550 C   0  0  0  0  0  0  0  0  0  0  0  0
   36.1080   28.3370   41.4950 C   0  0  0  0  0  0  0  0  0  0  0  0
   35.5250   29.3990   40.8340 N   0  0  0  0  0  0  0  0  0  0  0  0
   36.1600   30.6140   40.7210 C   0  0  0  0  0  0  0  0  0  0  0  0
   37.4140   30.7910   41.2760 N   0  0  0  0  0  0  0  0  0  0  0  0
   37.5750   25.4260   41.1760 C   0  0  0  0  0  0  0  0  0  0  0  0
   36.8940   24.5360   41.9150 N   0  0  0  0  0  0  0  0  0  0  0  0
   36.1010   23.8780   41.0920 O   0  0  0  0  0  0  0  0  0  0  0  0
   36.2920   24.3600   39.8550 C   0  0  0  0  0  0  0  0  0  0  0  0
   37.2000   25.3210   39.8670 N   0  0  0  0  0  0  0  0  0  0  0  0
   35.5350   23.8200   38.6890 C   0  0  0  0  0  0  0  0  0  0  0  0
   34.4480   22.9240   38.9060 C   0  0  0  0  0  0  0  0  0  0  0  0
   33.9090   22.5980   37.1610 S   0  0  0  0  0  0  0  0  0  0  0  0
   35.2050   23.6930   36.4650 C   0  0  0  0  0  0  0  0  0  0  0  0
   35.8690   24.1700   37.4570 N   0  0  0  0  0  0  0  0  0  0  0  0
   37.0794   26.9740   43.2810 H   0  0  0  0  0  0  0  0  0  0  0  0
   39.7119   28.4252   43.2673 H   0  0  0  0  0  0  0  0  0  0  0  0
   38.6586   28.0669   44.6332 H   0  0  0  0  0  0  0  0  0  0  0  0
   40.8475   26.4923   43.8143 H   0  0  0  0  0  0  0  0  0  0  0  0
   39.5342   25.8881   44.8379 H   0  0  0  0  0  0  0  0  0  0  0  0
   40.1775   25.0120   42.2462 H   0  0  0  0  0  0  0  0  0  0  0  0
   38.6652   24.6577   43.1042 H   0  0  0  0  0  0  0  0  0  0  0  0
   39.0956   26.8977   40.9608 H   0  0  0  0  0  0  0  0  0  0  0  0
   38.9880   29.9261   42.3538 H   0  0  0  0  0  0  0  0  0  0  0  0
   35.5868   27.3717   41.5767 H   0  0  0  0  0  0  0  0  0  0  0  0
   35.6708   31.4437   40.1898 H   0  0  0  0  0  0  0  0  0  0  0  0
   34.0403   22.5328   39.8498 H   0  0  0  0  0  0  0  0  0  0  0  0
   35.3810   23.9022   35.3995 H   0  0  0  0  0  0  0  0  0  0  0  0
  1  2  1  0
  2  3  1  0
  4  3  1  0
  5  1  1  0
  5  4  1  0
  6  7  2  0
  7  1  1  0
  8  7  1  0
  9  8  2  0
 10  9  1  0
 10 11  2  0
 11  6  1  0
 12  5  1  0
 12 13  2  0
 14 13  1  0
 15 16  2  0
 15 14  1  0
 16 12  1  0
 17 18  2  0
 17 15  1  0
 19 18  1  0
 20 19  1  0
 20 21  2  0
 21 17  1  0
  1 22  1  1
  2 23  1  0
  2 24  1  0
  3 25  1  0
  3 26  1  0
  4 27  1  0
  4 28  1  0
  5 29  1  6
  6 30  1  0
  8 31  1  0
 10 32  1  0
 18 33  1  0
 20 34  1  0
M  ISO  8  22  13  23  13  24  13  25  13  26  13  27  13  28  13  29  13
M  ISO  5  30  14  31  14  32  14  33  14  34  14
M  END
>  <minimizedAffinity>  (1) 
-4.79054213

>  <minimizedRMSD>  (1) 
0.657916248

$$$$
