
     RDKit          3D

 29 31  0  0  1  0  0  0  0  0999 V2000
   38.1340   26.9790   42.7760 C   0  0  2  0  0  0  0  0  0  0  0  0
   39.2390   27.0940   43.7330 C   0  0  0  0  0  0  0  0  0  0  0  0
   39.8700   25.7140   43.7730 C   0  0  0  0  0  0  0  0  0  0  0  0
   39.3330   24.9760   42.5880 C   0  0  0  0  0  0  0  0  0  0  0  0
   38.6590   26.0330   41.7110 C   0  0  1  0  0  0  0  0  0  0  0  0
   38.3990   29.4210   42.1170 C   0  0  0  0  0  0  0  0  0  0  0  0
   37.6360   28.2230   42.2070 C   0  0  0  0  0  0  0  0  0  0  0  0
   36.3400   28.2170   41.7190 C   0  0  0  0  0  0  0  0  0  0  0  0
   35.8480   29.3780   41.1680 N   0  0  0  0  0  0  0  0  0  0  0  0
   36.6060   30.5260   41.0930 C   0  0  0  0  0  0  0  0  0  0  0  0
   37.8900   30.5280   41.5770 N   0  0  0  0  0  0  0  0  0  0  0  0
   37.5940   25.2310   41.0450 C   0  0  0  0  0  0  0  0  0  0  0  0
   36.8200   24.3520   41.7100 N   0  0  0  0  0  0  0  0  0  0  0  0
   35.9970   23.8230   40.8300 O   0  0  0  0  0  0  0  0  0  0  0  0
   36.2470   24.3550   39.6480 C   0  0  0  0  0  0  0  0  0  0  0  0
   37.2350   25.2380   39.7380 N   0  0  0  0  0  0  0  0  0  0  0  0
   35.2890   23.8410   38.2270 S   0  0  0  0  0  0  0  0  0  0  0  0
   37.2372   26.6121   43.2967 H   0  0  0  0  0  0  0  0  0  0  0  0
   39.9690   27.8431   43.3924 H   0  0  0  0  0  0  0  0  0  0  0  0
   38.8936   27.4191   44.7255 H   0  0  0  0  0  0  0  0  0  0  0  0
   40.9653   25.7933   43.7088 H   0  0  0  0  0  0  0  0  0  0  0  0
   39.6335   25.1918   44.7118 H   0  0  0  0  0  0  0  0  0  0  0  0
   40.1506   24.4866   42.0385 H   0  0  0  0  0  0  0  0  0  0  0  0
   38.6271   24.1873   42.8873 H   0  0  0  0  0  0  0  0  0  0  0  0
   39.2279   26.5890   40.9513 H   0  0  0  0  0  0  0  0  0  0  0  0
   39.4297   29.4335   42.5009 H   0  0  0  0  0  0  0  0  0  0  0  0
   35.7209   27.3092   41.7704 H   0  0  0  0  0  0  0  0  0  0  0  0
   36.1832   31.4381   40.6465 H   0  0  0  0  0  0  0  0  0  0  0  0
   34.1405   23.2248   38.6492 H   0  0  0  0  0  0  0  0  0  0  0  0
  1  2  1  0
  2  3  1  0
  4  3  1  0
  5  4  1  0
  5  1  1  0
  6  7  2  0
  7  1  1  0
  8  7  1  0
  9  8  2  0
 10  9  1  0
 10 11  2  0
 11  6  1  0
 12 13  2  0
 12  5  1  0
 14 13  1  0
 15 16  2  0
 15 14  1  0
 16 12  1  0
 17 15  1  0
  1 18  1  1
  2 19  1  0
  2 20  1  0
  3 21  1  0
  3 22  1  0
  4 23  1  0
  4 24  1  0
  5 25  1  6
  6 26  1  0
  8 27  1  0
 10 28  1  0
 17 29  1  0
M  ISO  8  18  13  19  13  20  13  21  13  22  13  23  13  24  13  25  13
M  ISO  4  26  14  27  14  28  14  29  11
M  END
>  <minimizedAffinity>  (1) 
-4.58727264

>  <minimizedRMSD>  (1) 
0.210285217

$$$$
