
     RDKit          3D

 44 48  0  0  0  0  0  0  0  0999 V2000
   37.6600   28.6920   43.9260 C   0  0  0  0  0  0  0  0  0  0  0  0
   37.0500   27.4330   43.9220 C   0  0  0  0  0  0  0  0  0  0  0  0
   36.5140   26.9710   42.7160 C   0  0  0  0  0  0  0  0  0  0  0  0
   36.6160   27.7700   41.6190 N   0  0  0  0  0  0  0  0  0  0  0  0
   37.2110   28.9790   41.6580 C   0  0  0  0  0  0  0  0  0  0  0  0
   37.7350   29.4460   42.8050 N   0  0  0  0  0  0  0  0  0  0  0  0
   37.2550   29.7220   40.4400 N   0  0  0  0  0  0  0  0  0  0  0  0
   36.7560   29.2450   39.2990 C   0  0  0  0  0  0  0  0  0  0  0  0
   36.8790   30.0880   38.2170 C   0  0  0  0  0  0  0  0  0  0  0  0
   37.4630   31.3320   38.2640 C   0  0  0  0  0  0  0  0  0  0  0  0
   37.5720   32.0990   37.2680 O   0  0  0  0  0  0  0  0  0  0  0  0
   37.9540   31.7650   39.4530 N   0  0  0  0  0  0  0  0  0  0  0  0
   37.8490   30.9510   40.5510 C   0  0  0  0  0  0  0  0  0  0  0  0
   38.3180   31.3940   41.6290 O   0  0  0  0  0  0  0  0  0  0  0  0
   38.5840   33.0520   39.6040 C   0  0  0  0  0  0  0  0  0  0  0  0
   38.1430   34.3170   39.9060 C   0  0  0  0  0  0  0  0  0  0  0  0
   39.2260   35.1410   39.9030 N   0  0  0  0  0  0  0  0  0  0  0  0
   40.3340   34.4260   39.6080 C   0  0  0  0  0  0  0  0  0  0  0  0
   41.6410   34.8270   39.4950 C   0  0  0  0  0  0  0  0  0  0  0  0
   42.6540   33.9240   39.1780 C   0  0  0  0  0  0  0  0  0  0  0  0
   42.2930   32.6170   38.9850 C   0  0  0  0  0  0  0  0  0  0  0  0
   40.9840   32.2400   39.1050 C   0  0  0  0  0  0  0  0  0  0  0  0
   39.9620   33.1020   39.4140 C   0  0  0  0  0  0  0  0  0  0  0  0
   36.3710   29.6890   36.9000 C   0  0  0  0  0  0  0  0  0  0  0  0
   36.5440   28.2840   36.5740 C   0  0  0  0  0  0  0  0  0  0  0  0
   35.7050   27.0870   36.4300 C   0  0  0  0  0  0  0  0  0  0  0  0
   36.3720   25.9460   36.1020 C   0  0  0  0  0  0  0  0  0  0  0  0
   37.7720   25.8950   35.9080 C   0  0  0  0  0  0  0  0  0  0  0  0
   38.2850   27.6310   36.2100 S   0  0  0  0  0  0  0  0  0  0  0  0
   38.0888   29.0780   44.8626 H   0  0  0  0  0  0  0  0  0  0  0  0
   36.9939   26.8263   44.8378 H   0  0  0  0  0  0  0  0  0  0  0  0
   36.0232   25.9884   42.6556 H   0  0  0  0  0  0  0  0  0  0  0  0
   36.2827   28.2546   39.2276 H   0  0  0  0  0  0  0  0  0  0  0  0
   37.1033   34.6108   40.1127 H   0  0  0  0  0  0  0  0  0  0  0  0
   39.2045   36.1526   40.0957 H   0  0  0  0  0  0  0  0  0  0  0  0
   41.8951   35.8847   39.6582 H   0  0  0  0  0  0  0  0  0  0  0  0
   43.7012   34.2479   39.0865 H   0  0  0  0  0  0  0  0  0  0  0  0
   43.0583   31.8683   38.7327 H   0  0  0  0  0  0  0  0  0  0  0  0
   40.7350   31.1807   38.9439 H   0  0  0  0  0  0  0  0  0  0  0  0
   35.2954   29.9171   36.8659 H   0  0  0  0  0  0  0  0  0  0  0  0
   36.9608   30.2505   36.1605 H   0  0  0  0  0  0  0  0  0  0  0  0
   34.6151   27.1106   36.5767 H   0  0  0  0  0  0  0  0  0  0  0  0
   35.7934   25.0182   35.9820 H   0  0  0  0  0  0  0  0  0  0  0  0
   38.3976   25.0301   35.6423 H   0  0  0  0  0  0  0  0  0  0  0  0
  2  1  2  0
  3  2  1  0
  4  5  1  0
  4  3  2  0
  5  6  2  0
  6  1  1  0
  7 13  1  0
  7  5  1  0
  8  7  1  0
  9 10  1  0
  9  8  2  0
 10 12  1  0
 11 10  2  0
 12 15  1  0
 12 13  1  0
 13 14  2  0
 15 16  2  0
 17 16  1  0
 18 17  1  0
 19 18  2  0
 20 19  1  0
 21 22  1  0
 21 20  2  0
 22 23  2  0
 23 15  1  0
 23 18  1  0
 24  9  1  0
 25 24  1  0
 26 25  2  0
 27 26  1  0
 28 27  2  0
 28 29  1  0
 29 25  1  0
  1 30  1  0
  2 31  1  0
  3 32  1  0
  8 33  1  0
 16 34  1  0
 17 35  1  0
 19 36  1  0
 20 37  1  0
 21 38  1  0
 22 39  1  0
 24 40  1  0
 24 41  1  0
 26 42  1  0
 27 43  1  0
 28 44  1  0
M  ISO  8  30  14  31  14  32  14  33  14  34  14  35   9  36  14  37  14
M  ISO  7  38  14  39  14  40   8  41   8  42  14  43  14  44  14
M  END
>  <minimizedAffinity>  (1) 
-6.36738253

>  <minimizedRMSD>  (1) 
1.47145581

$$$$
