
     RDKit          3D

 33 35  0  0  1  0  0  0  0  0999 V2000
   38.9140   27.2150   42.7840 C   0  0  2  0  0  0  0  0  0  0  0  0
   40.0800   27.3570   43.6370 C   0  0  0  0  0  0  0  0  0  0  0  0
   40.5770   25.9330   43.8710 C   0  0  0  0  0  0  0  0  0  0  0  0
   39.8860   25.0810   42.8430 C   0  0  0  0  0  0  0  0  0  0  0  0
   39.2470   26.0430   41.8590 C   0  0  1  0  0  0  0  0  0  0  0  0
   39.1440   28.8610   40.8650 C   0  0  0  0  0  0  0  0  0  0  0  0
   38.4830   28.3840   42.0400 C   0  0  0  0  0  0  0  0  0  0  0  0
   37.3620   29.0560   42.4990 C   0  0  0  0  0  0  0  0  0  0  0  0
   36.9390   30.1640   41.7890 N   0  0  0  0  0  0  0  0  0  0  0  0
   37.5980   30.6030   40.6580 C   0  0  0  0  0  0  0  0  0  0  0  0
   38.7160   29.9320   40.2010 N   0  0  0  0  0  0  0  0  0  0  0  0
   37.0790   31.7820   39.9760 C   0  0  0  0  0  0  0  0  0  0  0  0
   37.6050   32.8640   40.3060 O   0  0  0  0  0  0  0  0  0  0  0  0
   38.0500   25.2740   41.4120 C   0  0  0  0  0  0  0  0  0  0  0  0
   37.2100   24.6680   42.2870 N   0  0  0  0  0  0  0  0  0  0  0  0
   36.2670   24.0840   41.5800 O   0  0  0  0  0  0  0  0  0  0  0  0
   36.4980   24.3110   40.3080 C   0  0  0  0  0  0  0  0  0  0  0  0
   37.6060   25.0510   40.1610 N   0  0  0  0  0  0  0  0  0  0  0  0
   35.5900   23.7710   39.2400 C   0  0  0  0  0  0  0  0  0  0  0  0
   34.4960   23.1880   39.8310 F   0  0  0  0  0  0  0  0  0  0  0  0
   35.1880   24.7920   38.3930 F   0  0  0  0  0  0  0  0  0  0  0  0
   36.2610   22.8050   38.4930 F   0  0  0  0  0  0  0  0  0  0  0  0
   38.0365   27.0486   43.4262 H   0  0  0  0  0  0  0  0  0  0  0  0
   40.8533   27.9587   43.1370 H   0  0  0  0  0  0  0  0  0  0  0  0
   39.8408   27.8703   44.5800 H   0  0  0  0  0  0  0  0  0  0  0  0
   41.6679   25.8821   43.7394 H   0  0  0  0  0  0  0  0  0  0  0  0
   40.3564   25.5912   44.8930 H   0  0  0  0  0  0  0  0  0  0  0  0
   40.6146   24.4371   42.3288 H   0  0  0  0  0  0  0  0  0  0  0  0
   39.1360   24.4225   43.3055 H   0  0  0  0  0  0  0  0  0  0  0  0
   39.8010   26.3977   40.9774 H   0  0  0  0  0  0  0  0  0  0  0  0
   40.0330   28.3265   40.4990 H   0  0  0  0  0  0  0  0  0  0  0  0
   36.8262   28.7191   43.3987 H   0  0  0  0  0  0  0  0  0  0  0  0
   36.2794   31.7219   39.2230 H   0  0  0  0  0  0  0  0  0  0  0  0
  1  2  1  0
  2  3  1  0
  4  3  1  0
  5  1  1  0
  5  4  1  0
  6  7  2  0
  7  8  1  0
  7  1  1  0
  9  8  2  0
 10  9  1  0
 11 10  2  0
 11  6  1  0
 12 13  2  0
 12 10  1  0
 14  5  1  0
 14 15  2  0
 16 15  1  0
 17 16  1  0
 18 17  2  0
 18 14  1  0
 19 20  1  0
 19 17  1  0
 21 19  1  0
 22 19  1  0
  1 23  1  1
  2 24  1  0
  2 25  1  0
  3 26  1  0
  3 27  1  0
  4 28  1  0
  4 29  1  0
  5 30  1  6
  6 31  1  0
  8 32  1  0
 12 33  1  0
M  ISO  8  23  13  24  13  25  13  26  13  27  13  28  13  29  13  30  13
M  ISO  3  31  14  32  14  33   6
M  END
>  <minimizedAffinity>  (1) 
-4.94856358

>  <minimizedRMSD>  (1) 
1.28813183

$$$$
