
     RDKit          3D

 38 41  0  0  0  0  0  0  0  0999 V2000
   37.5550   28.5620   43.7570 C   0  0  0  0  0  0  0  0  0  0  0  0
   37.1340   27.2130   43.6820 C   0  0  0  0  0  0  0  0  0  0  0  0
   36.8140   26.7050   42.4320 C   0  0  0  0  0  0  0  0  0  0  0  0
   36.9220   27.5340   41.3580 N   0  0  0  0  0  0  0  0  0  0  0  0
   37.3230   28.8060   41.4570 C   0  0  0  0  0  0  0  0  0  0  0  0
   37.6400   29.3260   42.6480 N   0  0  0  0  0  0  0  0  0  0  0  0
   37.3890   29.5670   40.2500 N   0  0  0  0  0  0  0  0  0  0  0  0
   37.0810   29.0450   39.0530 C   0  0  0  0  0  0  0  0  0  0  0  0
   37.1970   29.9110   38.0010 C   0  0  0  0  0  0  0  0  0  0  0  0
   37.5950   31.2290   38.0920 C   0  0  0  0  0  0  0  0  0  0  0  0
   37.6960   32.0120   37.1120 O   0  0  0  0  0  0  0  0  0  0  0  0
   37.8950   31.7000   39.3320 N   0  0  0  0  0  0  0  0  0  0  0  0
   37.7920   30.8690   40.4120 C   0  0  0  0  0  0  0  0  0  0  0  0
   38.0810   31.3520   41.5420 O   0  0  0  0  0  0  0  0  0  0  0  0
   38.3190   33.0510   39.5470 C   0  0  0  0  0  0  0  0  0  0  0  0
   37.6690   34.2630   39.7150 C   0  0  0  0  0  0  0  0  0  0  0  0
   38.6010   35.2260   39.8860 N   0  0  0  0  0  0  0  0  0  0  0  0
   39.8340   34.6570   39.8310 C   0  0  0  0  0  0  0  0  0  0  0  0
   41.0920   35.2210   39.9490 C   0  0  0  0  0  0  0  0  0  0  0  0
   42.2470   34.4680   39.8650 C   0  0  0  0  0  0  0  0  0  0  0  0
   42.1010   33.1140   39.6550 C   0  0  0  0  0  0  0  0  0  0  0  0
   40.8460   32.5720   39.5400 C   0  0  0  0  0  0  0  0  0  0  0  0
   39.6840   33.3050   39.6220 C   0  0  0  0  0  0  0  0  0  0  0  0
   36.8920   29.4750   36.6220 C   0  0  0  0  0  0  0  0  0  0  0  0
   37.9560   28.0630   36.1400 S   0  0  0  0  0  0  0  0  0  0  0  0
   37.8169   28.9943   44.7340 H   0  0  0  0  0  0  0  0  0  0  0  0
   37.0630   26.5885   44.5847 H   0  0  0  0  0  0  0  0  0  0  0  0
   36.4827   25.6630   42.3120 H   0  0  0  0  0  0  0  0  0  0  0  0
   36.7598   28.0005   38.9275 H   0  0  0  0  0  0  0  0  0  0  0  0
   36.5796   34.4152   39.7100 H   0  0  0  0  0  0  0  0  0  0  0  0
   38.4087   36.2270   40.0338 H   0  0  0  0  0  0  0  0  0  0  0  0
   41.1751   36.3052   40.1152 H   0  0  0  0  0  0  0  0  0  0  0  0
   43.2408   34.9295   39.9616 H   0  0  0  0  0  0  0  0  0  0  0  0
   42.9889   32.4690   39.5797 H   0  0  0  0  0  0  0  0  0  0  0  0
   40.7636   31.4880   39.3724 H   0  0  0  0  0  0  0  0  0  0  0  0
   35.8371   29.1684   36.5650 H   0  0  0  0  0  0  0  0  0  0  0  0
   37.0831   30.3129   35.9354 H   0  0  0  0  0  0  0  0  0  0  0  0
   38.4256   27.4398   37.2661 H   0  0  0  0  0  0  0  0  0  0  0  0
  2  1  2  0
  3  2  1  0
  4  5  1  0
  4  3  2  0
  5  6  2  0
  6  1  1  0
  7 13  1  0
  7  5  1  0
  8  7  1  0
  9 10  1  0
  9  8  2  0
 10 12  1  0
 11 10  2  0
 12 15  1  0
 12 13  1  0
 13 14  2  0
 15 23  1  0
 15 16  2  0
 16 17  1  0
 18 17  1  0
 18 19  2  0
 20 19  1  0
 21 20  2  0
 22 23  2  0
 22 21  1  0
 23 18  1  0
 24  9  1  0
 25 24  1  0
  1 26  1  0
  2 27  1  0
  3 28  1  0
  8 29  1  0
 16 30  1  0
 17 31  1  0
 19 32  1  0
 20 33  1  0
 21 34  1  0
 22 35  1  0
 24 36  1  0
 24 37  1  0
 25 38  1  0
M  ISO  8  26  14  27  14  28  14  29  14  30  14  31   9  32  14  33  14
M  ISO  5  34  14  35  14  36   8  37   8  38  11
M  END
>  <minimizedAffinity>  (1) 
-6.31297159

>  <minimizedRMSD>  (1) 
0.292517036

$$$$
