
     RDKit          3D

 34 36  0  0  1  0  0  0  0  0999 V2000
   38.8370   27.1720   42.9230 C   0  0  2  0  0  0  0  0  0  0  0  0
   39.9890   27.2770   43.7610 C   0  0  0  0  0  0  0  0  0  0  0  0
   40.6430   25.8850   43.7510 C   0  0  0  0  0  0  0  0  0  0  0  0
   39.9510   25.1120   42.6570 C   0  0  0  0  0  0  0  0  0  0  0  0
   39.2460   26.1430   41.8100 C   0  0  1  0  0  0  0  0  0  0  0  0
   39.1880   29.3020   41.5330 C   0  0  0  0  0  0  0  0  0  0  0  0
   38.3400   28.3940   42.2750 C   0  0  0  0  0  0  0  0  0  0  0  0
   36.9890   28.6710   42.4640 C   0  0  0  0  0  0  0  0  0  0  0  0
   36.5070   29.8370   41.9140 N   0  0  0  0  0  0  0  0  0  0  0  0
   37.3310   30.7050   41.2000 C   0  0  0  0  0  0  0  0  0  0  0  0
   38.6800   30.4200   41.0180 N   0  0  0  0  0  0  0  0  0  0  0  0
   36.7500   31.8850   40.6650 N   0  0  0  0  0  0  0  0  0  0  0  0
   36.1720   27.8310   43.1600 O   0  0  0  0  0  0  0  0  0  0  0  0
   38.0830   25.3690   41.2920 C   0  0  0  0  0  0  0  0  0  0  0  0
   37.3070   24.5850   42.0990 N   0  0  0  0  0  0  0  0  0  0  0  0
   36.3770   24.0470   41.3430 O   0  0  0  0  0  0  0  0  0  0  0  0
   36.5420   24.4590   40.1220 C   0  0  0  0  0  0  0  0  0  0  0  0
   37.5860   25.2760   40.0580 N   0  0  0  0  0  0  0  0  0  0  0  0
   35.6230   24.0090   39.0240 C   0  0  0  0  0  0  0  0  0  0  0  0
   34.5760   23.3130   39.5550 F   0  0  0  0  0  0  0  0  0  0  0  0
   35.1740   25.1010   38.3000 F   0  0  0  0  0  0  0  0  0  0  0  0
   36.3110   23.1580   38.1520 F   0  0  0  0  0  0  0  0  0  0  0  0
   37.9968   26.8844   43.5722 H   0  0  0  0  0  0  0  0  0  0  0  0
   40.6850   28.0300   43.3628 H   0  0  0  0  0  0  0  0  0  0  0  0
   39.7206   27.5908   44.7806 H   0  0  0  0  0  0  0  0  0  0  0  0
   41.7190   25.9692   43.5384 H   0  0  0  0  0  0  0  0  0  0  0  0
   40.5427   25.3843   44.7253 H   0  0  0  0  0  0  0  0  0  0  0  0
   40.6864   24.5588   42.0544 H   0  0  0  0  0  0  0  0  0  0  0  0
   39.2465   24.3728   43.0661 H   0  0  0  0  0  0  0  0  0  0  0  0
   39.7649   26.6378   40.9758 H   0  0  0  0  0  0  0  0  0  0  0  0
   40.2539   29.0683   41.3942 H   0  0  0  0  0  0  0  0  0  0  0  0
   37.3300   32.5486   40.1319 H   0  0  0  0  0  0  0  0  0  0  0  0
   35.7486   32.0774   40.8100 H   0  0  0  0  0  0  0  0  0  0  0  0
   35.2150   28.0558   43.2773 H   0  0  0  0  0  0  0  0  0  0  0  0
  1  2  1  0
  3  2  1  0
  4  3  1  0
  5  4  1  0
  5  1  1  0
  6  7  2  0
  7  8  1  0
  7  1  1  0
  8 13  1  0
  9  8  2  0
 10  9  1  0
 11 10  2  0
 11  6  1  0
 12 10  1  0
 14  5  1  0
 14 15  2  0
 16 15  1  0
 17 16  1  0
 18 17  2  0
 18 14  1  0
 19 20  1  0
 19 17  1  0
 21 19  1  0
 22 19  1  0
  1 23  1  1
  2 24  1  0
  2 25  1  0
  3 26  1  0
  3 27  1  0
  4 28  1  0
  4 29  1  0
  5 30  1  6
  6 31  1  0
 12 32  1  0
 12 33  1  0
 13 34  1  0
M  ISO  8  23  13  24  13  25  13  26  13  27  13  28  13  29  13  30  13
M  ISO  2  31  14  34   3
M  END
>  <minimizedAffinity>  (1) 
-5.58096457

>  <minimizedRMSD>  (1) 
0.634249568

$$$$
