
     RDKit          3D

 33 35  0  0  0  0  0  0  0  0999 V2000
   37.4220   30.4100   40.9780 C   0  0  0  0  0  0  0  0  0  0  0  0
   38.0790   29.2510   40.5850 C   0  0  0  0  0  0  0  0  0  0  0  0
   37.2900   28.2350   41.0590 C   0  0  0  0  0  0  0  0  0  0  0  0
   36.2040   28.7350   41.7090 N   0  0  0  0  0  0  0  0  0  0  0  0
   36.3000   30.0480   41.6510 N   0  0  0  0  0  0  0  0  0  0  0  0
   39.1260   32.2500   41.1260 C   0  0  0  0  0  0  0  0  0  0  0  0
   37.8990   31.7600   40.6890 C   0  0  0  0  0  0  0  0  0  0  0  0
   37.0570   32.5870   39.9310 C   0  0  0  0  0  0  0  0  0  0  0  0
   37.5050   33.8640   39.6560 N   0  0  0  0  0  0  0  0  0  0  0  0
   38.7050   34.2990   40.1010 C   0  0  0  0  0  0  0  0  0  0  0  0
   39.5250   33.4920   40.8390 N   0  0  0  0  0  0  0  0  0  0  0  0
   37.5310   26.7750   40.9160 C   0  0  0  0  0  0  0  0  0  0  0  0
   37.1360   26.1050   42.2100 C   0  0  0  0  0  0  0  0  0  0  0  0
   37.2520   24.6080   42.1390 C   0  0  0  0  0  0  0  0  0  0  0  0
   36.3840   24.0920   41.0330 C   0  0  0  0  0  0  0  0  0  0  0  0
   36.6170   24.7630   39.7160 C   0  0  0  0  0  0  0  0  0  0  0  0
   36.6970   26.2500   39.7790 C   0  0  0  0  0  0  0  0  0  0  0  0
   39.0197   29.1673   40.0210 H   0  0  0  0  0  0  0  0  0  0  0  0
   35.4529   28.1925   42.1589 H   0  0  0  0  0  0  0  0  0  0  0  0
   39.7828   31.5991   41.7218 H   0  0  0  0  0  0  0  0  0  0  0  0
   36.0800   32.2329   39.5704 H   0  0  0  0  0  0  0  0  0  0  0  0
   39.0282   35.3235   39.8643 H   0  0  0  0  0  0  0  0  0  0  0  0
   38.5903   26.5699   40.7020 H   0  0  0  0  0  0  0  0  0  0  0  0
   37.7922   26.4725   43.0127 H   0  0  0  0  0  0  0  0  0  0  0  0
   36.0820   26.3507   42.4067 H   0  0  0  0  0  0  0  0  0  0  0  0
   38.2983   24.3301   41.9440 H   0  0  0  0  0  0  0  0  0  0  0  0
   36.9281   24.1694   43.0944 H   0  0  0  0  0  0  0  0  0  0  0  0
   36.5791   23.0161   40.9129 H   0  0  0  0  0  0  0  0  0  0  0  0
   35.3431   24.3031   41.3191 H   0  0  0  0  0  0  0  0  0  0  0  0
   35.7900   24.4928   39.0429 H   0  0  0  0  0  0  0  0  0  0  0  0
   37.5975   24.4144   39.3594 H   0  0  0  0  0  0  0  0  0  0  0  0
   37.1321   26.6124   38.8359 H   0  0  0  0  0  0  0  0  0  0  0  0
   35.6725   26.6151   39.9435 H   0  0  0  0  0  0  0  0  0  0  0  0
  1  5  2  0
  2  1  1  0
  2  3  2  0
  3  4  1  0
  5  4  1  0
  7  1  1  0
  7  6  2  0
  8  7  1  0
  9  8  2  0
  9 10  1  0
 10 11  2  0
 11  6  1  0
 12  3  1  0
 12 13  1  0
 14 13  1  0
 15 14  1  0
 16 17  1  0
 16 15  1  0
 17 12  1  0
  2 18  1  0
  4 19  1  0
  6 20  1  0
  8 21  1  0
 10 22  1  0
 12 23  1  0
 13 24  1  0
 13 25  1  0
 14 26  1  0
 14 27  1  0
 15 28  1  0
 15 29  1  0
 16 30  1  0
 16 31  1  0
 17 32  1  0
 17 33  1  0
M  ISO  8  18  14  19   9  20  14  21  14  22  14  23  13  24  13  25  13
M  ISO  8  26  13  27  13  28  13  29  13  30  13  31  13  32  13  33  13
M  END
>  <minimizedAffinity>  (1) 
-5.08779192

>  <minimizedRMSD>  (1) 
3.90316463

$$$$
