
     RDKit          3D

 31 34  0  0  0  0  0  0  0  0999 V2000
   34.9440   28.5930   37.4770 C   0  0  0  0  0  0  0  0  0  0  0  0
   35.4830   29.2910   38.5410 C   0  0  0  0  0  0  0  0  0  0  0  0
   36.5810   28.6220   38.9650 C   0  0  0  0  0  0  0  0  0  0  0  0
   36.7150   27.5660   38.2040 N   0  0  0  0  0  0  0  0  0  0  0  0
   35.7400   27.5400   37.3100 N   0  0  0  0  0  0  0  0  0  0  0  0
   37.3100   29.1970   40.0800 C   0  0  0  0  0  0  0  0  0  0  0  0
   38.1330   30.2490   39.9380 N   0  0  0  0  0  0  0  0  0  0  0  0
   38.8480   30.8530   40.8650 C   0  0  0  0  0  0  0  0  0  0  0  0
   38.8250   30.4480   42.1380 N   0  0  0  0  0  0  0  0  0  0  0  0
   38.0350   29.3970   42.4080 C   0  0  0  0  0  0  0  0  0  0  0  0
   37.9890   28.9520   43.7020 C   0  0  0  0  0  0  0  0  0  0  0  0
   37.1960   27.8600   44.0680 C   0  0  0  0  0  0  0  0  0  0  0  0
   36.4670   27.2650   43.0550 C   0  0  0  0  0  0  0  0  0  0  0  0
   36.5630   27.7660   41.7800 C   0  0  0  0  0  0  0  0  0  0  0  0
   37.3270   28.8270   41.3890 C   0  0  0  0  0  0  0  0  0  0  0  0
   33.7490   29.1350   35.3580 C   0  0  0  0  0  0  0  0  0  0  0  0
   33.7500   29.0010   36.7640 C   0  0  0  0  0  0  0  0  0  0  0  0
   32.5860   29.2570   37.4850 C   0  0  0  0  0  0  0  0  0  0  0  0
   31.4730   29.6320   36.7770 N   0  0  0  0  0  0  0  0  0  0  0  0
   31.4960   29.7540   35.4170 C   0  0  0  0  0  0  0  0  0  0  0  0
   32.6370   29.5040   34.7080 N   0  0  0  0  0  0  0  0  0  0  0  0
   35.0894   30.2252   38.9680 H   0  0  0  0  0  0  0  0  0  0  0  0
   37.4637   26.8636   38.2880 H   0  0  0  0  0  0  0  0  0  0  0  0
   39.4781   31.7100   40.5847 H   0  0  0  0  0  0  0  0  0  0  0  0
   38.5881   29.4640   44.4694 H   0  0  0  0  0  0  0  0  0  0  0  0
   37.1545   27.4945   45.1047 H   0  0  0  0  0  0  0  0  0  0  0  0
   35.8189   26.4020   43.2675 H   0  0  0  0  0  0  0  0  0  0  0  0
   35.9687   27.2655   41.0014 H   0  0  0  0  0  0  0  0  0  0  0  0
   34.6701   28.9345   34.7911 H   0  0  0  0  0  0  0  0  0  0  0  0
   32.5605   29.1620   38.5806 H   0  0  0  0  0  0  0  0  0  0  0  0
   30.5827   30.0580   34.8846 H   0  0  0  0  0  0  0  0  0  0  0  0
  1  2  1  0
  2  3  2  0
  3  6  1  0
  4  3  1  0
  5  1  2  0
  5  4  1  0
  6 15  1  0
  7  6  2  0
  7  8  1  0
  8  9  2  0
  9 10  1  0
 10 11  2  0
 11 12  1  0
 13 12  2  0
 14 13  1  0
 15 14  2  0
 15 10  1  0
 16 17  2  0
 17  1  1  0
 17 18  1  0
 19 18  2  0
 20 19  1  0
 21 16  1  0
 21 20  2  0
  2 22  1  0
  4 23  1  0
  8 24  1  0
 11 25  1  0
 12 26  1  0
 13 27  1  0
 14 28  1  0
 16 29  1  0
 18 30  1  0
 20 31  1  0
M  ISO  8  22  14  23   9  24  14  25  14  26  14  27  14  28  14  29  14
M  ISO  2  30  14  31  14
M  END
>  <minimizedAffinity>  (1) 
-5.02142906

>  <minimizedRMSD>  (1) 
7.03209066

$$$$
