
     RDKit          3D

 43 46  0  0  1  0  0  0  0  0999 V2000
   36.9060   28.5990   41.4840 C   0  0  2  0  0  0  0  0  0  0  0  0
   37.3810   29.5470   42.4510 C   0  0  0  0  0  0  0  0  0  0  0  0
   37.7200   28.7250   43.6950 C   0  0  0  0  0  0  0  0  0  0  0  0
   37.9040   27.2980   43.1910 C   0  0  0  0  0  0  0  0  0  0  0  0
   37.8770   27.3680   41.7010 C   0  0  1  0  0  0  0  0  0  0  0  0
   35.7480   28.8850   39.2410 C   0  0  0  0  0  0  0  0  0  0  0  0
   36.9240   29.0070   40.0860 C   0  0  0  0  0  0  0  0  0  0  0  0
   38.0860   29.5070   39.5690 C   0  0  0  0  0  0  0  0  0  0  0  0
   38.0610   29.8720   38.2390 N   0  0  0  0  0  0  0  0  0  0  0  0
   36.9440   29.7550   37.4370 C   0  0  0  0  0  0  0  0  0  0  0  0
   35.7680   29.2510   37.9570 N   0  0  0  0  0  0  0  0  0  0  0  0
   37.0340   30.1620   36.0700 N   0  0  0  0  0  0  0  0  0  0  0  0
   39.3460   29.7100   40.1940 C   0  0  0  0  0  0  0  0  0  0  0  0
   39.9820   30.9890   40.0870 N   0  0  0  0  0  0  0  0  0  0  0  0
   41.0610   31.5520   39.4610 C   0  0  0  0  0  0  0  0  0  0  0  0
   41.1730   32.8980   39.7470 C   0  0  0  0  0  0  0  0  0  0  0  0
   40.1360   33.2170   40.5830 N   0  0  0  0  0  0  0  0  0  0  0  0
   39.4690   32.0350   40.7430 C   0  0  0  0  0  0  0  0  0  0  0  0
   37.2480   26.0730   41.3160 C   0  0  0  0  0  0  0  0  0  0  0  0
   37.0400   25.0780   42.2390 N   0  0  0  0  0  0  0  0  0  0  0  0
   36.4700   24.0760   41.6010 O   0  0  0  0  0  0  0  0  0  0  0  0
   36.3250   24.4150   40.3460 C   0  0  0  0  0  0  0  0  0  0  0  0
   36.8010   25.6530   40.1380 N   0  0  0  0  0  0  0  0  0  0  0  0
   35.7010   23.4760   39.3570 C   0  0  0  0  0  0  0  0  0  0  0  0
   34.5430   22.9730   39.8800 F   0  0  0  0  0  0  0  0  0  0  0  0
   35.4180   24.1330   38.1770 F   0  0  0  0  0  0  0  0  0  0  0  0
   36.5540   22.4120   39.1040 F   0  0  0  0  0  0  0  0  0  0  0  0
   35.8342   28.4164   41.6509 H   0  0  0  0  0  0  0  0  0  0  0  0
   38.2766   30.0635   42.0755 H   0  0  0  0  0  0  0  0  0  0  0  0
   36.6308   30.3224   42.6656 H   0  0  0  0  0  0  0  0  0  0  0  0
   38.6466   29.0927   44.1600 H   0  0  0  0  0  0  0  0  0  0  0  0
   36.9332   28.7931   44.4607 H   0  0  0  0  0  0  0  0  0  0  0  0
   38.8679   26.8948   43.5350 H   0  0  0  0  0  0  0  0  0  0  0  0
   37.1124   26.6363   43.5725 H   0  0  0  0  0  0  0  0  0  0  0  0
   38.8168   27.4956   41.1438 H   0  0  0  0  0  0  0  0  0  0  0  0
   34.8188   28.4813   39.6695 H   0  0  0  0  0  0  0  0  0  0  0  0
   37.9202   30.5354   35.7011 H   0  0  0  0  0  0  0  0  0  0  0  0
   36.2126   30.0819   35.4537 H   0  0  0  0  0  0  0  0  0  0  0  0
   39.2087   29.5082   41.2666 H   0  0  0  0  0  0  0  0  0  0  0  0
   40.0210   29.0360   39.6462 H   0  0  0  0  0  0  0  0  0  0  0  0
   41.7542   30.9996   38.8096 H   0  0  0  0  0  0  0  0  0  0  0  0
   41.9479   33.5840   39.3743 H   0  0  0  0  0  0  0  0  0  0  0  0
   38.5693   31.9498   41.3702 H   0  0  0  0  0  0  0  0  0  0  0  0
  1  5  1  0
  1  2  1  0
  2  3  1  0
  4  3  1  0
  5  4  1  0
  6  7  2  0
  7  1  1  0
  8  7  1  0
  8 13  1  0
  9  8  2  0
 10 11  2  0
 10  9  1  0
 11  6  1  0
 12 10  1  0
 14 13  1  0
 14 18  1  0
 15 16  2  0
 15 14  1  0
 16 17  1  0
 17 18  2  0
 19  5  1  0
 19 20  2  0
 21 20  1  0
 22 21  1  0
 23 22  2  0
 23 19  1  0
 24 25  1  0
 24 22  1  0
 26 24  1  0
 27 24  1  0
  1 28  1  1
  2 29  1  0
  2 30  1  0
  3 31  1  0
  3 32  1  0
  4 33  1  0
  4 34  1  0
  5 35  1  6
  6 36  1  0
 12 37  1  0
 12 38  1  0
 13 39  1  0
 13 40  1  0
 15 41  1  0
 16 42  1  0
 18 43  1  0
M  ISO  8  28  13  29  13  30  13  31  13  32  13  33  13  34  13  35  13
M  ISO  6  36  14  39   8  40   8  41  14  42  14  43  14
M  END
>  <minimizedAffinity>  (1) 
-5.44838715

>  <minimizedRMSD>  (1) 
4.61646605

$$$$
