
     RDKit          3D

 33 36  0  0  0  0  0  0  0  0999 V2000
   37.8240   30.8090   40.2970 C   0  0  0  0  0  0  0  0  0  0  0  0
   37.0710   30.2870   39.2410 C   0  0  0  0  0  0  0  0  0  0  0  0
   36.5670   29.1410   39.6750 N   0  0  0  0  0  0  0  0  0  0  0  0
   36.9300   28.8630   40.9400 C   0  0  0  0  0  0  0  0  0  0  0  0
   36.6110   27.7780   41.7270 C   0  0  0  0  0  0  0  0  0  0  0  0
   37.1440   27.7610   43.0220 C   0  0  0  0  0  0  0  0  0  0  0  0
   37.9470   28.7970   43.4640 C   0  0  0  0  0  0  0  0  0  0  0  0
   38.2570   29.8790   42.6610 C   0  0  0  0  0  0  0  0  0  0  0  0
   37.7360   29.9120   41.3670 C   0  0  0  0  0  0  0  0  0  0  0  0
   38.5530   34.3860   40.2710 C   0  0  0  0  0  0  0  0  0  0  0  0
   39.9820   34.4300   40.3350 C   0  0  0  0  0  0  0  0  0  0  0  0
   40.6560   33.2060   40.3860 C   0  0  0  0  0  0  0  0  0  0  0  0
   39.9270   32.0760   40.3710 N   0  0  0  0  0  0  0  0  0  0  0  0
   38.5780   32.0610   40.3110 C   0  0  0  0  0  0  0  0  0  0  0  0
   37.8930   33.2230   40.2590 N   0  0  0  0  0  0  0  0  0  0  0  0
   35.7410   28.3610   38.8130 C   0  0  0  0  0  0  0  0  0  0  0  0
   34.5650   28.9630   38.3640 C   0  0  0  0  0  0  0  0  0  0  0  0
   33.7050   28.2880   37.5300 C   0  0  0  0  0  0  0  0  0  0  0  0
   34.0400   26.9940   37.1470 C   0  0  0  0  0  0  0  0  0  0  0  0
   35.2220   26.3990   37.6030 C   0  0  0  0  0  0  0  0  0  0  0  0
   36.0290   27.1020   38.4170 N   0  0  0  0  0  0  0  0  0  0  0  0
   36.9259   30.7377   38.2481 H   0  0  0  0  0  0  0  0  0  0  0  0
   35.9692   26.9651   41.3564 H   0  0  0  0  0  0  0  0  0  0  0  0
   36.9225   26.9176   43.6926 H   0  0  0  0  0  0  0  0  0  0  0  0
   38.3515   28.7588   44.4862 H   0  0  0  0  0  0  0  0  0  0  0  0
   38.8975   30.6925   43.0325 H   0  0  0  0  0  0  0  0  0  0  0  0
   37.9861   35.3278   40.2309 H   0  0  0  0  0  0  0  0  0  0  0  0
   40.5267   35.3856   40.3437 H   0  0  0  0  0  0  0  0  0  0  0  0
   41.7542   33.1683   40.4371 H   0  0  0  0  0  0  0  0  0  0  0  0
   34.3233   29.9884   38.6805 H   0  0  0  0  0  0  0  0  0  0  0  0
   32.7765   28.7593   37.1752 H   0  0  0  0  0  0  0  0  0  0  0  0
   33.3698   26.4326   36.4794 H   0  0  0  0  0  0  0  0  0  0  0  0
   35.4860   25.3748   37.3009 H   0  0  0  0  0  0  0  0  0  0  0  0
  1 14  1  0
  1  9  1  0
  2  3  1  0
  2  1  2  0
  3  4  1  0
  4  9  2  0
  4  5  1  0
  5  6  2  0
  6  7  1  0
  8  7  2  0
  9  8  1  0
 10 11  2  0
 11 12  1  0
 13 12  2  0
 14 13  1  0
 15 10  1  0
 15 14  2  0
 16  3  1  0
 17 16  2  0
 18 17  1  0
 19 18  2  0
 19 20  1  0
 20 21  2  0
 21 16  1  0
  2 22  1  0
  5 23  1  0
  6 24  1  0
  7 25  1  0
  8 26  1  0
 10 27  1  0
 11 28  1  0
 12 29  1  0
 17 30  1  0
 18 31  1  0
 19 32  1  0
 20 33  1  0
M  ISO  8  22  14  23  14  24  14  25  14  26  14  27  14  28  14  29  14
M  ISO  4  30  14  31  14  32  14  33  14
M  END
>  <minimizedAffinity>  (1) 
-5.56053972

>  <minimizedRMSD>  (1) 
4.93813133

$$$$
