
     RDKit          3D

 36 38  0  0  0  0  0  0  0  0999 V2000
   38.9980   30.1130   40.9430 C   0  0  0  0  0  0  0  0  0  0  0  0
   39.2210   29.2010   41.9640 C   0  0  0  0  0  0  0  0  0  0  0  0
   38.1020   28.5160   42.1590 N   0  0  0  0  0  0  0  0  0  0  0  0
   37.1410   28.9290   41.3160 C   0  0  0  0  0  0  0  0  0  0  0  0
   35.8270   28.5020   41.1650 C   0  0  0  0  0  0  0  0  0  0  0  0
   35.0440   29.1140   40.1980 C   0  0  0  0  0  0  0  0  0  0  0  0
   35.5670   30.1170   39.4180 C   0  0  0  0  0  0  0  0  0  0  0  0
   36.8740   30.5590   39.5510 C   0  0  0  0  0  0  0  0  0  0  0  0
   37.6720   29.9540   40.5150 C   0  0  0  0  0  0  0  0  0  0  0  0
   41.0340   33.1310   40.5310 C   0  0  0  0  0  0  0  0  0  0  0  0
   41.6990   32.9130   39.3030 C   0  0  0  0  0  0  0  0  0  0  0  0
   41.4230   31.7170   38.6460 C   0  0  0  0  0  0  0  0  0  0  0  0
   40.5500   30.8320   39.1940 N   0  0  0  0  0  0  0  0  0  0  0  0
   39.9370   31.0880   40.3770 C   0  0  0  0  0  0  0  0  0  0  0  0
   40.1780   32.2280   41.0370 N   0  0  0  0  0  0  0  0  0  0  0  0
   37.9090   27.4520   43.1480 C   0  0  0  0  0  0  0  0  0  0  0  0
   37.1400   26.2840   42.5450 C   0  0  0  0  0  0  0  0  0  0  0  0
   37.0450   27.9710   44.2780 C   0  0  0  0  0  0  0  0  0  0  0  0
   39.2160   27.0200   43.7680 C   0  0  0  0  0  0  0  0  0  0  0  0
   40.1630   29.0687   42.5165 H   0  0  0  0  0  0  0  0  0  0  0  0
   35.4187   27.6991   41.7964 H   0  0  0  0  0  0  0  0  0  0  0  0
   34.0009   28.7955   40.0549 H   0  0  0  0  0  0  0  0  0  0  0  0
   34.9241   30.5870   38.6592 H   0  0  0  0  0  0  0  0  0  0  0  0
   37.2677   31.3640   38.9131 H   0  0  0  0  0  0  0  0  0  0  0  0
   41.2219   34.0623   41.0855 H   0  0  0  0  0  0  0  0  0  0  0  0
   42.3999   33.6517   38.8870 H   0  0  0  0  0  0  0  0  0  0  0  0
   41.9102   31.4894   37.6864 H   0  0  0  0  0  0  0  0  0  0  0  0
   36.7290   25.6598   43.3521 H   0  0  0  0  0  0  0  0  0  0  0  0
   36.3176   26.6682   41.9237 H   0  0  0  0  0  0  0  0  0  0  0  0
   37.8179   25.6804   41.9237 H   0  0  0  0  0  0  0  0  0  0  0  0
   37.4992   27.6981   45.2420 H   0  0  0  0  0  0  0  0  0  0  0  0
   36.9665   29.0659   44.2065 H   0  0  0  0  0  0  0  0  0  0  0  0
   36.0416   27.5260   44.2065 H   0  0  0  0  0  0  0  0  0  0  0  0
   39.1290   27.0487   44.8642 H   0  0  0  0  0  0  0  0  0  0  0  0
   39.4538   25.9955   43.4458 H   0  0  0  0  0  0  0  0  0  0  0  0
   40.0175   27.7010   43.4458 H   0  0  0  0  0  0  0  0  0  0  0  0
  1  2  2  0
  2  3  1  0
  3 16  1  0
  4  3  1  0
  5  4  2  0
  6  5  1  0
  7  8  1  0
  7  6  2  0
  8  9  2  0
  9  1  1  0
  9  4  1  0
 10 15  2  0
 11 10  1  0
 12 13  1  0
 12 11  2  0
 13 14  2  0
 14  1  1  0
 14 15  1  0
 16 19  1  0
 16 18  1  0
 17 16  1  0
  2 20  1  0
  5 21  1  0
  6 22  1  0
  7 23  1  0
  8 24  1  0
 10 25  1  0
 11 26  1  0
 12 27  1  0
 17 28  1  0
 17 29  1  0
 17 30  1  0
 18 31  1  0
 18 32  1  0
 18 33  1  0
 19 34  1  0
 19 35  1  0
 19 36  1  0
M  ISO  8  20  14  21  14  22  14  23  14  24  14  25  14  26  14  27  14
M  ISO  8  28   8  29   8  30   8  31   8  32   8  33   8  34   8  35   8
M  ISO  1  36   8
M  END
>  <minimizedAffinity>  (1) 
-5.17201376

>  <minimizedRMSD>  (1) 
4.68048143

$$$$
