
     RDKit          3D

 31 34  0  0  0  0  0  0  0  0999 V2000
   38.4260   30.6650   40.0850 C   0  0  0  0  0  0  0  0  0  0  0  0
   38.4980   30.1840   41.3950 C   0  0  0  0  0  0  0  0  0  0  0  0
   37.4070   29.4380   41.6110 N   0  0  0  0  0  0  0  0  0  0  0  0
   36.6280   29.4030   40.5160 C   0  0  0  0  0  0  0  0  0  0  0  0
   35.4270   28.7540   40.3190 C   0  0  0  0  0  0  0  0  0  0  0  0
   34.8180   28.8910   39.0580 C   0  0  0  0  0  0  0  0  0  0  0  0
   35.4190   29.6480   38.0720 C   0  0  0  0  0  0  0  0  0  0  0  0
   36.6250   30.2970   38.2740 C   0  0  0  0  0  0  0  0  0  0  0  0
   37.2370   30.1730   39.5140 C   0  0  0  0  0  0  0  0  0  0  0  0
   40.4840   33.5670   39.2370 C   0  0  0  0  0  0  0  0  0  0  0  0
   41.1960   33.1350   38.0950 C   0  0  0  0  0  0  0  0  0  0  0  0
   40.9470   31.8410   37.6390 C   0  0  0  0  0  0  0  0  0  0  0  0
   40.0480   31.0690   38.3020 N   0  0  0  0  0  0  0  0  0  0  0  0
   39.3860   31.5210   39.3950 C   0  0  0  0  0  0  0  0  0  0  0  0
   39.6020   32.7650   39.8610 N   0  0  0  0  0  0  0  0  0  0  0  0
   37.2700   28.8340   42.9140 C   0  0  0  0  0  0  0  0  0  0  0  0
   38.3240   28.0730   43.5800 C   0  0  0  0  0  0  0  0  0  0  0  0
   37.2630   27.2990   42.8360 C   0  0  0  0  0  0  0  0  0  0  0  0
   39.3038   30.3820   42.1171 H   0  0  0  0  0  0  0  0  0  0  0  0
   34.9639   28.1534   41.1157 H   0  0  0  0  0  0  0  0  0  0  0  0
   33.8583   28.3925   38.8567 H   0  0  0  0  0  0  0  0  0  0  0  0
   34.9234   29.7383   37.0941 H   0  0  0  0  0  0  0  0  0  0  0  0
   37.0859   30.8947   37.4738 H   0  0  0  0  0  0  0  0  0  0  0  0
   40.6549   34.5822   39.6246 H   0  0  0  0  0  0  0  0  0  0  0  0
   41.9168   33.7925   37.5869 H   0  0  0  0  0  0  0  0  0  0  0  0
   41.4716   31.4510   36.7543 H   0  0  0  0  0  0  0  0  0  0  0  0
   36.6565   29.6659   43.2902 H   0  0  0  0  0  0  0  0  0  0  0  0
   39.3502   28.1056   43.1853 H   0  0  0  0  0  0  0  0  0  0  0  0
   38.7109   28.0432   44.6093 H   0  0  0  0  0  0  0  0  0  0  0  0
   36.5094   26.7164   43.3861 H   0  0  0  0  0  0  0  0  0  0  0  0
   37.2459   26.5454   42.0349 H   0  0  0  0  0  0  0  0  0  0  0  0
  1  2  2  0
  2  3  1  0
  3 16  1  0
  4  3  1  0
  5  4  2  0
  6  5  1  0
  7  8  1  0
  7  6  2  0
  8  9  2  0
  9  1  1  0
  9  4  1  0
 10 15  2  0
 11 10  1  0
 12 11  2  0
 12 13  1  0
 13 14  2  0
 14 15  1  0
 14  1  1  0
 16 17  1  0
 18 16  1  0
 18 17  1  0
  2 19  1  0
  5 20  1  0
  6 21  1  0
  7 22  1  0
  8 23  1  0
 10 24  1  0
 11 25  1  0
 12 26  1  0
 16 27  1  0
 17 28  1  0
 17 29  1  0
 18 30  1  0
 18 31  1  0
M  ISO  8  19  14  20  14  21  14  22  14  23  14  24  14  25  14  26  14
M  ISO  5  27  13  28  13  29  13  30  13  31  13
M  END
>  <minimizedAffinity>  (1) 
-4.80295992

>  <minimizedRMSD>  (1) 
5.18497181

$$$$
