
     RDKit          3D

 40 43  0  0  0  0  0  0  0  0999 V2000
   39.8070   28.6700   38.2480 C   0  0  0  0  0  0  0  0  0  0  0  0
   39.6730   28.5430   39.6240 C   0  0  0  0  0  0  0  0  0  0  0  0
   38.5680   27.8580   39.8670 N   0  0  0  0  0  0  0  0  0  0  0  0
   37.9550   27.5210   38.7210 C   0  0  0  0  0  0  0  0  0  0  0  0
   36.7910   26.8160   38.5180 C   0  0  0  0  0  0  0  0  0  0  0  0
   36.3780   26.6060   37.2060 C   0  0  0  0  0  0  0  0  0  0  0  0
   37.1240   27.0970   36.1590 C   0  0  0  0  0  0  0  0  0  0  0  0
   38.2980   27.8100   36.3530 C   0  0  0  0  0  0  0  0  0  0  0  0
   38.7200   28.0240   37.6550 C   0  0  0  0  0  0  0  0  0  0  0  0
   41.9730   31.3530   37.0030 C   0  0  0  0  0  0  0  0  0  0  0  0
   42.8760   30.6570   36.1380 C   0  0  0  0  0  0  0  0  0  0  0  0
   42.7080   29.2700   36.0090 C   0  0  0  0  0  0  0  0  0  0  0  0
   41.7120   28.6580   36.7000 N   0  0  0  0  0  0  0  0  0  0  0  0
   40.8740   29.3490   37.5110 C   0  0  0  0  0  0  0  0  0  0  0  0
   41.0160   30.6830   37.6520 N   0  0  0  0  0  0  0  0  0  0  0  0
   38.1000   27.5280   41.1940 C   0  0  0  0  0  0  0  0  0  0  0  0
   39.2430   27.4060   42.1650 C   0  0  0  0  0  0  0  0  0  0  0  0
   38.8180   27.2150   43.5710 C   0  0  0  0  0  0  0  0  0  0  0  0
   37.5020   27.8160   43.9590 C   0  0  0  0  0  0  0  0  0  0  0  0
   36.4130   27.6310   42.9260 C   0  0  0  0  0  0  0  0  0  0  0  0
   36.9450   28.3540   41.6790 C   0  0  0  0  0  0  0  0  0  0  0  0
   40.3650   28.9423   40.3801 H   0  0  0  0  0  0  0  0  0  0  0  0
   36.2056   26.4307   39.3659 H   0  0  0  0  0  0  0  0  0  0  0  0
   35.4527   26.0460   37.0051 H   0  0  0  0  0  0  0  0  0  0  0  0
   36.7767   26.9175   35.1308 H   0  0  0  0  0  0  0  0  0  0  0  0
   38.8760   28.1936   35.4993 H   0  0  0  0  0  0  0  0  0  0  0  0
   42.0668   32.4412   37.1339 H   0  0  0  0  0  0  0  0  0  0  0  0
   43.6712   31.1890   35.5951 H   0  0  0  0  0  0  0  0  0  0  0  0
   43.3742   28.6862   35.3568 H   0  0  0  0  0  0  0  0  0  0  0  0
   37.6499   26.5269   41.1217 H   0  0  0  0  0  0  0  0  0  0  0  0
   39.8584   26.5437   41.8690 H   0  0  0  0  0  0  0  0  0  0  0  0
   39.7985   28.3546   42.1253 H   0  0  0  0  0  0  0  0  0  0  0  0
   38.7593   26.1326   43.7583 H   0  0  0  0  0  0  0  0  0  0  0  0
   39.5691   27.7434   44.1765 H   0  0  0  0  0  0  0  0  0  0  0  0
   37.1713   27.3479   44.8979 H   0  0  0  0  0  0  0  0  0  0  0  0
   37.6642   28.8993   44.0600 H   0  0  0  0  0  0  0  0  0  0  0  0
   36.2510   26.5631   42.7177 H   0  0  0  0  0  0  0  0  0  0  0  0
   35.4440   28.0295   43.2612 H   0  0  0  0  0  0  0  0  0  0  0  0
   37.2810   29.3689   41.9380 H   0  0  0  0  0  0  0  0  0  0  0  0
   36.1680   28.4589   40.9075 H   0  0  0  0  0  0  0  0  0  0  0  0
  1  2  2  0
  2  3  1  0
  3 16  1  0
  4  3  1  0
  5  4  2  0
  6  5  1  0
  7  8  1  0
  7  6  2  0
  8  9  2  0
  9  1  1  0
  9  4  1  0
 10 15  2  0
 11 10  1  0
 12 11  2  0
 12 13  1  0
 13 14  2  0
 14 15  1  0
 14  1  1  0
 16 21  1  0
 16 17  1  0
 17 18  1  0
 18 19  1  0
 20 19  1  0
 21 20  1  0
  2 22  1  0
  5 23  1  0
  6 24  1  0
  7 25  1  0
  8 26  1  0
 10 27  1  0
 11 28  1  0
 12 29  1  0
 16 30  1  0
 17 31  1  0
 17 32  1  0
 18 33  1  0
 18 34  1  0
 19 35  1  0
 19 36  1  0
 20 37  1  0
 20 38  1  0
 21 39  1  0
 21 40  1  0
M  ISO  8  22  14  23  14  24  14  25  14  26  14  27  14  28  14  29  14
M  ISO  8  30  13  31  13  32  13  33  13  34  13  35  13  36  13  37  13
M  ISO  3  38  13  39  13  40  13
M  END
>  <minimizedAffinity>  (1) 
-4.7340169

>  <minimizedRMSD>  (1) 
5.98293114

$$$$
