
     RDKit          3D

 30 32  0  0  0  0  0  0  0  0999 V2000
   37.6380   28.2090   41.5390 C   0  0  0  0  0  0  0  0  0  0  0  0
   36.3490   27.9710   41.0730 C   0  0  0  0  0  0  0  0  0  0  0  0
   35.8910   29.1280   40.5790 N   0  0  0  0  0  0  0  0  0  0  0  0
   36.7980   30.1120   40.6910 C   0  0  0  0  0  0  0  0  0  0  0  0
   36.7080   31.4300   40.3050 C   0  0  0  0  0  0  0  0  0  0  0  0
   37.8210   32.2380   40.5470 C   0  0  0  0  0  0  0  0  0  0  0  0
   38.9610   31.7130   41.1530 C   0  0  0  0  0  0  0  0  0  0  0  0
   39.0330   30.3880   41.5330 C   0  0  0  0  0  0  0  0  0  0  0  0
   37.9300   29.5650   41.2990 C   0  0  0  0  0  0  0  0  0  0  0  0
   39.7170   26.5890   44.0730 C   0  0  0  0  0  0  0  0  0  0  0  0
   40.2610   25.4720   43.3620 C   0  0  0  0  0  0  0  0  0  0  0  0
   39.8930   25.3030   42.0120 C   0  0  0  0  0  0  0  0  0  0  0  0
   39.0490   26.2100   41.4790 N   0  0  0  0  0  0  0  0  0  0  0  0
   38.5490   27.2540   42.1640 C   0  0  0  0  0  0  0  0  0  0  0  0
   38.8810   27.4440   43.4580 N   0  0  0  0  0  0  0  0  0  0  0  0
   34.5610   29.2040   40.0140 C   0  0  0  0  0  0  0  0  0  0  0  0
   34.5090   28.8370   38.5570 C   0  0  0  0  0  0  0  0  0  0  0  0
   35.8084   27.0135   41.1045 H   0  0  0  0  0  0  0  0  0  0  0  0
   35.8007   31.8288   39.8276 H   0  0  0  0  0  0  0  0  0  0  0  0
   37.7977   33.2987   40.2566 H   0  0  0  0  0  0  0  0  0  0  0  0
   39.8243   32.3705   41.3328 H   0  0  0  0  0  0  0  0  0  0  0  0
   39.9403   29.9890   42.0101 H   0  0  0  0  0  0  0  0  0  0  0  0
   39.9843   26.7488   45.1280 H   0  0  0  0  0  0  0  0  0  0  0  0
   40.9460   24.7664   43.8547 H   0  0  0  0  0  0  0  0  0  0  0  0
   40.2795   24.4633   41.4157 H   0  0  0  0  0  0  0  0  0  0  0  0
   33.9062   28.5170   40.5701 H   0  0  0  0  0  0  0  0  0  0  0  0
   34.2324   30.2505   40.0970 H   0  0  0  0  0  0  0  0  0  0  0  0
   34.3553   27.7524   38.4574 H   0  0  0  0  0  0  0  0  0  0  0  0
   33.6776   29.3711   38.0738 H   0  0  0  0  0  0  0  0  0  0  0  0
   35.4561   29.1191   38.0738 H   0  0  0  0  0  0  0  0  0  0  0  0
  1 14  1  0
  2  1  2  0
  3  4  1  0
  3  2  1  0
  4  9  2  0
  5  6  2  0
  5  4  1  0
  6  7  1  0
  7  8  2  0
  9  8  1  0
  9  1  1  0
 11 10  2  0
 12 11  1  0
 13 12  2  0
 13 14  1  0
 14 15  2  0
 15 10  1  0
 16  3  1  0
 17 16  1  0
  2 18  1  0
  5 19  1  0
  6 20  1  0
  7 21  1  0
  8 22  1  0
 10 23  1  0
 11 24  1  0
 12 25  1  0
 16 26  1  0
 16 27  1  0
 17 28  1  0
 17 29  1  0
 17 30  1  0
M  ISO  8  18  14  19  14  20  14  21  14  22  14  23  14  24  14  25  14
M  ISO  5  26   8  27   8  28   8  29   8  30   8
M  END
>  <minimizedAffinity>  (1) 
-4.53547716

>  <minimizedRMSD>  (1) 
1.14326859

$$$$
