
     RDKit          3D

 44 48  0  0  0  0  0  0  0  0999 V2000
   37.8870   27.9200   41.3090 C   0  0  0  0  0  0  0  0  0  0  0  0
   37.0060   28.9290   40.9070 C   0  0  0  0  0  0  0  0  0  0  0  0
   37.5980   30.0950   41.1800 N   0  0  0  0  0  0  0  0  0  0  0  0
   38.8180   29.9220   41.7380 C   0  0  0  0  0  0  0  0  0  0  0  0
   39.7070   30.8800   42.1460 C   0  0  0  0  0  0  0  0  0  0  0  0
   40.9110   30.4120   42.6970 C   0  0  0  0  0  0  0  0  0  0  0  0
   41.1630   29.0390   42.8100 C   0  0  0  0  0  0  0  0  0  0  0  0
   40.2390   28.1020   42.3850 C   0  0  0  0  0  0  0  0  0  0  0  0
   39.0310   28.5520   41.8340 C   0  0  0  0  0  0  0  0  0  0  0  0
   36.9430   24.5060   42.2060 C   0  0  0  0  0  0  0  0  0  0  0  0
   37.3480   23.7650   41.0610 C   0  0  0  0  0  0  0  0  0  0  0  0
   37.9460   24.4670   39.9850 C   0  0  0  0  0  0  0  0  0  0  0  0
   38.0920   25.8010   40.1240 N   0  0  0  0  0  0  0  0  0  0  0  0
   37.6990   26.4810   41.2210 C   0  0  0  0  0  0  0  0  0  0  0  0
   37.1260   25.8440   42.2640 N   0  0  0  0  0  0  0  0  0  0  0  0
   36.9220   31.3380   40.8720 C   0  0  0  0  0  0  0  0  0  0  0  0
   36.6920   31.5390   39.3990 C   0  0  0  0  0  0  0  0  0  0  0  0
   38.0380   31.6100   38.7680 C   0  0  0  0  0  0  0  0  0  0  0  0
   38.6780   30.8140   37.8580 C   0  0  0  0  0  0  0  0  0  0  0  0
   39.8920   31.3370   37.6240 N   0  0  0  0  0  0  0  0  0  0  0  0
   40.1000   32.4540   38.3370 C   0  0  0  0  0  0  0  0  0  0  0  0
   41.1110   33.3810   38.5020 C   0  0  0  0  0  0  0  0  0  0  0  0
   41.0320   34.4630   39.3370 C   0  0  0  0  0  0  0  0  0  0  0  0
   39.8610   34.6550   40.0760 C   0  0  0  0  0  0  0  0  0  0  0  0
   38.8550   33.7320   39.9120 C   0  0  0  0  0  0  0  0  0  0  0  0
   38.9380   32.6300   39.0600 C   0  0  0  0  0  0  0  0  0  0  0  0
   36.0141   28.7891   40.4524 H   0  0  0  0  0  0  0  0  0  0  0  0
   39.4907   31.9541   42.0479 H   0  0  0  0  0  0  0  0  0  0  0  0
   41.6657   31.1330   43.0442 H   0  0  0  0  0  0  0  0  0  0  0  0
   42.1144   28.6993   43.2453 H   0  0  0  0  0  0  0  0  0  0  0  0
   40.4475   27.0259   42.4774 H   0  0  0  0  0  0  0  0  0  0  0  0
   36.4755   23.9840   43.0539 H   0  0  0  0  0  0  0  0  0  0  0  0
   37.2008   22.6760   41.0122 H   0  0  0  0  0  0  0  0  0  0  0  0
   38.2773   23.9461   39.0746 H   0  0  0  0  0  0  0  0  0  0  0  0
   35.9472   31.3413   41.3816 H   0  0  0  0  0  0  0  0  0  0  0  0
   37.5711   32.1567   41.2159 H   0  0  0  0  0  0  0  0  0  0  0  0
   36.1219   30.6945   38.9845 H   0  0  0  0  0  0  0  0  0  0  0  0
   36.1137   32.4549   39.2076 H   0  0  0  0  0  0  0  0  0  0  0  0
   38.2686   29.9028   37.3975 H   0  0  0  0  0  0  0  0  0  0  0  0
   40.5806   30.9297   36.9753 H   0  0  0  0  0  0  0  0  0  0  0  0
   42.0377   33.2409   37.9262 H   0  0  0  0  0  0  0  0  0  0  0  0
   41.8727   35.1669   39.4246 H   0  0  0  0  0  0  0  0  0  0  0  0
   39.7490   35.5090   40.7603 H   0  0  0  0  0  0  0  0  0  0  0  0
   37.9280   33.8709   40.4877 H   0  0  0  0  0  0  0  0  0  0  0  0
  1  9  1  0
  2  3  1  0
  2  1  2  0
  3  4  1  0
  4  9  2  0
  4  5  1  0
  5  6  2  0
  6  7  1  0
  8  7  2  0
  9  8  1  0
 10 15  2  0
 11 10  1  0
 12 13  1  0
 12 11  2  0
 13 14  2  0
 14  1  1  0
 14 15  1  0
 16  3  1  0
 17 16  1  0
 18 26  1  0
 18 17  1  0
 19 18  2  0
 20 19  1  0
 20 21  1  0
 21 22  2  0
 21 26  1  0
 22 23  1  0
 23 24  2  0
 25 24  1  0
 26 25  2  0
  2 27  1  0
  5 28  1  0
  6 29  1  0
  7 30  1  0
  8 31  1  0
 10 32  1  0
 11 33  1  0
 12 34  1  0
 16 35  1  0
 16 36  1  0
 17 37  1  0
 17 38  1  0
 19 39  1  0
 20 40  1  0
 22 41  1  0
 23 42  1  0
 24 43  1  0
 25 44  1  0
M  ISO  8  27  14  28  14  29  14  30  14  31  14  32  14  33  14  34  14
M  ISO  8  35   8  36   8  37   8  38   8  39  14  40   9  41  14  42  14
M  ISO  2  43  14  44  14
M  END
>  <minimizedAffinity>  (1) 
-5.8990097

>  <minimizedRMSD>  (1) 
6.13331747

$$$$
