
     RDKit          3D

 37 40  0  0  0  0  0  0  0  0999 V2000
   39.0020   28.6560   41.3130 C   0  0  0  0  0  0  0  0  0  0  0  0
   39.7970   29.7090   40.8670 C   0  0  0  0  0  0  0  0  0  0  0  0
   39.0000   30.5870   40.2570 N   0  0  0  0  0  0  0  0  0  0  0  0
   37.7150   30.1690   40.2750 C   0  0  0  0  0  0  0  0  0  0  0  0
   36.5950   30.7780   39.7590 C   0  0  0  0  0  0  0  0  0  0  0  0
   35.3780   30.1110   39.9230 C   0  0  0  0  0  0  0  0  0  0  0  0
   35.3270   28.8920   40.5820 C   0  0  0  0  0  0  0  0  0  0  0  0
   36.4600   28.2980   41.0920 C   0  0  0  0  0  0  0  0  0  0  0  0
   37.6880   28.9460   40.9390 C   0  0  0  0  0  0  0  0  0  0  0  0
   40.0900   25.2240   41.9460 C   0  0  0  0  0  0  0  0  0  0  0  0
   40.2570   25.2050   43.3580 C   0  0  0  0  0  0  0  0  0  0  0  0
   39.9880   26.3840   44.0650 C   0  0  0  0  0  0  0  0  0  0  0  0
   39.5880   27.4720   43.3730 N   0  0  0  0  0  0  0  0  0  0  0  0
   39.4370   27.4650   42.0350 C   0  0  0  0  0  0  0  0  0  0  0  0
   39.6880   26.3470   41.3250 N   0  0  0  0  0  0  0  0  0  0  0  0
   39.5180   31.8000   39.6790 C   0  0  0  0  0  0  0  0  0  0  0  0
   40.2240   32.6740   40.6870 C   0  0  0  0  0  0  0  0  0  0  0  0
   40.0350   34.1240   40.3740 C   0  0  0  0  0  0  0  0  0  0  0  0
   38.8130   34.7870   40.3740 C   0  0  0  0  0  0  0  0  0  0  0  0
   39.1550   36.0640   40.0340 C   0  0  0  0  0  0  0  0  0  0  0  0
   40.5140   36.1740   39.8360 C   0  0  0  0  0  0  0  0  0  0  0  0
   40.9990   34.9650   40.0550 O   0  0  0  0  0  0  0  0  0  0  0  0
   40.8858   29.8000   40.9949 H   0  0  0  0  0  0  0  0  0  0  0  0
   36.6545   31.7464   39.2406 H   0  0  0  0  0  0  0  0  0  0  0  0
   34.4536   30.5563   39.5264 H   0  0  0  0  0  0  0  0  0  0  0  0
   34.3571   28.3867   40.7004 H   0  0  0  0  0  0  0  0  0  0  0  0
   36.3990   27.3300   41.6109 H   0  0  0  0  0  0  0  0  0  0  0  0
   40.2906   24.3157   41.3588 H   0  0  0  0  0  0  0  0  0  0  0  0
   40.5868   24.2937   43.8784 H   0  0  0  0  0  0  0  0  0  0  0  0
   40.1001   26.4224   45.1586 H   0  0  0  0  0  0  0  0  0  0  0  0
   40.2306   31.5341   38.8843 H   0  0  0  0  0  0  0  0  0  0  0  0
   38.6634   32.3710   39.2870 H   0  0  0  0  0  0  0  0  0  0  0  0
   39.8173   32.4673   41.6879 H   0  0  0  0  0  0  0  0  0  0  0  0
   41.2999   32.4477   40.6503 H   0  0  0  0  0  0  0  0  0  0  0  0
   37.8144   34.3815   40.5942 H   0  0  0  0  0  0  0  0  0  0  0  0
   38.4409   36.8944   39.9317 H   0  0  0  0  0  0  0  0  0  0  0  0
   41.0759   37.0770   39.5551 H   0  0  0  0  0  0  0  0  0  0  0  0
  1 14  1  0
  2  1  2  0
  3  4  1  0
  3  2  1  0
  4  9  2  0
  5  6  2  0
  5  4  1  0
  6  7  1  0
  7  8  2  0
  9  8  1  0
  9  1  1  0
 10 11  2  0
 11 12  1  0
 13 12  2  0
 14 13  1  0
 15 10  1  0
 15 14  2  0
 16  3  1  0
 16 17  1  0
 18 17  1  0
 19 18  2  0
 20 19  1  0
 21 20  2  0
 21 22  1  0
 22 18  1  0
  2 23  1  0
  5 24  1  0
  6 25  1  0
  7 26  1  0
  8 27  1  0
 10 28  1  0
 11 29  1  0
 12 30  1  0
 16 31  1  0
 16 32  1  0
 17 33  1  0
 17 34  1  0
 19 35  1  0
 20 36  1  0
 21 37  1  0
M  ISO  8  23  14  24  14  25  14  26  14  27  14  28  14  29  14  30  14
M  ISO  7  31   8  32   8  33   8  34   8  35  14  36  14  37  14
M  END
>  <minimizedAffinity>  (1) 
-5.48372316

>  <minimizedRMSD>  (1) 
5.69045687

$$$$
