
     RDKit          3D

 40 43  0  0  0  0  0  0  0  0999 V2000
   37.5960   28.2040   41.3970 C   0  0  0  0  0  0  0  0  0  0  0  0
   36.3550   27.9470   40.8010 C   0  0  0  0  0  0  0  0  0  0  0  0
   35.9200   29.1110   40.2840 N   0  0  0  0  0  0  0  0  0  0  0  0
   36.7870   30.1040   40.4980 C   0  0  0  0  0  0  0  0  0  0  0  0
   36.6900   31.4210   40.1220 C   0  0  0  0  0  0  0  0  0  0  0  0
   37.7580   32.2590   40.4820 C   0  0  0  0  0  0  0  0  0  0  0  0
   38.8510   31.7500   41.1880 C   0  0  0  0  0  0  0  0  0  0  0  0
   38.9230   30.4220   41.5540 C   0  0  0  0  0  0  0  0  0  0  0  0
   37.8670   29.5710   41.2030 C   0  0  0  0  0  0  0  0  0  0  0  0
   39.5620   26.6620   44.0510 C   0  0  0  0  0  0  0  0  0  0  0  0
   40.1110   25.5160   43.4130 C   0  0  0  0  0  0  0  0  0  0  0  0
   39.7860   25.2940   42.0520 C   0  0  0  0  0  0  0  0  0  0  0  0
   38.9740   26.1920   41.4610 N   0  0  0  0  0  0  0  0  0  0  0  0
   38.4670   27.2700   42.0900 C   0  0  0  0  0  0  0  0  0  0  0  0
   38.7590   27.5050   43.3790 N   0  0  0  0  0  0  0  0  0  0  0  0
   34.6460   29.1420   39.5990 C   0  0  0  0  0  0  0  0  0  0  0  0
   34.6540   28.4020   38.2890 C   0  0  0  0  0  0  0  0  0  0  0  0
   33.5540   28.9630   37.4610 C   0  0  0  0  0  0  0  0  0  0  0  0
   33.7800   29.0230   36.0820 C   0  0  0  0  0  0  0  0  0  0  0  0
   32.8300   29.5270   35.1960 C   0  0  0  0  0  0  0  0  0  0  0  0
   31.6240   29.9800   35.7280 C   0  0  0  0  0  0  0  0  0  0  0  0
   31.3840   29.9290   37.0900 C   0  0  0  0  0  0  0  0  0  0  0  0
   32.3510   29.4230   37.9310 C   0  0  0  0  0  0  0  0  0  0  0  0
   35.8349   26.9785   40.7627 H   0  0  0  0  0  0  0  0  0  0  0  0
   35.8196   31.8006   39.5668 H   0  0  0  0  0  0  0  0  0  0  0  0
   37.7338   33.3236   40.2062 H   0  0  0  0  0  0  0  0  0  0  0  0
   39.6755   32.4258   41.4590 H   0  0  0  0  0  0  0  0  0  0  0  0
   39.7915   30.0391   42.1099 H   0  0  0  0  0  0  0  0  0  0  0  0
   39.7972   26.8611   45.1070 H   0  0  0  0  0  0  0  0  0  0  0  0
   40.7678   24.8231   43.9593 H   0  0  0  0  0  0  0  0  0  0  0  0
   40.1794   24.4264   41.5019 H   0  0  0  0  0  0  0  0  0  0  0  0
   33.8876   28.6861   40.2524 H   0  0  0  0  0  0  0  0  0  0  0  0
   34.4229   30.1957   39.3755 H   0  0  0  0  0  0  0  0  0  0  0  0
   35.6190   28.5454   37.7809 H   0  0  0  0  0  0  0  0  0  0  0  0
   34.5114   27.3231   38.4489 H   0  0  0  0  0  0  0  0  0  0  0  0
   34.7392   28.6604   35.6839 H   0  0  0  0  0  0  0  0  0  0  0  0
   33.0251   29.5660   34.1141 H   0  0  0  0  0  0  0  0  0  0  0  0
   30.8523   30.3836   35.0560 H   0  0  0  0  0  0  0  0  0  0  0  0
   30.4283   30.2897   37.4981 H   0  0  0  0  0  0  0  0  0  0  0  0
   32.1518   29.3870   39.0122 H   0  0  0  0  0  0  0  0  0  0  0  0
  1 14  1  0
  2  1  2  0
  3  4  1  0
  3  2  1  0
  4  9  2  0
  5  6  2  0
  5  4  1  0
  6  7  1  0
  7  8  2  0
  9  1  1  0
  9  8  1  0
 11 10  2  0
 12 11  1  0
 13 12  2  0
 13 14  1  0
 14 15  2  0
 15 10  1  0
 16  3  1  0
 17 16  1  0
 18 23  1  0
 18 17  1  0
 19 18  2  0
 20 21  2  0
 20 19  1  0
 21 22  1  0
 22 23  2  0
  2 24  1  0
  5 25  1  0
  6 26  1  0
  7 27  1  0
  8 28  1  0
 10 29  1  0
 11 30  1  0
 12 31  1  0
 16 32  1  0
 16 33  1  0
 17 34  1  0
 17 35  1  0
 19 36  1  0
 20 37  1  0
 21 38  1  0
 22 39  1  0
 23 40  1  0
M  ISO  8  24  14  25  14  26  14  27  14  28  14  29  14  30  14  31  14
M  ISO  8  32   8  33   8  34   8  35   8  36  14  37  14  38  14  39  14
M  ISO  1  40  14
M  END
>  <minimizedAffinity>  (1) 
-5.33033466

>  <minimizedRMSD>  (1) 
0.828429461

$$$$
