
     RDKit          3D

 41 45  0  0  0  0  0  0  0  0999 V2000
   37.6090   28.1560   41.3730 C   0  0  0  0  0  0  0  0  0  0  0  0
   36.4030   27.8910   40.7360 C   0  0  0  0  0  0  0  0  0  0  0  0
   35.9750   29.0430   40.2290 N   0  0  0  0  0  0  0  0  0  0  0  0
   36.8270   30.0580   40.4920 C   0  0  0  0  0  0  0  0  0  0  0  0
   36.7390   31.3890   40.1400 C   0  0  0  0  0  0  0  0  0  0  0  0
   37.7830   32.2190   40.5550 C   0  0  0  0  0  0  0  0  0  0  0  0
   38.8500   31.7120   41.2870 C   0  0  0  0  0  0  0  0  0  0  0  0
   38.9200   30.3790   41.6290 C   0  0  0  0  0  0  0  0  0  0  0  0
   37.8850   29.5190   41.2260 C   0  0  0  0  0  0  0  0  0  0  0  0
   39.5810   26.6210   44.0420 C   0  0  0  0  0  0  0  0  0  0  0  0
   40.0740   25.4310   43.4270 C   0  0  0  0  0  0  0  0  0  0  0  0
   39.7120   25.1840   42.0980 C   0  0  0  0  0  0  0  0  0  0  0  0
   38.9200   26.0850   41.4780 N   0  0  0  0  0  0  0  0  0  0  0  0
   38.4670   27.2050   42.0840 C   0  0  0  0  0  0  0  0  0  0  0  0
   38.7960   27.4690   43.3550 N   0  0  0  0  0  0  0  0  0  0  0  0
   34.7290   29.1280   39.4900 C   0  0  0  0  0  0  0  0  0  0  0  0
   34.9420   29.2520   37.9950 C   0  0  0  0  0  0  0  0  0  0  0  0
   34.1060   28.2510   37.3530 N   0  0  0  0  0  0  0  0  0  0  0  0
   34.3320   26.9370   37.2000 C   0  0  0  0  0  0  0  0  0  0  0  0
   33.2720   26.4070   36.5380 N   0  0  0  0  0  0  0  0  0  0  0  0
   32.4070   27.4050   36.2920 C   0  0  0  0  0  0  0  0  0  0  0  0
   31.2030   27.3610   35.6530 C   0  0  0  0  0  0  0  0  0  0  0  0
   30.5090   28.5300   35.5320 N   0  0  0  0  0  0  0  0  0  0  0  0
   31.0110   29.6800   36.0310 C   0  0  0  0  0  0  0  0  0  0  0  0
   32.1970   29.7190   36.6590 N   0  0  0  0  0  0  0  0  0  0  0  0
   32.9250   28.5980   36.8080 C   0  0  0  0  0  0  0  0  0  0  0  0
   35.8993   26.9157   40.6649 H   0  0  0  0  0  0  0  0  0  0  0  0
   35.8883   31.7776   39.5609 H   0  0  0  0  0  0  0  0  0  0  0  0
   37.7603   33.2885   40.2989 H   0  0  0  0  0  0  0  0  0  0  0  0
   39.6572   32.3904   41.6006 H   0  0  0  0  0  0  0  0  0  0  0  0
   39.7725   29.9946   42.2082 H   0  0  0  0  0  0  0  0  0  0  0  0
   39.8453   26.8459   45.0858 H   0  0  0  0  0  0  0  0  0  0  0  0
   40.7176   24.7308   43.9798 H   0  0  0  0  0  0  0  0  0  0  0  0
   40.0623   24.2825   41.5739 H   0  0  0  0  0  0  0  0  0  0  0  0
   34.1404   28.2199   39.6873 H   0  0  0  0  0  0  0  0  0  0  0  0
   34.2046   30.0344   39.8268 H   0  0  0  0  0  0  0  0  0  0  0  0
   34.6523   30.2576   37.6559 H   0  0  0  0  0  0  0  0  0  0  0  0
   36.0005   29.0967   37.7390 H   0  0  0  0  0  0  0  0  0  0  0  0
   35.2185   26.3872   37.5490 H   0  0  0  0  0  0  0  0  0  0  0  0
   30.8057   26.4178   35.2498 H   0  0  0  0  0  0  0  0  0  0  0  0
   30.4330   30.6093   35.9200 H   0  0  0  0  0  0  0  0  0  0  0  0
  1 14  1  0
  2  1  2  0
  3  4  1  0
  3  2  1  0
  4  9  2  0
  5  4  1  0
  5  6  2  0
  6  7  1  0
  7  8  2  0
  9  1  1  0
  9  8  1  0
 11 10  2  0
 12 11  1  0
 13 14  1  0
 13 12  2  0
 14 15  2  0
 15 10  1  0
 16  3  1  0
 17 16  1  0
 18 17  1  0
 19 18  1  0
 20 19  2  0
 21 20  1  0
 21 26  2  0
 22 21  1  0
 23 22  2  0
 23 24  1  0
 24 25  2  0
 25 26  1  0
 26 18  1  0
  2 27  1  0
  5 28  1  0
  6 29  1  0
  7 30  1  0
  8 31  1  0
 10 32  1  0
 11 33  1  0
 12 34  1  0
 16 35  1  0
 16 36  1  0
 17 37  1  0
 17 38  1  0
 19 39  1  0
 22 40  1  0
 24 41  1  0
M  ISO  8  27  14  28  14  29  14  30  14  31  14  32  14  33  14  34  14
M  ISO  7  35   8  36   8  37   8  38   8  39  14  40  14  41  14
M  END
>  <minimizedAffinity>  (1) 
-4.97734118

>  <minimizedRMSD>  (1) 
1.94640946

$$$$
