
     RDKit          3D

 38 41  0  0  0  0  0  0  0  0999 V2000
   37.5750   28.2000   41.3960 C   0  0  0  0  0  0  0  0  0  0  0  0
   36.3430   27.9390   40.8060 C   0  0  0  0  0  0  0  0  0  0  0  0
   35.9080   29.0990   40.2870 N   0  0  0  0  0  0  0  0  0  0  0  0
   36.7790   30.0960   40.5040 C   0  0  0  0  0  0  0  0  0  0  0  0
   36.6920   31.4160   40.1320 C   0  0  0  0  0  0  0  0  0  0  0  0
   37.7670   32.2440   40.4990 C   0  0  0  0  0  0  0  0  0  0  0  0
   38.8550   31.7360   41.2020 C   0  0  0  0  0  0  0  0  0  0  0  0
   38.9200   30.4080   41.5660 C   0  0  0  0  0  0  0  0  0  0  0  0
   37.8600   29.5640   41.2100 C   0  0  0  0  0  0  0  0  0  0  0  0
   39.5640   26.6540   44.0470 C   0  0  0  0  0  0  0  0  0  0  0  0
   40.0900   25.4860   43.3990 C   0  0  0  0  0  0  0  0  0  0  0  0
   39.7430   25.2640   42.0600 C   0  0  0  0  0  0  0  0  0  0  0  0
   38.9330   26.1640   41.4610 N   0  0  0  0  0  0  0  0  0  0  0  0
   38.4480   27.2590   42.0920 C   0  0  0  0  0  0  0  0  0  0  0  0
   38.7630   27.4960   43.3750 N   0  0  0  0  0  0  0  0  0  0  0  0
   34.6460   29.1530   39.6030 C   0  0  0  0  0  0  0  0  0  0  0  0
   34.6410   28.4040   38.2850 C   0  0  0  0  0  0  0  0  0  0  0  0
   33.4640   28.9550   37.5230 C   0  0  0  0  0  0  0  0  0  0  0  0
   33.4600   29.0690   36.1470 C   0  0  0  0  0  0  0  0  0  0  0  0
   32.4190   29.5620   35.4160 C   0  0  0  0  0  0  0  0  0  0  0  0
   31.3160   29.9620   36.1020 N   0  0  0  0  0  0  0  0  0  0  0  0
   31.2870   29.8630   37.4610 C   0  0  0  0  0  0  0  0  0  0  0  0
   32.3300   29.3730   38.1490 N   0  0  0  0  0  0  0  0  0  0  0  0
   35.8246   26.9694   40.7711 H   0  0  0  0  0  0  0  0  0  0  0  0
   35.8261   31.8045   39.5759 H   0  0  0  0  0  0  0  0  0  0  0  0
   37.7478   33.3095   40.2263 H   0  0  0  0  0  0  0  0  0  0  0  0
   39.6817   32.4091   41.4733 H   0  0  0  0  0  0  0  0  0  0  0  0
   39.7850   30.0196   42.1236 H   0  0  0  0  0  0  0  0  0  0  0  0
   39.8181   26.8597   45.0973 H   0  0  0  0  0  0  0  0  0  0  0  0
   40.7459   24.7863   43.9377 H   0  0  0  0  0  0  0  0  0  0  0  0
   40.1178   24.3856   41.5142 H   0  0  0  0  0  0  0  0  0  0  0  0
   33.8769   28.7144   40.2558 H   0  0  0  0  0  0  0  0  0  0  0  0
   34.4459   30.2104   39.3754 H   0  0  0  0  0  0  0  0  0  0  0  0
   35.5760   28.5852   37.7346 H   0  0  0  0  0  0  0  0  0  0  0  0
   34.5645   27.3163   38.4301 H   0  0  0  0  0  0  0  0  0  0  0  0
   34.3576   28.7398   35.6030 H   0  0  0  0  0  0  0  0  0  0  0  0
   32.4701   29.6327   34.3195 H   0  0  0  0  0  0  0  0  0  0  0  0
   30.3896   30.1917   38.0056 H   0  0  0  0  0  0  0  0  0  0  0  0
  1 14  1  0
  2  1  2  0
  3  4  1  0
  3  2  1  0
  4  9  2  0
  5  6  2  0
  5  4  1  0
  6  7  1  0
  7  8  2  0
  9  1  1  0
  9  8  1  0
 11 10  2  0
 12 11  1  0
 13 12  2  0
 13 14  1  0
 14 15  2  0
 15 10  1  0
 16  3  1  0
 17 16  1  0
 18 23  1  0
 18 17  1  0
 19 18  2  0
 20 21  2  0
 20 19  1  0
 21 22  1  0
 22 23  2  0
  2 24  1  0
  5 25  1  0
  6 26  1  0
  7 27  1  0
  8 28  1  0
 10 29  1  0
 11 30  1  0
 12 31  1  0
 16 32  1  0
 16 33  1  0
 17 34  1  0
 17 35  1  0
 19 36  1  0
 20 37  1  0
 22 38  1  0
M  ISO  8  24  14  25  14  26  14  27  14  28  14  29  14  30  14  31  14
M  ISO  7  32   8  33   8  34   8  35   8  36  14  37  14  38  14
M  END
>  <minimizedAffinity>  (1) 
-4.89916229

>  <minimizedRMSD>  (1) 
0.760912478

$$$$
