
     RDKit          3D

 37 40  0  0  0  0  0  0  0  0999 V2000
   37.5940   28.2020   41.3910 C   0  0  0  0  0  0  0  0  0  0  0  0
   36.3620   27.9470   40.7930 C   0  0  0  0  0  0  0  0  0  0  0  0
   35.9220   29.1100   40.2730 N   0  0  0  0  0  0  0  0  0  0  0  0
   36.7940   30.0990   40.4980 C   0  0  0  0  0  0  0  0  0  0  0  0
   36.7090   31.4250   40.1300 C   0  0  0  0  0  0  0  0  0  0  0  0
   37.7650   32.2530   40.4920 C   0  0  0  0  0  0  0  0  0  0  0  0
   38.8550   31.7370   41.2030 C   0  0  0  0  0  0  0  0  0  0  0  0
   38.9240   30.4100   41.5640 C   0  0  0  0  0  0  0  0  0  0  0  0
   37.8730   29.5720   41.2050 C   0  0  0  0  0  0  0  0  0  0  0  0
   39.5620   26.6560   44.0510 C   0  0  0  0  0  0  0  0  0  0  0  0
   40.0860   25.4880   43.4060 C   0  0  0  0  0  0  0  0  0  0  0  0
   39.7420   25.2670   42.0650 C   0  0  0  0  0  0  0  0  0  0  0  0
   38.9380   26.1610   41.4500 N   0  0  0  0  0  0  0  0  0  0  0  0
   38.4590   27.2560   42.0850 C   0  0  0  0  0  0  0  0  0  0  0  0
   38.7700   27.4970   43.3710 N   0  0  0  0  0  0  0  0  0  0  0  0
   34.6510   29.1470   39.5830 C   0  0  0  0  0  0  0  0  0  0  0  0
   34.6680   28.4040   38.2750 C   0  0  0  0  0  0  0  0  0  0  0  0
   33.7020   28.8750   37.3330 N   0  0  0  0  0  0  0  0  0  0  0  0
   34.0010   28.9290   36.0140 C   0  0  0  0  0  0  0  0  0  0  0  0
   32.9120   29.4130   35.3370 C   0  0  0  0  0  0  0  0  0  0  0  0
   31.9530   29.6510   36.2570 N   0  0  0  0  0  0  0  0  0  0  0  0
   32.4400   29.3230   37.4650 C   0  0  0  0  0  0  0  0  0  0  0  0
   35.8446   26.9771   40.7527 H   0  0  0  0  0  0  0  0  0  0  0  0
   35.8423   31.8112   39.5736 H   0  0  0  0  0  0  0  0  0  0  0  0
   37.7442   33.3183   40.2187 H   0  0  0  0  0  0  0  0  0  0  0  0
   39.6792   32.4103   41.4810 H   0  0  0  0  0  0  0  0  0  0  0  0
   39.7887   30.0220   42.1224 H   0  0  0  0  0  0  0  0  0  0  0  0
   39.8095   26.8620   45.1028 H   0  0  0  0  0  0  0  0  0  0  0  0
   40.7382   24.7864   43.9468 H   0  0  0  0  0  0  0  0  0  0  0  0
   40.1185   24.3852   41.5258 H   0  0  0  0  0  0  0  0  0  0  0  0
   33.8868   28.6951   40.2324 H   0  0  0  0  0  0  0  0  0  0  0  0
   34.4300   30.2010   39.3588 H   0  0  0  0  0  0  0  0  0  0  0  0
   35.6679   28.5095   37.8289 H   0  0  0  0  0  0  0  0  0  0  0  0
   34.4154   27.3568   38.4974 H   0  0  0  0  0  0  0  0  0  0  0  0
   34.9588   28.6336   35.5608 H   0  0  0  0  0  0  0  0  0  0  0  0
   32.8343   29.5763   34.2520 H   0  0  0  0  0  0  0  0  0  0  0  0
   31.8921   29.4075   38.4151 H   0  0  0  0  0  0  0  0  0  0  0  0
  1 14  1  0
  2  1  2  0
  3  4  1  0
  3  2  1  0
  4  9  2  0
  5  6  2  0
  5  4  1  0
  6  7  1  0
  7  8  2  0
  9  1  1  0
  9  8  1  0
 11 10  2  0
 12 11  1  0
 13 12  2  0
 13 14  1  0
 14 15  2  0
 15 10  1  0
 16  3  1  0
 17 16  1  0
 18 22  1  0
 18 17  1  0
 19 18  1  0
 20 19  2  0
 20 21  1  0
 21 22  2  0
  2 23  1  0
  5 24  1  0
  6 25  1  0
  7 26  1  0
  8 27  1  0
 10 28  1  0
 11 29  1  0
 12 30  1  0
 16 31  1  0
 16 32  1  0
 17 33  1  0
 17 34  1  0
 19 35  1  0
 20 36  1  0
 22 37  1  0
M  ISO  8  23  14  24  14  25  14  26  14  27  14  28  14  29  14  30  14
M  ISO  7  31   8  32   8  33   8  34   8  35  14  36  14  37  14
M  END
>  <minimizedAffinity>  (1) 
-4.64098263

>  <minimizedRMSD>  (1) 
0.71806705

$$$$
