
     RDKit          3D

 43 46  0  0  0  0  0  0  0  0999 V2000
   36.6780   29.8840   39.7630 C   0  0  0  0  0  0  0  0  0  0  0  0
   37.5180   30.9960   39.7790 C   0  0  0  0  0  0  0  0  0  0  0  0
   38.1660   30.9700   40.9380 N   0  0  0  0  0  0  0  0  0  0  0  0
   37.8090   29.9180   41.6840 C   0  0  0  0  0  0  0  0  0  0  0  0
   38.2460   29.5310   42.9400 C   0  0  0  0  0  0  0  0  0  0  0  0
   37.6960   28.3800   43.4780 C   0  0  0  0  0  0  0  0  0  0  0  0
   36.7380   27.6430   42.7700 C   0  0  0  0  0  0  0  0  0  0  0  0
   36.3140   28.0390   41.5200 C   0  0  0  0  0  0  0  0  0  0  0  0
   36.8560   29.1920   40.9690 C   0  0  0  0  0  0  0  0  0  0  0  0
   33.6410   28.7950   38.0460 C   0  0  0  0  0  0  0  0  0  0  0  0
   34.0380   28.7350   36.6890 C   0  0  0  0  0  0  0  0  0  0  0  0
   35.3520   29.0710   36.3850 C   0  0  0  0  0  0  0  0  0  0  0  0
   36.1730   29.4360   37.3970 N   0  0  0  0  0  0  0  0  0  0  0  0
   35.7600   29.4840   38.6940 C   0  0  0  0  0  0  0  0  0  0  0  0
   34.5070   29.1640   39.0000 N   0  0  0  0  0  0  0  0  0  0  0  0
   39.1140   32.0020   41.2550 C   0  0  0  0  0  0  0  0  0  0  0  0
   38.7640   33.3580   40.7180 C   0  0  0  0  0  0  0  0  0  0  0  0
   39.9200   33.7330   39.8700 N   0  0  0  0  0  0  0  0  0  0  0  0
   40.4230   32.9460   38.9240 N   0  0  0  0  0  0  0  0  0  0  0  0
   41.4630   33.5610   38.3290 C   0  0  0  0  0  0  0  0  0  0  0  0
   41.6250   34.8080   38.9350 C   0  0  0  0  0  0  0  0  0  0  0  0
   40.6300   34.8670   39.8970 C   0  0  0  0  0  0  0  0  0  0  0  0
   40.3930   36.0190   40.8170 C   0  0  0  0  0  0  0  0  0  0  0  0
   39.7080   37.1670   40.0800 C   0  0  0  0  0  0  0  0  0  0  0  0
   37.6239   31.7498   38.9849 H   0  0  0  0  0  0  0  0  0  0  0  0
   39.0000   30.1149   43.4882 H   0  0  0  0  0  0  0  0  0  0  0  0
   38.0154   28.0399   44.4742 H   0  0  0  0  0  0  0  0  0  0  0  0
   36.3166   26.7319   43.2198 H   0  0  0  0  0  0  0  0  0  0  0  0
   35.5620   27.4538   40.9705 H   0  0  0  0  0  0  0  0  0  0  0  0
   32.6082   28.5354   38.3214 H   0  0  0  0  0  0  0  0  0  0  0  0
   33.3312   28.4329   35.9021 H   0  0  0  0  0  0  0  0  0  0  0  0
   35.7157   29.0410   35.3473 H   0  0  0  0  0  0  0  0  0  0  0  0
   39.1880   32.0753   42.3501 H   0  0  0  0  0  0  0  0  0  0  0  0
   40.0614   31.7125   40.7769 H   0  0  0  0  0  0  0  0  0  0  0  0
   37.8419   33.3129   40.1199 H   0  0  0  0  0  0  0  0  0  0  0  0
   38.5790   34.0892   41.5187 H   0  0  0  0  0  0  0  0  0  0  0  0
   42.0755   33.1533   37.5113 H   0  0  0  0  0  0  0  0  0  0  0  0
   42.3775   35.5753   38.7002 H   0  0  0  0  0  0  0  0  0  0  0  0
   39.7524   35.6908   41.6488 H   0  0  0  0  0  0  0  0  0  0  0  0
   41.3626   36.3723   41.1979 H   0  0  0  0  0  0  0  0  0  0  0  0
   39.2869   37.8727   40.8112 H   0  0  0  0  0  0  0  0  0  0  0  0
   40.4430   37.6880   39.4489 H   0  0  0  0  0  0  0  0  0  0  0  0
   38.9005   36.7675   39.4489 H   0  0  0  0  0  0  0  0  0  0  0  0
  1  2  2  0
  1  9  1  0
  2  3  1  0
  3 16  1  0
  3  4  1  0
  4  5  2  0
  5  6  1  0
  7  6  2  0
  8  7  1  0
  9  8  2  0
  9  4  1  0
 10 15  2  0
 11 10  1  0
 12 11  2  0
 12 13  1  0
 13 14  2  0
 14 15  1  0
 14  1  1  0
 17 16  1  0
 18 22  1  0
 18 17  1  0
 19 18  1  0
 20 19  2  0
 20 21  1  0
 21 22  2  0
 22 23  1  0
 24 23  1  0
  2 25  1  0
  5 26  1  0
  6 27  1  0
  7 28  1  0
  8 29  1  0
 10 30  1  0
 11 31  1  0
 12 32  1  0
 16 33  1  0
 16 34  1  0
 17 35  1  0
 17 36  1  0
 20 37  1  0
 21 38  1  0
 23 39  1  0
 23 40  1  0
 24 41  1  0
 24 42  1  0
 24 43  1  0
M  ISO  8  25  14  26  14  27  14  28  14  29  14  30  14  31  14  32  14
M  ISO  8  33   8  34   8  35   8  36   8  37  14  38  14  39   8  40   8
M  ISO  3  41   8  42   8  43   8
M  END
>  <minimizedAffinity>  (1) 
-6.02896738

>  <minimizedRMSD>  (1) 
1.1990943

$$$$
