
     RDKit          3D

 38 41  0  0  0  0  0  0  0  0999 V2000
   36.6790   29.8370   39.7610 C   0  0  0  0  0  0  0  0  0  0  0  0
   37.5210   30.9560   39.7840 C   0  0  0  0  0  0  0  0  0  0  0  0
   38.1670   30.9230   40.9420 N   0  0  0  0  0  0  0  0  0  0  0  0
   37.8180   29.8670   41.6880 C   0  0  0  0  0  0  0  0  0  0  0  0
   38.2640   29.4910   42.9340 C   0  0  0  0  0  0  0  0  0  0  0  0
   37.7160   28.3310   43.4700 C   0  0  0  0  0  0  0  0  0  0  0  0
   36.7570   27.5900   42.7600 C   0  0  0  0  0  0  0  0  0  0  0  0
   36.3300   27.9900   41.5170 C   0  0  0  0  0  0  0  0  0  0  0  0
   36.8700   29.1530   40.9660 C   0  0  0  0  0  0  0  0  0  0  0  0
   33.6240   28.7770   38.0560 C   0  0  0  0  0  0  0  0  0  0  0  0
   34.0290   28.6870   36.7040 C   0  0  0  0  0  0  0  0  0  0  0  0
   35.3510   28.9920   36.3980 C   0  0  0  0  0  0  0  0  0  0  0  0
   36.1790   29.3580   37.4050 N   0  0  0  0  0  0  0  0  0  0  0  0
   35.7600   29.4350   38.6930 C   0  0  0  0  0  0  0  0  0  0  0  0
   34.5000   29.1470   38.9990 N   0  0  0  0  0  0  0  0  0  0  0  0
   39.1150   31.9660   41.2490 C   0  0  0  0  0  0  0  0  0  0  0  0
   38.6230   33.3570   40.9970 C   0  0  0  0  0  0  0  0  0  0  0  0
   39.8120   34.0750   40.4740 N   0  0  0  0  0  0  0  0  0  0  0  0
   41.0460   33.5680   40.4760 N   0  0  0  0  0  0  0  0  0  0  0  0
   41.8980   34.4550   39.9370 C   0  0  0  0  0  0  0  0  0  0  0  0
   41.1520   35.5950   39.5720 C   0  0  0  0  0  0  0  0  0  0  0  0
   39.8250   35.3120   39.9320 C   0  0  0  0  0  0  0  0  0  0  0  0
   38.7480   36.1650   39.7510 O   0  0  0  0  0  0  0  0  0  0  0  0
   37.6262   31.7150   38.9948 H   0  0  0  0  0  0  0  0  0  0  0  0
   39.0169   30.0790   43.4792 H   0  0  0  0  0  0  0  0  0  0  0  0
   38.0382   27.9886   44.4645 H   0  0  0  0  0  0  0  0  0  0  0  0
   36.3412   26.6747   43.2064 H   0  0  0  0  0  0  0  0  0  0  0  0
   35.5777   27.4054   40.9671 H   0  0  0  0  0  0  0  0  0  0  0  0
   32.5859   28.5423   38.3340 H   0  0  0  0  0  0  0  0  0  0  0  0
   33.3204   28.3851   35.9187 H   0  0  0  0  0  0  0  0  0  0  0  0
   35.7156   28.9372   35.3616 H   0  0  0  0  0  0  0  0  0  0  0  0
   39.3802   31.8846   42.3135 H   0  0  0  0  0  0  0  0  0  0  0  0
   39.9709   31.8140   40.5750 H   0  0  0  0  0  0  0  0  0  0  0  0
   37.8109   33.3551   40.2550 H   0  0  0  0  0  0  0  0  0  0  0  0
   38.2105   33.8282   41.9014 H   0  0  0  0  0  0  0  0  0  0  0  0
   42.9813   34.3175   39.8042 H   0  0  0  0  0  0  0  0  0  0  0  0
   41.5312   36.5148   39.1027 H   0  0  0  0  0  0  0  0  0  0  0  0
   37.8418   35.8851   40.0347 H   0  0  0  0  0  0  0  0  0  0  0  0
  1  2  2  0
  1  9  1  0
  2  3  1  0
  3 16  1  0
  3  4  1  0
  4  5  2  0
  5  6  1  0
  7  6  2  0
  8  7  1  0
  9  8  2  0
  9  4  1  0
 10 15  2  0
 11 10  1  0
 12 11  2  0
 12 13  1  0
 13 14  2  0
 14 15  1  0
 14  1  1  0
 17 16  1  0
 18 19  1  0
 18 17  1  0
 20 19  2  0
 21 22  2  0
 21 20  1  0
 22 18  1  0
 23 22  1  0
  2 24  1  0
  5 25  1  0
  6 26  1  0
  7 27  1  0
  8 28  1  0
 10 29  1  0
 11 30  1  0
 12 31  1  0
 16 32  1  0
 16 33  1  0
 17 34  1  0
 17 35  1  0
 20 36  1  0
 21 37  1  0
 23 38  1  0
M  ISO  8  24  14  25  14  26  14  27  14  28  14  29  14  30  14  31  14
M  ISO  7  32   8  33   8  34   8  35   8  36  14  37  14  38   3
M  END
>  <minimizedAffinity>  (1) 
-5.9634037

>  <minimizedRMSD>  (1) 
0.791192234

$$$$
