
     RDKit          3D

 40 43  0  0  0  0  0  0  0  0999 V2000
   36.6930   29.9010   39.7530 C   0  0  0  0  0  0  0  0  0  0  0  0
   37.5340   31.0170   39.7640 C   0  0  0  0  0  0  0  0  0  0  0  0
   38.1760   30.9870   40.9280 N   0  0  0  0  0  0  0  0  0  0  0  0
   37.8190   29.9410   41.6760 C   0  0  0  0  0  0  0  0  0  0  0  0
   38.2560   29.5610   42.9370 C   0  0  0  0  0  0  0  0  0  0  0  0
   37.7000   28.4070   43.4760 C   0  0  0  0  0  0  0  0  0  0  0  0
   36.7430   27.6680   42.7690 C   0  0  0  0  0  0  0  0  0  0  0  0
   36.3230   28.0620   41.5170 C   0  0  0  0  0  0  0  0  0  0  0  0
   36.8710   29.2160   40.9630 C   0  0  0  0  0  0  0  0  0  0  0  0
   33.6590   28.7960   38.0370 C   0  0  0  0  0  0  0  0  0  0  0  0
   34.0540   28.7420   36.6770 C   0  0  0  0  0  0  0  0  0  0  0  0
   35.3660   29.0890   36.3770 C   0  0  0  0  0  0  0  0  0  0  0  0
   36.1760   29.4530   37.3930 N   0  0  0  0  0  0  0  0  0  0  0  0
   35.7750   29.4960   38.6790 C   0  0  0  0  0  0  0  0  0  0  0  0
   34.5250   29.1690   38.9910 N   0  0  0  0  0  0  0  0  0  0  0  0
   39.1240   32.0210   41.2390 C   0  0  0  0  0  0  0  0  0  0  0  0
   38.7550   33.3880   40.7510 C   0  0  0  0  0  0  0  0  0  0  0  0
   39.9130   33.8140   39.9310 N   0  0  0  0  0  0  0  0  0  0  0  0
   40.6620   32.9780   39.2100 N   0  0  0  0  0  0  0  0  0  0  0  0
   41.6310   33.6720   38.5850 C   0  0  0  0  0  0  0  0  0  0  0  0
   41.4860   35.0220   38.9290 C   0  0  0  0  0  0  0  0  0  0  0  0
   40.3930   35.0560   39.7770 C   0  0  0  0  0  0  0  0  0  0  0  0
   39.8730   36.2810   40.3890 C   0  0  0  0  0  0  0  0  0  0  0  0
   37.6430   31.7694   38.9691 H   0  0  0  0  0  0  0  0  0  0  0  0
   39.0085   30.1467   43.4853 H   0  0  0  0  0  0  0  0  0  0  0  0
   38.0165   28.0686   44.4737 H   0  0  0  0  0  0  0  0  0  0  0  0
   36.3199   26.7585   43.2204 H   0  0  0  0  0  0  0  0  0  0  0  0
   35.5709   27.4773   40.9670 H   0  0  0  0  0  0  0  0  0  0  0  0
   32.6286   28.5285   38.3139 H   0  0  0  0  0  0  0  0  0  0  0  0
   33.3494   28.4372   35.8892 H   0  0  0  0  0  0  0  0  0  0  0  0
   35.7337   29.0675   35.3405 H   0  0  0  0  0  0  0  0  0  0  0  0
   39.2317   32.0670   42.3328 H   0  0  0  0  0  0  0  0  0  0  0  0
   40.0546   31.7505   40.7186 H   0  0  0  0  0  0  0  0  0  0  0  0
   37.8401   33.3495   40.1415 H   0  0  0  0  0  0  0  0  0  0  0  0
   38.5478   34.0851   41.5763 H   0  0  0  0  0  0  0  0  0  0  0  0
   42.4013   33.2528   37.9209 H   0  0  0  0  0  0  0  0  0  0  0  0
   42.1049   35.8690   38.5979 H   0  0  0  0  0  0  0  0  0  0  0  0
   39.9121   36.1888   41.4844 H   0  0  0  0  0  0  0  0  0  0  0  0
   40.4849   37.1380   40.0711 H   0  0  0  0  0  0  0  0  0  0  0  0
   38.8314   36.4361   40.0711 H   0  0  0  0  0  0  0  0  0  0  0  0
  1  2  2  0
  1  9  1  0
  2  3  1  0
  3 16  1  0
  3  4  1  0
  4  5  2  0
  5  6  1  0
  7  6  2  0
  8  7  1  0
  9  8  2  0
  9  4  1  0
 10 15  2  0
 11 10  1  0
 12 11  2  0
 12 13  1  0
 13 14  2  0
 14 15  1  0
 14  1  1  0
 17 16  1  0
 18 17  1  0
 19 18  1  0
 20 21  1  0
 20 19  2  0
 21 22  2  0
 22 18  1  0
 22 23  1  0
  2 24  1  0
  5 25  1  0
  6 26  1  0
  7 27  1  0
  8 28  1  0
 10 29  1  0
 11 30  1  0
 12 31  1  0
 16 32  1  0
 16 33  1  0
 17 34  1  0
 17 35  1  0
 20 36  1  0
 21 37  1  0
 23 38  1  0
 23 39  1  0
 23 40  1  0
M  ISO  8  24  14  25  14  26  14  27  14  28  14  29  14  30  14  31  14
M  ISO  8  32   8  33   8  34   8  35   8  36  14  37  14  38   8  39   8
M  ISO  1  40   8
M  END
>  <minimizedAffinity>  (1) 
-5.9272542

>  <minimizedRMSD>  (1) 
0.963544428

$$$$
