
     RDKit          3D

 30 33  0  0  1  0  0  0  0  0999 V2000
   36.1820   30.6470   40.7390 C   0  0  1  0  0  0  0  0  0  0  0  0
   36.9320   31.9120   40.4500 C   0  0  0  0  0  0  0  0  0  0  0  0
   36.7250   30.9360   39.3570 C   0  0  1  0  0  0  0  0  0  0  0  0
   38.7740   29.2040   42.8990 C   0  0  0  0  0  0  0  0  0  0  0  0
   38.2870   27.9100   43.1630 C   0  0  0  0  0  0  0  0  0  0  0  0
   37.0470   27.5530   42.5720 C   0  0  0  0  0  0  0  0  0  0  0  0
   36.3940   28.4510   41.7960 N   0  0  0  0  0  0  0  0  0  0  0  0
   36.9310   29.6920   41.5850 C   0  0  0  0  0  0  0  0  0  0  0  0
   38.1130   30.0550   42.1380 N   0  0  0  0  0  0  0  0  0  0  0  0
   37.7720   30.1550   38.7960 N   0  0  0  0  0  0  0  0  0  0  0  0
   37.8050   28.8250   38.6110 C   0  0  0  0  0  0  0  0  0  0  0  0
   38.9880   28.4940   38.0480 N   0  0  0  0  0  0  0  0  0  0  0  0
   39.6870   29.6360   37.8860 C   0  0  0  0  0  0  0  0  0  0  0  0
   40.9540   29.9150   37.3630 C   0  0  0  0  0  0  0  0  0  0  0  0
   41.4350   31.1870   37.3150 N   0  0  0  0  0  0  0  0  0  0  0  0
   40.6730   32.1920   37.7800 C   0  0  0  0  0  0  0  0  0  0  0  0
   39.4410   31.9290   38.2880 N   0  0  0  0  0  0  0  0  0  0  0  0
   38.9320   30.6840   38.3530 C   0  0  0  0  0  0  0  0  0  0  0  0
   41.7380   28.8200   36.8780 N   0  0  0  0  0  0  0  0  0  0  0  0
   35.1920   30.3646   41.1265 H   0  0  0  0  0  0  0  0  0  0  0  0
   36.3976   32.8733   40.4336 H   0  0  0  0  0  0  0  0  0  0  0  0
   37.8126   32.4043   40.8884 H   0  0  0  0  0  0  0  0  0  0  0  0
   36.3072   31.0013   38.3415 H   0  0  0  0  0  0  0  0  0  0  0  0
   39.7329   29.5144   43.3397 H   0  0  0  0  0  0  0  0  0  0  0  0
   38.8432   27.2062   43.7996 H   0  0  0  0  0  0  0  0  0  0  0  0
   36.6192   26.5541   42.7429 H   0  0  0  0  0  0  0  0  0  0  0  0
   37.0016   28.1213   38.8744 H   0  0  0  0  0  0  0  0  0  0  0  0
   41.0467   33.2261   37.7492 H   0  0  0  0  0  0  0  0  0  0  0  0
   42.6752   28.9912   36.4866 H   0  0  0  0  0  0  0  0  0  0  0  0
   41.3649   27.8609   36.9204 H   0  0  0  0  0  0  0  0  0  0  0  0
  1  8  1  0
  2  1  1  0
  3  2  1  0
  3  1  1  0
  4  5  2  0
  6  5  1  0
  7  6  2  0
  8  7  1  0
  8  9  2  0
  9  4  1  0
 10  3  1  0
 11 10  1  0
 12 11  2  0
 13 12  1  0
 13 18  2  0
 14 13  1  0
 15 14  2  0
 15 16  1  0
 16 17  2  0
 17 18  1  0
 18 10  1  0
 19 14  1  0
  1 20  1  6
  2 21  1  0
  2 22  1  0
  3 23  1  6
  4 24  1  0
  5 25  1  0
  6 26  1  0
 11 27  1  0
 16 28  1  0
 19 29  1  0
 19 30  1  0
M  ISO  8  20  13  21  13  22  13  23  13  24  14  25  14  26  14  27  14
M  ISO  1  28  14
M  END
>  <minimizedAffinity>  (1) 
-4.63885069

>  <minimizedRMSD>  (1) 
0.953475535

$$$$
