
     RDKit          3D

 25 27  0  0  0  0  0  0  0  0999 V2000
   36.9290   26.9410   41.5030 C   0  0  0  0  0  0  0  0  0  0  0  0
   36.8360   26.0010   40.4710 C   0  0  0  0  0  0  0  0  0  0  0  0
   36.9810   24.7840   41.1130 C   0  0  0  0  0  0  0  0  0  0  0  0
   37.1510   24.9720   42.4410 N   0  0  0  0  0  0  0  0  0  0  0  0
   37.1160   26.2680   42.6550 N   0  0  0  0  0  0  0  0  0  0  0  0
   37.8390   29.2700   41.6420 C   0  0  0  0  0  0  0  0  0  0  0  0
   36.8310   28.3730   41.2900 C   0  0  0  0  0  0  0  0  0  0  0  0
   35.6610   28.8760   40.7010 C   0  0  0  0  0  0  0  0  0  0  0  0
   35.5640   30.2310   40.4990 N   0  0  0  0  0  0  0  0  0  0  0  0
   36.5680   31.0610   40.8570 C   0  0  0  0  0  0  0  0  0  0  0  0
   37.7080   30.5830   41.4290 N   0  0  0  0  0  0  0  0  0  0  0  0
   36.9490   23.4880   40.4070 C   0  0  0  0  0  0  0  0  0  0  0  0
   35.8660   23.2270   39.5630 C   0  0  0  0  0  0  0  0  0  0  0  0
   35.8220   22.0210   38.8950 C   0  0  0  0  0  0  0  0  0  0  0  0
   36.8160   21.1180   39.0690 N   0  0  0  0  0  0  0  0  0  0  0  0
   37.8450   21.4000   39.8890 C   0  0  0  0  0  0  0  0  0  0  0  0
   37.9260   22.5740   40.5620 N   0  0  0  0  0  0  0  0  0  0  0  0
   36.6830   26.1865   39.3976 H   0  0  0  0  0  0  0  0  0  0  0  0
   37.2831   24.2377   43.1512 H   0  0  0  0  0  0  0  0  0  0  0  0
   38.7614   28.8890   42.1047 H   0  0  0  0  0  0  0  0  0  0  0  0
   34.8422   28.2022   40.4085 H   0  0  0  0  0  0  0  0  0  0  0  0
   36.4630   32.1421   40.6835 H   0  0  0  0  0  0  0  0  0  0  0  0
   35.0642   23.9690   39.4339 H   0  0  0  0  0  0  0  0  0  0  0  0
   34.9817   21.7934   38.2227 H   0  0  0  0  0  0  0  0  0  0  0  0
   38.6445   20.6555   40.0171 H   0  0  0  0  0  0  0  0  0  0  0  0
  1  5  2  0
  2  3  2  0
  2  1  1  0
  3  4  1  0
  4  5  1  0
  7  1  1  0
  7  6  2  0
  8  7  1  0
  9  8  2  0
  9 10  1  0
 10 11  2  0
 11  6  1  0
 12 17  1  0
 12  3  1  0
 13 12  2  0
 14 15  2  0
 14 13  1  0
 15 16  1  0
 16 17  2  0
  2 18  1  0
  4 19  1  0
  6 20  1  0
  8 21  1  0
 10 22  1  0
 13 23  1  0
 14 24  1  0
 16 25  1  0
M  ISO  8  18  14  19   9  20  14  21  14  22  14  23  14  24  14  25  14
M  END
>  <minimizedAffinity>  (1) 
-4.23765326

>  <minimizedRMSD>  (1) 
0.490647376

$$$$
