
     RDKit          3D

 24 26  0  0  0  0  0  0  0  0999 V2000
   36.9330   26.7850   41.4930 C   0  0  0  0  0  0  0  0  0  0  0  0
   37.0560   25.8670   40.4580 C   0  0  0  0  0  0  0  0  0  0  0  0
   37.1890   24.6570   41.1020 C   0  0  0  0  0  0  0  0  0  0  0  0
   37.1480   24.8300   42.4440 N   0  0  0  0  0  0  0  0  0  0  0  0
   36.9920   26.1320   42.6810 N   0  0  0  0  0  0  0  0  0  0  0  0
   37.6550   29.1710   41.7630 C   0  0  0  0  0  0  0  0  0  0  0  0
   36.7690   28.2090   41.2850 C   0  0  0  0  0  0  0  0  0  0  0  0
   35.6610   28.6670   40.5650 C   0  0  0  0  0  0  0  0  0  0  0  0
   35.4920   30.0080   40.3630 N   0  0  0  0  0  0  0  0  0  0  0  0
   36.4050   30.9010   40.8630 C   0  0  0  0  0  0  0  0  0  0  0  0
   37.4790   30.4740   41.5580 N   0  0  0  0  0  0  0  0  0  0  0  0
   37.3550   23.3250   40.4890 C   0  0  0  0  0  0  0  0  0  0  0  0
   36.6810   22.8940   39.3590 C   0  0  0  0  0  0  0  0  0  0  0  0
   37.0830   21.6420   39.0990 N   0  0  0  0  0  0  0  0  0  0  0  0
   37.9840   21.2730   40.0250 C   0  0  0  0  0  0  0  0  0  0  0  0
   38.1380   22.3130   40.8670 N   0  0  0  0  0  0  0  0  0  0  0  0
   37.0488   26.0613   39.3753 H   0  0  0  0  0  0  0  0  0  0  0  0
   37.2238   24.0882   43.1545 H   0  0  0  0  0  0  0  0  0  0  0  0
   38.5359   28.8406   42.3330 H   0  0  0  0  0  0  0  0  0  0  0  0
   34.9289   27.9511   40.1631 H   0  0  0  0  0  0  0  0  0  0  0  0
   36.2595   31.9783   40.6952 H   0  0  0  0  0  0  0  0  0  0  0  0
   35.9480   23.4742   38.7793 H   0  0  0  0  0  0  0  0  0  0  0  0
   38.4994   20.3030   40.0843 H   0  0  0  0  0  0  0  0  0  0  0  0
   38.7673   22.3252   41.6823 H   0  0  0  0  0  0  0  0  0  0  0  0
  1  5  2  0
  2  3  2  0
  2  1  1  0
  3  4  1  0
  4  5  1  0
  7  1  1  0
  7  6  2  0
  8  7  1  0
  9  8  2  0
  9 10  1  0
 10 11  2  0
 11  6  1  0
 12 16  1  0
 12  3  1  0
 13 12  2  0
 14 13  1  0
 14 15  2  0
 15 16  1  0
  2 17  1  0
  4 18  1  0
  6 19  1  0
  8 20  1  0
 10 21  1  0
 13 22  1  0
 15 23  1  0
 16 24  1  0
M  ISO  8  17  14  18   9  19  14  20  14  21  14  22  14  23  14  24   9
M  END
>  <minimizedAffinity>  (1) 
-4.22407198

>  <minimizedRMSD>  (1) 
0.46162793

$$$$
