
     RDKit          3D

 24 26  0  0  1  0  0  0  0  0999 V2000
   36.8820   27.6600   42.7360 C   0  0  1  0  0  0  0  0  0  0  0  0
   37.4740   29.0270   42.8680 C   0  0  0  0  0  0  0  0  0  0  0  0
   37.0490   28.5820   41.5140 C   0  0  2  0  0  0  0  0  0  0  0  0
   39.9000   25.7400   43.6540 C   0  0  0  0  0  0  0  0  0  0  0  0
   39.6540   24.5000   43.0500 C   0  0  0  0  0  0  0  0  0  0  0  0
   38.4480   24.3330   42.3230 C   0  0  0  0  0  0  0  0  0  0  0  0
   37.5830   25.3710   42.2370 N   0  0  0  0  0  0  0  0  0  0  0  0
   37.8640   26.5610   42.8390 C   0  0  0  0  0  0  0  0  0  0  0  0
   39.0090   26.7370   43.5360 N   0  0  0  0  0  0  0  0  0  0  0  0
   35.7960   29.2650   41.0000 C   0  0  0  0  0  0  0  0  0  0  0  0
   35.2780   28.9130   39.6640 C   0  0  0  0  0  0  0  0  0  0  0  0
   36.0530   30.2000   39.7820 C   0  0  0  0  0  0  0  0  0  0  0  0
   36.0453   27.1096   43.1909 H   0  0  0  0  0  0  0  0  0  0  0  0
   36.9083   29.8173   43.3833 H   0  0  0  0  0  0  0  0  0  0  0  0
   38.4145   29.4162   43.2850 H   0  0  0  0  0  0  0  0  0  0  0  0
   37.5188   28.4728   40.5254 H   0  0  0  0  0  0  0  0  0  0  0  0
   40.8260   25.8970   44.2266 H   0  0  0  0  0  0  0  0  0  0  0  0
   40.3782   23.6767   43.1375 H   0  0  0  0  0  0  0  0  0  0  0  0
   38.2185   23.3738   41.8359 H   0  0  0  0  0  0  0  0  0  0  0  0
   35.3253   29.3299   41.9921 H   0  0  0  0  0  0  0  0  0  0  0  0
   34.1947   28.9482   39.4765 H   0  0  0  0  0  0  0  0  0  0  0  0
   35.3724   28.0249   39.0218 H   0  0  0  0  0  0  0  0  0  0  0  0
   37.0603   30.2850   39.3483 H   0  0  0  0  0  0  0  0  0  0  0  0
   35.8714   31.2585   39.5440 H   0  0  0  0  0  0  0  0  0  0  0  0
  1  8  1  0
  1  2  1  0
  3  1  1  0
  3  2  1  0
  5  4  2  0
  6  5  1  0
  7  6  2  0
  7  8  1  0
  8  9  2  0
  9  4  1  0
 10  3  1  0
 11 12  1  0
 11 10  1  0
 12 10  1  0
  1 13  1  1
  2 14  1  0
  2 15  1  0
  3 16  1  6
  4 17  1  0
  5 18  1  0
  6 19  1  0
 10 20  1  0
 11 21  1  0
 11 22  1  0
 12 23  1  0
 12 24  1  0
M  ISO  8  13  13  14  13  15  13  16  13  17  14  18  14  19  14  20  13
M  ISO  4  21  13  22  13  23  13  24  13
M  END
>  <minimizedAffinity>  (1) 
-3.9926765

>  <minimizedRMSD>  (1) 
3.37674427

$$$$
