
     RDKit          3D

 29 31  0  0  1  0  0  0  0  0999 V2000
   36.2540   30.6750   41.0810 C   0  0  1  0  0  0  0  0  0  0  0  0
   37.1630   31.7080   40.4990 C   0  0  0  0  0  0  0  0  0  0  0  0
   36.5320   30.7310   39.5850 C   0  0  1  0  0  0  0  0  0  0  0  0
   38.7240   28.8380   43.1000 C   0  0  0  0  0  0  0  0  0  0  0  0
   38.0970   27.5770   43.2650 C   0  0  0  0  0  0  0  0  0  0  0  0
   36.8270   27.3800   42.6690 C   0  0  0  0  0  0  0  0  0  0  0  0
   36.2740   28.4000   41.9710 N   0  0  0  0  0  0  0  0  0  0  0  0
   36.9020   29.5890   41.8340 C   0  0  0  0  0  0  0  0  0  0  0  0
   38.1120   29.8080   42.3910 N   0  0  0  0  0  0  0  0  0  0  0  0
   37.1950   29.6970   38.8920 N   0  0  0  0  0  0  0  0  0  0  0  0
   38.5380   29.8490   38.5180 C   0  0  0  0  0  0  0  0  0  0  0  0
   38.8120   29.1080   37.2250 C   0  0  0  0  0  0  0  0  0  0  0  0
   37.4580   29.0560   36.6010 C   0  0  0  0  0  0  0  0  0  0  0  0
   36.4910   29.2540   37.7200 C   0  0  0  0  0  0  0  0  0  0  0  0
   35.3524   30.6821   41.7111 H   0  0  0  0  0  0  0  0  0  0  0  0
   36.8468   32.7613   40.4743 H   0  0  0  0  0  0  0  0  0  0  0  0
   38.2001   32.0173   40.6957 H   0  0  0  0  0  0  0  0  0  0  0  0
   35.9385   30.8220   38.6633 H   0  0  0  0  0  0  0  0  0  0  0  0
   39.7099   29.0250   43.5505 H   0  0  0  0  0  0  0  0  0  0  0  0
   38.5829   26.7745   43.8394 H   0  0  0  0  0  0  0  0  0  0  0  0
   36.3014   26.4191   42.7711 H   0  0  0  0  0  0  0  0  0  0  0  0
   38.7564   30.9178   38.3768 H   0  0  0  0  0  0  0  0  0  0  0  0
   39.1787   29.4344   39.3102 H   0  0  0  0  0  0  0  0  0  0  0  0
   39.5225   29.6595   36.5917 H   0  0  0  0  0  0  0  0  0  0  0  0
   39.2702   28.1187   37.3707 H   0  0  0  0  0  0  0  0  0  0  0  0
   37.3490   29.8557   35.8536 H   0  0  0  0  0  0  0  0  0  0  0  0
   37.2870   28.1024   36.0800 H   0  0  0  0  0  0  0  0  0  0  0  0
   35.7472   30.0113   37.4315 H   0  0  0  0  0  0  0  0  0  0  0  0
   35.9827   28.3028   37.9366 H   0  0  0  0  0  0  0  0  0  0  0  0
  1  8  1  0
  2  1  1  0
  3  2  1  0
  3  1  1  0
  4  5  2  0
  6  5  1  0
  7  6  2  0
  8  7  1  0
  8  9  2  0
  9  4  1  0
 10 11  1  0
 10  3  1  0
 12 11  1  0
 13 12  1  0
 13 14  1  0
 14 10  1  0
  1 15  1  6
  2 16  1  0
  2 17  1  0
  3 18  1  6
  4 19  1  0
  5 20  1  0
  6 21  1  0
 11 22  1  0
 11 23  1  0
 12 24  1  0
 12 25  1  0
 13 26  1  0
 13 27  1  0
 14 28  1  0
 14 29  1  0
M  ISO  8  15  13  16  13  17  13  18  13  19  14  20  14  21  14  22  13
M  ISO  7  23  13  24  13  25  13  26  13  27  13  28  13  29  13
M  END
>  <minimizedAffinity>  (1) 
-3.89504433

>  <minimizedRMSD>  (1) 
0.5125404

$$$$
