
     RDKit          3D

 24 26  0  0  1  0  0  0  0  0999 V2000
   36.1590   30.7190   40.7980 C   0  0  1  0  0  0  0  0  0  0  0  0
   37.0240   31.8920   40.4810 C   0  0  0  0  0  0  0  0  0  0  0  0
   36.8080   30.9250   39.4070 C   0  0  1  0  0  0  0  0  0  0  0  0
   38.4970   29.0100   43.0870 C   0  0  0  0  0  0  0  0  0  0  0  0
   37.9390   27.7050   43.1510 C   0  0  0  0  0  0  0  0  0  0  0  0
   36.7650   27.4390   42.4000 C   0  0  0  0  0  0  0  0  0  0  0  0
   36.2240   28.4320   41.6550 N   0  0  0  0  0  0  0  0  0  0  0  0
   36.7990   29.6710   41.6270 C   0  0  0  0  0  0  0  0  0  0  0  0
   37.8990   29.9500   42.3210 N   0  0  0  0  0  0  0  0  0  0  0  0
   37.7160   29.8890   39.0140 C   0  0  0  0  0  0  0  0  0  0  0  0
   37.6280   28.6630   38.4960 C   0  0  0  0  0  0  0  0  0  0  0  0
   38.6880   27.8750   38.1960 C   0  0  0  0  0  0  0  0  0  0  0  0
   39.9600   28.4510   38.4740 C   0  0  0  0  0  0  0  0  0  0  0  0
   39.5360   30.1500   39.1750 S   0  0  0  0  0  0  0  0  0  0  0  0
   35.1422   30.5683   41.1896 H   0  0  0  0  0  0  0  0  0  0  0  0
   36.5726   32.8924   40.4068 H   0  0  0  0  0  0  0  0  0  0  0  0
   37.9243   32.3182   40.9477 H   0  0  0  0  0  0  0  0  0  0  0  0
   36.5271   31.0756   38.3542 H   0  0  0  0  0  0  0  0  0  0  0  0
   39.4069   29.2533   43.6552 H   0  0  0  0  0  0  0  0  0  0  0  0
   38.4049   26.9214   43.7666 H   0  0  0  0  0  0  0  0  0  0  0  0
   36.3015   26.4417   42.4226 H   0  0  0  0  0  0  0  0  0  0  0  0
   36.6225   28.2632   38.2983 H   0  0  0  0  0  0  0  0  0  0  0  0
   38.5748   26.8671   37.7702 H   0  0  0  0  0  0  0  0  0  0  0  0
   40.9552   28.0094   38.3170 H   0  0  0  0  0  0  0  0  0  0  0  0
  1  8  1  0
  2  1  1  0
  3  2  1  0
  3  1  1  0
  4  5  2  0
  6  5  1  0
  7  6  2  0
  8  7  1  0
  8  9  2  0
  9  4  1  0
 10 14  1  0
 10  3  1  0
 11 10  2  0
 12 13  2  0
 12 11  1  0
 13 14  1  0
  1 15  1  6
  2 16  1  0
  2 17  1  0
  3 18  1  6
  4 19  1  0
  5 20  1  0
  6 21  1  0
 11 22  1  0
 12 23  1  0
 13 24  1  0
M  ISO  8  15  13  16  13  17  13  18  13  19  14  20  14  21  14  22  14
M  ISO  2  23  14  24  14
M  END
>  <minimizedAffinity>  (1) 
-3.81308913

>  <minimizedRMSD>  (1) 
0.813164413

$$$$
