
     RDKit          3D

 20 21  0  0  1  0  0  0  0  0999 V2000
   36.1750   30.6610   40.8250 C   0  0  1  0  0  0  0  0  0  0  0  0
   37.0380   31.8260   40.4700 C   0  0  0  0  0  0  0  0  0  0  0  0
   36.7620   30.8290   39.4090 C   0  0  1  0  0  0  0  0  0  0  0  0
   38.5990   28.9810   43.0480 C   0  0  0  0  0  0  0  0  0  0  0  0
   38.0340   27.6870   43.1830 C   0  0  0  0  0  0  0  0  0  0  0  0
   36.8220   27.4230   42.4950 C   0  0  0  0  0  0  0  0  0  0  0  0
   36.2540   28.3960   41.7440 N   0  0  0  0  0  0  0  0  0  0  0  0
   36.8480   29.6270   41.6510 C   0  0  0  0  0  0  0  0  0  0  0  0
   38.0020   29.9110   42.2960 N   0  0  0  0  0  0  0  0  0  0  0  0
   37.7690   29.8280   38.9820 C   0  0  0  0  0  0  0  0  0  0  0  0
   37.3490   28.8570   38.3200 O   0  0  0  0  0  0  0  0  0  0  0  0
   39.1060   29.9820   39.3150 O   0  0  0  0  0  0  0  0  0  0  0  0
   35.1705   30.5237   41.2517 H   0  0  0  0  0  0  0  0  0  0  0  0
   36.5937   32.8299   40.4008 H   0  0  0  0  0  0  0  0  0  0  0  0
   37.9583   32.2519   40.8962 H   0  0  0  0  0  0  0  0  0  0  0  0
   36.3905   30.9143   38.3772 H   0  0  0  0  0  0  0  0  0  0  0  0
   39.5382   29.2217   43.5675 H   0  0  0  0  0  0  0  0  0  0  0  0
   38.5186   26.9155   43.7994 H   0  0  0  0  0  0  0  0  0  0  0  0
   36.3465   26.4340   42.5711 H   0  0  0  0  0  0  0  0  0  0  0  0
   39.7694   29.3071   39.0243 H   0  0  0  0  0  0  0  0  0  0  0  0
  1  8  1  0
  2  1  1  0
  3  2  1  0
  3  1  1  0
  4  5  2  0
  6  5  1  0
  7  6  2  0
  8  7  1  0
  8  9  2  0
  9  4  1  0
 10 12  1  0
 10  3  1  0
 11 10  2  0
  1 13  1  6
  2 14  1  0
  2 15  1  0
  3 16  1  6
  4 17  1  0
  5 18  1  0
  6 19  1  0
 12 20  1  0
M  ISO  8  13  13  14  13  15  13  16  13  17  14  18  14  19  14  20   3
M  END
>  <minimizedAffinity>  (1) 
-3.6293242

>  <minimizedRMSD>  (1) 
0.70164448

$$$$
