
     RDKit          3D

 32 34  0  0  0  0  0  0  0  0999 V2000
   36.9140   26.7170   41.3890 C   0  0  0  0  0  0  0  0  0  0  0  0
   36.8450   25.8450   40.2880 C   0  0  0  0  0  0  0  0  0  0  0  0
   37.0530   24.6000   40.8760 C   0  0  0  0  0  0  0  0  0  0  0  0
   37.2300   24.7070   42.1990 N   0  0  0  0  0  0  0  0  0  0  0  0
   37.1450   25.9880   42.4960 N   0  0  0  0  0  0  0  0  0  0  0  0
   37.6550   29.0610   41.7980 C   0  0  0  0  0  0  0  0  0  0  0  0
   36.7520   28.1500   41.2490 C   0  0  0  0  0  0  0  0  0  0  0  0
   35.6600   28.6570   40.5460 C   0  0  0  0  0  0  0  0  0  0  0  0
   35.5290   30.0090   40.4280 N   0  0  0  0  0  0  0  0  0  0  0  0
   36.4440   30.8650   40.9850 C   0  0  0  0  0  0  0  0  0  0  0  0
   37.5170   30.3830   41.6760 N   0  0  0  0  0  0  0  0  0  0  0  0
   37.0700   23.3760   40.1400 N   0  0  0  0  0  0  0  0  0  0  0  0
   38.2490   22.5750   40.0210 C   0  0  0  0  0  0  0  0  0  0  0  0
   37.9950   21.0850   40.1030 C   0  0  0  0  0  0  0  0  0  0  0  0
   36.8700   20.6580   39.1890 C   0  0  0  0  0  0  0  0  0  0  0  0
   36.3130   21.8710   38.4480 C   0  0  0  0  0  0  0  0  0  0  0  0
   35.8870   22.8900   39.4770 C   0  0  0  0  0  0  0  0  0  0  0  0
   36.6706   26.0857   39.2289 H   0  0  0  0  0  0  0  0  0  0  0  0
   37.4002   23.9348   42.8590 H   0  0  0  0  0  0  0  0  0  0  0  0
   38.5194   28.6723   42.3564 H   0  0  0  0  0  0  0  0  0  0  0  0
   34.9191   27.9800   40.0957 H   0  0  0  0  0  0  0  0  0  0  0  0
   36.3115   31.9513   40.8735 H   0  0  0  0  0  0  0  0  0  0  0  0
   38.9387   22.8529   40.8316 H   0  0  0  0  0  0  0  0  0  0  0  0
   38.6661   22.7711   39.0222 H   0  0  0  0  0  0  0  0  0  0  0  0
   38.9118   20.5507   39.8132 H   0  0  0  0  0  0  0  0  0  0  0  0
   37.7072   20.8429   41.1367 H   0  0  0  0  0  0  0  0  0  0  0  0
   37.2502   19.9279   38.4593 H   0  0  0  0  0  0  0  0  0  0  0  0
   36.0693   20.2016   39.7894 H   0  0  0  0  0  0  0  0  0  0  0  0
   37.0891   22.2997   37.7969 H   0  0  0  0  0  0  0  0  0  0  0  0
   35.4567   21.5774   37.8231 H   0  0  0  0  0  0  0  0  0  0  0  0
   35.3668   23.7240   38.9831 H   0  0  0  0  0  0  0  0  0  0  0  0
   35.2015   22.4329   40.2058 H   0  0  0  0  0  0  0  0  0  0  0  0
  1  5  2  0
  2  3  2  0
  2  1  1  0
  3  4  1  0
  4  5  1  0
  7  1  1  0
  7  6  2  0
  8  7  1  0
  9  8  2  0
  9 10  1  0
 10 11  2  0
 11  6  1  0
 12  3  1  0
 13 14  1  0
 13 12  1  0
 15 14  1  0
 16 15  1  0
 16 17  1  0
 17 12  1  0
  2 18  1  0
  4 19  1  0
  6 20  1  0
  8 21  1  0
 10 22  1  0
 13 23  1  0
 13 24  1  0
 14 25  1  0
 14 26  1  0
 15 27  1  0
 15 28  1  0
 16 29  1  0
 16 30  1  0
 17 31  1  0
 17 32  1  0
M  ISO  8  18  14  19   9  20  14  21  14  22  14  23  13  24  13  25  13
M  ISO  7  26  13  27  13  28  13  29  13  30  13  31  13  32  13
M  END
>  <minimizedAffinity>  (1) 
-4.18689394

>  <minimizedRMSD>  (1) 
0.257547557

$$$$
