
     RDKit          3D

 44 48  0  0  1  0  0  0  0  0999 V2000
   38.5070   30.6680   40.6350 N   0  0  0  0  0  0  0  0  0  0  0  0
   37.2110   31.3680   40.8230 C   0  0  0  0  0  0  0  0  0  0  0  0
   36.1800   30.8980   39.8430 C   0  0  0  0  0  0  0  0  0  0  0  0
   36.7130   30.7680   38.5680 O   0  0  0  0  0  0  0  0  0  0  0  0
   37.8180   31.5890   38.4850 C   0  0  0  0  0  0  0  0  0  0  0  0
   38.9810   31.0580   39.3540 C   0  0  1  0  0  0  0  0  0  0  0  0
   40.0430   32.0870   39.3430 C   0  0  0  0  0  0  0  0  0  0  0  0
   41.4020   32.0140   39.0930 C   0  0  0  0  0  0  0  0  0  0  0  0
   41.9860   33.2210   39.2000 N   0  0  0  0  0  0  0  0  0  0  0  0
   41.0340   34.1160   39.5220 C   0  0  0  0  0  0  0  0  0  0  0  0
   41.0770   35.4760   39.7500 C   0  0  0  0  0  0  0  0  0  0  0  0
   39.9250   36.1630   40.0710 C   0  0  0  0  0  0  0  0  0  0  0  0
   38.6900   35.5160   40.1750 C   0  0  0  0  0  0  0  0  0  0  0  0
   38.6640   34.1420   39.9420 C   0  0  0  0  0  0  0  0  0  0  0  0
   39.8330   33.4450   39.6160 C   0  0  0  0  0  0  0  0  0  0  0  0
   39.3110   29.9480   42.9860 C   0  0  1  0  0  0  0  0  0  0  0  0
   40.5100   30.0750   42.1300 C   0  0  0  0  0  0  0  0  0  0  0  0
   39.3390   30.8670   41.7440 C   0  0  1  0  0  0  0  0  0  0  0  0
   38.4590   26.4680   42.1480 C   0  0  0  0  0  0  0  0  0  0  0  0
   37.1550   26.3280   42.6790 C   0  0  0  0  0  0  0  0  0  0  0  0
   36.5850   27.4680   43.3190 C   0  0  0  0  0  0  0  0  0  0  0  0
   37.3210   28.6400   43.3890 N   0  0  0  0  0  0  0  0  0  0  0  0
   38.5450   28.6860   42.8600 C   0  0  0  0  0  0  0  0  0  0  0  0
   39.1250   27.6310   42.2450 N   0  0  0  0  0  0  0  0  0  0  0  0
   36.8469   31.1760   41.8431 H   0  0  0  0  0  0  0  0  0  0  0  0
   37.3751   32.4432   40.6588 H   0  0  0  0  0  0  0  0  0  0  0  0
   35.7943   29.9213   40.1706 H   0  0  0  0  0  0  0  0  0  0  0  0
   35.3732   31.6447   39.8056 H   0  0  0  0  0  0  0  0  0  0  0  0
   38.1484   31.6398   37.4370 H   0  0  0  0  0  0  0  0  0  0  0  0
   37.5371   32.5864   38.8541 H   0  0  0  0  0  0  0  0  0  0  0  0
   39.4250   30.1349   38.9530 H   0  0  0  0  0  0  0  0  0  0  0  0
   41.9367   31.0869   38.8391 H   0  0  0  0  0  0  0  0  0  0  0  0
   42.9860   33.4244   39.0601 H   0  0  0  0  0  0  0  0  0  0  0  0
   42.0334   36.0143   39.6755 H   0  0  0  0  0  0  0  0  0  0  0  0
   39.9792   37.2470   40.2497 H   0  0  0  0  0  0  0  0  0  0  0  0
   37.7746   36.0697   40.4307 H   0  0  0  0  0  0  0  0  0  0  0  0
   37.7109   33.5977   40.0154 H   0  0  0  0  0  0  0  0  0  0  0  0
   39.0838   30.0727   44.0550 H   0  0  0  0  0  0  0  0  0  0  0  0
   41.4024   30.5851   42.5218 H   0  0  0  0  0  0  0  0  0  0  0  0
   41.1420   29.3483   41.5985 H   0  0  0  0  0  0  0  0  0  0  0  0
   39.1832   31.9315   41.5145 H   0  0  0  0  0  0  0  0  0  0  0  0
   38.9349   25.6115   41.6480 H   0  0  0  0  0  0  0  0  0  0  0  0
   36.6037   25.3793   42.6014 H   0  0  0  0  0  0  0  0  0  0  0  0
   35.5747   27.4176   43.7512 H   0  0  0  0  0  0  0  0  0  0  0  0
  1  2  1  0
  1 18  1  0
  3  2  1  0
  4  3  1  0
  5  4  1  0
  5  6  1  0
  6  1  1  0
  7  6  1  0
  7 15  1  0
  8  9  1  0
  8  7  2  0
  9 10  1  0
 10 15  2  0
 10 11  1  0
 11 12  2  0
 12 13  1  0
 14 13  2  0
 15 14  1  0
 17 16  1  0
 18 17  1  0
 18 16  1  0
 19 24  2  0
 19 20  1  0
 20 21  2  0
 21 22  1  0
 23 16  1  0
 23 22  2  0
 24 23  1  0
  2 25  1  0
  2 26  1  0
  3 27  1  0
  3 28  1  0
  5 29  1  0
  5 30  1  0
  6 31  1  6
  8 32  1  0
  9 33  1  0
 11 34  1  0
 12 35  1  0
 13 36  1  0
 14 37  1  0
 16 38  1  1
 17 39  1  0
 17 40  1  0
 18 41  1  1
 19 42  1  0
 20 43  1  0
 21 44  1  0
M  ISO  8  25  13  26  13  27  13  28  13  29  13  30  13  31  13  32  14
M  ISO  8  33   9  34  14  35  14  36  14  37  14  38  13  39  13  40  13
M  ISO  4  41  13  42  14  43  14  44  14
M  END
>  <minimizedAffinity>  (1) 
-6.24201727

>  <minimizedRMSD>  (1) 
2.82888293

$$$$
