
     RDKit          3D

 24 26  0  0  0  0  0  0  0  0999 V2000
   36.9130   26.8900   41.4920 C   0  0  0  0  0  0  0  0  0  0  0  0
   36.9330   25.9650   40.4490 C   0  0  0  0  0  0  0  0  0  0  0  0
   37.0420   24.7510   41.1120 C   0  0  0  0  0  0  0  0  0  0  0  0
   37.0850   24.9280   42.4380 N   0  0  0  0  0  0  0  0  0  0  0  0
   37.0070   26.2360   42.6710 N   0  0  0  0  0  0  0  0  0  0  0  0
   37.8020   29.2350   41.6350 C   0  0  0  0  0  0  0  0  0  0  0  0
   36.8080   28.3250   41.2840 C   0  0  0  0  0  0  0  0  0  0  0  0
   35.6420   28.8320   40.6960 C   0  0  0  0  0  0  0  0  0  0  0  0
   35.5300   30.1810   40.4930 N   0  0  0  0  0  0  0  0  0  0  0  0
   36.5440   31.0260   40.8610 C   0  0  0  0  0  0  0  0  0  0  0  0
   37.6860   30.5460   41.4350 N   0  0  0  0  0  0  0  0  0  0  0  0
   37.0980   23.4780   40.4010 C   0  0  0  0  0  0  0  0  0  0  0  0
   38.1490   22.5790   40.4490 C   0  0  0  0  0  0  0  0  0  0  0  0
   37.8660   21.4880   39.6590 C   0  0  0  0  0  0  0  0  0  0  0  0
   36.6180   21.7700   39.1450 C   0  0  0  0  0  0  0  0  0  0  0  0
   36.2220   22.9480   39.6170 O   0  0  0  0  0  0  0  0  0  0  0  0
   36.8763   26.1518   39.3665 H   0  0  0  0  0  0  0  0  0  0  0  0
   37.1641   24.1868   43.1488 H   0  0  0  0  0  0  0  0  0  0  0  0
   38.7240   28.8536   42.0981 H   0  0  0  0  0  0  0  0  0  0  0  0
   34.8269   28.1547   40.4012 H   0  0  0  0  0  0  0  0  0  0  0  0
   36.4363   32.1075   40.6914 H   0  0  0  0  0  0  0  0  0  0  0  0
   39.0722   22.7158   41.0312 H   0  0  0  0  0  0  0  0  0  0  0  0
   38.4893   20.5995   39.4797 H   0  0  0  0  0  0  0  0  0  0  0  0
   36.0459   21.1278   38.4592 H   0  0  0  0  0  0  0  0  0  0  0  0
  1  5  2  0
  2  3  2  0
  2  1  1  0
  3  4  1  0
  4  5  1  0
  7  1  1  0
  7  6  2  0
  8  7  1  0
  9  8  2  0
  9 10  1  0
 10 11  2  0
 11  6  1  0
 12 13  2  0
 12  3  1  0
 14 13  1  0
 15 16  1  0
 15 14  2  0
 16 12  1  0
  2 17  1  0
  4 18  1  0
  6 19  1  0
  8 20  1  0
 10 21  1  0
 13 22  1  0
 14 23  1  0
 15 24  1  0
M  ISO  8  17  14  18   9  19  14  20  14  21  14  22  14  23  14  24  14
M  END
>  <minimizedAffinity>  (1) 
-4.10098839

>  <minimizedRMSD>  (1) 
0.53774929

$$$$
