
     RDKit          3D

 39 42  0  0  1  0  0  0  0  0999 V2000
   38.1210   28.4730   40.4840 N   0  0  0  0  0  0  0  0  0  0  0  0
   37.2010   27.7840   39.5400 C   0  0  0  0  0  0  0  0  0  0  0  0
   37.9480   27.0120   38.4970 C   0  0  0  0  0  0  0  0  0  0  0  0
   39.0330   27.7270   38.0110 O   0  0  0  0  0  0  0  0  0  0  0  0
   38.7780   29.0690   38.2170 C   0  0  0  0  0  0  0  0  0  0  0  0
   38.8250   29.4250   39.7170 C   0  0  1  0  0  0  0  0  0  0  0  0
   37.2600   28.0200   42.8820 C   0  0  1  0  0  0  0  0  0  0  0  0
   37.9940   29.3030   42.9090 C   0  0  0  0  0  0  0  0  0  0  0  0
   37.4250   28.8970   41.6220 C   0  0  1  0  0  0  0  0  0  0  0  0
   40.0170   25.7210   43.6850 C   0  0  0  0  0  0  0  0  0  0  0  0
   39.5740   24.4920   43.1060 C   0  0  0  0  0  0  0  0  0  0  0  0
   38.3150   24.5010   42.4340 C   0  0  0  0  0  0  0  0  0  0  0  0
   37.5950   25.6870   42.3760 N   0  0  0  0  0  0  0  0  0  0  0  0
   38.0860   26.7880   42.9440 C   0  0  0  0  0  0  0  0  0  0  0  0
   39.2730   26.8320   43.5920 N   0  0  0  0  0  0  0  0  0  0  0  0
   38.5180   30.8340   39.8860 C   0  0  0  0  0  0  0  0  0  0  0  0
   37.4260   31.4340   39.2420 C   0  0  0  0  0  0  0  0  0  0  0  0
   37.1180   32.7710   39.3890 C   0  0  0  0  0  0  0  0  0  0  0  0
   37.9480   33.5020   40.2130 C   0  0  0  0  0  0  0  0  0  0  0  0
   39.0320   32.9300   40.8600 C   0  0  0  0  0  0  0  0  0  0  0  0
   39.2710   31.6180   40.6670 N   0  0  0  0  0  0  0  0  0  0  0  0
   36.5632   27.0903   40.1074 H   0  0  0  0  0  0  0  0  0  0  0  0
   36.5979   28.5502   39.0308 H   0  0  0  0  0  0  0  0  0  0  0  0
   38.3093   26.0719   38.9393 H   0  0  0  0  0  0  0  0  0  0  0  0
   37.2632   26.8146   37.6591 H   0  0  0  0  0  0  0  0  0  0  0  0
   39.5346   29.6634   37.6839 H   0  0  0  0  0  0  0  0  0  0  0  0
   37.7696   29.2927   37.8387 H   0  0  0  0  0  0  0  0  0  0  0  0
   39.8353   29.3366   40.1430 H   0  0  0  0  0  0  0  0  0  0  0  0
   36.4158   27.5789   43.4323 H   0  0  0  0  0  0  0  0  0  0  0  0
   37.5624   30.1616   43.4442 H   0  0  0  0  0  0  0  0  0  0  0  0
   39.0046   29.5914   43.2338 H   0  0  0  0  0  0  0  0  0  0  0  0
   36.7749   29.3926   40.8860 H   0  0  0  0  0  0  0  0  0  0  0  0
   40.9809   25.7557   44.2138 H   0  0  0  0  0  0  0  0  0  0  0  0
   40.1790   23.5759   43.1754 H   0  0  0  0  0  0  0  0  0  0  0  0
   37.9218   23.5844   41.9701 H   0  0  0  0  0  0  0  0  0  0  0  0
   36.7895   30.8138   38.5937 H   0  0  0  0  0  0  0  0  0  0  0  0
   36.2583   33.2284   38.8774 H   0  0  0  0  0  0  0  0  0  0  0  0
   37.7432   34.5725   40.3613 H   0  0  0  0  0  0  0  0  0  0  0  0
   39.6804   33.5314   41.5141 H   0  0  0  0  0  0  0  0  0  0  0  0
  1  2  1  0
  1  9  1  0
  3  2  1  0
  4  5  1  0
  4  3  1  0
  5  6  1  0
  6 16  1  0
  6  1  1  0
  7  8  1  0
  7 14  1  0
  9  7  1  0
  9  8  1  0
 11 10  2  0
 12 11  1  0
 13 12  2  0
 13 14  1  0
 14 15  2  0
 15 10  1  0
 16 21  2  0
 17 18  2  0
 17 16  1  0
 18 19  1  0
 19 20  2  0
 21 20  1  0
  2 22  1  0
  2 23  1  0
  3 24  1  0
  3 25  1  0
  5 26  1  0
  5 27  1  0
  6 28  1  1
  7 29  1  1
  8 30  1  0
  8 31  1  0
  9 32  1  6
 10 33  1  0
 11 34  1  0
 12 35  1  0
 17 36  1  0
 18 37  1  0
 19 38  1  0
 20 39  1  0
M  ISO  8  22  13  23  13  24  13  25  13  26  13  27  13  28  13  29  13
M  ISO  8  30  13  31  13  32  13  33  14  34  14  35  14  36  14  37  14
M  ISO  2  38  14  39  14
M  END
>  <minimizedAffinity>  (1) 
-5.26362753

>  <minimizedRMSD>  (1) 
2.74662781

$$$$
