
     RDKit          3D

 30 32  0  0  0  0  0  0  0  0999 V2000
   36.9060   26.8930   41.4200 C   0  0  0  0  0  0  0  0  0  0  0  0
   36.8920   25.9990   40.3280 C   0  0  0  0  0  0  0  0  0  0  0  0
   37.0060   24.7640   40.9190 C   0  0  0  0  0  0  0  0  0  0  0  0
   37.0820   24.8920   42.2590 N   0  0  0  0  0  0  0  0  0  0  0  0
   37.0210   26.1890   42.5640 N   0  0  0  0  0  0  0  0  0  0  0  0
   37.8140   29.2180   41.6390 C   0  0  0  0  0  0  0  0  0  0  0  0
   36.8050   28.3360   41.2520 C   0  0  0  0  0  0  0  0  0  0  0  0
   35.6510   28.8680   40.6780 C   0  0  0  0  0  0  0  0  0  0  0  0
   35.5690   30.2330   40.5250 N   0  0  0  0  0  0  0  0  0  0  0  0
   36.5800   31.0490   40.9190 C   0  0  0  0  0  0  0  0  0  0  0  0
   37.7110   30.5390   41.4800 N   0  0  0  0  0  0  0  0  0  0  0  0
   37.0340   23.5550   40.1600 N   0  0  0  0  0  0  0  0  0  0  0  0
   36.0410   23.3700   39.1200 C   0  0  0  0  0  0  0  0  0  0  0  0
   35.7750   21.8880   38.9460 C   0  0  0  0  0  0  0  0  0  0  0  0
   37.0120   21.2880   38.6950 O   0  0  0  0  0  0  0  0  0  0  0  0
   37.8020   21.2550   39.8170 C   0  0  0  0  0  0  0  0  0  0  0  0
   38.0580   22.5690   40.4710 C   0  0  0  0  0  0  0  0  0  0  0  0
   36.8093   26.2352   39.2568 H   0  0  0  0  0  0  0  0  0  0  0  0
   37.1720   24.1187   42.9334 H   0  0  0  0  0  0  0  0  0  0  0  0
   38.7291   28.8092   42.0923 H   0  0  0  0  0  0  0  0  0  0  0  0
   34.8276   28.2135   40.3559 H   0  0  0  0  0  0  0  0  0  0  0  0
   36.4842   32.1364   40.7832 H   0  0  0  0  0  0  0  0  0  0  0  0
   35.1093   23.8804   39.4053 H   0  0  0  0  0  0  0  0  0  0  0  0
   36.4112   23.7935   38.1747 H   0  0  0  0  0  0  0  0  0  0  0  0
   35.3301   21.4720   39.8619 H   0  0  0  0  0  0  0  0  0  0  0  0
   35.0704   21.7052   38.1213 H   0  0  0  0  0  0  0  0  0  0  0  0
   37.3133   20.6010   40.5542 H   0  0  0  0  0  0  0  0  0  0  0  0
   38.7846   20.8941   39.4789 H   0  0  0  0  0  0  0  0  0  0  0  0
   39.0309   22.9504   40.1275 H   0  0  0  0  0  0  0  0  0  0  0  0
   38.0479   22.4084   41.5592 H   0  0  0  0  0  0  0  0  0  0  0  0
  1  5  2  0
  2  3  2  0
  2  1  1  0
  3  4  1  0
  4  5  1  0
  7  1  1  0
  7  6  2  0
  8  7  1  0
  9  8  2  0
  9 10  1  0
 10 11  2  0
 11  6  1  0
 12 17  1  0
 12  3  1  0
 13 12  1  0
 14 13  1  0
 15 14  1  0
 15 16  1  0
 16 17  1  0
  2 18  1  0
  4 19  1  0
  6 20  1  0
  8 21  1  0
 10 22  1  0
 13 23  1  0
 13 24  1  0
 14 25  1  0
 14 26  1  0
 16 27  1  0
 16 28  1  0
 17 29  1  0
 17 30  1  0
M  ISO  8  18  14  19   9  20  14  21  14  22  14  23  13  24  13  25  13
M  ISO  5  26  13  27  13  28  13  29  13  30  13
M  END
>  <minimizedAffinity>  (1) 
-4.06190014

>  <minimizedRMSD>  (1) 
0.560501099

$$$$
