
     RDKit          3D

 37 40  0  0  1  0  0  0  0  0999 V2000
   39.6070   32.2410   39.7550 N   0  0  0  0  0  0  0  0  0  0  0  0
   40.5280   31.5320   38.8270 C   0  0  0  0  0  0  0  0  0  0  0  0
   41.4390   30.5930   39.5590 C   0  0  0  0  0  0  0  0  0  0  0  0
   41.9330   31.1640   40.7220 O   0  0  0  0  0  0  0  0  0  0  0  0
   41.8830   32.5410   40.5730 C   0  0  0  0  0  0  0  0  0  0  0  0
   40.4240   33.0430   40.5840 C   0  0  1  0  0  0  0  0  0  0  0  0
   37.2090   32.1420   38.7900 C   0  0  1  0  0  0  0  0  0  0  0  0
   37.3140   33.3810   39.5900 C   0  0  0  0  0  0  0  0  0  0  0  0
   38.5620   32.8430   39.0450 C   0  0  1  0  0  0  0  0  0  0  0  0
   36.2180   29.8540   41.4930 C   0  0  0  0  0  0  0  0  0  0  0  0
   36.4310   28.5720   40.9070 C   0  0  0  0  0  0  0  0  0  0  0  0
   36.9330   28.5360   39.5730 C   0  0  0  0  0  0  0  0  0  0  0  0
   37.1860   29.7330   38.9200 N   0  0  0  0  0  0  0  0  0  0  0  0
   36.9580   30.8890   39.5430 C   0  0  0  0  0  0  0  0  0  0  0  0
   36.4830   30.9770   40.8060 N   0  0  0  0  0  0  0  0  0  0  0  0
   40.4130   34.4840   40.3760 C   0  0  0  0  0  0  0  0  0  0  0  0
   41.1350   35.1450   39.3790 C   0  0  0  0  0  0  0  0  0  0  0  0
   40.8870   36.4770   39.4870 N   0  0  0  0  0  0  0  0  0  0  0  0
   40.0420   36.6780   40.5070 C   0  0  0  0  0  0  0  0  0  0  0  0
   39.7520   35.4750   41.0500 N   0  0  0  0  0  0  0  0  0  0  0  0
   39.9316   30.9578   38.1027 H   0  0  0  0  0  0  0  0  0  0  0  0
   41.1485   32.2847   38.3185 H   0  0  0  0  0  0  0  0  0  0  0  0
   40.8793   29.6822   39.8183 H   0  0  0  0  0  0  0  0  0  0  0  0
   42.2899   30.3577   38.9028 H   0  0  0  0  0  0  0  0  0  0  0  0
   42.3517   32.8171   39.6170 H   0  0  0  0  0  0  0  0  0  0  0  0
   42.4209   33.0053   41.4127 H   0  0  0  0  0  0  0  0  0  0  0  0
   39.9443   32.9138   41.5654 H   0  0  0  0  0  0  0  0  0  0  0  0
   36.6423   31.8162   37.9053 H   0  0  0  0  0  0  0  0  0  0  0  0
   36.9088   34.3208   39.1867 H   0  0  0  0  0  0  0  0  0  0  0  0
   36.9872   33.6588   40.6029 H   0  0  0  0  0  0  0  0  0  0  0  0
   39.3803   33.2736   38.4492 H   0  0  0  0  0  0  0  0  0  0  0  0
   35.8318   29.9242   42.5206 H   0  0  0  0  0  0  0  0  0  0  0  0
   36.2165   27.6469   41.4622 H   0  0  0  0  0  0  0  0  0  0  0  0
   37.1165   27.5750   39.0702 H   0  0  0  0  0  0  0  0  0  0  0  0
   41.7910   34.6694   38.6350 H   0  0  0  0  0  0  0  0  0  0  0  0
   39.6530   37.6505   40.8431 H   0  0  0  0  0  0  0  0  0  0  0  0
   39.1252   35.3257   41.8536 H   0  0  0  0  0  0  0  0  0  0  0  0
  1  2  1  0
  1  6  1  0
  2  3  1  0
  3  4  1  0
  5  6  1  0
  5  4  1  0
  7  9  1  0
  7 14  1  0
  7  8  1  0
  9  8  1  0
  9  1  1  0
 11 10  2  0
 12 11  1  0
 13 14  1  0
 13 12  2  0
 14 15  2  0
 15 10  1  0
 16  6  1  0
 16 20  1  0
 17 18  1  0
 17 16  2  0
 18 19  2  0
 19 20  1  0
  2 21  1  0
  2 22  1  0
  3 23  1  0
  3 24  1  0
  5 25  1  0
  5 26  1  0
  6 27  1  1
  7 28  1  6
  8 29  1  0
  8 30  1  0
  9 31  1  6
 10 32  1  0
 11 33  1  0
 12 34  1  0
 17 35  1  0
 19 36  1  0
 20 37  1  0
M  ISO  8  21  13  22  13  23  13  24  13  25  13  26  13  27  13  28  13
M  ISO  8  29  13  30  13  31  13  32  14  33  14  34  14  35  14  36  14
M  ISO  1  37   9
M  END
>  <minimizedAffinity>  (1) 
-4.95371008

>  <minimizedRMSD>  (1) 
3.20703411

$$$$
