
     RDKit          3D

 40 43  0  0  1  0  0  0  0  0999 V2000
   37.9050   29.9150   39.2260 N   0  0  0  0  0  0  0  0  0  0  0  0
   37.9030   29.7520   37.7450 C   0  0  0  0  0  0  0  0  0  0  0  0
   39.1250   29.0250   37.2830 C   0  0  0  0  0  0  0  0  0  0  0  0
   40.2650   29.4900   37.9430 O   0  0  0  0  0  0  0  0  0  0  0  0
   40.0090   30.7740   38.3610 C   0  0  0  0  0  0  0  0  0  0  0  0
   38.9680   30.7890   39.5160 C   0  0  2  0  0  0  0  0  0  0  0  0
   39.8250   30.5310   40.6810 C   0  0  0  0  0  0  0  0  0  0  0  0
   40.2780   29.2170   40.7230 C   0  0  0  0  0  0  0  0  0  0  0  0
   41.1220   28.7530   41.7380 C   0  0  0  0  0  0  0  0  0  0  0  0
   41.4920   29.6800   42.7180 C   0  0  0  0  0  0  0  0  0  0  0  0
   41.0320   30.9800   42.6610 C   0  0  0  0  0  0  0  0  0  0  0  0
   40.2020   31.4300   41.6590 C   0  0  0  0  0  0  0  0  0  0  0  0
   35.8840   29.6290   40.8250 C   0  0  1  0  0  0  0  0  0  0  0  0
   36.2660   31.0560   40.8570 C   0  0  0  0  0  0  0  0  0  0  0  0
   36.6050   30.3080   39.6410 C   0  0  1  0  0  0  0  0  0  0  0  0
   38.0030   28.4090   43.5630 C   0  0  0  0  0  0  0  0  0  0  0  0
   38.1650   27.0410   43.2650 C   0  0  0  0  0  0  0  0  0  0  0  0
   37.5360   26.5640   42.0990 C   0  0  0  0  0  0  0  0  0  0  0  0
   36.8000   27.4380   41.3120 N   0  0  0  0  0  0  0  0  0  0  0  0
   36.6940   28.7220   41.6610 C   0  0  0  0  0  0  0  0  0  0  0  0
   37.2850   29.1980   42.7690 N   0  0  0  0  0  0  0  0  0  0  0  0
   37.0111   29.1811   37.4474 H   0  0  0  0  0  0  0  0  0  0  0  0
   37.8943   30.7503   37.2832 H   0  0  0  0  0  0  0  0  0  0  0  0
   39.0036   27.9512   37.4883 H   0  0  0  0  0  0  0  0  0  0  0  0
   39.2494   29.2000   36.2042 H   0  0  0  0  0  0  0  0  0  0  0  0
   40.9453   31.2300   38.7151 H   0  0  0  0  0  0  0  0  0  0  0  0
   39.5989   31.3425   37.5133 H   0  0  0  0  0  0  0  0  0  0  0  0
   38.3987   31.7131   39.6947 H   0  0  0  0  0  0  0  0  0  0  0  0
   39.9627   28.5198   39.9328 H   0  0  0  0  0  0  0  0  0  0  0  0
   41.4766   27.7120   41.7640 H   0  0  0  0  0  0  0  0  0  0  0  0
   42.1543   29.3707   43.5400 H   0  0  0  0  0  0  0  0  0  0  0  0
   41.3408   31.6845   43.4473 H   0  0  0  0  0  0  0  0  0  0  0  0
   39.8505   32.4721   41.6382 H   0  0  0  0  0  0  0  0  0  0  0  0
   34.9559   29.0530   40.9552 H   0  0  0  0  0  0  0  0  0  0  0  0
   35.4822   31.8267   40.8170 H   0  0  0  0  0  0  0  0  0  0  0  0
   36.8513   31.6688   41.5583 H   0  0  0  0  0  0  0  0  0  0  0  0
   36.4263   30.4781   38.5690 H   0  0  0  0  0  0  0  0  0  0  0  0
   38.4760   28.8290   44.4629 H   0  0  0  0  0  0  0  0  0  0  0  0
   38.7554   26.3768   43.9132 H   0  0  0  0  0  0  0  0  0  0  0  0
   37.6275   25.5055   41.8140 H   0  0  0  0  0  0  0  0  0  0  0  0
  1  2  1  0
  1  6  1  0
  1 15  1  0
  3  2  1  0
  3  4  1  0
  4  5  1  0
  5  6  1  0
  6  7  1  0
  7  8  2  0
  7 12  1  0
  8  9  1  0
  9 10  2  0
 11 10  1  0
 12 11  2  0
 13 14  1  0
 13 20  1  0
 15 13  1  0
 15 14  1  0
 17 16  2  0
 18 17  1  0
 19 20  1  0
 19 18  2  0
 20 21  2  0
 21 16  1  0
  2 22  1  0
  2 23  1  0
  3 24  1  0
  3 25  1  0
  5 26  1  0
  5 27  1  0
  6 28  1  1
  8 29  1  0
  9 30  1  0
 10 31  1  0
 11 32  1  0
 12 33  1  0
 13 34  1  6
 14 35  1  0
 14 36  1  0
 15 37  1  6
 16 38  1  0
 17 39  1  0
 18 40  1  0
M  ISO  8  22  13  23  13  24  13  25  13  26  13  27  13  28  13  29  14
M  ISO  8  30  14  31  14  32  14  33  14  34  13  35  13  36  13  37  13
M  ISO  3  38  14  39  14  40  14
M  END
>  <minimizedAffinity>  (1) 
-4.737813

>  <minimizedRMSD>  (1) 
1.02284479

$$$$
