
     RDKit          3D

 32 34  0  0  1  0  0  0  0  0999 V2000
   36.2720   30.6570   41.1200 C   0  0  1  0  0  0  0  0  0  0  0  0
   37.1810   31.6430   40.5020 C   0  0  0  0  0  0  0  0  0  0  0  0
   36.5290   30.6880   39.5980 C   0  0  1  0  0  0  0  0  0  0  0  0
   37.1220   29.6180   38.9110 N   0  0  0  0  0  0  0  0  0  0  0  0
   36.0910   28.7920   38.2430 C   0  0  0  0  0  0  0  0  0  0  0  0
   36.6520   27.4730   37.7950 C   0  0  0  0  0  0  0  0  0  0  0  0
   37.8990   27.6250   37.2060 O   0  0  0  0  0  0  0  0  0  0  0  0
   38.0060   28.9260   36.7350 C   0  0  0  0  0  0  0  0  0  0  0  0
   38.0680   29.9490   37.8850 C   0  0  1  0  0  0  0  0  0  0  0  0
   37.5830   31.2220   37.2290 C   0  0  0  0  0  0  0  0  0  0  0  0
   37.6140   32.0280   36.3030 O   0  0  0  0  0  0  0  0  0  0  0  0
   38.7190   28.8050   43.1520 C   0  0  0  0  0  0  0  0  0  0  0  0
   38.0830   27.5510   43.3380 C   0  0  0  0  0  0  0  0  0  0  0  0
   36.8080   27.3690   42.7370 C   0  0  0  0  0  0  0  0  0  0  0  0
   36.2510   28.4110   42.0050 N   0  0  0  0  0  0  0  0  0  0  0  0
   36.9180   29.5600   41.8800 C   0  0  0  0  0  0  0  0  0  0  0  0
   38.1320   29.7760   42.4340 N   0  0  0  0  0  0  0  0  0  0  0  0
   35.3850   30.6949   41.7695 H   0  0  0  0  0  0  0  0  0  0  0  0
   36.8887   32.7030   40.4711 H   0  0  0  0  0  0  0  0  0  0  0  0
   38.2295   31.9236   40.6804 H   0  0  0  0  0  0  0  0  0  0  0  0
   35.9457   30.7980   38.6719 H   0  0  0  0  0  0  0  0  0  0  0  0
   35.2665   28.6095   38.9479 H   0  0  0  0  0  0  0  0  0  0  0  0
   35.7329   29.3353   37.3561 H   0  0  0  0  0  0  0  0  0  0  0  0
   36.7472   26.8100   38.6676 H   0  0  0  0  0  0  0  0  0  0  0  0
   35.9679   27.0422   37.0490 H   0  0  0  0  0  0  0  0  0  0  0  0
   38.9223   29.0120   36.1325 H   0  0  0  0  0  0  0  0  0  0  0  0
   37.1129   29.1449   36.1313 H   0  0  0  0  0  0  0  0  0  0  0  0
   39.0679   30.0009   38.3406 H   0  0  0  0  0  0  0  0  0  0  0  0
   36.8318   31.6250   37.9242 H   0  0  0  0  0  0  0  0  0  0  0  0
   39.7065   28.9845   43.6020 H   0  0  0  0  0  0  0  0  0  0  0  0
   38.5579   26.7507   43.9244 H   0  0  0  0  0  0  0  0  0  0  0  0
   36.2694   26.4165   42.8496 H   0  0  0  0  0  0  0  0  0  0  0  0
  1 16  1  0
  2  1  1  0
  3  2  1  0
  3  1  1  0
  4  5  1  0
  4  3  1  0
  6  5  1  0
  7  6  1  0
  8  7  1  0
  8  9  1  0
  9  4  1  0
 10  9  1  0
 11 10  2  0
 12 13  2  0
 14 13  1  0
 15 14  2  0
 16 15  1  0
 16 17  2  0
 17 12  1  0
  1 18  1  6
  2 19  1  0
  2 20  1  0
  3 21  1  6
  5 22  1  0
  5 23  1  0
  6 24  1  0
  6 25  1  0
  8 26  1  0
  8 27  1  0
  9 28  1  1
 10 29  1  0
 12 30  1  0
 13 31  1  0
 14 32  1  0
M  ISO  8  18  13  19  13  20  13  21  13  22  13  23  13  24  13  25  13
M  ISO  7  26  13  27  13  28  13  29   6  30  14  31  14  32  14
M  END
>  <minimizedAffinity>  (1) 
-4.08137417

>  <minimizedRMSD>  (1) 
1.44353914

$$$$
