
     RDKit          3D

 33 35  0  0  1  0  0  0  0  0999 V2000
   36.2470   30.5160   40.6260 C   0  0  1  0  0  0  0  0  0  0  0  0
   37.0620   31.7380   40.4660 C   0  0  0  0  0  0  0  0  0  0  0  0
   37.1300   30.7570   39.3820 C   0  0  1  0  0  0  0  0  0  0  0  0
   38.2140   29.9380   39.0500 N   0  0  0  0  0  0  0  0  0  0  0  0
   37.8170   28.9400   38.0210 C   0  0  0  0  0  0  0  0  0  0  0  0
   38.8050   27.8250   37.9070 C   0  0  0  0  0  0  0  0  0  0  0  0
   40.1130   28.2910   37.9610 O   0  0  0  0  0  0  0  0  0  0  0  0
   40.1060   29.6160   37.5560 C   0  0  0  0  0  0  0  0  0  0  0  0
   39.4140   30.5270   38.5920 C   0  0  1  0  0  0  0  0  0  0  0  0
   39.3690   31.8740   37.9740 C   0  0  0  0  0  0  0  0  0  0  0  0
   38.1850   29.0110   43.3670 C   0  0  0  0  0  0  0  0  0  0  0  0
   37.6160   27.7240   43.4830 C   0  0  0  0  0  0  0  0  0  0  0  0
   36.5620   27.3920   42.5830 C   0  0  0  0  0  0  0  0  0  0  0  0
   36.1520   28.3370   41.6520 N   0  0  0  0  0  0  0  0  0  0  0  0
   36.7460   29.5300   41.6140 C   0  0  0  0  0  0  0  0  0  0  0  0
   37.7480   29.8850   42.4490 N   0  0  0  0  0  0  0  0  0  0  0  0
   35.1866   30.2851   40.8056 H   0  0  0  0  0  0  0  0  0  0  0  0
   36.5620   32.7022   40.2918 H   0  0  0  0  0  0  0  0  0  0  0  0
   37.8216   32.2293   41.0918 H   0  0  0  0  0  0  0  0  0  0  0  0
   36.9993   30.8165   38.2914 H   0  0  0  0  0  0  0  0  0  0  0  0
   36.8379   28.5195   38.2942 H   0  0  0  0  0  0  0  0  0  0  0  0
   37.7741   29.4545   37.0497 H   0  0  0  0  0  0  0  0  0  0  0  0
   38.6500   27.3077   36.9487 H   0  0  0  0  0  0  0  0  0  0  0  0
   38.6492   27.1403   38.7537 H   0  0  0  0  0  0  0  0  0  0  0  0
   41.1445   29.9532   37.4223 H   0  0  0  0  0  0  0  0  0  0  0  0
   39.5448   29.6827   36.6123 H   0  0  0  0  0  0  0  0  0  0  0  0
   39.9513   30.6499   39.5439 H   0  0  0  0  0  0  0  0  0  0  0  0
   39.3434   32.6391   38.7639 H   0  0  0  0  0  0  0  0  0  0  0  0
   40.2627   32.0211   37.3498 H   0  0  0  0  0  0  0  0  0  0  0  0
   38.4674   31.9611   37.3498 H   0  0  0  0  0  0  0  0  0  0  0  0
   39.0026   29.3022   44.0428 H   0  0  0  0  0  0  0  0  0  0  0  0
   37.9717   27.0068   44.2373 H   0  0  0  0  0  0  0  0  0  0  0  0
   36.0813   26.4035   42.6252 H   0  0  0  0  0  0  0  0  0  0  0  0
  1 15  1  0
  2  1  1  0
  3  2  1  0
  3  1  1  0
  4  5  1  0
  4  3  1  0
  6  7  1  0
  6  5  1  0
  8  7  1  0
  8  9  1  0
  9  4  1  0
 10  9  1  0
 11 12  2  0
 13 12  1  0
 14 13  2  0
 15 14  1  0
 15 16  2  0
 16 11  1  0
  1 17  1  6
  2 18  1  0
  2 19  1  0
  3 20  1  6
  5 21  1  0
  5 22  1  0
  6 23  1  0
  6 24  1  0
  8 25  1  0
  8 26  1  0
  9 27  1  1
 10 28  1  0
 10 29  1  0
 10 30  1  0
 11 31  1  0
 12 32  1  0
 13 33  1  0
M  ISO  8  17  13  18  13  19  13  20  13  21  13  22  13  23  13  24  13
M  ISO  8  25  13  26  13  27  13  28   8  29   8  30   8  31  14  32  14
M  ISO  1  33  14
M  END
>  <minimizedAffinity>  (1) 
-3.97611761

>  <minimizedRMSD>  (1) 
0.581863761

$$$$
