
     RDKit          3D

 26 28  0  0  0  0  0  0  0  0999 V2000
   37.7650   28.9930   42.4100 C   0  0  0  0  0  0  0  0  0  0  0  0
   37.4640   28.7350   43.7220 C   0  0  0  0  0  0  0  0  0  0  0  0
   37.1060   27.4540   43.8650 N   0  0  0  0  0  0  0  0  0  0  0  0
   37.1600   26.8370   42.6670 C   0  0  0  0  0  0  0  0  0  0  0  0
   36.8980   25.5280   42.2320 C   0  0  0  0  0  0  0  0  0  0  0  0
   37.0410   25.1650   40.9020 C   0  0  0  0  0  0  0  0  0  0  0  0
   37.4520   26.1460   40.0200 C   0  0  0  0  0  0  0  0  0  0  0  0
   37.7070   27.4210   40.4460 C   0  0  0  0  0  0  0  0  0  0  0  0
   37.5700   27.7990   41.7630 C   0  0  0  0  0  0  0  0  0  0  0  0
   39.9740   31.8150   41.3520 C   0  0  0  0  0  0  0  0  0  0  0  0
   39.5600   30.5900   41.9400 C   0  0  0  0  0  0  0  0  0  0  0  0
   38.1970   30.2440   41.8110 C   0  0  0  0  0  0  0  0  0  0  0  0
   37.3660   31.0960   41.1370 N   0  0  0  0  0  0  0  0  0  0  0  0
   37.7970   32.2500   40.5930 C   0  0  0  0  0  0  0  0  0  0  0  0
   39.0910   32.6090   40.6980 N   0  0  0  0  0  0  0  0  0  0  0  0
   36.8020   33.0070   39.9330 N   0  0  0  0  0  0  0  0  0  0  0  0
   37.5100   29.4723   44.5370 H   0  0  0  0  0  0  0  0  0  0  0  0
   36.8318   27.0082   44.7521 H   0  0  0  0  0  0  0  0  0  0  0  0
   36.5719   24.7736   42.9631 H   0  0  0  0  0  0  0  0  0  0  0  0
   36.8359   24.1389   40.5628 H   0  0  0  0  0  0  0  0  0  0  0  0
   37.5765   25.8974   38.9557 H   0  0  0  0  0  0  0  0  0  0  0  0
   38.0331   28.1708   39.7102 H   0  0  0  0  0  0  0  0  0  0  0  0
   41.0269   32.1240   41.4285 H   0  0  0  0  0  0  0  0  0  0  0  0
   40.2697   29.9397   42.4723 H   0  0  0  0  0  0  0  0  0  0  0  0
   35.8321   32.6623   39.8967 H   0  0  0  0  0  0  0  0  0  0  0  0
   37.0470   33.9032   39.4884 H   0  0  0  0  0  0  0  0  0  0  0  0
  1  2  2  0
  2  3  1  0
  4  3  1  0
  5  4  2  0
  6  5  1  0
  7  8  1  0
  7  6  2  0
  8  9  2  0
  9  1  1  0
  9  4  1  0
 10 11  2  0
 12 11  1  0
 12  1  1  0
 13 12  2  0
 14 15  2  0
 14 13  1  0
 15 10  1  0
 16 14  1  0
  2 17  1  0
  3 18  1  0
  5 19  1  0
  6 20  1  0
  7 21  1  0
  8 22  1  0
 10 23  1  0
 11 24  1  0
 16 25  1  0
 16 26  1  0
M  ISO  8  17  14  18   9  19  14  20  14  21  14  22  14  23  14  24  14
M  END
>  <minimizedAffinity>  (1) 
-5.11991167

>  <minimizedRMSD>  (1) 
0.684283376

$$$$
