
     RDKit          3D

 24 26  0  0  0  0  0  0  0  0999 V2000
   36.9100   26.9110   41.5080 C   0  0  0  0  0  0  0  0  0  0  0  0
   36.8790   25.9830   40.4650 C   0  0  0  0  0  0  0  0  0  0  0  0
   37.0020   24.7650   41.0830 C   0  0  0  0  0  0  0  0  0  0  0  0
   37.1020   24.9280   42.4100 N   0  0  0  0  0  0  0  0  0  0  0  0
   37.0440   26.2280   42.6490 N   0  0  0  0  0  0  0  0  0  0  0  0
   37.8160   29.2420   41.6410 C   0  0  0  0  0  0  0  0  0  0  0  0
   36.8070   28.3430   41.2930 C   0  0  0  0  0  0  0  0  0  0  0  0
   35.6450   28.8560   40.7100 C   0  0  0  0  0  0  0  0  0  0  0  0
   35.5590   30.2090   40.5100 N   0  0  0  0  0  0  0  0  0  0  0  0
   36.5670   31.0360   40.8660 C   0  0  0  0  0  0  0  0  0  0  0  0
   37.7110   30.5520   41.4380 N   0  0  0  0  0  0  0  0  0  0  0  0
   37.0210   23.5140   40.4040 N   0  0  0  0  0  0  0  0  0  0  0  0
   37.9400   22.5440   40.4920 C   0  0  0  0  0  0  0  0  0  0  0  0
   37.6310   21.4640   39.6830 C   0  0  0  0  0  0  0  0  0  0  0  0
   36.4710   21.8110   39.0860 N   0  0  0  0  0  0  0  0  0  0  0  0
   36.1230   23.0310   39.5230 C   0  0  0  0  0  0  0  0  0  0  0  0
   36.7784   26.1841   39.3882 H   0  0  0  0  0  0  0  0  0  0  0  0
   37.2047   24.1812   43.1118 H   0  0  0  0  0  0  0  0  0  0  0  0
   38.7352   28.8513   42.1018 H   0  0  0  0  0  0  0  0  0  0  0  0
   34.8195   28.1899   40.4187 H   0  0  0  0  0  0  0  0  0  0  0  0
   36.4654   32.1175   40.6926 H   0  0  0  0  0  0  0  0  0  0  0  0
   38.8338   22.5988   41.1309 H   0  0  0  0  0  0  0  0  0  0  0  0
   38.2022   20.5326   39.5553 H   0  0  0  0  0  0  0  0  0  0  0  0
   35.2187   23.5690   39.2025 H   0  0  0  0  0  0  0  0  0  0  0  0
  1  5  2  0
  2  3  2  0
  2  1  1  0
  3  4  1  0
  4  5  1  0
  7  1  1  0
  7  6  2  0
  8  7  1  0
  9  8  2  0
  9 10  1  0
 10 11  2  0
 11  6  1  0
 12 13  1  0
 12  3  1  0
 14 13  2  0
 15 16  2  0
 15 14  1  0
 16 12  1  0
  2 17  1  0
  4 18  1  0
  6 19  1  0
  8 20  1  0
 10 21  1  0
 13 22  1  0
 14 23  1  0
 16 24  1  0
M  ISO  8  17  14  18   9  19  14  20  14  21  14  22  14  23  14  24  14
M  END
>  <minimizedAffinity>  (1) 
-3.9877286

>  <minimizedRMSD>  (1) 
0.518880606

$$$$
