
     RDKit          3D

 24 25  0  0  0  0  0  0  0  0999 V2000
   37.3030   26.8680   41.5700 C   0  0  0  0  0  0  0  0  0  0  0  0
   36.8000   25.8390   40.7680 C   0  0  0  0  0  0  0  0  0  0  0  0
   37.3650   24.7060   41.3130 C   0  0  0  0  0  0  0  0  0  0  0  0
   38.1500   25.0180   42.3620 N   0  0  0  0  0  0  0  0  0  0  0  0
   38.0970   26.3230   42.4960 N   0  0  0  0  0  0  0  0  0  0  0  0
   37.8120   29.3100   41.7930 C   0  0  0  0  0  0  0  0  0  0  0  0
   36.9600   28.2740   41.3420 C   0  0  0  0  0  0  0  0  0  0  0  0
   35.7900   28.5840   40.6760 C   0  0  0  0  0  0  0  0  0  0  0  0
   35.5130   29.9250   40.4850 N   0  0  0  0  0  0  0  0  0  0  0  0
   36.3380   30.9010   40.9210 C   0  0  0  0  0  0  0  0  0  0  0  0
   37.4760   30.5880   41.5690 N   0  0  0  0  0  0  0  0  0  0  0  0
   37.1570   23.3790   40.8450 N   0  0  0  0  0  0  0  0  0  0  0  0
   38.2160   22.5810   40.3270 C   0  0  0  0  0  0  0  0  0  0  0  0
   39.1280   23.1850   39.6380 N   0  0  0  0  0  0  0  0  0  0  0  0
   38.2420   21.1600   40.5770 N   0  0  0  0  0  0  0  0  0  0  0  0
   39.9550   22.7180   39.2050 H   0  0  0  0  0  0  0  0  0  0  0  0
   36.1175   25.9153   39.9087 H   0  0  0  0  0  0  0  0  0  0  0  0
   38.6873   24.3608   42.9454 H   0  0  0  0  0  0  0  0  0  0  0  0
   38.7443   29.0679   42.3242 H   0  0  0  0  0  0  0  0  0  0  0  0
   35.1095   27.7993   40.3140 H   0  0  0  0  0  0  0  0  0  0  0  0
   36.0794   31.9558   40.7461 H   0  0  0  0  0  0  0  0  0  0  0  0
   36.2074   22.9817   40.8822 H   0  0  0  0  0  0  0  0  0  0  0  0
   39.0094   20.5849   40.2011 H   0  0  0  0  0  0  0  0  0  0  0  0
   37.4932   20.7208   41.1314 H   0  0  0  0  0  0  0  0  0  0  0  0
  1  5  2  0
  2  3  2  0
  2  1  1  0
  3  4  1  0
  4  5  1  0
  7  1  1  0
  7  6  2  0
  8  7  1  0
  9  8  2  0
  9 10  1  0
 10 11  2  0
 11  6  1  0
 12  3  1  0
 13 15  1  0
 13 12  1  0
 14 13  2  0
 16 14  1  0
  2 17  1  0
  4 18  1  0
  6 19  1  0
  8 20  1  0
 10 21  1  0
 12 22  1  0
 15 23  1  0
 15 24  1  0
M  ISO  5  17  14  18   9  19  14  20  14  21  14
M  END
>  <minimizedAffinity>  (1) 
-3.98496509

>  <minimizedRMSD>  (1) 
1.18138742

$$$$
