
     RDKit          3D

 44 48  0  0  1  0  0  0  0  0999 V2000
   36.2360   30.8880   41.0160 C   0  0  0  0  0  0  0  0  0  0  0  0
   36.6610   29.6940   41.6150 C   0  0  0  0  0  0  0  0  0  0  0  0
   38.0200   29.4010   41.6250 C   0  0  0  0  0  0  0  0  0  0  0  0
   38.8470   30.3060   41.0460 N   0  0  0  0  0  0  0  0  0  0  0  0
   38.4320   31.4440   40.4750 C   0  0  0  0  0  0  0  0  0  0  0  0
   37.1160   31.7480   40.4540 N   0  0  0  0  0  0  0  0  0  0  0  0
   38.4710   28.1620   42.2300 C   0  0  0  0  0  0  0  0  0  0  0  0
   39.3990   27.9930   43.2310 C   0  0  0  0  0  0  0  0  0  0  0  0
   39.5440   26.6840   43.5110 N   0  0  0  0  0  0  0  0  0  0  0  0
   38.7240   25.9600   42.7100 C   0  0  0  0  0  0  0  0  0  0  0  0
   38.4560   24.6000   42.5550 C   0  0  0  0  0  0  0  0  0  0  0  0
   37.5400   24.1410   41.6260 C   0  0  0  0  0  0  0  0  0  0  0  0
   36.8980   25.0750   40.8560 C   0  0  0  0  0  0  0  0  0  0  0  0
   37.1440   26.4120   40.9890 C   0  0  0  0  0  0  0  0  0  0  0  0
   38.0540   26.8800   41.9110 C   0  0  0  0  0  0  0  0  0  0  0  0
   39.4180   32.3920   39.8670 C   0  0  1  0  0  0  0  0  0  0  0  0
   39.3600   33.8480   40.3040 C   0  0  0  0  0  0  0  0  0  0  0  0
   40.4810   32.9670   40.7420 C   0  0  2  0  0  0  0  0  0  0  0  0
   44.4530   33.5400   39.3130 C   0  0  0  0  0  0  0  0  0  0  0  0
   43.3660   33.8690   38.5280 C   0  0  0  0  0  0  0  0  0  0  0  0
   42.0840   33.6710   39.0230 C   0  0  0  0  0  0  0  0  0  0  0  0
   41.8610   33.1450   40.2950 C   0  0  0  0  0  0  0  0  0  0  0  0
   42.9390   32.8120   41.0880 C   0  0  0  0  0  0  0  0  0  0  0  0
   44.2150   33.0140   40.5830 C   0  0  0  0  0  0  0  0  0  0  0  0
   46.0150   33.8130   38.6350 S   0  0  0  0  0  0  0  0  0  0  0  0
   45.8970   33.6190   37.1300 O   0  0  0  0  0  0  0  0  0  0  0  0
   46.3210   35.2940   38.7960 O   0  0  0  0  0  0  0  0  0  0  0  0
   35.1632   31.1310   41.0027 H   0  0  0  0  0  0  0  0  0  0  0  0
   35.9344   29.0033   42.0677 H   0  0  0  0  0  0  0  0  0  0  0  0
   39.9433   28.8083   43.7300 H   0  0  0  0  0  0  0  0  0  0  0  0
   40.1785   26.2938   44.2223 H   0  0  0  0  0  0  0  0  0  0  0  0
   38.9869   23.8737   43.1880 H   0  0  0  0  0  0  0  0  0  0  0  0
   37.3346   23.0666   41.5097 H   0  0  0  0  0  0  0  0  0  0  0  0
   36.1635   24.7385   40.1094 H   0  0  0  0  0  0  0  0  0  0  0  0
   36.6063   27.1270   40.3490 H   0  0  0  0  0  0  0  0  0  0  0  0
   39.4063   31.8589   38.9049 H   0  0  0  0  0  0  0  0  0  0  0  0
   39.5419   34.6508   39.5743 H   0  0  0  0  0  0  0  0  0  0  0  0
   38.6195   34.4822   40.8134 H   0  0  0  0  0  0  0  0  0  0  0  0
   40.9091   32.6976   41.7188 H   0  0  0  0  0  0  0  0  0  0  0  0
   43.5142   34.2840   37.5201 H   0  0  0  0  0  0  0  0  0  0  0  0
   41.2209   33.9362   38.3947 H   0  0  0  0  0  0  0  0  0  0  0  0
   42.7907   32.3966   42.0957 H   0  0  0  0  0  0  0  0  0  0  0  0
   45.0774   32.7477   41.2117 H   0  0  0  0  0  0  0  0  0  0  0  0
   46.9458   32.9941   39.2180 H   0  0  0  0  0  0  0  0  0  0  0  0
  1  2  2  0
  2  3  1  0
  3  7  1  0
  4  3  2  0
  5  4  1  0
  6  5  2  0
  6  1  1  0
  7  8  2  0
  8  9  1  0
 10  9  1  0
 11 10  2  0
 12 11  1  0
 13 14  1  0
 13 12  2  0
 14 15  2  0
 15  7  1  0
 15 10  1  0
 16 17  1  0
 16  5  1  0
 16 18  1  0
 17 18  1  0
 19 24  2  0
 20 21  2  0
 20 19  1  0
 21 22  1  0
 22 18  1  0
 22 23  2  0
 24 23  1  0
 25 27  2  0
 25 19  1  0
 26 25  2  0
  1 28  1  0
  2 29  1  0
  8 30  1  0
  9 31  1  0
 11 32  1  0
 12 33  1  0
 13 34  1  0
 14 35  1  0
 16 36  1  6
 17 37  1  0
 17 38  1  0
 18 39  1  1
 20 40  1  0
 21 41  1  0
 23 42  1  0
 24 43  1  0
 25 44  1  0
M  ISO  8  28  14  29  14  30  14  31   9  32  14  33  14  34  14  35  14
M  ISO  8  36  13  37  13  38  13  39  13  40  14  41  14  42  14  43  14
M  ISO  1  44  11
M  END
>  <minimizedAffinity>  (1) 
-6.17122412

>  <minimizedRMSD>  (1) 
0.727023304

$$$$
