
     RDKit          3D

 39 43  0  0  1  0  0  0  0  0999 V2000
   36.1530   30.7530   41.0980 C   0  0  0  0  0  0  0  0  0  0  0  0
   36.7590   29.6220   41.6840 C   0  0  0  0  0  0  0  0  0  0  0  0
   38.1480   29.5260   41.6540 C   0  0  0  0  0  0  0  0  0  0  0  0
   38.8330   30.5360   41.0570 N   0  0  0  0  0  0  0  0  0  0  0  0
   38.2360   31.6130   40.5000 C   0  0  0  0  0  0  0  0  0  0  0  0
   36.8900   31.7240   40.5180 N   0  0  0  0  0  0  0  0  0  0  0  0
   38.7860   28.3630   42.2420 C   0  0  0  0  0  0  0  0  0  0  0  0
   39.9220   28.3090   43.0170 C   0  0  0  0  0  0  0  0  0  0  0  0
   40.1740   27.0240   43.3540 N   0  0  0  0  0  0  0  0  0  0  0  0
   39.2310   26.2120   42.8220 C   0  0  0  0  0  0  0  0  0  0  0  0
   39.0080   24.8460   42.8470 C   0  0  0  0  0  0  0  0  0  0  0  0
   37.9320   24.2760   42.1930 C   0  0  0  0  0  0  0  0  0  0  0  0
   37.0890   25.1230   41.5150 C   0  0  0  0  0  0  0  0  0  0  0  0
   37.2960   26.4720   41.4810 C   0  0  0  0  0  0  0  0  0  0  0  0
   38.3720   27.0510   42.1330 C   0  0  0  0  0  0  0  0  0  0  0  0
   39.0590   32.6850   39.8660 C   0  0  1  0  0  0  0  0  0  0  0  0
   39.1710   34.0190   40.6040 C   0  0  0  0  0  0  0  0  0  0  0  0
   40.3410   33.0880   40.5130 C   0  0  2  0  0  0  0  0  0  0  0  0
   41.5270   33.4710   39.7140 C   0  0  0  0  0  0  0  0  0  0  0  0
   42.7930   33.2420   40.2360 C   0  0  0  0  0  0  0  0  0  0  0  0
   43.8480   33.6180   39.4480 C   0  0  0  0  0  0  0  0  0  0  0  0
   43.7690   34.1860   38.2240 N   0  0  0  0  0  0  0  0  0  0  0  0
   42.5120   34.3900   37.7570 C   0  0  0  0  0  0  0  0  0  0  0  0
   41.4380   34.0370   38.4930 N   0  0  0  0  0  0  0  0  0  0  0  0
   35.0570   30.8457   41.1140 H   0  0  0  0  0  0  0  0  0  0  0  0
   36.1496   28.8354   42.1530 H   0  0  0  0  0  0  0  0  0  0  0  0
   40.5299   29.1757   43.3156 H   0  0  0  0  0  0  0  0  0  0  0  0
   40.9672   26.7093   43.9309 H   0  0  0  0  0  0  0  0  0  0  0  0
   39.7039   24.1986   43.4007 H   0  0  0  0  0  0  0  0  0  0  0  0
   37.7579   23.1901   42.2144 H   0  0  0  0  0  0  0  0  0  0  0  0
   36.2223   24.7020   40.9843 H   0  0  0  0  0  0  0  0  0  0  0  0
   36.5946   27.1114   40.9250 H   0  0  0  0  0  0  0  0  0  0  0  0
   38.7711   32.3645   38.8539 H   0  0  0  0  0  0  0  0  0  0  0  0
   39.1715   34.9639   40.0407 H   0  0  0  0  0  0  0  0  0  0  0  0
   38.6228   34.5107   41.4211 H   0  0  0  0  0  0  0  0  0  0  0  0
   41.0092   32.6025   41.2395 H   0  0  0  0  0  0  0  0  0  0  0  0
   42.9401   32.7848   41.2256 H   0  0  0  0  0  0  0  0  0  0  0  0
   44.8566   33.4408   39.8497 H   0  0  0  0  0  0  0  0  0  0  0  0
   42.3668   34.8482   36.7676 H   0  0  0  0  0  0  0  0  0  0  0  0
  1  2  2  0
  3  2  1  0
  3  7  1  0
  4  3  2  0
  5  6  2  0
  5  4  1  0
  6  1  1  0
  7  8  2  0
  8  9  1  0
 10 11  2  0
 10  9  1  0
 12 11  1  0
 13 12  2  0
 14 13  1  0
 14 15  2  0
 15  7  1  0
 15 10  1  0
 16  5  1  0
 16 18  1  0
 16 17  1  0
 18 17  1  0
 19 20  2  0
 19 18  1  0
 21 20  1  0
 22 21  2  0
 23 22  1  0
 23 24  2  0
 24 19  1  0
  1 25  1  0
  2 26  1  0
  8 27  1  0
  9 28  1  0
 11 29  1  0
 12 30  1  0
 13 31  1  0
 14 32  1  0
 16 33  1  6
 17 34  1  0
 17 35  1  0
 18 36  1  1
 20 37  1  0
 21 38  1  0
 23 39  1  0
M  ISO  8  25  14  26  14  27  14  28   9  29  14  30  14  31  14  32  14
M  ISO  7  33  13  34  13  35  13  36  13  37  14  38  14  39  14
M  END
>  <minimizedAffinity>  (1) 
-6.13785696

>  <minimizedRMSD>  (1) 
0.676985025

$$$$
