
     RDKit          3D

 46 50  0  0  1  0  0  0  0  0999 V2000
   36.2100   30.7590   41.0930 C   0  0  0  0  0  0  0  0  0  0  0  0
   36.6940   29.5750   41.6880 C   0  0  0  0  0  0  0  0  0  0  0  0
   38.0670   29.3420   41.6830 C   0  0  0  0  0  0  0  0  0  0  0  0
   38.8510   30.2800   41.1020 N   0  0  0  0  0  0  0  0  0  0  0  0
   38.3720   31.4110   40.5360 C   0  0  0  0  0  0  0  0  0  0  0  0
   37.0390   31.6490   40.5330 N   0  0  0  0  0  0  0  0  0  0  0  0
   38.5740   28.1240   42.2820 C   0  0  0  0  0  0  0  0  0  0  0  0
   39.5590   27.9890   43.2340 C   0  0  0  0  0  0  0  0  0  0  0  0
   39.7240   26.6750   43.5120 N   0  0  0  0  0  0  0  0  0  0  0  0
   38.8700   25.9260   42.7700 C   0  0  0  0  0  0  0  0  0  0  0  0
   38.6190   24.5610   42.6540 C   0  0  0  0  0  0  0  0  0  0  0  0
   37.6630   24.0740   41.7860 C   0  0  0  0  0  0  0  0  0  0  0  0
   36.9710   24.9930   41.0420 C   0  0  0  0  0  0  0  0  0  0  0  0
   37.1990   26.3370   41.1370 C   0  0  0  0  0  0  0  0  0  0  0  0
   38.1580   26.8300   42.0070 C   0  0  0  0  0  0  0  0  0  0  0  0
   39.3100   32.4030   39.9210 C   0  0  1  0  0  0  0  0  0  0  0  0
   39.2950   33.8180   40.4990 C   0  0  0  0  0  0  0  0  0  0  0  0
   40.4580   32.8980   40.7260 C   0  0  2  0  0  0  0  0  0  0  0  0
   41.6830   33.3280   40.0730 N   0  0  0  0  0  0  0  0  0  0  0  0
   41.3910   34.4990   39.3270 C   0  0  0  0  0  0  0  0  0  0  0  0
   42.2030   34.7450   38.1030 C   0  0  0  0  0  0  0  0  0  0  0  0
   42.2620   33.4490   37.3130 C   0  0  0  0  0  0  0  0  0  0  0  0
   43.0620   32.4970   38.2010 C   0  0  0  0  0  0  0  0  0  0  0  0
   42.1820   32.1990   39.3780 C   0  0  0  0  0  0  0  0  0  0  0  0
   35.1277   30.9554   41.0890 H   0  0  0  0  0  0  0  0  0  0  0  0
   36.0025   28.8522   42.1456 H   0  0  0  0  0  0  0  0  0  0  0  0
   40.1208   28.8152   43.6941 H   0  0  0  0  0  0  0  0  0  0  0  0
   40.4012   26.2974   44.1900 H   0  0  0  0  0  0  0  0  0  0  0  0
   39.1962   23.8546   43.2686 H   0  0  0  0  0  0  0  0  0  0  0  0
   37.4654   22.9957   41.6955 H   0  0  0  0  0  0  0  0  0  0  0  0
   36.2023   24.6352   40.3412 H   0  0  0  0  0  0  0  0  0  0  0  0
   36.6158   27.0338   40.5171 H   0  0  0  0  0  0  0  0  0  0  0  0
   39.2080   31.9551   38.9215 H   0  0  0  0  0  0  0  0  0  0  0  0
   39.3995   34.6883   39.8344 H   0  0  0  0  0  0  0  0  0  0  0  0
   38.6146   34.3962   41.1415 H   0  0  0  0  0  0  0  0  0  0  0  0
   40.9886   32.4639   41.5863 H   0  0  0  0  0  0  0  0  0  0  0  0
   40.3367   34.4410   39.0188 H   0  0  0  0  0  0  0  0  0  0  0  0
   41.6338   35.3334   40.0014 H   0  0  0  0  0  0  0  0  0  0  0  0
   41.7333   35.5322   37.4950 H   0  0  0  0  0  0  0  0  0  0  0  0
   43.2167   35.0738   38.3756 H   0  0  0  0  0  0  0  0  0  0  0  0
   41.2503   33.0562   37.1340 H   0  0  0  0  0  0  0  0  0  0  0  0
   42.7212   33.5830   36.3224 H   0  0  0  0  0  0  0  0  0  0  0  0
   43.2980   31.5716   37.6552 H   0  0  0  0  0  0  0  0  0  0  0  0
   44.0183   32.9421   38.5131 H   0  0  0  0  0  0  0  0  0  0  0  0
   41.3214   31.6163   39.0177 H   0  0  0  0  0  0  0  0  0  0  0  0
   42.8158   31.6598   40.0975 H   0  0  0  0  0  0  0  0  0  0  0  0
  1  2  2  0
  3  2  1  0
  3  7  1  0
  4  3  2  0
  5  4  1  0
  6  5  2  0
  6  1  1  0
  7  8  2  0
  8  9  1  0
 10  9  1  0
 11 10  2  0
 12 11  1  0
 13 14  1  0
 13 12  2  0
 14 15  2  0
 15  7  1  0
 15 10  1  0
 16 17  1  0
 16  5  1  0
 16 18  1  0
 17 18  1  0
 19 18  1  0
 20 19  1  0
 21 20  1  0
 22 21  1  0
 22 23  1  0
 23 24  1  0
 24 19  1  0
  1 25  1  0
  2 26  1  0
  8 27  1  0
  9 28  1  0
 11 29  1  0
 12 30  1  0
 13 31  1  0
 14 32  1  0
 16 33  1  6
 17 34  1  0
 17 35  1  0
 18 36  1  1
 20 37  1  0
 20 38  1  0
 21 39  1  0
 21 40  1  0
 22 41  1  0
 22 42  1  0
 23 43  1  0
 23 44  1  0
 24 45  1  0
 24 46  1  0
M  ISO  8  25  14  26  14  27  14  28   9  29  14  30  14  31  14  32  14
M  ISO  8  33  13  34  13  35  13  36  13  37  13  38  13  39  13  40  13
M  ISO  6  41  13  42  13  43  13  44  13  45  13  46  13
M  END
>  <minimizedAffinity>  (1) 
-6.1112566

>  <minimizedRMSD>  (1) 
0.344052464

$$$$
