
     RDKit          3D

 38 41  0  0  1  0  0  0  0  0999 V2000
   36.2020   30.7780   41.1200 C   0  0  0  0  0  0  0  0  0  0  0  0
   36.6980   29.6110   41.7280 C   0  0  0  0  0  0  0  0  0  0  0  0
   38.0730   29.3150   41.6060 C   0  0  0  0  0  0  0  0  0  0  0  0
   38.8190   30.1980   40.8990 N   0  0  0  0  0  0  0  0  0  0  0  0
   38.3230   31.3080   40.3260 C   0  0  0  0  0  0  0  0  0  0  0  0
   37.0070   31.6090   40.4310 N   0  0  0  0  0  0  0  0  0  0  0  0
   38.5770   28.1160   42.2200 C   0  0  0  0  0  0  0  0  0  0  0  0
   39.5630   28.0080   43.1720 C   0  0  0  0  0  0  0  0  0  0  0  0
   39.7490   26.7070   43.4890 N   0  0  0  0  0  0  0  0  0  0  0  0
   38.9070   25.9450   42.7670 C   0  0  0  0  0  0  0  0  0  0  0  0
   38.6600   24.5760   42.6770 C   0  0  0  0  0  0  0  0  0  0  0  0
   37.6990   24.0600   41.8180 C   0  0  0  0  0  0  0  0  0  0  0  0
   36.9910   24.9550   41.0460 C   0  0  0  0  0  0  0  0  0  0  0  0
   37.2220   26.3050   41.1220 C   0  0  0  0  0  0  0  0  0  0  0  0
   38.1750   26.8170   41.9770 C   0  0  0  0  0  0  0  0  0  0  0  0
   39.2360   32.2230   39.5730 C   0  0  1  0  0  0  0  0  0  0  0  0
   39.2050   33.7060   39.9140 C   0  0  0  0  0  0  0  0  0  0  0  0
   40.3680   32.8720   40.2780 C   0  0  1  0  0  0  0  0  0  0  0  0
   40.7070   32.5260   41.5900 N   0  0  0  0  0  0  0  0  0  0  0  0
   41.9570   32.0980   42.0660 C   0  0  0  0  0  0  0  0  0  0  0  0
   42.9850   32.1260   41.3310 N   0  0  0  0  0  0  0  0  0  0  0  0
   42.2030   31.5900   43.3690 N   0  0  0  0  0  0  0  0  0  0  0  0
   43.9470   31.8500   41.5370 H   0  0  0  0  0  0  0  0  0  0  0  0
   35.1321   31.0175   41.2093 H   0  0  0  0  0  0  0  0  0  0  0  0
   36.0278   28.9419   42.2876 H   0  0  0  0  0  0  0  0  0  0  0  0
   40.1165   28.8520   43.6094 H   0  0  0  0  0  0  0  0  0  0  0  0
   40.4297   26.3538   44.1766 H   0  0  0  0  0  0  0  0  0  0  0  0
   39.2428   23.8852   43.3041 H   0  0  0  0  0  0  0  0  0  0  0  0
   37.5101   22.9781   41.7562 H   0  0  0  0  0  0  0  0  0  0  0  0
   36.2236   24.5787   40.3535 H   0  0  0  0  0  0  0  0  0  0  0  0
   36.6375   26.9903   40.4906 H   0  0  0  0  0  0  0  0  0  0  0  0
   39.1355   31.6162   38.6610 H   0  0  0  0  0  0  0  0  0  0  0  0
   39.2930   34.4579   39.1159 H   0  0  0  0  0  0  0  0  0  0  0  0
   38.5169   34.3690   40.4588 H   0  0  0  0  0  0  0  0  0  0  0  0
   41.4488   32.9713   40.0994 H   0  0  0  0  0  0  0  0  0  0  0  0
   39.9525   32.5928   42.2880 H   0  0  0  0  0  0  0  0  0  0  0  0
   43.1536   31.2975   43.6367 H   0  0  0  0  0  0  0  0  0  0  0  0
   41.4308   31.5140   44.0464 H   0  0  0  0  0  0  0  0  0  0  0  0
  1  2  2  0
  3  2  1  0
  3  7  1  0
  4  3  2  0
  5  6  2  0
  5  4  1  0
  6  1  1  0
  7  8  2  0
  8  9  1  0
 10  9  1  0
 11 10  2  0
 12 11  1  0
 13 14  1  0
 13 12  2  0
 14 15  2  0
 15  7  1  0
 15 10  1  0
 16 17  1  0
 16 18  1  0
 16  5  1  0
 17 18  1  0
 18 19  1  0
 19 20  1  0
 20 22  1  0
 21 23  1  0
 21 20  2  0
  1 24  1  0
  2 25  1  0
  8 26  1  0
  9 27  1  0
 11 28  1  0
 12 29  1  0
 13 30  1  0
 14 31  1  0
 16 32  1  6
 17 33  1  0
 17 34  1  0
 18 35  1  6
 19 36  1  0
 22 37  1  0
 22 38  1  0
M  ISO  8  24  14  25  14  26  14  27   9  28  14  29  14  30  14  31  14
M  ISO  4  32  13  33  13  34  13  35  13
M  END
>  <minimizedAffinity>  (1) 
-5.79155827

>  <minimizedRMSD>  (1) 
0.48940897

$$$$
