
     RDKit          3D

 37 41  0  0  1  0  0  0  0  0999 V2000
   36.5920   30.2820   38.4240 C   0  0  0  0  0  0  0  0  0  0  0  0
   36.7500   29.3110   39.4320 C   0  0  0  0  0  0  0  0  0  0  0  0
   37.3020   29.7060   40.6710 C   0  0  0  0  0  0  0  0  0  0  0  0
   37.6400   31.0100   40.7870 N   0  0  0  0  0  0  0  0  0  0  0  0
   37.4800   31.9170   39.8140 C   0  0  0  0  0  0  0  0  0  0  0  0
   36.9500   31.5520   38.6180 N   0  0  0  0  0  0  0  0  0  0  0  0
   37.4750   28.7090   41.6910 C   0  0  0  0  0  0  0  0  0  0  0  0
   36.4970   27.9490   42.2850 C   0  0  0  0  0  0  0  0  0  0  0  0
   37.0530   27.1240   43.2050 N   0  0  0  0  0  0  0  0  0  0  0  0
   38.3850   27.3200   43.2360 C   0  0  0  0  0  0  0  0  0  0  0  0
   39.4340   26.7770   43.9590 C   0  0  0  0  0  0  0  0  0  0  0  0
   40.7600   27.1890   43.7730 C   0  0  0  0  0  0  0  0  0  0  0  0
   40.9730   28.1730   42.8240 C   0  0  0  0  0  0  0  0  0  0  0  0
   39.9520   28.7180   42.1040 C   0  0  0  0  0  0  0  0  0  0  0  0
   38.6420   28.3050   42.2940 C   0  0  0  0  0  0  0  0  0  0  0  0
   37.8870   33.3360   40.0640 C   0  0  1  0  0  0  0  0  0  0  0  0
   38.9500   33.6200   41.0770 C   0  0  0  0  0  0  0  0  0  0  0  0
   39.2300   33.8000   39.6140 C   0  0  1  0  0  0  0  0  0  0  0  0
   40.2740   32.8930   39.0860 C   0  0  0  0  0  0  0  0  0  0  0  0
   41.3630   32.3960   39.9180 C   0  0  0  0  0  0  0  0  0  0  0  0
   42.3310   31.3760   38.7620 S   0  0  0  0  0  0  0  0  0  0  0  0
   41.1260   31.7750   37.3480 C   0  0  0  0  0  0  0  0  0  0  0  0
   40.3800   32.4450   37.8540 N   0  0  0  0  0  0  0  0  0  0  0  0
   36.1637   29.9862   37.4550 H   0  0  0  0  0  0  0  0  0  0  0  0
   36.4499   28.2671   39.2582 H   0  0  0  0  0  0  0  0  0  0  0  0
   35.4239   28.0021   42.0493 H   0  0  0  0  0  0  0  0  0  0  0  0
   36.5369   26.4513   43.7899 H   0  0  0  0  0  0  0  0  0  0  0  0
   39.2190   25.9966   44.7038 H   0  0  0  0  0  0  0  0  0  0  0  0
   41.5882   26.7531   44.3510 H   0  0  0  0  0  0  0  0  0  0  0  0
   41.9990   28.5268   42.6448 H   0  0  0  0  0  0  0  0  0  0  0  0
   40.1708   29.4982   41.3601 H   0  0  0  0  0  0  0  0  0  0  0  0
   36.8546   33.6800   39.9034 H   0  0  0  0  0  0  0  0  0  0  0  0
   38.8646   34.4983   41.7337 H   0  0  0  0  0  0  0  0  0  0  0  0
   39.4173   33.0543   41.8965 H   0  0  0  0  0  0  0  0  0  0  0  0
   39.5215   34.5957   38.9126 H   0  0  0  0  0  0  0  0  0  0  0  0
   41.5533   32.5900   40.9839 H   0  0  0  0  0  0  0  0  0  0  0  0
   41.1523   31.4365   36.3017 H   0  0  0  0  0  0  0  0  0  0  0  0
  1  6  2  0
  1  2  1  0
  2  3  2  0
  3  4  1  0
  3  7  1  0
  5 16  1  0
  5  4  2  0
  6  5  1  0
  7  8  2  0
  7 15  1  0
  8  9  1  0
  9 10  1  0
 10 11  2  0
 12 11  1  0
 13 12  2  0
 14 15  2  0
 14 13  1  0
 15 10  1  0
 16 17  1  0
 18 16  1  0
 18 17  1  0
 19 18  1  0
 19 20  2  0
 21 20  1  0
 22 23  2  0
 22 21  1  0
 23 19  1  0
  1 24  1  0
  2 25  1  0
  8 26  1  0
  9 27  1  0
 11 28  1  0
 12 29  1  0
 13 30  1  0
 14 31  1  0
 16 32  1  1
 17 33  1  0
 17 34  1  0
 18 35  1  1
 20 36  1  0
 22 37  1  0
M  ISO  8  24  14  25  14  26  14  27   9  28  14  29  14  30  14  31  14
M  ISO  6  32  13  33  13  34  13  35  13  36  14  37  14
M  END
>  <minimizedAffinity>  (1) 
-5.68785524

>  <minimizedRMSD>  (1) 
3.25176144

$$$$
