
     RDKit          3D

 52 57  0  0  1  0  0  0  0  0999 V2000
   35.1680   29.4970   40.3080 C   0  0  0  0  0  0  0  0  0  0  0  0
   35.9070   28.6290   41.1360 C   0  0  0  0  0  0  0  0  0  0  0  0
   37.2540   28.8620   41.3180 C   0  0  0  0  0  0  0  0  0  0  0  0
   37.7690   29.9400   40.6680 N   0  0  0  0  0  0  0  0  0  0  0  0
   37.0570   30.7690   39.8780 C   0  0  0  0  0  0  0  0  0  0  0  0
   35.7480   30.5350   39.7020 N   0  0  0  0  0  0  0  0  0  0  0  0
   38.0150   27.9730   42.1450 C   0  0  0  0  0  0  0  0  0  0  0  0
   38.6760   28.2750   43.3300 C   0  0  0  0  0  0  0  0  0  0  0  0
   39.2700   27.1510   43.8010 N   0  0  0  0  0  0  0  0  0  0  0  0
   39.0320   26.1170   42.9780 C   0  0  0  0  0  0  0  0  0  0  0  0
   39.3920   24.7800   42.9800 C   0  0  0  0  0  0  0  0  0  0  0  0
   38.9890   23.9240   41.9640 C   0  0  0  0  0  0  0  0  0  0  0  0
   38.2160   24.4590   40.9500 C   0  0  0  0  0  0  0  0  0  0  0  0
   37.8640   25.7770   40.9520 C   0  0  0  0  0  0  0  0  0  0  0  0
   38.2530   26.6290   41.9490 C   0  0  0  0  0  0  0  0  0  0  0  0
   37.7250   31.9510   39.2330 C   0  0  1  0  0  0  0  0  0  0  0  0
   37.1460   33.3390   39.5720 C   0  0  0  0  0  0  0  0  0  0  0  0
   38.4610   32.9010   40.0970 C   0  0  2  0  0  0  0  0  0  0  0  0
   39.7210   33.5180   39.6370 C   0  0  0  0  0  0  0  0  0  0  0  0
   40.2790   34.6520   40.1030 N   0  0  0  0  0  0  0  0  0  0  0  0
   41.3800   34.8870   39.4320 O   0  0  0  0  0  0  0  0  0  0  0  0
   41.5730   33.9470   38.5360 C   0  0  0  0  0  0  0  0  0  0  0  0
   40.5300   33.0670   38.6500 N   0  0  0  0  0  0  0  0  0  0  0  0
   42.6580   33.7550   37.5360 C   0  0  0  0  0  0  0  0  0  0  0  0
   42.7630   32.3100   37.1030 C   0  0  0  0  0  0  0  0  0  0  0  0
   43.2120   31.4120   38.2310 C   0  0  0  0  0  0  0  0  0  0  0  0
   44.5760   31.8240   38.7140 C   0  0  0  0  0  0  0  0  0  0  0  0
   44.5620   33.2640   39.1010 C   0  0  0  0  0  0  0  0  0  0  0  0
   44.0100   34.1700   38.0300 C   0  0  0  0  0  0  0  0  0  0  0  0
   34.0934   29.3158   40.1583 H   0  0  0  0  0  0  0  0  0  0  0  0
   35.4165   27.7775   41.6303 H   0  0  0  0  0  0  0  0  0  0  0  0
   38.7114   29.2651   43.8079 H   0  0  0  0  0  0  0  0  0  0  0  0
   39.8250   27.0978   44.6671 H   0  0  0  0  0  0  0  0  0  0  0  0
   40.0090   24.3886   43.8022 H   0  0  0  0  0  0  0  0  0  0  0  0
   39.2736   22.8614   41.9656 H   0  0  0  0  0  0  0  0  0  0  0  0
   37.8791   23.8108   40.1276 H   0  0  0  0  0  0  0  0  0  0  0  0
   37.2490   26.1663   40.1272 H   0  0  0  0  0  0  0  0  0  0  0  0
   37.9646   31.3898   38.3177 H   0  0  0  0  0  0  0  0  0  0  0  0
   37.0903   34.1198   38.7991 H   0  0  0  0  0  0  0  0  0  0  0  0
   36.2098   33.7144   40.0109 H   0  0  0  0  0  0  0  0  0  0  0  0
   38.8907   32.8431   41.1079 H   0  0  0  0  0  0  0  0  0  0  0  0
   42.3722   34.4020   36.6936 H   0  0  0  0  0  0  0  0  0  0  0  0
   41.7770   31.9722   36.7513 H   0  0  0  0  0  0  0  0  0  0  0  0
   43.5139   32.2495   36.3014 H   0  0  0  0  0  0  0  0  0  0  0  0
   42.4949   31.4865   39.0618 H   0  0  0  0  0  0  0  0  0  0  0  0
   43.2592   30.3753   37.8664 H   0  0  0  0  0  0  0  0  0  0  0  0
   44.8539   31.2143   39.5863 H   0  0  0  0  0  0  0  0  0  0  0  0
   45.3079   31.6723   37.9069 H   0  0  0  0  0  0  0  0  0  0  0  0
   43.9438   33.3757   40.0040 H   0  0  0  0  0  0  0  0  0  0  0  0
   45.6068   33.5633   39.2705 H   0  0  0  0  0  0  0  0  0  0  0  0
   44.7072   34.1687   37.1792 H   0  0  0  0  0  0  0  0  0  0  0  0
   43.8992   35.1692   38.4764 H   0  0  0  0  0  0  0  0  0  0  0  0
  1  2  2  0
  2  3  1  0
  3  7  1  0
  4  3  2  0
  5  4  1  0
  6  5  2  0
  6  1  1  0
  7  8  2  0
  8  9  1  0
 10 11  2  0
 10  9  1  0
 12 11  1  0
 13 14  1  0
 13 12  2  0
 14 15  2  0
 15  7  1  0
 15 10  1  0
 16 17  1  0
 16  5  1  0
 16 18  1  0
 17 18  1  0
 19 18  1  0
 19 20  2  0
 21 20  1  0
 22 23  2  0
 22 21  1  0
 23 19  1  0
 24 29  1  0
 24 22  1  0
 25 24  1  0
 25 26  1  0
 26 27  1  0
 27 28  1  0
 29 28  1  0
  1 30  1  0
  2 31  1  0
  8 32  1  0
  9 33  1  0
 11 34  1  0
 12 35  1  0
 13 36  1  0
 14 37  1  0
 16 38  1  6
 17 39  1  0
 17 40  1  0
 18 41  1  1
 24 42  1  0
 25 43  1  0
 25 44  1  0
 26 45  1  0
 26 46  1  0
 27 47  1  0
 27 48  1  0
 28 49  1  0
 28 50  1  0
 29 51  1  0
 29 52  1  0
M  ISO  8  30  14  31  14  32  14  33   9  34  14  35  14  36  14  37  14
M  ISO  8  38  13  39  13  40  13  41  13  42  13  43  13  44  13  45  13
M  ISO  7  46  13  47  13  48  13  49  13  50  13  51  13  52  13
M  END
>  <minimizedAffinity>  (1) 
-6.61681366

>  <minimizedRMSD>  (1) 
1.54262507

$$$$
