
     RDKit          3D

 27 29  0  0  1  0  0  0  0  0999 V2000
   38.6050   29.9530   41.4000 C   0  0  1  0  0  0  0  0  0  0  0  0
   38.4680   29.6370   42.8040 C   0  0  0  0  0  0  0  0  0  0  0  0
   37.3070   29.2550   41.9450 C   0  0  2  0  0  0  0  0  0  0  0  0
   38.3570   31.3430   40.8690 C   0  0  0  0  0  0  0  0  0  0  0  0
   37.3650   31.4650   39.8760 C   0  0  0  0  0  0  0  0  0  0  0  0
   37.1530   32.7430   39.3800 C   0  0  0  0  0  0  0  0  0  0  0  0
   37.8890   33.7980   39.8580 N   0  0  0  0  0  0  0  0  0  0  0  0
   38.8300   33.6300   40.8110 C   0  0  0  0  0  0  0  0  0  0  0  0
   39.0520   32.3840   41.3100 N   0  0  0  0  0  0  0  0  0  0  0  0
   37.1400   27.8350   41.5700 C   0  0  0  0  0  0  0  0  0  0  0  0
   37.2990   26.9020   42.5850 C   0  0  0  0  0  0  0  0  0  0  0  0
   37.1600   25.5490   42.3260 C   0  0  0  0  0  0  0  0  0  0  0  0
   36.8600   25.1250   41.0350 C   0  0  0  0  0  0  0  0  0  0  0  0
   36.7000   26.0460   40.0240 C   0  0  0  0  0  0  0  0  0  0  0  0
   36.8420   27.4100   40.2940 C   0  0  0  0  0  0  0  0  0  0  0  0
   39.4139   29.7602   40.6799 H   0  0  0  0  0  0  0  0  0  0  0  0
   39.0962   28.8463   43.2401 H   0  0  0  0  0  0  0  0  0  0  0  0
   38.5567   30.2393   43.7202 H   0  0  0  0  0  0  0  0  0  0  0  0
   36.2236   29.4446   41.9636 H   0  0  0  0  0  0  0  0  0  0  0  0
   36.7923   30.5979   39.5153 H   0  0  0  0  0  0  0  0  0  0  0  0
   36.3936   32.9111   38.6022 H   0  0  0  0  0  0  0  0  0  0  0  0
   39.4097   34.4892   41.1793 H   0  0  0  0  0  0  0  0  0  0  0  0
   37.5375   27.2403   43.6041 H   0  0  0  0  0  0  0  0  0  0  0  0
   37.2858   24.8144   43.1350 H   0  0  0  0  0  0  0  0  0  0  0  0
   36.7504   24.0515   40.8216 H   0  0  0  0  0  0  0  0  0  0  0  0
   36.4606   25.7086   39.0048 H   0  0  0  0  0  0  0  0  0  0  0  0
   36.7155   28.1456   39.4860 H   0  0  0  0  0  0  0  0  0  0  0  0
  1  3  1  0
  1  2  1  0
  3  2  1  0
  4  9  1  0
  4  1  1  0
  5  4  2  0
  6  7  2  0
  6  5  1  0
  7  8  1  0
  8  9  2  0
 10  3  1  0
 10 11  2  0
 12 11  1  0
 13 12  2  0
 14 15  2  0
 14 13  1  0
 15 10  1  0
  1 16  1  6
  2 17  1  0
  2 18  1  0
  3 19  1  1
  5 20  1  0
  6 21  1  0
  8 22  1  0
 11 23  1  0
 12 24  1  0
 13 25  1  0
 14 26  1  0
 15 27  1  0
M  ISO  8  16  13  17  13  18  13  19  13  20  14  21  14  22  14  23  14
M  ISO  4  24  14  25  14  26  14  27  14
M  END
>  <minimizedAffinity>  (1) 
-4.68825483

>  <minimizedRMSD>  (1) 
3.82167196

$$$$
