
     RDKit          3D

 26 28  0  0  1  0  0  0  0  0999 V2000
   38.1050   31.0140   40.0360 C   0  0  1  0  0  0  0  0  0  0  0  0
   37.1080   31.6660   39.2130 C   0  0  0  0  0  0  0  0  0  0  0  0
   37.6350   32.4730   40.3500 C   0  0  2  0  0  0  0  0  0  0  0  0
   37.7060   30.0050   41.0680 C   0  0  0  0  0  0  0  0  0  0  0  0
   38.5130   29.9770   42.2460 C   0  0  0  0  0  0  0  0  0  0  0  0
   38.1710   29.0270   43.2100 C   0  0  0  0  0  0  0  0  0  0  0  0
   37.1130   28.1990   42.9780 N   0  0  0  0  0  0  0  0  0  0  0  0
   36.3740   28.2590   41.8470 C   0  0  0  0  0  0  0  0  0  0  0  0
   36.6870   29.1770   40.8920 N   0  0  0  0  0  0  0  0  0  0  0  0
   38.6840   33.4950   40.1290 C   0  0  0  0  0  0  0  0  0  0  0  0
   39.9800   33.1540   39.7820 C   0  0  0  0  0  0  0  0  0  0  0  0
   40.9310   34.1380   39.5840 C   0  0  0  0  0  0  0  0  0  0  0  0
   40.5510   35.4550   39.7420 C   0  0  0  0  0  0  0  0  0  0  0  0
   39.2520   35.8080   40.0900 C   0  0  0  0  0  0  0  0  0  0  0  0
   38.3820   34.8090   40.2670 N   0  0  0  0  0  0  0  0  0  0  0  0
   39.0399   30.4861   39.7966 H   0  0  0  0  0  0  0  0  0  0  0  0
   37.3661   31.9550   38.1835 H   0  0  0  0  0  0  0  0  0  0  0  0
   36.0922   31.3845   38.8985 H   0  0  0  0  0  0  0  0  0  0  0  0
   37.1580   33.0438   41.1603 H   0  0  0  0  0  0  0  0  0  0  0  0
   39.3584   30.6667   42.3861 H   0  0  0  0  0  0  0  0  0  0  0  0
   38.7471   28.9476   44.1437 H   0  0  0  0  0  0  0  0  0  0  0  0
   35.5275   27.5721   41.7001 H   0  0  0  0  0  0  0  0  0  0  0  0
   40.2545   32.0954   39.6632 H   0  0  0  0  0  0  0  0  0  0  0  0
   41.9634   33.8777   39.3078 H   0  0  0  0  0  0  0  0  0  0  0  0
   41.2972   36.2484   39.5882 H   0  0  0  0  0  0  0  0  0  0  0  0
   38.9544   36.8597   40.2138 H   0  0  0  0  0  0  0  0  0  0  0  0
  1  3  1  0
  1  4  1  0
  2  1  1  0
  2  3  1  0
  4  5  2  0
  5  6  1  0
  7  6  2  0
  8  7  1  0
  9  4  1  0
  9  8  2  0
 10 15  1  0
 10  3  1  0
 11 10  2  0
 12 13  2  0
 12 11  1  0
 13 14  1  0
 14 15  2  0
  1 16  1  6
  2 17  1  0
  2 18  1  0
  3 19  1  1
  5 20  1  0
  6 21  1  0
  8 22  1  0
 11 23  1  0
 12 24  1  0
 13 25  1  0
 14 26  1  0
M  ISO  8  16  13  17  13  18  13  19  13  20  14  21  14  22  14  23  14
M  ISO  3  24  14  25  14  26  14
M  END
>  <minimizedAffinity>  (1) 
-4.66130114

>  <minimizedRMSD>  (1) 
8.09145641

$$$$
