
     RDKit          3D

 24 26  0  0  0  0  0  0  0  0999 V2000
   36.9220   26.6420   41.3490 C   0  0  0  0  0  0  0  0  0  0  0  0
   36.8870   25.8130   40.2160 C   0  0  0  0  0  0  0  0  0  0  0  0
   37.1120   24.5560   40.7540 C   0  0  0  0  0  0  0  0  0  0  0  0
   37.2680   24.6210   42.0830 N   0  0  0  0  0  0  0  0  0  0  0  0
   37.1510   25.8950   42.4360 N   0  0  0  0  0  0  0  0  0  0  0  0
   37.5890   28.9990   41.8880 C   0  0  0  0  0  0  0  0  0  0  0  0
   36.7290   28.0810   41.2470 C   0  0  0  0  0  0  0  0  0  0  0  0
   35.6770   28.5890   40.5060 C   0  0  0  0  0  0  0  0  0  0  0  0
   35.5080   29.9440   40.4200 N   0  0  0  0  0  0  0  0  0  0  0  0
   36.3700   30.7930   41.0600 C   0  0  0  0  0  0  0  0  0  0  0  0
   37.4160   30.3190   41.8000 N   0  0  0  0  0  0  0  0  0  0  0  0
   37.1740   23.2920   39.9690 C   0  0  0  0  0  0  0  0  0  0  0  0
   37.9850   22.1510   40.4110 C   0  0  0  0  0  0  0  0  0  0  0  0
   38.4770   22.9580   39.2580 C   0  0  0  0  0  0  0  0  0  0  0  0
   36.7222   26.0917   39.1647 H   0  0  0  0  0  0  0  0  0  0  0  0
   37.4461   23.8275   42.7151 H   0  0  0  0  0  0  0  0  0  0  0  0
   38.4312   28.6124   42.4807 H   0  0  0  0  0  0  0  0  0  0  0  0
   34.9824   27.9095   39.9904 H   0  0  0  0  0  0  0  0  0  0  0  0
   36.2174   31.8792   40.9768 H   0  0  0  0  0  0  0  0  0  0  0  0
   36.1162   23.4065   39.6898 H   0  0  0  0  0  0  0  0  0  0  0  0
   38.5135   22.1991   41.3745 H   0  0  0  0  0  0  0  0  0  0  0  0
   37.7824   21.0811   40.5669 H   0  0  0  0  0  0  0  0  0  0  0  0
   38.4623   22.5387   38.2411 H   0  0  0  0  0  0  0  0  0  0  0  0
   39.4025   23.5002   39.0141 H   0  0  0  0  0  0  0  0  0  0  0  0
  1  5  2  0
  2  3  2  0
  2  1  1  0
  3  4  1  0
  4  5  1  0
  7  1  1  0
  7  6  2  0
  8  7  1  0
  9  8  2  0
  9 10  1  0
 10 11  2  0
 11  6  1  0
 12 13  1  0
 12  3  1  0
 14 12  1  0
 14 13  1  0
  2 15  1  0
  4 16  1  0
  6 17  1  0
  8 18  1  0
 10 19  1  0
 12 20  1  0
 13 21  1  0
 13 22  1  0
 14 23  1  0
 14 24  1  0
M  ISO  8  15  14  16   9  17  14  18  14  19  14  20  13  21  13  22  13
M  ISO  2  23  13  24  13
M  END
>  <minimizedAffinity>  (1) 
-3.77455521

>  <minimizedRMSD>  (1) 
0.0694280192

$$$$
