
     RDKit          3D

 20 21  0  0  1  0  0  0  0  0999 V2000
   38.4390   27.6050   42.1180 C   0  0  1  0  0  0  0  0  0  0  0  0
   39.3810   27.9600   43.1560 C   0  0  0  0  0  0  0  0  0  0  0  0
   38.1420   27.2850   43.6220 C   0  0  1  0  0  0  0  0  0  0  0  0
   37.5110   28.6250   41.5180 C   0  0  0  0  0  0  0  0  0  0  0  0
   36.3210   28.1170   40.9400 C   0  0  0  0  0  0  0  0  0  0  0  0
   35.4610   29.0520   40.3710 C   0  0  0  0  0  0  0  0  0  0  0  0
   35.8060   30.3780   40.4010 N   0  0  0  0  0  0  0  0  0  0  0  0
   36.9570   30.8200   40.9660 C   0  0  0  0  0  0  0  0  0  0  0  0
   37.8070   29.9350   41.5240 N   0  0  0  0  0  0  0  0  0  0  0  0
   37.0350   28.0100   44.2870 C   0  0  0  0  0  0  0  0  0  0  0  0
   35.8510   27.4890   43.7400 F   0  0  0  0  0  0  0  0  0  0  0  0
   36.9200   27.8070   45.6450 F   0  0  0  0  0  0  0  0  0  0  0  0
   37.0710   29.3400   43.9280 F   0  0  0  0  0  0  0  0  0  0  0  0
   38.5547   27.0688   41.1645 H   0  0  0  0  0  0  0  0  0  0  0  0
   40.3398   27.4243   43.2171 H   0  0  0  0  0  0  0  0  0  0  0  0
   39.8699   28.9054   43.4338 H   0  0  0  0  0  0  0  0  0  0  0  0
   37.9312   26.4082   44.2520 H   0  0  0  0  0  0  0  0  0  0  0  0
   36.0894   27.0417   40.9409 H   0  0  0  0  0  0  0  0  0  0  0  0
   34.5181   28.7312   39.9040 H   0  0  0  0  0  0  0  0  0  0  0  0
   37.1954   31.8939   40.9689 H   0  0  0  0  0  0  0  0  0  0  0  0
  1  2  1  0
  1  3  1  0
  2  3  1  0
  3 10  1  0
  4  9  1  0
  4  1  1  0
  5  4  2  0
  6  7  2  0
  6  5  1  0
  7  8  1  0
  8  9  2  0
 10 12  1  0
 11 10  1  0
 13 10  1  0
  1 14  1  6
  2 15  1  0
  2 16  1  0
  3 17  1  6
  5 18  1  0
  6 19  1  0
  8 20  1  0
M  ISO  7  14  13  15  13  16  13  17  13  18  14  19  14  20  14
M  END
>  <minimizedAffinity>  (1) 
-4.43531513

>  <minimizedRMSD>  (1) 
1.4684509

$$$$
