
     RDKit          3D

 24 26  0  0  1  0  0  0  0  0999 V2000
   39.0330   30.3290   41.4370 C   0  0  1  0  0  0  0  0  0  0  0  0
   39.4790   30.2710   42.8090 C   0  0  0  0  0  0  0  0  0  0  0  0
   38.0960   29.7630   42.5570 C   0  0  2  0  0  0  0  0  0  0  0  0
   38.5440   31.6000   40.8120 C   0  0  0  0  0  0  0  0  0  0  0  0
   37.5340   31.4540   39.8270 C   0  0  0  0  0  0  0  0  0  0  0  0
   37.0940   32.6270   39.2220 C   0  0  0  0  0  0  0  0  0  0  0  0
   37.6450   33.8340   39.5970 N   0  0  0  0  0  0  0  0  0  0  0  0
   38.6070   33.9130   40.5450 C   0  0  0  0  0  0  0  0  0  0  0  0
   39.0510   32.7760   41.1500 N   0  0  0  0  0  0  0  0  0  0  0  0
   37.9410   28.3240   42.5150 N   0  0  0  0  0  0  0  0  0  0  0  0
   38.9050   27.4140   42.5360 N   0  0  0  0  0  0  0  0  0  0  0  0
   38.3760   26.1800   42.4810 C   0  0  0  0  0  0  0  0  0  0  0  0
   37.0060   26.3530   42.4250 C   0  0  0  0  0  0  0  0  0  0  0  0
   36.7290   27.7160   42.4450 C   0  0  0  0  0  0  0  0  0  0  0  0
   39.4963   29.9929   40.4977 H   0  0  0  0  0  0  0  0  0  0  0  0
   40.2705   29.5596   43.0872 H   0  0  0  0  0  0  0  0  0  0  0  0
   39.8885   31.0242   43.4981 H   0  0  0  0  0  0  0  0  0  0  0  0
   37.0951   29.9697   42.9637 H   0  0  0  0  0  0  0  0  0  0  0  0
   37.1224   30.4703   39.5570 H   0  0  0  0  0  0  0  0  0  0  0  0
   36.3117   32.5917   38.4495 H   0  0  0  0  0  0  0  0  0  0  0  0
   39.0282   34.8896   40.8256 H   0  0  0  0  0  0  0  0  0  0  0  0
   38.9227   25.2255   42.4806 H   0  0  0  0  0  0  0  0  0  0  0  0
   36.2591   25.5471   42.3732 H   0  0  0  0  0  0  0  0  0  0  0  0
   35.7406   28.1977   42.4113 H   0  0  0  0  0  0  0  0  0  0  0  0
  1  3  1  0
  1  2  1  0
  3  2  1  0
  4  9  1  0
  4  1  1  0
  5  4  2  0
  6  7  2  0
  6  5  1  0
  7  8  1  0
  8  9  2  0
 10 11  1  0
 10  3  1  0
 12 11  2  0
 13 14  2  0
 13 12  1  0
 14 10  1  0
  1 15  1  6
  2 16  1  0
  2 17  1  0
  3 18  1  1
  5 19  1  0
  6 20  1  0
  8 21  1  0
 12 22  1  0
 13 23  1  0
 14 24  1  0
M  ISO  8  15  13  16  13  17  13  18  13  19  14  20  14  21  14  22  14
M  ISO  2  23  14  24  14
M  END
>  <minimizedAffinity>  (1) 
-4.00615883

>  <minimizedRMSD>  (1) 
3.68609834

$$$$
