
     RDKit          3D

 37 40  0  0  1  0  0  0  0  0999 V2000
   37.2650   27.7070   41.5860 C   0  0  0  0  0  0  0  0  0  0  0  0
   37.4210   26.7410   42.5560 C   0  0  0  0  0  0  0  0  0  0  0  0
   37.2060   25.4150   42.2980 C   0  0  0  0  0  0  0  0  0  0  0  0
   36.8220   25.0440   41.0230 C   0  0  0  0  0  0  0  0  0  0  0  0
   36.6660   25.9930   40.0480 C   0  0  0  0  0  0  0  0  0  0  0  0
   36.8990   27.3500   40.3600 C   0  0  0  0  0  0  0  0  0  0  0  0
   36.7450   28.0410   39.0950 C   0  0  0  0  0  0  0  0  0  0  0  0
   35.3880   28.4070   38.9900 C   0  0  0  0  0  0  0  0  0  0  0  0
   34.9390   29.0940   37.8650 C   0  0  0  0  0  0  0  0  0  0  0  0
   35.8380   29.4120   36.8530 C   0  0  0  0  0  0  0  0  0  0  0  0
   37.1530   29.0480   36.9710 C   0  0  0  0  0  0  0  0  0  0  0  0
   37.6180   28.3690   38.0760 C   0  0  0  0  0  0  0  0  0  0  0  0
   38.6450   29.8620   41.4900 C   0  0  1  0  0  0  0  0  0  0  0  0
   38.3200   29.5820   42.9060 C   0  0  0  0  0  0  0  0  0  0  0  0
   37.3130   29.1400   41.9430 C   0  0  2  0  0  0  0  0  0  0  0  0
   38.4100   31.2430   40.9510 C   0  0  0  0  0  0  0  0  0  0  0  0
   37.3650   31.4050   40.0040 C   0  0  0  0  0  0  0  0  0  0  0  0
   37.1220   32.6720   39.4930 C   0  0  0  0  0  0  0  0  0  0  0  0
   37.9090   33.7130   39.9370 N   0  0  0  0  0  0  0  0  0  0  0  0
   38.9000   33.5100   40.8490 C   0  0  0  0  0  0  0  0  0  0  0  0
   39.1380   32.2620   41.3480 N   0  0  0  0  0  0  0  0  0  0  0  0
   37.7275   27.0451   43.5677 H   0  0  0  0  0  0  0  0  0  0  0  0
   37.3358   24.6605   43.0878 H   0  0  0  0  0  0  0  0  0  0  0  0
   36.6413   23.9840   40.7910 H   0  0  0  0  0  0  0  0  0  0  0  0
   36.3622   25.7008   39.0320 H   0  0  0  0  0  0  0  0  0  0  0  0
   34.6845   28.1503   39.7957 H   0  0  0  0  0  0  0  0  0  0  0  0
   33.8812   29.3829   37.7776 H   0  0  0  0  0  0  0  0  0  0  0  0
   35.4939   29.9545   35.9601 H   0  0  0  0  0  0  0  0  0  0  0  0
   37.8551   29.3040   36.1638 H   0  0  0  0  0  0  0  0  0  0  0  0
   38.6795   28.0894   38.1464 H   0  0  0  0  0  0  0  0  0  0  0  0
   39.5208   29.6649   40.8543 H   0  0  0  0  0  0  0  0  0  0  0  0
   38.9069   28.8281   43.4512 H   0  0  0  0  0  0  0  0  0  0  0  0
   38.2686   30.2198   43.8008 H   0  0  0  0  0  0  0  0  0  0  0  0
   36.2278   29.2927   41.8483 H   0  0  0  0  0  0  0  0  0  0  0  0
   36.7605   30.5442   39.6820 H   0  0  0  0  0  0  0  0  0  0  0  0
   36.3242   32.8409   38.7548 H   0  0  0  0  0  0  0  0  0  0  0  0
   39.5135   34.3585   41.1861 H   0  0  0  0  0  0  0  0  0  0  0  0
  1 15  1  0
  1  2  2  0
  3  2  1  0
  4  3  2  0
  5  6  2  0
  5  4  1  0
  6  1  1  0
  7  6  1  0
  8  7  2  0
  9  8  1  0
 10 11  1  0
 10  9  2  0
 11 12  2  0
 12  7  1  0
 13 15  1  0
 13 14  1  0
 15 14  1  0
 16 21  1  0
 16 13  1  0
 17 16  2  0
 18 19  2  0
 18 17  1  0
 19 20  1  0
 20 21  2  0
  2 22  1  0
  3 23  1  0
  4 24  1  0
  5 25  1  0
  8 26  1  0
  9 27  1  0
 10 28  1  0
 11 29  1  0
 12 30  1  0
 13 31  1  6
 14 32  1  0
 14 33  1  0
 15 34  1  1
 17 35  1  0
 18 36  1  0
 20 37  1  0
M  ISO  8  22  14  23  14  24  14  25  14  26  14  27  14  28  14  29  14
M  ISO  8  30  14  31  13  32  13  33  13  34  13  35  14  36  14  37  14
M  END
>  <minimizedAffinity>  (1) 
-5.7159729

>  <minimizedRMSD>  (1) 
0.156879678

$$$$
