
     RDKit          3D

 36 39  0  0  1  0  0  0  0  0999 V2000
   37.2600   27.6530   41.5480 C   0  0  0  0  0  0  0  0  0  0  0  0
   37.4120   26.6990   42.5630 C   0  0  0  0  0  0  0  0  0  0  0  0
   37.1830   25.3780   42.3080 C   0  0  0  0  0  0  0  0  0  0  0  0
   36.8030   24.9920   41.0390 C   0  0  0  0  0  0  0  0  0  0  0  0
   36.6570   25.9410   40.0340 C   0  0  0  0  0  0  0  0  0  0  0  0
   36.8990   27.2840   40.3210 C   0  0  0  0  0  0  0  0  0  0  0  0
   38.6340   29.8140   41.4820 C   0  0  1  0  0  0  0  0  0  0  0  0
   38.2820   29.5440   42.8930 C   0  0  0  0  0  0  0  0  0  0  0  0
   37.2910   29.0940   41.9190 C   0  0  2  0  0  0  0  0  0  0  0  0
   38.3900   31.1980   40.9300 C   0  0  0  0  0  0  0  0  0  0  0  0
   37.3630   31.3590   39.9520 C   0  0  0  0  0  0  0  0  0  0  0  0
   37.1330   32.6240   39.4490 C   0  0  0  0  0  0  0  0  0  0  0  0
   37.9060   33.6620   39.9230 N   0  0  0  0  0  0  0  0  0  0  0  0
   38.8740   33.4620   40.8580 C   0  0  0  0  0  0  0  0  0  0  0  0
   39.1080   32.2110   41.3590 N   0  0  0  0  0  0  0  0  0  0  0  0
   36.7010   27.9280   39.0510 C   0  0  0  0  0  0  0  0  0  0  0  0
   35.3770   28.3660   38.9030 C   0  0  0  0  0  0  0  0  0  0  0  0
   35.0280   29.1270   37.7830 C   0  0  0  0  0  0  0  0  0  0  0  0
   35.9820   29.4550   36.8120 C   0  0  0  0  0  0  0  0  0  0  0  0
   37.2670   28.9940   37.0150 C   0  0  0  0  0  0  0  0  0  0  0  0
   37.5840   28.2640   38.0960 N   0  0  0  0  0  0  0  0  0  0  0  0
   37.7176   27.0166   43.5709 H   0  0  0  0  0  0  0  0  0  0  0  0
   37.3001   24.6293   43.1053 H   0  0  0  0  0  0  0  0  0  0  0  0
   36.6150   23.9301   40.8220 H   0  0  0  0  0  0  0  0  0  0  0  0
   36.3534   25.6355   39.0218 H   0  0  0  0  0  0  0  0  0  0  0  0
   39.5231   29.6144   40.8658 H   0  0  0  0  0  0  0  0  0  0  0  0
   38.8591   28.7943   43.4542 H   0  0  0  0  0  0  0  0  0  0  0  0
   38.2147   30.1894   43.7812 H   0  0  0  0  0  0  0  0  0  0  0  0
   36.2059   29.2425   41.8167 H   0  0  0  0  0  0  0  0  0  0  0  0
   36.7706   30.4983   39.6082 H   0  0  0  0  0  0  0  0  0  0  0  0
   36.3548   32.7985   38.6914 H   0  0  0  0  0  0  0  0  0  0  0  0
   39.4731   34.3131   41.2138 H   0  0  0  0  0  0  0  0  0  0  0  0
   34.6205   28.1134   39.6605 H   0  0  0  0  0  0  0  0  0  0  0  0
   33.9905   29.4724   37.6632 H   0  0  0  0  0  0  0  0  0  0  0  0
   35.7191   30.0532   35.9271 H   0  0  0  0  0  0  0  0  0  0  0  0
   38.0471   29.2295   36.2761 H   0  0  0  0  0  0  0  0  0  0  0  0
  1  9  1  0
  1  2  2  0
  3  2  1  0
  4  3  2  0
  5  6  2  0
  5  4  1  0
  6  1  1  0
  7  9  1  0
  7  8  1  0
  9  8  1  0
 10 15  1  0
 10  7  1  0
 11 10  2  0
 12 13  2  0
 12 11  1  0
 13 14  1  0
 14 15  2  0
 16  6  1  0
 17 16  2  0
 18 17  1  0
 19 20  1  0
 19 18  2  0
 20 21  2  0
 21 16  1  0
  2 22  1  0
  3 23  1  0
  4 24  1  0
  5 25  1  0
  7 26  1  6
  8 27  1  0
  8 28  1  0
  9 29  1  1
 11 30  1  0
 12 31  1  0
 14 32  1  0
 17 33  1  0
 18 34  1  0
 19 35  1  0
 20 36  1  0
M  ISO  8  22  14  23  14  24  14  25  14  26  13  27  13  28  13  29  13
M  ISO  7  30  14  31  14  32  14  33  14  34  14  35  14  36  14
M  END
>  <minimizedAffinity>  (1) 
-5.63405895

>  <minimizedRMSD>  (1) 
0.170530975

$$$$
