
     RDKit          3D

 18 19  0  0  0  0  0  0  0  0999 V2000
   37.5940   29.0120   41.8820 C   0  0  0  0  0  0  0  0  0  0  0  0
   36.7160   28.1020   41.2620 C   0  0  0  0  0  0  0  0  0  0  0  0
   35.6700   28.6030   40.5090 C   0  0  0  0  0  0  0  0  0  0  0  0
   35.5340   29.9630   40.3960 N   0  0  0  0  0  0  0  0  0  0  0  0
   36.4130   30.8080   41.0160 C   0  0  0  0  0  0  0  0  0  0  0  0
   37.4390   30.3320   41.7550 N   0  0  0  0  0  0  0  0  0  0  0  0
   36.8830   26.6570   41.3990 C   0  0  0  0  0  0  0  0  0  0  0  0
   36.8330   25.7900   40.2930 C   0  0  0  0  0  0  0  0  0  0  0  0
   37.0350   24.5440   40.8560 C   0  0  0  0  0  0  0  0  0  0  0  0
   37.1940   24.6530   42.2010 N   0  0  0  0  0  0  0  0  0  0  0  0
   37.0990   25.9280   42.4990 N   0  0  0  0  0  0  0  0  0  0  0  0
   37.0600   23.3780   40.0970 O   0  0  0  0  0  0  0  0  0  0  0  0
   38.4282   28.6256   42.4859 H   0  0  0  0  0  0  0  0  0  0  0  0
   34.9616   27.9247   40.0109 H   0  0  0  0  0  0  0  0  0  0  0  0
   36.2821   31.8951   40.9110 H   0  0  0  0  0  0  0  0  0  0  0  0
   36.6719   26.0426   39.2346 H   0  0  0  0  0  0  0  0  0  0  0  0
   37.3582   23.8806   42.8623 H   0  0  0  0  0  0  0  0  0  0  0  0
   37.2075   22.5037   40.5374 H   0  0  0  0  0  0  0  0  0  0  0  0
  2  7  1  0
  2  1  2  0
  3  2  1  0
  4  3  2  0
  4  5  1  0
  5  6  2  0
  6  1  1  0
  7 11  2  0
  8  9  2  0
  8  7  1  0
  9 10  1  0
 10 11  1  0
 12  9  1  0
  1 13  1  0
  3 14  1  0
  5 15  1  0
  8 16  1  0
 10 17  1  0
 12 18  1  0
M  ISO  6  13  14  14  14  15  14  16  14  17   9  18   3
M  END
>  <minimizedAffinity>  (1) 
-3.4446981

>  <minimizedRMSD>  (1) 
0.0396790355

$$$$
