
     RDKit          3D

 39 42  0  0  1  0  0  0  0  0999 V2000
   38.6880   29.8970   41.4370 C   0  0  1  0  0  0  0  0  0  0  0  0
   38.3230   29.6100   42.8380 C   0  0  0  0  0  0  0  0  0  0  0  0
   37.3700   29.1490   41.8300 C   0  0  2  0  0  0  0  0  0  0  0  0
   37.3170   27.7340   41.5150 C   0  0  0  0  0  0  0  0  0  0  0  0
   37.4890   26.7990   42.4960 C   0  0  0  0  0  0  0  0  0  0  0  0
   37.2330   25.4690   42.2460 C   0  0  0  0  0  0  0  0  0  0  0  0
   36.8030   25.0960   40.9870 C   0  0  0  0  0  0  0  0  0  0  0  0
   36.6310   26.0130   40.0030 C   0  0  0  0  0  0  0  0  0  0  0  0
   36.9070   27.3550   40.3130 C   0  0  0  0  0  0  0  0  0  0  0  0
   36.6920   28.0120   39.0660 N   0  0  0  0  0  0  0  0  0  0  0  0
   35.3920   28.5310   38.6370 C   0  0  0  0  0  0  0  0  0  0  0  0
   35.5950   29.3060   37.3960 C   0  0  0  0  0  0  0  0  0  0  0  0
   36.8520   28.7800   36.8130 C   0  0  0  0  0  0  0  0  0  0  0  0
   37.6190   28.3240   37.9960 C   0  0  0  0  0  0  0  0  0  0  0  0
   38.4170   31.2890   40.8880 C   0  0  0  0  0  0  0  0  0  0  0  0
   37.3730   31.4350   39.9260 C   0  0  0  0  0  0  0  0  0  0  0  0
   37.1260   32.6980   39.4640 C   0  0  0  0  0  0  0  0  0  0  0  0
   37.8740   33.7520   39.9310 N   0  0  0  0  0  0  0  0  0  0  0  0
   38.8620   33.5690   40.8500 C   0  0  0  0  0  0  0  0  0  0  0  0
   39.1210   32.3120   41.3210 N   0  0  0  0  0  0  0  0  0  0  0  0
   39.5936   29.7233   40.8373 H   0  0  0  0  0  0  0  0  0  0  0  0
   38.9065   28.8693   43.4044 H   0  0  0  0  0  0  0  0  0  0  0  0
   38.2229   30.2422   43.7326 H   0  0  0  0  0  0  0  0  0  0  0  0
   36.2907   29.2840   41.6660 H   0  0  0  0  0  0  0  0  0  0  0  0
   37.8344   27.1106   43.4928 H   0  0  0  0  0  0  0  0  0  0  0  0
   37.3687   24.7157   43.0360 H   0  0  0  0  0  0  0  0  0  0  0  0
   36.5964   24.0358   40.7791 H   0  0  0  0  0  0  0  0  0  0  0  0
   36.2885   25.7173   39.0004 H   0  0  0  0  0  0  0  0  0  0  0  0
   34.7015   27.6962   38.4467 H   0  0  0  0  0  0  0  0  0  0  0  0
   34.9596   29.1712   39.4201 H   0  0  0  0  0  0  0  0  0  0  0  0
   34.7544   29.1528   36.7033 H   0  0  0  0  0  0  0  0  0  0  0  0
   35.6518   30.3872   37.5902 H   0  0  0  0  0  0  0  0  0  0  0  0
   36.6480   27.9422   36.1301 H   0  0  0  0  0  0  0  0  0  0  0  0
   37.3925   29.5285   36.2150 H   0  0  0  0  0  0  0  0  0  0  0  0
   38.1987   27.4259   37.7363 H   0  0  0  0  0  0  0  0  0  0  0  0
   38.3090   29.1168   38.3206 H   0  0  0  0  0  0  0  0  0  0  0  0
   36.7929   30.5701   39.5720 H   0  0  0  0  0  0  0  0  0  0  0  0
   36.3323   32.8696   38.7220 H   0  0  0  0  0  0  0  0  0  0  0  0
   39.4480   34.4271   41.2111 H   0  0  0  0  0  0  0  0  0  0  0  0
  1  3  1  0
  1  2  1  0
  3  2  1  0
  4  3  1  0
  4  5  2  0
  6  5  1  0
  7  6  2  0
  8  9  2  0
  8  7  1  0
  9  4  1  0
 10  9  1  0
 11 10  1  0
 12 11  1  0
 13 12  1  0
 13 14  1  0
 14 10  1  0
 15 20  1  0
 15  1  1  0
 16 15  2  0
 17 16  1  0
 17 18  2  0
 18 19  1  0
 19 20  2  0
  1 21  1  6
  2 22  1  0
  2 23  1  0
  3 24  1  1
  5 25  1  0
  6 26  1  0
  7 27  1  0
  8 28  1  0
 11 29  1  0
 11 30  1  0
 12 31  1  0
 12 32  1  0
 13 33  1  0
 13 34  1  0
 14 35  1  0
 14 36  1  0
 16 37  1  0
 17 38  1  0
 19 39  1  0
M  ISO  8  21  13  22  13  23  13  24  13  25  14  26  14  27  14  28  14
M  ISO  8  29  13  30  13  31  13  32  13  33  13  34  13  35  13  36  13
M  ISO  3  37  14  38  14  39  14
M  END
>  <minimizedAffinity>  (1) 
-5.1660285

>  <minimizedRMSD>  (1) 
0.22961776

$$$$
