
     RDKit          3D

 34 37  0  0  1  0  0  0  0  0999 V2000
   38.3180   29.1770   41.9310 C   0  0  1  0  0  0  0  0  0  0  0  0
   37.6040   28.8540   43.1770 C   0  0  0  0  0  0  0  0  0  0  0  0
   36.9070   28.4420   41.9640 C   0  0  2  0  0  0  0  0  0  0  0  0
   37.0120   27.0140   41.5300 C   0  0  0  0  0  0  0  0  0  0  0  0
   37.1280   26.0670   42.5600 C   0  0  0  0  0  0  0  0  0  0  0  0
   36.9770   24.7380   42.2830 C   0  0  0  0  0  0  0  0  0  0  0  0
   36.7110   24.3530   40.9880 C   0  0  0  0  0  0  0  0  0  0  0  0
   36.6050   25.2880   40.0010 C   0  0  0  0  0  0  0  0  0  0  0  0
   36.7630   26.6620   40.2650 C   0  0  0  0  0  0  0  0  0  0  0  0
   36.8440   27.3080   38.9770 C   0  0  0  0  0  0  0  0  0  0  0  0
   37.7080   26.8880   37.9380 C   0  0  0  0  0  0  0  0  0  0  0  0
   37.5160   27.6180   36.8280 N   0  0  0  0  0  0  0  0  0  0  0  0
   36.5610   28.5290   37.0370 C   0  0  0  0  0  0  0  0  0  0  0  0
   36.2260   28.2860   38.2990 N   0  0  0  0  0  0  0  0  0  0  0  0
   38.2050   30.5840   41.3720 C   0  0  0  0  0  0  0  0  0  0  0  0
   37.0420   30.9250   40.6100 C   0  0  0  0  0  0  0  0  0  0  0  0
   36.9730   32.1960   40.0930 C   0  0  0  0  0  0  0  0  0  0  0  0
   38.0130   33.0720   40.3350 N   0  0  0  0  0  0  0  0  0  0  0  0
   39.0980   32.7020   41.0690 C   0  0  0  0  0  0  0  0  0  0  0  0
   39.1860   31.4330   41.5910 N   0  0  0  0  0  0  0  0  0  0  0  0
   39.3447   29.0028   41.5767 H   0  0  0  0  0  0  0  0  0  0  0  0
   38.0166   28.0821   43.8433 H   0  0  0  0  0  0  0  0  0  0  0  0
   37.2975   29.4674   44.0371 H   0  0  0  0  0  0  0  0  0  0  0  0
   35.8827   28.5919   41.5921 H   0  0  0  0  0  0  0  0  0  0  0  0
   37.3401   26.3948   43.5884 H   0  0  0  0  0  0  0  0  0  0  0  0
   37.0665   23.9871   43.0819 H   0  0  0  0  0  0  0  0  0  0  0  0
   36.5835   23.2870   40.7487 H   0  0  0  0  0  0  0  0  0  0  0  0
   36.3907   24.9606   38.9729 H   0  0  0  0  0  0  0  0  0  0  0  0
   38.4398   26.0717   38.0280 H   0  0  0  0  0  0  0  0  0  0  0  0
   36.1578   29.2829   36.3449 H   0  0  0  0  0  0  0  0  0  0  0  0
   35.4932   28.8474   38.7559 H   0  0  0  0  0  0  0  0  0  0  0  0
   36.2342   30.1969   40.4447 H   0  0  0  0  0  0  0  0  0  0  0  0
   36.1041   32.5107   39.4964 H   0  0  0  0  0  0  0  0  0  0  0  0
   39.9098   33.4230   41.2457 H   0  0  0  0  0  0  0  0  0  0  0  0
  1  3  1  0
  1  2  1  0
  3  2  1  0
  4  3  1  0
  4  5  2  0
  6  5  1  0
  7  6  2  0
  8  9  2  0
  8  7  1  0
  9  4  1  0
 10  9  1  0
 11 10  2  0
 12 13  2  0
 12 11  1  0
 13 14  1  0
 14 10  1  0
 15 20  1  0
 15  1  1  0
 16 15  2  0
 17 18  2  0
 17 16  1  0
 18 19  1  0
 19 20  2  0
  1 21  1  1
  2 22  1  0
  2 23  1  0
  3 24  1  6
  5 25  1  0
  6 26  1  0
  7 27  1  0
  8 28  1  0
 11 29  1  0
 13 30  1  0
 14 31  1  0
 16 32  1  0
 17 33  1  0
 19 34  1  0
M  ISO  8  21  13  22  13  23  13  24  13  25  14  26  14  27  14  28  14
M  ISO  6  29  14  30  14  31   9  32  14  33  14  34  14
M  END
>  <minimizedAffinity>  (1) 
-5.15873957

>  <minimizedRMSD>  (1) 
0.926495552

$$$$
