
     RDKit          3D

 30 32  0  0  0  0  0  0  0  0999 V2000
   38.6950   28.1550   42.7490 C   0  0  0  0  0  0  0  0  0  0  0  0
   37.6150   27.3540   42.8790 C   0  0  0  0  0  0  0  0  0  0  0  0
   36.5300   27.9860   42.3140 C   0  0  0  0  0  0  0  0  0  0  0  0
   37.0270   29.1720   41.8610 N   0  0  0  0  0  0  0  0  0  0  0  0
   38.2870   29.2610   42.1180 N   0  0  0  0  0  0  0  0  0  0  0  0
   41.6330   26.5420   44.3700 C   0  0  0  0  0  0  0  0  0  0  0  0
   40.3280   26.7550   43.9470 C   0  0  0  0  0  0  0  0  0  0  0  0
   40.0310   27.8870   43.2060 C   0  0  0  0  0  0  0  0  0  0  0  0
   41.0400   28.7390   42.9300 N   0  0  0  0  0  0  0  0  0  0  0  0
   42.3170   28.5120   43.3550 C   0  0  0  0  0  0  0  0  0  0  0  0
   42.6000   27.4090   44.0740 N   0  0  0  0  0  0  0  0  0  0  0  0
   36.1760   30.1420   41.2000 C   0  0  0  0  0  0  0  0  0  0  0  0
   35.2950   29.5330   40.1670 C   0  0  0  0  0  0  0  0  0  0  0  0
   35.9060   29.7370   38.7710 C   0  0  0  0  0  0  0  0  0  0  0  0
   36.9150   30.6580   38.4680 C   0  0  0  0  0  0  0  0  0  0  0  0
   37.3340   30.7010   37.1840 C   0  0  0  0  0  0  0  0  0  0  0  0
   36.8100   29.8930   36.2020 C   0  0  0  0  0  0  0  0  0  0  0  0
   35.5470   28.9360   37.2510 S   0  0  0  0  0  0  0  0  0  0  0  0
   37.6042   26.3630   43.3562 H   0  0  0  0  0  0  0  0  0  0  0  0
   35.4960   27.6174   42.2440 H   0  0  0  0  0  0  0  0  0  0  0  0
   41.8720   25.6439   44.9584 H   0  0  0  0  0  0  0  0  0  0  0  0
   39.5378   26.0321   44.1978 H   0  0  0  0  0  0  0  0  0  0  0  0
   43.1143   29.2293   43.1105 H   0  0  0  0  0  0  0  0  0  0  0  0
   35.5438   30.6279   41.9578 H   0  0  0  0  0  0  0  0  0  0  0  0
   36.8323   30.8625   40.6900 H   0  0  0  0  0  0  0  0  0  0  0  0
   35.1907   28.4561   40.3656 H   0  0  0  0  0  0  0  0  0  0  0  0
   34.3072   30.0155   40.2037 H   0  0  0  0  0  0  0  0  0  0  0  0
   37.3462   31.3151   39.2376 H   0  0  0  0  0  0  0  0  0  0  0  0
   38.1279   31.4124   36.9126 H   0  0  0  0  0  0  0  0  0  0  0  0
   37.0500   29.8220   35.1308 H   0  0  0  0  0  0  0  0  0  0  0  0
  1  2  1  0
  1  8  1  0
  3  2  2  0
  4  5  1  0
  4  3  1  0
  5  1  2  0
  7  6  2  0
  8  7  1  0
  9  8  2  0
  9 10  1  0
 10 11  2  0
 11  6  1  0
 12  4  1  0
 13 12  1  0
 14 13  1  0
 15 14  2  0
 16 15  1  0
 17 16  2  0
 17 18  1  0
 18 14  1  0
  2 19  1  0
  3 20  1  0
  6 21  1  0
  7 22  1  0
 10 23  1  0
 12 24  1  0
 12 25  1  0
 13 26  1  0
 13 27  1  0
 15 28  1  0
 16 29  1  0
 17 30  1  0
M  ISO  8  19  14  20  14  21  14  22  14  23  14  24   8  25   8  26   8
M  ISO  4  27   8  28  14  29  14  30  14
M  END
>  <minimizedAffinity>  (1) 
-4.45443058

>  <minimizedRMSD>  (1) 
1.46521783

$$$$
