
     RDKit          3D

 28 30  0  0  0  0  0  0  0  0999 V2000
   38.7230   28.2510   42.7110 C   0  0  0  0  0  0  0  0  0  0  0  0
   37.6370   27.4460   42.7730 C   0  0  0  0  0  0  0  0  0  0  0  0
   36.5700   28.1130   42.2120 C   0  0  0  0  0  0  0  0  0  0  0  0
   37.0890   29.3260   41.8290 N   0  0  0  0  0  0  0  0  0  0  0  0
   38.3520   29.3880   42.1310 N   0  0  0  0  0  0  0  0  0  0  0  0
   41.5800   26.5090   44.3570 C   0  0  0  0  0  0  0  0  0  0  0  0
   40.2870   26.7690   43.9190 C   0  0  0  0  0  0  0  0  0  0  0  0
   40.0470   27.9290   43.1920 C   0  0  0  0  0  0  0  0  0  0  0  0
   41.0830   28.7750   42.9310 N   0  0  0  0  0  0  0  0  0  0  0  0
   42.3420   28.4810   43.3810 C   0  0  0  0  0  0  0  0  0  0  0  0
   42.5810   27.3530   44.0890 N   0  0  0  0  0  0  0  0  0  0  0  0
   36.2010   30.2830   41.1930 C   0  0  0  0  0  0  0  0  0  0  0  0
   35.5870   29.7510   39.9310 C   0  0  0  0  0  0  0  0  0  0  0  0
   36.3710   30.3250   38.8020 C   0  0  0  0  0  0  0  0  0  0  0  0
   36.3470   29.8090   37.5630 N   0  0  0  0  0  0  0  0  0  0  0  0
   37.1060   30.4760   36.7500 O   0  0  0  0  0  0  0  0  0  0  0  0
   37.6410   31.4450   37.4480 C   0  0  0  0  0  0  0  0  0  0  0  0
   37.2050   31.3770   38.7180 N   0  0  0  0  0  0  0  0  0  0  0  0
   37.6106   26.4321   43.1987 H   0  0  0  0  0  0  0  0  0  0  0  0
   35.5362   27.7552   42.0968 H   0  0  0  0  0  0  0  0  0  0  0  0
   41.7827   25.5942   44.9333 H   0  0  0  0  0  0  0  0  0  0  0  0
   39.4684   26.0694   44.1436 H   0  0  0  0  0  0  0  0  0  0  0  0
   43.1706   29.1712   43.1641 H   0  0  0  0  0  0  0  0  0  0  0  0
   35.3949   30.5373   41.8969 H   0  0  0  0  0  0  0  0  0  0  0  0
   36.7998   31.1661   40.9254 H   0  0  0  0  0  0  0  0  0  0  0  0
   35.6455   28.6527   39.9141 H   0  0  0  0  0  0  0  0  0  0  0  0
   34.5251   30.0288   39.8585 H   0  0  0  0  0  0  0  0  0  0  0  0
   38.3397   32.1989   37.0561 H   0  0  0  0  0  0  0  0  0  0  0  0
  1  2  1  0
  1  8  1  0
  3  2  2  0
  4  5  1  0
  4  3  1  0
  5  1  2  0
  7  6  2  0
  8  7  1  0
  9  8  2  0
  9 10  1  0
 10 11  2  0
 11  6  1  0
 12  4  1  0
 13 12  1  0
 14 13  1  0
 15 14  2  0
 16 17  1  0
 16 15  1  0
 17 18  2  0
 18 14  1  0
  2 19  1  0
  3 20  1  0
  6 21  1  0
  7 22  1  0
 10 23  1  0
 12 24  1  0
 12 25  1  0
 13 26  1  0
 13 27  1  0
 17 28  1  0
M  ISO  8  19  14  20  14  21  14  22  14  23  14  24   8  25   8  26   8
M  ISO  2  27   8  28  14
M  END
>  <minimizedAffinity>  (1) 
-4.3697567

>  <minimizedRMSD>  (1) 
1.73005629

$$$$
