
     RDKit          3D

 25 26  0  0  0  0  0  0  0  0999 V2000
   38.6810   28.1590   42.7280 C   0  0  0  0  0  0  0  0  0  0  0  0
   37.6000   27.3690   42.9160 C   0  0  0  0  0  0  0  0  0  0  0  0
   36.5140   27.9540   42.3250 C   0  0  0  0  0  0  0  0  0  0  0  0
   37.0240   29.1220   41.7860 N   0  0  0  0  0  0  0  0  0  0  0  0
   38.2850   29.2320   42.0260 N   0  0  0  0  0  0  0  0  0  0  0  0
   41.6240   26.5600   44.3760 C   0  0  0  0  0  0  0  0  0  0  0  0
   40.3090   26.7600   43.9450 C   0  0  0  0  0  0  0  0  0  0  0  0
   40.0220   27.8970   43.2000 C   0  0  0  0  0  0  0  0  0  0  0  0
   41.0200   28.7620   42.9210 N   0  0  0  0  0  0  0  0  0  0  0  0
   42.2860   28.5290   43.3600 C   0  0  0  0  0  0  0  0  0  0  0  0
   42.5830   27.4430   44.0780 N   0  0  0  0  0  0  0  0  0  0  0  0
   36.1610   30.0560   41.0530 C   0  0  0  0  0  0  0  0  0  0  0  0
   35.1580   29.3370   40.2130 C   0  0  0  0  0  0  0  0  0  0  0  0
   35.4480   29.3540   38.8130 N   0  0  0  0  0  0  0  0  0  0  0  0
   37.5947   26.4110   43.4566 H   0  0  0  0  0  0  0  0  0  0  0  0
   35.4790   27.5833   42.2871 H   0  0  0  0  0  0  0  0  0  0  0  0
   41.8725   25.6661   44.9669 H   0  0  0  0  0  0  0  0  0  0  0  0
   39.5199   26.0339   44.1901 H   0  0  0  0  0  0  0  0  0  0  0  0
   43.0813   29.2497   43.1187 H   0  0  0  0  0  0  0  0  0  0  0  0
   35.6299   30.6928   41.7758 H   0  0  0  0  0  0  0  0  0  0  0  0
   36.7959   30.6598   40.3879 H   0  0  0  0  0  0  0  0  0  0  0  0
   35.1178   28.2889   40.5445 H   0  0  0  0  0  0  0  0  0  0  0  0
   34.2002   29.8618   40.3445 H   0  0  0  0  0  0  0  0  0  0  0  0
   36.4668   29.4137   38.6741 H   0  0  0  0  0  0  0  0  0  0  0  0
   35.0922   28.4907   38.3782 H   0  0  0  0  0  0  0  0  0  0  0  0
  1  2  1  0
  1  8  1  0
  3  2  2  0
  4  5  1  0
  4  3  1  0
  5  1  2  0
  7  6  2  0
  8  7  1  0
  9  8  2  0
  9 10  1  0
 10 11  2  0
 11  6  1  0
 12  4  1  0
 13 12  1  0
 14 13  1  0
  2 15  1  0
  3 16  1  0
  6 17  1  0
  7 18  1  0
 10 19  1  0
 12 20  1  0
 12 21  1  0
 13 22  1  0
 13 23  1  0
 14 24  1  0
 14 25  1  0
M  ISO  8  15  14  16  14  17  14  18  14  19  14  20   8  21   8  22   8
M  ISO  3  23   8  24   5  25   5
M  END
>  <minimizedAffinity>  (1) 
-3.58582449

>  <minimizedRMSD>  (1) 
0.30774349

$$$$
