
     RDKit          3D

 45 49  0  0  0  0  0  0  0  0999 V2000
   36.1270   28.1850   40.6690 C   0  0  0  0  0  0  0  0  0  0  0  0
   36.5280   29.5300   40.2330 C   0  0  0  0  0  0  0  0  0  0  0  0
   36.6770   30.6670   41.0140 C   0  0  0  0  0  0  0  0  0  0  0  0
   36.9870   31.9230   40.5760 C   0  0  0  0  0  0  0  0  0  0  0  0
   37.1800   32.1170   39.2340 C   0  0  0  0  0  0  0  0  0  0  0  0
   37.0510   31.0260   38.3850 C   0  0  0  0  0  0  0  0  0  0  0  0
   37.2570   31.2960   37.0650 C   0  0  0  0  0  0  0  0  0  0  0  0
   37.1570   30.3050   36.1440 C   0  0  0  0  0  0  0  0  0  0  0  0
   36.8490   29.0390   36.5820 C   0  0  0  0  0  0  0  0  0  0  0  0
   36.6490   28.8100   37.9340 C   0  0  0  0  0  0  0  0  0  0  0  0
   36.7380   29.7850   38.8810 C   0  0  0  0  0  0  0  0  0  0  0  0
   36.3830   27.4210   38.1430 N   0  0  0  0  0  0  0  0  0  0  0  0
   35.1760   27.0870   37.5270 C   0  0  0  0  0  0  0  0  0  0  0  0
   34.8650   25.7690   37.7460 N   0  0  0  0  0  0  0  0  0  0  0  0
   35.9110   25.3210   38.5070 C   0  0  0  0  0  0  0  0  0  0  0  0
   36.7890   26.3050   38.7290 N   0  0  0  0  0  0  0  0  0  0  0  0
   36.3800   27.9110   42.1350 C   0  0  0  0  0  0  0  0  0  0  0  0
   39.4140   26.2660   42.9170 C   0  0  0  0  0  0  0  0  0  0  0  0
   38.6370   25.2170   42.5360 C   0  0  0  0  0  0  0  0  0  0  0  0
   37.3980   25.7510   42.1970 C   0  0  0  0  0  0  0  0  0  0  0  0
   37.5120   27.0940   42.3960 N   0  0  0  0  0  0  0  0  0  0  0  0
   38.6850   27.3950   42.8150 N   0  0  0  0  0  0  0  0  0  0  0  0
   42.9910   25.2880   43.2620 C   0  0  0  0  0  0  0  0  0  0  0  0
   41.6820   25.2980   42.7690 C   0  0  0  0  0  0  0  0  0  0  0  0
   40.7870   26.1980   43.3660 C   0  0  0  0  0  0  0  0  0  0  0  0
   41.1960   27.0210   44.3860 N   0  0  0  0  0  0  0  0  0  0  0  0
   42.5000   26.9440   44.8090 C   0  0  0  0  0  0  0  0  0  0  0  0
   43.3830   26.0870   44.2520 N   0  0  0  0  0  0  0  0  0  0  0  0
   36.6897   27.4478   40.0775 H   0  0  0  0  0  0  0  0  0  0  0  0
   35.0403   28.1121   40.5152 H   0  0  0  0  0  0  0  0  0  0  0  0
   36.5304   30.5443   42.0973 H   0  0  0  0  0  0  0  0  0  0  0  0
   37.0795   32.7593   41.2846 H   0  0  0  0  0  0  0  0  0  0  0  0
   37.4310   33.1124   38.8387 H   0  0  0  0  0  0  0  0  0  0  0  0
   37.5047   32.3192   36.7460 H   0  0  0  0  0  0  0  0  0  0  0  0
   37.3181   30.5091   35.0752 H   0  0  0  0  0  0  0  0  0  0  0  0
   36.7617   28.2115   35.8626 H   0  0  0  0  0  0  0  0  0  0  0  0
   34.5577   27.7860   36.9447 H   0  0  0  0  0  0  0  0  0  0  0  0
   36.0150   24.2929   38.8841 H   0  0  0  0  0  0  0  0  0  0  0  0
   36.5277   28.8750   42.6439 H   0  0  0  0  0  0  0  0  0  0  0  0
   35.5040   27.3581   42.5050 H   0  0  0  0  0  0  0  0  0  0  0  0
   38.9299   24.1572   42.5025 H   0  0  0  0  0  0  0  0  0  0  0  0
   36.5121   25.2037   41.8426 H   0  0  0  0  0  0  0  0  0  0  0  0
   43.7213   24.5964   42.8165 H   0  0  0  0  0  0  0  0  0  0  0  0
   41.3693   24.6315   41.9517 H   0  0  0  0  0  0  0  0  0  0  0  0
   42.8356   27.5998   45.6259 H   0  0  0  0  0  0  0  0  0  0  0  0
  1 17  1  0
  2  1  1  0
  2  3  2  0
  4  3  1  0
  5  4  2  0
  6 11  2  0
  6  5  1  0
  7  6  1  0
  8  9  1  0
  8  7  2  0
  9 10  2  0
 10 12  1  0
 10 11  1  0
 11  2  1  0
 12 16  1  0
 13 14  2  0
 13 12  1  0
 14 15  1  0
 15 16  2  0
 17 21  1  0
 18 25  1  0
 19 18  1  0
 20 21  1  0
 20 19  2  0
 21 22  1  0
 22 18  2  0
 23 28  2  0
 24 23  1  0
 24 25  2  0
 25 26  1  0
 26 27  2  0
 28 27  1  0
  1 29  1  0
  1 30  1  0
  3 31  1  0
  4 32  1  0
  5 33  1  0
  7 34  1  0
  8 35  1  0
  9 36  1  0
 13 37  1  0
 15 38  1  0
 17 39  1  0
 17 40  1  0
 19 41  1  0
 20 42  1  0
 23 43  1  0
 24 44  1  0
 27 45  1  0
M  ISO  8  29   8  30   8  31  14  32  14  33  14  34  14  35  14  36  14
M  ISO  8  37  14  38  14  39   8  40   8  41  14  42  14  43  14  44  14
M  ISO  1  45  14
M  END
>  <minimizedAffinity>  (1) 
-5.68791437

>  <minimizedRMSD>  (1) 
3.10961771

$$$$
