
     RDKit          3D

 41 44  0  0  0  0  0  0  0  0999 V2000
   35.2670   29.3920   40.0320 C   0  0  0  0  0  0  0  0  0  0  0  0
   35.9020   29.3870   38.7060 C   0  0  0  0  0  0  0  0  0  0  0  0
   37.2540   29.5010   38.4040 C   0  0  0  0  0  0  0  0  0  0  0  0
   37.8090   29.5020   37.1540 C   0  0  0  0  0  0  0  0  0  0  0  0
   36.9830   29.3790   36.0540 C   0  0  0  0  0  0  0  0  0  0  0  0
   35.6320   29.2610   36.2880 C   0  0  0  0  0  0  0  0  0  0  0  0
   34.8550   29.1410   35.1600 C   0  0  0  0  0  0  0  0  0  0  0  0
   33.5020   29.0170   35.2640 C   0  0  0  0  0  0  0  0  0  0  0  0
   32.9270   29.0140   36.5270 C   0  0  0  0  0  0  0  0  0  0  0  0
   33.7610   29.1380   37.6120 C   0  0  0  0  0  0  0  0  0  0  0  0
   35.1180   29.2650   37.5600 C   0  0  0  0  0  0  0  0  0  0  0  0
   33.0100   29.1060   38.8090 N   0  0  0  0  0  0  0  0  0  0  0  0
   36.1030   30.0290   41.1120 C   0  0  0  0  0  0  0  0  0  0  0  0
   38.6310   28.1350   42.7120 C   0  0  0  0  0  0  0  0  0  0  0  0
   37.5510   27.3290   42.8890 C   0  0  0  0  0  0  0  0  0  0  0  0
   36.4790   27.9770   42.2890 C   0  0  0  0  0  0  0  0  0  0  0  0
   36.9840   29.1320   41.7880 N   0  0  0  0  0  0  0  0  0  0  0  0
   38.2390   29.2340   42.0290 N   0  0  0  0  0  0  0  0  0  0  0  0
   41.5810   26.5700   44.3680 C   0  0  0  0  0  0  0  0  0  0  0  0
   40.2650   26.7590   43.9360 C   0  0  0  0  0  0  0  0  0  0  0  0
   39.9860   27.8990   43.1700 C   0  0  0  0  0  0  0  0  0  0  0  0
   40.9730   28.7900   42.8610 N   0  0  0  0  0  0  0  0  0  0  0  0
   42.2430   28.5350   43.3230 C   0  0  0  0  0  0  0  0  0  0  0  0
   42.5360   27.4460   44.0610 N   0  0  0  0  0  0  0  0  0  0  0  0
   35.0637   28.3505   40.3216 H   0  0  0  0  0  0  0  0  0  0  0  0
   34.3511   29.9946   39.9429 H   0  0  0  0  0  0  0  0  0  0  0  0
   37.9454   29.6001   39.2538 H   0  0  0  0  0  0  0  0  0  0  0  0
   38.8973   29.5993   37.0266 H   0  0  0  0  0  0  0  0  0  0  0  0
   37.3888   29.3755   35.0316 H   0  0  0  0  0  0  0  0  0  0  0  0
   35.3287   29.1451   34.1672 H   0  0  0  0  0  0  0  0  0  0  0  0
   32.8773   28.9211   34.3637 H   0  0  0  0  0  0  0  0  0  0  0  0
   31.8390   28.9156   36.6554 H   0  0  0  0  0  0  0  0  0  0  0  0
   33.4867   29.1875   39.7184 H   0  0  0  0  0  0  0  0  0  0  0  0
   31.9860   29.0012   38.7719 H   0  0  0  0  0  0  0  0  0  0  0  0
   36.7088   30.8241   40.6529 H   0  0  0  0  0  0  0  0  0  0  0  0
   35.3998   30.4054   41.8695 H   0  0  0  0  0  0  0  0  0  0  0  0
   37.5301   26.3575   43.4045 H   0  0  0  0  0  0  0  0  0  0  0  0
   35.4378   27.6267   42.2320 H   0  0  0  0  0  0  0  0  0  0  0  0
   41.8315   25.6845   44.9705 H   0  0  0  0  0  0  0  0  0  0  0  0
   39.4747   26.0369   44.1889 H   0  0  0  0  0  0  0  0  0  0  0  0
   43.0480   29.2448   43.0817 H   0  0  0  0  0  0  0  0  0  0  0  0
  1 13  1  0
  2  1  1  0
  3  2  2  0
  4  3  1  0
  5  6  1  0
  5  4  2  0
  6 11  2  0
  7  8  2  0
  7  6  1  0
  8  9  1  0
  9 10  2  0
 10 12  1  0
 11 10  1  0
 11  2  1  0
 13 17  1  0
 14 15  1  0
 14 21  1  0
 16 15  2  0
 17 18  1  0
 17 16  1  0
 18 14  2  0
 20 19  2  0
 21 20  1  0
 22 21  2  0
 22 23  1  0
 23 24  2  0
 24 19  1  0
  1 25  1  0
  1 26  1  0
  3 27  1  0
  4 28  1  0
  5 29  1  0
  7 30  1  0
  8 31  1  0
  9 32  1  0
 12 33  1  0
 12 34  1  0
 13 35  1  0
 13 36  1  0
 15 37  1  0
 16 38  1  0
 19 39  1  0
 20 40  1  0
 23 41  1  0
M  ISO  8  25   8  26   8  27  14  28  14  29  14  30  14  31  14  32  14
M  ISO  7  35   8  36   8  37  14  38  14  39  14  40  14  41  14
M  END
>  <minimizedAffinity>  (1) 
-5.66817665

>  <minimizedRMSD>  (1) 
0.357910067

$$$$
