
     RDKit          3D

 46 50  0  0  0  0  0  0  0  0999 V2000
   36.0020   28.2720   40.5380 C   0  0  0  0  0  0  0  0  0  0  0  0
   36.4700   29.6090   40.1460 C   0  0  0  0  0  0  0  0  0  0  0  0
   36.6630   30.7150   40.9640 C   0  0  0  0  0  0  0  0  0  0  0  0
   37.0480   31.9580   40.5580 C   0  0  0  0  0  0  0  0  0  0  0  0
   37.2750   32.1770   39.2220 C   0  0  0  0  0  0  0  0  0  0  0  0
   37.1010   31.1110   38.3490 C   0  0  0  0  0  0  0  0  0  0  0  0
   37.3380   31.4080   37.0380 C   0  0  0  0  0  0  0  0  0  0  0  0
   37.1940   30.4480   36.0860 C   0  0  0  0  0  0  0  0  0  0  0  0
   36.8100   29.1850   36.4910 C   0  0  0  0  0  0  0  0  0  0  0  0
   36.5830   28.9390   37.8350 C   0  0  0  0  0  0  0  0  0  0  0  0
   36.7140   29.8810   38.8100 C   0  0  0  0  0  0  0  0  0  0  0  0
   36.2540   27.5630   37.9680 N   0  0  0  0  0  0  0  0  0  0  0  0
   35.0260   27.2780   37.3710 C   0  0  0  0  0  0  0  0  0  0  0  0
   34.6650   25.9350   37.5430 C   0  0  0  0  0  0  0  0  0  0  0  0
   35.6770   25.4050   38.2460 N   0  0  0  0  0  0  0  0  0  0  0  0
   36.5860   26.3600   38.4820 C   0  0  0  0  0  0  0  0  0  0  0  0
   36.1960   27.9580   42.0000 C   0  0  0  0  0  0  0  0  0  0  0  0
   39.2050   26.2900   42.8130 C   0  0  0  0  0  0  0  0  0  0  0  0
   38.4290   25.2510   42.4010 C   0  0  0  0  0  0  0  0  0  0  0  0
   37.1930   25.7890   42.0460 C   0  0  0  0  0  0  0  0  0  0  0  0
   37.3210   27.1270   42.2740 N   0  0  0  0  0  0  0  0  0  0  0  0
   38.4810   27.4290   42.7180 N   0  0  0  0  0  0  0  0  0  0  0  0
   42.7700   25.2740   43.2200 C   0  0  0  0  0  0  0  0  0  0  0  0
   41.4670   25.3050   42.7150 C   0  0  0  0  0  0  0  0  0  0  0  0
   40.5710   26.2190   43.2900 C   0  0  0  0  0  0  0  0  0  0  0  0
   40.9860   27.0250   44.2930 N   0  0  0  0  0  0  0  0  0  0  0  0
   42.2780   26.9460   44.7450 C   0  0  0  0  0  0  0  0  0  0  0  0
   43.1510   26.0820   44.2120 N   0  0  0  0  0  0  0  0  0  0  0  0
   36.5539   27.5256   39.9478 H   0  0  0  0  0  0  0  0  0  0  0  0
   34.9188   28.2459   40.3481 H   0  0  0  0  0  0  0  0  0  0  0  0
   36.4887   30.5745   42.0410 H   0  0  0  0  0  0  0  0  0  0  0  0
   37.1745   32.7711   41.2880 H   0  0  0  0  0  0  0  0  0  0  0  0
   37.5851   33.1662   38.8543 H   0  0  0  0  0  0  0  0  0  0  0  0
   37.6456   32.4245   36.7515 H   0  0  0  0  0  0  0  0  0  0  0  0
   37.3780   30.6709   35.0246 H   0  0  0  0  0  0  0  0  0  0  0  0
   36.6853   28.3801   35.7517 H   0  0  0  0  0  0  0  0  0  0  0  0
   34.4157   28.0170   36.8312 H   0  0  0  0  0  0  0  0  0  0  0  0
   33.7568   25.4295   37.1829 H   0  0  0  0  0  0  0  0  0  0  0  0
   37.5156   26.1807   39.0420 H   0  0  0  0  0  0  0  0  0  0  0  0
   36.3270   28.9061   42.5422 H   0  0  0  0  0  0  0  0  0  0  0  0
   35.3047   27.4013   42.3251 H   0  0  0  0  0  0  0  0  0  0  0  0
   38.7206   24.1913   42.3566 H   0  0  0  0  0  0  0  0  0  0  0  0
   36.3106   25.2531   41.6663 H   0  0  0  0  0  0  0  0  0  0  0  0
   43.4970   24.5688   42.7909 H   0  0  0  0  0  0  0  0  0  0  0  0
   41.1557   24.6380   41.8976 H   0  0  0  0  0  0  0  0  0  0  0  0
   42.6041   27.6060   45.5623 H   0  0  0  0  0  0  0  0  0  0  0  0
  1 17  1  0
  2  1  1  0
  2  3  2  0
  4  3  1  0
  5  4  2  0
  6 11  2  0
  6  5  1  0
  7  6  1  0
  8  9  1  0
  8  7  2  0
  9 10  2  0
 10 12  1  0
 10 11  1  0
 11  2  1  0
 12 16  1  0
 13 14  2  0
 13 12  1  0
 14 15  1  0
 15 16  2  0
 17 21  1  0
 18 25  1  0
 19 18  1  0
 20 21  1  0
 20 19  2  0
 21 22  1  0
 22 18  2  0
 23 28  2  0
 24 23  1  0
 24 25  2  0
 25 26  1  0
 26 27  2  0
 28 27  1  0
  1 29  1  0
  1 30  1  0
  3 31  1  0
  4 32  1  0
  5 33  1  0
  7 34  1  0
  8 35  1  0
  9 36  1  0
 13 37  1  0
 14 38  1  0
 16 39  1  0
 17 40  1  0
 17 41  1  0
 19 42  1  0
 20 43  1  0
 23 44  1  0
 24 45  1  0
 27 46  1  0
M  ISO  8  29   8  30   8  31  14  32  14  33  14  34  14  35  14  36  14
M  ISO  8  37  14  38  14  39  14  40   8  41   8  42  14  43  14  44  14
M  ISO  2  45  14  46  14
M  END
>  <minimizedAffinity>  (1) 
-5.6546483

>  <minimizedRMSD>  (1) 
3.06358504

$$$$
