
     RDKit          3D

 41 44  0  0  0  0  0  0  0  0999 V2000
   35.8720   30.1970   40.5800 C   0  0  0  0  0  0  0  0  0  0  0  0
   36.5470   30.2430   39.2710 C   0  0  0  0  0  0  0  0  0  0  0  0
   37.8040   30.7480   38.9790 C   0  0  0  0  0  0  0  0  0  0  0  0
   38.3880   30.7970   37.7440 C   0  0  0  0  0  0  0  0  0  0  0  0
   37.7020   30.3080   36.6540 C   0  0  0  0  0  0  0  0  0  0  0  0
   36.4350   29.7860   36.8800 C   0  0  0  0  0  0  0  0  0  0  0  0
   35.7870   29.3030   35.7660 C   0  0  0  0  0  0  0  0  0  0  0  0
   34.5490   28.7620   35.8650 C   0  0  0  0  0  0  0  0  0  0  0  0
   33.9610   28.7090   37.1030 C   0  0  0  0  0  0  0  0  0  0  0  0
   34.6510   29.2030   38.1640 C   0  0  0  0  0  0  0  0  0  0  0  0
   35.8930   29.7600   38.1380 C   0  0  0  0  0  0  0  0  0  0  0  0
   33.9310   29.0770   39.3930 C   0  0  0  0  0  0  0  0  0  0  0  0
   32.7220   29.3150   39.6500 O   0  0  0  0  0  0  0  0  0  0  0  0
   36.8060   30.2730   41.7550 C   0  0  0  0  0  0  0  0  0  0  0  0
   38.7300   27.4550   42.6650 C   0  0  0  0  0  0  0  0  0  0  0  0
   37.4660   26.9190   42.6750 C   0  0  0  0  0  0  0  0  0  0  0  0
   36.6030   27.9560   42.3190 C   0  0  0  0  0  0  0  0  0  0  0  0
   37.4050   29.0330   42.1210 N   0  0  0  0  0  0  0  0  0  0  0  0
   38.6510   28.7520   42.3190 N   0  0  0  0  0  0  0  0  0  0  0  0
   41.4940   24.9520   42.6220 C   0  0  0  0  0  0  0  0  0  0  0  0
   40.3030   25.5930   42.2640 C   0  0  0  0  0  0  0  0  0  0  0  0
   39.9570   26.7510   42.9830 C   0  0  0  0  0  0  0  0  0  0  0  0
   40.7530   27.2270   43.9880 N   0  0  0  0  0  0  0  0  0  0  0  0
   41.9090   26.5280   44.2690 C   0  0  0  0  0  0  0  0  0  0  0  0
   42.2690   25.4230   43.6060 N   0  0  0  0  0  0  0  0  0  0  0  0
   35.3100   29.2537   40.6459 H   0  0  0  0  0  0  0  0  0  0  0  0
   35.2225   31.0831   40.6333 H   0  0  0  0  0  0  0  0  0  0  0  0
   38.3876   31.1476   39.8215 H   0  0  0  0  0  0  0  0  0  0  0  0
   39.3950   31.2224   37.6219 H   0  0  0  0  0  0  0  0  0  0  0  0
   38.1401   30.3301   35.6453 H   0  0  0  0  0  0  0  0  0  0  0  0
   36.2799   29.3569   34.7841 H   0  0  0  0  0  0  0  0  0  0  0  0
   34.0291   28.3754   34.9760 H   0  0  0  0  0  0  0  0  0  0  0  0
   32.9574   28.2780   37.2334 H   0  0  0  0  0  0  0  0  0  0  0  0
   34.5254   28.7164   40.2454 H   0  0  0  0  0  0  0  0  0  0  0  0
   37.6099   30.9822   41.5083 H   0  0  0  0  0  0  0  0  0  0  0  0
   36.1979   30.5900   42.6151 H   0  0  0  0  0  0  0  0  0  0  0  0
   37.1896   25.8817   42.9151 H   0  0  0  0  0  0  0  0  0  0  0  0
   35.5084   27.9105   42.2201 H   0  0  0  0  0  0  0  0  0  0  0  0
   41.7995   24.0426   42.0838 H   0  0  0  0  0  0  0  0  0  0  0  0
   39.6648   25.2078   41.4551 H   0  0  0  0  0  0  0  0  0  0  0  0
   42.5633   26.8953   45.0734 H   0  0  0  0  0  0  0  0  0  0  0  0
  1 14  1  0
  2  1  1  0
  3  2  2  0
  4  3  1  0
  5  6  1  0
  5  4  2  0
  6 11  2  0
  7  8  2  0
  7  6  1  0
  8  9  1  0
  9 10  2  0
 10 12  1  0
 11 10  1  0
 11  2  1  0
 12 13  2  0
 14 18  1  0
 15 16  1  0
 15 22  1  0
 17 16  2  0
 18 17  1  0
 18 19  1  0
 19 15  2  0
 20 25  2  0
 21 20  1  0
 21 22  2  0
 22 23  1  0
 23 24  2  0
 25 24  1  0
  1 26  1  0
  1 27  1  0
  3 28  1  0
  4 29  1  0
  5 30  1  0
  7 31  1  0
  8 32  1  0
  9 33  1  0
 12 34  1  0
 14 35  1  0
 14 36  1  0
 16 37  1  0
 17 38  1  0
 20 39  1  0
 21 40  1  0
 24 41  1  0
M  ISO  8  26   8  27   8  28  14  29  14  30  14  31  14  32  14  33  14
M  ISO  8  34   6  35   8  36   8  37  14  38  14  39  14  40  14  41  14
M  END
>  <minimizedAffinity>  (1) 
-5.54508305

>  <minimizedRMSD>  (1) 
1.29551244

$$$$
