
     RDKit          3D

 45 48  0  0  0  0  0  0  0  0999 V2000
   35.6230   29.5060   39.8050 C   0  0  0  0  0  0  0  0  0  0  0  0
   36.4290   30.2150   38.8030 C   0  0  0  0  0  0  0  0  0  0  0  0
   37.3480   31.2320   38.9490 C   0  0  0  0  0  0  0  0  0  0  0  0
   38.0040   31.9040   37.9790 C   0  0  0  0  0  0  0  0  0  0  0  0
   37.7650   31.5760   36.6750 C   0  0  0  0  0  0  0  0  0  0  0  0
   36.8540   30.5610   36.4210 C   0  0  0  0  0  0  0  0  0  0  0  0
   36.6530   30.3060   35.0920 C   0  0  0  0  0  0  0  0  0  0  0  0
   35.7650   29.3450   34.7340 C   0  0  0  0  0  0  0  0  0  0  0  0
   35.1000   28.6590   35.7120 C   0  0  0  0  0  0  0  0  0  0  0  0
   35.3220   28.9320   37.0570 C   0  0  0  0  0  0  0  0  0  0  0  0
   36.2070   29.8980   37.4480 C   0  0  0  0  0  0  0  0  0  0  0  0
   34.5710   28.0770   37.9990 C   0  0  0  0  0  0  0  0  0  0  0  0
   34.1030   26.7850   37.2410 C   0  0  0  0  0  0  0  0  0  0  0  0
   35.9940   29.9370   41.2230 C   0  0  0  0  0  0  0  0  0  0  0  0
   38.6170   28.1010   42.7260 C   0  0  0  0  0  0  0  0  0  0  0  0
   37.5610   27.2280   42.8570 C   0  0  0  0  0  0  0  0  0  0  0  0
   36.4550   27.8580   42.2920 C   0  0  0  0  0  0  0  0  0  0  0  0
   36.9350   29.0630   41.8640 N   0  0  0  0  0  0  0  0  0  0  0  0
   38.1760   29.2040   42.1110 N   0  0  0  0  0  0  0  0  0  0  0  0
   41.6080   26.5950   44.3610 C   0  0  0  0  0  0  0  0  0  0  0  0
   40.2800   26.7400   43.9510 C   0  0  0  0  0  0  0  0  0  0  0  0
   39.9720   27.8800   43.1760 C   0  0  0  0  0  0  0  0  0  0  0  0
   40.9400   28.7810   42.8560 N   0  0  0  0  0  0  0  0  0  0  0  0
   42.2220   28.5710   43.2950 C   0  0  0  0  0  0  0  0  0  0  0  0
   42.5480   27.4910   44.0380 N   0  0  0  0  0  0  0  0  0  0  0  0
   35.7950   28.4243   39.7029 H   0  0  0  0  0  0  0  0  0  0  0  0
   34.5641   29.7499   39.6342 H   0  0  0  0  0  0  0  0  0  0  0  0
   37.5747   31.5329   39.9825 H   0  0  0  0  0  0  0  0  0  0  0  0
   38.7178   32.7010   38.2343 H   0  0  0  0  0  0  0  0  0  0  0  0
   38.2774   32.0988   35.8540 H   0  0  0  0  0  0  0  0  0  0  0  0
   37.2030   30.8716   34.3255 H   0  0  0  0  0  0  0  0  0  0  0  0
   35.5827   29.1210   33.6726 H   0  0  0  0  0  0  0  0  0  0  0  0
   34.3778   27.8786   35.4302 H   0  0  0  0  0  0  0  0  0  0  0  0
   35.2192   27.7971   38.8425 H   0  0  0  0  0  0  0  0  0  0  0  0
   33.6974   28.6222   38.3857 H   0  0  0  0  0  0  0  0  0  0  0  0
   33.8231   26.0122   37.9720 H   0  0  0  0  0  0  0  0  0  0  0  0
   33.2345   27.0245   36.6098 H   0  0  0  0  0  0  0  0  0  0  0  0
   34.9234   26.4127   36.6098 H   0  0  0  0  0  0  0  0  0  0  0  0
   36.4322   30.9449   41.1762 H   0  0  0  0  0  0  0  0  0  0  0  0
   35.0704   29.9083   41.8198 H   0  0  0  0  0  0  0  0  0  0  0  0
   37.5858   26.2293   43.3174 H   0  0  0  0  0  0  0  0  0  0  0  0
   35.4280   27.4727   42.2092 H   0  0  0  0  0  0  0  0  0  0  0  0
   41.8884   25.7202   44.9660 H   0  0  0  0  0  0  0  0  0  0  0  0
   39.5106   26.0010   44.2192 H   0  0  0  0  0  0  0  0  0  0  0  0
   43.0041   29.2998   43.0358 H   0  0  0  0  0  0  0  0  0  0  0  0
  1 14  1  0
  2  3  2  0
  2  1  1  0
  4  3  1  0
  5  4  2  0
  6  5  1  0
  6 11  2  0
  7  6  1  0
  8  7  2  0
  8  9  1  0
  9 10  2  0
 10 11  1  0
 10 12  1  0
 11  2  1  0
 13 12  1  0
 14 18  1  0
 15 16  1  0
 15 22  1  0
 17 16  2  0
 18 19  1  0
 18 17  1  0
 19 15  2  0
 21 20  2  0
 22 21  1  0
 23 22  2  0
 23 24  1  0
 24 25  2  0
 25 20  1  0
  1 26  1  0
  1 27  1  0
  3 28  1  0
  4 29  1  0
  5 30  1  0
  7 31  1  0
  8 32  1  0
  9 33  1  0
 12 34  1  0
 12 35  1  0
 13 36  1  0
 13 37  1  0
 13 38  1  0
 14 39  1  0
 14 40  1  0
 16 41  1  0
 17 42  1  0
 20 43  1  0
 21 44  1  0
 24 45  1  0
M  ISO  8  26   8  27   8  28  14  29  14  30  14  31  14  32  14  33  14
M  ISO  8  34   8  35   8  36   8  37   8  38   8  39   8  40   8  41  14
M  ISO  4  42  14  43  14  44  14  45  14
M  END
>  <minimizedAffinity>  (1) 
-5.41729403

>  <minimizedRMSD>  (1) 
1.49114227

$$$$
