
     RDKit          3D

 50 54  0  0  0  0  0  0  0  0999 V2000
   35.9330   29.9820   40.9340 C   0  0  0  0  0  0  0  0  0  0  0  0
   38.4820   28.2060   42.5800 C   0  0  0  0  0  0  0  0  0  0  0  0
   37.4390   27.3310   42.6970 C   0  0  0  0  0  0  0  0  0  0  0  0
   36.3440   27.9290   42.0690 C   0  0  0  0  0  0  0  0  0  0  0  0
   36.8160   29.1080   41.6290 N   0  0  0  0  0  0  0  0  0  0  0  0
   38.0600   29.3100   41.9060 N   0  0  0  0  0  0  0  0  0  0  0  0
   41.5330   26.6510   44.0470 C   0  0  0  0  0  0  0  0  0  0  0  0
   40.2220   26.7780   43.5750 C   0  0  0  0  0  0  0  0  0  0  0  0
   39.8290   28.0300   43.0750 C   0  0  0  0  0  0  0  0  0  0  0  0
   40.7080   29.0470   43.0660 N   0  0  0  0  0  0  0  0  0  0  0  0
   41.9860   28.8660   43.5420 C   0  0  0  0  0  0  0  0  0  0  0  0
   42.3790   27.6900   44.0210 N   0  0  0  0  0  0  0  0  0  0  0  0
   42.7600   30.0780   43.4410 N   0  0  0  0  0  0  0  0  0  0  0  0
   44.0720   30.1350   43.7390 C   0  0  0  0  0  0  0  0  0  0  0  0
   44.7500   31.3330   43.6170 C   0  0  0  0  0  0  0  0  0  0  0  0
   44.0300   32.4350   43.1860 C   0  0  0  0  0  0  0  0  0  0  0  0
   44.5730   33.5560   43.0520 O   0  0  0  0  0  0  0  0  0  0  0  0
   42.7130   32.3050   42.9040 N   0  0  0  0  0  0  0  0  0  0  0  0
   42.0490   31.1330   43.0230 C   0  0  0  0  0  0  0  0  0  0  0  0
   40.8330   31.1380   42.7330 O   0  0  0  0  0  0  0  0  0  0  0  0
   35.1090   29.3550   39.8550 C   0  0  0  0  0  0  0  0  0  0  0  0
   35.7560   29.3270   38.5220 C   0  0  0  0  0  0  0  0  0  0  0  0
   37.0810   29.4580   38.2310 C   0  0  0  0  0  0  0  0  0  0  0  0
   37.6330   29.5070   36.9880 C   0  0  0  0  0  0  0  0  0  0  0  0
   36.8020   29.4200   35.8810 C   0  0  0  0  0  0  0  0  0  0  0  0
   35.4380   29.2830   36.1060 C   0  0  0  0  0  0  0  0  0  0  0  0
   34.6830   29.2040   34.9670 C   0  0  0  0  0  0  0  0  0  0  0  0
   33.3230   29.0620   35.0780 C   0  0  0  0  0  0  0  0  0  0  0  0
   32.7540   29.0010   36.3380 C   0  0  0  0  0  0  0  0  0  0  0  0
   33.5740   29.0870   37.4230 C   0  0  0  0  0  0  0  0  0  0  0  0
   34.9240   29.2350   37.3910 C   0  0  0  0  0  0  0  0  0  0  0  0
   32.9380   29.0020   38.6540 O   0  0  0  0  0  0  0  0  0  0  0  0
   35.2450   30.4219   41.6709 H   0  0  0  0  0  0  0  0  0  0  0  0
   36.5776   30.7159   40.4280 H   0  0  0  0  0  0  0  0  0  0  0  0
   37.4580   26.3476   43.1896 H   0  0  0  0  0  0  0  0  0  0  0  0
   35.3262   27.5263   41.9594 H   0  0  0  0  0  0  0  0  0  0  0  0
   41.8743   25.6841   44.4453 H   0  0  0  0  0  0  0  0  0  0  0  0
   39.5243   25.9278   43.5949 H   0  0  0  0  0  0  0  0  0  0  0  0
   44.6015   29.2323   44.0779 H   0  0  0  0  0  0  0  0  0  0  0  0
   45.8216   31.4086   43.8534 H   0  0  0  0  0  0  0  0  0  0  0  0
   42.1935   33.1351   42.5847 H   0  0  0  0  0  0  0  0  0  0  0  0
   34.8876   28.3189   40.1507 H   0  0  0  0  0  0  0  0  0  0  0  0
   34.2072   29.9761   39.7508 H   0  0  0  0  0  0  0  0  0  0  0  0
   37.7716   29.5313   39.0840 H   0  0  0  0  0  0  0  0  0  0  0  0
   38.7207   29.6139   36.8633 H   0  0  0  0  0  0  0  0  0  0  0  0
   37.2090   29.4582   34.8598 H   0  0  0  0  0  0  0  0  0  0  0  0
   35.1598   29.2537   33.9770 H   0  0  0  0  0  0  0  0  0  0  0  0
   32.6937   28.9975   34.1781 H   0  0  0  0  0  0  0  0  0  0  0  0
   31.6669   28.8860   36.4607 H   0  0  0  0  0  0  0  0  0  0  0  0
   33.4668   29.0563   39.4892 H   0  0  0  0  0  0  0  0  0  0  0  0
  1  5  1  0
  2  3  1  0
  2  9  1  0
  4  3  2  0
  5  6  1  0
  5  4  1  0
  6  2  2  0
  8  7  2  0
  9  8  1  0
 10  9  2  0
 10 11  1  0
 11 12  2  0
 12  7  1  0
 13 11  1  0
 13 14  1  0
 15 14  2  0
 16 15  1  0
 17 16  2  0
 18 19  1  0
 18 16  1  0
 19 13  1  0
 20 19  2  0
 21  1  1  0
 22 21  1  0
 23 22  2  0
 24 23  1  0
 25 26  1  0
 25 24  2  0
 26 31  2  0
 27 28  2  0
 27 26  1  0
 28 29  1  0
 29 30  2  0
 30 32  1  0
 31 30  1  0
 31 22  1  0
  1 33  1  0
  1 34  1  0
  3 35  1  0
  4 36  1  0
  7 37  1  0
  8 38  1  0
 14 39  1  0
 15 40  1  0
 18 41  1  0
 21 42  1  0
 21 43  1  0
 23 44  1  0
 24 45  1  0
 25 46  1  0
 27 47  1  0
 28 48  1  0
 29 49  1  0
 32 50  1  0
M  ISO  8  33   8  34   8  35  14  36  14  37  14  38  14  39  14  40  14
M  ISO  8  41   9  42   8  43   8  44  14  45  14  46  14  47  14  48  14
M  ISO  2  49  14  50   3
M  END
>  <minimizedAffinity>  (1) 
-6.91829491

>  <minimizedRMSD>  (1) 
0.729250312

$$$$
