
     RDKit          3D

 52 55  0  0  0  0  0  0  0  0999 V2000
   35.9880   30.0120   40.9430 C   0  0  0  0  0  0  0  0  0  0  0  0
   38.4260   28.1150   42.6150 C   0  0  0  0  0  0  0  0  0  0  0  0
   37.3470   27.2750   42.7010 C   0  0  0  0  0  0  0  0  0  0  0  0
   36.2880   27.9180   42.0620 C   0  0  0  0  0  0  0  0  0  0  0  0
   36.8120   29.0880   41.6450 N   0  0  0  0  0  0  0  0  0  0  0  0
   38.0580   29.2310   41.9530 N   0  0  0  0  0  0  0  0  0  0  0  0
   41.3340   26.4990   44.2860 C   0  0  0  0  0  0  0  0  0  0  0  0
   40.0340   26.6640   43.8040 C   0  0  0  0  0  0  0  0  0  0  0  0
   39.7560   27.8850   43.1350 C   0  0  0  0  0  0  0  0  0  0  0  0
   40.7260   28.8130   42.9960 N   0  0  0  0  0  0  0  0  0  0  0  0
   41.9800   28.5820   43.4960 C   0  0  0  0  0  0  0  0  0  0  0  0
   42.2710   27.4380   44.1310 N   0  0  0  0  0  0  0  0  0  0  0  0
   42.9610   29.6810   43.2790 C   0  0  0  0  0  0  0  0  0  0  0  0
   43.8950   29.7910   44.4650 C   0  0  0  0  0  0  0  0  0  0  0  0
   43.7460   29.4800   42.0000 C   0  0  0  0  0  0  0  0  0  0  0  0
   42.2740   31.0430   43.1690 C   0  0  0  0  0  0  0  0  0  0  0  0
   35.1360   29.4180   39.8620 C   0  0  0  0  0  0  0  0  0  0  0  0
   35.7790   29.3600   38.5210 C   0  0  0  0  0  0  0  0  0  0  0  0
   37.1080   29.4960   38.2310 C   0  0  0  0  0  0  0  0  0  0  0  0
   37.6500   29.5260   36.9820 C   0  0  0  0  0  0  0  0  0  0  0  0
   36.8310   29.4140   35.8930 C   0  0  0  0  0  0  0  0  0  0  0  0
   35.4760   29.2720   36.1110 C   0  0  0  0  0  0  0  0  0  0  0  0
   34.6960   29.1740   34.9810 C   0  0  0  0  0  0  0  0  0  0  0  0
   33.3450   29.0350   35.1000 C   0  0  0  0  0  0  0  0  0  0  0  0
   32.7740   28.9900   36.3550 C   0  0  0  0  0  0  0  0  0  0  0  0
   33.5990   29.0910   37.4480 C   0  0  0  0  0  0  0  0  0  0  0  0
   34.9440   29.2400   37.3990 C   0  0  0  0  0  0  0  0  0  0  0  0
   32.9720   29.0170   38.6780 O   0  0  0  0  0  0  0  0  0  0  0  0
   35.3224   30.4962   41.6727 H   0  0  0  0  0  0  0  0  0  0  0  0
   36.6737   30.7102   40.4406 H   0  0  0  0  0  0  0  0  0  0  0  0
   37.3214   26.2856   43.1810 H   0  0  0  0  0  0  0  0  0  0  0  0
   35.2588   27.5536   41.9284 H   0  0  0  0  0  0  0  0  0  0  0  0
   41.5944   25.5672   44.8094 H   0  0  0  0  0  0  0  0  0  0  0  0
   39.2652   25.8883   43.9357 H   0  0  0  0  0  0  0  0  0  0  0  0
   43.3142   29.7226   45.3967 H   0  0  0  0  0  0  0  0  0  0  0  0
   44.6298   28.9732   44.4301 H   0  0  0  0  0  0  0  0  0  0  0  0
   44.4197   30.7572   44.4301 H   0  0  0  0  0  0  0  0  0  0  0  0
   44.7848   29.2140   42.2453 H   0  0  0  0  0  0  0  0  0  0  0  0
   43.2890   28.6699   41.4127 H   0  0  0  0  0  0  0  0  0  0  0  0
   43.7345   30.4101   41.4127 H   0  0  0  0  0  0  0  0  0  0  0  0
   42.0757   31.4361   44.1770 H   0  0  0  0  0  0  0  0  0  0  0  0
   42.9280   31.7407   42.6254 H   0  0  0  0  0  0  0  0  0  0  0  0
   41.3242   30.9317   42.6254 H   0  0  0  0  0  0  0  0  0  0  0  0
   34.8718   28.3924   40.1594 H   0  0  0  0  0  0  0  0  0  0  0  0
   34.2627   30.0787   39.7581 H   0  0  0  0  0  0  0  0  0  0  0  0
   37.8001   29.5894   39.0808 H   0  0  0  0  0  0  0  0  0  0  0  0
   38.7362   29.6392   36.8506 H   0  0  0  0  0  0  0  0  0  0  0  0
   37.2406   29.4365   34.8723 H   0  0  0  0  0  0  0  0  0  0  0  0
   35.1614   29.2077   33.9849 H   0  0  0  0  0  0  0  0  0  0  0  0
   32.7147   28.9593   34.2017 H   0  0  0  0  0  0  0  0  0  0  0  0
   31.6867   28.8762   36.4769 H   0  0  0  0  0  0  0  0  0  0  0  0
   33.5047   29.0824   39.5099 H   0  0  0  0  0  0  0  0  0  0  0  0
  1  5  1  0
  2  3  1  0
  2  9  1  0
  4  3  2  0
  5  6  1  0
  5  4  1  0
  6  2  2  0
  8  7  2  0
  9  8  1  0
 10  9  2  0
 10 11  1  0
 11 12  2  0
 12  7  1  0
 13 11  1  0
 13 14  1  0
 15 13  1  0
 16 13  1  0
 17  1  1  0
 18 17  1  0
 19 18  2  0
 20 19  1  0
 21 22  1  0
 21 20  2  0
 22 27  2  0
 23 24  2  0
 23 22  1  0
 24 25  1  0
 25 26  2  0
 26 28  1  0
 27 26  1  0
 27 18  1  0
  1 29  1  0
  1 30  1  0
  3 31  1  0
  4 32  1  0
  7 33  1  0
  8 34  1  0
 14 35  1  0
 14 36  1  0
 14 37  1  0
 15 38  1  0
 15 39  1  0
 15 40  1  0
 16 41  1  0
 16 42  1  0
 16 43  1  0
 17 44  1  0
 17 45  1  0
 19 46  1  0
 20 47  1  0
 21 48  1  0
 23 49  1  0
 24 50  1  0
 25 51  1  0
 28 52  1  0
M  ISO  8  29   8  30   8  31  14  32  14  33  14  34  14  35   8  36   8
M  ISO  8  37   8  38   8  39   8  40   8  41   8  42   8  43   8  44   8
M  ISO  8  45   8  46  14  47  14  48  14  49  14  50  14  51  14  52   3
M  END
>  <minimizedAffinity>  (1) 
-6.07842922

>  <minimizedRMSD>  (1) 
0.314603567

$$$$
