
     RDKit          3D

 49 52  0  0  0  0  0  0  0  0999 V2000
   35.1330   29.4120   39.8560 C   0  0  0  0  0  0  0  0  0  0  0  0
   35.7670   29.3680   38.5190 C   0  0  0  0  0  0  0  0  0  0  0  0
   37.0910   29.5070   38.2150 C   0  0  0  0  0  0  0  0  0  0  0  0
   37.6280   29.5370   36.9630 C   0  0  0  0  0  0  0  0  0  0  0  0
   36.7970   29.4210   35.8710 C   0  0  0  0  0  0  0  0  0  0  0  0
   35.4380   29.2750   36.1010 C   0  0  0  0  0  0  0  0  0  0  0  0
   34.6660   29.1700   34.9700 C   0  0  0  0  0  0  0  0  0  0  0  0
   33.3120   29.0210   35.0980 C   0  0  0  0  0  0  0  0  0  0  0  0
   32.7510   28.9780   36.3590 C   0  0  0  0  0  0  0  0  0  0  0  0
   33.5780   29.0890   37.4410 C   0  0  0  0  0  0  0  0  0  0  0  0
   34.9260   29.2450   37.3970 C   0  0  0  0  0  0  0  0  0  0  0  0
   32.9580   29.0210   38.6770 O   0  0  0  0  0  0  0  0  0  0  0  0
   35.9860   30.0050   40.9310 C   0  0  0  0  0  0  0  0  0  0  0  0
   38.4280   28.1160   42.6160 C   0  0  0  0  0  0  0  0  0  0  0  0
   37.3450   27.2730   42.6970 C   0  0  0  0  0  0  0  0  0  0  0  0
   36.2920   27.9220   42.0500 C   0  0  0  0  0  0  0  0  0  0  0  0
   36.8170   29.0890   41.6370 N   0  0  0  0  0  0  0  0  0  0  0  0
   38.0600   29.2330   41.9520 N   0  0  0  0  0  0  0  0  0  0  0  0
   41.3190   26.4800   44.2950 C   0  0  0  0  0  0  0  0  0  0  0  0
   40.0240   26.6450   43.8200 C   0  0  0  0  0  0  0  0  0  0  0  0
   39.7530   27.8690   43.1470 C   0  0  0  0  0  0  0  0  0  0  0  0
   40.7300   28.8100   42.9930 N   0  0  0  0  0  0  0  0  0  0  0  0
   41.9850   28.5540   43.5020 C   0  0  0  0  0  0  0  0  0  0  0  0
   42.2660   27.4090   44.1380 N   0  0  0  0  0  0  0  0  0  0  0  0
   43.0800   29.5480   43.3600 C   0  0  0  0  0  0  0  0  0  0  0  0
   42.6060   30.9720   43.3150 C   0  0  0  0  0  0  0  0  0  0  0  0
   44.0730   29.4360   44.5170 C   0  0  0  0  0  0  0  0  0  0  0  0
   34.8785   28.3827   40.1489 H   0  0  0  0  0  0  0  0  0  0  0  0
   34.2525   30.0646   39.7617 H   0  0  0  0  0  0  0  0  0  0  0  0
   37.7891   29.6038   39.0595 H   0  0  0  0  0  0  0  0  0  0  0  0
   38.7133   29.6526   36.8261 H   0  0  0  0  0  0  0  0  0  0  0  0
   37.1995   29.4435   34.8475 H   0  0  0  0  0  0  0  0  0  0  0  0
   35.1305   29.2053   33.9735 H   0  0  0  0  0  0  0  0  0  0  0  0
   32.6761   28.9362   34.2045 H   0  0  0  0  0  0  0  0  0  0  0  0
   31.6654   28.8574   36.4892 H   0  0  0  0  0  0  0  0  0  0  0  0
   33.4956   29.0941   39.5051 H   0  0  0  0  0  0  0  0  0  0  0  0
   36.6355   30.7622   40.4676 H   0  0  0  0  0  0  0  0  0  0  0  0
   35.2876   30.4118   41.6771 H   0  0  0  0  0  0  0  0  0  0  0  0
   37.3143   26.2835   43.1765 H   0  0  0  0  0  0  0  0  0  0  0  0
   35.2629   27.5598   41.9095 H   0  0  0  0  0  0  0  0  0  0  0  0
   41.5745   25.5482   44.8208 H   0  0  0  0  0  0  0  0  0  0  0  0
   39.2520   25.8733   43.9564 H   0  0  0  0  0  0  0  0  0  0  0  0
   43.5524   29.3065   42.3964 H   0  0  0  0  0  0  0  0  0  0  0  0
   42.4804   31.3492   44.3406 H   0  0  0  0  0  0  0  0  0  0  0  0
   43.3473   31.5887   42.7857 H   0  0  0  0  0  0  0  0  0  0  0  0
   41.6430   31.0213   42.7857 H   0  0  0  0  0  0  0  0  0  0  0  0
   43.5312   29.4971   45.4724 H   0  0  0  0  0  0  0  0  0  0  0  0
   44.6005   28.4727   44.4555 H   0  0  0  0  0  0  0  0  0  0  0  0
   44.8018   30.2576   44.4555 H   0  0  0  0  0  0  0  0  0  0  0  0
  1 13  1  0
  2  1  1  0
  3  2  2  0
  4  3  1  0
  5  6  1  0
  5  4  2  0
  6 11  2  0
  7  8  2  0
  7  6  1  0
  8  9  1  0
  9 10  2  0
 10 12  1  0
 11 10  1  0
 11  2  1  0
 13 17  1  0
 14 15  1  0
 14 21  1  0
 16 15  2  0
 17 18  1  0
 17 16  1  0
 18 14  2  0
 20 19  2  0
 21 20  1  0
 22 21  2  0
 22 23  1  0
 23 24  2  0
 24 19  1  0
 25 23  1  0
 25 27  1  0
 26 25  1  0
  1 28  1  0
  1 29  1  0
  3 30  1  0
  4 31  1  0
  5 32  1  0
  7 33  1  0
  8 34  1  0
  9 35  1  0
 12 36  1  0
 13 37  1  0
 13 38  1  0
 15 39  1  0
 16 40  1  0
 19 41  1  0
 20 42  1  0
 25 43  1  0
 26 44  1  0
 26 45  1  0
 26 46  1  0
 27 47  1  0
 27 48  1  0
 27 49  1  0
M  ISO  8  28   8  29   8  30  14  31  14  32  14  33  14  34  14  35  14
M  ISO  8  36   3  37   8  38   8  39  14  40  14  41  14  42  14  43   8
M  ISO  6  44   8  45   8  46   8  47   8  48   8  49   8
M  END
>  <minimizedAffinity>  (1) 
-5.99477434

>  <minimizedRMSD>  (1) 
0.422467262

$$$$
