
     RDKit          3D

 43 46  0  0  0  0  0  0  0  0999 V2000
   35.2460   29.5170   40.0270 C   0  0  0  0  0  0  0  0  0  0  0  0
   35.8640   29.4240   38.6820 C   0  0  0  0  0  0  0  0  0  0  0  0
   37.1830   29.5550   38.3570 C   0  0  0  0  0  0  0  0  0  0  0  0
   37.7030   29.5380   37.1010 C   0  0  0  0  0  0  0  0  0  0  0  0
   36.8550   29.3770   36.0210 C   0  0  0  0  0  0  0  0  0  0  0  0
   35.4980   29.2360   36.2810 C   0  0  0  0  0  0  0  0  0  0  0  0
   34.7170   29.0810   35.1690 C   0  0  0  0  0  0  0  0  0  0  0  0
   33.3650   28.9290   35.3150 C   0  0  0  0  0  0  0  0  0  0  0  0
   32.8220   28.9320   36.5870 C   0  0  0  0  0  0  0  0  0  0  0  0
   33.6610   29.0920   37.6460 C   0  0  0  0  0  0  0  0  0  0  0  0
   35.0080   29.2560   37.5770 C   0  0  0  0  0  0  0  0  0  0  0  0
   33.0570   29.0690   38.8950 O   0  0  0  0  0  0  0  0  0  0  0  0
   36.1380   30.0850   41.0840 C   0  0  0  0  0  0  0  0  0  0  0  0
   38.5860   28.1370   42.6870 C   0  0  0  0  0  0  0  0  0  0  0  0
   37.4900   27.3210   42.8030 C   0  0  0  0  0  0  0  0  0  0  0  0
   36.4300   27.9950   42.1910 C   0  0  0  0  0  0  0  0  0  0  0  0
   36.9660   29.1470   41.7620 N   0  0  0  0  0  0  0  0  0  0  0  0
   38.2250   29.2660   42.0340 N   0  0  0  0  0  0  0  0  0  0  0  0
   41.4790   26.4880   44.3550 C   0  0  0  0  0  0  0  0  0  0  0  0
   40.1710   26.6930   43.9090 C   0  0  0  0  0  0  0  0  0  0  0  0
   39.9240   27.8740   43.1710 C   0  0  0  0  0  0  0  0  0  0  0  0
   40.9310   28.7450   42.9280 N   0  0  0  0  0  0  0  0  0  0  0  0
   42.1920   28.4750   43.4000 C   0  0  0  0  0  0  0  0  0  0  0  0
   42.4540   27.3650   44.0990 N   0  0  0  0  0  0  0  0  0  0  0  0
   43.3030   29.4300   43.1330 C   0  0  0  0  0  0  0  0  0  0  0  0
   34.9469   28.5051   40.3379 H   0  0  0  0  0  0  0  0  0  0  0  0
   34.3956   30.2083   39.9322 H   0  0  0  0  0  0  0  0  0  0  0  0
   37.8911   29.6865   39.1885 H   0  0  0  0  0  0  0  0  0  0  0  0
   38.7861   29.6511   36.9458 H   0  0  0  0  0  0  0  0  0  0  0  0
   37.2417   29.3611   34.9913 H   0  0  0  0  0  0  0  0  0  0  0  0
   35.1712   29.0786   34.1672 H   0  0  0  0  0  0  0  0  0  0  0  0
   32.7191   28.8062   34.4331 H   0  0  0  0  0  0  0  0  0  0  0  0
   31.7395   28.8082   36.7386 H   0  0  0  0  0  0  0  0  0  0  0  0
   33.6051   29.1793   39.7120 H   0  0  0  0  0  0  0  0  0  0  0  0
   36.7916   30.8316   40.6093 H   0  0  0  0  0  0  0  0  0  0  0  0
   35.4676   30.5018   41.8500 H   0  0  0  0  0  0  0  0  0  0  0  0
   37.4527   26.3318   43.2828 H   0  0  0  0  0  0  0  0  0  0  0  0
   35.3888   27.6564   42.0848 H   0  0  0  0  0  0  0  0  0  0  0  0
   41.7123   25.5810   44.9319 H   0  0  0  0  0  0  0  0  0  0  0  0
   39.3703   25.9694   44.1219 H   0  0  0  0  0  0  0  0  0  0  0  0
   43.7176   29.7863   44.0875 H   0  0  0  0  0  0  0  0  0  0  0  0
   44.0915   28.9234   42.5571 H   0  0  0  0  0  0  0  0  0  0  0  0
   42.9206   30.2856   42.5571 H   0  0  0  0  0  0  0  0  0  0  0  0
  1 13  1  0
  2  1  1  0
  3  2  2  0
  4  3  1  0
  5  6  1  0
  5  4  2  0
  6 11  2  0
  7  8  2  0
  7  6  1  0
  8  9  1  0
  9 10  2  0
 10 12  1  0
 11 10  1  0
 11  2  1  0
 13 17  1  0
 14 15  1  0
 14 21  1  0
 16 15  2  0
 17 18  1  0
 17 16  1  0
 18 14  2  0
 20 19  2  0
 21 20  1  0
 22 21  2  0
 22 23  1  0
 23 24  2  0
 24 19  1  0
 25 23  1  0
  1 26  1  0
  1 27  1  0
  3 28  1  0
  4 29  1  0
  5 30  1  0
  7 31  1  0
  8 32  1  0
  9 33  1  0
 12 34  1  0
 13 35  1  0
 13 36  1  0
 15 37  1  0
 16 38  1  0
 19 39  1  0
 20 40  1  0
 25 41  1  0
 25 42  1  0
 25 43  1  0
M  ISO  8  26   8  27   8  28  14  29  14  30  14  31  14  32  14  33  14
M  ISO  8  34   3  35   8  36   8  37  14  38  14  39  14  40  14  41   8
M  ISO  2  42   8  43   8
M  END
>  <minimizedAffinity>  (1) 
-5.88666677

>  <minimizedRMSD>  (1) 
0.0832245275

$$$$
