
     RDKit          3D

 46 49  0  0  0  0  0  0  0  0999 V2000
   35.2630   29.4900   40.0540 C   0  0  0  0  0  0  0  0  0  0  0  0
   35.8790   29.4110   38.7100 C   0  0  0  0  0  0  0  0  0  0  0  0
   37.2000   29.5380   38.3870 C   0  0  0  0  0  0  0  0  0  0  0  0
   37.7210   29.5260   37.1260 C   0  0  0  0  0  0  0  0  0  0  0  0
   36.8760   29.3730   36.0490 C   0  0  0  0  0  0  0  0  0  0  0  0
   35.5170   29.2370   36.3020 C   0  0  0  0  0  0  0  0  0  0  0  0
   34.7340   29.0890   35.1820 C   0  0  0  0  0  0  0  0  0  0  0  0
   33.3810   28.9420   35.3370 C   0  0  0  0  0  0  0  0  0  0  0  0
   32.8350   28.9430   36.6070 C   0  0  0  0  0  0  0  0  0  0  0  0
   33.6790   29.0950   37.6700 C   0  0  0  0  0  0  0  0  0  0  0  0
   35.0260   29.2520   37.5990 C   0  0  0  0  0  0  0  0  0  0  0  0
   33.0700   29.0700   38.9160 O   0  0  0  0  0  0  0  0  0  0  0  0
   36.1470   30.0650   41.1140 C   0  0  0  0  0  0  0  0  0  0  0  0
   38.6310   28.1610   42.7010 C   0  0  0  0  0  0  0  0  0  0  0  0
   37.5470   27.3180   42.8190 C   0  0  0  0  0  0  0  0  0  0  0  0
   36.4720   27.9740   42.2120 C   0  0  0  0  0  0  0  0  0  0  0  0
   36.9930   29.1390   41.7860 N   0  0  0  0  0  0  0  0  0  0  0  0
   38.2520   29.2830   42.0530 N   0  0  0  0  0  0  0  0  0  0  0  0
   41.5540   26.5350   44.3460 C   0  0  0  0  0  0  0  0  0  0  0  0
   40.2420   26.7250   43.9020 C   0  0  0  0  0  0  0  0  0  0  0  0
   39.9680   27.9010   43.1900 C   0  0  0  0  0  0  0  0  0  0  0  0
   40.9630   28.7980   42.9610 N   0  0  0  0  0  0  0  0  0  0  0  0
   42.2230   28.5520   43.4240 C   0  0  0  0  0  0  0  0  0  0  0  0
   42.5090   27.4340   44.1070 N   0  0  0  0  0  0  0  0  0  0  0  0
   43.3370   29.5060   43.1960 C   0  0  0  0  0  0  0  0  0  0  0  0
   42.9350   30.8930   43.6270 C   0  0  0  0  0  0  0  0  0  0  0  0
   34.9778   28.4728   40.3604 H   0  0  0  0  0  0  0  0  0  0  0  0
   34.4043   30.1714   39.9625 H   0  0  0  0  0  0  0  0  0  0  0  0
   37.9085   29.6612   39.2194 H   0  0  0  0  0  0  0  0  0  0  0  0
   38.8043   29.6373   36.9711 H   0  0  0  0  0  0  0  0  0  0  0  0
   37.2654   29.3590   35.0203 H   0  0  0  0  0  0  0  0  0  0  0  0
   35.1859   29.0886   34.1791 H   0  0  0  0  0  0  0  0  0  0  0  0
   32.7328   28.8239   34.4562 H   0  0  0  0  0  0  0  0  0  0  0  0
   31.7517   28.8248   36.7571 H   0  0  0  0  0  0  0  0  0  0  0  0
   33.6154   29.1738   39.7357 H   0  0  0  0  0  0  0  0  0  0  0  0
   36.7867   30.8261   40.6434 H   0  0  0  0  0  0  0  0  0  0  0  0
   35.4694   30.4628   41.8838 H   0  0  0  0  0  0  0  0  0  0  0  0
   37.5309   26.3268   43.2957 H   0  0  0  0  0  0  0  0  0  0  0  0
   35.4363   27.6187   42.1067 H   0  0  0  0  0  0  0  0  0  0  0  0
   41.8043   25.6219   44.9060 H   0  0  0  0  0  0  0  0  0  0  0  0
   39.4565   25.9817   44.1032 H   0  0  0  0  0  0  0  0  0  0  0  0
   44.2140   29.1853   43.7774 H   0  0  0  0  0  0  0  0  0  0  0  0
   43.5807   29.5214   42.1235 H   0  0  0  0  0  0  0  0  0  0  0  0
   42.9198   30.9456   44.7256 H   0  0  0  0  0  0  0  0  0  0  0  0
   43.6586   31.6229   43.2350 H   0  0  0  0  0  0  0  0  0  0  0  0
   41.9333   31.1229   43.2350 H   0  0  0  0  0  0  0  0  0  0  0  0
  1 13  1  0
  2  1  1  0
  3  2  2  0
  4  3  1  0
  5  6  1  0
  5  4  2  0
  6 11  2  0
  7  8  2  0
  7  6  1  0
  8  9  1  0
  9 10  2  0
 10 12  1  0
 11 10  1  0
 11  2  1  0
 13 17  1  0
 14 15  1  0
 14 21  1  0
 16 15  2  0
 17 18  1  0
 17 16  1  0
 18 14  2  0
 20 19  2  0
 21 20  1  0
 22 21  2  0
 22 23  1  0
 23 24  2  0
 24 19  1  0
 25 23  1  0
 25 26  1  0
  1 27  1  0
  1 28  1  0
  3 29  1  0
  4 30  1  0
  5 31  1  0
  7 32  1  0
  8 33  1  0
  9 34  1  0
 12 35  1  0
 13 36  1  0
 13 37  1  0
 15 38  1  0
 16 39  1  0
 19 40  1  0
 20 41  1  0
 25 42  1  0
 25 43  1  0
 26 44  1  0
 26 45  1  0
 26 46  1  0
M  ISO  8  27   8  28   8  29  14  30  14  31  14  32  14  33  14  34  14
M  ISO  8  35   3  36   8  37   8  38  14  39  14  40  14  41  14  42   8
M  ISO  4  43   8  44   8  45   8  46   8
M  END
>  <minimizedAffinity>  (1) 
-5.85437965

>  <minimizedRMSD>  (1) 
0.594210148

$$$$
