
     RDKit          3D

 42 45  0  0  0  0  0  0  0  0999 V2000
   35.2530   29.5330   40.0350 C   0  0  0  0  0  0  0  0  0  0  0  0
   35.8710   29.4360   38.6910 C   0  0  0  0  0  0  0  0  0  0  0  0
   37.1870   29.5710   38.3640 C   0  0  0  0  0  0  0  0  0  0  0  0
   37.7100   29.5510   37.1090 C   0  0  0  0  0  0  0  0  0  0  0  0
   36.8600   29.3820   36.0310 C   0  0  0  0  0  0  0  0  0  0  0  0
   35.5040   29.2370   36.2940 C   0  0  0  0  0  0  0  0  0  0  0  0
   34.7220   29.0740   35.1820 C   0  0  0  0  0  0  0  0  0  0  0  0
   33.3730   28.9170   35.3260 C   0  0  0  0  0  0  0  0  0  0  0  0
   32.8290   28.9250   36.6060 C   0  0  0  0  0  0  0  0  0  0  0  0
   33.6710   29.0920   37.6610 C   0  0  0  0  0  0  0  0  0  0  0  0
   35.0170   29.2600   37.5880 C   0  0  0  0  0  0  0  0  0  0  0  0
   33.0620   29.0740   38.9050 O   0  0  0  0  0  0  0  0  0  0  0  0
   36.1530   30.0980   41.0920 C   0  0  0  0  0  0  0  0  0  0  0  0
   38.5890   28.1380   42.6910 C   0  0  0  0  0  0  0  0  0  0  0  0
   37.4900   27.3230   42.8000 C   0  0  0  0  0  0  0  0  0  0  0  0
   36.4310   27.9990   42.1890 C   0  0  0  0  0  0  0  0  0  0  0  0
   36.9690   29.1470   41.7690 N   0  0  0  0  0  0  0  0  0  0  0  0
   38.2270   29.2640   42.0430 N   0  0  0  0  0  0  0  0  0  0  0  0
   41.4760   26.4570   44.3390 C   0  0  0  0  0  0  0  0  0  0  0  0
   40.1670   26.6740   43.8930 C   0  0  0  0  0  0  0  0  0  0  0  0
   39.9210   27.8580   43.1800 C   0  0  0  0  0  0  0  0  0  0  0  0
   40.9370   28.7340   42.9540 N   0  0  0  0  0  0  0  0  0  0  0  0
   42.1920   28.4610   43.4180 C   0  0  0  0  0  0  0  0  0  0  0  0
   42.4500   27.3370   44.1000 N   0  0  0  0  0  0  0  0  0  0  0  0
   43.2180   29.4500   43.1320 C   0  0  0  0  0  0  0  0  0  0  0  0
   43.3660   30.4130   43.9290 O   0  0  0  0  0  0  0  0  0  0  0  0
   34.9480   28.5232   40.3469 H   0  0  0  0  0  0  0  0  0  0  0  0
   34.4053   30.2277   39.9409 H   0  0  0  0  0  0  0  0  0  0  0  0
   37.8941   29.7095   39.1951 H   0  0  0  0  0  0  0  0  0  0  0  0
   38.7927   29.6675   36.9534 H   0  0  0  0  0  0  0  0  0  0  0  0
   37.2448   29.3631   35.0007 H   0  0  0  0  0  0  0  0  0  0  0  0
   35.1767   29.0695   34.1804 H   0  0  0  0  0  0  0  0  0  0  0  0
   32.7278   28.7865   34.4447 H   0  0  0  0  0  0  0  0  0  0  0  0
   31.7472   28.7997   36.7609 H   0  0  0  0  0  0  0  0  0  0  0  0
   33.6060   29.1889   39.7241 H   0  0  0  0  0  0  0  0  0  0  0  0
   36.8152   30.8359   40.6155 H   0  0  0  0  0  0  0  0  0  0  0  0
   35.4904   30.5292   41.8568 H   0  0  0  0  0  0  0  0  0  0  0  0
   37.4507   26.3318   43.2753 H   0  0  0  0  0  0  0  0  0  0  0  0
   35.3897   27.6620   42.0788 H   0  0  0  0  0  0  0  0  0  0  0  0
   41.7071   25.5393   44.8998 H   0  0  0  0  0  0  0  0  0  0  0  0
   39.3653   25.9478   44.0927 H   0  0  0  0  0  0  0  0  0  0  0  0
   43.8520   29.3588   42.2377 H   0  0  0  0  0  0  0  0  0  0  0  0
  1 13  1  0
  2  1  1  0
  3  2  2  0
  4  3  1  0
  5  6  1  0
  5  4  2  0
  6 11  2  0
  7  8  2  0
  7  6  1  0
  8  9  1  0
  9 10  2  0
 10 12  1  0
 11 10  1  0
 11  2  1  0
 13 17  1  0
 14 15  1  0
 14 21  1  0
 16 15  2  0
 17 18  1  0
 17 16  1  0
 18 14  2  0
 20 19  2  0
 21 20  1  0
 22 21  2  0
 22 23  1  0
 23 24  2  0
 24 19  1  0
 25 23  1  0
 25 26  2  0
  1 27  1  0
  1 28  1  0
  3 29  1  0
  4 30  1  0
  5 31  1  0
  7 32  1  0
  8 33  1  0
  9 34  1  0
 12 35  1  0
 13 36  1  0
 13 37  1  0
 15 38  1  0
 16 39  1  0
 19 40  1  0
 20 41  1  0
 25 42  1  0
M  ISO  8  27   8  28   8  29  14  30  14  31  14  32  14  33  14  34  14
M  ISO  8  35   3  36   8  37   8  38  14  39  14  40  14  41  14  42   6
M  END
>  <minimizedAffinity>  (1) 
-5.71131516

>  <minimizedRMSD>  (1) 
0.201533183

$$$$
