
     RDKit          3D

 44 47  0  0  1  0  0  0  0  0999 V2000
   36.4770   23.0890   39.6970 N   0  0  0  0  0  0  0  0  0  0  0  0
   35.3810   23.6020   38.8300 C   0  0  0  0  0  0  0  0  0  0  0  0
   34.2990   22.6120   39.2310 C   0  0  0  0  0  0  0  0  0  0  0  0
   35.0940   21.3300   38.9210 C   0  0  0  0  0  0  0  0  0  0  0  0
   36.5020   21.7870   39.1060 C   0  0  2  0  0  0  0  0  0  0  0  0
   37.8510   25.5530   41.8570 C   0  0  0  0  0  0  0  0  0  0  0  0
   37.0640   25.2050   40.7340 C   0  0  0  0  0  0  0  0  0  0  0  0
   37.1500   23.8130   40.7110 C   0  0  0  0  0  0  0  0  0  0  0  0
   37.9060   23.3760   41.7110 N   0  0  0  0  0  0  0  0  0  0  0  0
   38.3200   24.4250   42.3900 N   0  0  0  0  0  0  0  0  0  0  0  0
   39.3130   27.3950   42.7080 C   0  0  0  0  0  0  0  0  0  0  0  0
   38.0420   26.9420   42.2540 C   0  0  0  0  0  0  0  0  0  0  0  0
   36.9900   27.8190   42.1860 C   0  0  0  0  0  0  0  0  0  0  0  0
   37.1890   29.1240   42.5620 N   0  0  0  0  0  0  0  0  0  0  0  0
   38.4120   29.5380   42.9940 C   0  0  0  0  0  0  0  0  0  0  0  0
   39.4730   28.6780   43.0690 N   0  0  0  0  0  0  0  0  0  0  0  0
   37.3540   20.8120   39.7190 N   0  0  0  0  0  0  0  0  0  0  0  0
   38.5880   20.8000   38.8940 C   0  0  0  0  0  0  0  0  0  0  0  0
   39.4370   19.6120   39.2670 C   0  0  0  0  0  0  0  0  0  0  0  0
   39.0350   19.1010   40.6350 C   0  0  0  0  0  0  0  0  0  0  0  0
   37.5770   18.6250   40.5840 C   0  0  0  0  0  0  0  0  0  0  0  0
   36.8520   19.4510   39.5450 C   0  0  0  0  0  0  0  0  0  0  0  0
   35.6308   23.5333   37.7610 H   0  0  0  0  0  0  0  0  0  0  0  0
   35.1281   24.6651   38.9563 H   0  0  0  0  0  0  0  0  0  0  0  0
   34.0279   22.6925   40.2940 H   0  0  0  0  0  0  0  0  0  0  0  0
   33.3241   22.7195   38.7330 H   0  0  0  0  0  0  0  0  0  0  0  0
   34.9165   20.9888   37.8904 H   0  0  0  0  0  0  0  0  0  0  0  0
   34.8187   20.4731   39.5534 H   0  0  0  0  0  0  0  0  0  0  0  0
   37.0004   21.8910   38.1309 H   0  0  0  0  0  0  0  0  0  0  0  0
   36.5183   25.8691   40.0476 H   0  0  0  0  0  0  0  0  0  0  0  0
   38.1288   22.3920   41.9185 H   0  0  0  0  0  0  0  0  0  0  0  0
   40.1608   26.6963   42.7628 H   0  0  0  0  0  0  0  0  0  0  0  0
   36.0031   27.4823   41.8359 H   0  0  0  0  0  0  0  0  0  0  0  0
   38.5500   30.5885   43.2896 H   0  0  0  0  0  0  0  0  0  0  0  0
   39.1557   21.7253   39.0717 H   0  0  0  0  0  0  0  0  0  0  0  0
   38.3146   20.7328   37.8306 H   0  0  0  0  0  0  0  0  0  0  0  0
   39.2949   18.8141   38.5232 H   0  0  0  0  0  0  0  0  0  0  0  0
   40.4942   19.9149   39.2896 H   0  0  0  0  0  0  0  0  0  0  0  0
   39.6866   18.2623   40.9211 H   0  0  0  0  0  0  0  0  0  0  0  0
   39.1362   19.9072   41.3765 H   0  0  0  0  0  0  0  0  0  0  0  0
   37.5411   17.5611   40.3067 H   0  0  0  0  0  0  0  0  0  0  0  0
   37.1010   18.7454   41.5683 H   0  0  0  0  0  0  0  0  0  0  0  0
   35.7656   19.4161   39.7138 H   0  0  0  0  0  0  0  0  0  0  0  0
   37.0269   19.0755   38.5260 H   0  0  0  0  0  0  0  0  0  0  0  0
  1  8  1  0
  2  3  1  0
  2  1  1  0
  4  5  1  0
  4  3  1  0
  5  1  1  0
  5 17  1  0
  6 12  1  0
  6 10  2  0
  7  6  1  0
  8  7  2  0
  8  9  1  0
  9 10  1  0
 11 16  2  0
 12 11  1  0
 13 12  2  0
 13 14  1  0
 14 15  2  0
 15 16  1  0
 18 19  1  0
 18 17  1  0
 19 20  1  0
 21 20  1  0
 22 17  1  0
 22 21  1  0
  2 23  1  0
  2 24  1  0
  3 25  1  0
  3 26  1  0
  4 27  1  0
  4 28  1  0
  5 29  1  6
  7 30  1  0
  9 31  1  0
 11 32  1  0
 13 33  1  0
 15 34  1  0
 18 35  1  0
 18 36  1  0
 19 37  1  0
 19 38  1  0
 20 39  1  0
 20 40  1  0
 21 41  1  0
 21 42  1  0
 22 43  1  0
 22 44  1  0
M  ISO  8  23  13  24  13  25  13  26  13  27  13  28  13  29  13  30  14
M  ISO  8  31   9  32  14  33  14  34  14  35  13  36  13  37  13  38  13
M  ISO  6  39  13  40  13  41  13  42  13  43  13  44  13
M  END
>  <minimizedAffinity>  (1) 
-4.87754202

>  <minimizedRMSD>  (1) 
2.73971343

$$$$
