
     RDKit          3D

 42 45  0  0  1  0  0  0  0  0999 V2000
   37.8900   27.3050   41.8910 N   0  0  0  0  0  0  0  0  0  0  0  0
   38.3890   27.0080   43.2480 C   0  0  0  0  0  0  0  0  0  0  0  0
   37.4340   27.8950   44.0420 C   0  0  0  0  0  0  0  0  0  0  0  0
   37.7020   29.1980   43.2990 C   0  0  0  0  0  0  0  0  0  0  0  0
   38.2170   28.7080   41.9600 C   0  0  2  0  0  0  0  0  0  0  0  0
   36.8790   24.4590   40.0320 C   0  0  0  0  0  0  0  0  0  0  0  0
   37.5800   25.0430   41.0960 C   0  0  0  0  0  0  0  0  0  0  0  0
   37.3130   26.4050   40.9550 C   0  0  0  0  0  0  0  0  0  0  0  0
   36.5250   26.6300   39.9070 N   0  0  0  0  0  0  0  0  0  0  0  0
   36.2720   25.4460   39.3610 N   0  0  0  0  0  0  0  0  0  0  0  0
   35.8390   22.4060   39.0680 C   0  0  0  0  0  0  0  0  0  0  0  0
   36.8710   23.0300   39.7850 C   0  0  0  0  0  0  0  0  0  0  0  0
   37.9130   22.2630   40.2720 C   0  0  0  0  0  0  0  0  0  0  0  0
   37.9170   20.9100   40.0450 N   0  0  0  0  0  0  0  0  0  0  0  0
   36.8920   20.3340   39.3400 C   0  0  0  0  0  0  0  0  0  0  0  0
   35.8550   21.0800   38.8520 N   0  0  0  0  0  0  0  0  0  0  0  0
   37.5930   29.3440   40.8250 N   0  0  0  0  0  0  0  0  0  0  0  0
   36.8200   30.5220   41.2200 C   0  0  0  0  0  0  0  0  0  0  0  0
   36.6590   31.3030   39.9070 C   0  0  0  0  0  0  0  0  0  0  0  0
   36.5670   30.4200   38.8320 O   0  0  0  0  0  0  0  0  0  0  0  0
   37.8990   30.0220   38.5470 C   0  0  0  0  0  0  0  0  0  0  0  0
   38.5930   29.7710   39.8480 C   0  0  0  0  0  0  0  0  0  0  0  0
   38.2779   25.9446   43.5065 H   0  0  0  0  0  0  0  0  0  0  0  0
   39.4606   27.1935   43.4132 H   0  0  0  0  0  0  0  0  0  0  0  0
   36.3873   27.5693   43.9506 H   0  0  0  0  0  0  0  0  0  0  0  0
   37.5837   27.9171   45.1315 H   0  0  0  0  0  0  0  0  0  0  0  0
   36.7796   29.7854   43.1800 H   0  0  0  0  0  0  0  0  0  0  0  0
   38.4020   29.8665   43.8217 H   0  0  0  0  0  0  0  0  0  0  0  0
   39.2925   28.9328   41.9074 H   0  0  0  0  0  0  0  0  0  0  0  0
   38.1947   24.5455   41.8606 H   0  0  0  0  0  0  0  0  0  0  0  0
   36.1787   27.5441   39.5824 H   0  0  0  0  0  0  0  0  0  0  0  0
   35.0065   23.0099   38.6779 H   0  0  0  0  0  0  0  0  0  0  0  0
   38.7316   22.7334   40.8365 H   0  0  0  0  0  0  0  0  0  0  0  0
   36.9040   19.2484   39.1631 H   0  0  0  0  0  0  0  0  0  0  0  0
   35.8403   30.2310   41.6269 H   0  0  0  0  0  0  0  0  0  0  0  0
   37.3093   31.1098   42.0106 H   0  0  0  0  0  0  0  0  0  0  0  0
   35.7447   31.9127   39.9562 H   0  0  0  0  0  0  0  0  0  0  0  0
   37.5352   31.9527   39.7650 H   0  0  0  0  0  0  0  0  0  0  0  0
   37.8931   29.1025   37.9432 H   0  0  0  0  0  0  0  0  0  0  0  0
   38.4203   30.8075   37.9803 H   0  0  0  0  0  0  0  0  0  0  0  0
   39.3492   28.9824   39.7204 H   0  0  0  0  0  0  0  0  0  0  0  0
   39.0945   30.6870   40.1936 H   0  0  0  0  0  0  0  0  0  0  0  0
  1  5  1  0
  1  2  1  0
  2  3  1  0
  4  3  1  0
  5  4  1  0
  6  7  1  0
  8  7  2  0
  8  1  1  0
  9  8  1  0
 10  9  1  0
 10  6  2  0
 11 12  2  0
 12  6  1  0
 12 13  1  0
 14 13  2  0
 15 14  1  0
 16 11  1  0
 16 15  2  0
 17 18  1  0
 17  5  1  0
 19 18  1  0
 20 19  1  0
 21 20  1  0
 21 22  1  0
 22 17  1  0
  2 23  1  0
  2 24  1  0
  3 25  1  0
  3 26  1  0
  4 27  1  0
  4 28  1  0
  5 29  1  1
  7 30  1  0
  9 31  1  0
 11 32  1  0
 13 33  1  0
 15 34  1  0
 18 35  1  0
 18 36  1  0
 19 37  1  0
 19 38  1  0
 21 39  1  0
 21 40  1  0
 22 41  1  0
 22 42  1  0
M  ISO  8  23  13  24  13  25  13  26  13  27  13  28  13  29  13  30  14
M  ISO  8  31   9  32  14  33  14  34  14  35  13  36  13  37  13  38  13
M  ISO  4  39  13  40  13  41  13  42  13
M  END
>  <minimizedAffinity>  (1) 
-4.87221003

>  <minimizedRMSD>  (1) 
7.3620348

$$$$
