
     RDKit          3D

 39 42  0  0  1  0  0  0  0  0999 V2000
   36.3280   27.6060   39.3700 N   0  0  0  0  0  0  0  0  0  0  0  0
   35.3500   28.0030   38.3380 C   0  0  0  0  0  0  0  0  0  0  0  0
   35.7050   29.4850   38.2530 C   0  0  0  0  0  0  0  0  0  0  0  0
   35.6010   29.8330   39.7500 C   0  0  0  0  0  0  0  0  0  0  0  0
   35.7760   28.4730   40.3780 C   0  0  2  0  0  0  0  0  0  0  0  0
   36.4850   28.4790   41.6550 C   0  0  0  0  0  0  0  0  0  0  0  0
   36.0970   27.5250   42.5740 C   0  0  0  0  0  0  0  0  0  0  0  0
   36.7140   27.4550   43.8110 C   0  0  0  0  0  0  0  0  0  0  0  0
   37.7420   28.3300   44.1840 C   0  0  0  0  0  0  0  0  0  0  0  0
   38.1110   29.2740   43.2470 C   0  0  0  0  0  0  0  0  0  0  0  0
   37.4930   29.3340   42.0240 C   0  0  0  0  0  0  0  0  0  0  0  0
   38.3560   24.6910   39.1960 C   0  0  0  0  0  0  0  0  0  0  0  0
   37.0980   25.3140   39.3850 C   0  0  0  0  0  0  0  0  0  0  0  0
   37.3920   26.6680   39.2380 C   0  0  0  0  0  0  0  0  0  0  0  0
   38.6840   26.8440   38.9890 N   0  0  0  0  0  0  0  0  0  0  0  0
   39.2440   25.6480   38.9670 N   0  0  0  0  0  0  0  0  0  0  0  0
   39.4050   22.5550   38.4300 C   0  0  0  0  0  0  0  0  0  0  0  0
   38.5050   23.2370   39.2680 C   0  0  0  0  0  0  0  0  0  0  0  0
   37.7450   22.5300   40.1790 C   0  0  0  0  0  0  0  0  0  0  0  0
   37.8910   21.1620   40.2420 N   0  0  0  0  0  0  0  0  0  0  0  0
   38.7700   20.5360   39.4170 C   0  0  0  0  0  0  0  0  0  0  0  0
   39.5200   21.2130   38.5200 N   0  0  0  0  0  0  0  0  0  0  0  0
   35.5177   27.4807   37.3845 H   0  0  0  0  0  0  0  0  0  0  0  0
   34.2976   27.7747   38.5624 H   0  0  0  0  0  0  0  0  0  0  0  0
   36.7197   29.6459   37.8599 H   0  0  0  0  0  0  0  0  0  0  0  0
   35.0788   30.0875   37.5786 H   0  0  0  0  0  0  0  0  0  0  0  0
   36.3975   30.5257   40.0594 H   0  0  0  0  0  0  0  0  0  0  0  0
   34.6687   30.3444   40.0316 H   0  0  0  0  0  0  0  0  0  0  0  0
   34.7985   28.0788   40.6926 H   0  0  0  0  0  0  0  0  0  0  0  0
   35.2937   26.8170   42.3221 H   0  0  0  0  0  0  0  0  0  0  0  0
   36.3857   26.6858   44.5256 H   0  0  0  0  0  0  0  0  0  0  0  0
   38.2282   28.2684   45.1688 H   0  0  0  0  0  0  0  0  0  0  0  0
   38.9126   29.9888   43.4847 H   0  0  0  0  0  0  0  0  0  0  0  0
   37.8199   30.1016   41.3071 H   0  0  0  0  0  0  0  0  0  0  0  0
   36.1263   24.8437   39.5962 H   0  0  0  0  0  0  0  0  0  0  0  0
   39.1607   27.7449   38.8407 H   0  0  0  0  0  0  0  0  0  0  0  0
   40.0135   23.1133   37.7033 H   0  0  0  0  0  0  0  0  0  0  0  0
   37.0369   23.0494   40.8414 H   0  0  0  0  0  0  0  0  0  0  0  0
   38.8745   19.4429   39.4813 H   0  0  0  0  0  0  0  0  0  0  0  0
  1  5  1  0
  2  1  1  0
  3  2  1  0
  3  4  1  0
  4  5  1  0
  5  6  1  0
  6 11  1  0
  6  7  2  0
  7  8  1  0
  8  9  2  0
 10  9  1  0
 11 10  2  0
 12 18  1  0
 12 13  1  0
 14  1  1  0
 14 13  2  0
 15 14  1  0
 16 15  1  0
 16 12  2  0
 17 22  2  0
 17 18  1  0
 18 19  2  0
 19 20  1  0
 21 20  2  0
 22 21  1  0
  2 23  1  0
  2 24  1  0
  3 25  1  0
  3 26  1  0
  4 27  1  0
  4 28  1  0
  5 29  1  1
  7 30  1  0
  8 31  1  0
  9 32  1  0
 10 33  1  0
 11 34  1  0
 13 35  1  0
 15 36  1  0
 17 37  1  0
 19 38  1  0
 21 39  1  0
M  ISO  8  23  13  24  13  25  13  26  13  27  13  28  13  29  13  30  14
M  ISO  8  31  14  32  14  33  14  34  14  35  14  36   9  37  14  38  14
M  ISO  1  39  14
M  END
>  <minimizedAffinity>  (1) 
-4.77836227

>  <minimizedRMSD>  (1) 
6.80013609

$$$$
