
     RDKit          3D

 42 45  0  0  1  0  0  0  0  0999 V2000
   35.9600   23.9700   38.7760 N   0  0  0  0  0  0  0  0  0  0  0  0
   34.9990   24.6070   37.8760 C   0  0  0  0  0  0  0  0  0  0  0  0
   33.9190   23.5330   37.8840 C   0  0  0  0  0  0  0  0  0  0  0  0
   34.8050   22.3190   37.5160 C   0  0  0  0  0  0  0  0  0  0  0  0
   36.1650   22.8090   37.9110 C   0  0  2  0  0  0  0  0  0  0  0  0
   37.0440   21.8280   38.4530 N   0  0  0  0  0  0  0  0  0  0  0  0
   36.8210   20.8110   39.3020 C   0  0  0  0  0  0  0  0  0  0  0  0
   37.8210   19.9560   39.7160 C   0  0  0  0  0  0  0  0  0  0  0  0
   37.4630   18.8800   40.6440 C   0  0  0  0  0  0  0  0  0  0  0  0
   39.1080   20.1310   39.2530 C   0  0  0  0  0  0  0  0  0  0  0  0
   40.0310   19.3620   39.6180 O   0  0  0  0  0  0  0  0  0  0  0  0
   39.3090   21.1560   38.4030 N   0  0  0  0  0  0  0  0  0  0  0  0
   38.3080   21.9950   38.0020 C   0  0  0  0  0  0  0  0  0  0  0  0
   38.7230   22.8770   37.2100 O   0  0  0  0  0  0  0  0  0  0  0  0
   37.2170   25.8930   41.4740 C   0  0  0  0  0  0  0  0  0  0  0  0
   36.7970   25.7710   40.1420 C   0  0  0  0  0  0  0  0  0  0  0  0
   36.4390   24.4340   40.0270 C   0  0  0  0  0  0  0  0  0  0  0  0
   36.6280   23.8080   41.1840 N   0  0  0  0  0  0  0  0  0  0  0  0
   37.0930   24.6910   42.0440 N   0  0  0  0  0  0  0  0  0  0  0  0
   38.9740   27.2510   42.6270 C   0  0  0  0  0  0  0  0  0  0  0  0
   37.6870   27.1580   42.0280 C   0  0  0  0  0  0  0  0  0  0  0  0
   36.8730   28.2620   41.9690 C   0  0  0  0  0  0  0  0  0  0  0  0
   37.3360   29.4450   42.4990 N   0  0  0  0  0  0  0  0  0  0  0  0
   38.5810   29.5150   43.0710 C   0  0  0  0  0  0  0  0  0  0  0  0
   39.3930   28.4250   43.1340 N   0  0  0  0  0  0  0  0  0  0  0  0
   35.4168   24.7646   36.8707 H   0  0  0  0  0  0  0  0  0  0  0  0
   34.6682   25.6135   38.1720 H   0  0  0  0  0  0  0  0  0  0  0  0
   33.4522   23.4212   38.8737 H   0  0  0  0  0  0  0  0  0  0  0  0
   33.0578   23.7149   37.2243 H   0  0  0  0  0  0  0  0  0  0  0  0
   34.5185   21.4245   38.0886 H   0  0  0  0  0  0  0  0  0  0  0  0
   34.7282   22.0114   36.4627 H   0  0  0  0  0  0  0  0  0  0  0  0
   36.7169   23.0932   37.0029 H   0  0  0  0  0  0  0  0  0  0  0  0
   35.8007   20.6540   39.6819 H   0  0  0  0  0  0  0  0  0  0  0  0
   37.5808   19.2340   41.6788 H   0  0  0  0  0  0  0  0  0  0  0  0
   36.4175   18.5827   40.4749 H   0  0  0  0  0  0  0  0  0  0  0  0
   38.1220   18.0156   40.4749 H   0  0  0  0  0  0  0  0  0  0  0  0
   40.2594   21.3145   38.0391 H   0  0  0  0  0  0  0  0  0  0  0  0
   36.7597   26.5521   39.3684 H   0  0  0  0  0  0  0  0  0  0  0  0
   36.4442   22.8125   41.3740 H   0  0  0  0  0  0  0  0  0  0  0  0
   39.6249   26.3656   42.6756 H   0  0  0  0  0  0  0  0  0  0  0  0
   35.8753   28.2026   41.5095 H   0  0  0  0  0  0  0  0  0  0  0  0
   38.9299   30.4716   43.4871 H   0  0  0  0  0  0  0  0  0  0  0  0
  1 17  1  0
  2  3  1  0
  2  1  1  0
  4  3  1  0
  4  5  1  0
  5  6  1  0
  5  1  1  0
  6  7  1  0
  7  8  2  0
  8  9  1  0
 10 11  2  0
 10  8  1  0
 12 10  1  0
 13 12  1  0
 13  6  1  0
 14 13  2  0
 15 21  1  0
 15 19  2  0
 16 15  1  0
 17 16  2  0
 17 18  1  0
 18 19  1  0
 20 25  2  0
 21 20  1  0
 22 21  2  0
 22 23  1  0
 23 24  2  0
 24 25  1  0
  2 26  1  0
  2 27  1  0
  3 28  1  0
  3 29  1  0
  4 30  1  0
  4 31  1  0
  5 32  1  6
  7 33  1  0
  9 34  1  0
  9 35  1  0
  9 36  1  0
 12 37  1  0
 16 38  1  0
 18 39  1  0
 20 40  1  0
 22 41  1  0
 24 42  1  0
M  ISO  8  26  13  27  13  28  13  29  13  30  13  31  13  32  13  33  14
M  ISO  8  34   8  35   8  36   8  37   9  38  14  39   9  40  14  41  14
M  ISO  1  42  14
M  END
>  <minimizedAffinity>  (1) 
-4.52116632

>  <minimizedRMSD>  (1) 
3.41868472

$$$$
