
     RDKit          3D

 45 48  0  0  1  0  0  0  0  0999 V2000
   36.9890   23.5210   39.7990 N   0  0  0  0  0  0  0  0  0  0  0  0
   36.4760   23.5010   38.4150 C   0  0  0  0  0  0  0  0  0  0  0  0
   35.4300   22.4070   38.5970 C   0  0  0  0  0  0  0  0  0  0  0  0
   36.3750   21.3380   39.1650 C   0  0  0  0  0  0  0  0  0  0  0  0
   37.4080   22.1420   39.8430 C   0  0  1  0  0  0  0  0  0  0  0  0
   36.8750   26.7330   41.3270 C   0  0  0  0  0  0  0  0  0  0  0  0
   36.8150   25.9160   40.1720 C   0  0  0  0  0  0  0  0  0  0  0  0
   36.9890   24.6440   40.6730 C   0  0  0  0  0  0  0  0  0  0  0  0
   37.1400   24.6750   42.0140 N   0  0  0  0  0  0  0  0  0  0  0  0
   37.0670   25.9450   42.3750 N   0  0  0  0  0  0  0  0  0  0  0  0
   37.6970   29.0490   41.7960 C   0  0  0  0  0  0  0  0  0  0  0  0
   36.7330   28.1860   41.2320 C   0  0  0  0  0  0  0  0  0  0  0  0
   35.6310   28.7160   40.5760 C   0  0  0  0  0  0  0  0  0  0  0  0
   35.5150   30.0850   40.4960 N   0  0  0  0  0  0  0  0  0  0  0  0
   36.4580   30.8840   41.0480 C   0  0  0  0  0  0  0  0  0  0  0  0
   37.5520   30.3830   41.6990 N   0  0  0  0  0  0  0  0  0  0  0  0
   38.8150   22.0270   39.3620 C   0  0  0  0  0  0  0  0  0  0  0  0
   38.9270   20.7140   38.6040 C   0  0  0  0  0  0  0  0  0  0  0  0
   39.3870   20.9100   37.1810 C   0  0  0  0  0  0  0  0  0  0  0  0
   40.7600   21.5370   37.1780 C   0  0  0  0  0  0  0  0  0  0  0  0
   40.6950   22.7690   38.0430 C   0  0  0  0  0  0  0  0  0  0  0  0
   39.2610   23.1000   38.4360 C   0  0  0  0  0  0  0  0  0  0  0  0
   37.2511   23.2204   37.6866 H   0  0  0  0  0  0  0  0  0  0  0  0
   36.1100   24.4602   38.0202 H   0  0  0  0  0  0  0  0  0  0  0  0
   34.6415   22.6928   39.3087 H   0  0  0  0  0  0  0  0  0  0  0  0
   34.8493   22.1276   37.7055 H   0  0  0  0  0  0  0  0  0  0  0  0
   35.8509   20.6841   39.8775 H   0  0  0  0  0  0  0  0  0  0  0  0
   36.7822   20.6643   38.3967 H   0  0  0  0  0  0  0  0  0  0  0  0
   37.4679   21.7247   40.8590 H   0  0  0  0  0  0  0  0  0  0  0  0
   36.6655   26.2228   39.1263 H   0  0  0  0  0  0  0  0  0  0  0  0
   37.2841   23.8663   42.6355 H   0  0  0  0  0  0  0  0  0  0  0  0
   38.5702   28.6292   42.3169 H   0  0  0  0  0  0  0  0  0  0  0  0
   34.8695   28.0586   40.1312 H   0  0  0  0  0  0  0  0  0  0  0  0
   36.3405   31.9749   40.9704 H   0  0  0  0  0  0  0  0  0  0  0  0
   39.4520   22.0991   40.2559 H   0  0  0  0  0  0  0  0  0  0  0  0
   39.6494   20.0668   39.1230 H   0  0  0  0  0  0  0  0  0  0  0  0
   37.9267   20.2574   38.5736 H   0  0  0  0  0  0  0  0  0  0  0  0
   39.4275   19.9361   36.6713 H   0  0  0  0  0  0  0  0  0  0  0  0
   38.6814   21.5699   36.6551 H   0  0  0  0  0  0  0  0  0  0  0  0
   41.4971   20.8297   37.5859 H   0  0  0  0  0  0  0  0  0  0  0  0
   41.0657   21.7973   36.1539 H   0  0  0  0  0  0  0  0  0  0  0  0
   41.2850   22.5968   38.9553 H   0  0  0  0  0  0  0  0  0  0  0  0
   41.0998   23.6156   37.4690 H   0  0  0  0  0  0  0  0  0  0  0  0
   39.2217   24.0768   38.9403 H   0  0  0  0  0  0  0  0  0  0  0  0
   38.6103   23.1553   37.5508 H   0  0  0  0  0  0  0  0  0  0  0  0
  1  5  1  0
  1  8  1  0
  2  3  1  0
  2  1  1  0
  3  4  1  0
  4  5  1  0
  6 10  2  0
  7  8  2  0
  7  6  1  0
  8  9  1  0
  9 10  1  0
 12  6  1  0
 12 11  2  0
 13 12  1  0
 14 13  2  0
 14 15  1  0
 15 16  2  0
 16 11  1  0
 17  5  1  0
 18 17  1  0
 19 18  1  0
 20 19  1  0
 20 21  1  0
 21 22  1  0
 22 17  1  0
  2 23  1  0
  2 24  1  0
  3 25  1  0
  3 26  1  0
  4 27  1  0
  4 28  1  0
  5 29  1  1
  7 30  1  0
  9 31  1  0
 11 32  1  0
 13 33  1  0
 15 34  1  0
 17 35  1  0
 18 36  1  0
 18 37  1  0
 19 38  1  0
 19 39  1  0
 20 40  1  0
 20 41  1  0
 21 42  1  0
 21 43  1  0
 22 44  1  0
 22 45  1  0
M  ISO  8  23  13  24  13  25  13  26  13  27  13  28  13  29  13  30  14
M  ISO  8  31   9  32  14  33  14  34  14  35  13  36  13  37  13  38  13
M  ISO  7  39  13  40  13  41  13  42  13  43  13  44  13  45  13
M  END
>  <minimizedAffinity>  (1) 
-4.31388521

>  <minimizedRMSD>  (1) 
0.980169594

$$$$
