
     RDKit          3D

 41 43  0  0  1  0  0  0  0  0999 V2000
   36.9030   26.7360   41.1950 C   0  0  0  0  0  0  0  0  0  0  0  0
   36.6030   26.0270   40.0080 C   0  0  0  0  0  0  0  0  0  0  0  0
   36.6890   24.7120   40.3940 C   0  0  0  0  0  0  0  0  0  0  0  0
   37.0150   24.6150   41.7000 N   0  0  0  0  0  0  0  0  0  0  0  0
   37.1370   25.8460   42.1600 N   0  0  0  0  0  0  0  0  0  0  0  0
   36.4480   23.6690   39.4610 N   0  0  0  0  0  0  0  0  0  0  0  0
   35.8460   23.7990   38.1470 C   0  0  0  0  0  0  0  0  0  0  0  0
   34.6560   22.8600   38.3430 C   0  0  0  0  0  0  0  0  0  0  0  0
   35.5030   21.6320   38.7280 C   0  0  0  0  0  0  0  0  0  0  0  0
   36.6610   22.2500   39.4240 C   0  0  1  0  0  0  0  0  0  0  0  0
   38.0150   21.8010   39.0670 C   0  0  0  0  0  0  0  0  0  0  0  0
   38.4390   20.7880   40.1410 C   0  0  0  0  0  0  0  0  0  0  0  0
   37.9720   21.0220   37.7780 C   0  0  0  0  0  0  0  0  0  0  0  0
   39.0940   22.8090   38.9610 C   0  0  0  0  0  0  0  0  0  0  0  0
   38.0290   28.9150   41.7060 C   0  0  0  0  0  0  0  0  0  0  0  0
   36.9200   28.1980   41.2240 C   0  0  0  0  0  0  0  0  0  0  0  0
   35.8030   28.8870   40.7610 C   0  0  0  0  0  0  0  0  0  0  0  0
   35.8280   30.2640   40.7910 N   0  0  0  0  0  0  0  0  0  0  0  0
   36.9160   30.9180   41.2620 C   0  0  0  0  0  0  0  0  0  0  0  0
   38.0040   30.2560   41.7140 N   0  0  0  0  0  0  0  0  0  0  0  0
   36.3594   26.4318   39.0146 H   0  0  0  0  0  0  0  0  0  0  0  0
   37.1441   23.7451   42.2362 H   0  0  0  0  0  0  0  0  0  0  0  0
   36.5184   23.4533   37.3480 H   0  0  0  0  0  0  0  0  0  0  0  0
   35.5966   24.8247   37.8374 H   0  0  0  0  0  0  0  0  0  0  0  0
   33.9831   23.1853   39.1501 H   0  0  0  0  0  0  0  0  0  0  0  0
   33.9532   22.7492   37.5041 H   0  0  0  0  0  0  0  0  0  0  0  0
   34.9478   20.9598   39.3988 H   0  0  0  0  0  0  0  0  0  0  0  0
   35.7884   21.0075   37.8686 H   0  0  0  0  0  0  0  0  0  0  0  0
   36.6715   21.8504   40.4488 H   0  0  0  0  0  0  0  0  0  0  0  0
   38.2602   21.2151   41.1388 H   0  0  0  0  0  0  0  0  0  0  0  0
   37.8517   19.8650   40.0267 H   0  0  0  0  0  0  0  0  0  0  0  0
   39.5087   20.5585   40.0267 H   0  0  0  0  0  0  0  0  0  0  0  0
   37.9126   19.9465   38.0013 H   0  0  0  0  0  0  0  0  0  0  0  0
   37.0892   21.3249   37.1958 H   0  0  0  0  0  0  0  0  0  0  0  0
   38.8828   21.2259   37.1958 H   0  0  0  0  0  0  0  0  0  0  0  0
   39.4155   23.1094   39.9692 H   0  0  0  0  0  0  0  0  0  0  0  0
   39.9472   22.3770   38.4175 H   0  0  0  0  0  0  0  0  0  0  0  0
   38.7210   23.6896   38.4175 H   0  0  0  0  0  0  0  0  0  0  0  0
   38.9148   28.3777   42.0756 H   0  0  0  0  0  0  0  0  0  0  0  0
   34.9235   28.3464   40.3812 H   0  0  0  0  0  0  0  0  0  0  0  0
   36.9143   32.0179   41.2771 H   0  0  0  0  0  0  0  0  0  0  0  0
  1 16  1  0
  1  5  2  0
  2  3  2  0
  2  1  1  0
  3  4  1  0
  4  5  1  0
  6  3  1  0
  7  8  1  0
  7  6  1  0
  8  9  1  0
  9 10  1  0
 10  6  1  0
 11 10  1  0
 11 12  1  0
 13 11  1  0
 14 11  1  0
 15 20  2  0
 16 15  1  0
 17 18  1  0
 17 16  2  0
 18 19  2  0
 19 20  1  0
  2 21  1  0
  4 22  1  0
  7 23  1  0
  7 24  1  0
  8 25  1  0
  8 26  1  0
  9 27  1  0
  9 28  1  0
 10 29  1  1
 12 30  1  0
 12 31  1  0
 12 32  1  0
 13 33  1  0
 13 34  1  0
 13 35  1  0
 14 36  1  0
 14 37  1  0
 14 38  1  0
 15 39  1  0
 17 40  1  0
 19 41  1  0
M  ISO  8  21  14  22   9  23  13  24  13  25  13  26  13  27  13  28  13
M  ISO  8  29  13  30   8  31   8  32   8  33   8  34   8  35   8  36   8
M  ISO  5  37   8  38   8  39  14  40  14  41  14
M  END
>  <minimizedAffinity>  (1) 
-4.07303905

>  <minimizedRMSD>  (1) 
1.39731193

$$$$
