
     RDKit          3D

 30 32  0  0  1  0  0  0  0  0999 V2000
   36.9730   26.7210   41.4040 C   0  0  0  0  0  0  0  0  0  0  0  0
   37.2030   25.8640   40.3190 C   0  0  0  0  0  0  0  0  0  0  0  0
   37.3310   24.6150   40.8840 C   0  0  0  0  0  0  0  0  0  0  0  0
   37.1900   24.6910   42.2140 N   0  0  0  0  0  0  0  0  0  0  0  0
   36.9770   25.9590   42.5110 N   0  0  0  0  0  0  0  0  0  0  0  0
   37.5790   23.4950   40.0240 N   0  0  0  0  0  0  0  0  0  0  0  0
   36.9430   23.1990   38.7300 C   0  0  0  0  0  0  0  0  0  0  0  0
   36.3050   21.8610   39.1150 C   0  0  0  0  0  0  0  0  0  0  0  0
   37.5580   21.1600   39.6630 C   0  0  0  0  0  0  0  0  0  0  0  0
   38.4380   22.3250   40.0420 C   0  0  1  0  0  0  0  0  0  0  0  0
   39.3530   22.5200   38.9910 O   0  0  0  0  0  0  0  0  0  0  0  0
   37.6710   29.0790   41.8280 C   0  0  0  0  0  0  0  0  0  0  0  0
   36.7770   28.1520   41.2630 C   0  0  0  0  0  0  0  0  0  0  0  0
   35.6740   28.6120   40.5480 C   0  0  0  0  0  0  0  0  0  0  0  0
   35.5050   29.9660   40.4240 N   0  0  0  0  0  0  0  0  0  0  0  0
   36.3900   30.8380   40.9850 C   0  0  0  0  0  0  0  0  0  0  0  0
   37.4610   30.3960   41.6790 N   0  0  0  0  0  0  0  0  0  0  0  0
   37.2670   26.1300   39.2536 H   0  0  0  0  0  0  0  0  0  0  0  0
   37.2387   23.9068   42.8799 H   0  0  0  0  0  0  0  0  0  0  0  0
   37.6775   23.0933   37.9180 H   0  0  0  0  0  0  0  0  0  0  0  0
   36.2602   23.9672   38.3379 H   0  0  0  0  0  0  0  0  0  0  0  0
   35.5267   21.9789   39.8833 H   0  0  0  0  0  0  0  0  0  0  0  0
   35.7776   21.3333   38.3067 H   0  0  0  0  0  0  0  0  0  0  0  0
   37.3169   20.5411   40.5398 H   0  0  0  0  0  0  0  0  0  0  0  0
   38.0258   20.4696   38.9457 H   0  0  0  0  0  0  0  0  0  0  0  0
   38.9393   22.1605   41.0072 H   0  0  0  0  0  0  0  0  0  0  0  0
   40.2495   22.7110   39.3651 H   0  0  0  0  0  0  0  0  0  0  0  0
   38.5449   28.7235   42.3937 H   0  0  0  0  0  0  0  0  0  0  0  0
   34.9592   27.9087   40.0959 H   0  0  0  0  0  0  0  0  0  0  0  0
   36.2291   31.9201   40.8705 H   0  0  0  0  0  0  0  0  0  0  0  0
  1  5  2  0
  2  3  2  0
  2  1  1  0
  3  4  1  0
  4  5  1  0
  6 10  1  0
  6  3  1  0
  7  8  1  0
  7  6  1  0
  8  9  1  0
  9 10  1  0
 11 10  1  0
 13  1  1  0
 13 12  2  0
 14 13  1  0
 15 14  2  0
 15 16  1  0
 16 17  2  0
 17 12  1  0
  2 18  1  0
  4 19  1  0
  7 20  1  0
  7 21  1  0
  8 22  1  0
  8 23  1  0
  9 24  1  0
  9 25  1  0
 10 26  1  1
 11 27  1  0
 12 28  1  0
 14 29  1  0
 16 30  1  0
M  ISO  8  18  14  19   9  20  13  21  13  22  13  23  13  24  13  25  13
M  ISO  5  26  13  27   3  28  14  29  14  30  14
M  END
>  <minimizedAffinity>  (1) 
-4.05731344

>  <minimizedRMSD>  (1) 
0.0670693517

$$$$
