
     RDKit          3D

 20 21  0  0  0  0  0  0  0  0999 V2000
   37.3590   31.3630   49.2100 C   0  0  0  0  0  0  0  0  0  0  0  0
   37.7110   32.6670   49.6060 C   0  0  0  0  0  0  0  0  0  0  0  0
   38.5940   33.3350   48.7740 C   0  0  0  0  0  0  0  0  0  0  0  0
   39.0680   32.7230   47.6490 N   0  0  0  0  0  0  0  0  0  0  0  0
   38.7000   31.4570   47.3020 C   0  0  0  0  0  0  0  0  0  0  0  0
   37.8330   30.7700   48.0970 N   0  0  0  0  0  0  0  0  0  0  0  0
   36.3780   30.6150   50.0710 C   0  0  0  0  0  0  0  0  0  0  0  0
   36.2860   29.1590   50.0440 C   0  0  0  0  0  0  0  0  0  0  0  0
   37.0450   29.8070   51.1710 C   0  0  0  0  0  0  0  0  0  0  0  0
   39.1930   30.7760   46.1000 C   0  0  0  0  0  0  0  0  0  0  0  0
   37.3092   33.1275   50.5206 H   0  0  0  0  0  0  0  0  0  0  0  0
   38.9135   34.3586   49.0194 H   0  0  0  0  0  0  0  0  0  0  0  0
   35.6051   31.3912   49.9708 H   0  0  0  0  0  0  0  0  0  0  0  0
   35.3219   28.6696   50.2462 H   0  0  0  0  0  0  0  0  0  0  0  0
   36.5285   28.3877   49.2981 H   0  0  0  0  0  0  0  0  0  0  0  0
   38.1414   29.7316   51.2191 H   0  0  0  0  0  0  0  0  0  0  0  0
   37.0039   29.7817   52.2699 H   0  0  0  0  0  0  0  0  0  0  0  0
   39.8146   29.9174   46.3939 H   0  0  0  0  0  0  0  0  0  0  0  0
   38.3395   30.4233   45.5023 H   0  0  0  0  0  0  0  0  0  0  0  0
   39.7946   31.4766   45.5023 H   0  0  0  0  0  0  0  0  0  0  0  0
  1  2  2  0
  1  7  1  0
  3  2  1  0
  4  3  2  0
  5  4  1  0
  5  6  2  0
  6  1  1  0
  7  9  1  0
  8  7  1  0
  8  9  1  0
 10  5  1  0
  2 11  1  0
  3 12  1  0
  7 13  1  0
  8 14  1  0
  8 15  1  0
  9 16  1  0
  9 17  1  0
 10 18  1  0
 10 19  1  0
 10 20  1  0
M  ISO  8  11  14  12  14  13  13  14  13  15  13  16  13  17  13  18   8
M  ISO  2  19   8  20   8
M  END
>  <minimizedAffinity>  (1) 
-4.47257233

>  <minimizedRMSD>  (1) 
0.445842981

$$$$
