
     RDKit          3D

 26 27  0  0  0  0  0  0  0  0999 V2000
   36.9760   31.1300   49.2450 C   0  0  0  0  0  0  0  0  0  0  0  0
   37.3460   32.3870   49.7340 C   0  0  0  0  0  0  0  0  0  0  0  0
   38.3120   33.0600   48.9850 C   0  0  0  0  0  0  0  0  0  0  0  0
   38.8250   32.4730   47.8560 N   0  0  0  0  0  0  0  0  0  0  0  0
   38.4260   31.2500   47.4310 C   0  0  0  0  0  0  0  0  0  0  0  0
   37.4780   30.5560   48.1410 N   0  0  0  0  0  0  0  0  0  0  0  0
   35.9140   30.3940   50.0060 C   0  0  0  0  0  0  0  0  0  0  0  0
   35.7380   28.9640   49.9190 C   0  0  0  0  0  0  0  0  0  0  0  0
   36.4810   29.5070   51.1250 C   0  0  0  0  0  0  0  0  0  0  0  0
   38.9560   30.6320   46.2220 C   0  0  0  0  0  0  0  0  0  0  0  0
   38.7490   31.5270   45.1720 O   0  0  0  0  0  0  0  0  0  0  0  0
   41.0740   32.6580   45.1020 O   0  0  0  0  0  0  0  0  0  0  0  0
   40.1450   31.8090   44.2730 P   0  0  0  0  0  0  0  0  0  0  0  0
   40.8880   30.3800   43.7610 O   0  0  0  0  0  0  0  0  0  0  0  0
   39.7380   32.6630   42.8580 O   0  0  0  0  0  0  0  0  0  0  0  0
   36.9057   32.8157   50.6464 H   0  0  0  0  0  0  0  0  0  0  0  0
   38.6602   34.0554   49.2979 H   0  0  0  0  0  0  0  0  0  0  0  0
   35.1886   31.2119   49.8841 H   0  0  0  0  0  0  0  0  0  0  0  0
   34.7350   28.5314   50.0486 H   0  0  0  0  0  0  0  0  0  0  0  0
   35.9744   28.2114   49.1524 H   0  0  0  0  0  0  0  0  0  0  0  0
   37.5663   29.3597   51.2267 H   0  0  0  0  0  0  0  0  0  0  0  0
   36.3833   29.4417   52.2187 H   0  0  0  0  0  0  0  0  0  0  0  0
   40.0315   30.4341   46.3411 H   0  0  0  0  0  0  0  0  0  0  0  0
   38.4526   29.6747   46.0219 H   0  0  0  0  0  0  0  0  0  0  0  0
   41.1635   29.8501   44.5505 H   0  0  0  0  0  0  0  0  0  0  0  0
   39.3253   33.5290   43.1024 H   0  0  0  0  0  0  0  0  0  0  0  0
  1  2  2  0
  1  7  1  0
  3  2  1  0
  4  3  2  0
  5  4  1  0
  5  6  2  0
  6  1  1  0
  7  9  1  0
  8  7  1  0
  8  9  1  0
 10  5  1  0
 11 10  1  0
 13 12  2  0
 13 11  1  0
 14 13  1  0
 15 13  1  0
  2 16  1  0
  3 17  1  0
  7 18  1  0
  8 19  1  0
  8 20  1  0
  9 21  1  0
  9 22  1  0
 10 23  1  0
 10 24  1  0
 14 25  1  0
 15 26  1  0
M  ISO  8  16  14  17  14  18  13  19  13  20  13  21  13  22  13  23   8
M  ISO  3  24   8  25   3  26   3
M  END
>  <minimizedAffinity>  (1) 
-5.16380739

>  <minimizedRMSD>  (1) 
1.09290707

$$$$
