
     RDKit          3D

 46 49  0  0  0  0  0  0  0  0999 V2000
   38.1480   28.2260   51.2970 C   0  0  0  0  0  0  0  0  0  0  0  0
   37.1210   29.3040   51.5460 C   0  0  0  0  0  0  0  0  0  0  0  0
   37.4660   30.5200   51.0450 C   0  0  0  0  0  0  0  0  0  0  0  0
   37.4920   30.1810   49.7200 O   0  0  0  0  0  0  0  0  0  0  0  0
   38.0820   31.0460   48.8340 C   0  0  0  0  0  0  0  0  0  0  0  0
   38.3650   32.2680   49.3910 C   0  0  0  0  0  0  0  0  0  0  0  0
   38.9750   33.2550   48.5920 C   0  0  0  0  0  0  0  0  0  0  0  0
   39.2470   32.9240   47.2980 N   0  0  0  0  0  0  0  0  0  0  0  0
   38.9530   31.6970   46.7730 C   0  0  0  0  0  0  0  0  0  0  0  0
   38.3750   30.7900   47.5620 N   0  0  0  0  0  0  0  0  0  0  0  0
   39.8490   32.5750   44.7350 C   0  0  0  0  0  0  0  0  0  0  0  0
   40.0760   33.7150   45.2380 O   0  0  0  0  0  0  0  0  0  0  0  0
   39.2840   31.4700   45.4070 N   0  0  0  0  0  0  0  0  0  0  0  0
   38.6550   27.3340   52.7570 S   0  0  0  0  0  0  0  0  0  0  0  0
   40.4310   25.2090   53.4060 C   0  0  0  0  0  0  0  0  0  0  0  0
   39.8040   26.0350   52.4680 C   0  0  0  0  0  0  0  0  0  0  0  0
   40.1410   25.7920   51.1270 C   0  0  0  0  0  0  0  0  0  0  0  0
   41.0150   24.8210   50.7560 C   0  0  0  0  0  0  0  0  0  0  0  0
   41.4990   24.3870   49.5960 N   0  0  0  0  0  0  0  0  0  0  0  0
   42.3810   23.3470   49.7730 C   0  0  0  0  0  0  0  0  0  0  0  0
   42.4400   23.1310   51.1340 C   0  0  0  0  0  0  0  0  0  0  0  0
   41.5920   24.0470   51.7380 C   0  0  0  0  0  0  0  0  0  0  0  0
   41.3150   24.2260   53.0540 C   0  0  0  0  0  0  0  0  0  0  0  0
   41.9450   23.3850   54.0780 C   0  0  0  0  0  0  0  0  0  0  0  0
   41.8170   23.7050   55.5220 C   0  0  0  0  0  0  0  0  0  0  0  0
   43.1250   23.9480   54.8080 C   0  0  0  0  0  0  0  0  0  0  0  0
   37.7224   27.5043   50.5842 H   0  0  0  0  0  0  0  0  0  0  0  0
   39.0457   28.7325   50.9128 H   0  0  0  0  0  0  0  0  0  0  0  0
   36.1737   28.9939   51.0808 H   0  0  0  0  0  0  0  0  0  0  0  0
   37.0379   29.4200   52.6367 H   0  0  0  0  0  0  0  0  0  0  0  0
   36.7111   31.2897   51.2632 H   0  0  0  0  0  0  0  0  0  0  0  0
   38.3888   30.9632   51.4475 H   0  0  0  0  0  0  0  0  0  0  0  0
   38.1197   32.4733   50.4435 H   0  0  0  0  0  0  0  0  0  0  0  0
   39.2209   34.2487   48.9945 H   0  0  0  0  0  0  0  0  0  0  0  0
   40.1167   32.4332   43.6775 H   0  0  0  0  0  0  0  0  0  0  0  0
   39.1228   30.5648   44.9428 H   0  0  0  0  0  0  0  0  0  0  0  0
   40.2038   25.3558   54.4722 H   0  0  0  0  0  0  0  0  0  0  0  0
   39.6786   26.4129   50.3455 H   0  0  0  0  0  0  0  0  0  0  0  0
   41.2448   24.7809   48.6789 H   0  0  0  0  0  0  0  0  0  0  0  0
   42.9271   22.8000   48.9903 H   0  0  0  0  0  0  0  0  0  0  0  0
   43.0484   22.3712   51.6465 H   0  0  0  0  0  0  0  0  0  0  0  0
   41.7337   22.4817   53.4868 H   0  0  0  0  0  0  0  0  0  0  0  0
   41.1997   24.5566   55.8440 H   0  0  0  0  0  0  0  0  0  0  0  0
   41.5126   23.1453   56.4187 H   0  0  0  0  0  0  0  0  0  0  0  0
   43.9971   23.3125   55.0214 H   0  0  0  0  0  0  0  0  0  0  0  0
   43.7923   24.8114   54.6691 H   0  0  0  0  0  0  0  0  0  0  0  0
  1  2  1  0
  1 14  1  0
  3  2  1  0
  4  3  1  0
  5  6  2  0
  5  4  1  0
  7  6  1  0
  8  7  2  0
  9  8  1  0
  9 10  2  0
 10  5  1  0
 11 12  2  0
 11 13  1  0
 13  9  1  0
 16 14  1  0
 16 15  2  0
 17 16  1  0
 18 17  2  0
 18 22  1  0
 19 20  1  0
 19 18  1  0
 20 21  2  0
 21 22  1  0
 22 23  2  0
 23 15  1  0
 23 24  1  0
 24 26  1  0
 24 25  1  0
 26 25  1  0
  1 27  1  0
  1 28  1  0
  2 29  1  0
  2 30  1  0
  3 31  1  0
  3 32  1  0
  6 33  1  0
  7 34  1  0
 11 35  1  0
 13 36  1  0
 15 37  1  0
 17 38  1  0
 19 39  1  0
 20 40  1  0
 21 41  1  0
 24 42  1  0
 25 43  1  0
 25 44  1  0
 26 45  1  0
 26 46  1  0
M  ISO  8  27   8  28   8  29   8  30   8  31   8  32   8  33  14  34  14
M  ISO  8  35   6  37  14  38  14  39   9  40  14  41  14  42  13  43  13
M  ISO  3  44  13  45  13  46  13
M  END
>  <minimizedAffinity>  (1) 
-4.30791998

>  <minimizedRMSD>  (1) 
0.166666806

$$$$
