
     RDKit          3D

 28 29  0  0  1  0  0  0  0  0999 V2000
   36.8050   30.5110   48.6620 N   0  0  0  0  0  0  0  0  0  0  0  0
   37.9730   30.6120   47.8130 C   0  0  0  0  0  0  0  0  0  0  0  0
   38.5270   31.9820   48.1740 C   0  0  0  0  0  0  0  0  0  0  0  0
   37.5840   32.5610   49.2070 C   0  0  0  0  0  0  0  0  0  0  0  0
   37.0580   31.3110   49.8600 C   0  0  2  0  0  0  0  0  0  0  0  0
   35.6210   29.7810   48.4060 C   0  0  0  0  0  0  0  0  0  0  0  0
   34.8250   30.2140   47.3490 C   0  0  0  0  0  0  0  0  0  0  0  0
   33.6410   29.5290   47.0500 C   0  0  0  0  0  0  0  0  0  0  0  0
   33.3480   28.4480   47.8490 N   0  0  0  0  0  0  0  0  0  0  0  0
   34.1350   28.0540   48.8600 C   0  0  0  0  0  0  0  0  0  0  0  0
   35.2910   28.7300   49.1460 N   0  0  0  0  0  0  0  0  0  0  0  0
   38.0870   30.6580   50.7510 C   0  0  0  0  0  0  0  0  0  0  0  0
   37.3560   29.9350   51.8610 C   0  0  0  0  0  0  0  0  0  0  0  0
   37.6965   30.5630   46.7495 H   0  0  0  0  0  0  0  0  0  0  0  0
   38.6943   29.7949   47.9616 H   0  0  0  0  0  0  0  0  0  0  0  0
   39.5392   31.8854   48.5936 H   0  0  0  0  0  0  0  0  0  0  0  0
   38.5987   32.6310   47.2888 H   0  0  0  0  0  0  0  0  0  0  0  0
   38.1181   33.1976   49.9278 H   0  0  0  0  0  0  0  0  0  0  0  0
   36.8033   33.2133   48.7887 H   0  0  0  0  0  0  0  0  0  0  0  0
   36.1955   31.4608   50.5261 H   0  0  0  0  0  0  0  0  0  0  0  0
   35.1243   31.0885   46.7527 H   0  0  0  0  0  0  0  0  0  0  0  0
   32.9832   29.8373   46.2241 H   0  0  0  0  0  0  0  0  0  0  0  0
   33.8499   27.1806   49.4648 H   0  0  0  0  0  0  0  0  0  0  0  0
   38.6835   29.9406   50.1683 H   0  0  0  0  0  0  0  0  0  0  0  0
   38.7639   31.4165   51.1711 H   0  0  0  0  0  0  0  0  0  0  0  0
   37.7198   30.2948   52.8347 H   0  0  0  0  0  0  0  0  0  0  0  0
   36.2768   30.1308   51.7776 H   0  0  0  0  0  0  0  0  0  0  0  0
   37.5399   28.8537   51.7776 H   0  0  0  0  0  0  0  0  0  0  0  0
  1  5  1  0
  2  3  1  0
  2  1  1  0
  3  4  1  0
  4  5  1  0
  5 12  1  0
  6  1  1  0
  6 11  1  0
  7  6  2  0
  8  7  1  0
  8  9  2  0
  9 10  1  0
 10 11  2  0
 12 13  1  0
  2 14  1  0
  2 15  1  0
  3 16  1  0
  3 17  1  0
  4 18  1  0
  4 19  1  0
  5 20  1  1
  7 21  1  0
  8 22  1  0
 10 23  1  0
 12 24  1  0
 12 25  1  0
 13 26  1  0
 13 27  1  0
 13 28  1  0
M  ISO  8  14  13  15  13  16  13  17  13  18  13  19  13  20  13  21  14
M  ISO  7  22  14  23  14  24   8  25   8  26   8  27   8  28   8
M  END
>  <minimizedAffinity>  (1) 
-4.74452496

>  <minimizedRMSD>  (1) 
1.81567955

$$$$
