
     RDKit          3D

 41 43  0  0  1  0  0  0  0  0999 V2000
   36.4220   30.1860   48.6980 N   0  0  0  0  0  0  0  0  0  0  0  0
   37.8040   30.4270   48.3530 C   0  0  0  0  0  0  0  0  0  0  0  0
   38.1490   31.6780   49.1630 C   0  0  0  0  0  0  0  0  0  0  0  0
   36.9070   32.0080   49.9570 C   0  0  0  0  0  0  0  0  0  0  0  0
   36.2380   30.6590   50.0730 C   0  0  2  0  0  0  0  0  0  0  0  0
   35.4170   29.6080   47.8900 C   0  0  0  0  0  0  0  0  0  0  0  0
   35.2770   30.1100   46.5990 C   0  0  0  0  0  0  0  0  0  0  0  0
   34.3050   29.5840   45.7520 C   0  0  0  0  0  0  0  0  0  0  0  0
   33.5330   28.5850   46.2550 N   0  0  0  0  0  0  0  0  0  0  0  0
   33.6870   28.1110   47.5150 C   0  0  0  0  0  0  0  0  0  0  0  0
   34.6480   28.6380   48.3400 N   0  0  0  0  0  0  0  0  0  0  0  0
   32.7860   27.0070   47.9740 C   0  0  0  0  0  0  0  0  0  0  0  0
   31.6450   27.6580   48.7300 C   0  0  0  0  0  0  0  0  0  0  0  0
   30.5640   28.0000   47.7520 C   0  0  0  0  0  0  0  0  0  0  0  0
   29.9400   26.7030   47.2840 C   0  0  0  0  0  0  0  0  0  0  0  0
   30.9360   25.6560   46.9110 C   0  0  0  0  0  0  0  0  0  0  0  0
   32.3590   26.1050   46.8720 C   0  0  0  0  0  0  0  0  0  0  0  0
   36.8600   29.7760   51.0990 C   0  0  0  0  0  0  0  0  0  0  0  0
   37.4560   28.6590   50.4880 F   0  0  0  0  0  0  0  0  0  0  0  0
   35.9730   29.3720   52.0410 F   0  0  0  0  0  0  0  0  0  0  0  0
   37.8560   30.4590   51.7820 F   0  0  0  0  0  0  0  0  0  0  0  0
   38.4386   29.5781   48.6475 H   0  0  0  0  0  0  0  0  0  0  0  0
   37.9649   30.5530   47.2721 H   0  0  0  0  0  0  0  0  0  0  0  0
   38.9935   31.4764   49.8385 H   0  0  0  0  0  0  0  0  0  0  0  0
   38.4478   32.5129   48.5120 H   0  0  0  0  0  0  0  0  0  0  0  0
   37.1621   32.4136   50.9471 H   0  0  0  0  0  0  0  0  0  0  0  0
   36.2743   32.7771   49.4898 H   0  0  0  0  0  0  0  0  0  0  0  0
   35.1939   30.6825   50.4184 H   0  0  0  0  0  0  0  0  0  0  0  0
   35.9330   30.9206   46.2488 H   0  0  0  0  0  0  0  0  0  0  0  0
   34.1688   29.9584   44.7267 H   0  0  0  0  0  0  0  0  0  0  0  0
   33.3225   26.3211   48.6462 H   0  0  0  0  0  0  0  0  0  0  0  0
   31.2548   26.9609   49.4862 H   0  0  0  0  0  0  0  0  0  0  0  0
   31.9981   28.5684   49.2365 H   0  0  0  0  0  0  0  0  0  0  0  0
   29.8031   28.6276   48.2389 H   0  0  0  0  0  0  0  0  0  0  0  0
   30.9782   28.5581   46.8993 H   0  0  0  0  0  0  0  0  0  0  0  0
   29.3096   26.3089   48.0948 H   0  0  0  0  0  0  0  0  0  0  0  0
   29.3628   26.9341   46.3766 H   0  0  0  0  0  0  0  0  0  0  0  0
   30.8588   24.8390   47.6435 H   0  0  0  0  0  0  0  0  0  0  0  0
   30.6866   25.3559   45.8825 H   0  0  0  0  0  0  0  0  0  0  0  0
   32.9961   25.2089   46.9040 H   0  0  0  0  0  0  0  0  0  0  0  0
   32.4598   26.6947   45.9489 H   0  0  0  0  0  0  0  0  0  0  0  0
  1  5  1  0
  2  1  1  0
  2  3  1  0
  3  4  1  0
  4  5  1  0
  5 18  1  0
  6 11  1  0
  6  1  1  0
  7  6  2  0
  8  9  2  0
  8  7  1  0
  9 10  1  0
 10 12  1  0
 10 11  2  0
 12 13  1  0
 14 13  1  0
 15 14  1  0
 16 15  1  0
 17 16  1  0
 17 12  1  0
 18 21  1  0
 18 20  1  0
 19 18  1  0
  2 22  1  0
  2 23  1  0
  3 24  1  0
  3 25  1  0
  4 26  1  0
  4 27  1  0
  5 28  1  1
  7 29  1  0
  8 30  1  0
 12 31  1  0
 13 32  1  0
 13 33  1  0
 14 34  1  0
 14 35  1  0
 15 36  1  0
 15 37  1  0
 16 38  1  0
 16 39  1  0
 17 40  1  0
 17 41  1  0
M  ISO  8  22  13  23  13  24  13  25  13  26  13  27  13  28  13  29  14
M  ISO  8  30  14  31  13  32  13  33  13  34  13  35  13  36  13  37  13
M  ISO  4  38  13  39  13  40  13  41  13
M  END
>  <minimizedAffinity>  (1) 
-6.03887463

>  <minimizedRMSD>  (1) 
1.3925184

$$$$
