
     RDKit          3D

 39 41  0  0  1  0  0  0  0  0999 V2000
   38.4440   31.8010   48.5710 C   0  0  1  0  0  0  0  0  0  0  0  0
   37.9840   30.3740   48.6180 C   0  0  2  0  0  0  0  0  0  0  0  0
   37.9860   29.8660   47.3360 O   0  0  0  0  0  0  0  0  0  0  0  0
   38.8670   30.6540   46.5930 C   0  0  0  0  0  0  0  0  0  0  0  0
   38.5140   32.0450   47.0860 C   0  0  2  0  0  0  0  0  0  0  0  0
   35.2680   29.3210   51.0290 C   0  0  0  0  0  0  0  0  0  0  0  0
   36.5630   29.4810   50.4830 C   0  0  0  0  0  0  0  0  0  0  0  0
   36.6690   30.1710   49.2620 C   0  0  0  0  0  0  0  0  0  0  0  0
   35.5400   30.6460   48.6680 N   0  0  0  0  0  0  0  0  0  0  0  0
   34.3210   30.4720   49.2200 C   0  0  0  0  0  0  0  0  0  0  0  0
   34.1910   29.8200   50.3820 N   0  0  0  0  0  0  0  0  0  0  0  0
   37.6860   32.6830   49.2660 O   0  0  0  0  0  0  0  0  0  0  0  0
   39.4600   32.9760   46.7400 O   0  0  0  0  0  0  0  0  0  0  0  0
   39.4250   33.3300   45.3980 C   0  0  0  0  0  0  0  0  0  0  0  0
   40.7050   32.8540   44.7630 C   0  0  0  0  0  0  0  0  0  0  0  0
   40.4880   31.6050   43.9280 C   0  0  0  0  0  0  0  0  0  0  0  0
   39.5440   31.8730   42.7700 C   0  0  0  0  0  0  0  0  0  0  0  0
   38.3510   32.6480   43.2460 C   0  0  0  0  0  0  0  0  0  0  0  0
   38.2810   32.5860   44.7570 C   0  0  0  0  0  0  0  0  0  0  0  0
   39.4020   31.9627   49.0869 H   0  0  0  0  0  0  0  0  0  0  0  0
   38.6935   29.8303   49.2590 H   0  0  0  0  0  0  0  0  0  0  0  0
   38.6850   30.5518   45.5130 H   0  0  0  0  0  0  0  0  0  0  0  0
   39.9264   30.3870   46.7214 H   0  0  0  0  0  0  0  0  0  0  0  0
   37.5929   32.4656   46.6563 H   0  0  0  0  0  0  0  0  0  0  0  0
   35.1369   28.7890   51.9828 H   0  0  0  0  0  0  0  0  0  0  0  0
   37.4520   29.0816   50.9931 H   0  0  0  0  0  0  0  0  0  0  0  0
   33.4291   30.8681   48.7124 H   0  0  0  0  0  0  0  0  0  0  0  0
   37.8135   32.5347   50.2365 H   0  0  0  0  0  0  0  0  0  0  0  0
   39.3062   34.4167   45.2757 H   0  0  0  0  0  0  0  0  0  0  0  0
   41.0996   33.6511   44.1158 H   0  0  0  0  0  0  0  0  0  0  0  0
   41.4157   32.6098   45.5663 H   0  0  0  0  0  0  0  0  0  0  0  0
   41.4563   31.2672   43.5302 H   0  0  0  0  0  0  0  0  0  0  0  0
   40.0399   30.8319   44.5695 H   0  0  0  0  0  0  0  0  0  0  0  0
   39.2095   30.9155   42.3442 H   0  0  0  0  0  0  0  0  0  0  0  0
   40.0719   32.4595   42.0036 H   0  0  0  0  0  0  0  0  0  0  0  0
   38.4427   33.6963   42.9256 H   0  0  0  0  0  0  0  0  0  0  0  0
   37.4358   32.2132   42.8177 H   0  0  0  0  0  0  0  0  0  0  0  0
   37.3331   33.0347   45.0889 H   0  0  0  0  0  0  0  0  0  0  0  0
   38.3445   31.5307   45.0607 H   0  0  0  0  0  0  0  0  0  0  0  0
  1  2  1  0
  1 12  1  0
  2  8  1  0
  3  2  1  0
  4  5  1  0
  4  3  1  0
  5  1  1  0
  7  6  2  0
  8  7  1  0
  9 10  1  0
  9  8  2  0
 10 11  2  0
 11  6  1  0
 13  5  1  0
 14 13  1  0
 15 14  1  0
 16 15  1  0
 17 18  1  0
 17 16  1  0
 18 19  1  0
 19 14  1  0
  1 20  1  1
  2 21  1  1
  4 22  1  0
  4 23  1  0
  5 24  1  6
  6 25  1  0
  7 26  1  0
 10 27  1  0
 12 28  1  0
 14 29  1  0
 15 30  1  0
 15 31  1  0
 16 32  1  0
 16 33  1  0
 17 34  1  0
 17 35  1  0
 18 36  1  0
 18 37  1  0
 19 38  1  0
 19 39  1  0
M  ISO  8  20  13  21  13  22  13  23  13  24  13  25  14  26  14  27  14
M  ISO  8  28   3  29  13  30  13  31  13  32  13  33  13  34  13  35  13
M  ISO  4  36  13  37  13  38  13  39  13
M  END
>  <minimizedAffinity>  (1) 
-4.86416769

>  <minimizedRMSD>  (1) 
2.63633275

$$$$
