
     RDKit          3D

 27 28  0  0  1  0  0  0  0  0999 V2000
   37.7870   31.4180   49.5860 C   0  0  1  0  0  0  0  0  0  0  0  0
   37.5810   30.1820   48.7590 C   0  0  2  0  0  0  0  0  0  0  0  0
   38.1070   30.4010   47.5020 O   0  0  0  0  0  0  0  0  0  0  0  0
   39.0640   31.4090   47.6430 C   0  0  0  0  0  0  0  0  0  0  0  0
   38.3370   32.3780   48.5530 C   0  0  2  0  0  0  0  0  0  0  0  0
   34.3310   28.3320   49.3230 C   0  0  0  0  0  0  0  0  0  0  0  0
   35.6920   28.7070   49.4930 C   0  0  0  0  0  0  0  0  0  0  0  0
   36.1750   29.7330   48.6640 C   0  0  0  0  0  0  0  0  0  0  0  0
   35.3370   30.3080   47.7580 N   0  0  0  0  0  0  0  0  0  0  0  0
   34.0520   29.9170   47.6340 C   0  0  0  0  0  0  0  0  0  0  0  0
   33.5640   28.9480   48.4030 N   0  0  0  0  0  0  0  0  0  0  0  0
   36.6910   31.8770   50.2370 O   0  0  0  0  0  0  0  0  0  0  0  0
   39.1550   33.3390   49.0760 O   0  0  0  0  0  0  0  0  0  0  0  0
   39.6150   34.4040   48.3300 C   0  0  0  0  0  0  0  0  0  0  0  0
   39.7000   35.6160   48.6830 O   0  0  0  0  0  0  0  0  0  0  0  0
   40.0490   34.1070   46.9910 N   0  0  0  0  0  0  0  0  0  0  0  0
   38.4522   31.2471   50.4452 H   0  0  0  0  0  0  0  0  0  0  0  0
   38.1039   29.3615   49.2721 H   0  0  0  0  0  0  0  0  0  0  0  0
   39.9840   31.0290   48.1111 H   0  0  0  0  0  0  0  0  0  0  0  0
   39.4014   31.8480   46.6925 H   0  0  0  0  0  0  0  0  0  0  0  0
   37.5702   32.9894   48.0548 H   0  0  0  0  0  0  0  0  0  0  0  0
   33.9019   27.5339   49.9467 H   0  0  0  0  0  0  0  0  0  0  0  0
   36.3359   28.2170   50.2382 H   0  0  0  0  0  0  0  0  0  0  0  0
   33.4028   30.4034   46.8911 H   0  0  0  0  0  0  0  0  0  0  0  0
   36.8377   31.8156   51.2141 H   0  0  0  0  0  0  0  0  0  0  0  0
   40.0069   33.1401   46.6385 H   0  0  0  0  0  0  0  0  0  0  0  0
   40.4018   34.8613   46.3848 H   0  0  0  0  0  0  0  0  0  0  0  0
  1 12  1  0
  2  1  1  0
  3  4  1  0
  3  2  1  0
  4  5  1  0
  5 13  1  0
  5  1  1  0
  6  7  2  0
  8  2  1  0
  8  7  1  0
  9  8  2  0
 10  9  1  0
 10 11  2  0
 11  6  1  0
 14 15  2  0
 14 13  1  0
 16 14  1  0
  1 17  1  1
  2 18  1  1
  4 19  1  0
  4 20  1  0
  5 21  1  6
  6 22  1  0
  7 23  1  0
 10 24  1  0
 12 25  1  0
 16 26  1  0
 16 27  1  0
M  ISO  8  17  13  18  13  19  13  20  13  21  13  22  14  23  14  24  14
M  ISO  1  25   3
M  END
>  <minimizedAffinity>  (1) 
-4.23224258

>  <minimizedRMSD>  (1) 
1.50451899

$$$$
