
     RDKit          3D

 38 40  0  0  1  0  0  0  0  0999 V2000
   38.2810   31.1840   47.5700 C   0  0  1  0  0  0  0  0  0  0  0  0
   37.3680   29.9850   47.7510 C   0  0  2  0  0  0  0  0  0  0  0  0
   36.2710   30.2240   46.9030 O   0  0  0  0  0  0  0  0  0  0  0  0
   36.9040   30.7700   45.8090 C   0  0  0  0  0  0  0  0  0  0  0  0
   37.6050   32.0090   46.6060 C   0  0  2  0  0  0  0  0  0  0  0  0
   37.2760   29.5920   51.4810 C   0  0  0  0  0  0  0  0  0  0  0  0
   37.8300   29.7860   50.1950 C   0  0  0  0  0  0  0  0  0  0  0  0
   36.9060   29.7880   49.1300 C   0  0  0  0  0  0  0  0  0  0  0  0
   35.5460   29.6080   49.3600 N   0  0  0  0  0  0  0  0  0  0  0  0
   35.1010   29.4260   50.6300 C   0  0  0  0  0  0  0  0  0  0  0  0
   35.9480   29.4190   51.6660 N   0  0  0  0  0  0  0  0  0  0  0  0
   38.7610   31.7260   48.6900 O   0  0  0  0  0  0  0  0  0  0  0  0
   38.5180   32.6040   45.7820 O   0  0  0  0  0  0  0  0  0  0  0  0
   39.2420   31.5920   43.7360 C   0  0  1  0  0  0  0  0  0  0  0  0
   39.4510   31.9750   45.1640 C   0  0  1  0  0  0  0  0  0  0  0  0
   40.5870   33.0280   45.0290 C   0  0  0  0  0  0  0  0  0  0  0  0
   40.1680   33.7400   43.8940 O   0  0  0  0  0  0  0  0  0  0  0  0
   39.6370   32.8310   42.9970 C   0  0  0  0  0  0  0  0  0  0  0  0
   40.1570   30.5380   43.4890 O   0  0  0  0  0  0  0  0  0  0  0  0
   39.4410   29.3930   43.2000 C   0  0  0  0  0  0  0  0  0  0  0  0
   40.2820   28.5790   42.4470 F   0  0  0  0  0  0  0  0  0  0  0  0
   39.1680   28.7820   44.4200 F   0  0  0  0  0  0  0  0  0  0  0  0
   38.2770   29.7110   42.5470 F   0  0  0  0  0  0  0  0  0  0  0  0
   39.2705   30.9194   47.1689 H   0  0  0  0  0  0  0  0  0  0  0  0
   37.9180   29.0639   47.5081 H   0  0  0  0  0  0  0  0  0  0  0  0
   36.1979   31.1087   45.0365 H   0  0  0  0  0  0  0  0  0  0  0  0
   37.5681   30.1071   45.2350 H   0  0  0  0  0  0  0  0  0  0  0  0
   36.9653   32.8192   46.9860 H   0  0  0  0  0  0  0  0  0  0  0  0
   37.9437   29.5815   52.3551 H   0  0  0  0  0  0  0  0  0  0  0  0
   38.9094   29.9260   50.0359 H   0  0  0  0  0  0  0  0  0  0  0  0
   34.0255   29.2818   50.8103 H   0  0  0  0  0  0  0  0  0  0  0  0
   38.3601   31.2733   49.4738 H   0  0  0  0  0  0  0  0  0  0  0  0
   38.2298   31.2629   43.4582 H   0  0  0  0  0  0  0  0  0  0  0  0
   39.5898   31.0463   45.7369 H   0  0  0  0  0  0  0  0  0  0  0  0
   40.6411   33.6779   45.9148 H   0  0  0  0  0  0  0  0  0  0  0  0
   41.5947   32.5953   44.9430 H   0  0  0  0  0  0  0  0  0  0  0  0
   40.3902   32.5817   42.2351 H   0  0  0  0  0  0  0  0  0  0  0  0
   38.7555   33.2668   42.5040 H   0  0  0  0  0  0  0  0  0  0  0  0
  1  2  1  0
  1 12  1  0
  2  8  1  0
  3  2  1  0
  4  5  1  0
  4  3  1  0
  5  1  1  0
  6 11  2  0
  7  6  1  0
  8  9  1  0
  8  7  2  0
  9 10  2  0
 10 11  1  0
 13  5  1  0
 14 15  1  0
 15 13  1  0
 16 15  1  0
 17 16  1  0
 18 14  1  0
 18 17  1  0
 19 14  1  0
 20 19  1  0
 20 22  1  0
 21 20  1  0
 23 20  1  0
  1 24  1  6
  2 25  1  6
  4 26  1  0
  4 27  1  0
  5 28  1  1
  6 29  1  0
  7 30  1  0
 10 31  1  0
 12 32  1  0
 14 33  1  1
 15 34  1  1
 16 35  1  0
 16 36  1  0
 18 37  1  0
 18 38  1  0
M  ISO  8  24  13  25  13  26  13  27  13  28  13  29  14  30  14  31  14
M  ISO  7  32   3  33  13  34  13  35  13  36  13  37  13  38  13
M  END
>  <minimizedAffinity>  (1) 
-4.9750371

>  <minimizedRMSD>  (1) 
1.84450758

$$$$
