
     RDKit          3D

 41 43  0  0  1  0  0  0  0  0999 V2000
   38.2710   31.1160   47.4730 C   0  0  1  0  0  0  0  0  0  0  0  0
   37.3300   29.9440   47.6790 C   0  0  2  0  0  0  0  0  0  0  0  0
   36.2270   30.2000   46.8450 O   0  0  0  0  0  0  0  0  0  0  0  0
   36.8540   30.7330   45.7400 C   0  0  0  0  0  0  0  0  0  0  0  0
   37.5890   31.9610   46.5250 C   0  0  2  0  0  0  0  0  0  0  0  0
   37.2790   29.6490   51.4210 C   0  0  0  0  0  0  0  0  0  0  0  0
   37.8280   29.8250   50.1130 C   0  0  0  0  0  0  0  0  0  0  0  0
   36.8810   29.7740   49.0680 C   0  0  0  0  0  0  0  0  0  0  0  0
   35.5260   29.5660   49.3330 N   0  0  0  0  0  0  0  0  0  0  0  0
   35.1010   29.4100   50.5970 C   0  0  0  0  0  0  0  0  0  0  0  0
   35.9590   29.4500   51.6300 N   0  0  0  0  0  0  0  0  0  0  0  0
   38.7980   31.6400   48.5790 O   0  0  0  0  0  0  0  0  0  0  0  0
   38.4730   32.5520   45.6800 O   0  0  0  0  0  0  0  0  0  0  0  0
   39.3930   31.4150   43.7800 C   0  0  1  0  0  0  0  0  0  0  0  0
   39.4970   31.9510   45.1620 C   0  0  1  0  0  0  0  0  0  0  0  0
   40.5170   33.0820   44.9380 C   0  0  0  0  0  0  0  0  0  0  0  0
   40.1130   33.6210   43.7260 O   0  0  0  0  0  0  0  0  0  0  0  0
   39.6290   32.6050   42.9140 C   0  0  0  0  0  0  0  0  0  0  0  0
   40.2850   30.3970   43.6140 O   0  0  0  0  0  0  0  0  0  0  0  0
   40.1150   29.5150   42.6030 C   0  0  0  0  0  0  0  0  0  0  0  0
   41.4950   29.2190   42.0260 C   0  0  0  0  0  0  0  0  0  0  0  0
   39.2422   30.8281   47.0442 H   0  0  0  0  0  0  0  0  0  0  0  0
   37.8542   29.0075   47.4375 H   0  0  0  0  0  0  0  0  0  0  0  0
   36.1429   31.0831   44.9772 H   0  0  0  0  0  0  0  0  0  0  0  0
   37.4975   30.0573   45.1575 H   0  0  0  0  0  0  0  0  0  0  0  0
   36.9774   32.7811   46.9293 H   0  0  0  0  0  0  0  0  0  0  0  0
   37.9552   29.6765   52.2882 H   0  0  0  0  0  0  0  0  0  0  0  0
   38.9014   29.9870   49.9354 H   0  0  0  0  0  0  0  0  0  0  0  0
   34.0305   29.2464   50.7903 H   0  0  0  0  0  0  0  0  0  0  0  0
   38.3791   31.2235   49.3735 H   0  0  0  0  0  0  0  0  0  0  0  0
   38.4226   30.9613   43.5300 H   0  0  0  0  0  0  0  0  0  0  0  0
   39.6959   31.1088   45.8411 H   0  0  0  0  0  0  0  0  0  0  0  0
   40.4628   33.8301   45.7426 H   0  0  0  0  0  0  0  0  0  0  0  0
   41.5606   32.7344   44.9350 H   0  0  0  0  0  0  0  0  0  0  0  0
   38.6866   32.9185   42.4412 H   0  0  0  0  0  0  0  0  0  0  0  0
   40.3498   32.3683   42.1175 H   0  0  0  0  0  0  0  0  0  0  0  0
   39.6590   28.5890   42.9834 H   0  0  0  0  0  0  0  0  0  0  0  0
   39.4497   29.9293   41.8311 H   0  0  0  0  0  0  0  0  0  0  0  0
   42.2106   29.0655   42.8472 H   0  0  0  0  0  0  0  0  0  0  0  0
   41.4466   28.3108   41.4073 H   0  0  0  0  0  0  0  0  0  0  0  0
   41.8234   30.0671   41.4073 H   0  0  0  0  0  0  0  0  0  0  0  0
  1  2  1  0
  1 12  1  0
  2  8  1  0
  3  2  1  0
  4  5  1  0
  4  3  1  0
  5  1  1  0
  6 11  2  0
  7  6  1  0
  8  9  1  0
  8  7  2  0
  9 10  2  0
 10 11  1  0
 13  5  1  0
 14 15  1  0
 15 13  1  0
 16 15  1  0
 17 16  1  0
 18 17  1  0
 18 14  1  0
 19 14  1  0
 20 19  1  0
 21 20  1  0
  1 22  1  6
  2 23  1  6
  4 24  1  0
  4 25  1  0
  5 26  1  1
  6 27  1  0
  7 28  1  0
 10 29  1  0
 12 30  1  0
 14 31  1  6
 15 32  1  1
 16 33  1  0
 16 34  1  0
 18 35  1  0
 18 36  1  0
 20 37  1  0
 20 38  1  0
 21 39  1  0
 21 40  1  0
 21 41  1  0
M  ISO  8  22  13  23  13  24  13  25  13  26  13  27  14  28  14  29  14
M  ISO  8  30   3  31  13  32  13  33  13  34  13  35  13  36  13  37   8
M  ISO  4  38   8  39   8  40   8  41   8
M  END
>  <minimizedAffinity>  (1) 
-4.82810211

>  <minimizedRMSD>  (1) 
1.48480117

$$$$
