
     RDKit          3D

 23 24  0  0  1  0  0  0  0  0999 V2000
   38.1680   30.3670   47.8430 C   0  0  1  0  0  0  0  0  0  0  0  0
   37.5650   30.7210   46.5780 C   0  0  0  0  0  0  0  0  0  0  0  0
   38.1370   31.8580   47.4400 C   0  0  2  0  0  0  0  0  0  0  0  0
   37.1910   30.1190   51.4550 C   0  0  0  0  0  0  0  0  0  0  0  0
   37.9670   30.4220   50.3050 C   0  0  0  0  0  0  0  0  0  0  0  0
   37.4050   30.0990   49.0720 C   0  0  0  0  0  0  0  0  0  0  0  0
   36.1600   29.5170   49.0360 N   0  0  0  0  0  0  0  0  0  0  0  0
   35.4570   29.2470   50.1670 C   0  0  0  0  0  0  0  0  0  0  0  0
   35.9780   29.5500   51.3710 N   0  0  0  0  0  0  0  0  0  0  0  0
   39.2750   32.4130   46.9090 O   0  0  0  0  0  0  0  0  0  0  0  0
   39.8620   31.6810   44.5130 O   0  0  0  0  0  0  0  0  0  0  0  0
   39.1750   32.7950   45.2920 P   0  0  0  0  0  0  0  0  0  0  0  0
   40.0020   34.2160   44.9230 O   0  0  0  0  0  0  0  0  0  0  0  0
   37.5550   32.8780   44.8100 O   0  0  0  0  0  0  0  0  0  0  0  0
   38.9005   29.5793   48.0734 H   0  0  0  0  0  0  0  0  0  0  0  0
   36.4762   30.6305   46.4507 H   0  0  0  0  0  0  0  0  0  0  0  0
   37.7229   30.3964   45.5389 H   0  0  0  0  0  0  0  0  0  0  0  0
   37.7977   32.7833   47.9285 H   0  0  0  0  0  0  0  0  0  0  0  0
   37.5977   30.3587   52.4486 H   0  0  0  0  0  0  0  0  0  0  0  0
   38.9605   30.8877   50.3837 H   0  0  0  0  0  0  0  0  0  0  0  0
   34.4628   28.7812   50.0990 H   0  0  0  0  0  0  0  0  0  0  0  0
   40.2668   34.6709   45.7615 H   0  0  0  0  0  0  0  0  0  0  0  0
   36.9736   32.9078   45.6107 H   0  0  0  0  0  0  0  0  0  0  0  0
  1  6  1  0
  2  3  1  0
  2  1  1  0
  3  1  1  0
  5  4  2  0
  6  5  1  0
  7  6  2  0
  7  8  1  0
  8  9  2  0
  9  4  1  0
 10  3  1  0
 11 12  2  0
 12 10  1  0
 13 12  1  0
 14 12  1  0
  1 15  1  6
  2 16  1  0
  2 17  1  0
  3 18  1  1
  4 19  1  0
  5 20  1  0
  8 21  1  0
 13 22  1  0
 14 23  1  0
M  ISO  8  15  13  16  13  17  13  18  13  19  14  20  14  21  14  22   3
M  ISO  1  23   3
M  END
>  <minimizedAffinity>  (1) 
-4.85685396

>  <minimizedRMSD>  (1) 
0.740760505

$$$$
