
     RDKit          3D

 24 26  0  0  1  0  0  0  0  0999 V2000
   38.0240   30.4830   47.6640 C   0  0  1  0  0  0  0  0  0  0  0  0
   37.3430   31.0410   46.5210 C   0  0  0  0  0  0  0  0  0  0  0  0
   38.1330   32.0040   47.4190 C   0  0  2  0  0  0  0  0  0  0  0  0
   37.3480   30.1550   51.3270 C   0  0  0  0  0  0  0  0  0  0  0  0
   38.0160   30.5060   50.1410 C   0  0  0  0  0  0  0  0  0  0  0  0
   37.3770   30.1640   48.9510 C   0  0  0  0  0  0  0  0  0  0  0  0
   36.1620   29.5200   49.0060 N   0  0  0  0  0  0  0  0  0  0  0  0
   35.5680   29.2080   50.1810 C   0  0  0  0  0  0  0  0  0  0  0  0
   36.1580   29.5250   51.3550 N   0  0  0  0  0  0  0  0  0  0  0  0
   39.3820   32.5240   46.7740 C   0  0  0  0  0  0  0  0  0  0  0  0
   40.1790   31.6080   45.8620 C   0  0  0  0  0  0  0  0  0  0  0  0
   39.4660   32.8380   45.3430 C   0  0  0  0  0  0  0  0  0  0  0  0
   38.6699   29.5946   47.7244 H   0  0  0  0  0  0  0  0  0  0  0  0
   36.2439   31.0851   46.5116 H   0  0  0  0  0  0  0  0  0  0  0  0
   37.3530   30.8201   45.4434 H   0  0  0  0  0  0  0  0  0  0  0  0
   37.9565   32.9031   48.0277 H   0  0  0  0  0  0  0  0  0  0  0  0
   37.8238   30.4091   52.2857 H   0  0  0  0  0  0  0  0  0  0  0  0
   38.9878   31.0213   50.1518 H   0  0  0  0  0  0  0  0  0  0  0  0
   34.5966   28.6919   50.1808 H   0  0  0  0  0  0  0  0  0  0  0  0
   39.5816   33.1089   47.6840 H   0  0  0  0  0  0  0  0  0  0  0  0
   41.2773   31.5850   45.9195 H   0  0  0  0  0  0  0  0  0  0  0  0
   40.1771   30.5342   45.6235 H   0  0  0  0  0  0  0  0  0  0  0  0
   40.0502   33.7076   45.0076 H   0  0  0  0  0  0  0  0  0  0  0  0
   38.7264   33.0228   44.5500 H   0  0  0  0  0  0  0  0  0  0  0  0
  1  6  1  0
  2  3  1  0
  2  1  1  0
  3  1  1  0
  4  9  2  0
  5  4  1  0
  6  7  1  0
  6  5  2  0
  7  8  2  0
  8  9  1  0
 10  3  1  0
 11 10  1  0
 12 11  1  0
 12 10  1  0
  1 13  1  6
  2 14  1  0
  2 15  1  0
  3 16  1  1
  4 17  1  0
  5 18  1  0
  8 19  1  0
 10 20  1  0
 11 21  1  0
 11 22  1  0
 12 23  1  0
 12 24  1  0
M  ISO  8  13  13  14  13  15  13  16  13  17  14  18  14  19  14  20  13
M  ISO  4  21  13  22  13  23  13  24  13
M  END
>  <minimizedAffinity>  (1) 
-4.80591011

>  <minimizedRMSD>  (1) 
0.797860444

$$$$
