
     RDKit          3D

 21 22  0  0  1  0  0  0  0  0999 V2000
   38.1640   30.7000   47.6310 C   0  0  1  0  0  0  0  0  0  0  0  0
   37.9350   31.7650   46.6800 C   0  0  0  0  0  0  0  0  0  0  0  0
   38.8430   32.0610   47.8800 C   0  0  1  0  0  0  0  0  0  0  0  0
   36.7280   29.3010   50.7880 C   0  0  0  0  0  0  0  0  0  0  0  0
   37.6800   29.6310   49.8170 C   0  0  0  0  0  0  0  0  0  0  0  0
   37.2190   30.3430   48.7010 C   0  0  0  0  0  0  0  0  0  0  0  0
   35.8840   30.6590   48.6460 N   0  0  0  0  0  0  0  0  0  0  0  0
   35.0050   30.3220   49.5980 C   0  0  0  0  0  0  0  0  0  0  0  0
   35.4290   29.6360   50.6820 N   0  0  0  0  0  0  0  0  0  0  0  0
   39.1100   34.1280   49.1030 C   0  0  0  0  0  0  0  0  0  0  0  0
   40.1220   34.4120   48.4040 O   0  0  0  0  0  0  0  0  0  0  0  0
   38.3660   32.9190   48.9110 N   0  0  0  0  0  0  0  0  0  0  0  0
   38.4386   29.6495   47.4547 H   0  0  0  0  0  0  0  0  0  0  0  0
   38.3706   31.6971   45.6722 H   0  0  0  0  0  0  0  0  0  0  0  0
   37.0331   32.2411   46.2678 H   0  0  0  0  0  0  0  0  0  0  0  0
   39.8707   32.4167   48.0452 H   0  0  0  0  0  0  0  0  0  0  0  0
   37.0560   28.7430   51.6774 H   0  0  0  0  0  0  0  0  0  0  0  0
   38.7370   29.3460   49.9241 H   0  0  0  0  0  0  0  0  0  0  0  0
   33.9458   30.6015   49.4984 H   0  0  0  0  0  0  0  0  0  0  0  0
   38.7890   34.8318   49.8850 H   0  0  0  0  0  0  0  0  0  0  0  0
   37.5405   32.6859   49.4812 H   0  0  0  0  0  0  0  0  0  0  0  0
  1  3  1  0
  1  6  1  0
  2  1  1  0
  2  3  1  0
  3 12  1  0
  5  4  2  0
  6  5  1  0
  7  6  2  0
  7  8  1  0
  8  9  2  0
  9  4  1  0
 11 10  2  0
 12 10  1  0
  1 13  1  6
  2 14  1  0
  2 15  1  0
  3 16  1  6
  4 17  1  0
  5 18  1  0
  8 19  1  0
 10 20  1  0
 12 21  1  0
M  ISO  8  13  13  14  13  15  13  16  13  17  14  18  14  19  14  20   6
M  END
>  <minimizedAffinity>  (1) 
-4.25917673

>  <minimizedRMSD>  (1) 
1.96054769

$$$$
