
     RDKit          3D

 19 20  0  0  1  0  0  0  0  0999 V2000
   38.0110   30.4760   47.7040 C   0  0  1  0  0  0  0  0  0  0  0  0
   37.2850   30.9750   46.5580 C   0  0  0  0  0  0  0  0  0  0  0  0
   38.0280   31.9970   47.4270 C   0  0  2  0  0  0  0  0  0  0  0  0
   37.3320   30.1280   51.3740 C   0  0  0  0  0  0  0  0  0  0  0  0
   37.9920   30.4750   50.1900 C   0  0  0  0  0  0  0  0  0  0  0  0
   37.3690   30.1520   48.9860 C   0  0  0  0  0  0  0  0  0  0  0  0
   36.1470   29.5160   49.0570 N   0  0  0  0  0  0  0  0  0  0  0  0
   35.5430   29.1980   50.2050 C   0  0  0  0  0  0  0  0  0  0  0  0
   36.1460   29.5110   51.3650 N   0  0  0  0  0  0  0  0  0  0  0  0
   39.3210   32.5110   46.9060 C   0  0  0  0  0  0  0  0  0  0  0  0
   39.3200   32.9020   45.7310 O   0  0  0  0  0  0  0  0  0  0  0  0
   38.7154   29.6345   47.7798 H   0  0  0  0  0  0  0  0  0  0  0  0
   36.1852   30.9565   46.5617 H   0  0  0  0  0  0  0  0  0  0  0  0
   37.2953   30.7352   45.4845 H   0  0  0  0  0  0  0  0  0  0  0  0
   37.7611   32.9257   47.9526 H   0  0  0  0  0  0  0  0  0  0  0  0
   37.8019   30.3695   52.3388 H   0  0  0  0  0  0  0  0  0  0  0  0
   38.9669   30.9841   50.2089 H   0  0  0  0  0  0  0  0  0  0  0  0
   34.5682   28.6884   50.2014 H   0  0  0  0  0  0  0  0  0  0  0  0
   40.2274   32.5424   47.5284 H   0  0  0  0  0  0  0  0  0  0  0  0
  1  6  1  0
  2  3  1  0
  2  1  1  0
  3  1  1  0
  5  4  2  0
  6  7  2  0
  6  5  1  0
  7  8  1  0
  8  9  2  0
  9  4  1  0
 10  3  1  0
 11 10  2  0
  1 12  1  6
  2 13  1  0
  2 14  1  0
  3 15  1  1
  4 16  1  0
  5 17  1  0
  8 18  1  0
 10 19  1  0
M  ISO  8  12  13  13  13  14  13  15  13  16  14  17  14  18  14  19   6
M  END
>  <minimizedAffinity>  (1) 
-4.22260571

>  <minimizedRMSD>  (1) 
0.595473588

$$$$
