
     RDKit          3D

 26 28  0  0  1  0  0  0  0  0999 V2000
   37.6270   30.2890   46.7240 C   0  0  1  0  0  0  0  0  0  0  0  0
   37.3350   31.3090   45.7440 C   0  0  0  0  0  0  0  0  0  0  0  0
   38.7270   31.3090   46.3990 C   0  0  1  0  0  0  0  0  0  0  0  0
   37.5730   29.9440   50.4510 C   0  0  0  0  0  0  0  0  0  0  0  0
   38.0430   29.8960   49.1230 C   0  0  0  0  0  0  0  0  0  0  0  0
   37.1840   30.3420   48.1200 C   0  0  0  0  0  0  0  0  0  0  0  0
   35.9450   30.7950   48.5000 N   0  0  0  0  0  0  0  0  0  0  0  0
   35.5240   30.8300   49.7730 C   0  0  0  0  0  0  0  0  0  0  0  0
   36.3480   30.4000   50.7480 N   0  0  0  0  0  0  0  0  0  0  0  0
   38.9810   32.4120   47.3280 C   0  0  0  0  0  0  0  0  0  0  0  0
   40.0410   33.2710   47.1040 C   0  0  0  0  0  0  0  0  0  0  0  0
   40.2410   34.3010   48.0110 C   0  0  0  0  0  0  0  0  0  0  0  0
   39.3810   34.4340   49.0980 C   0  0  0  0  0  0  0  0  0  0  0  0
   38.3350   33.5610   49.2910 C   0  0  0  0  0  0  0  0  0  0  0  0
   38.1650   32.5610   48.3840 N   0  0  0  0  0  0  0  0  0  0  0  0
   37.4631   29.2023   46.6759 H   0  0  0  0  0  0  0  0  0  0  0  0
   36.6189   32.1081   45.9862 H   0  0  0  0  0  0  0  0  0  0  0  0
   36.9769   31.2931   44.7040 H   0  0  0  0  0  0  0  0  0  0  0  0
   39.7816   31.2444   46.0928 H   0  0  0  0  0  0  0  0  0  0  0  0
   38.2281   29.5985   51.2643 H   0  0  0  0  0  0  0  0  0  0  0  0
   39.0497   29.5207   48.8871 H   0  0  0  0  0  0  0  0  0  0  0  0
   34.5192   31.2049   50.0176 H   0  0  0  0  0  0  0  0  0  0  0  0
   40.7035   33.1418   46.2355 H   0  0  0  0  0  0  0  0  0  0  0  0
   41.0727   35.0075   47.8727 H   0  0  0  0  0  0  0  0  0  0  0  0
   39.5407   35.2521   49.8157 H   0  0  0  0  0  0  0  0  0  0  0  0
   37.6578   33.6681   50.1512 H   0  0  0  0  0  0  0  0  0  0  0  0
  1  6  1  0
  2  3  1  0
  2  1  1  0
  3  1  1  0
  3 10  1  0
  4  9  2  0
  5  4  1  0
  6  7  1  0
  6  5  2  0
  7  8  2  0
  8  9  1  0
 10 15  1  0
 11 10  2  0
 11 12  1  0
 12 13  2  0
 13 14  1  0
 15 14  2  0
  1 16  1  6
  2 17  1  0
  2 18  1  0
  3 19  1  6
  4 20  1  0
  5 21  1  0
  8 22  1  0
 11 23  1  0
 12 24  1  0
 13 25  1  0
 14 26  1  0
M  ISO  8  16  13  17  13  18  13  19  13  20  14  21  14  22  14  23  14
M  ISO  3  24  14  25  14  26  14
M  END
>  <minimizedAffinity>  (1) 
-4.21426392

>  <minimizedRMSD>  (1) 
2.3175509

$$$$
