
     RDKit          3D

 36 37  0  0  0  0  0  0  0  0999 V2000
   38.2170   31.5680   48.9550 Br  0  0  0  0  0  0  0  0  0  0  0  0
   36.9830   30.9300   47.6170 C   0  0  0  0  0  0  0  0  0  0  0  0
   37.3190   30.9640   46.2880 C   0  0  0  0  0  0  0  0  0  0  0  0
   36.3980   30.5140   45.3840 C   0  0  0  0  0  0  0  0  0  0  0  0
   35.1570   30.0330   45.7680 C   0  0  0  0  0  0  0  0  0  0  0  0
   34.8500   30.0150   47.1250 C   0  0  0  0  0  0  0  0  0  0  0  0
   35.7680   30.4620   48.0350 C   0  0  0  0  0  0  0  0  0  0  0  0
   39.8420   33.2790   45.0250 C   0  0  0  0  0  0  0  0  0  0  0  0
   41.0430   32.4970   45.0050 C   0  0  0  0  0  0  0  0  0  0  0  0
   40.9430   31.1920   45.4310 C   0  0  0  0  0  0  0  0  0  0  0  0
   39.7300   30.7000   45.8470 N   0  0  0  0  0  0  0  0  0  0  0  0
   38.6270   31.4730   45.8470 C   0  0  0  0  0  0  0  0  0  0  0  0
   38.6950   32.7490   45.4370 N   0  0  0  0  0  0  0  0  0  0  0  0
   35.3420   30.3700   49.4290 C   0  0  0  0  0  0  0  0  0  0  0  0
   34.1640   29.5010   49.7120 C   0  0  0  0  0  0  0  0  0  0  0  0
   34.5360   28.1580   49.5570 N   0  0  0  0  0  0  0  0  0  0  0  0
   33.7720   27.3620   48.6640 C   0  0  0  0  0  0  0  0  0  0  0  0
   32.3860   27.7960   48.6970 C   0  0  0  0  0  0  0  0  0  0  0  0
   31.5850   28.3180   47.7090 N   0  0  0  0  0  0  0  0  0  0  0  0
   36.6511   30.5345   44.3137 H   0  0  0  0  0  0  0  0  0  0  0  0
   34.4339   29.6750   45.0204 H   0  0  0  0  0  0  0  0  0  0  0  0
   33.8723   29.6425   47.4648 H   0  0  0  0  0  0  0  0  0  0  0  0
   39.8699   34.3283   44.6961 H   0  0  0  0  0  0  0  0  0  0  0  0
   41.9999   32.9200   44.6651 H   0  0  0  0  0  0  0  0  0  0  0  0
   41.8324   30.5447   45.4383 H   0  0  0  0  0  0  0  0  0  0  0  0
   36.1903   29.9822   50.0121 H   0  0  0  0  0  0  0  0  0  0  0  0
   35.0240   31.3869   49.7024 H   0  0  0  0  0  0  0  0  0  0  0  0
   33.8201   29.6712   50.7429 H   0  0  0  0  0  0  0  0  0  0  0  0
   33.3493   29.7426   49.0135 H   0  0  0  0  0  0  0  0  0  0  0  0
   35.5107   28.1449   49.2242 H   0  0  0  0  0  0  0  0  0  0  0  0
   33.8336   26.3067   48.9684 H   0  0  0  0  0  0  0  0  0  0  0  0
   34.1675   27.4717   47.6434 H   0  0  0  0  0  0  0  0  0  0  0  0
   31.8380   26.9056   49.0390 H   0  0  0  0  0  0  0  0  0  0  0  0
   32.5489   28.7326   49.2504 H   0  0  0  0  0  0  0  0  0  0  0  0
   30.8003   28.8294   48.1376 H   0  0  0  0  0  0  0  0  0  0  0  0
   32.1365   28.9624   47.1246 H   0  0  0  0  0  0  0  0  0  0  0  0
  2  7  2  0
  2  1  1  0
  3  2  1  0
  4  5  1  0
  4  3  2  0
  5  6  2  0
  6  7  1  0
  7 14  1  0
  8 13  2  0
  9  8  1  0
  9 10  2  0
 10 11  1  0
 11 12  2  0
 12  3  1  0
 13 12  1  0
 14 15  1  0
 16 15  1  0
 17 18  1  0
 17 16  1  0
 19 18  1  0
  4 20  1  0
  5 21  1  0
  6 22  1  0
  8 23  1  0
  9 24  1  0
 10 25  1  0
 14 26  1  0
 14 27  1  0
 15 28  1  0
 15 29  1  0
 16 30  1  0
 17 31  1  0
 17 32  1  0
 18 33  1  0
 18 34  1  0
 19 35  1  0
 19 36  1  0
M  ISO  8  20  14  21  14  22  14  23  14  24  14  25  14  26   8  27   8
M  ISO  8  28   8  29   8  30   5  31   8  32   8  33   8  34   8  35   5
M  ISO  1  36   5
M  END
>  <minimizedAffinity>  (1) 
-4.98104906

>  <minimizedRMSD>  (1) 
0.207175151

$$$$
