
     RDKit          3D

 18 19  0  0  1  0  0  0  0  0999 V2000
   36.8990   29.6780   50.9250 C   0  0  0  0  0  0  0  0  0  0  0  0
   37.9440   30.1960   50.1420 C   0  0  0  0  0  0  0  0  0  0  0  0
   37.5960   30.8580   48.9640 C   0  0  0  0  0  0  0  0  0  0  0  0
   36.2800   30.9710   48.6290 N   0  0  0  0  0  0  0  0  0  0  0  0
   35.2990   30.4540   49.4130 C   0  0  0  0  0  0  0  0  0  0  0  0
   35.6100   29.8050   50.5650 N   0  0  0  0  0  0  0  0  0  0  0  0
   38.6410   31.3990   48.0870 C   0  0  1  0  0  0  0  0  0  0  0  0
   38.4010   32.2710   46.9610 C   0  0  0  0  0  0  0  0  0  0  0  0
   38.8610   32.9170   48.2720 C   0  0  1  0  0  0  0  0  0  0  0  0
   37.9430   33.6210   49.0210 O   0  0  0  0  0  0  0  0  0  0  0  0
   37.1427   29.1529   51.8604 H   0  0  0  0  0  0  0  0  0  0  0  0
   38.9953   30.0841   50.4456 H   0  0  0  0  0  0  0  0  0  0  0  0
   34.2461   30.5615   49.1133 H   0  0  0  0  0  0  0  0  0  0  0  0
   39.2094   30.4584   48.1351 H   0  0  0  0  0  0  0  0  0  0  0  0
   39.0841   32.2456   46.0992 H   0  0  0  0  0  0  0  0  0  0  0  0
   37.5445   32.4327   46.2900 H   0  0  0  0  0  0  0  0  0  0  0  0
   39.6807   33.5774   48.5913 H   0  0  0  0  0  0  0  0  0  0  0  0
   38.1257   33.4809   49.9838 H   0  0  0  0  0  0  0  0  0  0  0  0
  2  1  2  0
  3  2  1  0
  4  3  2  0
  4  5  1  0
  5  6  2  0
  6  1  1  0
  7  9  1  0
  7  3  1  0
  8  7  1  0
  8  9  1  0
  9 10  1  0
  1 11  1  0
  2 12  1  0
  5 13  1  0
  7 14  1  6
  8 15  1  0
  8 16  1  0
  9 17  1  6
 10 18  1  0
M  ISO  8  11  14  12  14  13  14  14  13  15  13  16  13  17  13  18   3
M  END
>  <minimizedAffinity>  (1) 
-4.03704834

>  <minimizedRMSD>  (1) 
0.953032792

$$$$
