
     RDKit          3D

 29 31  0  0  1  0  0  0  0  0999 V2000
   37.5080   32.2950   48.8580 C   0  0  1  0  0  0  0  0  0  0  0  0
   38.8060   32.9090   49.0730 C   0  0  0  0  0  0  0  0  0  0  0  0
   38.6600   31.8380   47.9850 C   0  0  2  0  0  0  0  0  0  0  0  0
   35.2590   29.6730   50.3210 C   0  0  0  0  0  0  0  0  0  0  0  0
   35.7320   30.6660   49.4580 C   0  0  0  0  0  0  0  0  0  0  0  0
   36.9750   31.2370   49.7310 C   0  0  0  0  0  0  0  0  0  0  0  0
   37.6550   30.7890   50.8290 N   0  0  0  0  0  0  0  0  0  0  0  0
   37.1740   29.8280   51.6470 C   0  0  0  0  0  0  0  0  0  0  0  0
   35.9620   29.2630   51.3920 N   0  0  0  0  0  0  0  0  0  0  0  0
   37.9600   31.7690   45.5460 C   0  0  1  0  0  0  0  0  0  0  0  0
   38.7910   32.4030   46.5940 C   0  0  2  0  0  0  0  0  0  0  0  0
   40.2200   32.1790   46.0700 C   0  0  0  0  0  0  0  0  0  0  0  0
   40.1360   30.9000   45.5800 O   0  0  0  0  0  0  0  0  0  0  0  0
   38.8990   30.7030   45.0030 C   0  0  0  0  0  0  0  0  0  0  0  0
   36.7900   31.2000   46.0190 O   0  0  0  0  0  0  0  0  0  0  0  0
   36.5163   32.7537   48.7310 H   0  0  0  0  0  0  0  0  0  0  0  0
   38.9685   33.9592   48.7889 H   0  0  0  0  0  0  0  0  0  0  0  0
   39.4637   33.0391   49.9451 H   0  0  0  0  0  0  0  0  0  0  0  0
   39.0742   30.8526   47.7253 H   0  0  0  0  0  0  0  0  0  0  0  0
   34.2810   29.2124   50.1177 H   0  0  0  0  0  0  0  0  0  0  0  0
   35.1406   30.9879   48.5882 H   0  0  0  0  0  0  0  0  0  0  0  0
   37.7610   29.5022   52.5184 H   0  0  0  0  0  0  0  0  0  0  0  0
   37.6032   32.4999   44.8054 H   0  0  0  0  0  0  0  0  0  0  0  0
   38.4816   33.4495   46.7326 H   0  0  0  0  0  0  0  0  0  0  0  0
   40.4739   32.8972   45.2764 H   0  0  0  0  0  0  0  0  0  0  0  0
   41.0026   32.3167   46.8306 H   0  0  0  0  0  0  0  0  0  0  0  0
   38.5201   29.7032   45.2614 H   0  0  0  0  0  0  0  0  0  0  0  0
   38.9694   30.7736   43.9075 H   0  0  0  0  0  0  0  0  0  0  0  0
   36.7979   31.2038   47.0090 H   0  0  0  0  0  0  0  0  0  0  0  0
  1  2  1  0
  1  6  1  0
  3  1  1  0
  3  2  1  0
  4  9  2  0
  5  6  2  0
  5  4  1  0
  6  7  1  0
  7  8  2  0
  9  8  1  0
 10 15  1  0
 10 11  1  0
 11 12  1  0
 11  3  1  0
 13 12  1  0
 14 10  1  0
 14 13  1  0
  1 16  1  6
  2 17  1  0
  2 18  1  0
  3 19  1  1
  4 20  1  0
  5 21  1  0
  8 22  1  0
 10 23  1  6
 11 24  1  1
 12 25  1  0
 12 26  1  0
 14 27  1  0
 14 28  1  0
 15 29  1  0
M  ISO  8  16  13  17  13  18  13  19  13  20  14  21  14  22  14  23  13
M  ISO  6  24  13  25  13  26  13  27  13  28  13  29   3
M  END
>  <minimizedAffinity>  (1) 
-5.43978357

>  <minimizedRMSD>  (1) 
3.16679406

$$$$
