
     RDKit          3D

 39 42  0  0  1  0  0  0  0  0999 V2000
   38.5350   31.5900   45.3110 C   0  0  1  0  0  0  0  0  0  0  0  0
   38.7360   32.5490   46.4060 C   0  0  2  0  0  0  0  0  0  0  0  0
   40.1370   33.1320   46.1000 C   0  0  0  0  0  0  0  0  0  0  0  0
   40.8140   32.0040   45.7200 O   0  0  0  0  0  0  0  0  0  0  0  0
   39.9810   31.1890   44.9990 C   0  0  0  0  0  0  0  0  0  0  0  0
   37.5960   32.4330   48.7350 C   0  0  1  0  0  0  0  0  0  0  0  0
   38.8630   33.1080   48.8630 C   0  0  0  0  0  0  0  0  0  0  0  0
   38.7230   31.9970   47.8050 C   0  0  2  0  0  0  0  0  0  0  0  0
   35.5290   29.7920   50.4030 C   0  0  0  0  0  0  0  0  0  0  0  0
   35.9060   30.7990   49.4940 C   0  0  0  0  0  0  0  0  0  0  0  0
   37.1600   31.3620   49.6520 C   0  0  0  0  0  0  0  0  0  0  0  0
   37.9680   30.9160   50.6780 N   0  0  0  0  0  0  0  0  0  0  0  0
   37.5780   29.9490   51.5360 C   0  0  0  0  0  0  0  0  0  0  0  0
   36.3440   29.3740   51.4040 N   0  0  0  0  0  0  0  0  0  0  0  0
   37.8130   30.4480   45.6420 O   0  0  0  0  0  0  0  0  0  0  0  0
   37.2040   31.0430   42.6920 Cl  0  0  0  0  0  0  0  0  0  0  0  0
   36.1030   30.6130   44.0040 C   0  0  0  0  0  0  0  0  0  0  0  0
   36.4640   30.3850   45.3390 C   0  0  0  0  0  0  0  0  0  0  0  0
   35.3970   30.1340   46.1700 C   0  0  0  0  0  0  0  0  0  0  0  0
   34.0800   30.0980   45.7750 C   0  0  0  0  0  0  0  0  0  0  0  0
   33.7640   30.3240   44.4640 C   0  0  0  0  0  0  0  0  0  0  0  0
   34.7950   30.5850   43.5700 C   0  0  0  0  0  0  0  0  0  0  0  0
   37.9484   32.0394   44.4962 H   0  0  0  0  0  0  0  0  0  0  0  0
   37.8965   33.2597   46.4200 H   0  0  0  0  0  0  0  0  0  0  0  0
   40.0975   33.8721   45.2872 H   0  0  0  0  0  0  0  0  0  0  0  0
   40.5954   33.6736   46.9405 H   0  0  0  0  0  0  0  0  0  0  0  0
   40.1469   30.1398   45.2848 H   0  0  0  0  0  0  0  0  0  0  0  0
   40.1820   31.2950   43.9227 H   0  0  0  0  0  0  0  0  0  0  0  0
   36.5810   32.8499   48.6581 H   0  0  0  0  0  0  0  0  0  0  0  0
   38.9577   34.1566   48.5445 H   0  0  0  0  0  0  0  0  0  0  0  0
   39.5554   33.2931   49.6975 H   0  0  0  0  0  0  0  0  0  0  0  0
   39.1742   31.0277   47.5465 H   0  0  0  0  0  0  0  0  0  0  0  0
   34.5376   29.3272   50.2978 H   0  0  0  0  0  0  0  0  0  0  0  0
   35.2301   31.1253   48.6898 H   0  0  0  0  0  0  0  0  0  0  0  0
   38.2529   29.6236   52.3414 H   0  0  0  0  0  0  0  0  0  0  0  0
   35.6137   29.9477   47.2322 H   0  0  0  0  0  0  0  0  0  0  0  0
   33.2870   29.8890   46.5081 H   0  0  0  0  0  0  0  0  0  0  0  0
   32.7178   30.2997   44.1250 H   0  0  0  0  0  0  0  0  0  0  0  0
   34.5662   30.7703   42.5101 H   0  0  0  0  0  0  0  0  0  0  0  0
  1 15  1  0
  1  2  1  0
  2  8  1  0
  3  2  1  0
  4  3  1  0
  5  1  1  0
  5  4  1  0
  6  7  1  0
  6 11  1  0
  8  6  1  0
  8  7  1  0
  9 14  2  0
 10 11  2  0
 10  9  1  0
 11 12  1  0
 12 13  2  0
 14 13  1  0
 16 17  1  0
 17 18  2  0
 18 15  1  0
 18 19  1  0
 20 19  2  0
 21 20  1  0
 22 17  1  0
 22 21  2  0
  1 23  1  6
  2 24  1  1
  3 25  1  0
  3 26  1  0
  5 27  1  0
  5 28  1  0
  6 29  1  6
  7 30  1  0
  7 31  1  0
  8 32  1  6
  9 33  1  0
 10 34  1  0
 13 35  1  0
 19 36  1  0
 20 37  1  0
 21 38  1  0
 22 39  1  0
M  ISO  8  23  13  24  13  25  13  26  13  27  13  28  13  29  13  30  13
M  ISO  8  31  13  32  13  33  14  34  14  35  14  36  14  37  14  38  14
M  ISO  1  39  14
M  END
>  <minimizedAffinity>  (1) 
-5.6402173

>  <minimizedRMSD>  (1) 
1.43005478

$$$$
