
     RDKit          3D

 36 39  0  0  1  0  0  0  0  0999 V2000
   38.4290   31.4490   45.3840 C   0  0  1  0  0  0  0  0  0  0  0  0
   38.8650   32.4140   46.4250 C   0  0  2  0  0  0  0  0  0  0  0  0
   40.3220   32.6770   46.0490 C   0  0  0  0  0  0  0  0  0  0  0  0
   40.7410   31.4280   45.6840 O   0  0  0  0  0  0  0  0  0  0  0  0
   39.7280   30.7520   45.0280 C   0  0  0  0  0  0  0  0  0  0  0  0
   37.5730   32.3540   48.6960 C   0  0  1  0  0  0  0  0  0  0  0  0
   38.7910   33.1020   48.8550 C   0  0  0  0  0  0  0  0  0  0  0  0
   38.7830   31.9320   47.8610 C   0  0  2  0  0  0  0  0  0  0  0  0
   35.5490   29.6700   50.3370 C   0  0  0  0  0  0  0  0  0  0  0  0
   35.9320   30.6380   49.4190 C   0  0  0  0  0  0  0  0  0  0  0  0
   37.1250   31.3030   49.6380 C   0  0  0  0  0  0  0  0  0  0  0  0
   37.8700   30.9740   50.7490 N   0  0  0  0  0  0  0  0  0  0  0  0
   37.4750   30.0270   51.6290 C   0  0  0  0  0  0  0  0  0  0  0  0
   36.2940   29.3600   51.4250 N   0  0  0  0  0  0  0  0  0  0  0  0
   37.4880   30.5270   45.8110 O   0  0  0  0  0  0  0  0  0  0  0  0
   36.1960   30.4330   45.2570 C   0  0  0  0  0  0  0  0  0  0  0  0
   35.0130   29.9150   45.7420 C   0  0  0  0  0  0  0  0  0  0  0  0
   34.0480   30.0630   44.8280 N   0  0  0  0  0  0  0  0  0  0  0  0
   34.5900   30.6710   43.7540 C   0  0  0  0  0  0  0  0  0  0  0  0
   35.9070   30.9020   44.0070 N   0  0  0  0  0  0  0  0  0  0  0  0
   37.9232   31.9600   44.5515 H   0  0  0  0  0  0  0  0  0  0  0  0
   38.1983   33.2889   46.4256 H   0  0  0  0  0  0  0  0  0  0  0  0
   40.3988   33.3867   45.2121 H   0  0  0  0  0  0  0  0  0  0  0  0
   40.9173   33.1312   46.8548 H   0  0  0  0  0  0  0  0  0  0  0  0
   39.6973   29.7034   45.3588 H   0  0  0  0  0  0  0  0  0  0  0  0
   39.8919   30.7574   43.9403 H   0  0  0  0  0  0  0  0  0  0  0  0
   36.5446   32.7125   48.5414 H   0  0  0  0  0  0  0  0  0  0  0  0
   38.8491   34.1347   48.4806 H   0  0  0  0  0  0  0  0  0  0  0  0
   39.4185   33.3716   49.7173 H   0  0  0  0  0  0  0  0  0  0  0  0
   39.2989   30.9762   47.6870 H   0  0  0  0  0  0  0  0  0  0  0  0
   34.6027   29.1332   50.1745 H   0  0  0  0  0  0  0  0  0  0  0  0
   35.3062   30.8692   48.5444 H   0  0  0  0  0  0  0  0  0  0  0  0
   38.0979   29.7924   52.5048 H   0  0  0  0  0  0  0  0  0  0  0  0
   34.8831   29.4506   46.7307 H   0  0  0  0  0  0  0  0  0  0  0  0
   33.0668   29.7658   44.9270 H   0  0  0  0  0  0  0  0  0  0  0  0
   34.0574   30.9359   42.8287 H   0  0  0  0  0  0  0  0  0  0  0  0
  1 15  1  0
  1  2  1  0
  2  8  1  0
  3  2  1  0
  4  3  1  0
  5  1  1  0
  5  4  1  0
  6  7  1  0
  6 11  1  0
  8  6  1  0
  8  7  1  0
  9 14  2  0
 10 11  2  0
 10  9  1  0
 11 12  1  0
 12 13  2  0
 14 13  1  0
 16 17  2  0
 16 15  1  0
 18 17  1  0
 19 20  2  0
 19 18  1  0
 20 16  1  0
  1 21  1  6
  2 22  1  1
  3 23  1  0
  3 24  1  0
  5 25  1  0
  5 26  1  0
  6 27  1  6
  7 28  1  0
  7 29  1  0
  8 30  1  1
  9 31  1  0
 10 32  1  0
 13 33  1  0
 17 34  1  0
 18 35  1  0
 19 36  1  0
M  ISO  8  21  13  22  13  23  13  24  13  25  13  26  13  27  13  28  13
M  ISO  8  29  13  30  13  31  14  32  14  33  14  34  14  35   9  36  14
M  END
>  <minimizedAffinity>  (1) 
-5.3520422

>  <minimizedRMSD>  (1) 
0.917690516

$$$$
