
     RDKit          3D

 35 37  0  0  1  0  0  0  0  0999 V2000
   37.5840   32.3830   48.7470 C   0  0  1  0  0  0  0  0  0  0  0  0
   38.8310   33.0720   48.9430 C   0  0  0  0  0  0  0  0  0  0  0  0
   38.7800   31.9310   47.9090 C   0  0  2  0  0  0  0  0  0  0  0  0
   38.1760   31.6840   45.4500 C   0  0  1  0  0  0  0  0  0  0  0  0
   38.8820   32.4500   46.4940 C   0  0  2  0  0  0  0  0  0  0  0  0
   40.3480   32.3760   46.0370 C   0  0  0  0  0  0  0  0  0  0  0  0
   40.4250   31.0910   45.5890 O   0  0  0  0  0  0  0  0  0  0  0  0
   39.2400   30.7120   44.9810 C   0  0  0  0  0  0  0  0  0  0  0  0
   37.0620   31.0020   45.9050 O   0  0  0  0  0  0  0  0  0  0  0  0
   36.3910   30.4820   44.8120 C   0  0  0  0  0  0  0  0  0  0  0  0
   35.0360   29.9310   45.1020 C   0  0  0  0  0  0  0  0  0  0  0  0
   35.4300   29.7400   50.2880 C   0  0  0  0  0  0  0  0  0  0  0  0
   35.8680   30.7140   49.3980 C   0  0  0  0  0  0  0  0  0  0  0  0
   37.0820   31.3280   49.6500 C   0  0  0  0  0  0  0  0  0  0  0  0
   37.7910   30.9400   50.7680 N   0  0  0  0  0  0  0  0  0  0  0  0
   37.3460   29.9900   51.6200 C   0  0  0  0  0  0  0  0  0  0  0  0
   36.1440   29.3760   51.3800 N   0  0  0  0  0  0  0  0  0  0  0  0
   36.5747   32.7923   48.5931 H   0  0  0  0  0  0  0  0  0  0  0  0
   38.9387   34.1124   48.6023 H   0  0  0  0  0  0  0  0  0  0  0  0
   39.4603   33.2869   49.8193 H   0  0  0  0  0  0  0  0  0  0  0  0
   39.2592   30.9610   47.7103 H   0  0  0  0  0  0  0  0  0  0  0  0
   37.7727   32.3448   44.6685 H   0  0  0  0  0  0  0  0  0  0  0  0
   38.4341   33.4518   46.5693 H   0  0  0  0  0  0  0  0  0  0  0  0
   40.5553   33.0961   45.2317 H   0  0  0  0  0  0  0  0  0  0  0  0
   41.0772   32.6230   46.8227 H   0  0  0  0  0  0  0  0  0  0  0  0
   38.9734   29.6868   45.2775 H   0  0  0  0  0  0  0  0  0  0  0  0
   39.3355   30.7302   43.8853 H   0  0  0  0  0  0  0  0  0  0  0  0
   37.0044   29.6724   44.3898 H   0  0  0  0  0  0  0  0  0  0  0  0
   36.2368   31.3231   44.1200 H   0  0  0  0  0  0  0  0  0  0  0  0
   34.8897   29.8715   46.1906 H   0  0  0  0  0  0  0  0  0  0  0  0
   34.2711   30.5895   44.6647 H   0  0  0  0  0  0  0  0  0  0  0  0
   34.9477   28.9255   44.6647 H   0  0  0  0  0  0  0  0  0  0  0  0
   34.4659   29.2456   50.0980 H   0  0  0  0  0  0  0  0  0  0  0  0
   35.2667   30.9886   48.5188 H   0  0  0  0  0  0  0  0  0  0  0  0
   37.9442   29.7113   52.5001 H   0  0  0  0  0  0  0  0  0  0  0  0
  1  2  1  0
  1 14  1  0
  3  1  1  0
  3  2  1  0
  4  9  1  0
  4  5  1  0
  5  3  1  0
  6  5  1  0
  7  6  1  0
  8  4  1  0
  8  7  1  0
 10 11  1  0
 10  9  1  0
 12 17  2  0
 13 14  2  0
 13 12  1  0
 14 15  1  0
 15 16  2  0
 17 16  1  0
  1 18  1  6
  2 19  1  0
  2 20  1  0
  3 21  1  1
  4 22  1  6
  5 23  1  1
  6 24  1  0
  6 25  1  0
  8 26  1  0
  8 27  1  0
 10 28  1  0
 10 29  1  0
 11 30  1  0
 11 31  1  0
 11 32  1  0
 12 33  1  0
 13 34  1  0
 16 35  1  0
M  ISO  8  18  13  19  13  20  13  21  13  22  13  23  13  24  13  25  13
M  ISO  8  26  13  27  13  28   8  29   8  30   8  31   8  32   8  33  14
M  ISO  2  34  14  35  14
M  END
>  <minimizedAffinity>  (1) 
-5.1193552

>  <minimizedRMSD>  (1) 
0.474551529

$$$$
