
     RDKit          3D

 32 34  0  0  0  0  0  0  0  0999 V2000
   37.8630   30.6800   47.2490 F   0  0  0  0  0  0  0  0  0  0  0  0
   38.3990   31.8170   47.8140 C   0  0  0  0  0  0  0  0  0  0  0  0
   39.1950   32.6790   47.0930 C   0  0  0  0  0  0  0  0  0  0  0  0
   39.7210   33.8200   47.6990 C   0  0  0  0  0  0  0  0  0  0  0  0
   39.4210   34.0650   49.0520 C   0  0  0  0  0  0  0  0  0  0  0  0
   38.6170   33.1630   49.7210 C   0  0  0  0  0  0  0  0  0  0  0  0
   38.0970   32.0470   49.1430 C   0  0  0  0  0  0  0  0  0  0  0  0
   40.5140   31.4590   45.5150 C   0  0  0  0  0  0  0  0  0  0  0  0
   39.4370   32.3360   45.7300 C   0  0  0  0  0  0  0  0  0  0  0  0
   38.7280   32.7730   44.5970 C   0  0  0  0  0  0  0  0  0  0  0  0
   39.1360   32.3140   43.3680 N   0  0  0  0  0  0  0  0  0  0  0  0
   40.1670   31.4800   43.2140 C   0  0  0  0  0  0  0  0  0  0  0  0
   40.8650   31.0450   44.2830 N   0  0  0  0  0  0  0  0  0  0  0  0
   37.2850   31.2040   49.9520 N   0  0  0  0  0  0  0  0  0  0  0  0
   35.8910   30.8580   49.7520 C   0  0  0  0  0  0  0  0  0  0  0  0
   35.9490   29.3460   49.7880 C   0  0  0  0  0  0  0  0  0  0  0  0
   37.1760   29.0260   50.6550 C   0  0  0  0  0  0  0  0  0  0  0  0
   37.4860   30.4350   51.1630 C   0  0  0  0  0  0  0  0  0  0  0  0
   40.3575   34.5143   47.1308 H   0  0  0  0  0  0  0  0  0  0  0  0
   39.8175   34.9539   49.5646 H   0  0  0  0  0  0  0  0  0  0  0  0
   38.3847   33.3577   50.7784 H   0  0  0  0  0  0  0  0  0  0  0  0
   41.0886   31.0993   46.3813 H   0  0  0  0  0  0  0  0  0  0  0  0
   37.8743   33.4602   44.6916 H   0  0  0  0  0  0  0  0  0  0  0  0
   40.4500   31.1443   42.2054 H   0  0  0  0  0  0  0  0  0  0  0  0
   35.5211   31.2232   48.7826 H   0  0  0  0  0  0  0  0  0  0  0  0
   35.2080   31.2990   50.4929 H   0  0  0  0  0  0  0  0  0  0  0  0
   35.0354   28.9330   50.2405 H   0  0  0  0  0  0  0  0  0  0  0  0
   36.0231   28.9072   48.7820 H   0  0  0  0  0  0  0  0  0  0  0  0
   36.9318   28.3362   51.4763 H   0  0  0  0  0  0  0  0  0  0  0  0
   38.0023   28.5186   50.1355 H   0  0  0  0  0  0  0  0  0  0  0  0
   38.5204   30.5163   51.5284 H   0  0  0  0  0  0  0  0  0  0  0  0
   36.8737   30.7585   52.0177 H   0  0  0  0  0  0  0  0  0  0  0  0
  1  2  1  0
  2  7  2  0
  3  4  2  0
  3  2  1  0
  4  5  1  0
  5  6  2  0
  7  6  1  0
  7 14  1  0
  8  9  2  0
  9  3  1  0
 10  9  1  0
 11 10  2  0
 12 11  1  0
 12 13  2  0
 13  8  1  0
 14 18  1  0
 15 16  1  0
 15 14  1  0
 16 17  1  0
 17 18  1  0
  4 19  1  0
  5 20  1  0
  6 21  1  0
  8 22  1  0
 10 23  1  0
 12 24  1  0
 15 25  1  0
 15 26  1  0
 16 27  1  0
 16 28  1  0
 17 29  1  0
 17 30  1  0
 18 31  1  0
 18 32  1  0
M  ISO  8  19  14  20  14  21  14  22  14  23  14  24  14  25  13  26  13
M  ISO  6  27  13  28  13  29  13  30  13  31  13  32  13
M  END
>  <minimizedAffinity>  (1) 
-6.38921309

>  <minimizedRMSD>  (1) 
5.24758911

$$$$
