
     RDKit          3D

 23 24  0  0  0  0  0  0  0  0999 V2000
   36.8130   32.1800   49.8900 F   0  0  0  0  0  0  0  0  0  0  0  0
   37.5290   31.9020   48.7520 C   0  0  0  0  0  0  0  0  0  0  0  0
   37.1850   30.8640   47.8890 C   0  0  0  0  0  0  0  0  0  0  0  0
   37.9500   30.6470   46.7680 C   0  0  0  0  0  0  0  0  0  0  0  0
   39.0570   31.4310   46.4710 C   0  0  0  0  0  0  0  0  0  0  0  0
   39.3560   32.4600   47.3730 C   0  0  0  0  0  0  0  0  0  0  0  0
   38.6190   32.7010   48.4900 C   0  0  0  0  0  0  0  0  0  0  0  0
   36.2350   29.1930   49.3020 C   0  0  0  0  0  0  0  0  0  0  0  0
   36.0310   30.0940   48.2570 C   0  0  0  0  0  0  0  0  0  0  0  0
   34.7600   30.1540   47.6920 C   0  0  0  0  0  0  0  0  0  0  0  0
   33.7960   29.3280   48.1960 N   0  0  0  0  0  0  0  0  0  0  0  0
   34.0250   28.4740   49.2000 C   0  0  0  0  0  0  0  0  0  0  0  0
   35.2380   28.4030   49.7550 N   0  0  0  0  0  0  0  0  0  0  0  0
   38.9840   33.8090   49.4140 C   0  0  0  0  0  0  0  0  0  0  0  0
   37.6773   29.8282   46.0860 H   0  0  0  0  0  0  0  0  0  0  0  0
   39.6677   31.2531   45.5735 H   0  0  0  0  0  0  0  0  0  0  0  0
   40.2257   33.1017   47.1687 H   0  0  0  0  0  0  0  0  0  0  0  0
   37.2295   29.1245   49.7671 H   0  0  0  0  0  0  0  0  0  0  0  0
   34.5390   30.8452   46.8653 H   0  0  0  0  0  0  0  0  0  0  0  0
   33.2135   27.8295   49.5689 H   0  0  0  0  0  0  0  0  0  0  0  0
   38.8725   33.4704   50.4546 H   0  0  0  0  0  0  0  0  0  0  0  0
   40.0277   34.1068   49.2352 H   0  0  0  0  0  0  0  0  0  0  0  0
   38.3216   34.6688   49.2352 H   0  0  0  0  0  0  0  0  0  0  0  0
  2  1  1  0
  3  9  1  0
  3  2  2  0
  4  3  1  0
  5  4  2  0
  5  6  1  0
  6  7  2  0
  7  2  1  0
  7 14  1  0
  8 13  2  0
  9  8  1  0
 10 11  1  0
 10  9  2  0
 11 12  2  0
 12 13  1  0
  4 15  1  0
  5 16  1  0
  6 17  1  0
  8 18  1  0
 10 19  1  0
 12 20  1  0
 14 21  1  0
 14 22  1  0
 14 23  1  0
M  ISO  8  15  14  16  14  17  14  18  14  19  14  20  14  21   8  22   8
M  ISO  1  23   8
M  END
>  <minimizedAffinity>  (1) 
-5.65289783

>  <minimizedRMSD>  (1) 
0.604501665

$$$$
