
     RDKit          3D

 28 29  0  0  1  0  0  0  0  0999 V2000
   38.6850   31.7790   47.9440 C   0  0  1  0  0  0  0  0  0  0  0  0
   37.9190   30.4550   47.7950 C   0  0  2  0  0  0  0  0  0  0  0  0
   37.0350   30.9010   46.6500 C   0  0  0  0  0  0  0  0  0  0  0  0
   37.8910   31.5290   45.7600 O   0  0  0  0  0  0  0  0  0  0  0  0
   38.9680   32.0170   46.4470 C   0  0  0  0  0  0  0  0  0  0  0  0
   37.2040   30.0980   49.0200 C   0  0  0  0  0  0  0  0  0  0  0  0
   37.9040   29.9380   50.2360 C   0  0  0  0  0  0  0  0  0  0  0  0
   37.1380   29.5740   51.3480 C   0  0  0  0  0  0  0  0  0  0  0  0
   35.7860   29.3950   51.2150 N   0  0  0  0  0  0  0  0  0  0  0  0
   35.1600   29.5610   50.0250 C   0  0  0  0  0  0  0  0  0  0  0  0
   35.8740   29.9130   48.9310 N   0  0  0  0  0  0  0  0  0  0  0  0
   37.8740   32.8010   48.3310 O   0  0  0  0  0  0  0  0  0  0  0  0
   38.4240   33.4520   49.4100 C   0  0  0  0  0  0  0  0  0  0  0  0
   39.6060   34.3220   49.0830 C   0  0  0  0  0  0  0  0  0  0  0  0
   39.5184   31.7389   48.6608 H   0  0  0  0  0  0  0  0  0  0  0  0
   38.4974   29.5367   47.6157 H   0  0  0  0  0  0  0  0  0  0  0  0
   36.5510   30.0348   46.1751 H   0  0  0  0  0  0  0  0  0  0  0  0
   36.2274   31.5675   46.9868 H   0  0  0  0  0  0  0  0  0  0  0  0
   39.8825   31.4855   46.1451 H   0  0  0  0  0  0  0  0  0  0  0  0
   39.1183   33.0865   46.2384 H   0  0  0  0  0  0  0  0  0  0  0  0
   38.9911   30.0911   50.3047 H   0  0  0  0  0  0  0  0  0  0  0  0
   37.6195   29.4318   52.3267 H   0  0  0  0  0  0  0  0  0  0  0  0
   34.0731   29.4099   49.9484 H   0  0  0  0  0  0  0  0  0  0  0  0
   37.6462   34.0859   49.8607 H   0  0  0  0  0  0  0  0  0  0  0  0
   38.7925   32.6699   50.0901 H   0  0  0  0  0  0  0  0  0  0  0  0
   40.0759   34.6678   50.0155 H   0  0  0  0  0  0  0  0  0  0  0  0
   40.3358   33.7440   48.4971 H   0  0  0  0  0  0  0  0  0  0  0  0
   39.2710   35.1906   48.4971 H   0  0  0  0  0  0  0  0  0  0  0  0
  1 12  1  0
  2  1  1  0
  2  6  1  0
  3  2  1  0
  4  5  1  0
  4  3  1  0
  5  1  1  0
  6  7  2  0
  7  8  1  0
  9  8  2  0
 10  9  1  0
 11  6  1  0
 11 10  2  0
 12 13  1  0
 14 13  1  0
  1 15  1  1
  2 16  1  6
  3 17  1  0
  3 18  1  0
  5 19  1  0
  5 20  1  0
  7 21  1  0
  8 22  1  0
 10 23  1  0
 13 24  1  0
 13 25  1  0
 14 26  1  0
 14 27  1  0
 14 28  1  0
M  ISO  8  15  13  16  13  17  13  18  13  19  13  20  13  21  14  22  14
M  ISO  6  23  14  24   8  25   8  26   8  27   8  28   8
M  END
>  <minimizedAffinity>  (1) 
-4.74875879

>  <minimizedRMSD>  (1) 
0.669487238

$$$$
