
     RDKit          3D

 24 25  0  0  1  0  0  0  0  0999 V2000
   38.7250   31.7580   47.9370 C   0  0  1  0  0  0  0  0  0  0  0  0
   37.9310   30.4510   47.8060 C   0  0  2  0  0  0  0  0  0  0  0  0
   37.0180   30.9350   46.7020 C   0  0  0  0  0  0  0  0  0  0  0  0
   37.8480   31.5560   45.7890 O   0  0  0  0  0  0  0  0  0  0  0  0
   38.9750   31.9900   46.4400 C   0  0  0  0  0  0  0  0  0  0  0  0
   37.2400   30.0970   49.0530 C   0  0  0  0  0  0  0  0  0  0  0  0
   37.9420   30.0910   50.2680 C   0  0  0  0  0  0  0  0  0  0  0  0
   37.2270   29.7240   51.4120 C   0  0  0  0  0  0  0  0  0  0  0  0
   35.9100   29.3960   51.2920 N   0  0  0  0  0  0  0  0  0  0  0  0
   35.2560   29.4130   50.0880 C   0  0  0  0  0  0  0  0  0  0  0  0
   35.9400   29.7670   48.9730 N   0  0  0  0  0  0  0  0  0  0  0  0
   37.9670   32.7960   48.3750 O   0  0  0  0  0  0  0  0  0  0  0  0
   38.4120   33.6880   49.3500 C   0  0  0  0  0  0  0  0  0  0  0  0
   39.5840   34.1820   49.4030 O   0  0  0  0  0  0  0  0  0  0  0  0
   39.5792   31.6981   48.6275 H   0  0  0  0  0  0  0  0  0  0  0  0
   38.4861   29.5234   47.6025 H   0  0  0  0  0  0  0  0  0  0  0  0
   36.4962   30.0872   46.2340 H   0  0  0  0  0  0  0  0  0  0  0  0
   36.2419   31.6164   47.0806 H   0  0  0  0  0  0  0  0  0  0  0  0
   39.8521   31.4157   46.1069 H   0  0  0  0  0  0  0  0  0  0  0  0
   39.1754   33.0506   46.2281 H   0  0  0  0  0  0  0  0  0  0  0  0
   39.0067   30.3628   50.3181 H   0  0  0  0  0  0  0  0  0  0  0  0
   37.7206   29.7004   52.3948 H   0  0  0  0  0  0  0  0  0  0  0  0
   34.1913   29.1432   50.0274 H   0  0  0  0  0  0  0  0  0  0  0  0
   37.6975   33.9869   50.1311 H   0  0  0  0  0  0  0  0  0  0  0  0
  1 12  1  0
  2  1  1  0
  2  6  1  0
  3  2  1  0
  4  5  1  0
  4  3  1  0
  5  1  1  0
  6  7  2  0
  7  8  1  0
  9  8  2  0
 10  9  1  0
 11  6  1  0
 11 10  2  0
 12 13  1  0
 13 14  2  0
  1 15  1  1
  2 16  1  6
  3 17  1  0
  3 18  1  0
  5 19  1  0
  5 20  1  0
  7 21  1  0
  8 22  1  0
 10 23  1  0
 13 24  1  0
M  ISO  8  15  13  16  13  17  13  18  13  19  13  20  13  21  14  22  14
M  ISO  2  23  14  24   6
M  END
>  <minimizedAffinity>  (1) 
-4.68959856

>  <minimizedRMSD>  (1) 
0.801669717

$$$$
