
     RDKit          3D

 25 26  0  0  1  0  0  0  0  0999 V2000
   38.7950   31.8360   48.0780 C   0  0  1  0  0  0  0  0  0  0  0  0
   37.9850   30.5450   47.8890 C   0  0  2  0  0  0  0  0  0  0  0  0
   37.0890   31.0750   46.7900 C   0  0  0  0  0  0  0  0  0  0  0  0
   37.9340   31.7370   45.9150 O   0  0  0  0  0  0  0  0  0  0  0  0
   39.0550   32.1300   46.5920 C   0  0  0  0  0  0  0  0  0  0  0  0
   37.2820   30.1530   49.1130 C   0  0  0  0  0  0  0  0  0  0  0  0
   37.9460   30.1680   50.3490 C   0  0  0  0  0  0  0  0  0  0  0  0
   37.2120   29.7610   51.4680 C   0  0  0  0  0  0  0  0  0  0  0  0
   35.9070   29.3740   51.3070 N   0  0  0  0  0  0  0  0  0  0  0  0
   35.3020   29.3730   50.0900 C   0  0  0  0  0  0  0  0  0  0  0  0
   35.9980   29.7650   48.9980 N   0  0  0  0  0  0  0  0  0  0  0  0
   38.0360   32.8660   48.5430 O   0  0  0  0  0  0  0  0  0  0  0  0
   38.8530   33.7090   49.2980 C   0  0  0  0  0  0  0  0  0  0  0  0
   39.6433   31.7366   48.7712 H   0  0  0  0  0  0  0  0  0  0  0  0
   38.5310   29.6190   47.6557 H   0  0  0  0  0  0  0  0  0  0  0  0
   36.5766   30.2471   46.2782 H   0  0  0  0  0  0  0  0  0  0  0  0
   36.3061   31.7393   47.1847 H   0  0  0  0  0  0  0  0  0  0  0  0
   39.9294   31.5630   46.2401 H   0  0  0  0  0  0  0  0  0  0  0  0
   39.2635   33.1977   46.4290 H   0  0  0  0  0  0  0  0  0  0  0  0
   38.9958   30.4853   50.4341 H   0  0  0  0  0  0  0  0  0  0  0  0
   37.6764   29.7516   52.4651 H   0  0  0  0  0  0  0  0  0  0  0  0
   34.2532   29.0555   49.9934 H   0  0  0  0  0  0  0  0  0  0  0  0
   38.6772   33.5276   50.3686 H   0  0  0  0  0  0  0  0  0  0  0  0
   39.9078   33.5068   49.0602 H   0  0  0  0  0  0  0  0  0  0  0  0
   38.6179   34.7569   49.0602 H   0  0  0  0  0  0  0  0  0  0  0  0
  1 12  1  0
  2  1  1  0
  2  6  1  0
  3  2  1  0
  4  5  1  0
  4  3  1  0
  5  1  1  0
  6  7  2  0
  7  8  1  0
  9  8  2  0
 10  9  1  0
 11  6  1  0
 11 10  2  0
 12 13  1  0
  1 14  1  1
  2 15  1  6
  3 16  1  0
  3 17  1  0
  5 18  1  0
  5 19  1  0
  7 20  1  0
  8 21  1  0
 10 22  1  0
 13 23  1  0
 13 24  1  0
 13 25  1  0
M  ISO  8  14  13  15  13  16  13  17  13  18  13  19  13  20  14  21  14
M  ISO  4  22  14  23   8  24   8  25   8
M  END
>  <minimizedAffinity>  (1) 
-4.67210293

>  <minimizedRMSD>  (1) 
0.687532067

$$$$
