
     RDKit          3D

 32 34  0  0  1  0  0  0  0  0999 V2000
   38.1910   30.0640   44.4630 C   0  0  1  0  0  0  0  0  0  0  0  0
   37.1430   29.7050   43.3990 C   0  0  2  0  0  0  0  0  0  0  0  0
   37.7300   30.5250   42.2740 C   0  0  0  0  0  0  0  0  0  0  0  0
   39.0950   30.2970   42.3140 O   0  0  0  0  0  0  0  0  0  0  0  0
   39.4420   29.8910   43.5710 C   0  0  0  0  0  0  0  0  0  0  0  0
   35.7920   30.0910   43.8040 C   0  0  0  0  0  0  0  0  0  0  0  0
   35.2060   29.5440   44.9530 C   0  0  0  0  0  0  0  0  0  0  0  0
   33.9020   29.9520   45.2560 C   0  0  0  0  0  0  0  0  0  0  0  0
   33.2720   30.8470   44.4330 N   0  0  0  0  0  0  0  0  0  0  0  0
   33.8770   31.3520   43.3300 C   0  0  0  0  0  0  0  0  0  0  0  0
   35.1370   30.9690   43.0220 N   0  0  0  0  0  0  0  0  0  0  0  0
   38.1610   31.3850   44.7830 O   0  0  0  0  0  0  0  0  0  0  0  0
   37.9310   32.0940   48.3920 N   0  0  0  0  0  0  0  0  0  0  0  0
   37.6190   31.4790   47.2470 C   0  0  0  0  0  0  0  0  0  0  0  0
   38.2720   31.8360   46.0810 C   0  0  0  0  0  0  0  0  0  0  0  0
   39.2390   32.8380   46.1640 C   0  0  0  0  0  0  0  0  0  0  0  0
   39.9340   33.2970   45.2220 O   0  0  0  0  0  0  0  0  0  0  0  0
   39.5360   33.4470   47.3400 N   0  0  0  0  0  0  0  0  0  0  0  0
   38.8610   33.0520   48.4550 C   0  0  0  0  0  0  0  0  0  0  0  0
   39.0220   33.5180   49.6130 O   0  0  0  0  0  0  0  0  0  0  0  0
   38.0961   29.4965   45.4005 H   0  0  0  0  0  0  0  0  0  0  0  0
   36.9926   28.6400   43.1686 H   0  0  0  0  0  0  0  0  0  0  0  0
   37.5154   31.5931   42.4260 H   0  0  0  0  0  0  0  0  0  0  0  0
   37.3007   30.2437   41.3011 H   0  0  0  0  0  0  0  0  0  0  0  0
   39.7517   28.8356   43.5551 H   0  0  0  0  0  0  0  0  0  0  0  0
   40.2844   30.4840   43.9567 H   0  0  0  0  0  0  0  0  0  0  0  0
   35.7462   28.8265   45.5881 H   0  0  0  0  0  0  0  0  0  0  0  0
   33.3887   29.5580   46.1456 H   0  0  0  0  0  0  0  0  0  0  0  0
   33.3455   32.0701   42.6883 H   0  0  0  0  0  0  0  0  0  0  0  0
   37.4385   31.8206   49.2543 H   0  0  0  0  0  0  0  0  0  0  0  0
   36.8482   30.6943   47.2320 H   0  0  0  0  0  0  0  0  0  0  0  0
   40.2513   34.1866   47.3878 H   0  0  0  0  0  0  0  0  0  0  0  0
  1 12  1  0
  2  6  1  0
  2  1  1  0
  3  4  1  0
  3  2  1  0
  4  5  1  0
  5  1  1  0
  6  7  2  0
  7  8  1  0
  9  8  2  0
 10  9  1  0
 11 10  2  0
 11  6  1  0
 12 15  1  0
 13 19  1  0
 14 13  1  0
 15 16  1  0
 15 14  2  0
 16 18  1  0
 17 16  2  0
 18 19  1  0
 19 20  2  0
  1 21  1  1
  2 22  1  6
  3 23  1  0
  3 24  1  0
  5 25  1  0
  5 26  1  0
  7 27  1  0
  8 28  1  0
 10 29  1  0
 13 30  1  0
 14 31  1  0
 18 32  1  0
M  ISO  8  21  13  22  13  23  13  24  13  25  13  26  13  27  14  28  14
M  ISO  4  29  14  30   9  31  14  32   9
M  END
>  <minimizedAffinity>  (1) 
-4.33829641

>  <minimizedRMSD>  (1) 
4.82484865

$$$$
