
     RDKit          3D

 39 41  0  0  1  0  0  0  0  0999 V2000
   38.3870   30.3370   46.5310 C   0  0  1  0  0  0  0  0  0  0  0  0
   38.1250   30.7800   45.0850 C   0  0  2  0  0  0  0  0  0  0  0  0
   37.8340   32.2260   45.4250 C   0  0  0  0  0  0  0  0  0  0  0  0
   38.8320   32.6050   46.3070 O   0  0  0  0  0  0  0  0  0  0  0  0
   39.3180   31.4920   46.9350 C   0  0  0  0  0  0  0  0  0  0  0  0
   36.9940   30.0640   44.4810 C   0  0  0  0  0  0  0  0  0  0  0  0
   37.2220   29.1080   43.4810 C   0  0  0  0  0  0  0  0  0  0  0  0
   36.1030   28.4780   42.9290 C   0  0  0  0  0  0  0  0  0  0  0  0
   34.8670   28.8260   43.3860 N   0  0  0  0  0  0  0  0  0  0  0  0
   34.6740   29.7660   44.3670 C   0  0  0  0  0  0  0  0  0  0  0  0
   35.7560   30.3790   44.9050 N   0  0  0  0  0  0  0  0  0  0  0  0
   37.3020   30.3920   47.3230 O   0  0  0  0  0  0  0  0  0  0  0  0
   36.5120   31.5410   49.2960 C   0  0  1  0  0  0  0  0  0  0  0  0
   37.4900   30.5880   48.6600 C   0  0  1  0  0  0  0  0  0  0  0  0
   37.4000   29.3740   49.3790 O   0  0  0  0  0  0  0  0  0  0  0  0
   36.1320   28.8310   49.2230 C   0  0  0  0  0  0  0  0  0  0  0  0
   35.0730   29.6710   49.9090 C   0  0  1  0  0  0  0  0  0  0  0  0
   35.0950   31.0140   49.2180 C   0  0  2  0  0  0  0  0  0  0  0  0
   36.8840   31.6970   50.6300 O   0  0  0  0  0  0  0  0  0  0  0  0
   33.8140   29.1250   49.7930 O   0  0  0  0  0  0  0  0  0  0  0  0
   34.7740   30.8880   47.8610 O   0  0  0  0  0  0  0  0  0  0  0  0
   38.7441   29.3002   46.6176 H   0  0  0  0  0  0  0  0  0  0  0  0
   38.9104   30.6023   44.3356 H   0  0  0  0  0  0  0  0  0  0  0  0
   37.8651   32.8482   44.5184 H   0  0  0  0  0  0  0  0  0  0  0  0
   36.8326   32.3494   45.8632 H   0  0  0  0  0  0  0  0  0  0  0  0
   39.3028   31.6314   48.0260 H   0  0  0  0  0  0  0  0  0  0  0  0
   40.3600   31.2893   46.6466 H   0  0  0  0  0  0  0  0  0  0  0  0
   38.2404   28.8636   43.1445 H   0  0  0  0  0  0  0  0  0  0  0  0
   36.2175   27.7175   42.1425 H   0  0  0  0  0  0  0  0  0  0  0  0
   33.6596   30.0172   44.7103 H   0  0  0  0  0  0  0  0  0  0  0  0
   36.5340   32.5020   48.7612 H   0  0  0  0  0  0  0  0  0  0  0  0
   38.4974   31.0258   48.7183 H   0  0  0  0  0  0  0  0  0  0  0  0
   35.8995   28.7716   48.1495 H   0  0  0  0  0  0  0  0  0  0  0  0
   36.1282   27.8321   49.6836 H   0  0  0  0  0  0  0  0  0  0  0  0
   35.2905   29.7376   50.9852 H   0  0  0  0  0  0  0  0  0  0  0  0
   34.3654   31.6791   49.7031 H   0  0  0  0  0  0  0  0  0  0  0  0
   36.1482   31.3884   51.2160 H   0  0  0  0  0  0  0  0  0  0  0  0
   33.4402   28.9629   50.6953 H   0  0  0  0  0  0  0  0  0  0  0  0
   33.8563   30.5278   47.7711 H   0  0  0  0  0  0  0  0  0  0  0  0
  1  5  1  0
  1 12  1  0
  2  3  1  0
  2  1  1  0
  3  4  1  0
  4  5  1  0
  6 11  1  0
  6  2  1  0
  7  6  2  0
  8  9  2  0
  8  7  1  0
  9 10  1  0
 10 11  2  0
 13 19  1  0
 14 12  1  0
 14 13  1  0
 14 15  1  0
 16 15  1  0
 16 17  1  0
 17 20  1  0
 18 21  1  0
 18 13  1  0
 18 17  1  0
  1 22  1  6
  2 23  1  6
  3 24  1  0
  3 25  1  0
  5 26  1  0
  5 27  1  0
  7 28  1  0
  8 29  1  0
 10 30  1  0
 13 31  1  6
 14 32  1  6
 16 33  1  0
 16 34  1  0
 17 35  1  1
 18 36  1  1
 19 37  1  0
 20 38  1  0
 21 39  1  0
M  ISO  8  22  13  23  13  24  13  25  13  26  13  27  13  28  14  29  14
M  ISO  8  30  14  31  13  32  13  33  13  34  13  35  13  36  13  37   3
M  ISO  2  38   3  39   3
M  END
>  <minimizedAffinity>  (1) 
-4.12036896

>  <minimizedRMSD>  (1) 
4.16833162

$$$$
