
     RDKit          3D

 20 21  0  0  0  0  0  0  0  0999 V2000
   37.7820   30.6900   50.6090 C   0  0  0  0  0  0  0  0  0  0  0  0
   38.4580   31.6120   49.7840 C   0  0  0  0  0  0  0  0  0  0  0  0
   37.9290   31.8590   48.5000 C   0  0  0  0  0  0  0  0  0  0  0  0
   36.8030   31.1930   48.1410 N   0  0  0  0  0  0  0  0  0  0  0  0
   36.1860   30.3200   48.9600 C   0  0  0  0  0  0  0  0  0  0  0  0
   36.6690   30.0650   50.1900 N   0  0  0  0  0  0  0  0  0  0  0  0
   35.0030   29.6120   48.5990 N   0  0  0  0  0  0  0  0  0  0  0  0
   34.7470   29.4260   47.2910 C   0  0  0  0  0  0  0  0  0  0  0  0
   33.5850   28.7330   47.0190 C   0  0  0  0  0  0  0  0  0  0  0  0
   32.7230   28.2490   47.9820 C   0  0  0  0  0  0  0  0  0  0  0  0
   31.6670   27.6200   47.7120 O   0  0  0  0  0  0  0  0  0  0  0  0
   33.0330   28.4680   49.2930 N   0  0  0  0  0  0  0  0  0  0  0  0
   34.1730   29.1480   49.5520 C   0  0  0  0  0  0  0  0  0  0  0  0
   34.5010   29.3750   50.7590 O   0  0  0  0  0  0  0  0  0  0  0  0
   38.1733   30.4783   51.6150 H   0  0  0  0  0  0  0  0  0  0  0  0
   39.3687   32.1224   50.1305 H   0  0  0  0  0  0  0  0  0  0  0  0
   38.4134   32.5681   47.8126 H   0  0  0  0  0  0  0  0  0  0  0  0
   35.4133   29.7981   46.4988 H   0  0  0  0  0  0  0  0  0  0  0  0
   33.3287   28.5545   45.9643 H   0  0  0  0  0  0  0  0  0  0  0  0
   32.4249   28.1299   50.0525 H   0  0  0  0  0  0  0  0  0  0  0  0
  2  1  2  0
  3  2  1  0
  4  3  2  0
  4  5  1  0
  5  6  2  0
  6  1  1  0
  7  5  1  0
  7 13  1  0
  8  7  1  0
  9  8  2  0
  9 10  1  0
 10 12  1  0
 11 10  2  0
 12 13  1  0
 13 14  2  0
  1 15  1  0
  2 16  1  0
  3 17  1  0
  8 18  1  0
  9 19  1  0
 12 20  1  0
M  ISO  6  15  14  16  14  17  14  18  14  19  14  20   9
M  END
>  <minimizedAffinity>  (1) 
-4.69470692

>  <minimizedRMSD>  (1) 
1.81418192

$$$$
