
     RDKit          3D

 42 44  0  0  1  0  0  0  0  0999 V2000
   38.1300   30.7260   47.5910 O   0  0  0  0  0  0  0  0  0  0  0  0
   37.9230   30.5230   45.1610 C   0  0  2  0  0  0  0  0  0  0  0  0
   38.5420   31.1820   46.3780 C   0  0  2  0  0  0  0  0  0  0  0  0
   40.0240   31.1530   46.2030 C   0  0  0  0  0  0  0  0  0  0  0  0
   40.3800   31.2840   44.8900 O   0  0  0  0  0  0  0  0  0  0  0  0
   39.5420   32.1860   44.2640 C   0  0  0  0  0  0  0  0  0  0  0  0
   38.2280   31.4990   43.9950 C   0  0  2  0  0  0  0  0  0  0  0  0
   36.5770   30.3750   45.1580 O   0  0  0  0  0  0  0  0  0  0  0  0
   37.2560   32.5280   43.9890 O   0  0  0  0  0  0  0  0  0  0  0  0
   36.4240   32.7660   42.9020 C   0  0  0  0  0  0  0  0  0  0  0  0
   36.9020   33.2790   41.8470 O   0  0  0  0  0  0  0  0  0  0  0  0
   35.0860   32.3680   43.1720 N   0  0  0  0  0  0  0  0  0  0  0  0
   37.4450   31.6510   48.2700 C   0  0  1  0  0  0  0  0  0  0  0  0
   36.5910   31.1140   49.3900 C   0  0  2  0  0  0  0  0  0  0  0  0
   37.7220   30.5020   50.2310 C   0  0  0  0  0  0  0  0  0  0  0  0
   38.7500   31.4120   50.2230 O   0  0  0  0  0  0  0  0  0  0  0  0
   38.5120   32.2750   49.2280 C   0  0  0  0  0  0  0  0  0  0  0  0
   35.6470   30.0890   48.9250 C   0  0  0  0  0  0  0  0  0  0  0  0
   34.7520   30.4410   47.9120 C   0  0  0  0  0  0  0  0  0  0  0  0
   33.8390   29.4400   47.4950 C   0  0  0  0  0  0  0  0  0  0  0  0
   33.8860   28.2050   48.1000 N   0  0  0  0  0  0  0  0  0  0  0  0
   34.7740   27.9120   49.0790 C   0  0  0  0  0  0  0  0  0  0  0  0
   35.6460   28.8600   49.4800 N   0  0  0  0  0  0  0  0  0  0  0  0
   38.3377   29.5055   45.1091 H   0  0  0  0  0  0  0  0  0  0  0  0
   38.1726   32.2175   46.4146 H   0  0  0  0  0  0  0  0  0  0  0  0
   40.4671   31.9802   46.7769 H   0  0  0  0  0  0  0  0  0  0  0  0
   40.3932   30.1815   46.5634 H   0  0  0  0  0  0  0  0  0  0  0  0
   39.3801   33.0577   44.9151 H   0  0  0  0  0  0  0  0  0  0  0  0
   39.9909   32.5305   43.3207 H   0  0  0  0  0  0  0  0  0  0  0  0
   38.2396   30.9347   43.0508 H   0  0  0  0  0  0  0  0  0  0  0  0
   36.2469   30.3387   46.0906 H   0  0  0  0  0  0  0  0  0  0  0  0
   34.3583   32.4866   42.4528 H   0  0  0  0  0  0  0  0  0  0  0  0
   34.8444   31.9611   44.0868 H   0  0  0  0  0  0  0  0  0  0  0  0
   36.8871   32.2276   47.5175 H   0  0  0  0  0  0  0  0  0  0  0  0
   35.9404   31.8432   49.8949 H   0  0  0  0  0  0  0  0  0  0  0  0
   37.3776   30.3268   51.2609 H   0  0  0  0  0  0  0  0  0  0  0  0
   38.0444   29.5340   49.8198 H   0  0  0  0  0  0  0  0  0  0  0  0
   39.4421   32.4657   48.6726 H   0  0  0  0  0  0  0  0  0  0  0  0
   38.1394   33.2259   49.6367 H   0  0  0  0  0  0  0  0  0  0  0  0
   34.7555   31.4442   47.4607 H   0  0  0  0  0  0  0  0  0  0  0  0
   33.1057   29.6469   46.7016 H   0  0  0  0  0  0  0  0  0  0  0  0
   34.7843   26.9140   49.5414 H   0  0  0  0  0  0  0  0  0  0  0  0
  1 13  1  0
  2  3  1  0
  3  1  1  0
  4  3  1  0
  5  4  1  0
  6  5  1  0
  7  6  1  0
  7  2  1  0
  8  2  1  0
  9  7  1  0
 10 12  1  0
 10  9  1  0
 11 10  2  0
 13 17  1  0
 13 14  1  0
 14 15  1  0
 16 15  1  0
 17 16  1  0
 18 14  1  0
 18 23  1  0
 19 18  2  0
 20 19  1  0
 20 21  2  0
 21 22  1  0
 22 23  2  0
  2 24  1  6
  3 25  1  1
  4 26  1  0
  4 27  1  0
  6 28  1  0
  6 29  1  0
  7 30  1  6
  8 31  1  0
 12 32  1  0
 12 33  1  0
 13 34  1  6
 14 35  1  1
 15 36  1  0
 15 37  1  0
 17 38  1  0
 17 39  1  0
 19 40  1  0
 20 41  1  0
 22 42  1  0
M  ISO  8  24  13  25  13  26  13  27  13  28  13  29  13  30  13  31   3
M  ISO  8  34  13  35  13  36  13  37  13  38  13  39  13  40  14  41  14
M  ISO  1  42  14
M  END
>  <minimizedAffinity>  (1) 
-5.4412837

>  <minimizedRMSD>  (1) 
2.05717754

$$$$
