
     RDKit          3D

 49 52  0  0  1  0  0  0  0  0999 V2000
   38.3650   30.4230   44.9660 C   0  0  2  0  0  0  0  0  0  0  0  0
   38.9120   31.2280   46.1300 C   0  0  2  0  0  0  0  0  0  0  0  0
   40.4020   31.2070   46.0440 C   0  0  0  0  0  0  0  0  0  0  0  0
   40.8260   31.1770   44.7490 O   0  0  0  0  0  0  0  0  0  0  0  0
   40.0210   31.9920   43.9750 C   0  0  0  0  0  0  0  0  0  0  0  0
   38.7260   31.2500   43.7120 C   0  0  2  0  0  0  0  0  0  0  0  0
   37.0220   30.2560   44.9070 O   0  0  0  0  0  0  0  0  0  0  0  0
   38.4360   30.9050   47.3640 O   0  0  0  0  0  0  0  0  0  0  0  0
   37.6770   31.8760   47.8790 C   0  0  1  0  0  0  0  0  0  0  0  0
   36.8420   31.4620   49.0640 C   0  0  2  0  0  0  0  0  0  0  0  0
   37.9920   31.0780   50.0030 C   0  0  0  0  0  0  0  0  0  0  0  0
   38.9580   32.0420   49.8560 O   0  0  0  0  0  0  0  0  0  0  0  0
   38.6780   32.7180   48.7340 C   0  0  0  0  0  0  0  0  0  0  0  0
   35.9750   30.3170   48.7600 C   0  0  0  0  0  0  0  0  0  0  0  0
   35.1360   30.4140   47.6490 C   0  0  0  0  0  0  0  0  0  0  0  0
   34.2970   29.2940   47.3930 C   0  0  0  0  0  0  0  0  0  0  0  0
   34.3600   28.2120   48.2340 N   0  0  0  0  0  0  0  0  0  0  0  0
   35.1920   28.1690   49.2990 C   0  0  0  0  0  0  0  0  0  0  0  0
   35.9930   29.2230   49.5520 N   0  0  0  0  0  0  0  0  0  0  0  0
   37.7570   32.2680   43.5350 O   0  0  0  0  0  0  0  0  0  0  0  0
   37.1880   32.2430   42.2940 C   0  0  1  0  0  0  0  0  0  0  0  0
   37.5250   33.4890   41.5180 C   0  0  0  0  0  0  0  0  0  0  0  0
   38.5970   32.9420   40.5650 C   0  0  0  0  0  0  0  0  0  0  0  0
   37.9780   31.7610   40.1600 O   0  0  0  0  0  0  0  0  0  0  0  0
   37.7570   31.1470   41.4100 C   0  0  0  0  0  0  0  0  0  0  0  0
   38.7906   29.4131   45.0604 H   0  0  0  0  0  0  0  0  0  0  0  0
   38.5335   32.2552   46.0228 H   0  0  0  0  0  0  0  0  0  0  0  0
   40.8011   32.1094   46.5302 H   0  0  0  0  0  0  0  0  0  0  0  0
   40.7646   30.2988   46.5476 H   0  0  0  0  0  0  0  0  0  0  0  0
   39.8126   32.9297   44.5109 H   0  0  0  0  0  0  0  0  0  0  0  0
   40.5220   32.2379   43.0271 H   0  0  0  0  0  0  0  0  0  0  0  0
   38.7896   30.5734   42.8470 H   0  0  0  0  0  0  0  0  0  0  0  0
   36.6545   30.2103   45.8251 H   0  0  0  0  0  0  0  0  0  0  0  0
   37.0967   32.2860   47.0393 H   0  0  0  0  0  0  0  0  0  0  0  0
   36.1331   32.2132   49.4425 H   0  0  0  0  0  0  0  0  0  0  0  0
   37.6386   31.0508   51.0443 H   0  0  0  0  0  0  0  0  0  0  0  0
   38.3869   30.0808   49.7588 H   0  0  0  0  0  0  0  0  0  0  0  0
   39.6027   32.8861   48.1625 H   0  0  0  0  0  0  0  0  0  0  0  0
   38.2309   33.6914   48.9843 H   0  0  0  0  0  0  0  0  0  0  0  0
   35.1241   31.3070   47.0068 H   0  0  0  0  0  0  0  0  0  0  0  0
   33.6090   29.2956   46.5347 H   0  0  0  0  0  0  0  0  0  0  0  0
   35.2149   27.2838   49.9516 H   0  0  0  0  0  0  0  0  0  0  0  0
   36.1142   32.1119   42.4934 H   0  0  0  0  0  0  0  0  0  0  0  0
   36.6527   33.8747   40.9699 H   0  0  0  0  0  0  0  0  0  0  0  0
   37.8502   34.3398   42.1347 H   0  0  0  0  0  0  0  0  0  0  0  0
   38.7756   33.6209   39.7181 H   0  0  0  0  0  0  0  0  0  0  0  0
   39.5938   32.8138   41.0122 H   0  0  0  0  0  0  0  0  0  0  0  0
   37.0399   30.3187   41.3120 H   0  0  0  0  0  0  0  0  0  0  0  0
   38.6800   30.7183   41.8275 H   0  0  0  0  0  0  0  0  0  0  0  0
  1  2  1  0
  2  8  1  0
  3  2  1  0
  4  3  1  0
  5  4  1  0
  6  5  1  0
  6  1  1  0
  7  1  1  0
  8  9  1  0
  9 13  1  0
  9 10  1  0
 10 11  1  0
 12 11  1  0
 13 12  1  0
 14 10  1  0
 14 19  1  0
 15 14  2  0
 16 15  1  0
 16 17  2  0
 17 18  1  0
 18 19  2  0
 20  6  1  0
 21 20  1  0
 22 21  1  0
 23 22  1  0
 24 23  1  0
 24 25  1  0
 25 21  1  0
  1 26  1  6
  2 27  1  6
  3 28  1  0
  3 29  1  0
  5 30  1  0
  5 31  1  0
  6 32  1  6
  7 33  1  0
  9 34  1  6
 10 35  1  1
 11 36  1  0
 11 37  1  0
 13 38  1  0
 13 39  1  0
 15 40  1  0
 16 41  1  0
 18 42  1  0
 21 43  1  1
 22 44  1  0
 22 45  1  0
 23 46  1  0
 23 47  1  0
 25 48  1  0
 25 49  1  0
M  ISO  8  26  13  27  13  28  13  29  13  30  13  31  13  32  13  33   3
M  ISO  8  34  13  35  13  36  13  37  13  38  13  39  13  40  14  41  14
M  ISO  8  42  14  43  13  44  13  45  13  46  13  47  13  48  13  49  13
M  END
>  <minimizedAffinity>  (1) 
-5.30204201

>  <minimizedRMSD>  (1) 
2.18622279

$$$$
