
     RDKit          3D

 40 42  0  0  1  0  0  0  0  0999 V2000
   37.4490   31.7150   48.2650 C   0  0  1  0  0  0  0  0  0  0  0  0
   36.6180   31.1800   49.4060 C   0  0  2  0  0  0  0  0  0  0  0  0
   37.7680   30.5950   50.2390 C   0  0  0  0  0  0  0  0  0  0  0  0
   38.7810   31.5230   50.2080 O   0  0  0  0  0  0  0  0  0  0  0  0
   38.5140   32.3690   49.2030 C   0  0  0  0  0  0  0  0  0  0  0  0
   35.6830   30.1340   48.9620 C   0  0  0  0  0  0  0  0  0  0  0  0
   34.7860   30.4550   47.9410 C   0  0  0  0  0  0  0  0  0  0  0  0
   33.8820   29.4240   47.5550 C   0  0  0  0  0  0  0  0  0  0  0  0
   33.9440   28.2120   48.1880 N   0  0  0  0  0  0  0  0  0  0  0  0
   34.8330   27.9550   49.1700 C   0  0  0  0  0  0  0  0  0  0  0  0
   35.6970   28.9160   49.5510 N   0  0  0  0  0  0  0  0  0  0  0  0
   38.1400   30.7920   47.5900 O   0  0  0  0  0  0  0  0  0  0  0  0
   37.9560   30.5110   45.1680 C   0  0  2  0  0  0  0  0  0  0  0  0
   38.5320   31.2400   46.3680 C   0  0  2  0  0  0  0  0  0  0  0  0
   40.0140   31.2900   46.1990 C   0  0  0  0  0  0  0  0  0  0  0  0
   40.3670   31.3960   44.8850 O   0  0  0  0  0  0  0  0  0  0  0  0
   39.4830   32.2330   44.2280 C   0  0  0  0  0  0  0  0  0  0  0  0
   38.2100   31.4700   43.9760 C   0  0  2  0  0  0  0  0  0  0  0  0
   36.6190   30.2900   45.1650 O   0  0  0  0  0  0  0  0  0  0  0  0
   37.1860   32.4460   43.9400 O   0  0  0  0  0  0  0  0  0  0  0  0
   36.4610   32.7520   42.7890 C   0  0  0  0  0  0  0  0  0  0  0  0
   37.0400   33.4160   41.8620 O   0  0  0  0  0  0  0  0  0  0  0  0
   36.8739   32.2711   47.5100 H   0  0  0  0  0  0  0  0  0  0  0  0
   35.9647   31.9055   49.9129 H   0  0  0  0  0  0  0  0  0  0  0  0
   37.4393   30.4252   51.2749 H   0  0  0  0  0  0  0  0  0  0  0  0
   38.1010   29.6276   49.8349 H   0  0  0  0  0  0  0  0  0  0  0  0
   39.4340   32.5700   48.6345 H   0  0  0  0  0  0  0  0  0  0  0  0
   38.1269   33.3170   49.6048 H   0  0  0  0  0  0  0  0  0  0  0  0
   34.7780   31.4457   47.4630 H   0  0  0  0  0  0  0  0  0  0  0  0
   33.1438   29.5996   46.7586 H   0  0  0  0  0  0  0  0  0  0  0  0
   34.8522   26.9683   49.6558 H   0  0  0  0  0  0  0  0  0  0  0  0
   38.4269   29.5171   45.1469 H   0  0  0  0  0  0  0  0  0  0  0  0
   38.1072   32.2546   46.3745 H   0  0  0  0  0  0  0  0  0  0  0  0
   40.4063   32.1605   46.7453 H   0  0  0  0  0  0  0  0  0  0  0  0
   40.4369   30.3546   46.5942 H   0  0  0  0  0  0  0  0  0  0  0  0
   39.2715   33.1142   44.8515 H   0  0  0  0  0  0  0  0  0  0  0  0
   39.9174   32.5715   43.2758 H   0  0  0  0  0  0  0  0  0  0  0  0
   38.2526   30.8808   43.0481 H   0  0  0  0  0  0  0  0  0  0  0  0
   36.2914   30.2358   46.0976 H   0  0  0  0  0  0  0  0  0  0  0  0
   35.4149   32.4296   42.6808 H   0  0  0  0  0  0  0  0  0  0  0  0
  1  5  1  0
  1  2  1  0
  2  3  1  0
  4  3  1  0
  5  4  1  0
  6  2  1  0
  6 11  1  0
  7  6  2  0
  8  7  1  0
  8  9  2  0
  9 10  1  0
 10 11  2  0
 12  1  1  0
 13 14  1  0
 14 12  1  0
 15 14  1  0
 16 15  1  0
 17 16  1  0
 18 17  1  0
 18 13  1  0
 19 13  1  0
 20 18  1  0
 21 20  1  0
 22 21  2  0
  1 23  1  6
  2 24  1  1
  3 25  1  0
  3 26  1  0
  5 27  1  0
  5 28  1  0
  7 29  1  0
  8 30  1  0
 10 31  1  0
 13 32  1  6
 14 33  1  6
 15 34  1  0
 15 35  1  0
 17 36  1  0
 17 37  1  0
 18 38  1  6
 19 39  1  0
 21 40  1  0
M  ISO  8  23  13  24  13  25  13  26  13  27  13  28  13  29  14  30  14
M  ISO  8  31  14  32  13  33  13  34  13  35  13  36  13  37  13  38  13
M  ISO  2  39   3  40   6
M  END
>  <minimizedAffinity>  (1) 
-5.15830898

>  <minimizedRMSD>  (1) 
1.84103799

$$$$
