
     RDKit          3D

 44 46  0  0  1  0  0  0  0  0999 V2000
   37.4720   31.7050   48.2510 C   0  0  1  0  0  0  0  0  0  0  0  0
   36.6330   31.1880   49.3880 C   0  0  2  0  0  0  0  0  0  0  0  0
   37.7790   30.6140   50.2380 C   0  0  0  0  0  0  0  0  0  0  0  0
   38.7950   31.5380   50.1960 O   0  0  0  0  0  0  0  0  0  0  0  0
   38.5350   32.3720   49.1850 C   0  0  0  0  0  0  0  0  0  0  0  0
   35.6970   30.1420   48.9590 C   0  0  0  0  0  0  0  0  0  0  0  0
   34.7780   30.4610   47.9560 C   0  0  0  0  0  0  0  0  0  0  0  0
   33.8760   29.4310   47.5730 C   0  0  0  0  0  0  0  0  0  0  0  0
   33.9580   28.2150   48.1960 N   0  0  0  0  0  0  0  0  0  0  0  0
   34.8680   27.9530   49.1660 C   0  0  0  0  0  0  0  0  0  0  0  0
   35.7300   28.9230   49.5350 N   0  0  0  0  0  0  0  0  0  0  0  0
   38.1620   30.7780   47.5890 O   0  0  0  0  0  0  0  0  0  0  0  0
   37.9270   30.5300   45.1640 C   0  0  2  0  0  0  0  0  0  0  0  0
   38.5580   31.2090   46.3610 C   0  0  2  0  0  0  0  0  0  0  0  0
   40.0390   31.1880   46.1770 C   0  0  0  0  0  0  0  0  0  0  0  0
   40.3820   31.2800   44.8580 O   0  0  0  0  0  0  0  0  0  0  0  0
   39.5360   32.1690   44.2200 C   0  0  0  0  0  0  0  0  0  0  0  0
   38.2200   31.4850   43.9800 C   0  0  2  0  0  0  0  0  0  0  0  0
   36.5810   30.3760   45.1800 O   0  0  0  0  0  0  0  0  0  0  0  0
   37.2500   32.5040   43.9590 O   0  0  0  0  0  0  0  0  0  0  0  0
   36.4740   32.5290   42.8440 C   0  0  0  0  0  0  0  0  0  0  0  0
   37.2070   33.2620   41.7170 C   0  0  0  0  0  0  0  0  0  0  0  0
   36.9006   32.2526   47.4870 H   0  0  0  0  0  0  0  0  0  0  0  0
   35.9757   31.9217   49.8775 H   0  0  0  0  0  0  0  0  0  0  0  0
   37.4446   30.4634   51.2751 H   0  0  0  0  0  0  0  0  0  0  0  0
   38.1112   29.6389   49.8522 H   0  0  0  0  0  0  0  0  0  0  0  0
   39.4573   32.5662   48.6178 H   0  0  0  0  0  0  0  0  0  0  0  0
   38.1491   33.3260   49.5736 H   0  0  0  0  0  0  0  0  0  0  0  0
   34.7537   31.4560   47.4877 H   0  0  0  0  0  0  0  0  0  0  0  0
   33.1249   29.6083   46.7892 H   0  0  0  0  0  0  0  0  0  0  0  0
   34.9031   26.9636   49.6454 H   0  0  0  0  0  0  0  0  0  0  0  0
   38.3417   29.5120   45.1232 H   0  0  0  0  0  0  0  0  0  0  0  0
   38.1810   32.2423   46.3759 H   0  0  0  0  0  0  0  0  0  0  0  0
   40.4786   32.0374   46.7205 H   0  0  0  0  0  0  0  0  0  0  0  0
   40.4212   30.2330   46.5667 H   0  0  0  0  0  0  0  0  0  0  0  0
   39.3835   33.0556   44.8530 H   0  0  0  0  0  0  0  0  0  0  0  0
   39.9755   32.4875   43.2633 H   0  0  0  0  0  0  0  0  0  0  0  0
   38.2227   30.9059   43.0448 H   0  0  0  0  0  0  0  0  0  0  0  0
   36.2641   30.3397   46.1172 H   0  0  0  0  0  0  0  0  0  0  0  0
   36.2561   31.4982   42.5278 H   0  0  0  0  0  0  0  0  0  0  0  0
   35.5342   33.0551   43.0678 H   0  0  0  0  0  0  0  0  0  0  0  0
   37.9223   33.9773   42.1492 H   0  0  0  0  0  0  0  0  0  0  0  0
   37.7477   32.5326   41.0961 H   0  0  0  0  0  0  0  0  0  0  0  0
   36.4776   33.8027   41.0961 H   0  0  0  0  0  0  0  0  0  0  0  0
  1  5  1  0
  1  2  1  0
  2  3  1  0
  4  3  1  0
  5  4  1  0
  6  2  1  0
  6 11  1  0
  7  6  2  0
  8  7  1  0
  8  9  2  0
  9 10  1  0
 10 11  2  0
 12  1  1  0
 13 19  1  0
 13 14  1  0
 14 12  1  0
 15 14  1  0
 16 15  1  0
 17 16  1  0
 18 17  1  0
 18 13  1  0
 20 18  1  0
 21 20  1  0
 22 21  1  0
  1 23  1  6
  2 24  1  1
  3 25  1  0
  3 26  1  0
  5 27  1  0
  5 28  1  0
  7 29  1  0
  8 30  1  0
 10 31  1  0
 13 32  1  6
 14 33  1  1
 15 34  1  0
 15 35  1  0
 17 36  1  0
 17 37  1  0
 18 38  1  6
 19 39  1  0
 21 40  1  0
 21 41  1  0
 22 42  1  0
 22 43  1  0
 22 44  1  0
M  ISO  8  23  13  24  13  25  13  26  13  27  13  28  13  29  14  30  14
M  ISO  8  31  14  32  13  33  13  34  13  35  13  36  13  37  13  38  13
M  ISO  6  39   3  40   8  41   8  42   8  43   8  44   8
M  END
>  <minimizedAffinity>  (1) 
-5.15567493

>  <minimizedRMSD>  (1) 
1.81216633

$$$$
