
     RDKit          3D

 18 18  0  0  0  0  0  0  0  0999 V2000
   37.4690   31.3750   49.3310 C   0  0  0  0  0  0  0  0  0  0  0  0
   38.0840   32.6170   49.3760 C   0  0  0  0  0  0  0  0  0  0  0  0
   38.9110   32.9750   48.2910 C   0  0  0  0  0  0  0  0  0  0  0  0
   39.0550   32.0740   47.2630 N   0  0  0  0  0  0  0  0  0  0  0  0
   38.4350   30.8760   47.2650 C   0  0  0  0  0  0  0  0  0  0  0  0
   37.6560   30.5530   48.2990 N   0  0  0  0  0  0  0  0  0  0  0  0
   36.5820   30.8850   50.3880 C   0  0  0  0  0  0  0  0  0  0  0  0
   37.2710   30.0950   51.4700 C   0  0  0  0  0  0  0  0  0  0  0  0
   38.0010   28.9640   51.0550 N   0  0  0  0  0  0  0  0  0  0  0  0
   37.9325   33.2979   50.2265 H   0  0  0  0  0  0  0  0  0  0  0  0
   39.4257   33.9469   48.2682 H   0  0  0  0  0  0  0  0  0  0  0  0
   38.5696   30.1761   46.4271 H   0  0  0  0  0  0  0  0  0  0  0  0
   36.0933   31.7527   50.8552 H   0  0  0  0  0  0  0  0  0  0  0  0
   35.8720   30.1977   49.9048 H   0  0  0  0  0  0  0  0  0  0  0  0
   37.9681   30.7719   51.9855 H   0  0  0  0  0  0  0  0  0  0  0  0
   36.4620   29.7027   52.1037 H   0  0  0  0  0  0  0  0  0  0  0  0
   38.3341   28.4480   51.8818 H   0  0  0  0  0  0  0  0  0  0  0  0
   37.3948   28.3525   50.4899 H   0  0  0  0  0  0  0  0  0  0  0  0
  1  2  2  0
  1  7  1  0
  3  2  1  0
  4  5  1  0
  4  3  2  0
  5  6  2  0
  6  1  1  0
  7  8  1  0
  9  8  1  0
  2 10  1  0
  3 11  1  0
  5 12  1  0
  7 13  1  0
  7 14  1  0
  8 15  1  0
  8 16  1  0
  9 17  1  0
  9 18  1  0
M  ISO  8  10  14  11  14  12  14  13   8  14   8  15   8  16   8  17   5
M  ISO  1  18   5
M  END
>  <minimizedAffinity>  (1) 
-3.73033166

>  <minimizedRMSD>  (1) 
0.413078338

$$$$
