
     RDKit          3D

 34 36  0  0  1  0  0  0  0  0999 V2000
   37.1790   30.4160   49.6240 C   0  0  0  0  0  0  0  0  0  0  0  0
   37.9350   31.5760   49.7730 C   0  0  0  0  0  0  0  0  0  0  0  0
   38.1710   32.3400   48.6280 C   0  0  0  0  0  0  0  0  0  0  0  0
   37.6490   31.9040   47.4520 N   0  0  0  0  0  0  0  0  0  0  0  0
   36.9280   30.7850   47.3470 C   0  0  0  0  0  0  0  0  0  0  0  0
   36.6790   30.0160   48.4410 N   0  0  0  0  0  0  0  0  0  0  0  0
   36.4260   30.3790   46.1060 N   0  0  0  0  0  0  0  0  0  0  0  0
   35.1600   29.6440   45.9760 C   0  0  0  0  0  0  0  0  0  0  0  0
   34.2580   30.3350   45.0330 C   0  0  0  0  0  0  0  0  0  0  0  0
   34.8200   31.2930   44.1980 N   0  0  0  0  0  0  0  0  0  0  0  0
   36.2040   31.3000   43.8940 C   0  0  0  0  0  0  0  0  0  0  0  0
   37.1160   30.6450   44.8720 C   0  0  1  0  0  0  0  0  0  0  0  0
   38.4590   31.1830   45.0150 C   0  0  0  0  0  0  0  0  0  0  0  0
   38.5590   32.5370   44.6530 C   0  0  0  0  0  0  0  0  0  0  0  0
   39.7270   33.2300   44.7160 C   0  0  0  0  0  0  0  0  0  0  0  0
   40.8960   32.6500   45.1400 C   0  0  0  0  0  0  0  0  0  0  0  0
   40.8310   31.3210   45.5030 C   0  0  0  0  0  0  0  0  0  0  0  0
   39.6450   30.6240   45.4370 C   0  0  0  0  0  0  0  0  0  0  0  0
   36.9819   29.7993   50.5133 H   0  0  0  0  0  0  0  0  0  0  0  0
   38.3306   31.8786   50.7538 H   0  0  0  0  0  0  0  0  0  0  0  0
   38.7616   33.2667   48.6769 H   0  0  0  0  0  0  0  0  0  0  0  0
   35.3663   28.6299   45.6031 H   0  0  0  0  0  0  0  0  0  0  0  0
   34.6744   29.5928   46.9617 H   0  0  0  0  0  0  0  0  0  0  0  0
   33.7988   29.5674   44.3928 H   0  0  0  0  0  0  0  0  0  0  0  0
   33.5572   30.8934   45.6711 H   0  0  0  0  0  0  0  0  0  0  0  0
   34.3265   31.2166   43.2971 H   0  0  0  0  0  0  0  0  0  0  0  0
   36.3337   30.7910   42.9275 H   0  0  0  0  0  0  0  0  0  0  0  0
   36.4922   32.3616   43.9025 H   0  0  0  0  0  0  0  0  0  0  0  0
   37.3756   29.6809   44.4103 H   0  0  0  0  0  0  0  0  0  0  0  0
   37.6550   33.0578   44.3043 H   0  0  0  0  0  0  0  0  0  0  0  0
   39.7351   34.2888   44.4177 H   0  0  0  0  0  0  0  0  0  0  0  0
   41.8377   33.2165   45.1880 H   0  0  0  0  0  0  0  0  0  0  0  0
   41.7408   30.8097   45.8507 H   0  0  0  0  0  0  0  0  0  0  0  0
   39.6449   29.5657   45.7369 H   0  0  0  0  0  0  0  0  0  0  0  0
  1  2  2  0
  3  2  1  0
  4  3  2  0
  5  4  1  0
  5  6  2  0
  6  1  1  0
  7  5  1  0
  8  7  1  0
  9  8  1  0
 10  9  1  0
 11 10  1  0
 11 12  1  0
 12 13  1  0
 12  7  1  0
 13 18  2  0
 14 15  2  0
 14 13  1  0
 15 16  1  0
 16 17  2  0
 18 17  1  0
  1 19  1  0
  2 20  1  0
  3 21  1  0
  8 22  1  0
  8 23  1  0
  9 24  1  0
  9 25  1  0
 10 26  1  0
 11 27  1  0
 11 28  1  0
 12 29  1  6
 14 30  1  0
 15 31  1  0
 16 32  1  0
 17 33  1  0
 18 34  1  0
M  ISO  8  19  14  20  14  21  14  22  13  23  13  24  13  25  13  26   5
M  ISO  8  27  13  28  13  29  13  30  14  31  14  32  14  33  14  34  14
M  END
>  <minimizedAffinity>  (1) 
-5.58090305

>  <minimizedRMSD>  (1) 
3.32809711

$$$$
