
     RDKit          3D

 37 40  0  0  1  0  0  0  0  0999 V2000
   37.6380   30.1560   50.2750 C   0  0  0  0  0  0  0  0  0  0  0  0
   38.1900   31.4340   50.1660 C   0  0  0  0  0  0  0  0  0  0  0  0
   37.8770   32.1890   49.0100 C   0  0  0  0  0  0  0  0  0  0  0  0
   37.0600   31.6120   48.0900 N   0  0  0  0  0  0  0  0  0  0  0  0
   36.5490   30.3850   48.2280 C   0  0  0  0  0  0  0  0  0  0  0  0
   36.8440   29.6530   49.3330 N   0  0  0  0  0  0  0  0  0  0  0  0
   35.7220   29.8360   47.2430 N   0  0  0  0  0  0  0  0  0  0  0  0
   34.6610   28.8810   47.5590 C   0  0  0  0  0  0  0  0  0  0  0  0
   33.3700   29.3410   47.0130 C   0  0  0  0  0  0  0  0  0  0  0  0
   33.4050   30.3550   46.0590 N   0  0  0  0  0  0  0  0  0  0  0  0
   34.5580   30.6120   45.2900 C   0  0  0  0  0  0  0  0  0  0  0  0
   35.8670   30.1670   45.8500 C   0  0  1  0  0  0  0  0  0  0  0  0
   37.1750   32.1150   44.7800 C   0  0  0  0  0  0  0  0  0  0  0  0
   37.0450   30.9320   45.4770 C   0  0  0  0  0  0  0  0  0  0  0  0
   38.2600   30.3530   45.8780 C   0  0  0  0  0  0  0  0  0  0  0  0
   39.4600   30.9280   45.5930 C   0  0  0  0  0  0  0  0  0  0  0  0
   40.7440   30.5570   45.8750 N   0  0  0  0  0  0  0  0  0  0  0  0
   41.5880   31.4690   45.3750 C   0  0  0  0  0  0  0  0  0  0  0  0
   40.8670   32.4170   44.7780 N   0  0  0  0  0  0  0  0  0  0  0  0
   39.5650   32.1100   44.8970 C   0  0  0  0  0  0  0  0  0  0  0  0
   38.3880   32.7020   44.4900 C   0  0  0  0  0  0  0  0  0  0  0  0
   37.8656   29.5487   51.1635 H   0  0  0  0  0  0  0  0  0  0  0  0
   38.8451   31.8399   50.9509 H   0  0  0  0  0  0  0  0  0  0  0  0
   38.2791   33.2022   48.8624 H   0  0  0  0  0  0  0  0  0  0  0  0
   34.9116   27.9038   47.1205 H   0  0  0  0  0  0  0  0  0  0  0  0
   34.5740   28.7959   48.6522 H   0  0  0  0  0  0  0  0  0  0  0  0
   32.8771   28.4717   46.5533 H   0  0  0  0  0  0  0  0  0  0  0  0
   32.8402   29.7792   47.8717 H   0  0  0  0  0  0  0  0  0  0  0  0
   32.6507   30.1478   45.3889 H   0  0  0  0  0  0  0  0  0  0  0  0
   34.6170   31.6996   45.1362 H   0  0  0  0  0  0  0  0  0  0  0  0
   34.4254   30.0166   44.3746 H   0  0  0  0  0  0  0  0  0  0  0  0
   36.1293   29.2368   45.3247 H   0  0  0  0  0  0  0  0  0  0  0  0
   36.2593   32.6183   44.4362 H   0  0  0  0  0  0  0  0  0  0  0  0
   38.2411   29.4069   46.4389 H   0  0  0  0  0  0  0  0  0  0  0  0
   41.0198   29.7093   46.3910 H   0  0  0  0  0  0  0  0  0  0  0  0
   42.6854   31.4403   45.4451 H   0  0  0  0  0  0  0  0  0  0  0  0
   38.4173   33.6486   43.9304 H   0  0  0  0  0  0  0  0  0  0  0  0
  2  1  2  0
  3  2  1  0
  4  5  1  0
  4  3  2  0
  5  6  2  0
  6  1  1  0
  7  8  1  0
  7  5  1  0
  9  8  1  0
 10  9  1  0
 11 12  1  0
 11 10  1  0
 12  7  1  0
 13 14  2  0
 14 12  1  0
 14 15  1  0
 16 17  1  0
 16 15  2  0
 18 17  1  0
 19 20  1  0
 19 18  2  0
 20 16  1  0
 21 13  1  0
 21 20  2  0
  1 22  1  0
  2 23  1  0
  3 24  1  0
  8 25  1  0
  8 26  1  0
  9 27  1  0
  9 28  1  0
 10 29  1  0
 11 30  1  0
 11 31  1  0
 12 32  1  6
 13 33  1  0
 15 34  1  0
 17 35  1  0
 18 36  1  0
 21 37  1  0
M  ISO  8  22  14  23  14  24  14  25  13  26  13  27  13  28  13  29   5
M  ISO  8  30  13  31  13  32  13  33  14  34  14  35   9  36  14  37  14
M  END
>  <minimizedAffinity>  (1) 
-5.42709208

>  <minimizedRMSD>  (1) 
2.06649971

$$$$
