
     RDKit          3D

 35 37  0  0  1  0  0  0  0  0999 V2000
   37.2620   29.2450   50.5830 C   0  0  0  0  0  0  0  0  0  0  0  0
   37.3960   30.6050   50.9360 C   0  0  0  0  0  0  0  0  0  0  0  0
   36.6480   31.5220   50.2000 C   0  0  0  0  0  0  0  0  0  0  0  0
   35.8520   31.0470   49.2040 N   0  0  0  0  0  0  0  0  0  0  0  0
   35.7540   29.7330   48.9010 C   0  0  0  0  0  0  0  0  0  0  0  0
   36.4680   28.8260   49.5990 N   0  0  0  0  0  0  0  0  0  0  0  0
   34.9110   29.3280   47.8600 N   0  0  0  0  0  0  0  0  0  0  0  0
   34.2600   28.0270   47.8480 C   0  0  0  0  0  0  0  0  0  0  0  0
   32.7800   28.1970   47.7180 C   0  0  0  0  0  0  0  0  0  0  0  0
   32.3300   29.4240   47.2130 N   0  0  0  0  0  0  0  0  0  0  0  0
   33.1960   30.2590   46.4670 C   0  0  0  0  0  0  0  0  0  0  0  0
   34.6370   30.1850   46.7330 C   0  0  2  0  0  0  0  0  0  0  0  0
   37.5700   31.1490   46.1110 O   0  0  0  0  0  0  0  0  0  0  0  0
   36.6870   30.5710   45.4040 C   0  0  0  0  0  0  0  0  0  0  0  0
   35.4690   29.7360   45.5580 C   0  0  2  0  0  0  0  0  0  0  0  0
   34.7800   29.9080   44.2490 C   0  0  0  0  0  0  0  0  0  0  0  0
   35.9680   29.8990   43.2800 C   0  0  0  0  0  0  0  0  0  0  0  0
   36.8940   30.7660   43.9900 N   0  0  0  0  0  0  0  0  0  0  0  0
   37.8395   28.4971   51.1461 H   0  0  0  0  0  0  0  0  0  0  0  0
   38.0591   30.9257   51.7530 H   0  0  0  0  0  0  0  0  0  0  0  0
   36.6996   32.5989   50.4180 H   0  0  0  0  0  0  0  0  0  0  0  0
   34.6354   27.4396   46.9970 H   0  0  0  0  0  0  0  0  0  0  0  0
   34.4820   27.5034   48.7895 H   0  0  0  0  0  0  0  0  0  0  0  0
   32.4110   27.4056   47.0490 H   0  0  0  0  0  0  0  0  0  0  0  0
   32.3917   28.1473   48.7460 H   0  0  0  0  0  0  0  0  0  0  0  0
   31.5262   29.2146   46.6040 H   0  0  0  0  0  0  0  0  0  0  0  0
   32.8843   31.2978   46.6508 H   0  0  0  0  0  0  0  0  0  0  0  0
   33.0932   29.8997   45.4324 H   0  0  0  0  0  0  0  0  0  0  0  0
   34.9331   31.2212   46.9533 H   0  0  0  0  0  0  0  0  0  0  0  0
   35.6792   28.6790   45.7786 H   0  0  0  0  0  0  0  0  0  0  0  0
   34.0885   29.0770   44.0458 H   0  0  0  0  0  0  0  0  0  0  0  0
   34.1536   30.8100   44.1850 H   0  0  0  0  0  0  0  0  0  0  0  0
   35.6948   30.3134   42.2984 H   0  0  0  0  0  0  0  0  0  0  0  0
   36.3626   28.8990   43.0470 H   0  0  0  0  0  0  0  0  0  0  0  0
   37.5767   31.4060   43.5597 H   0  0  0  0  0  0  0  0  0  0  0  0
  1  2  2  0
  3  2  1  0
  4  3  2  0
  5  4  1  0
  5  6  2  0
  6  1  1  0
  7  5  1  0
  8  7  1  0
  9  8  1  0
 10  9  1  0
 11 12  1  0
 11 10  1  0
 12  7  1  0
 14 15  1  0
 14 13  2  0
 15 16  1  0
 15 12  1  0
 17 18  1  0
 17 16  1  0
 18 14  1  0
  1 19  1  0
  2 20  1  0
  3 21  1  0
  8 22  1  0
  8 23  1  0
  9 24  1  0
  9 25  1  0
 10 26  1  0
 11 27  1  0
 11 28  1  0
 12 29  1  1
 15 30  1  1
 16 31  1  0
 16 32  1  0
 17 33  1  0
 17 34  1  0
 18 35  1  0
M  ISO  8  19  14  20  14  21  14  22  13  23  13  24  13  25  13  26   5
M  ISO  8  27  13  28  13  29  13  30  13  31  13  32  13  33  13  34  13
M  ISO  1  35  10
M  END
>  <minimizedAffinity>  (1) 
-4.76695776

>  <minimizedRMSD>  (1) 
0.932361841

$$$$
