
     RDKit          3D

 31 33  0  0  1  0  0  0  0  0999 V2000
   37.1880   29.2590   50.4180 C   0  0  0  0  0  0  0  0  0  0  0  0
   37.3120   30.6110   50.7300 C   0  0  0  0  0  0  0  0  0  0  0  0
   36.5230   31.5040   50.0080 C   0  0  0  0  0  0  0  0  0  0  0  0
   35.6910   31.0010   49.0560 N   0  0  0  0  0  0  0  0  0  0  0  0
   35.6000   29.6760   48.7820 C   0  0  0  0  0  0  0  0  0  0  0  0
   36.3540   28.8070   49.4700 N   0  0  0  0  0  0  0  0  0  0  0  0
   34.7150   29.2540   47.7840 N   0  0  0  0  0  0  0  0  0  0  0  0
   34.1010   27.9190   47.8370 C   0  0  0  0  0  0  0  0  0  0  0  0
   32.6330   28.0480   47.7380 C   0  0  0  0  0  0  0  0  0  0  0  0
   32.1210   29.2490   47.2480 N   0  0  0  0  0  0  0  0  0  0  0  0
   32.9260   30.1010   46.4460 C   0  0  0  0  0  0  0  0  0  0  0  0
   34.3750   30.1110   46.6690 C   0  0  2  0  0  0  0  0  0  0  0  0
   35.1840   29.7750   45.4580 C   0  0  0  0  0  0  0  0  0  0  0  0
   35.0670   28.9600   44.3510 C   0  0  0  0  0  0  0  0  0  0  0  0
   36.1950   29.1020   43.5690 C   0  0  0  0  0  0  0  0  0  0  0  0
   36.9530   30.0090   44.2480 N   0  0  0  0  0  0  0  0  0  0  0  0
   36.3710   30.4090   45.3540 N   0  0  0  0  0  0  0  0  0  0  0  0
   37.7996   28.5319   50.9723 H   0  0  0  0  0  0  0  0  0  0  0  0
   38.0028   30.9584   51.5124 H   0  0  0  0  0  0  0  0  0  0  0  0
   36.5713   32.5856   50.2022 H   0  0  0  0  0  0  0  0  0  0  0  0
   34.4730   27.3108   46.9993 H   0  0  0  0  0  0  0  0  0  0  0  0
   34.3630   27.4324   48.7881 H   0  0  0  0  0  0  0  0  0  0  0  0
   32.2761   27.2443   47.0771 H   0  0  0  0  0  0  0  0  0  0  0  0
   32.2779   27.9971   48.7779 H   0  0  0  0  0  0  0  0  0  0  0  0
   31.2929   29.0089   46.6846 H   0  0  0  0  0  0  0  0  0  0  0  0
   32.5666   31.1288   46.6027 H   0  0  0  0  0  0  0  0  0  0  0  0
   32.8138   29.6971   45.4290 H   0  0  0  0  0  0  0  0  0  0  0  0
   34.6425   31.1502   46.9108 H   0  0  0  0  0  0  0  0  0  0  0  0
   34.2130   28.3035   44.1279 H   0  0  0  0  0  0  0  0  0  0  0  0
   36.4283   28.5999   42.6185 H   0  0  0  0  0  0  0  0  0  0  0  0
   37.8746   30.3414   43.9302 H   0  0  0  0  0  0  0  0  0  0  0  0
  1  2  2  0
  3  2  1  0
  4  3  2  0
  5  4  1  0
  5  6  2  0
  6  1  1  0
  7  8  1  0
  7  5  1  0
  9  8  1  0
 10  9  1  0
 11 12  1  0
 11 10  1  0
 12  7  1  0
 13 12  1  0
 14 13  1  0
 15 16  1  0
 15 14  2  0
 16 17  1  0
 17 13  2  0
  1 18  1  0
  2 19  1  0
  3 20  1  0
  8 21  1  0
  8 22  1  0
  9 23  1  0
  9 24  1  0
 10 25  1  0
 11 26  1  0
 11 27  1  0
 12 28  1  1
 14 29  1  0
 15 30  1  0
 16 31  1  0
M  ISO  8  18  14  19  14  20  14  21  13  22  13  23  13  24  13  25   5
M  ISO  6  26  13  27  13  28  13  29  14  30  14  31   9
M  END
>  <minimizedAffinity>  (1) 
-4.57541943

>  <minimizedRMSD>  (1) 
0.887063444

$$$$
