
     RDKit          3D

 26 27  0  0  1  0  0  0  0  0999 V2000
   37.2310   29.2560   50.5070 C   0  0  0  0  0  0  0  0  0  0  0  0
   37.3620   30.6290   50.8060 C   0  0  0  0  0  0  0  0  0  0  0  0
   36.5950   31.5280   50.0630 C   0  0  0  0  0  0  0  0  0  0  0  0
   35.7740   31.0200   49.1030 N   0  0  0  0  0  0  0  0  0  0  0  0
   35.6770   29.6930   48.8470 C   0  0  0  0  0  0  0  0  0  0  0  0
   36.4030   28.8100   49.5450 N   0  0  0  0  0  0  0  0  0  0  0  0
   34.8030   29.2460   47.8350 N   0  0  0  0  0  0  0  0  0  0  0  0
   34.1770   27.9320   47.9040 C   0  0  0  0  0  0  0  0  0  0  0  0
   32.7110   28.0640   47.7600 C   0  0  0  0  0  0  0  0  0  0  0  0
   32.2150   29.2850   47.2680 N   0  0  0  0  0  0  0  0  0  0  0  0
   33.0430   30.1090   46.4720 C   0  0  0  0  0  0  0  0  0  0  0  0
   34.4980   30.0900   46.6850 C   0  0  2  0  0  0  0  0  0  0  0  0
   35.2550   29.6120   45.4730 C   0  0  0  0  0  0  0  0  0  0  0  0
   36.2640   30.2290   45.1790 O   0  0  0  0  0  0  0  0  0  0  0  0
   37.8247   28.5274   51.0786 H   0  0  0  0  0  0  0  0  0  0  0  0
   38.0436   30.9780   51.5957 H   0  0  0  0  0  0  0  0  0  0  0  0
   36.6520   32.6110   50.2470 H   0  0  0  0  0  0  0  0  0  0  0  0
   34.5675   27.2991   47.0935 H   0  0  0  0  0  0  0  0  0  0  0  0
   34.4052   27.4731   48.8773 H   0  0  0  0  0  0  0  0  0  0  0  0
   32.3743   27.2715   47.0754 H   0  0  0  0  0  0  0  0  0  0  0  0
   32.3209   27.9956   48.7862 H   0  0  0  0  0  0  0  0  0  0  0  0
   31.3830   29.0631   46.7028 H   0  0  0  0  0  0  0  0  0  0  0  0
   32.7096   31.1455   46.6288 H   0  0  0  0  0  0  0  0  0  0  0  0
   32.9233   29.6965   45.4593 H   0  0  0  0  0  0  0  0  0  0  0  0
   34.8234   31.1238   46.8733 H   0  0  0  0  0  0  0  0  0  0  0  0
   34.9137   28.7488   44.8827 H   0  0  0  0  0  0  0  0  0  0  0  0
  1  2  2  0
  3  2  1  0
  4  3  2  0
  5  4  1  0
  5  6  2  0
  6  1  1  0
  7  8  1  0
  7  5  1  0
  9  8  1  0
 10  9  1  0
 11 12  1  0
 11 10  1  0
 12  7  1  0
 13 12  1  0
 14 13  2  0
  1 15  1  0
  2 16  1  0
  3 17  1  0
  8 18  1  0
  8 19  1  0
  9 20  1  0
  9 21  1  0
 10 22  1  0
 11 23  1  0
 11 24  1  0
 12 25  1  1
 13 26  1  0
M  ISO  8  15  14  16  14  17  14  18  13  19  13  20  13  21  13  22   5
M  ISO  4  23  13  24  13  25  13  26   6
M  END
>  <minimizedAffinity>  (1) 
-4.11313534

>  <minimizedRMSD>  (1) 
0.753439069

$$$$
