
     RDKit          3D

 24 25  0  0  0  0  0  0  0  0999 V2000
   38.4460   31.4980   49.9280 C   0  0  0  0  0  0  0  0  0  0  0  0
   37.2160   30.7620   50.1870 C   0  0  0  0  0  0  0  0  0  0  0  0
   36.9070   29.8320   51.1570 C   0  0  0  0  0  0  0  0  0  0  0  0
   35.6850   29.2110   51.2510 C   0  0  0  0  0  0  0  0  0  0  0  0
   34.6800   29.5210   50.3260 C   0  0  0  0  0  0  0  0  0  0  0  0
   34.9030   30.4470   49.3140 C   0  0  0  0  0  0  0  0  0  0  0  0
   36.1670   31.0240   49.2960 C   0  0  0  0  0  0  0  0  0  0  0  0
   38.3630   32.7980   48.7040 S   0  0  0  0  0  0  0  0  0  0  0  0
   39.0770   32.1670   47.1950 C   0  0  0  0  0  0  0  0  0  0  0  0
   39.8890   33.1220   46.5910 C   0  0  0  0  0  0  0  0  0  0  0  0
   40.5180   32.7250   45.3840 C   0  0  0  0  0  0  0  0  0  0  0  0
   40.3080   31.4730   44.8880 N   0  0  0  0  0  0  0  0  0  0  0  0
   39.5060   30.6090   45.5390 C   0  0  0  0  0  0  0  0  0  0  0  0
   38.9140   30.9710   46.6650 N   0  0  0  0  0  0  0  0  0  0  0  0
   38.7675   31.9534   50.8763 H   0  0  0  0  0  0  0  0  0  0  0  0
   39.1444   30.7559   49.5137 H   0  0  0  0  0  0  0  0  0  0  0  0
   37.6804   29.5734   51.8952 H   0  0  0  0  0  0  0  0  0  0  0  0
   35.4973   28.4755   52.0471 H   0  0  0  0  0  0  0  0  0  0  0  0
   33.7011   29.0249   50.4016 H   0  0  0  0  0  0  0  0  0  0  0  0
   34.1298   30.7061   48.5758 H   0  0  0  0  0  0  0  0  0  0  0  0
   36.3637   31.7602   48.5027 H   0  0  0  0  0  0  0  0  0  0  0  0
   40.0339   34.1231   47.0233 H   0  0  0  0  0  0  0  0  0  0  0  0
   41.1746   33.4265   44.8486 H   0  0  0  0  0  0  0  0  0  0  0  0
   39.3428   29.5997   45.1333 H   0  0  0  0  0  0  0  0  0  0  0  0
  1  2  1  0
  2  3  2  0
  3  4  1  0
  5  4  2  0
  6  5  1  0
  7  6  2  0
  7  2  1  0
  8  1  1  0
  9  8  1  0
 10  9  2  0
 11 10  1  0
 12 11  2  0
 12 13  1  0
 13 14  2  0
 14  9  1  0
  1 15  1  0
  1 16  1  0
  3 17  1  0
  4 18  1  0
  5 19  1  0
  6 20  1  0
  7 21  1  0
 10 22  1  0
 11 23  1  0
 13 24  1  0
M  ISO  8  15   8  16   8  17  14  18  14  19  14  20  14  21  14  22  14
M  ISO  2  23  14  24  14
M  END
>  <minimizedAffinity>  (1) 
-5.44667196

>  <minimizedRMSD>  (1) 
3.40642858

$$$$
