
     RDKit          3D

 26 27  0  0  1  0  0  0  0  0999 V2000
   38.4170   31.3930   49.8810 C   0  0  0  0  0  0  0  0  0  0  0  0
   35.3070   29.3890   49.8600 C   0  0  2  0  0  0  0  0  0  0  0  0
   36.5490   29.9060   49.1170 C   0  0  0  0  0  0  0  0  0  0  0  0
   37.1110   30.7880   50.2430 C   0  0  1  0  0  0  0  0  0  0  0  0
   37.0980   29.9060   51.2850 O   0  0  0  0  0  0  0  0  0  0  0  0
   35.8010   29.4030   51.2770 C   0  0  0  0  0  0  0  0  0  0  0  0
   34.9150   28.1370   49.4040 O   0  0  0  0  0  0  0  0  0  0  0  0
   38.3460   32.7280   48.6840 S   0  0  0  0  0  0  0  0  0  0  0  0
   39.0900   32.1430   47.1760 C   0  0  0  0  0  0  0  0  0  0  0  0
   39.8910   33.1220   46.5720 C   0  0  0  0  0  0  0  0  0  0  0  0
   40.5370   32.7660   45.3690 C   0  0  0  0  0  0  0  0  0  0  0  0
   40.3570   31.5220   44.8670 N   0  0  0  0  0  0  0  0  0  0  0  0
   39.5760   30.6240   45.4920 C   0  0  0  0  0  0  0  0  0  0  0  0
   38.9680   30.9500   46.6190 N   0  0  0  0  0  0  0  0  0  0  0  0
   38.8745   31.7867   50.8007 H   0  0  0  0  0  0  0  0  0  0  0  0
   38.9990   30.5908   49.4038 H   0  0  0  0  0  0  0  0  0  0  0  0
   34.3923   29.9834   49.7183 H   0  0  0  0  0  0  0  0  0  0  0  0
   37.2375   29.0944   48.8389 H   0  0  0  0  0  0  0  0  0  0  0  0
   36.3657   30.4059   48.1544 H   0  0  0  0  0  0  0  0  0  0  0  0
   36.5444   31.6999   50.4825 H   0  0  0  0  0  0  0  0  0  0  0  0
   35.1505   30.0433   51.8909 H   0  0  0  0  0  0  0  0  0  0  0  0
   35.7882   28.3843   51.6918 H   0  0  0  0  0  0  0  0  0  0  0  0
   34.7303   27.5471   50.1773 H   0  0  0  0  0  0  0  0  0  0  0  0
   40.0105   34.1216   47.0153 H   0  0  0  0  0  0  0  0  0  0  0  0
   41.1787   33.4903   44.8459 H   0  0  0  0  0  0  0  0  0  0  0  0
   39.4432   29.6187   45.0657 H   0  0  0  0  0  0  0  0  0  0  0  0
  2  7  1  0
  2  6  1  0
  3  2  1  0
  3  4  1  0
  4  1  1  0
  4  5  1  0
  6  5  1  0
  8  1  1  0
  9  8  1  0
 10  9  2  0
 11 10  1  0
 12 11  2  0
 12 13  1  0
 13 14  2  0
 14  9  1  0
  1 15  1  0
  1 16  1  0
  2 17  1  1
  3 18  1  0
  3 19  1  0
  4 20  1  1
  6 21  1  0
  6 22  1  0
  7 23  1  0
 10 24  1  0
 11 25  1  0
 13 26  1  0
M  ISO  8  15   8  16   8  17  13  18  13  19  13  20  13  21  13  22  13
M  ISO  4  23   3  24  14  25  14  26  14
M  END
>  <minimizedAffinity>  (1) 
-4.67497015

>  <minimizedRMSD>  (1) 
3.64331341

$$$$
