
     RDKit          3D

 24 25  0  0  0  0  0  0  0  0999 V2000
   37.3030   30.9120   47.0690 C   0  0  0  0  0  0  0  0  0  0  0  0
   34.9900   29.1720   48.1130 Cl  0  0  0  0  0  0  0  0  0  0  0  0
   36.3000   29.7870   49.1210 C   0  0  0  0  0  0  0  0  0  0  0  0
   37.2650   30.5650   48.5110 C   0  0  0  0  0  0  0  0  0  0  0  0
   38.2880   31.0330   49.3410 C   0  0  0  0  0  0  0  0  0  0  0  0
   38.3600   30.7520   50.6870 C   0  0  0  0  0  0  0  0  0  0  0  0
   37.3860   29.9720   51.2890 C   0  0  0  0  0  0  0  0  0  0  0  0
   37.4790   29.6110   53.0050 Cl  0  0  0  0  0  0  0  0  0  0  0  0
   36.3540   29.4970   50.4790 C   0  0  0  0  0  0  0  0  0  0  0  0
   38.6540   32.0200   46.6140 S   0  0  0  0  0  0  0  0  0  0  0  0
   38.4360   32.4660   44.9040 C   0  0  0  0  0  0  0  0  0  0  0  0
   39.5880   33.0170   44.3250 C   0  0  0  0  0  0  0  0  0  0  0  0
   39.5510   33.3940   42.9730 C   0  0  0  0  0  0  0  0  0  0  0  0
   38.3920   33.2060   42.2890 N   0  0  0  0  0  0  0  0  0  0  0  0
   37.3100   32.6730   42.8910 C   0  0  0  0  0  0  0  0  0  0  0  0
   37.3440   32.3120   44.1800 N   0  0  0  0  0  0  0  0  0  0  0  0
   37.4100   29.9814   46.4923 H   0  0  0  0  0  0  0  0  0  0  0  0
   36.3667   31.4443   46.8456 H   0  0  0  0  0  0  0  0  0  0  0  0
   39.0761   31.6580   48.8958 H   0  0  0  0  0  0  0  0  0  0  0  0
   39.1933   31.1480   51.2861 H   0  0  0  0  0  0  0  0  0  0  0  0
   35.5631   28.8773   50.9267 H   0  0  0  0  0  0  0  0  0  0  0  0
   40.5040   33.1515   44.9191 H   0  0  0  0  0  0  0  0  0  0  0  0
   40.4341   33.8287   42.4820 H   0  0  0  0  0  0  0  0  0  0  0  0
   36.3841   32.5323   42.3140 H   0  0  0  0  0  0  0  0  0  0  0  0
  1  4  1  0
  2  3  1  0
  3  9  2  0
  4  3  1  0
  4  5  2  0
  5  6  1  0
  6  7  2  0
  7  8  1  0
  9  7  1  0
 10  1  1  0
 11 10  1  0
 12 11  2  0
 13 12  1  0
 14 15  1  0
 14 13  2  0
 15 16  2  0
 16 11  1  0
  1 17  1  0
  1 18  1  0
  5 19  1  0
  6 20  1  0
  9 21  1  0
 12 22  1  0
 13 23  1  0
 15 24  1  0
M  ISO  8  17   8  18   8  19  14  20  14  21  14  22  14  23  14  24  14
M  END
>  <minimizedAffinity>  (1) 
-4.56192255

>  <minimizedRMSD>  (1) 
4.89349127

$$$$
