
     RDKit          3D

 25 26  0  0  0  0  0  0  0  0999 V2000
   35.7530   29.4980   50.9590 C   0  0  0  0  0  0  0  0  0  0  0  0
   37.4610   29.2480   50.4500 S   0  0  0  0  0  0  0  0  0  0  0  0
   37.9000   30.5190   49.2800 C   0  0  0  0  0  0  0  0  0  0  0  0
   38.2520   31.7390   49.8740 C   0  0  0  0  0  0  0  0  0  0  0  0
   38.6070   32.7780   49.0120 C   0  0  0  0  0  0  0  0  0  0  0  0
   38.6000   32.5790   47.6610 N   0  0  0  0  0  0  0  0  0  0  0  0
   38.2480   31.3710   47.1570 C   0  0  0  0  0  0  0  0  0  0  0  0
   37.9060   30.3670   47.9550 N   0  0  0  0  0  0  0  0  0  0  0  0
   34.7520   30.2940   49.6590 S   0  0  0  0  0  0  0  0  0  0  0  0
   34.3910   29.1530   48.3390 C   0  0  0  0  0  0  0  0  0  0  0  0
   34.4020   29.6060   47.0370 C   0  0  0  0  0  0  0  0  0  0  0  0
   34.1140   28.6590   46.0870 C   0  0  0  0  0  0  0  0  0  0  0  0
   33.8230   27.3430   46.2960 C   0  0  0  0  0  0  0  0  0  0  0  0
   33.8410   26.9980   47.6450 C   0  0  0  0  0  0  0  0  0  0  0  0
   34.1130   27.8370   48.7050 C   0  0  0  0  0  0  0  0  0  0  0  0
   35.3088   28.5206   51.1987 H   0  0  0  0  0  0  0  0  0  0  0  0
   35.7572   30.1634   51.8349 H   0  0  0  0  0  0  0  0  0  0  0  0
   38.2486   31.8711   50.9660 H   0  0  0  0  0  0  0  0  0  0  0  0
   38.8927   33.7582   49.4214 H   0  0  0  0  0  0  0  0  0  0  0  0
   38.2457   31.2200   46.0674 H   0  0  0  0  0  0  0  0  0  0  0  0
   34.6256   30.6515   46.7784 H   0  0  0  0  0  0  0  0  0  0  0  0
   34.1183   28.9987   45.0408 H   0  0  0  0  0  0  0  0  0  0  0  0
   33.5986   26.6319   45.4873 H   0  0  0  0  0  0  0  0  0  0  0  0
   33.6153   25.9496   47.8899 H   0  0  0  0  0  0  0  0  0  0  0  0
   34.1108   27.4966   49.7510 H   0  0  0  0  0  0  0  0  0  0  0  0
  2  1  1  0
  3  4  2  0
  3  2  1  0
  5  4  1  0
  6  5  2  0
  7  6  1  0
  7  8  2  0
  8  3  1  0
  9  1  1  0
 10 15  1  0
 10  9  1  0
 11 10  2  0
 12 13  2  0
 12 11  1  0
 13 14  1  0
 14 15  2  0
  1 16  1  0
  1 17  1  0
  4 18  1  0
  5 19  1  0
  7 20  1  0
 11 21  1  0
 12 22  1  0
 13 23  1  0
 14 24  1  0
 15 25  1  0
M  ISO  8  16   8  17   8  18  14  19  14  20  14  21  14  22  14  23  14
M  ISO  2  24  14  25  14
M  END
>  <minimizedAffinity>  (1) 
-4.47872257

>  <minimizedRMSD>  (1) 
2.71511626

$$$$
