
     RDKit          3D

 21 21  0  0  0  0  0  0  0  0999 V2000
   37.8530   30.4900   49.3690 C   0  0  0  0  0  0  0  0  0  0  0  0
   38.2110   31.6980   49.9530 C   0  0  0  0  0  0  0  0  0  0  0  0
   38.5780   32.7510   49.1250 C   0  0  0  0  0  0  0  0  0  0  0  0
   38.5720   32.5600   47.7540 N   0  0  0  0  0  0  0  0  0  0  0  0
   38.2110   31.3530   47.2510 C   0  0  0  0  0  0  0  0  0  0  0  0
   37.8630   30.3500   48.0290 N   0  0  0  0  0  0  0  0  0  0  0  0
   37.3940   29.1880   50.4920 S   0  0  0  0  0  0  0  0  0  0  0  0
   35.6850   29.4610   51.0000 C   0  0  0  0  0  0  0  0  0  0  0  0
   34.6120   29.9130   49.5910 S   0  0  0  0  0  0  0  0  0  0  0  0
   33.5500   28.4610   49.2750 C   0  0  0  0  0  0  0  0  0  0  0  0
   34.1540   27.5430   48.2340 C   0  0  0  0  0  0  0  0  0  0  0  0
   38.2041   31.8182   51.0464 H   0  0  0  0  0  0  0  0  0  0  0  0
   38.8690   33.7220   49.5522 H   0  0  0  0  0  0  0  0  0  0  0  0
   38.2090   31.2082   46.1606 H   0  0  0  0  0  0  0  0  0  0  0  0
   35.2993   28.5380   51.4576 H   0  0  0  0  0  0  0  0  0  0  0  0
   35.6739   30.2964   51.7155 H   0  0  0  0  0  0  0  0  0  0  0  0
   33.4226   27.9013   50.2133 H   0  0  0  0  0  0  0  0  0  0  0  0
   32.5816   28.8198   48.8961 H   0  0  0  0  0  0  0  0  0  0  0  0
   34.6923   26.7248   48.7347 H   0  0  0  0  0  0  0  0  0  0  0  0
   33.3540   27.1249   47.6054 H   0  0  0  0  0  0  0  0  0  0  0  0
   34.8546   28.1122   47.6054 H   0  0  0  0  0  0  0  0  0  0  0  0
  1  2  2  0
  1  7  1  0
  3  2  1  0
  4  3  2  0
  5  4  1  0
  5  6  2  0
  6  1  1  0
  7  8  1  0
  9  8  1  0
 10  9  1  0
 11 10  1  0
  2 12  1  0
  3 13  1  0
  5 14  1  0
  8 15  1  0
  8 16  1  0
 10 17  1  0
 10 18  1  0
 11 19  1  0
 11 20  1  0
 11 21  1  0
M  ISO  8  12  14  13  14  14  14  15   8  16   8  17   8  18   8  19   8
M  ISO  2  20   8  21   8
M  END
>  <minimizedAffinity>  (1) 
-3.55726719

>  <minimizedRMSD>  (1) 
1.30446422

$$$$
