
     RDKit          3D

 31 32  0  0  1  0  0  0  0  0999 V2000
   35.5170   29.8340   50.5180 C   0  0  0  0  0  0  0  0  0  0  0  0
   37.2640   30.1180   50.7480 S   0  0  0  0  0  0  0  0  0  0  0  0
   37.9110   30.9660   49.3210 C   0  0  0  0  0  0  0  0  0  0  0  0
   38.3410   32.2570   49.5660 C   0  0  0  0  0  0  0  0  0  0  0  0
   38.8660   32.9980   48.4900 C   0  0  0  0  0  0  0  0  0  0  0  0
   38.9190   32.3960   47.2630 N   0  0  0  0  0  0  0  0  0  0  0  0
   38.4800   31.1290   47.0930 C   0  0  0  0  0  0  0  0  0  0  0  0
   37.9890   30.4310   48.0960 N   0  0  0  0  0  0  0  0  0  0  0  0
   35.1360   28.3920   49.4920 S   0  0  0  0  0  0  0  0  0  0  0  0
   32.9550   27.3550   48.1630 C   0  0  1  0  0  0  0  0  0  0  0  0
   33.5910   28.6560   48.5970 C   0  0  2  0  0  0  0  0  0  0  0  0
   33.8030   29.4910   47.3750 C   0  0  0  0  0  0  0  0  0  0  0  0
   33.3950   28.8750   46.2070 O   0  0  0  0  0  0  0  0  0  0  0  0
   32.0400   28.5390   46.2390 C   0  0  0  0  0  0  0  0  0  0  0  0
   31.6760   27.7140   47.4370 C   0  0  2  0  0  0  0  0  0  0  0  0
   33.7640   26.6890   47.2360 O   0  0  0  0  0  0  0  0  0  0  0  0
   30.9350   28.4890   48.3410 O   0  0  0  0  0  0  0  0  0  0  0  0
   35.0571   29.6869   51.5064 H   0  0  0  0  0  0  0  0  0  0  0  0
   35.1174   30.7138   49.9925 H   0  0  0  0  0  0  0  0  0  0  0  0
   38.2748   32.6931   50.5737 H   0  0  0  0  0  0  0  0  0  0  0  0
   39.2224   34.0290   48.6318 H   0  0  0  0  0  0  0  0  0  0  0  0
   38.5341   30.6706   46.0945 H   0  0  0  0  0  0  0  0  0  0  0  0
   32.7963   26.7149   49.0434 H   0  0  0  0  0  0  0  0  0  0  0  0
   32.9235   29.1746   49.3009 H   0  0  0  0  0  0  0  0  0  0  0  0
   33.2369   30.4270   47.4907 H   0  0  0  0  0  0  0  0  0  0  0  0
   34.8855   29.6653   47.2869 H   0  0  0  0  0  0  0  0  0  0  0  0
   31.4480   29.4659   46.2571 H   0  0  0  0  0  0  0  0  0  0  0  0
   31.8260   27.9368   45.3437 H   0  0  0  0  0  0  0  0  0  0  0  0
   31.1067   26.8329   47.1060 H   0  0  0  0  0  0  0  0  0  0  0  0
   34.4323   26.1388   47.7164 H   0  0  0  0  0  0  0  0  0  0  0  0
   31.1764   28.2365   49.2673 H   0  0  0  0  0  0  0  0  0  0  0  0
  1  2  1  0
  3  4  2  0
  3  2  1  0
  5  4  1  0
  6  5  2  0
  7  6  1  0
  7  8  2  0
  8  3  1  0
  9  1  1  0
 10 16  1  0
 10 11  1  0
 11  9  1  0
 12 11  1  0
 13 14  1  0
 13 12  1  0
 14 15  1  0
 15 10  1  0
 15 17  1  0
  1 18  1  0
  1 19  1  0
  4 20  1  0
  5 21  1  0
  7 22  1  0
 10 23  1  1
 11 24  1  1
 12 25  1  0
 12 26  1  0
 14 27  1  0
 14 28  1  0
 15 29  1  6
 16 30  1  0
 17 31  1  0
M  ISO  8  18   8  19   8  20  14  21  14  22  14  23  13  24  13  25  13
M  ISO  6  26  13  27  13  28  13  29  13  30   3  31   3
M  END
>  <minimizedAffinity>  (1) 
-4.32947588

>  <minimizedRMSD>  (1) 
1.57167125

$$$$
