
     RDKit          3D

 38 40  0  0  1  0  0  0  0  0999 V2000
   32.5270   26.9280   48.2230 C   0  0  1  0  0  0  0  0  0  0  0  0
   33.1260   28.2840   48.5060 C   0  0  2  0  0  0  0  0  0  0  0  0
   33.0620   29.0810   47.2370 C   0  0  0  0  0  0  0  0  0  0  0  0
   32.5190   28.3860   46.1690 O   0  0  0  0  0  0  0  0  0  0  0  0
   31.2180   27.9500   46.4440 C   0  0  0  0  0  0  0  0  0  0  0  0
   31.1100   27.1710   47.7200 C   0  0  2  0  0  0  0  0  0  0  0  0
   33.2130   26.2760   47.1900 O   0  0  0  0  0  0  0  0  0  0  0  0
   34.8150   28.1660   49.1350 S   0  0  0  0  0  0  0  0  0  0  0  0
   35.0940   29.4420   50.3930 C   0  0  0  0  0  0  0  0  0  0  0  0
   36.8160   29.7290   50.7620 S   0  0  0  0  0  0  0  0  0  0  0  0
   37.5200   30.7370   49.4760 C   0  0  0  0  0  0  0  0  0  0  0  0
   37.7670   32.0490   49.8210 C   0  0  0  0  0  0  0  0  0  0  0  0
   38.3190   32.9220   48.8780 C   0  0  0  0  0  0  0  0  0  0  0  0
   38.5890   32.4060   47.6340 N   0  0  0  0  0  0  0  0  0  0  0  0
   38.3310   31.1150   47.3420 C   0  0  0  0  0  0  0  0  0  0  0  0
   37.8070   30.2990   48.2470 N   0  0  0  0  0  0  0  0  0  0  0  0
   30.4940   27.9240   48.7030 O   0  0  0  0  0  0  0  0  0  0  0  0
   29.5680   27.7750   49.5320 C   0  0  0  0  0  0  0  0  0  0  0  0
   29.1420   26.9640   50.5980 C   0  0  0  0  0  0  0  0  0  0  0  0
   27.9780   27.1610   51.2870 C   0  0  0  0  0  0  0  0  0  0  0  0
   27.1550   28.2760   50.8730 C   0  0  0  0  0  0  0  0  0  0  0  0
   28.1680   29.0060   49.4460 S   0  0  0  0  0  0  0  0  0  0  0  0
   32.5723   26.3141   49.1346 H   0  0  0  0  0  0  0  0  0  0  0  0
   32.5521   28.7848   49.2996 H   0  0  0  0  0  0  0  0  0  0  0  0
   32.4465   29.9743   47.4188 H   0  0  0  0  0  0  0  0  0  0  0  0
   34.0972   29.3327   46.9633 H   0  0  0  0  0  0  0  0  0  0  0  0
   30.5628   28.8306   46.5163 H   0  0  0  0  0  0  0  0  0  0  0  0
   30.9205   27.2774   45.6260 H   0  0  0  0  0  0  0  0  0  0  0  0
   30.5423   26.2489   47.5266 H   0  0  0  0  0  0  0  0  0  0  0  0
   33.8734   25.6483   47.5772 H   0  0  0  0  0  0  0  0  0  0  0  0
   34.6550   30.3844   50.0337 H   0  0  0  0  0  0  0  0  0  0  0  0
   34.6240   29.0839   51.3208 H   0  0  0  0  0  0  0  0  0  0  0  0
   37.5309   32.4076   50.8338 H   0  0  0  0  0  0  0  0  0  0  0  0
   38.5275   33.9742   49.1215 H   0  0  0  0  0  0  0  0  0  0  0  0
   38.5590   30.7321   46.3363 H   0  0  0  0  0  0  0  0  0  0  0  0
   29.7831   26.1211   50.8953 H   0  0  0  0  0  0  0  0  0  0  0  0
   27.6813   26.5028   52.1169 H   0  0  0  0  0  0  0  0  0  0  0  0
   26.1906   28.6133   51.2806 H   0  0  0  0  0  0  0  0  0  0  0  0
  1  2  1  0
  2  8  1  0
  3  2  1  0
  4  5  1  0
  4  3  1  0
  5  6  1  0
  6  1  1  0
  6 17  1  0
  7  1  1  0
  8  9  1  0
  9 10  1  0
 11 12  2  0
 11 10  1  0
 13 12  1  0
 14 13  2  0
 15 14  1  0
 15 16  2  0
 16 11  1  0
 17 18  1  0
 18 19  2  0
 19 20  1  0
 21 20  2  0
 22 18  1  0
 22 21  1  0
  1 23  1  1
  2 24  1  1
  3 25  1  0
  3 26  1  0
  5 27  1  0
  5 28  1  0
  6 29  1  6
  7 30  1  0
  9 31  1  0
  9 32  1  0
 12 33  1  0
 13 34  1  0
 15 35  1  0
 19 36  1  0
 20 37  1  0
 21 38  1  0
M  ISO  8  23  13  24  13  25  13  26  13  27  13  28  13  29  13  30   3
M  ISO  8  31   8  32   8  33  14  34  14  35  14  36  14  37  14  38  14
M  END
>  <minimizedAffinity>  (1) 
-5.40330172

>  <minimizedRMSD>  (1) 
0.876044512

$$$$
