
     RDKit          3D

 27 28  0  0  1  0  0  0  0  0999 V2000
   35.9710   29.6760   48.8360 N   0  0  0  0  0  0  0  0  0  0  0  0
   36.6310   28.8820   49.8390 C   0  0  0  0  0  0  0  0  0  0  0  0
   37.0990   29.5460   51.0520 C   0  0  0  0  0  0  0  0  0  0  0  0
   37.4110   30.9890   50.9900 C   0  0  0  0  0  0  0  0  0  0  0  0
   36.7910   31.7180   49.8380 C   0  0  0  0  0  0  0  0  0  0  0  0
   36.7880   30.8340   48.6050 C   0  0  1  0  0  0  0  0  0  0  0  0
   34.7400   29.3680   48.1950 C   0  0  0  0  0  0  0  0  0  0  0  0
   34.2300   30.0300   47.0830 C   0  0  0  0  0  0  0  0  0  0  0  0
   33.0130   29.6220   46.5590 C   0  0  0  0  0  0  0  0  0  0  0  0
   32.3770   28.5770   47.1770 N   0  0  0  0  0  0  0  0  0  0  0  0
   32.8910   27.9620   48.2430 C   0  0  0  0  0  0  0  0  0  0  0  0
   34.0660   28.3640   48.7400 N   0  0  0  0  0  0  0  0  0  0  0  0
   38.1860   30.4900   48.3300 N   0  0  0  0  0  0  0  0  0  0  0  0
   35.9252   28.0974   50.1492 H   0  0  0  0  0  0  0  0  0  0  0  0
   37.5521   28.5357   49.3473 H   0  0  0  0  0  0  0  0  0  0  0  0
   36.3183   29.4151   51.8158 H   0  0  0  0  0  0  0  0  0  0  0  0
   38.0678   29.0697   51.2631 H   0  0  0  0  0  0  0  0  0  0  0  0
   37.0564   31.4558   51.9208 H   0  0  0  0  0  0  0  0  0  0  0  0
   38.4999   31.0642   50.8533 H   0  0  0  0  0  0  0  0  0  0  0  0
   35.7563   31.9900   50.0936 H   0  0  0  0  0  0  0  0  0  0  0  0
   37.3752   32.6264   49.6293 H   0  0  0  0  0  0  0  0  0  0  0  0
   36.3577   31.3441   47.7306 H   0  0  0  0  0  0  0  0  0  0  0  0
   34.7835   30.8639   46.6267 H   0  0  0  0  0  0  0  0  0  0  0  0
   32.5745   30.1181   45.6806 H   0  0  0  0  0  0  0  0  0  0  0  0
   32.3503   27.1267   48.7121 H   0  0  0  0  0  0  0  0  0  0  0  0
   38.6904   30.3659   49.2194 H   0  0  0  0  0  0  0  0  0  0  0  0
   38.2241   29.6146   47.7887 H   0  0  0  0  0  0  0  0  0  0  0  0
  1  2  1  0
  2  3  1  0
  4  3  1  0
  5  4  1  0
  6  1  1  0
  6  5  1  0
  7 12  1  0
  7  1  1  0
  8  7  2  0
  9  8  1  0
  9 10  2  0
 10 11  1  0
 11 12  2  0
 13  6  1  0
  2 14  1  0
  2 15  1  0
  3 16  1  0
  3 17  1  0
  4 18  1  0
  4 19  1  0
  5 20  1  0
  5 21  1  0
  6 22  1  6
  8 23  1  0
  9 24  1  0
 11 25  1  0
 13 26  1  0
 13 27  1  0
M  ISO  8  14  13  15  13  16  13  17  13  18  13  19  13  20  13  21  13
M  ISO  6  22  13  23  14  24  14  25  14  26   5  27   5
M  END
>  <minimizedAffinity>  (1) 
-4.58774853

>  <minimizedRMSD>  (1) 
0.864024162

$$$$
