
     RDKit          3D

 35 37  0  0  1  0  0  0  0  0999 V2000
   36.7540   30.4330   48.7670 N   0  0  0  0  0  0  0  0  0  0  0  0
   36.2750   29.1690   48.3080 C   0  0  0  0  0  0  0  0  0  0  0  0
   34.8390   28.8840   48.4500 C   0  0  0  0  0  0  0  0  0  0  0  0
   34.0720   29.6210   49.4860 C   0  0  0  0  0  0  0  0  0  0  0  0
   34.7240   30.8650   50.0040 C   0  0  0  0  0  0  0  0  0  0  0  0
   36.2480   30.6780   50.0730 C   0  0  1  0  0  0  0  0  0  0  0  0
   37.6130   31.3160   48.0230 C   0  0  0  0  0  0  0  0  0  0  0  0
   38.5340   32.1910   48.5960 C   0  0  0  0  0  0  0  0  0  0  0  0
   39.2970   32.9850   47.7470 C   0  0  0  0  0  0  0  0  0  0  0  0
   39.0960   32.8590   46.4010 N   0  0  0  0  0  0  0  0  0  0  0  0
   38.2100   32.0160   45.8860 C   0  0  0  0  0  0  0  0  0  0  0  0
   37.4770   31.2520   46.6970 N   0  0  0  0  0  0  0  0  0  0  0  0
   38.0250   31.9090   44.4350 C   0  0  0  0  0  0  0  0  0  0  0  0
   37.0100   32.3570   43.5870 C   0  0  0  0  0  0  0  0  0  0  0  0
   37.4370   31.9350   42.3350 C   0  0  0  0  0  0  0  0  0  0  0  0
   38.6570   31.2690   42.4800 C   0  0  0  0  0  0  0  0  0  0  0  0
   38.9670   31.2820   43.7700 O   0  0  0  0  0  0  0  0  0  0  0  0
   36.5460   29.6460   51.1120 C   0  0  0  0  0  0  0  0  0  0  0  0
   37.2680   30.3060   52.1180 F   0  0  0  0  0  0  0  0  0  0  0  0
   37.4490   28.7340   50.6210 F   0  0  0  0  0  0  0  0  0  0  0  0
   35.4900   29.0910   51.7310 F   0  0  0  0  0  0  0  0  0  0  0  0
   36.8197   28.3911   48.8631 H   0  0  0  0  0  0  0  0  0  0  0  0
   36.4463   29.1872   47.2216 H   0  0  0  0  0  0  0  0  0  0  0  0
   34.3670   29.1006   47.4803 H   0  0  0  0  0  0  0  0  0  0  0  0
   34.8028   27.8357   48.7813 H   0  0  0  0  0  0  0  0  0  0  0  0
   33.1005   29.9020   49.0533 H   0  0  0  0  0  0  0  0  0  0  0  0
   33.9924   28.9398   50.3461 H   0  0  0  0  0  0  0  0  0  0  0  0
   34.4912   31.7039   49.3317 H   0  0  0  0  0  0  0  0  0  0  0  0
   34.3427   31.0754   51.0141 H   0  0  0  0  0  0  0  0  0  0  0  0
   36.7807   31.5830   50.4004 H   0  0  0  0  0  0  0  0  0  0  0  0
   38.6538   32.2517   49.6878 H   0  0  0  0  0  0  0  0  0  0  0  0
   40.0390   33.6922   48.1461 H   0  0  0  0  0  0  0  0  0  0  0  0
   36.0952   32.9095   43.8474 H   0  0  0  0  0  0  0  0  0  0  0  0
   36.9037   32.0978   41.3868 H   0  0  0  0  0  0  0  0  0  0  0  0
   39.2515   30.8168   41.6725 H   0  0  0  0  0  0  0  0  0  0  0  0
  1  6  1  0
  2  3  1  0
  2  1  1  0
  3  4  1  0
  4  5  1  0
  5  6  1  0
  6 18  1  0
  7  8  2  0
  7  1  1  0
  9  8  1  0
 10  9  2  0
 11 10  1  0
 11 12  2  0
 12  7  1  0
 13 11  1  0
 14 13  2  0
 15 16  2  0
 15 14  1  0
 16 17  1  0
 17 13  1  0
 18 21  1  0
 18 19  1  0
 20 18  1  0
  2 22  1  0
  2 23  1  0
  3 24  1  0
  3 25  1  0
  4 26  1  0
  4 27  1  0
  5 28  1  0
  5 29  1  0
  6 30  1  1
  8 31  1  0
  9 32  1  0
 14 33  1  0
 15 34  1  0
 16 35  1  0
M  ISO  8  22  13  23  13  24  13  25  13  26  13  27  13  28  13  29  13
M  ISO  6  30  13  31  14  32  14  33  14  34  14  35  14
M  END
>  <minimizedAffinity>  (1) 
-5.73431587

>  <minimizedRMSD>  (1) 
6.66036367

$$$$
