
     RDKit          3D

 35 37  0  0  1  0  0  0  0  0999 V2000
   36.7300   30.3900   48.7110 N   0  0  0  0  0  0  0  0  0  0  0  0
   36.2160   29.1240   48.3030 C   0  0  0  0  0  0  0  0  0  0  0  0
   34.7840   28.8630   48.5040 C   0  0  0  0  0  0  0  0  0  0  0  0
   34.0570   29.6350   49.5480 C   0  0  0  0  0  0  0  0  0  0  0  0
   34.7540   30.8830   50.0040 C   0  0  0  0  0  0  0  0  0  0  0  0
   36.2720   30.6740   50.0210 C   0  0  1  0  0  0  0  0  0  0  0  0
   37.5770   31.2320   47.9070 C   0  0  0  0  0  0  0  0  0  0  0  0
   38.5440   32.1010   48.4100 C   0  0  0  0  0  0  0  0  0  0  0  0
   39.2880   32.8510   47.5200 C   0  0  0  0  0  0  0  0  0  0  0  0
   39.0300   32.6960   46.1820 N   0  0  0  0  0  0  0  0  0  0  0  0
   38.1030   31.8590   45.7310 C   0  0  0  0  0  0  0  0  0  0  0  0
   37.3810   31.1320   46.5900 N   0  0  0  0  0  0  0  0  0  0  0  0
   37.8640   31.7280   44.2820 C   0  0  0  0  0  0  0  0  0  0  0  0
   36.8930   32.3650   43.5360 C   0  0  0  0  0  0  0  0  0  0  0  0
   37.0800   31.9140   42.2370 C   0  0  0  0  0  0  0  0  0  0  0  0
   38.1280   31.0380   42.2170 N   0  0  0  0  0  0  0  0  0  0  0  0
   38.6020   30.9280   43.4650 N   0  0  0  0  0  0  0  0  0  0  0  0
   36.5970   29.6750   51.0820 C   0  0  0  0  0  0  0  0  0  0  0  0
   37.3260   30.3640   52.0580 F   0  0  0  0  0  0  0  0  0  0  0  0
   37.4990   28.7540   50.5980 F   0  0  0  0  0  0  0  0  0  0  0  0
   35.5520   29.1220   51.7240 F   0  0  0  0  0  0  0  0  0  0  0  0
   36.7700   28.3521   48.8573 H   0  0  0  0  0  0  0  0  0  0  0  0
   36.3462   29.1140   47.2108 H   0  0  0  0  0  0  0  0  0  0  0  0
   34.2811   29.0609   47.5459 H   0  0  0  0  0  0  0  0  0  0  0  0
   34.7498   27.8251   48.8667 H   0  0  0  0  0  0  0  0  0  0  0  0
   33.0751   29.9197   49.1421 H   0  0  0  0  0  0  0  0  0  0  0  0
   33.9876   28.9786   50.4280 H   0  0  0  0  0  0  0  0  0  0  0  0
   34.5096   31.7060   49.3163 H   0  0  0  0  0  0  0  0  0  0  0  0
   34.4170   31.1270   51.0223 H   0  0  0  0  0  0  0  0  0  0  0  0
   36.8283   31.5811   50.2997 H   0  0  0  0  0  0  0  0  0  0  0  0
   38.7112   32.1877   49.4938 H   0  0  0  0  0  0  0  0  0  0  0  0
   40.0615   33.5491   47.8726 H   0  0  0  0  0  0  0  0  0  0  0  0
   36.1345   33.0767   43.8940 H   0  0  0  0  0  0  0  0  0  0  0  0
   36.4810   32.2135   41.3643 H   0  0  0  0  0  0  0  0  0  0  0  0
   38.4905   30.5476   41.3870 H   0  0  0  0  0  0  0  0  0  0  0  0
  1  6  1  0
  2  3  1  0
  2  1  1  0
  3  4  1  0
  4  5  1  0
  5  6  1  0
  6 18  1  0
  7  8  2  0
  7  1  1  0
  9  8  1  0
 10  9  2  0
 11 10  1  0
 11 12  2  0
 12  7  1  0
 13 11  1  0
 14 13  1  0
 15 14  2  0
 16 15  1  0
 16 17  1  0
 17 13  2  0
 18 21  1  0
 18 19  1  0
 20 18  1  0
  2 22  1  0
  2 23  1  0
  3 24  1  0
  3 25  1  0
  4 26  1  0
  4 27  1  0
  5 28  1  0
  5 29  1  0
  6 30  1  1
  8 31  1  0
  9 32  1  0
 14 33  1  0
 15 34  1  0
 16 35  1  0
M  ISO  8  22  13  23  13  24  13  25  13  26  13  27  13  28  13  29  13
M  ISO  6  30  13  31  14  32  14  33  14  34  14  35   9
M  END
>  <minimizedAffinity>  (1) 
-5.73221874

>  <minimizedRMSD>  (1) 
6.58907843

$$$$
