
     RDKit          3D

 32 33  0  0  1  0  0  0  0  0999 V2000
   35.8570   29.9110   48.6770 N   0  0  0  0  0  0  0  0  0  0  0  0
   36.6250   28.9750   49.4370 C   0  0  0  0  0  0  0  0  0  0  0  0
   37.0660   29.3760   50.7810 C   0  0  0  0  0  0  0  0  0  0  0  0
   37.1820   30.8270   51.0830 C   0  0  0  0  0  0  0  0  0  0  0  0
   36.4560   31.7430   50.1430 C   0  0  0  0  0  0  0  0  0  0  0  0
   36.4980   31.1780   48.7150 C   0  0  1  0  0  0  0  0  0  0  0  0
   34.6310   29.6090   47.9880 C   0  0  0  0  0  0  0  0  0  0  0  0
   34.1220   30.3500   46.9220 C   0  0  0  0  0  0  0  0  0  0  0  0
   32.9250   29.9340   46.3570 C   0  0  0  0  0  0  0  0  0  0  0  0
   32.3140   28.8300   46.8720 N   0  0  0  0  0  0  0  0  0  0  0  0
   32.8280   28.1380   47.8980 C   0  0  0  0  0  0  0  0  0  0  0  0
   33.9790   28.5430   48.4350 N   0  0  0  0  0  0  0  0  0  0  0  0
   30.7490   27.0800   48.6080 C   0  0  0  0  0  0  0  0  0  0  0  0
   30.1200   28.1290   48.3520 O   0  0  0  0  0  0  0  0  0  0  0  0
   32.1570   26.9900   48.4050 N   0  0  0  0  0  0  0  0  0  0  0  0
   37.9110   31.2250   48.2370 C   0  0  0  0  0  0  0  0  0  0  0  0
   37.9800   32.2800   47.3180 F   0  0  0  0  0  0  0  0  0  0  0  0
   38.1910   30.1190   47.4730 F   0  0  0  0  0  0  0  0  0  0  0  0
   38.8530   31.4890   49.1680 F   0  0  0  0  0  0  0  0  0  0  0  0
   36.0152   28.0665   49.5500 H   0  0  0  0  0  0  0  0  0  0  0  0
   37.5573   28.8554   48.8655 H   0  0  0  0  0  0  0  0  0  0  0  0
   36.3493   28.9506   51.4989 H   0  0  0  0  0  0  0  0  0  0  0  0
   38.0981   29.0019   50.8499 H   0  0  0  0  0  0  0  0  0  0  0  0
   36.7843   30.9953   52.0947 H   0  0  0  0  0  0  0  0  0  0  0  0
   38.2492   31.0724   50.9792 H   0  0  0  0  0  0  0  0  0  0  0  0
   35.4087   31.8389   50.4653 H   0  0  0  0  0  0  0  0  0  0  0  0
   36.9436   32.7290   50.1538 H   0  0  0  0  0  0  0  0  0  0  0  0
   35.9227   31.7835   47.9992 H   0  0  0  0  0  0  0  0  0  0  0  0
   34.6522   31.2355   46.5414 H   0  0  0  0  0  0  0  0  0  0  0  0
   32.4798   30.4821   45.5136 H   0  0  0  0  0  0  0  0  0  0  0  0
   30.2045   26.2075   48.9983 H   0  0  0  0  0  0  0  0  0  0  0  0
   32.6713   26.1234   48.6180 H   0  0  0  0  0  0  0  0  0  0  0  0
  1  6  1  0
  1  2  1  0
  2  3  1  0
  3  4  1  0
  5  4  1  0
  6  5  1  0
  7 12  1  0
  7  1  1  0
  8  7  2  0
  9 10  2  0
  9  8  1  0
 10 11  1  0
 11 15  1  0
 11 12  2  0
 14 13  2  0
 15 13  1  0
 16  6  1  0
 16 19  1  0
 17 16  1  0
 18 16  1  0
  2 20  1  0
  2 21  1  0
  3 22  1  0
  3 23  1  0
  4 24  1  0
  4 25  1  0
  5 26  1  0
  5 27  1  0
  6 28  1  6
  8 29  1  0
  9 30  1  0
 13 31  1  0
 15 32  1  0
M  ISO  8  20  13  21  13  22  13  23  13  24  13  25  13  26  13  27  13
M  ISO  4  28  13  29  14  30  14  31   6
M  END
>  <minimizedAffinity>  (1) 
-5.6172204

>  <minimizedRMSD>  (1) 
0.432388753

$$$$
