
     RDKit          3D

 35 37  0  0  1  0  0  0  0  0999 V2000
   35.7870   29.9030   48.6510 N   0  0  0  0  0  0  0  0  0  0  0  0
   36.5390   28.9420   49.4030 C   0  0  0  0  0  0  0  0  0  0  0  0
   36.9830   29.3140   50.7530 C   0  0  0  0  0  0  0  0  0  0  0  0
   37.1150   30.7560   51.0860 C   0  0  0  0  0  0  0  0  0  0  0  0
   36.4010   31.6960   50.1510 C   0  0  0  0  0  0  0  0  0  0  0  0
   36.4460   31.1480   48.7210 C   0  0  1  0  0  0  0  0  0  0  0  0
   34.5640   29.6180   47.9500 C   0  0  0  0  0  0  0  0  0  0  0  0
   34.1230   30.3060   46.8210 C   0  0  0  0  0  0  0  0  0  0  0  0
   32.9260   29.9290   46.2420 C   0  0  0  0  0  0  0  0  0  0  0  0
   32.2430   28.8870   46.8270 N   0  0  0  0  0  0  0  0  0  0  0  0
   32.6860   28.2480   47.9050 C   0  0  0  0  0  0  0  0  0  0  0  0
   33.8410   28.6190   48.4550 N   0  0  0  0  0  0  0  0  0  0  0  0
   31.8440   27.1410   48.4320 C   0  0  0  0  0  0  0  0  0  0  0  0
   30.4660   26.9210   47.9970 C   0  0  0  0  0  0  0  0  0  0  0  0
   30.6880   27.6720   49.2970 C   0  0  0  0  0  0  0  0  0  0  0  0
   37.8670   31.1940   48.2500 C   0  0  0  0  0  0  0  0  0  0  0  0
   37.9570   32.2720   47.3630 F   0  0  0  0  0  0  0  0  0  0  0  0
   38.1270   30.1030   47.4520 F   0  0  0  0  0  0  0  0  0  0  0  0
   38.8050   31.4100   49.1910 F   0  0  0  0  0  0  0  0  0  0  0  0
   35.9138   28.0423   49.5011 H   0  0  0  0  0  0  0  0  0  0  0  0
   37.4714   28.8173   48.8329 H   0  0  0  0  0  0  0  0  0  0  0  0
   36.2615   28.8821   51.4622 H   0  0  0  0  0  0  0  0  0  0  0  0
   38.0120   28.9297   50.8124 H   0  0  0  0  0  0  0  0  0  0  0  0
   36.7117   30.9103   52.0977 H   0  0  0  0  0  0  0  0  0  0  0  0
   38.1857   30.9933   50.9999 H   0  0  0  0  0  0  0  0  0  0  0  0
   35.3529   31.7993   50.4686 H   0  0  0  0  0  0  0  0  0  0  0  0
   36.8974   32.6773   50.1772 H   0  0  0  0  0  0  0  0  0  0  0  0
   35.8803   31.7665   48.0087 H   0  0  0  0  0  0  0  0  0  0  0  0
   34.7152   31.1317   46.3996 H   0  0  0  0  0  0  0  0  0  0  0  0
   32.5352   30.4407   45.3502 H   0  0  0  0  0  0  0  0  0  0  0  0
   32.6879   26.4386   48.4991 H   0  0  0  0  0  0  0  0  0  0  0  0
   30.0809   27.4579   47.1175 H   0  0  0  0  0  0  0  0  0  0  0  0
   29.8849   26.0296   47.7181 H   0  0  0  0  0  0  0  0  0  0  0  0
   30.4506   27.1996   50.2616 H   0  0  0  0  0  0  0  0  0  0  0  0
   30.3894   28.6457   49.7127 H   0  0  0  0  0  0  0  0  0  0  0  0
  1  6  1  0
  1  2  1  0
  2  3  1  0
  3  4  1  0
  5  4  1  0
  6  5  1  0
  7 12  1  0
  7  1  1  0
  8  7  2  0
  9  8  1  0
  9 10  2  0
 10 11  1  0
 11 13  1  0
 11 12  2  0
 13 15  1  0
 14 13  1  0
 14 15  1  0
 16  6  1  0
 16 19  1  0
 17 16  1  0
 18 16  1  0
  2 20  1  0
  2 21  1  0
  3 22  1  0
  3 23  1  0
  4 24  1  0
  4 25  1  0
  5 26  1  0
  5 27  1  0
  6 28  1  6
  8 29  1  0
  9 30  1  0
 13 31  1  0
 14 32  1  0
 14 33  1  0
 15 34  1  0
 15 35  1  0
M  ISO  8  20  13  21  13  22  13  23  13  24  13  25  13  26  13  27  13
M  ISO  8  28  13  29  14  30  14  31  13  32  13  33  13  34  13  35  13
M  END
>  <minimizedAffinity>  (1) 
-5.45981073

>  <minimizedRMSD>  (1) 
0.493178666

$$$$
