
     RDKit          3D

 31 32  0  0  1  0  0  0  0  0999 V2000
   35.8760   29.9340   48.6650 N   0  0  0  0  0  0  0  0  0  0  0  0
   36.6230   28.9890   49.4220 C   0  0  0  0  0  0  0  0  0  0  0  0
   37.0470   29.3650   50.7770 C   0  0  0  0  0  0  0  0  0  0  0  0
   37.1740   30.8100   51.1020 C   0  0  0  0  0  0  0  0  0  0  0  0
   36.4680   31.7470   50.1550 C   0  0  0  0  0  0  0  0  0  0  0  0
   36.5330   31.2000   48.7270 C   0  0  1  0  0  0  0  0  0  0  0  0
   34.6580   29.6630   47.9500 C   0  0  0  0  0  0  0  0  0  0  0  0
   34.2010   30.3880   46.8510 C   0  0  0  0  0  0  0  0  0  0  0  0
   33.0010   29.9990   46.2690 C   0  0  0  0  0  0  0  0  0  0  0  0
   32.3390   28.9260   46.8160 N   0  0  0  0  0  0  0  0  0  0  0  0
   32.8030   28.2600   47.8610 C   0  0  0  0  0  0  0  0  0  0  0  0
   33.9520   28.6300   48.4190 N   0  0  0  0  0  0  0  0  0  0  0  0
   32.0130   27.1090   48.3830 C   0  0  0  0  0  0  0  0  0  0  0  0
   37.9530   31.2380   48.2720 C   0  0  0  0  0  0  0  0  0  0  0  0
   38.0430   32.3120   47.3740 F   0  0  0  0  0  0  0  0  0  0  0  0
   38.2290   30.1450   47.4900 F   0  0  0  0  0  0  0  0  0  0  0  0
   38.8790   31.4780   49.2200 F   0  0  0  0  0  0  0  0  0  0  0  0
   36.0059   28.0830   49.5130 H   0  0  0  0  0  0  0  0  0  0  0  0
   37.5639   28.8751   48.8637 H   0  0  0  0  0  0  0  0  0  0  0  0
   36.3147   28.9371   51.4775 H   0  0  0  0  0  0  0  0  0  0  0  0
   38.0738   28.9785   50.8563 H   0  0  0  0  0  0  0  0  0  0  0  0
   36.7611   30.9696   52.1090 H   0  0  0  0  0  0  0  0  0  0  0  0
   38.2452   31.0470   51.0227 H   0  0  0  0  0  0  0  0  0  0  0  0
   35.4155   31.8463   50.4589 H   0  0  0  0  0  0  0  0  0  0  0  0
   36.9614   32.7296   50.1867 H   0  0  0  0  0  0  0  0  0  0  0  0
   35.9795   31.8207   48.0070 H   0  0  0  0  0  0  0  0  0  0  0  0
   34.7724   31.2413   46.4568 H   0  0  0  0  0  0  0  0  0  0  0  0
   32.5936   30.5330   45.3979 H   0  0  0  0  0  0  0  0  0  0  0  0
   32.0242   27.1253   49.4828 H   0  0  0  0  0  0  0  0  0  0  0  0
   30.9754   27.1844   48.0257 H   0  0  0  0  0  0  0  0  0  0  0  0
   32.4564   26.1678   48.0257 H   0  0  0  0  0  0  0  0  0  0  0  0
  1  6  1  0
  1  2  1  0
  2  3  1  0
  3  4  1  0
  5  4  1  0
  6  5  1  0
  7 12  1  0
  7  1  1  0
  8  7  2  0
  9 10  2  0
  9  8  1  0
 10 11  1  0
 11 13  1  0
 11 12  2  0
 14  6  1  0
 14 17  1  0
 15 14  1  0
 16 14  1  0
  2 18  1  0
  2 19  1  0
  3 20  1  0
  3 21  1  0
  4 22  1  0
  4 23  1  0
  5 24  1  0
  5 25  1  0
  6 26  1  6
  8 27  1  0
  9 28  1  0
 13 29  1  0
 13 30  1  0
 13 31  1  0
M  ISO  8  18  13  19  13  20  13  21  13  22  13  23  13  24  13  25  13
M  ISO  6  26  13  27  14  28  14  29   8  30   8  31   8
M  END
>  <minimizedAffinity>  (1) 
-5.19454432

>  <minimizedRMSD>  (1) 
0.438265741

$$$$
