
     RDKit          3D

 44 47  0  0  1  0  0  0  0  0999 V2000
   35.9950   29.8120   48.4170 N   0  0  0  0  0  0  0  0  0  0  0  0
   35.3860   28.5180   48.6030 C   0  0  0  0  0  0  0  0  0  0  0  0
   34.1170   28.4490   49.3450 C   0  0  0  0  0  0  0  0  0  0  0  0
   33.8070   29.5440   50.3070 C   0  0  0  0  0  0  0  0  0  0  0  0
   34.5920   30.8110   50.1040 C   0  0  0  0  0  0  0  0  0  0  0  0
   36.0240   30.4770   49.6570 C   0  0  1  0  0  0  0  0  0  0  0  0
   36.4760   30.3060   47.1570 C   0  0  0  0  0  0  0  0  0  0  0  0
   37.6950   30.9490   46.9740 C   0  0  0  0  0  0  0  0  0  0  0  0
   38.0140   31.3680   45.7030 C   0  0  0  0  0  0  0  0  0  0  0  0
   37.1330   31.1320   44.7040 N   0  0  0  0  0  0  0  0  0  0  0  0
   35.9700   30.5180   44.8840 C   0  0  0  0  0  0  0  0  0  0  0  0
   35.6950   30.1300   46.1180 N   0  0  0  0  0  0  0  0  0  0  0  0
   34.9160   30.1880   43.9180 C   0  0  0  0  0  0  0  0  0  0  0  0
   33.8570   31.0610   43.6370 C   0  0  0  0  0  0  0  0  0  0  0  0
   32.8530   30.7950   42.7480 C   0  0  0  0  0  0  0  0  0  0  0  0
   32.8480   29.6030   42.0650 C   0  0  0  0  0  0  0  0  0  0  0  0
   33.8600   28.6960   42.2930 C   0  0  0  0  0  0  0  0  0  0  0  0
   33.8390   27.5050   41.6020 C   0  0  0  0  0  0  0  0  0  0  0  0
   34.8250   26.5580   41.7890 C   0  0  0  0  0  0  0  0  0  0  0  0
   35.8160   26.8710   42.6970 C   0  0  0  0  0  0  0  0  0  0  0  0
   35.7910   28.0760   43.3620 C   0  0  0  0  0  0  0  0  0  0  0  0
   34.8310   29.0280   43.1960 C   0  0  0  0  0  0  0  0  0  0  0  0
   36.7180   29.7950   50.7830 C   0  0  0  0  0  0  0  0  0  0  0  0
   37.6350   30.7220   51.2980 F   0  0  0  0  0  0  0  0  0  0  0  0
   37.5290   28.7910   50.2980 F   0  0  0  0  0  0  0  0  0  0  0  0
   35.9470   29.4030   51.8220 F   0  0  0  0  0  0  0  0  0  0  0  0
   35.2032   28.0964   47.6036 H   0  0  0  0  0  0  0  0  0  0  0  0
   36.1009   27.9672   49.2319 H   0  0  0  0  0  0  0  0  0  0  0  0
   33.3053   28.4264   48.6029 H   0  0  0  0  0  0  0  0  0  0  0  0
   34.2155   27.5517   49.9736 H   0  0  0  0  0  0  0  0  0  0  0  0
   32.7381   29.7866   50.2147 H   0  0  0  0  0  0  0  0  0  0  0  0
   34.0854   29.1665   51.3020 H   0  0  0  0  0  0  0  0  0  0  0  0
   34.1028   31.4227   49.3317 H   0  0  0  0  0  0  0  0  0  0  0  0
   34.6305   31.3674   51.0521 H   0  0  0  0  0  0  0  0  0  0  0  0
   36.6321   31.3697   49.4488 H   0  0  0  0  0  0  0  0  0  0  0  0
   38.3813   31.1171   47.8170 H   0  0  0  0  0  0  0  0  0  0  0  0
   38.9649   31.8838   45.5035 H   0  0  0  0  0  0  0  0  0  0  0  0
   33.8316   32.0246   44.1669 H   0  0  0  0  0  0  0  0  0  0  0  0
   32.0534   31.5316   42.5805 H   0  0  0  0  0  0  0  0  0  0  0  0
   32.0471   29.3757   41.3460 H   0  0  0  0  0  0  0  0  0  0  0  0
   33.0242   27.3056   40.8905 H   0  0  0  0  0  0  0  0  0  0  0  0
   34.8213   25.6032   41.2427 H   0  0  0  0  0  0  0  0  0  0  0  0
   36.6286   26.1552   42.8900 H   0  0  0  0  0  0  0  0  0  0  0  0
   36.6014   28.2843   44.0760 H   0  0  0  0  0  0  0  0  0  0  0  0
  1  2  1  0
  1  6  1  0
  2  3  1  0
  3  4  1  0
  5  4  1  0
  6  5  1  0
  6 23  1  0
  7  1  1  0
  8  7  2  0
  9  8  1  0
 10 11  1  0
 10  9  2  0
 11 12  2  0
 12  7  1  0
 13 11  1  0
 14 13  2  0
 15 14  1  0
 16 17  1  0
 16 15  2  0
 17 22  2  0
 18 19  2  0
 18 17  1  0
 19 20  1  0
 20 21  2  0
 22 21  1  0
 22 13  1  0
 23 24  1  0
 23 26  1  0
 25 23  1  0
  2 27  1  0
  2 28  1  0
  3 29  1  0
  3 30  1  0
  4 31  1  0
  4 32  1  0
  5 33  1  0
  5 34  1  0
  6 35  1  6
  8 36  1  0
  9 37  1  0
 14 38  1  0
 15 39  1  0
 16 40  1  0
 18 41  1  0
 19 42  1  0
 20 43  1  0
 21 44  1  0
M  ISO  8  27  13  28  13  29  13  30  13  31  13  32  13  33  13  34  13
M  ISO  8  35  13  36  14  37  14  38  14  39  14  40  14  41  14  42  14
M  ISO  2  43  14  44  14
M  END
>  <minimizedAffinity>  (1) 
-5.15529871

>  <minimizedRMSD>  (1) 
5.9321537

$$$$
