
     RDKit          3D

 22 23  0  0  0  0  0  0  0  0999 V2000
   37.0580   31.4230   48.8260 C   0  0  0  0  0  0  0  0  0  0  0  0
   36.9900   32.2550   49.7810 O   0  0  0  0  0  0  0  0  0  0  0  0
   38.0540   31.5290   47.7710 C   0  0  0  0  0  0  0  0  0  0  0  0
   38.7740   32.7210   47.6910 C   0  0  0  0  0  0  0  0  0  0  0  0
   39.7360   32.8180   46.6700 C   0  0  0  0  0  0  0  0  0  0  0  0
   39.9060   31.7570   45.8300 N   0  0  0  0  0  0  0  0  0  0  0  0
   39.1940   30.6320   45.9430 C   0  0  0  0  0  0  0  0  0  0  0  0
   38.2750   30.5260   46.9110 N   0  0  0  0  0  0  0  0  0  0  0  0
   37.4280   29.1440   50.8200 Cl  0  0  0  0  0  0  0  0  0  0  0  0
   36.1120   29.2420   49.6740 C   0  0  0  0  0  0  0  0  0  0  0  0
   36.0750   30.3320   48.8330 C   0  0  0  0  0  0  0  0  0  0  0  0
   35.0580   30.4520   47.9160 C   0  0  0  0  0  0  0  0  0  0  0  0
   34.0520   29.4900   47.8080 C   0  0  0  0  0  0  0  0  0  0  0  0
   34.1080   28.4050   48.6610 C   0  0  0  0  0  0  0  0  0  0  0  0
   35.1290   28.2750   49.5910 C   0  0  0  0  0  0  0  0  0  0  0  0
   38.5972   33.5477   48.3948 H   0  0  0  0  0  0  0  0  0  0  0  0
   40.3388   33.7304   46.5513 H   0  0  0  0  0  0  0  0  0  0  0  0
   39.3618   29.7983   45.2453 H   0  0  0  0  0  0  0  0  0  0  0  0
   35.0363   31.3278   47.2507 H   0  0  0  0  0  0  0  0  0  0  0  0
   33.2432   29.5925   47.0695 H   0  0  0  0  0  0  0  0  0  0  0  0
   33.3292   27.6304   48.6018 H   0  0  0  0  0  0  0  0  0  0  0  0
   35.1558   27.4033   50.2613 H   0  0  0  0  0  0  0  0  0  0  0  0
  1 11  1  0
  1  2  2  0
  3  1  1  0
  4  3  2  0
  5  4  1  0
  6  7  1  0
  6  5  2  0
  7  8  2  0
  8  3  1  0
 10  9  1  0
 11 10  2  0
 12 11  1  0
 13 12  2  0
 13 14  1  0
 14 15  2  0
 15 10  1  0
  4 16  1  0
  5 17  1  0
  7 18  1  0
 12 19  1  0
 13 20  1  0
 14 21  1  0
 15 22  1  0
M  ISO  7  16  14  17  14  18  14  19  14  20  14  21  14  22  14
M  END
>  <minimizedAffinity>  (1) 
-5.24108124

>  <minimizedRMSD>  (1) 
3.01555014

$$$$
