
     RDKit          3D

 26 27  0  0  0  0  0  0  0  0999 V2000
   37.2680   32.6190   49.6070 C   0  0  0  0  0  0  0  0  0  0  0  0
   36.7030   33.4970   50.2980 O   0  0  0  0  0  0  0  0  0  0  0  0
   36.8820   31.2710   49.8480 N   0  0  0  0  0  0  0  0  0  0  0  0
   35.4840   30.8990   49.9870 C   0  0  0  0  0  0  0  0  0  0  0  0
   35.2750   29.6680   49.1340 C   0  0  0  0  0  0  0  0  0  0  0  0
   36.0600   28.5900   49.6360 N   0  0  0  0  0  0  0  0  0  0  0  0
   37.2220   28.9310   50.3790 C   0  0  0  0  0  0  0  0  0  0  0  0
   37.8800   30.2280   49.9630 C   0  0  0  0  0  0  0  0  0  0  0  0
   38.2690   32.9080   48.6000 C   0  0  0  0  0  0  0  0  0  0  0  0
   39.1870   33.9230   48.9490 C   0  0  0  0  0  0  0  0  0  0  0  0
   40.2080   34.2900   48.0460 C   0  0  0  0  0  0  0  0  0  0  0  0
   40.2210   33.6030   46.8600 N   0  0  0  0  0  0  0  0  0  0  0  0
   39.3400   32.6480   46.5560 C   0  0  0  0  0  0  0  0  0  0  0  0
   38.3720   32.3050   47.4230 N   0  0  0  0  0  0  0  0  0  0  0  0
   35.2542   30.6747   51.0391 H   0  0  0  0  0  0  0  0  0  0  0  0
   34.8230   31.7183   49.6680 H   0  0  0  0  0  0  0  0  0  0  0  0
   35.5755   29.8866   48.0987 H   0  0  0  0  0  0  0  0  0  0  0  0
   34.2124   29.3851   49.1614 H   0  0  0  0  0  0  0  0  0  0  0  0
   35.4551   28.0233   50.2475 H   0  0  0  0  0  0  0  0  0  0  0  0
   36.9388   29.0149   51.4386 H   0  0  0  0  0  0  0  0  0  0  0  0
   37.9569   28.1348   50.1892 H   0  0  0  0  0  0  0  0  0  0  0  0
   38.3771   30.0898   48.9915 H   0  0  0  0  0  0  0  0  0  0  0  0
   38.6218   30.5180   50.7217 H   0  0  0  0  0  0  0  0  0  0  0  0
   39.1064   34.4270   49.9234 H   0  0  0  0  0  0  0  0  0  0  0  0
   40.9435   35.0743   48.2784 H   0  0  0  0  0  0  0  0  0  0  0  0
   39.4068   32.1357   45.5849 H   0  0  0  0  0  0  0  0  0  0  0  0
  1  3  1  0
  1  2  2  0
  3  8  1  0
  3  4  1  0
  5  6  1  0
  5  4  1  0
  6  7  1  0
  8  7  1  0
  9 10  2  0
  9  1  1  0
 11 10  1  0
 12 11  2  0
 13 12  1  0
 13 14  2  0
 14  9  1  0
  4 15  1  0
  4 16  1  0
  5 17  1  0
  5 18  1  0
  6 19  1  0
  7 20  1  0
  7 21  1  0
  8 22  1  0
  8 23  1  0
 10 24  1  0
 11 25  1  0
 13 26  1  0
M  ISO  8  15  13  16  13  17  13  18  13  19   5  20  13  21  13  22  13
M  ISO  4  23  13  24  14  25  14  26  14
M  END
>  <minimizedAffinity>  (1) 
-3.97416687

>  <minimizedRMSD>  (1) 
3.12559152

$$$$
