
     RDKit          3D

 23 24  0  0  0  0  0  0  0  0999 V2000
   37.4310   29.6460   50.9100 C   0  0  0  0  0  0  0  0  0  0  0  0
   38.1350   30.8320   50.5970 C   0  0  0  0  0  0  0  0  0  0  0  0
   37.7110   31.5860   49.5020 C   0  0  0  0  0  0  0  0  0  0  0  0
   36.6390   31.1230   48.8060 N   0  0  0  0  0  0  0  0  0  0  0  0
   35.9880   29.9980   49.1200 C   0  0  0  0  0  0  0  0  0  0  0  0
   36.3800   29.2590   50.1700 N   0  0  0  0  0  0  0  0  0  0  0  0
   34.6610   27.5910   49.6550 F   0  0  0  0  0  0  0  0  0  0  0  0
   34.2170   28.3580   48.6310 C   0  0  0  0  0  0  0  0  0  0  0  0
   34.8440   29.5620   48.3270 C   0  0  0  0  0  0  0  0  0  0  0  0
   34.3640   30.3220   47.2720 C   0  0  0  0  0  0  0  0  0  0  0  0
   33.2830   29.8960   46.5330 C   0  0  0  0  0  0  0  0  0  0  0  0
   32.6880   28.6950   46.8640 C   0  0  0  0  0  0  0  0  0  0  0  0
   33.1380   27.9210   47.9000 C   0  0  0  0  0  0  0  0  0  0  0  0
   38.4330   32.8290   49.1580 C   0  0  0  0  0  0  0  0  0  0  0  0
   39.3420   33.0330   50.1460 F   0  0  0  0  0  0  0  0  0  0  0  0
   39.1060   32.7310   47.9570 F   0  0  0  0  0  0  0  0  0  0  0  0
   37.5690   33.9320   49.1010 F   0  0  0  0  0  0  0  0  0  0  0  0
   37.7477   29.0348   51.7680 H   0  0  0  0  0  0  0  0  0  0  0  0
   38.9960   31.1523   51.2021 H   0  0  0  0  0  0  0  0  0  0  0  0
   34.8519   31.2758   47.0223 H   0  0  0  0  0  0  0  0  0  0  0  0
   32.9015   30.4999   45.6965 H   0  0  0  0  0  0  0  0  0  0  0  0
   31.8248   28.3488   46.2767 H   0  0  0  0  0  0  0  0  0  0  0  0
   32.6455   26.9678   48.1427 H   0  0  0  0  0  0  0  0  0  0  0  0
  2  1  2  0
  3  2  1  0
  4  5  1  0
  4  3  2  0
  5  6  2  0
  6  1  1  0
  8  7  1  0
  9  8  2  0
  9  5  1  0
 10  9  1  0
 11 12  1  0
 11 10  2  0
 12 13  2  0
 13  8  1  0
 14  3  1  0
 14 15  1  0
 16 14  1  0
 17 14  1  0
  1 18  1  0
  2 19  1  0
 10 20  1  0
 11 21  1  0
 12 22  1  0
 13 23  1  0
M  ISO  6  18  14  19  14  20  14  21  14  22  14  23  14
M  END
>  <minimizedAffinity>  (1) 
-5.88817215

>  <minimizedRMSD>  (1) 
1.36652696

$$$$
