
     RDKit          3D

 43 46  0  0  1  0  0  0  0  0999 V2000
   34.6040   29.2130   48.4430 C   0  0  2  0  0  0  0  0  0  0  0  0
   35.1630   28.4740   49.6300 C   0  0  0  0  0  0  0  0  0  0  0  0
   36.3010   29.2210   50.1460 N   0  0  0  0  0  0  0  0  0  0  0  0
   37.2040   29.9190   51.0040 C   0  0  0  0  0  0  0  0  0  0  0  0
   37.3660   30.0820   52.2390 O   0  0  0  0  0  0  0  0  0  0  0  0
   37.9950   30.4660   49.9060 C   0  0  1  0  0  0  0  0  0  0  0  0
   37.2260   29.4760   49.0710 C   0  0  2  0  0  0  0  0  0  0  0  0
   36.0310   30.2250   47.9100 S   0  0  0  0  0  0  0  0  0  0  0  0
   33.4000   30.0360   48.7620 C   0  0  0  0  0  0  0  0  0  0  0  0
   34.3750   28.2430   47.2880 C   0  0  0  0  0  0  0  0  0  0  0  0
   33.8810   28.8610   46.1160 N   0  0  0  0  0  0  0  0  0  0  0  0
   33.0070   30.0190   46.4610 C   0  0  0  0  0  0  0  0  0  0  0  0
   32.6730   30.4530   45.0240 C   0  0  0  0  0  0  0  0  0  0  0  0
   33.9430   30.1550   44.2350 C   0  0  0  0  0  0  0  0  0  0  0  0
   34.8610   29.6650   45.3690 C   0  0  0  0  0  0  0  0  0  0  0  0
   37.7930   31.8960   49.6110 C   0  0  0  0  0  0  0  0  0  0  0  0
   36.8220   32.4090   50.2190 O   0  0  0  0  0  0  0  0  0  0  0  0
   38.6420   32.6320   48.7070 C   0  0  0  0  0  0  0  0  0  0  0  0
   39.1680   33.8350   49.1720 C   0  0  0  0  0  0  0  0  0  0  0  0
   40.0030   34.5740   48.2990 C   0  0  0  0  0  0  0  0  0  0  0  0
   40.2360   34.0560   47.0550 N   0  0  0  0  0  0  0  0  0  0  0  0
   39.7120   32.8990   46.6490 C   0  0  0  0  0  0  0  0  0  0  0  0
   38.9150   32.1890   47.4770 N   0  0  0  0  0  0  0  0  0  0  0  0
   34.3919   28.3872   50.4097 H   0  0  0  0  0  0  0  0  0  0  0  0
   35.4801   27.4644   49.3299 H   0  0  0  0  0  0  0  0  0  0  0  0
   39.0935   30.5232   49.9081 H   0  0  0  0  0  0  0  0  0  0  0  0
   37.8610   28.7563   48.5336 H   0  0  0  0  0  0  0  0  0  0  0  0
   33.2872   30.1131   49.8535 H   0  0  0  0  0  0  0  0  0  0  0  0
   33.5196   31.0421   48.3338 H   0  0  0  0  0  0  0  0  0  0  0  0
   32.5060   29.5592   48.3338 H   0  0  0  0  0  0  0  0  0  0  0  0
   35.3322   27.7573   47.0474 H   0  0  0  0  0  0  0  0  0  0  0  0
   33.6110   27.5241   47.6187 H   0  0  0  0  0  0  0  0  0  0  0  0
   32.1129   29.7154   47.0253 H   0  0  0  0  0  0  0  0  0  0  0  0
   33.4497   30.7872   47.1120 H   0  0  0  0  0  0  0  0  0  0  0  0
   31.8246   29.8745   44.6296 H   0  0  0  0  0  0  0  0  0  0  0  0
   32.3789   31.5112   44.9625 H   0  0  0  0  0  0  0  0  0  0  0  0
   33.7783   29.3739   43.4781 H   0  0  0  0  0  0  0  0  0  0  0  0
   34.3369   31.0044   43.6576 H   0  0  0  0  0  0  0  0  0  0  0  0
   35.6952   29.0552   44.9919 H   0  0  0  0  0  0  0  0  0  0  0  0
   35.3686   30.4528   45.9449 H   0  0  0  0  0  0  0  0  0  0  0  0
   38.9420   34.1994   50.1850 H   0  0  0  0  0  0  0  0  0  0  0  0
   40.4482   35.5305   48.6104 H   0  0  0  0  0  0  0  0  0  0  0  0
   39.9290   32.5222   45.6386 H   0  0  0  0  0  0  0  0  0  0  0  0
  1 10  1  6
  1  9  1  0
  1  2  1  0
  2  3  1  0
  3  4  1  0
  4  5  2  0
  6  4  1  0
  7  6  1  0
  7  3  1  0
  8  1  1  0
  8  7  1  0
 11 12  1  0
 11 10  1  0
 13 12  1  0
 14 13  1  0
 14 15  1  0
 15 11  1  0
 16  6  1  0
 16 17  2  0
 18 19  2  0
 18 16  1  0
 20 19  1  0
 21 20  2  0
 22 21  1  0
 22 23  2  0
 23 18  1  0
  2 24  1  0
  2 25  1  0
  6 26  1  1
  7 27  1  6
  9 28  1  0
  9 29  1  0
  9 30  1  0
 10 31  1  0
 10 32  1  0
 12 33  1  0
 12 34  1  0
 13 35  1  0
 13 36  1  0
 14 37  1  0
 14 38  1  0
 15 39  1  0
 15 40  1  0
 19 41  1  0
 20 42  1  0
 22 43  1  0
M  ISO  8  24  13  25  13  26  13  27  13  28   8  29   8  30   8  31   8
M  ISO  8  32   8  33  13  34  13  35  13  36  13  37  13  38  13  39  13
M  ISO  4  40  13  41  14  42  14  43  14
M  END
>  <minimizedAffinity>  (1) 
-4.90337133

>  <minimizedRMSD>  (1) 
0.305980831

$$$$
