
     RDKit          3D

 33 35  0  0  1  0  0  0  0  0999 V2000
   34.5490   29.1180   48.6260 C   0  0  2  0  0  0  0  0  0  0  0  0
   35.1770   28.3940   49.7720 C   0  0  0  0  0  0  0  0  0  0  0  0
   36.3150   29.1630   50.2460 N   0  0  0  0  0  0  0  0  0  0  0  0
   37.2510   29.8920   51.0530 C   0  0  0  0  0  0  0  0  0  0  0  0
   37.4600   30.0860   52.2700 O   0  0  0  0  0  0  0  0  0  0  0  0
   37.9890   30.4170   49.9060 C   0  0  1  0  0  0  0  0  0  0  0  0
   37.1830   29.4120   49.1250 C   0  0  2  0  0  0  0  0  0  0  0  0
   35.9480   30.1270   47.9910 S   0  0  0  0  0  0  0  0  0  0  0  0
   33.3400   29.9280   48.9490 C   0  0  0  0  0  0  0  0  0  0  0  0
   34.2550   28.1130   47.5110 C   0  0  0  0  0  0  0  0  0  0  0  0
   34.1580   28.7700   46.2260 N   0  0  0  0  0  0  0  0  0  0  0  0
   37.7610   31.8430   49.5910 C   0  0  0  0  0  0  0  0  0  0  0  0
   36.7560   32.3440   50.1760 O   0  0  0  0  0  0  0  0  0  0  0  0
   38.6090   32.5910   48.7000 C   0  0  0  0  0  0  0  0  0  0  0  0
   39.1360   33.7840   49.1690 C   0  0  0  0  0  0  0  0  0  0  0  0
   39.9670   34.5280   48.2950 C   0  0  0  0  0  0  0  0  0  0  0  0
   40.1940   34.0260   47.0560 N   0  0  0  0  0  0  0  0  0  0  0  0
   39.6700   32.8690   46.6330 C   0  0  0  0  0  0  0  0  0  0  0  0
   38.8740   32.1490   47.4580 N   0  0  0  0  0  0  0  0  0  0  0  0
   34.4436   28.2807   50.5840 H   0  0  0  0  0  0  0  0  0  0  0  0
   35.5095   27.3972   49.4467 H   0  0  0  0  0  0  0  0  0  0  0  0
   39.0865   30.4736   49.8570 H   0  0  0  0  0  0  0  0  0  0  0  0
   37.7947   28.6847   48.5711 H   0  0  0  0  0  0  0  0  0  0  0  0
   33.2293   30.0022   50.0409 H   0  0  0  0  0  0  0  0  0  0  0  0
   33.4492   30.9359   48.5222 H   0  0  0  0  0  0  0  0  0  0  0  0
   32.4494   29.4436   48.5222 H   0  0  0  0  0  0  0  0  0  0  0  0
   35.0660   27.3708   47.4741 H   0  0  0  0  0  0  0  0  0  0  0  0
   33.2925   27.6259   47.7264 H   0  0  0  0  0  0  0  0  0  0  0  0
   34.0090   29.7794   46.3669 H   0  0  0  0  0  0  0  0  0  0  0  0
   35.0299   28.6221   45.6981 H   0  0  0  0  0  0  0  0  0  0  0  0
   38.9165   34.1414   50.1859 H   0  0  0  0  0  0  0  0  0  0  0  0
   40.4136   35.4821   48.6115 H   0  0  0  0  0  0  0  0  0  0  0  0
   39.8856   32.5044   45.6178 H   0  0  0  0  0  0  0  0  0  0  0  0
  1 10  1  6
  1  9  1  0
  1  2  1  0
  2  3  1  0
  3  4  1  0
  4  5  2  0
  6  4  1  0
  7  6  1  0
  7  3  1  0
  8  1  1  0
  8  7  1  0
 11 10  1  0
 12  6  1  0
 12 13  2  0
 14 15  2  0
 14 12  1  0
 16 15  1  0
 17 16  2  0
 18 17  1  0
 18 19  2  0
 19 14  1  0
  2 20  1  0
  2 21  1  0
  6 22  1  1
  7 23  1  6
  9 24  1  0
  9 25  1  0
  9 26  1  0
 10 27  1  0
 10 28  1  0
 11 29  1  0
 11 30  1  0
 15 31  1  0
 16 32  1  0
 18 33  1  0
M  ISO  8  20  13  21  13  22  13  23  13  24   8  25   8  26   8  27   8
M  ISO  6  28   8  29   5  30   5  31  14  32  14  33  14
M  END
>  <minimizedAffinity>  (1) 
-4.54313374

>  <minimizedRMSD>  (1) 
0.481980145

$$$$
