
     RDKit          3D

 38 40  0  0  1  0  0  0  0  0999 V2000
   34.5370   29.0920   48.6180 C   0  0  2  0  0  0  0  0  0  0  0  0
   35.1850   28.3420   49.7310 C   0  0  0  0  0  0  0  0  0  0  0  0
   36.3040   29.1260   50.2500 N   0  0  0  0  0  0  0  0  0  0  0  0
   37.2400   29.8570   51.0610 C   0  0  0  0  0  0  0  0  0  0  0  0
   37.4450   30.0160   52.2760 O   0  0  0  0  0  0  0  0  0  0  0  0
   37.9560   30.4180   49.9500 C   0  0  1  0  0  0  0  0  0  0  0  0
   37.1500   29.4180   49.1300 C   0  0  2  0  0  0  0  0  0  0  0  0
   35.9290   30.1360   48.0040 S   0  0  0  0  0  0  0  0  0  0  0  0
   33.3170   29.8750   48.9610 C   0  0  0  0  0  0  0  0  0  0  0  0
   34.2750   28.1030   47.4650 C   0  0  0  0  0  0  0  0  0  0  0  0
   34.2720   28.8130   46.2660 O   0  0  0  0  0  0  0  0  0  0  0  0
   37.7160   31.8430   49.6430 C   0  0  0  0  0  0  0  0  0  0  0  0
   36.6530   32.2970   50.1780 O   0  0  0  0  0  0  0  0  0  0  0  0
   38.5820   32.6460   48.8340 C   0  0  0  0  0  0  0  0  0  0  0  0
   39.0790   33.8100   49.3730 C   0  0  0  0  0  0  0  0  0  0  0  0
   39.9340   34.6010   48.5640 C   0  0  0  0  0  0  0  0  0  0  0  0
   40.2090   34.1610   47.3090 N   0  0  0  0  0  0  0  0  0  0  0  0
   39.7100   33.0230   46.8070 C   0  0  0  0  0  0  0  0  0  0  0  0
   38.8920   32.2600   47.5740 N   0  0  0  0  0  0  0  0  0  0  0  0
   40.0650   32.6180   45.4200 C   0  0  0  0  0  0  0  0  0  0  0  0
   40.9330   31.3830   45.4030 C   0  0  0  0  0  0  0  0  0  0  0  0
   34.4530   28.1692   50.5337 H   0  0  0  0  0  0  0  0  0  0  0  0
   35.5522   27.3737   49.3602 H   0  0  0  0  0  0  0  0  0  0  0  0
   39.0531   30.4939   49.9244 H   0  0  0  0  0  0  0  0  0  0  0  0
   37.7621   28.7115   48.5502 H   0  0  0  0  0  0  0  0  0  0  0  0
   33.2177   29.9387   50.0547 H   0  0  0  0  0  0  0  0  0  0  0  0
   33.4013   30.8881   48.5408 H   0  0  0  0  0  0  0  0  0  0  0  0
   32.4311   29.3764   48.5408 H   0  0  0  0  0  0  0  0  0  0  0  0
   35.0675   27.3405   47.4428 H   0  0  0  0  0  0  0  0  0  0  0  0
   33.3058   27.6033   47.6097 H   0  0  0  0  0  0  0  0  0  0  0  0
   34.2679   29.7843   46.4576 H   0  0  0  0  0  0  0  0  0  0  0  0
   38.8218   34.1170   50.3975 H   0  0  0  0  0  0  0  0  0  0  0  0
   40.3612   35.5418   48.9414 H   0  0  0  0  0  0  0  0  0  0  0  0
   39.1402   32.4113   44.8614 H   0  0  0  0  0  0  0  0  0  0  0  0
   40.6302   33.4403   44.9570 H   0  0  0  0  0  0  0  0  0  0  0  0
   41.1505   31.0735   46.4359 H   0  0  0  0  0  0  0  0  0  0  0  0
   40.4057   30.5714   44.8804 H   0  0  0  0  0  0  0  0  0  0  0  0
   41.8753   31.6043   44.8804 H   0  0  0  0  0  0  0  0  0  0  0  0
  1 10  1  6
  1  9  1  0
  1  2  1  0
  2  3  1  0
  3  4  1  0
  4  5  2  0
  6  4  1  0
  7  6  1  0
  7  3  1  0
  8  1  1  0
  8  7  1  0
 11 10  1  0
 12  6  1  0
 12 13  2  0
 14 15  2  0
 14 12  1  0
 16 15  1  0
 17 16  2  0
 18 17  1  0
 18 19  2  0
 19 14  1  0
 20 18  1  0
 21 20  1  0
  2 22  1  0
  2 23  1  0
  6 24  1  1
  7 25  1  6
  9 26  1  0
  9 27  1  0
  9 28  1  0
 10 29  1  0
 10 30  1  0
 11 31  1  0
 15 32  1  0
 16 33  1  0
 20 34  1  0
 20 35  1  0
 21 36  1  0
 21 37  1  0
 21 38  1  0
M  ISO  8  22  13  23  13  24  13  25  13  26   8  27   8  28   8  29   8
M  ISO  8  30   8  31   3  32  14  33  14  34   8  35   8  36   8  37   8
M  ISO  1  38   8
M  END
>  <minimizedAffinity>  (1) 
-5.15701389

>  <minimizedRMSD>  (1) 
0.388016969

$$$$
