
     RDKit          3D

 35 37  0  0  1  0  0  0  0  0999 V2000
   34.5620   29.1620   48.6110 C   0  0  2  0  0  0  0  0  0  0  0  0
   35.1900   28.4180   49.7370 C   0  0  0  0  0  0  0  0  0  0  0  0
   36.3280   29.1850   50.2380 N   0  0  0  0  0  0  0  0  0  0  0  0
   37.2720   29.9090   51.0550 C   0  0  0  0  0  0  0  0  0  0  0  0
   37.4740   30.0740   52.2630 O   0  0  0  0  0  0  0  0  0  0  0  0
   37.9960   30.4480   49.9380 C   0  0  1  0  0  0  0  0  0  0  0  0
   37.1810   29.4440   49.1230 C   0  0  2  0  0  0  0  0  0  0  0  0
   35.9750   30.1670   47.9860 S   0  0  0  0  0  0  0  0  0  0  0  0
   33.3660   29.9930   48.9320 C   0  0  0  0  0  0  0  0  0  0  0  0
   34.2760   28.1700   47.4730 C   0  0  0  0  0  0  0  0  0  0  0  0
   34.3490   28.8470   46.2590 O   0  0  0  0  0  0  0  0  0  0  0  0
   37.7970   31.8610   49.6060 C   0  0  0  0  0  0  0  0  0  0  0  0
   36.7810   32.3620   50.1860 O   0  0  0  0  0  0  0  0  0  0  0  0
   38.6390   32.6200   48.7340 C   0  0  0  0  0  0  0  0  0  0  0  0
   39.1350   33.8190   49.1900 C   0  0  0  0  0  0  0  0  0  0  0  0
   39.9720   34.5620   48.3170 C   0  0  0  0  0  0  0  0  0  0  0  0
   40.2310   34.0460   47.0860 N   0  0  0  0  0  0  0  0  0  0  0  0
   39.7300   32.8720   46.6690 C   0  0  0  0  0  0  0  0  0  0  0  0
   38.9310   32.1570   47.4960 N   0  0  0  0  0  0  0  0  0  0  0  0
   40.0070   32.3030   45.3240 C   0  0  0  0  0  0  0  0  0  0  0  0
   34.4547   28.2799   50.5434 H   0  0  0  0  0  0  0  0  0  0  0  0
   35.5312   27.4326   49.3868 H   0  0  0  0  0  0  0  0  0  0  0  0
   39.0940   30.5114   49.9211 H   0  0  0  0  0  0  0  0  0  0  0  0
   37.7855   28.7205   48.5563 H   0  0  0  0  0  0  0  0  0  0  0  0
   33.2553   30.0699   50.0237 H   0  0  0  0  0  0  0  0  0  0  0  0
   33.4928   30.9986   48.5045 H   0  0  0  0  0  0  0  0  0  0  0  0
   32.4678   29.5234   48.5045 H   0  0  0  0  0  0  0  0  0  0  0  0
   35.0218   27.3617   47.4910 H   0  0  0  0  0  0  0  0  0  0  0  0
   33.2733   27.7356   47.5990 H   0  0  0  0  0  0  0  0  0  0  0  0
   34.4536   29.8169   46.4278 H   0  0  0  0  0  0  0  0  0  0  0  0
   38.8914   34.1894   50.1967 H   0  0  0  0  0  0  0  0  0  0  0  0
   40.3987   35.5272   48.6273 H   0  0  0  0  0  0  0  0  0  0  0  0
   40.4861   31.3189   45.4338 H   0  0  0  0  0  0  0  0  0  0  0  0
   39.0624   32.1914   44.7715 H   0  0  0  0  0  0  0  0  0  0  0  0
   40.6775   32.9776   44.7715 H   0  0  0  0  0  0  0  0  0  0  0  0
  1 10  1  6
  1  9  1  0
  1  2  1  0
  2  3  1  0
  3  4  1  0
  4  5  2  0
  6  4  1  0
  7  6  1  0
  7  3  1  0
  8  1  1  0
  8  7  1  0
 11 10  1  0
 12  6  1  0
 12 13  2  0
 14 15  2  0
 14 12  1  0
 16 15  1  0
 17 16  2  0
 18 17  1  0
 18 19  2  0
 19 14  1  0
 20 18  1  0
  2 21  1  0
  2 22  1  0
  6 23  1  1
  7 24  1  6
  9 25  1  0
  9 26  1  0
  9 27  1  0
 10 28  1  0
 10 29  1  0
 11 30  1  0
 15 31  1  0
 16 32  1  0
 20 33  1  0
 20 34  1  0
 20 35  1  0
M  ISO  8  21  13  22  13  23  13  24  13  25   8  26   8  27   8  28   8
M  ISO  7  29   8  30   3  31  14  32  14  33   8  34   8  35   8
M  END
>  <minimizedAffinity>  (1) 
-4.91535282

>  <minimizedRMSD>  (1) 
0.0509607494

$$$$
