
     RDKit          3D

 33 35  0  0  1  0  0  0  0  0999 V2000
   34.5520   29.1530   48.6110 C   0  0  2  0  0  0  0  0  0  0  0  0
   35.1780   28.4090   49.7380 C   0  0  0  0  0  0  0  0  0  0  0  0
   36.3130   29.1780   50.2490 N   0  0  0  0  0  0  0  0  0  0  0  0
   37.2600   29.9010   51.0530 C   0  0  0  0  0  0  0  0  0  0  0  0
   37.4610   30.0750   52.2650 O   0  0  0  0  0  0  0  0  0  0  0  0
   37.9950   30.4280   49.9350 C   0  0  1  0  0  0  0  0  0  0  0  0
   37.1700   29.4340   49.1270 C   0  0  2  0  0  0  0  0  0  0  0  0
   35.9700   30.1580   47.9850 S   0  0  0  0  0  0  0  0  0  0  0  0
   33.3480   29.9700   48.9320 C   0  0  0  0  0  0  0  0  0  0  0  0
   34.2730   28.1530   47.4720 C   0  0  0  0  0  0  0  0  0  0  0  0
   34.3430   28.8350   46.2560 O   0  0  0  0  0  0  0  0  0  0  0  0
   37.7860   31.8510   49.6060 C   0  0  0  0  0  0  0  0  0  0  0  0
   36.7710   32.3580   50.1870 O   0  0  0  0  0  0  0  0  0  0  0  0
   38.6290   32.6070   48.7300 C   0  0  0  0  0  0  0  0  0  0  0  0
   39.1320   33.8040   49.1820 C   0  0  0  0  0  0  0  0  0  0  0  0
   39.9640   34.5420   48.3040 C   0  0  0  0  0  0  0  0  0  0  0  0
   40.2150   34.0280   47.0730 N   0  0  0  0  0  0  0  0  0  0  0  0
   39.7100   32.8570   46.6580 C   0  0  0  0  0  0  0  0  0  0  0  0
   38.9140   32.1440   47.4900 N   0  0  0  0  0  0  0  0  0  0  0  0
   39.9900   32.3630   45.3900 O   0  0  0  0  0  0  0  0  0  0  0  0
   34.4391   28.2660   50.5403 H   0  0  0  0  0  0  0  0  0  0  0  0
   35.5253   27.4266   49.3854 H   0  0  0  0  0  0  0  0  0  0  0  0
   39.0936   30.4780   49.9128 H   0  0  0  0  0  0  0  0  0  0  0  0
   37.7691   28.7060   48.5604 H   0  0  0  0  0  0  0  0  0  0  0  0
   33.2366   30.0456   50.0237 H   0  0  0  0  0  0  0  0  0  0  0  0
   33.4636   30.9770   48.5046 H   0  0  0  0  0  0  0  0  0  0  0  0
   32.4550   29.4906   48.5046 H   0  0  0  0  0  0  0  0  0  0  0  0
   35.0247   27.3501   47.4908 H   0  0  0  0  0  0  0  0  0  0  0  0
   33.2748   27.7082   47.5974 H   0  0  0  0  0  0  0  0  0  0  0  0
   34.4426   29.8050   46.4269 H   0  0  0  0  0  0  0  0  0  0  0  0
   38.8967   34.1759   50.1902 H   0  0  0  0  0  0  0  0  0  0  0  0
   40.3951   35.5060   48.6118 H   0  0  0  0  0  0  0  0  0  0  0  0
   39.6082   31.4965   45.1009 H   0  0  0  0  0  0  0  0  0  0  0  0
  1 10  1  6
  1  9  1  0
  1  2  1  0
  2  3  1  0
  3  4  1  0
  4  5  2  0
  6  4  1  0
  7  6  1  0
  7  3  1  0
  8  1  1  0
  8  7  1  0
 11 10  1  0
 12  6  1  0
 12 13  2  0
 14 15  2  0
 14 12  1  0
 16 15  1  0
 17 16  2  0
 18 17  1  0
 18 19  2  0
 19 14  1  0
 20 18  1  0
  2 21  1  0
  2 22  1  0
  6 23  1  1
  7 24  1  6
  9 25  1  0
  9 26  1  0
  9 27  1  0
 10 28  1  0
 10 29  1  0
 11 30  1  0
 15 31  1  0
 16 32  1  0
 20 33  1  0
M  ISO  8  21  13  22  13  23  13  24  13  25   8  26   8  27   8  28   8
M  ISO  5  29   8  30   3  31  14  32  14  33   3
M  END
>  <minimizedAffinity>  (1) 
-4.80944681

>  <minimizedRMSD>  (1) 
0.0387314297

$$$$
