
     RDKit          3D

 27 28  0  0  0  0  0  0  0  0999 V2000
   37.4090   29.3740   50.6780 C   0  0  0  0  0  0  0  0  0  0  0  0
   38.0350   30.6430   50.4710 C   0  0  0  0  0  0  0  0  0  0  0  0
   37.4790   31.4680   49.4720 C   0  0  0  0  0  0  0  0  0  0  0  0
   36.3950   30.9920   48.7880 N   0  0  0  0  0  0  0  0  0  0  0  0
   35.8430   29.7990   49.0170 C   0  0  0  0  0  0  0  0  0  0  0  0
   36.3570   28.9980   49.9630 N   0  0  0  0  0  0  0  0  0  0  0  0
   34.7300   29.3500   48.2890 N   0  0  0  0  0  0  0  0  0  0  0  0
   34.3010   27.9620   48.2800 C   0  0  0  0  0  0  0  0  0  0  0  0
   32.7830   28.0210   48.4910 C   0  0  0  0  0  0  0  0  0  0  0  0
   32.1810   28.5770   47.2970 N   0  0  0  0  0  0  0  0  0  0  0  0
   33.1270   29.3610   46.5240 C   0  0  0  0  0  0  0  0  0  0  0  0
   33.9210   30.2260   47.4930 C   0  0  0  0  0  0  0  0  0  0  0  0
   38.0840   32.7900   49.2130 C   0  0  0  0  0  0  0  0  0  0  0  0
   39.2280   32.8290   49.9720 F   0  0  0  0  0  0  0  0  0  0  0  0
   38.4510   32.9520   47.8880 F   0  0  0  0  0  0  0  0  0  0  0  0
   37.2650   33.8320   49.6070 F   0  0  0  0  0  0  0  0  0  0  0  0
   37.8083   28.6955   51.4463 H   0  0  0  0  0  0  0  0  0  0  0  0
   38.9071   30.9597   51.0619 H   0  0  0  0  0  0  0  0  0  0  0  0
   34.5404   27.4885   47.3164 H   0  0  0  0  0  0  0  0  0  0  0  0
   34.8055   27.3659   49.0547 H   0  0  0  0  0  0  0  0  0  0  0  0
   32.3921   27.0081   48.6680 H   0  0  0  0  0  0  0  0  0  0  0  0
   32.5449   28.6474   49.3633 H   0  0  0  0  0  0  0  0  0  0  0  0
   31.8316   27.8055   46.7109 H   0  0  0  0  0  0  0  0  0  0  0  0
   33.8074   28.6921   45.9766 H   0  0  0  0  0  0  0  0  0  0  0  0
   32.5966   29.9910   45.7948 H   0  0  0  0  0  0  0  0  0  0  0  0
   34.5614   30.9247   46.9346 H   0  0  0  0  0  0  0  0  0  0  0  0
   33.2448   30.8147   48.1303 H   0  0  0  0  0  0  0  0  0  0  0  0
  2  1  2  0
  3  2  1  0
  4  5  1  0
  4  3  2  0
  5  6  2  0
  6  1  1  0
  7  5  1  0
  8  7  1  0
  8  9  1  0
 10  9  1  0
 11 10  1  0
 11 12  1  0
 12  7  1  0
 13  3  1  0
 13 16  1  0
 13 14  1  0
 15 13  1  0
  1 17  1  0
  2 18  1  0
  8 19  1  0
  8 20  1  0
  9 21  1  0
  9 22  1  0
 10 23  1  0
 11 24  1  0
 11 25  1  0
 12 26  1  0
 12 27  1  0
M  ISO  8  17  14  18  14  19  13  20  13  21  13  22  13  23   5  24  13
M  ISO  3  25  13  26  13  27  13
M  END
>  <minimizedAffinity>  (1) 
-5.6637001

>  <minimizedRMSD>  (1) 
1.26806164

$$$$
