
     RDKit          3D

 22 23  0  0  0  0  0  0  0  0999 V2000
   37.2640   31.1650   47.7370 C   0  0  0  0  0  0  0  0  0  0  0  0
   36.7890   30.7830   46.6690 O   0  0  0  0  0  0  0  0  0  0  0  0
   37.7190   29.9290   49.8210 C   0  0  0  0  0  0  0  0  0  0  0  0
   36.7760   30.5120   48.9540 C   0  0  0  0  0  0  0  0  0  0  0  0
   35.4380   30.4400   49.2960 C   0  0  0  0  0  0  0  0  0  0  0  0
   35.0870   29.8140   50.4500 N   0  0  0  0  0  0  0  0  0  0  0  0
   36.0090   29.2560   51.2740 C   0  0  0  0  0  0  0  0  0  0  0  0
   37.3040   29.3110   50.9690 N   0  0  0  0  0  0  0  0  0  0  0  0
   39.2440   31.5080   45.4820 Cl  0  0  0  0  0  0  0  0  0  0  0  0
   39.2500   32.5280   46.9020 C   0  0  0  0  0  0  0  0  0  0  0  0
   38.2720   32.2230   47.8270 C   0  0  0  0  0  0  0  0  0  0  0  0
   38.1700   32.9670   49.0090 C   0  0  0  0  0  0  0  0  0  0  0  0
   39.0330   34.0040   49.2710 C   0  0  0  0  0  0  0  0  0  0  0  0
   39.9930   34.2800   48.3300 C   0  0  0  0  0  0  0  0  0  0  0  0
   40.1190   33.5670   47.1580 C   0  0  0  0  0  0  0  0  0  0  0  0
   38.7905   29.9702   49.5755 H   0  0  0  0  0  0  0  0  0  0  0  0
   34.6701   30.8824   48.6444 H   0  0  0  0  0  0  0  0  0  0  0  0
   35.6852   28.7557   52.1986 H   0  0  0  0  0  0  0  0  0  0  0  0
   37.3865   32.7174   49.7396 H   0  0  0  0  0  0  0  0  0  0  0  0
   38.9572   34.5900   50.1988 H   0  0  0  0  0  0  0  0  0  0  0  0
   40.6928   35.1071   48.5199 H   0  0  0  0  0  0  0  0  0  0  0  0
   40.9056   33.8243   46.4334 H   0  0  0  0  0  0  0  0  0  0  0  0
  1 11  1  0
  1  4  1  0
  2  1  2  0
  3  8  2  0
  4  5  2  0
  4  3  1  0
  5  6  1  0
  6  7  2  0
  8  7  1  0
  9 10  1  0
 10 15  2  0
 10 11  1  0
 11 12  2  0
 12 13  1  0
 14 13  2  0
 15 14  1  0
  3 16  1  0
  5 17  1  0
  7 18  1  0
 12 19  1  0
 13 20  1  0
 14 21  1  0
 15 22  1  0
M  ISO  7  16  14  17  14  18  14  19  14  20  14  21  14  22  14
M  END
>  <minimizedAffinity>  (1) 
-5.09724617

>  <minimizedRMSD>  (1) 
3.42679262

$$$$
