
     RDKit          3D

 19 20  0  0  0  0  0  0  0  0999 V2000
   38.0600   31.0830   48.0190 C   0  0  0  0  0  0  0  0  0  0  0  0
   38.2520   30.3880   47.0250 O   0  0  0  0  0  0  0  0  0  0  0  0
   37.6960   29.8090   50.1140 C   0  0  0  0  0  0  0  0  0  0  0  0
   37.1330   30.5090   49.0020 C   0  0  0  0  0  0  0  0  0  0  0  0
   35.7350   30.5880   48.9400 C   0  0  0  0  0  0  0  0  0  0  0  0
   35.0040   30.0070   49.9220 N   0  0  0  0  0  0  0  0  0  0  0  0
   35.5780   29.3610   50.9480 C   0  0  0  0  0  0  0  0  0  0  0  0
   36.9020   29.2480   51.0660 N   0  0  0  0  0  0  0  0  0  0  0  0
   38.6830   32.3640   48.2250 C   0  0  0  0  0  0  0  0  0  0  0  0
   38.6270   33.0630   49.3950 C   0  0  0  0  0  0  0  0  0  0  0  0
   39.3420   34.2310   49.1900 C   0  0  0  0  0  0  0  0  0  0  0  0
   39.8130   34.2160   47.9120 N   0  0  0  0  0  0  0  0  0  0  0  0
   39.4050   33.0830   47.3460 N   0  0  0  0  0  0  0  0  0  0  0  0
   38.7891   29.7225   50.2015 H   0  0  0  0  0  0  0  0  0  0  0  0
   35.2401   31.1122   48.1091 H   0  0  0  0  0  0  0  0  0  0  0  0
   34.9353   28.9092   51.7180 H   0  0  0  0  0  0  0  0  0  0  0  0
   38.1146   32.7587   50.3196 H   0  0  0  0  0  0  0  0  0  0  0  0
   39.5015   35.0301   49.9289 H   0  0  0  0  0  0  0  0  0  0  0  0
   40.3819   34.9489   47.4648 H   0  0  0  0  0  0  0  0  0  0  0  0
  1  9  1  0
  1  4  1  0
  2  1  2  0
  3  8  2  0
  4  3  1  0
  5  4  2  0
  5  6  1  0
  6  7  2  0
  7  8  1  0
  9 10  1  0
 11 10  2  0
 12 11  1  0
 13 12  1  0
 13  9  2  0
  3 14  1  0
  5 15  1  0
  7 16  1  0
 10 17  1  0
 11 18  1  0
 12 19  1  0
M  ISO  6  14  14  15  14  16  14  17  14  18  14  19   9
M  END
>  <minimizedAffinity>  (1) 
-4.8508935

>  <minimizedRMSD>  (1) 
2.5930469

$$$$
