
     RDKit          3D

 19 20  0  0  0  0  0  0  0  0999 V2000
   37.6120   29.7810   50.1260 C   0  0  0  0  0  0  0  0  0  0  0  0
   37.0260   30.4110   49.0100 C   0  0  0  0  0  0  0  0  0  0  0  0
   35.6220   30.4690   48.9560 C   0  0  0  0  0  0  0  0  0  0  0  0
   34.8970   29.9240   49.9640 N   0  0  0  0  0  0  0  0  0  0  0  0
   35.5030   29.3240   51.0220 C   0  0  0  0  0  0  0  0  0  0  0  0
   36.8460   29.2470   51.1150 N   0  0  0  0  0  0  0  0  0  0  0  0
   37.8830   30.9720   47.9680 C   0  0  0  0  0  0  0  0  0  0  0  0
   37.9600   30.3320   46.9270 O   0  0  0  0  0  0  0  0  0  0  0  0
   38.5870   32.2030   48.1780 C   0  0  0  0  0  0  0  0  0  0  0  0
   38.6220   33.0500   49.2540 C   0  0  0  0  0  0  0  0  0  0  0  0
   39.4060   34.1730   49.1480 C   0  0  0  0  0  0  0  0  0  0  0  0
   40.1080   34.3950   47.9960 C   0  0  0  0  0  0  0  0  0  0  0  0
   39.6620   32.9460   46.9580 S   0  0  0  0  0  0  0  0  0  0  0  0
   38.7079   29.7200   50.1986 H   0  0  0  0  0  0  0  0  0  0  0  0
   35.1176   30.9511   48.1056 H   0  0  0  0  0  0  0  0  0  0  0  0
   34.8835   28.8910   51.8212 H   0  0  0  0  0  0  0  0  0  0  0  0
   38.0452   32.8393   50.1667 H   0  0  0  0  0  0  0  0  0  0  0  0
   39.4684   34.8871   49.9824 H   0  0  0  0  0  0  0  0  0  0  0  0
   40.7754   35.2343   47.7509 H   0  0  0  0  0  0  0  0  0  0  0  0
  1  6  2  0
  2  1  1  0
  3  2  2  0
  3  4  1  0
  4  5  2  0
  5  6  1  0
  7  9  1  0
  7  2  1  0
  8  7  2  0
  9 10  2  0
 11 10  1  0
 12 11  2  0
 13 12  1  0
 13  9  1  0
  1 14  1  0
  3 15  1  0
  5 16  1  0
 10 17  1  0
 11 18  1  0
 12 19  1  0
M  ISO  6  14  14  15  14  16  14  17  14  18  14  19  14
M  END
>  <minimizedAffinity>  (1) 
-4.3367095

>  <minimizedRMSD>  (1) 
2.8044405

$$$$
