
     RDKit          3D

 22 23  0  0  0  0  0  0  0  0999 V2000
   36.9650   29.5120   51.1520 C   0  0  0  0  0  0  0  0  0  0  0  0
   37.6490   30.7090   50.8230 C   0  0  0  0  0  0  0  0  0  0  0  0
   37.1950   31.4330   49.6960 C   0  0  0  0  0  0  0  0  0  0  0  0
   36.1310   30.9140   49.0180 N   0  0  0  0  0  0  0  0  0  0  0  0
   35.5110   29.7800   49.3580 C   0  0  0  0  0  0  0  0  0  0  0  0
   35.9310   29.0910   50.4190 N   0  0  0  0  0  0  0  0  0  0  0  0
   34.3780   29.2940   48.5770 C   0  0  0  0  0  0  0  0  0  0  0  0
   33.6090   28.2460   49.0430 C   0  0  0  0  0  0  0  0  0  0  0  0
   32.5190   27.7540   48.3270 C   0  0  0  0  0  0  0  0  0  0  0  0
   32.2320   28.3700   47.1050 C   0  0  0  0  0  0  0  0  0  0  0  0
   33.0060   29.4160   46.6490 C   0  0  0  0  0  0  0  0  0  0  0  0
   34.0430   29.8350   47.3990 N   0  0  0  0  0  0  0  0  0  0  0  0
   37.8830   32.6850   49.3220 C   0  0  0  0  0  0  0  0  0  0  0  0
   39.0920   32.6590   49.9680 F   0  0  0  0  0  0  0  0  0  0  0  0
   38.1160   32.7850   47.9770 F   0  0  0  0  0  0  0  0  0  0  0  0
   37.1880   33.8040   49.7600 F   0  0  0  0  0  0  0  0  0  0  0  0
   37.2899   28.9224   52.0220 H   0  0  0  0  0  0  0  0  0  0  0  0
   38.5014   31.0619   51.4220 H   0  0  0  0  0  0  0  0  0  0  0  0
   33.8644   27.7854   50.0087 H   0  0  0  0  0  0  0  0  0  0  0  0
   31.9119   26.9187   48.7062 H   0  0  0  0  0  0  0  0  0  0  0  0
   31.3819   28.0173   46.5026 H   0  0  0  0  0  0  0  0  0  0  0  0
   32.7800   29.9006   45.6877 H   0  0  0  0  0  0  0  0  0  0  0  0
  2  1  2  0
  3  2  1  0
  4  5  1  0
  4  3  2  0
  5  6  2  0
  6  1  1  0
  7  8  2  0
  7  5  1  0
  9  8  1  0
 10  9  2  0
 11 10  1  0
 11 12  2  0
 12  7  1  0
 13  3  1  0
 13 16  1  0
 13 14  1  0
 15 13  1  0
  1 17  1  0
  2 18  1  0
  8 19  1  0
  9 20  1  0
 10 21  1  0
 11 22  1  0
M  ISO  6  17  14  18  14  19  14  20  14  21  14  22  14
M  END
>  <minimizedAffinity>  (1) 
-5.4530592

>  <minimizedRMSD>  (1) 
1.05720603

$$$$
