
     RDKit          3D

 36 39  0  0  0  0  0  0  0  0999 V2000
   34.3710   28.7150   47.1860 C   0  0  0  0  0  0  0  0  0  0  0  0
   33.9880   27.8920   48.2160 C   0  0  0  0  0  0  0  0  0  0  0  0
   34.5130   28.0980   49.4790 C   0  0  0  0  0  0  0  0  0  0  0  0
   35.4170   29.1640   49.5920 C   0  0  0  0  0  0  0  0  0  0  0  0
   35.7840   29.9710   48.5470 C   0  0  0  0  0  0  0  0  0  0  0  0
   35.2470   29.7340   47.3300 N   0  0  0  0  0  0  0  0  0  0  0  0
   36.7270   31.0680   48.7050 C   0  0  0  0  0  0  0  0  0  0  0  0
   36.8430   31.8350   49.8460 C   0  0  0  0  0  0  0  0  0  0  0  0
   37.7280   32.8720   50.0060 C   0  0  0  0  0  0  0  0  0  0  0  0
   38.5750   33.1800   48.9430 C   0  0  0  0  0  0  0  0  0  0  0  0
   39.4720   34.1830   49.0190 N   0  0  0  0  0  0  0  0  0  0  0  0
   40.2800   34.4440   47.9480 C   0  0  0  0  0  0  0  0  0  0  0  0
   40.2060   33.7080   46.7820 C   0  0  0  0  0  0  0  0  0  0  0  0
   39.2820   32.6670   46.6910 C   0  0  0  0  0  0  0  0  0  0  0  0
   38.4970   32.4500   47.7970 C   0  0  0  0  0  0  0  0  0  0  0  0
   37.5830   31.4080   47.6800 C   0  0  0  0  0  0  0  0  0  0  0  0
   33.7800   28.4490   45.8670 C   0  0  0  0  0  0  0  0  0  0  0  0
   33.9270   29.2160   44.9180 O   0  0  0  0  0  0  0  0  0  0  0  0
   33.6070   26.0220   45.3680 C   0  0  0  0  0  0  0  0  0  0  0  0
   32.9800   27.2450   45.6190 C   0  0  0  0  0  0  0  0  0  0  0  0
   31.5860   27.2530   45.6190 C   0  0  0  0  0  0  0  0  0  0  0  0
   30.9150   26.0860   45.3780 N   0  0  0  0  0  0  0  0  0  0  0  0
   31.5680   24.9290   45.1410 C   0  0  0  0  0  0  0  0  0  0  0  0
   32.8920   24.8960   45.1360 N   0  0  0  0  0  0  0  0  0  0  0  0
   33.2709   27.0770   48.0386 H   0  0  0  0  0  0  0  0  0  0  0  0
   34.2395   27.4674   50.3378 H   0  0  0  0  0  0  0  0  0  0  0  0
   35.8583   29.3646   50.5794 H   0  0  0  0  0  0  0  0  0  0  0  0
   36.1775   31.5981   50.6892 H   0  0  0  0  0  0  0  0  0  0  0  0
   37.7675   33.4430   50.9454 H   0  0  0  0  0  0  0  0  0  0  0  0
   41.0102   35.2638   48.0169 H   0  0  0  0  0  0  0  0  0  0  0  0
   40.8680   33.9399   45.9347 H   0  0  0  0  0  0  0  0  0  0  0  0
   39.1872   32.0533   45.7830 H   0  0  0  0  0  0  0  0  0  0  0  0
   37.5422   30.8378   46.7402 H   0  0  0  0  0  0  0  0  0  0  0  0
   34.7059   25.9729   45.3587 H   0  0  0  0  0  0  0  0  0  0  0  0
   31.0336   28.1848   45.8101 H   0  0  0  0  0  0  0  0  0  0  0  0
   30.9973   24.0080   44.9509 H   0  0  0  0  0  0  0  0  0  0  0  0
  1  6  1  0
  1  2  2  0
  2  3  1  0
  3  4  2  0
  5  7  1  0
  5  4  1  0
  6  5  2  0
  7  8  2  0
  8  9  1  0
 10 11  1  0
 10  9  2  0
 12 11  2  0
 13 12  1  0
 14 13  2  0
 14 15  1  0
 15 10  1  0
 16 15  2  0
 16  7  1  0
 17  1  1  0
 18 17  2  0
 19 20  2  0
 20 21  1  0
 20 17  1  0
 22 21  2  0
 23 22  1  0
 24 23  2  0
 24 19  1  0
  2 25  1  0
  3 26  1  0
  4 27  1  0
  8 28  1  0
  9 29  1  0
 12 30  1  0
 13 31  1  0
 14 32  1  0
 16 33  1  0
 19 34  1  0
 21 35  1  0
 23 36  1  0
M  ISO  8  25  14  26  14  27  14  28  14  29  14  30  14  31  14  32  14
M  ISO  4  33  14  34  14  35  14  36  14
M  END
>  <minimizedAffinity>  (1) 
-5.87399387

>  <minimizedRMSD>  (1) 
6.61099291

$$$$
