
     RDKit          3D

 31 33  0  0  0  0  0  0  0  0999 V2000
   38.4650   31.4520   46.2160 C   0  0  0  0  0  0  0  0  0  0  0  0
   39.0670   32.5320   46.8050 C   0  0  0  0  0  0  0  0  0  0  0  0
   40.1330   33.1630   46.1850 C   0  0  0  0  0  0  0  0  0  0  0  0
   40.5270   32.6300   44.9600 C   0  0  0  0  0  0  0  0  0  0  0  0
   39.9150   31.5500   44.3830 C   0  0  0  0  0  0  0  0  0  0  0  0
   38.8650   30.9440   45.0150 N   0  0  0  0  0  0  0  0  0  0  0  0
   40.3070   30.9720   43.1030 C   0  0  0  0  0  0  0  0  0  0  0  0
   39.9170   31.6050   41.9410 C   0  0  0  0  0  0  0  0  0  0  0  0
   40.2630   31.0950   40.6840 C   0  0  0  0  0  0  0  0  0  0  0  0
   41.0110   29.9360   40.5720 C   0  0  0  0  0  0  0  0  0  0  0  0
   41.3940   29.3120   41.7420 C   0  0  0  0  0  0  0  0  0  0  0  0
   41.0500   29.8170   42.9810 C   0  0  0  0  0  0  0  0  0  0  0  0
   37.3440   30.8220   46.9260 C   0  0  0  0  0  0  0  0  0  0  0  0
   36.3330   30.4830   46.3410 O   0  0  0  0  0  0  0  0  0  0  0  0
   36.5690   29.5800   48.9340 C   0  0  0  0  0  0  0  0  0  0  0  0
   37.4030   30.5790   48.3740 C   0  0  0  0  0  0  0  0  0  0  0  0
   38.2520   31.2980   49.2120 C   0  0  0  0  0  0  0  0  0  0  0  0
   38.2300   30.9930   50.5410 N   0  0  0  0  0  0  0  0  0  0  0  0
   37.4320   30.0410   51.0630 C   0  0  0  0  0  0  0  0  0  0  0  0
   36.6250   29.3540   50.2780 N   0  0  0  0  0  0  0  0  0  0  0  0
   38.7022   32.9002   47.7752 H   0  0  0  0  0  0  0  0  0  0  0  0
   40.6375   34.0319   46.6328 H   0  0  0  0  0  0  0  0  0  0  0  0
   41.3698   33.0991   44.4312 H   0  0  0  0  0  0  0  0  0  0  0  0
   39.3226   32.5285   42.0033 H   0  0  0  0  0  0  0  0  0  0  0  0
   39.9366   31.6215   39.7750 H   0  0  0  0  0  0  0  0  0  0  0  0
   41.2894   29.5281   39.5891 H   0  0  0  0  0  0  0  0  0  0  0  0
   41.9888   28.3883   41.6865 H   0  0  0  0  0  0  0  0  0  0  0  0
   41.3754   29.2870   43.8883 H   0  0  0  0  0  0  0  0  0  0  0  0
   35.8883   28.9969   48.2962 H   0  0  0  0  0  0  0  0  0  0  0  0
   38.9149   32.0819   48.8169 H   0  0  0  0  0  0  0  0  0  0  0  0
   37.4536   29.8368   52.1437 H   0  0  0  0  0  0  0  0  0  0  0  0
  1  2  2  0
  1 13  1  0
  3  2  1  0
  4  3  2  0
  5  4  1  0
  5  6  2  0
  6  1  1  0
  7  5  1  0
  8  7  2  0
  9  8  1  0
 10  9  2  0
 10 11  1  0
 11 12  2  0
 12  7  1  0
 13 16  1  0
 14 13  2  0
 15 20  2  0
 16 15  1  0
 16 17  2  0
 17 18  1  0
 18 19  2  0
 20 19  1  0
  2 21  1  0
  3 22  1  0
  4 23  1  0
  8 24  1  0
  9 25  1  0
 10 26  1  0
 11 27  1  0
 12 28  1  0
 15 29  1  0
 17 30  1  0
 19 31  1  0
M  ISO  8  21  14  22  14  23  14  24  14  25  14  26  14  27  14  28  14
M  ISO  3  29  14  30  14  31  14
M  END
>  <minimizedAffinity>  (1) 
-5.85533237

>  <minimizedRMSD>  (1) 
3.6368711

$$$$
