
     RDKit          3D

 28 30  0  0  0  0  0  0  0  0999 V2000
   38.4250   31.3980   46.1740 C   0  0  0  0  0  0  0  0  0  0  0  0
   39.0480   32.4770   46.7490 C   0  0  0  0  0  0  0  0  0  0  0  0
   40.1070   33.1090   46.1180 C   0  0  0  0  0  0  0  0  0  0  0  0
   40.4680   32.5620   44.8830 C   0  0  0  0  0  0  0  0  0  0  0  0
   39.8260   31.4670   44.3100 C   0  0  0  0  0  0  0  0  0  0  0  0
   38.7960   30.8830   44.9650 N   0  0  0  0  0  0  0  0  0  0  0  0
   40.2720   30.9650   43.0160 C   0  0  0  0  0  0  0  0  0  0  0  0
   39.9520   31.5310   41.7990 C   0  0  0  0  0  0  0  0  0  0  0  0
   40.6060   30.7020   40.8820 C   0  0  0  0  0  0  0  0  0  0  0  0
   41.2700   29.7070   41.5280 N   0  0  0  0  0  0  0  0  0  0  0  0
   41.0490   29.8930   42.8340 N   0  0  0  0  0  0  0  0  0  0  0  0
   37.3270   30.8070   46.9180 C   0  0  0  0  0  0  0  0  0  0  0  0
   36.2770   30.4750   46.3520 O   0  0  0  0  0  0  0  0  0  0  0  0
   36.5630   29.5740   48.9380 C   0  0  0  0  0  0  0  0  0  0  0  0
   37.3940   30.5680   48.3640 C   0  0  0  0  0  0  0  0  0  0  0  0
   38.2370   31.2730   49.1910 C   0  0  0  0  0  0  0  0  0  0  0  0
   38.2520   31.0030   50.5300 N   0  0  0  0  0  0  0  0  0  0  0  0
   37.4390   30.0390   51.0530 C   0  0  0  0  0  0  0  0  0  0  0  0
   36.6170   29.3450   50.2750 N   0  0  0  0  0  0  0  0  0  0  0  0
   38.7013   32.8457   47.7257 H   0  0  0  0  0  0  0  0  0  0  0  0
   40.6246   33.9755   46.5554 H   0  0  0  0  0  0  0  0  0  0  0  0
   41.3038   33.0211   44.3346 H   0  0  0  0  0  0  0  0  0  0  0  0
   39.3332   32.4182   41.5988 H   0  0  0  0  0  0  0  0  0  0  0  0
   40.5859   30.8363   39.7904 H   0  0  0  0  0  0  0  0  0  0  0  0
   41.8316   28.9587   41.0973 H   0  0  0  0  0  0  0  0  0  0  0  0
   35.8783   28.9915   48.3041 H   0  0  0  0  0  0  0  0  0  0  0  0
   38.8957   32.0503   48.7763 H   0  0  0  0  0  0  0  0  0  0  0  0
   37.4654   29.8345   52.1335 H   0  0  0  0  0  0  0  0  0  0  0  0
  1  2  2  0
  1 12  1  0
  3  2  1  0
  4  3  2  0
  5  4  1  0
  5  6  2  0
  6  1  1  0
  7  5  1  0
  8  7  1  0
  9 10  1  0
  9  8  2  0
 10 11  1  0
 11  7  2  0
 12 15  1  0
 13 12  2  0
 14 19  2  0
 15 14  1  0
 15 16  2  0
 16 17  1  0
 17 18  2  0
 19 18  1  0
  2 20  1  0
  3 21  1  0
  4 22  1  0
  8 23  1  0
  9 24  1  0
 10 25  1  0
 14 26  1  0
 16 27  1  0
 18 28  1  0
M  ISO  8  20  14  21  14  22  14  23  14  24  14  25   9  26  14  27  14
M  ISO  1  28  14
M  END
>  <minimizedAffinity>  (1) 
-5.63118219

>  <minimizedRMSD>  (1) 
3.52459216

$$$$
