
     RDKit          3D

 20 21  0  0  0  0  0  0  0  0999 V2000
   37.4280   29.3310   50.6410 C   0  0  0  0  0  0  0  0  0  0  0  0
   38.0040   30.6040   50.4330 C   0  0  0  0  0  0  0  0  0  0  0  0
   37.4010   31.4690   49.5060 C   0  0  0  0  0  0  0  0  0  0  0  0
   36.2970   31.0170   48.8710 N   0  0  0  0  0  0  0  0  0  0  0  0
   35.7660   29.8020   49.0850 C   0  0  0  0  0  0  0  0  0  0  0  0
   36.3290   28.9730   49.9620 N   0  0  0  0  0  0  0  0  0  0  0  0
   34.5730   29.3220   48.3940 C   0  0  0  0  0  0  0  0  0  0  0  0
   33.8080   28.1680   48.3640 C   0  0  0  0  0  0  0  0  0  0  0  0
   32.7930   28.4120   47.4570 C   0  0  0  0  0  0  0  0  0  0  0  0
   32.9510   29.6510   46.9750 N   0  0  0  0  0  0  0  0  0  0  0  0
   34.0110   30.2070   47.5260 N   0  0  0  0  0  0  0  0  0  0  0  0
   37.9870   32.8100   49.2700 C   0  0  0  0  0  0  0  0  0  0  0  0
   39.1640   32.8320   49.9800 F   0  0  0  0  0  0  0  0  0  0  0  0
   38.2900   33.0260   47.9470 F   0  0  0  0  0  0  0  0  0  0  0  0
   37.1820   33.8280   49.7430 F   0  0  0  0  0  0  0  0  0  0  0  0
   37.8815   28.6333   51.3604 H   0  0  0  0  0  0  0  0  0  0  0  0
   38.9047   30.9107   50.9849 H   0  0  0  0  0  0  0  0  0  0  0  0
   33.9736   27.2471   48.9424 H   0  0  0  0  0  0  0  0  0  0  0  0
   31.9936   27.7092   47.1794 H   0  0  0  0  0  0  0  0  0  0  0  0
   32.3380   30.1007   46.2801 H   0  0  0  0  0  0  0  0  0  0  0  0
  2  1  2  0
  3  2  1  0
  4  5  1  0
  4  3  2  0
  5  6  2  0
  6  1  1  0
  7  5  1  0
  8  7  1  0
  9  8  2  0
 10  9  1  0
 10 11  1  0
 11  7  2  0
 12  3  1  0
 12 15  1  0
 12 13  1  0
 14 12  1  0
  1 16  1  0
  2 17  1  0
  8 18  1  0
  9 19  1  0
 10 20  1  0
M  ISO  5  16  14  17  14  18  14  19  14  20   9
M  END
>  <minimizedAffinity>  (1) 
-5.36128378

>  <minimizedRMSD>  (1) 
1.2955575

$$$$
