
     RDKit          3D

 28 30  0  0  0  0  0  0  0  0999 V2000
   37.7500   31.7390   47.7120 C   0  0  0  0  0  0  0  0  0  0  0  0
   37.8580   32.5390   48.8440 C   0  0  0  0  0  0  0  0  0  0  0  0
   38.8680   33.4750   48.9260 C   0  0  0  0  0  0  0  0  0  0  0  0
   39.7240   33.5510   47.8390 C   0  0  0  0  0  0  0  0  0  0  0  0
   39.6010   32.7490   46.7240 C   0  0  0  0  0  0  0  0  0  0  0  0
   38.6010   31.8340   46.6630 N   0  0  0  0  0  0  0  0  0  0  0  0
   40.5590   32.9000   45.6140 C   0  0  0  0  0  0  0  0  0  0  0  0
   39.8820   33.4350   44.3110 C   0  0  0  0  0  0  0  0  0  0  0  0
   40.5540   32.0810   44.4030 C   0  0  0  0  0  0  0  0  0  0  0  0
   36.6500   30.7670   47.7020 C   0  0  0  0  0  0  0  0  0  0  0  0
   36.1640   30.3780   46.6390 O   0  0  0  0  0  0  0  0  0  0  0  0
   36.9250   29.6130   49.8700 C   0  0  0  0  0  0  0  0  0  0  0  0
   36.0790   30.2170   48.9360 C   0  0  0  0  0  0  0  0  0  0  0  0
   34.7340   30.2710   49.2110 C   0  0  0  0  0  0  0  0  0  0  0  0
   34.2710   29.7370   50.3790 N   0  0  0  0  0  0  0  0  0  0  0  0
   35.1150   29.1550   51.2730 C   0  0  0  0  0  0  0  0  0  0  0  0
   36.4140   29.0960   51.0210 N   0  0  0  0  0  0  0  0  0  0  0  0
   37.1411   32.4260   49.6707 H   0  0  0  0  0  0  0  0  0  0  0  0
   38.9872   34.1249   49.8054 H   0  0  0  0  0  0  0  0  0  0  0  0
   40.5413   34.2867   47.8669 H   0  0  0  0  0  0  0  0  0  0  0  0
   41.3819   33.1426   46.3025 H   0  0  0  0  0  0  0  0  0  0  0  0
   40.3442   34.2504   43.7353 H   0  0  0  0  0  0  0  0  0  0  0  0
   38.8892   33.8140   44.0269 H   0  0  0  0  0  0  0  0  0  0  0  0
   39.9396   31.1692   44.3696 H   0  0  0  0  0  0  0  0  0  0  0  0
   41.3444   31.5861   43.8196 H   0  0  0  0  0  0  0  0  0  0  0  0
   38.0060   29.5552   49.6748 H   0  0  0  0  0  0  0  0  0  0  0  0
   34.0386   30.7389   48.4986 H   0  0  0  0  0  0  0  0  0  0  0  0
   34.7177   28.7323   52.2076 H   0  0  0  0  0  0  0  0  0  0  0  0
  1  2  2  0
  2  3  1  0
  4  3  2  0
  5  4  1  0
  6  5  2  0
  6  1  1  0
  7  5  1  0
  8  9  1  0
  8  7  1  0
  9  7  1  0
 10  1  1  0
 10 13  1  0
 11 10  2  0
 12 17  2  0
 13 14  2  0
 13 12  1  0
 14 15  1  0
 15 16  2  0
 17 16  1  0
  2 18  1  0
  3 19  1  0
  4 20  1  0
  7 21  1  0
  8 22  1  0
  8 23  1  0
  9 24  1  0
  9 25  1  0
 12 26  1  0
 14 27  1  0
 16 28  1  0
M  ISO  8  18  14  19  14  20  14  21  13  22  13  23  13  24  13  25  13
M  ISO  3  26  14  27  14  28  14
M  END
>  <minimizedAffinity>  (1) 
-5.33569527

>  <minimizedRMSD>  (1) 
1.20701087

$$$$
