
     RDKit          3D

 29 31  0  0  0  0  0  0  0  0999 V2000
   37.3760   31.1320   46.8190 C   0  0  0  0  0  0  0  0  0  0  0  0
   37.9860   31.9700   47.7300 C   0  0  0  0  0  0  0  0  0  0  0  0
   39.1310   32.6550   47.3670 C   0  0  0  0  0  0  0  0  0  0  0  0
   39.5830   32.4260   46.0570 C   0  0  0  0  0  0  0  0  0  0  0  0
   38.9580   31.5880   45.1700 C   0  0  0  0  0  0  0  0  0  0  0  0
   37.8400   30.9340   45.5610 N   0  0  0  0  0  0  0  0  0  0  0  0
   39.4820   31.3960   43.8230 C   0  0  0  0  0  0  0  0  0  0  0  0
   40.3440   30.3560   43.5590 C   0  0  0  0  0  0  0  0  0  0  0  0
   40.8790   30.1060   42.3280 C   0  0  0  0  0  0  0  0  0  0  0  0
   40.4970   30.9680   41.3580 N   0  0  0  0  0  0  0  0  0  0  0  0
   39.6460   31.9920   41.6170 C   0  0  0  0  0  0  0  0  0  0  0  0
   39.1310   32.2230   42.8370 N   0  0  0  0  0  0  0  0  0  0  0  0
   36.1600   30.4350   47.2640 C   0  0  0  0  0  0  0  0  0  0  0  0
   35.2460   30.1640   46.4870 O   0  0  0  0  0  0  0  0  0  0  0  0
   37.0830   29.5830   49.3950 C   0  0  0  0  0  0  0  0  0  0  0  0
   35.9790   30.0270   48.6620 C   0  0  0  0  0  0  0  0  0  0  0  0
   34.7390   30.0640   49.2970 C   0  0  0  0  0  0  0  0  0  0  0  0
   34.6320   29.6730   50.5980 N   0  0  0  0  0  0  0  0  0  0  0  0
   35.7310   29.2450   51.2800 C   0  0  0  0  0  0  0  0  0  0  0  0
   36.9290   29.2020   50.6910 N   0  0  0  0  0  0  0  0  0  0  0  0
   37.5641   32.0923   48.7385 H   0  0  0  0  0  0  0  0  0  0  0  0
   39.6528   33.3337   48.0577 H   0  0  0  0  0  0  0  0  0  0  0  0
   40.4912   32.9494   45.7234 H   0  0  0  0  0  0  0  0  0  0  0  0
   40.6179   29.6872   44.3882 H   0  0  0  0  0  0  0  0  0  0  0  0
   41.5671   29.2688   42.1396 H   0  0  0  0  0  0  0  0  0  0  0  0
   39.3648   32.6632   40.7921 H   0  0  0  0  0  0  0  0  0  0  0  0
   38.0760   29.5418   48.9236 H   0  0  0  0  0  0  0  0  0  0  0  0
   33.8491   30.4079   48.7495 H   0  0  0  0  0  0  0  0  0  0  0  0
   35.6304   28.9308   52.3294 H   0  0  0  0  0  0  0  0  0  0  0  0
  1 13  1  0
  1  2  2  0
  3  2  1  0
  4  3  2  0
  5  6  2  0
  5  4  1  0
  6  1  1  0
  7  5  1  0
  8  7  2  0
  9  8  1  0
 10 11  1  0
 10  9  2  0
 11 12  2  0
 12  7  1  0
 13 16  1  0
 14 13  2  0
 15 20  2  0
 16 17  2  0
 16 15  1  0
 17 18  1  0
 18 19  2  0
 20 19  1  0
  2 21  1  0
  3 22  1  0
  4 23  1  0
  8 24  1  0
  9 25  1  0
 11 26  1  0
 15 27  1  0
 17 28  1  0
 19 29  1  0
M  ISO  8  21  14  22  14  23  14  24  14  25  14  26  14  27  14  28  14
M  ISO  1  29  14
M  END
>  <minimizedAffinity>  (1) 
-5.28388929

>  <minimizedRMSD>  (1) 
3.07699418

$$$$
