
     RDKit          3D

 27 28  0  0  0  0  0  0  0  0999 V2000
   37.8200   31.7470   47.4670 C   0  0  0  0  0  0  0  0  0  0  0  0
   38.0030   32.5050   48.6010 C   0  0  0  0  0  0  0  0  0  0  0  0
   39.0240   33.4410   48.6710 C   0  0  0  0  0  0  0  0  0  0  0  0
   39.8140   33.5360   47.5310 C   0  0  0  0  0  0  0  0  0  0  0  0
   39.6190   32.7670   46.3980 C   0  0  0  0  0  0  0  0  0  0  0  0
   38.6060   31.8600   46.3710 N   0  0  0  0  0  0  0  0  0  0  0  0
   36.7230   30.7890   47.4850 C   0  0  0  0  0  0  0  0  0  0  0  0
   36.2020   30.3800   46.4530 O   0  0  0  0  0  0  0  0  0  0  0  0
   37.0500   29.6460   49.6750 C   0  0  0  0  0  0  0  0  0  0  0  0
   36.1730   30.2540   48.7440 C   0  0  0  0  0  0  0  0  0  0  0  0
   34.8360   30.3150   49.0690 C   0  0  0  0  0  0  0  0  0  0  0  0
   34.4020   29.7980   50.2540 N   0  0  0  0  0  0  0  0  0  0  0  0
   35.2700   29.2220   51.1230 C   0  0  0  0  0  0  0  0  0  0  0  0
   36.5640   29.1480   50.8390 N   0  0  0  0  0  0  0  0  0  0  0  0
   40.5430   32.9720   45.2450 C   0  0  0  0  0  0  0  0  0  0  0  0
   40.5560   31.7640   44.3310 C   0  0  0  0  0  0  0  0  0  0  0  0
   37.3319   32.3669   49.4616 H   0  0  0  0  0  0  0  0  0  0  0  0
   39.1960   34.0621   49.5624 H   0  0  0  0  0  0  0  0  0  0  0  0
   40.6397   34.2628   47.5300 H   0  0  0  0  0  0  0  0  0  0  0  0
   38.1254   29.5777   49.4540 H   0  0  0  0  0  0  0  0  0  0  0  0
   34.1203   30.7794   48.3747 H   0  0  0  0  0  0  0  0  0  0  0  0
   34.8971   28.8119   52.0732 H   0  0  0  0  0  0  0  0  0  0  0  0
   40.2127   33.8513   44.6726 H   0  0  0  0  0  0  0  0  0  0  0  0
   41.5598   33.1232   45.6365 H   0  0  0  0  0  0  0  0  0  0  0  0
   40.5659   30.8459   44.9368 H   0  0  0  0  0  0  0  0  0  0  0  0
   39.6577   31.7748   43.6962 H   0  0  0  0  0  0  0  0  0  0  0  0
   41.4539   31.7941   43.6962 H   0  0  0  0  0  0  0  0  0  0  0  0
  1  7  1  0
  1  2  2  0
  2  3  1  0
  4  3  2  0
  5  4  1  0
  6  5  2  0
  6  1  1  0
  7 10  1  0
  8  7  2  0
  9 14  2  0
 10 11  2  0
 10  9  1  0
 11 12  1  0
 12 13  2  0
 14 13  1  0
 15  5  1  0
 16 15  1  0
  2 17  1  0
  3 18  1  0
  4 19  1  0
  9 20  1  0
 11 21  1  0
 13 22  1  0
 15 23  1  0
 15 24  1  0
 16 25  1  0
 16 26  1  0
 16 27  1  0
M  ISO  8  17  14  18  14  19  14  20  14  21  14  22  14  23   8  24   8
M  ISO  3  25   8  26   8  27   8
M  END
>  <minimizedAffinity>  (1) 
-5.03239155

>  <minimizedRMSD>  (1) 
1.20960402

$$$$
