
     RDKit          3D

 32 34  0  0  0  0  0  0  0  0999 V2000
   37.6660   31.3560   47.3080 C   0  0  0  0  0  0  0  0  0  0  0  0
   37.8550   32.3920   48.2010 C   0  0  0  0  0  0  0  0  0  0  0  0
   38.9780   33.1860   48.1070 C   0  0  0  0  0  0  0  0  0  0  0  0
   39.8640   32.8790   47.0930 C   0  0  0  0  0  0  0  0  0  0  0  0
   39.6680   31.8420   46.2040 C   0  0  0  0  0  0  0  0  0  0  0  0
   38.5540   31.0860   46.3300 N   0  0  0  0  0  0  0  0  0  0  0  0
   36.4590   30.5530   47.4610 C   0  0  0  0  0  0  0  0  0  0  0  0
   35.7790   30.2380   46.4780 O   0  0  0  0  0  0  0  0  0  0  0  0
   36.9330   29.5970   49.6840 C   0  0  0  0  0  0  0  0  0  0  0  0
   35.9980   30.0870   48.7650 C   0  0  0  0  0  0  0  0  0  0  0  0
   34.6530   30.1070   49.1420 C   0  0  0  0  0  0  0  0  0  0  0  0
   34.2960   29.6560   50.3730 N   0  0  0  0  0  0  0  0  0  0  0  0
   35.2320   29.1880   51.2400 C   0  0  0  0  0  0  0  0  0  0  0  0
   36.5200   29.1590   50.9020 N   0  0  0  0  0  0  0  0  0  0  0  0
   40.8290   31.4570   44.8930 S   0  0  0  0  0  0  0  0  0  0  0  0
   41.2770   29.5290   42.3830 Cl  0  0  0  0  0  0  0  0  0  0  0  0
   40.2880   30.9780   42.2050 C   0  0  0  0  0  0  0  0  0  0  0  0
   40.0880   31.8220   43.2920 C   0  0  0  0  0  0  0  0  0  0  0  0
   39.3080   32.9560   43.1310 C   0  0  0  0  0  0  0  0  0  0  0  0
   38.7370   33.2480   41.9200 C   0  0  0  0  0  0  0  0  0  0  0  0
   38.9490   32.3890   40.8410 C   0  0  0  0  0  0  0  0  0  0  0  0
   39.7240   31.2450   40.9610 C   0  0  0  0  0  0  0  0  0  0  0  0
   39.9940   30.1610   39.6090 Cl  0  0  0  0  0  0  0  0  0  0  0  0
   37.1098   32.5837   48.9871 H   0  0  0  0  0  0  0  0  0  0  0  0
   39.1587   34.0192   48.8021 H   0  0  0  0  0  0  0  0  0  0  0  0
   40.7715   33.4919   46.9888 H   0  0  0  0  0  0  0  0  0  0  0  0
   38.0006   29.5666   49.4206 H   0  0  0  0  0  0  0  0  0  0  0  0
   33.8885   30.4851   48.4473 H   0  0  0  0  0  0  0  0  0  0  0  0
   34.9223   28.8289   52.2325 H   0  0  0  0  0  0  0  0  0  0  0  0
   39.1453   33.6296   43.9853 H   0  0  0  0  0  0  0  0  0  0  0  0
   38.1184   34.1496   41.7998 H   0  0  0  0  0  0  0  0  0  0  0  0
   38.4895   32.6253   39.8699 H   0  0  0  0  0  0  0  0  0  0  0  0
  1  7  1  0
  1  2  2  0
  3  2  1  0
  4  3  2  0
  5  6  2  0
  5  4  1  0
  6  1  1  0
  7 10  1  0
  8  7  2  0
  9 14  2  0
 10 11  2  0
 10  9  1  0
 11 12  1  0
 12 13  2  0
 14 13  1  0
 15  5  1  0
 17 16  1  0
 17 18  2  0
 18 15  1  0
 19 18  1  0
 20 19  2  0
 21 22  2  0
 21 20  1  0
 22 17  1  0
 23 22  1  0
  2 24  1  0
  3 25  1  0
  4 26  1  0
  9 27  1  0
 11 28  1  0
 13 29  1  0
 19 30  1  0
 20 31  1  0
 21 32  1  0
M  ISO  8  24  14  25  14  26  14  27  14  28  14  29  14  30  14  31  14
M  ISO  1  32  14
M  END
>  <minimizedAffinity>  (1) 
-5.59080362

>  <minimizedRMSD>  (1) 
1.35789645

$$$$
