
     RDKit          3D

 17 17  0  0  0  0  0  0  0  0999 V2000
   36.8380   29.5070   51.4650 C   0  0  0  0  0  0  0  0  0  0  0  0
   37.6020   30.5840   50.9420 C   0  0  0  0  0  0  0  0  0  0  0  0
   37.0040   31.3580   49.9250 C   0  0  0  0  0  0  0  0  0  0  0  0
   35.7480   31.0300   49.5120 N   0  0  0  0  0  0  0  0  0  0  0  0
   35.0690   29.9970   50.0460 C   0  0  0  0  0  0  0  0  0  0  0  0
   35.6100   29.2490   51.0080 N   0  0  0  0  0  0  0  0  0  0  0  0
   33.4650   28.4220   49.0030 C   0  0  0  0  0  0  0  0  0  0  0  0
   34.4240   27.5970   48.9310 O   0  0  0  0  0  0  0  0  0  0  0  0
   33.7580   29.6950   49.5810 N   0  0  0  0  0  0  0  0  0  0  0  0
   37.7720   32.4940   49.3510 C   0  0  0  0  0  0  0  0  0  0  0  0
   39.0240   32.4210   49.9070 F   0  0  0  0  0  0  0  0  0  0  0  0
   37.8840   32.4330   47.9920 F   0  0  0  0  0  0  0  0  0  0  0  0
   37.2130   33.7220   49.7330 F   0  0  0  0  0  0  0  0  0  0  0  0
   37.2643   28.8757   52.2586 H   0  0  0  0  0  0  0  0  0  0  0  0
   38.6138   30.8047   51.3129 H   0  0  0  0  0  0  0  0  0  0  0  0
   32.4579   28.1707   48.6389 H   0  0  0  0  0  0  0  0  0  0  0  0
   33.0130   30.4016   49.6621 H   0  0  0  0  0  0  0  0  0  0  0  0
  2  1  2  0
  3  2  1  0
  4  3  2  0
  4  5  1  0
  5  6  2  0
  6  1  1  0
  7  9  1  0
  8  7  2  0
  9  5  1  0
 10 13  1  0
 10 11  1  0
 10  3  1  0
 12 10  1  0
  1 14  1  0
  2 15  1  0
  7 16  1  0
  9 17  1  0
M  ISO  3  14  14  15  14  16   6
M  END
>  <minimizedAffinity>  (1) 
-5.24512768

>  <minimizedRMSD>  (1) 
0.158783212

$$$$
