
     RDKit          3D

 48 51  0  0  1  0  0  0  0  0999 V2000
   39.5100   33.0170   44.0370 C   0  0  0  0  0  0  0  0  0  0  0  0
   39.2120   29.7270   42.7430 C   0  0  1  0  0  0  0  0  0  0  0  0
   39.2270   31.1880   42.3580 C   0  0  0  0  0  0  0  0  0  0  0  0
   40.1170   31.7630   43.4180 C   0  0  2  0  0  0  0  0  0  0  0  0
   40.3610   30.7880   44.3530 O   0  0  0  0  0  0  0  0  0  0  0  0
   39.3600   29.8260   44.2430 C   0  0  0  0  0  0  0  0  0  0  0  0
   38.0050   29.1270   42.3720 O   0  0  0  0  0  0  0  0  0  0  0  0
   38.2650   27.9310   41.7580 C   0  0  2  0  0  0  0  0  0  0  0  0
   38.1270   26.7180   42.6830 C   0  0  0  0  0  0  0  0  0  0  0  0
   38.9240   25.7150   41.8510 C   0  0  0  0  0  0  0  0  0  0  0  0
   39.8090   26.4350   41.0950 O   0  0  0  0  0  0  0  0  0  0  0  0
   39.7290   27.7710   41.4080 C   0  0  0  0  0  0  0  0  0  0  0  0
   40.5220   33.4420   45.4780 S   0  0  0  0  0  0  0  0  0  0  0  0
   37.7600   31.8630   47.8430 C   0  0  0  0  0  0  0  0  0  0  0  0
   37.8970   32.5600   49.0520 C   0  0  0  0  0  0  0  0  0  0  0  0
   38.8490   33.5470   49.1880 C   0  0  0  0  0  0  0  0  0  0  0  0
   39.6320   33.7980   48.0950 C   0  0  0  0  0  0  0  0  0  0  0  0
   39.4790   33.1040   46.9260 C   0  0  0  0  0  0  0  0  0  0  0  0
   38.5480   32.1340   46.7820 N   0  0  0  0  0  0  0  0  0  0  0  0
   36.7380   30.8430   47.7810 C   0  0  0  0  0  0  0  0  0  0  0  0
   36.3270   30.4180   46.6940 O   0  0  0  0  0  0  0  0  0  0  0  0
   36.9770   29.6200   49.9050 C   0  0  0  0  0  0  0  0  0  0  0  0
   36.1340   30.2570   48.9870 C   0  0  0  0  0  0  0  0  0  0  0  0
   34.7590   30.3180   49.2360 C   0  0  0  0  0  0  0  0  0  0  0  0
   34.2770   29.7450   50.3860 N   0  0  0  0  0  0  0  0  0  0  0  0
   35.1200   29.1340   51.2570 C   0  0  0  0  0  0  0  0  0  0  0  0
   36.4370   29.0750   51.0220 N   0  0  0  0  0  0  0  0  0  0  0  0
   38.4735   32.8204   44.3484 H   0  0  0  0  0  0  0  0  0  0  0  0
   39.4943   33.8438   43.3116 H   0  0  0  0  0  0  0  0  0  0  0  0
   39.9841   29.1104   42.2597 H   0  0  0  0  0  0  0  0  0  0  0  0
   39.6504   31.3352   41.3535 H   0  0  0  0  0  0  0  0  0  0  0  0
   38.2302   31.6504   42.3077 H   0  0  0  0  0  0  0  0  0  0  0  0
   41.0713   32.0810   42.9727 H   0  0  0  0  0  0  0  0  0  0  0  0
   38.4262   30.1596   44.7191 H   0  0  0  0  0  0  0  0  0  0  0  0
   39.5945   28.8718   44.7375 H   0  0  0  0  0  0  0  0  0  0  0  0
   37.5592   27.9559   40.9147 H   0  0  0  0  0  0  0  0  0  0  0  0
   38.5814   26.8937   43.6692 H   0  0  0  0  0  0  0  0  0  0  0  0
   37.0983   26.4218   42.9359 H   0  0  0  0  0  0  0  0  0  0  0  0
   39.4671   25.0233   42.5118 H   0  0  0  0  0  0  0  0  0  0  0  0
   38.2571   25.1179   41.2117 H   0  0  0  0  0  0  0  0  0  0  0  0
   40.3731   28.0191   42.2645 H   0  0  0  0  0  0  0  0  0  0  0  0
   40.0641   28.4350   40.5975 H   0  0  0  0  0  0  0  0  0  0  0  0
   37.2389   32.3168   49.8992 H   0  0  0  0  0  0  0  0  0  0  0  0
   38.9729   34.1047   50.1280 H   0  0  0  0  0  0  0  0  0  0  0  0
   40.4049   34.5782   48.1575 H   0  0  0  0  0  0  0  0  0  0  0  0
   38.0603   29.5627   49.7227 H   0  0  0  0  0  0  0  0  0  0  0  0
   34.0799   30.8137   48.5266 H   0  0  0  0  0  0  0  0  0  0  0  0
   34.7139   28.6791   52.1725 H   0  0  0  0  0  0  0  0  0  0  0  0
  1 13  1  0
  2  6  1  0
  3  2  1  0
  3  4  1  0
  4  1  1  0
  4  5  1  0
  6  5  1  0
  7  2  1  0
  8  7  1  0
  8  9  1  0
 10  9  1  0
 11 12  1  0
 11 10  1  0
 12  8  1  0
 13 18  1  0
 14 15  2  0
 15 16  1  0
 17 16  2  0
 18 17  1  0
 19 18  2  0
 19 14  1  0
 20 14  1  0
 20 23  1  0
 21 20  2  0
 22 27  2  0
 23 24  2  0
 23 22  1  0
 24 25  1  0
 25 26  2  0
 27 26  1  0
  1 28  1  0
  1 29  1  0
  2 30  1  6
  3 31  1  0
  3 32  1  0
  4 33  1  6
  6 34  1  0
  6 35  1  0
  8 36  1  6
  9 37  1  0
  9 38  1  0
 10 39  1  0
 10 40  1  0
 12 41  1  0
 12 42  1  0
 15 43  1  0
 16 44  1  0
 17 45  1  0
 22 46  1  0
 24 47  1  0
 26 48  1  0
M  ISO  8  28   8  29   8  30  13  31  13  32  13  33  13  34  13  35  13
M  ISO  8  36  13  37  13  38  13  39  13  40  13  41  13  42  13  43  14
M  ISO  5  44  14  45  14  46  14  47  14  48  14
M  END
>  <minimizedAffinity>  (1) 
-5.36138678

>  <minimizedRMSD>  (1) 
0.751093686

$$$$
