
     RDKit          3D

 20 21  0  0  0  0  0  0  0  0999 V2000
   37.3630   29.5000   51.1170 C   0  0  0  0  0  0  0  0  0  0  0  0
   37.9790   30.7190   50.7290 C   0  0  0  0  0  0  0  0  0  0  0  0
   37.3280   31.5000   49.7570 C   0  0  0  0  0  0  0  0  0  0  0  0
   36.1610   31.0210   49.2700 N   0  0  0  0  0  0  0  0  0  0  0  0
   35.5940   29.8660   49.6480 C   0  0  0  0  0  0  0  0  0  0  0  0
   36.2000   29.1170   50.5680 N   0  0  0  0  0  0  0  0  0  0  0  0
   37.9380   32.7820   49.3230 C   0  0  0  0  0  0  0  0  0  0  0  0
   39.1610   32.8340   49.9350 F   0  0  0  0  0  0  0  0  0  0  0  0
   38.1260   32.8260   47.9530 F   0  0  0  0  0  0  0  0  0  0  0  0
   37.1900   33.8730   49.7180 F   0  0  0  0  0  0  0  0  0  0  0  0
   34.3020   29.3870   49.0750 C   0  0  0  0  0  0  0  0  0  0  0  0
   34.0600   27.9440   48.8830 C   0  0  0  0  0  0  0  0  0  0  0  0
   34.4010   28.7480   47.6910 C   0  0  0  0  0  0  0  0  0  0  0  0
   37.8436   28.8636   51.8747 H   0  0  0  0  0  0  0  0  0  0  0  0
   38.9323   31.0415   51.1731 H   0  0  0  0  0  0  0  0  0  0  0  0
   33.7294   30.1901   49.5621 H   0  0  0  0  0  0  0  0  0  0  0  0
   34.7855   27.2147   49.2724 H   0  0  0  0  0  0  0  0  0  0  0  0
   33.2302   27.2680   49.1369 H   0  0  0  0  0  0  0  0  0  0  0  0
   35.3807   28.6292   47.2052 H   0  0  0  0  0  0  0  0  0  0  0  0
   33.9409   28.9288   46.7083 H   0  0  0  0  0  0  0  0  0  0  0  0
  2  1  2  0
  3  2  1  0
  4  5  1  0
  4  3  2  0
  5  6  2  0
  6  1  1  0
  7 10  1  0
  7  3  1  0
  7  8  1  0
  9  7  1  0
 11  5  1  0
 12 11  1  0
 13 12  1  0
 13 11  1  0
  1 14  1  0
  2 15  1  0
 11 16  1  0
 12 17  1  0
 12 18  1  0
 13 19  1  0
 13 20  1  0
M  ISO  7  14  14  15  14  16  13  17  13  18  13  19  13  20  13
M  END
>  <minimizedAffinity>  (1) 
-4.97369766

>  <minimizedRMSD>  (1) 
0.760847509

$$$$
