
     RDKit          3D

 29 30  0  0  1  0  0  0  0  0999 V2000
   38.1460   33.0320   49.2350 O   0  0  0  0  0  0  0  0  0  0  0  0
   37.8810   31.5270   49.2980 P   0  0  1  0  0  0  0  0  0  0  0  0
   38.7370   30.8880   50.6210 O   0  0  0  0  0  0  0  0  0  0  0  0
   36.2490   31.3040   49.6230 O   0  0  0  0  0  0  0  0  0  0  0  0
   35.3160   29.1220   49.9530 C   0  0  0  0  0  0  0  0  0  0  0  0
   35.4390   30.2920   49.1580 C   0  0  0  0  0  0  0  0  0  0  0  0
   34.7280   30.3300   47.9620 C   0  0  0  0  0  0  0  0  0  0  0  0
   33.9620   29.2590   47.6190 N   0  0  0  0  0  0  0  0  0  0  0  0
   33.8780   28.1700   48.4080 C   0  0  0  0  0  0  0  0  0  0  0  0
   34.5470   28.0860   49.5740 N   0  0  0  0  0  0  0  0  0  0  0  0
   38.3960   30.8650   47.8480 O   0  0  0  0  0  0  0  0  0  0  0  0
   39.8630   32.0110   46.3170 C   0  0  2  0  0  0  0  0  0  0  0  0
   38.4680   31.8470   46.8840 C   0  0  1  0  0  0  0  0  0  0  0  0
   37.7590   31.4950   45.7210 O   0  0  0  0  0  0  0  0  0  0  0  0
   38.1290   32.4610   44.7990 C   0  0  0  0  0  0  0  0  0  0  0  0
   39.5470   32.8390   45.0770 C   0  0  2  0  0  0  0  0  0  0  0  0
   40.3780   30.7690   45.9780 O   0  0  0  0  0  0  0  0  0  0  0  0
   40.4060   32.5370   44.0240 O   0  0  0  0  0  0  0  0  0  0  0  0
   38.3212   31.1984   51.4641 H   0  0  0  0  0  0  0  0  0  0  0  0
   35.8645   29.0614   50.9045 H   0  0  0  0  0  0  0  0  0  0  0  0
   34.7844   31.2107   47.3054 H   0  0  0  0  0  0  0  0  0  0  0  0
   33.2462   27.3270   48.0914 H   0  0  0  0  0  0  0  0  0  0  0  0
   40.6069   32.4638   46.9890 H   0  0  0  0  0  0  0  0  0  0  0  0
   38.0880   32.7373   47.4064 H   0  0  0  0  0  0  0  0  0  0  0  0
   37.4799   33.3432   44.9006 H   0  0  0  0  0  0  0  0  0  0  0  0
   38.0289   32.0725   43.7748 H   0  0  0  0  0  0  0  0  0  0  0  0
   39.6806   33.9221   45.2149 H   0  0  0  0  0  0  0  0  0  0  0  0
   40.5880   30.2626   46.8024 H   0  0  0  0  0  0  0  0  0  0  0  0
   41.2757   32.2312   44.3849 H   0  0  0  0  0  0  0  0  0  0  0  0
  2  1  2  0
  2  4  1  0
  2  3  1  0
  6  4  1  0
  6  5  2  0
  7  6  1  0
  8  7  2  0
  8  9  1  0
  9 10  2  0
 10  5  1  0
 11  2  1  0
 12 17  1  0
 12 13  1  0
 13 11  1  0
 14 13  1  0
 15 16  1  0
 15 14  1  0
 16 18  1  0
 16 12  1  0
  3 19  1  0
  5 20  1  0
  7 21  1  0
  9 22  1  0
 12 23  1  1
 13 24  1  1
 15 25  1  0
 15 26  1  0
 16 27  1  1
 17 28  1  0
 18 29  1  0
M  ISO  8  19   3  20  14  21  14  22  14  23  13  24  13  25  13  26  13
M  ISO  3  27  13  28   3  29   3
M  END
>  <minimizedAffinity>  (1) 
-5.57363987

>  <minimizedRMSD>  (1) 
3.6057179

$$$$
