
     RDKit          3D

 27 28  0  0  1  0  0  0  0  0999 V2000
   36.6870   31.7070   49.4050 O   0  0  0  0  0  0  0  0  0  0  0  0
   37.5000   30.4460   49.1400 P   0  0  1  0  0  0  0  0  0  0  0  0
   38.6410   30.2810   50.3880 O   0  0  0  0  0  0  0  0  0  0  0  0
   36.4590   29.1170   49.2840 O   0  0  0  0  0  0  0  0  0  0  0  0
   34.3180   28.0460   49.2290 C   0  0  0  0  0  0  0  0  0  0  0  0
   35.2550   28.9320   48.6700 C   0  0  0  0  0  0  0  0  0  0  0  0
   34.8770   29.5850   47.4870 C   0  0  0  0  0  0  0  0  0  0  0  0
   33.6480   29.3350   46.9460 N   0  0  0  0  0  0  0  0  0  0  0  0
   32.7920   28.4690   47.5350 C   0  0  0  0  0  0  0  0  0  0  0  0
   33.1190   27.8210   48.6740 N   0  0  0  0  0  0  0  0  0  0  0  0
   38.2050   30.6060   47.6320 O   0  0  0  0  0  0  0  0  0  0  0  0
   38.0420   31.9160   47.2060 C   0  0  2  0  0  0  0  0  0  0  0  0
   37.8130   31.8830   45.7120 C   0  0  0  0  0  0  0  0  0  0  0  0
   39.1400   32.2990   45.1310 C   0  0  0  0  0  0  0  0  0  0  0  0
   39.9960   32.5890   46.1640 O   0  0  0  0  0  0  0  0  0  0  0  0
   39.2720   32.7550   47.3280 C   0  0  0  0  0  0  0  0  0  0  0  0
   38.1841   30.3471   51.2638 H   0  0  0  0  0  0  0  0  0  0  0  0
   34.5787   27.5170   50.1575 H   0  0  0  0  0  0  0  0  0  0  0  0
   35.5644   30.2920   46.9996 H   0  0  0  0  0  0  0  0  0  0  0  0
   31.8085   28.2886   47.0765 H   0  0  0  0  0  0  0  0  0  0  0  0
   37.2309   32.3317   47.8219 H   0  0  0  0  0  0  0  0  0  0  0  0
   37.5411   30.8701   45.3803 H   0  0  0  0  0  0  0  0  0  0  0  0
   36.9879   32.5380   45.3954 H   0  0  0  0  0  0  0  0  0  0  0  0
   39.5535   31.4789   44.5256 H   0  0  0  0  0  0  0  0  0  0  0  0
   39.0101   33.1832   44.4896 H   0  0  0  0  0  0  0  0  0  0  0  0
   38.9961   33.8125   47.4528 H   0  0  0  0  0  0  0  0  0  0  0  0
   39.8655   32.4533   48.2036 H   0  0  0  0  0  0  0  0  0  0  0  0
  2  4  1  0
  2  1  2  0
  2  3  1  0
  6  5  2  0
  6  4  1  0
  7  6  1  0
  8  7  2  0
  8  9  1  0
  9 10  2  0
 10  5  1  0
 11  2  1  0
 12 16  1  0
 12 11  1  0
 13 12  1  0
 14 13  1  0
 14 15  1  0
 15 16  1  0
  3 17  1  0
  5 18  1  0
  7 19  1  0
  9 20  1  0
 12 21  1  1
 13 22  1  0
 13 23  1  0
 14 24  1  0
 14 25  1  0
 16 26  1  0
 16 27  1  0
M  ISO  8  17   3  18  14  19  14  20  14  21  13  22  13  23  13  24  13
M  ISO  3  25  13  26  13  27  13
M  END
>  <minimizedAffinity>  (1) 
-4.57420206

>  <minimizedRMSD>  (1) 
3.21225929

$$$$
