
     RDKit          3D

 19 20  0  0  0  0  0  0  0  0999 V2000
   37.9780   30.2780   49.7300 C   0  0  0  0  0  0  0  0  0  0  0  0
   37.5030   31.0080   48.6230 C   0  0  0  0  0  0  0  0  0  0  0  0
   36.2440   30.6920   48.1430 C   0  0  0  0  0  0  0  0  0  0  0  0
   35.5240   29.7080   48.7460 N   0  0  0  0  0  0  0  0  0  0  0  0
   36.0200   29.0290   49.8080 C   0  0  0  0  0  0  0  0  0  0  0  0
   37.2380   29.2990   50.3120 N   0  0  0  0  0  0  0  0  0  0  0  0
   38.3800   31.9580   48.1610 O   0  0  0  0  0  0  0  0  0  0  0  0
   39.0780   31.8720   46.9540 C   0  0  0  0  0  0  0  0  0  0  0  0
   39.1830   30.7460   46.1540 C   0  0  0  0  0  0  0  0  0  0  0  0
   39.9120   30.8160   44.9810 C   0  0  0  0  0  0  0  0  0  0  0  0
   40.5140   31.9630   44.6180 N   0  0  0  0  0  0  0  0  0  0  0  0
   40.3740   33.0200   45.4370 C   0  0  0  0  0  0  0  0  0  0  0  0
   39.6790   33.0200   46.5920 N   0  0  0  0  0  0  0  0  0  0  0  0
   38.9752   30.5070   50.1341 H   0  0  0  0  0  0  0  0  0  0  0  0
   35.8285   31.2328   47.2799 H   0  0  0  0  0  0  0  0  0  0  0  0
   35.4119   28.2372   50.2698 H   0  0  0  0  0  0  0  0  0  0  0  0
   38.6920   29.8067   46.4485 H   0  0  0  0  0  0  0  0  0  0  0  0
   40.0004   29.9267   44.3396 H   0  0  0  0  0  0  0  0  0  0  0  0
   40.8653   33.9587   45.1413 H   0  0  0  0  0  0  0  0  0  0  0  0
  1  6  2  0
  2  1  1  0
  3  2  2  0
  3  4  1  0
  4  5  2  0
  5  6  1  0
  7  2  1  0
  8  7  1  0
  9  8  2  0
 10  9  1  0
 11 10  2  0
 11 12  1  0
 12 13  2  0
 13  8  1  0
  1 14  1  0
  3 15  1  0
  5 16  1  0
  9 17  1  0
 10 18  1  0
 12 19  1  0
M  ISO  6  14  14  15  14  16  14  17  14  18  14  19  14
M  END
>  <minimizedAffinity>  (1) 
-4.22448301

>  <minimizedRMSD>  (1) 
3.85319448

$$$$
