
     RDKit          3D

 15 15  0  0  0  0  0  0  0  0999 V2000
   37.2510   30.3730   51.0480 C   0  0  0  0  0  0  0  0  0  0  0  0
   37.6400   30.6910   49.7310 C   0  0  0  0  0  0  0  0  0  0  0  0
   36.9580   30.1090   48.6720 C   0  0  0  0  0  0  0  0  0  0  0  0
   35.9480   29.2610   48.9610 N   0  0  0  0  0  0  0  0  0  0  0  0
   35.5920   28.9690   50.2270 C   0  0  0  0  0  0  0  0  0  0  0  0
   36.2350   29.5190   51.2850 N   0  0  0  0  0  0  0  0  0  0  0  0
   38.7020   31.5860   49.6750 O   0  0  0  0  0  0  0  0  0  0  0  0
   38.7670   32.4550   48.5930 C   0  0  0  0  0  0  0  0  0  0  0  0
   39.1840   32.3830   47.3960 O   0  0  0  0  0  0  0  0  0  0  0  0
   38.2450   33.7560   48.8620 N   0  0  0  0  0  0  0  0  0  0  0  0
   37.7845   30.8285   51.8953 H   0  0  0  0  0  0  0  0  0  0  0  0
   37.2316   30.3315   47.6301 H   0  0  0  0  0  0  0  0  0  0  0  0
   34.7620   28.2695   50.4054 H   0  0  0  0  0  0  0  0  0  0  0  0
   38.2474   34.4746   48.1241 H   0  0  0  0  0  0  0  0  0  0  0  0
   37.8660   33.9762   49.7941 H   0  0  0  0  0  0  0  0  0  0  0  0
  1  6  2  0
  2  1  1  0
  3  4  1  0
  3  2  2  0
  4  5  2  0
  5  6  1  0
  7  2  1  0
  8 10  1  0
  8  7  1  0
  9  8  2  0
  1 11  1  0
  3 12  1  0
  5 13  1  0
 10 14  1  0
 10 15  1  0
M  ISO  3  11  14  12  14  13  14
M  END
>  <minimizedAffinity>  (1) 
-3.73998165

>  <minimizedRMSD>  (1) 
1.5072515

$$$$
