
     RDKit          3D

 23 24  0  0  0  0  0  0  0  0999 V2000
   38.0710   31.7500   47.9110 C   0  0  0  0  0  0  0  0  0  0  0  0
   37.9970   30.5700   47.2420 C   0  0  0  0  0  0  0  0  0  0  0  0
   38.7210   30.3810   46.1110 C   0  0  0  0  0  0  0  0  0  0  0  0
   39.5220   31.4020   45.6620 C   0  0  0  0  0  0  0  0  0  0  0  0
   39.6010   32.6060   46.3410 C   0  0  0  0  0  0  0  0  0  0  0  0
   38.8540   32.7410   47.4690 N   0  0  0  0  0  0  0  0  0  0  0  0
   40.4790   33.7130   45.8420 C   0  0  0  0  0  0  0  0  0  0  0  0
   37.4080   32.1450   49.0920 O   0  0  0  0  0  0  0  0  0  0  0  0
   37.3350   30.5750   50.8040 C   0  0  0  0  0  0  0  0  0  0  0  0
   36.6650   31.1830   49.7190 C   0  0  0  0  0  0  0  0  0  0  0  0
   35.3900   30.7450   49.4430 C   0  0  0  0  0  0  0  0  0  0  0  0
   34.8550   29.7720   50.2090 N   0  0  0  0  0  0  0  0  0  0  0  0
   35.5080   29.2170   51.2220 C   0  0  0  0  0  0  0  0  0  0  0  0
   36.7780   29.6030   51.5550 N   0  0  0  0  0  0  0  0  0  0  0  0
   37.3481   29.7656   47.6187 H   0  0  0  0  0  0  0  0  0  0  0  0
   38.6676   29.4282   45.5638 H   0  0  0  0  0  0  0  0  0  0  0  0
   40.1125   31.2605   44.7448 H   0  0  0  0  0  0  0  0  0  0  0  0
   40.9085   34.2545   46.6978 H   0  0  0  0  0  0  0  0  0  0  0  0
   41.2902   33.2905   45.2309 H   0  0  0  0  0  0  0  0  0  0  0  0
   39.8829   34.4067   45.2309 H   0  0  0  0  0  0  0  0  0  0  0  0
   38.3547   30.9086   51.0467 H   0  0  0  0  0  0  0  0  0  0  0  0
   34.8167   31.1810   48.6116 H   0  0  0  0  0  0  0  0  0  0  0  0
   35.0163   28.4270   51.8087 H   0  0  0  0  0  0  0  0  0  0  0  0
  1  8  1  0
  2  1  2  0
  3  2  1  0
  4  3  2  0
  4  5  1  0
  5  6  2  0
  6  1  1  0
  7  5  1  0
  8 10  1  0
  9 14  2  0
 10  9  1  0
 11 10  2  0
 11 12  1  0
 12 13  2  0
 13 14  1  0
  2 15  1  0
  3 16  1  0
  4 17  1  0
  7 18  1  0
  7 19  1  0
  7 20  1  0
  9 21  1  0
 11 22  1  0
 13 23  1  0
M  ISO  8  15  14  16  14  17  14  18   8  19   8  20   8  21  14  22  14
M  ISO  1  23  14
M  END
>  <minimizedAffinity>  (1) 
-4.57845068

>  <minimizedRMSD>  (1) 
0.351789296

$$$$
