
     RDKit          3D

 26 27  0  0  0  0  0  0  0  0999 V2000
   39.2120   31.8630   46.8870 C   0  0  0  0  0  0  0  0  0  0  0  0
   39.2130   30.6350   46.3120 C   0  0  0  0  0  0  0  0  0  0  0  0
   39.5240   30.5050   44.9940 C   0  0  0  0  0  0  0  0  0  0  0  0
   39.8290   31.6270   44.2730 C   0  0  0  0  0  0  0  0  0  0  0  0
   39.8280   32.8860   44.8660 C   0  0  0  0  0  0  0  0  0  0  0  0
   39.5110   32.9540   46.1800 N   0  0  0  0  0  0  0  0  0  0  0  0
   40.1650   34.1070   44.0630 C   0  0  0  0  0  0  0  0  0  0  0  0
   38.9210   32.2120   48.2240 O   0  0  0  0  0  0  0  0  0  0  0  0
   38.2880   31.0770   50.1440 C   0  0  0  0  0  0  0  0  0  0  0  0
   37.9530   31.4930   48.8440 C   0  0  0  0  0  0  0  0  0  0  0  0
   36.7010   31.1210   48.3750 C   0  0  0  0  0  0  0  0  0  0  0  0
   35.8910   30.4000   49.1640 N   0  0  0  0  0  0  0  0  0  0  0  0
   36.2370   30.0210   50.3930 C   0  0  0  0  0  0  0  0  0  0  0  0
   37.4620   30.3550   50.9240 N   0  0  0  0  0  0  0  0  0  0  0  0
   35.2350   29.2260   51.1520 C   0  0  0  0  0  0  0  0  0  0  0  0
   38.9630   29.7461   46.9098 H   0  0  0  0  0  0  0  0  0  0  0  0
   39.5301   29.5143   44.5160 H   0  0  0  0  0  0  0  0  0  0  0  0
   40.0794   31.5323   43.2061 H   0  0  0  0  0  0  0  0  0  0  0  0
   40.3951   34.9408   44.7426 H   0  0  0  0  0  0  0  0  0  0  0  0
   41.0393   33.8989   43.4287 H   0  0  0  0  0  0  0  0  0  0  0  0
   39.3078   34.3768   43.4287 H   0  0  0  0  0  0  0  0  0  0  0  0
   39.2742   31.3552   50.5440 H   0  0  0  0  0  0  0  0  0  0  0  0
   36.3762   31.4147   47.3659 H   0  0  0  0  0  0  0  0  0  0  0  0
   35.4026   29.3590   52.2310 H   0  0  0  0  0  0  0  0  0  0  0  0
   34.2224   29.5691   50.8932 H   0  0  0  0  0  0  0  0  0  0  0  0
   35.3389   28.1619   50.8932 H   0  0  0  0  0  0  0  0  0  0  0  0
  1  8  1  0
  2  1  2  0
  3  2  1  0
  4  5  1  0
  4  3  2  0
  5  6  2  0
  6  1  1  0
  7  5  1  0
  8 10  1  0
  9 14  2  0
 10  9  1  0
 11 10  2  0
 11 12  1  0
 12 13  2  0
 13 14  1  0
 13 15  1  0
  2 16  1  0
  3 17  1  0
  4 18  1  0
  7 19  1  0
  7 20  1  0
  7 21  1  0
  9 22  1  0
 11 23  1  0
 15 24  1  0
 15 25  1  0
 15 26  1  0
M  ISO  8  16  14  17  14  18  14  19   8  20   8  21   8  22  14  23  14
M  ISO  3  24   8  25   8  26   8
M  END
>  <minimizedAffinity>  (1) 
-4.74505424

>  <minimizedRMSD>  (1) 
1.51650047

$$$$
