
     RDKit          3D

 27 28  0  0  0  0  0  0  0  0999 V2000
   39.4870   31.7910   46.5310 C   0  0  0  0  0  0  0  0  0  0  0  0
   39.7880   30.6760   45.7780 C   0  0  0  0  0  0  0  0  0  0  0  0
   40.2140   30.8170   44.5030 C   0  0  0  0  0  0  0  0  0  0  0  0
   40.3330   32.0870   43.9940 C   0  0  0  0  0  0  0  0  0  0  0  0
   40.0290   33.2060   44.7530 C   0  0  0  0  0  0  0  0  0  0  0  0
   39.6080   33.0090   46.0220 N   0  0  0  0  0  0  0  0  0  0  0  0
   40.1730   34.5840   44.1610 C   0  0  0  0  0  0  0  0  0  0  0  0
   39.0340   31.8430   47.8620 O   0  0  0  0  0  0  0  0  0  0  0  0
   38.0970   30.3670   49.4190 C   0  0  0  0  0  0  0  0  0  0  0  0
   37.9750   31.0550   48.2010 C   0  0  0  0  0  0  0  0  0  0  0  0
   36.8090   30.8780   47.4650 C   0  0  0  0  0  0  0  0  0  0  0  0
   35.8640   30.0490   47.9730 N   0  0  0  0  0  0  0  0  0  0  0  0
   36.0220   29.4210   49.1230 C   0  0  0  0  0  0  0  0  0  0  0  0
   37.1550   29.5550   49.9040 N   0  0  0  0  0  0  0  0  0  0  0  0
   34.5610   28.4010   49.4910 S   0  0  0  0  0  0  0  0  0  0  0  0
   33.5420   29.4610   50.5890 C   0  0  0  0  0  0  0  0  0  0  0  0
   39.6815   29.6720   46.2147 H   0  0  0  0  0  0  0  0  0  0  0  0
   40.4589   29.9376   43.8892 H   0  0  0  0  0  0  0  0  0  0  0  0
   40.6782   32.2193   42.9580 H   0  0  0  0  0  0  0  0  0  0  0  0
   40.2504   35.3246   44.9706 H   0  0  0  0  0  0  0  0  0  0  0  0
   41.0801   34.6234   43.5401 H   0  0  0  0  0  0  0  0  0  0  0  0
   39.2936   34.8101   43.5401 H   0  0  0  0  0  0  0  0  0  0  0  0
   39.0179   30.5045   50.0047 H   0  0  0  0  0  0  0  0  0  0  0  0
   36.6584   31.3924   46.5044 H   0  0  0  0  0  0  0  0  0  0  0  0
   33.7684   29.2254   51.6394 H   0  0  0  0  0  0  0  0  0  0  0  0
   33.7709   30.5189   50.3929 H   0  0  0  0  0  0  0  0  0  0  0  0
   32.4759   29.2740   50.3929 H   0  0  0  0  0  0  0  0  0  0  0  0
  1  8  1  0
  2  1  2  0
  3  2  1  0
  4  3  2  0
  4  5  1  0
  5  6  2  0
  6  1  1  0
  7  5  1  0
  8 10  1  0
  9 14  2  0
 10  9  1  0
 11 12  1  0
 11 10  2  0
 12 13  2  0
 13 15  1  0
 13 14  1  0
 15 16  1  0
  2 17  1  0
  3 18  1  0
  4 19  1  0
  7 20  1  0
  7 21  1  0
  7 22  1  0
  9 23  1  0
 11 24  1  0
 16 25  1  0
 16 26  1  0
 16 27  1  0
M  ISO  8  17  14  18  14  19  14  20   8  21   8  22   8  23  14  24  14
M  ISO  3  25   8  26   8  27   8
M  END
>  <minimizedAffinity>  (1) 
-4.11029243

>  <minimizedRMSD>  (1) 
0.665518045

$$$$
