
     RDKit          3D

 36 38  0  0  0  0  0  0  0  0999 V2000
   40.0540   31.5030   44.1950 C   0  0  0  0  0  0  0  0  0  0  0  0
   39.2370   31.8460   45.2720 C   0  0  0  0  0  0  0  0  0  0  0  0
   37.9510   32.3200   45.0000 C   0  0  0  0  0  0  0  0  0  0  0  0
   37.5760   32.4160   43.7040 N   0  0  0  0  0  0  0  0  0  0  0  0
   38.3780   32.0820   42.7170 C   0  0  0  0  0  0  0  0  0  0  0  0
   39.6670   31.6050   42.9200 N   0  0  0  0  0  0  0  0  0  0  0  0
   39.7850   31.6820   46.5110 O   0  0  0  0  0  0  0  0  0  0  0  0
   38.9420   31.8680   47.6270 C   0  0  0  0  0  0  0  0  0  0  0  0
   38.8090   32.9910   48.4150 C   0  0  0  0  0  0  0  0  0  0  0  0
   37.9450   32.9740   49.4450 C   0  0  0  0  0  0  0  0  0  0  0  0
   37.2140   31.8400   49.6910 C   0  0  0  0  0  0  0  0  0  0  0  0
   37.3520   30.7050   48.8900 C   0  0  0  0  0  0  0  0  0  0  0  0
   38.2300   30.7690   47.8700 N   0  0  0  0  0  0  0  0  0  0  0  0
   36.5410   29.4720   49.1780 C   0  0  0  0  0  0  0  0  0  0  0  0
   37.6010   32.3190   41.0960 S   0  0  0  0  0  0  0  0  0  0  0  0
   37.0060   34.0470   41.1260 C   0  0  0  0  0  0  0  0  0  0  0  0
   35.5480   34.1170   41.3230 C   0  0  0  0  0  0  0  0  0  0  0  0
   34.8270   35.2640   41.5270 C   0  0  0  0  0  0  0  0  0  0  0  0
   33.4810   35.0960   41.6870 C   0  0  0  0  0  0  0  0  0  0  0  0
   32.8420   33.8870   41.6540 C   0  0  0  0  0  0  0  0  0  0  0  0
   33.6260   32.7560   41.4420 C   0  0  0  0  0  0  0  0  0  0  0  0
   34.9620   32.9100   41.2830 N   0  0  0  0  0  0  0  0  0  0  0  0
   41.0672   31.1300   44.4055 H   0  0  0  0  0  0  0  0  0  0  0  0
   37.2666   32.6055   45.8125 H   0  0  0  0  0  0  0  0  0  0  0  0
   39.4036   33.8919   48.2034 H   0  0  0  0  0  0  0  0  0  0  0  0
   37.8256   33.8612   50.0843 H   0  0  0  0  0  0  0  0  0  0  0  0
   36.5071   31.8245   50.5336 H   0  0  0  0  0  0  0  0  0  0  0  0
   36.4524   29.3373   50.2661 H   0  0  0  0  0  0  0  0  0  0  0  0
   35.5383   29.5819   48.7393 H   0  0  0  0  0  0  0  0  0  0  0  0
   37.0390   28.5948   48.7393 H   0  0  0  0  0  0  0  0  0  0  0  0
   37.5031   34.5811   41.9492 H   0  0  0  0  0  0  0  0  0  0  0  0
   37.2439   34.5088   40.1564 H   0  0  0  0  0  0  0  0  0  0  0  0
   35.3014   36.2559   41.5598 H   0  0  0  0  0  0  0  0  0  0  0  0
   32.8689   35.9946   41.8538 H   0  0  0  0  0  0  0  0  0  0  0  0
   31.7530   33.8113   41.7894 H   0  0  0  0  0  0  0  0  0  0  0  0
   33.1688   31.7562   41.4044 H   0  0  0  0  0  0  0  0  0  0  0  0
  1  2  2  0
  2  7  1  0
  3  2  1  0
  4  3  2  0
  5  6  2  0
  5  4  1  0
  6  1  1  0
  7  8  1  0
  8 13  1  0
  8  9  2  0
  9 10  1  0
 10 11  2  0
 12 14  1  0
 12 11  1  0
 13 12  2  0
 15 16  1  0
 15  5  1  0
 16 17  1  0
 17 18  2  0
 18 19  1  0
 20 19  2  0
 21 20  1  0
 22 17  1  0
 22 21  2  0
  1 23  1  0
  3 24  1  0
  9 25  1  0
 10 26  1  0
 11 27  1  0
 14 28  1  0
 14 29  1  0
 14 30  1  0
 16 31  1  0
 16 32  1  0
 18 33  1  0
 19 34  1  0
 20 35  1  0
 21 36  1  0
M  ISO  8  23  14  24  14  25  14  26  14  27  14  28   8  29   8  30   8
M  ISO  6  31   8  32   8  33  14  34  14  35  14  36  14
M  END
>  <minimizedAffinity>  (1) 
-5.21103954

>  <minimizedRMSD>  (1) 
8.36472702

$$$$
