
     RDKit          3D

 37 39  0  0  0  0  0  0  0  0999 V2000
   37.9180   30.2270   49.4240 C   0  0  0  0  0  0  0  0  0  0  0  0
   37.8290   30.9590   48.2370 C   0  0  0  0  0  0  0  0  0  0  0  0
   36.6640   30.8370   47.4780 C   0  0  0  0  0  0  0  0  0  0  0  0
   35.7010   30.0150   47.9520 N   0  0  0  0  0  0  0  0  0  0  0  0
   35.8220   29.3460   49.0700 C   0  0  0  0  0  0  0  0  0  0  0  0
   36.9440   29.4250   49.8590 N   0  0  0  0  0  0  0  0  0  0  0  0
   38.9010   31.7370   47.9210 O   0  0  0  0  0  0  0  0  0  0  0  0
   39.3810   31.7060   46.6100 C   0  0  0  0  0  0  0  0  0  0  0  0
   39.6810   30.5870   45.8420 C   0  0  0  0  0  0  0  0  0  0  0  0
   40.1380   30.7600   44.5790 C   0  0  0  0  0  0  0  0  0  0  0  0
   40.2920   32.0270   44.0990 C   0  0  0  0  0  0  0  0  0  0  0  0
   39.9910   33.1340   44.8700 C   0  0  0  0  0  0  0  0  0  0  0  0
   39.5410   32.9120   46.1140 N   0  0  0  0  0  0  0  0  0  0  0  0
   40.1760   34.5210   44.2990 C   0  0  0  0  0  0  0  0  0  0  0  0
   34.3520   28.3480   49.4000 S   0  0  0  0  0  0  0  0  0  0  0  0
   33.3150   28.5270   47.9080 C   0  0  0  0  0  0  0  0  0  0  0  0
   33.6520   27.4220   47.0320 N   0  0  0  0  0  0  0  0  0  0  0  0
   33.7760   26.1240   47.4180 C   0  0  0  0  0  0  0  0  0  0  0  0
   34.1030   25.1680   46.4810 C   0  0  0  0  0  0  0  0  0  0  0  0
   34.3160   25.4480   45.1500 C   0  0  0  0  0  0  0  0  0  0  0  0
   34.6130   24.5890   44.2860 O   0  0  0  0  0  0  0  0  0  0  0  0
   34.1880   26.7360   44.7910 N   0  0  0  0  0  0  0  0  0  0  0  0
   33.8660   27.6790   45.7100 C   0  0  0  0  0  0  0  0  0  0  0  0
   33.7570   28.8820   45.3250 O   0  0  0  0  0  0  0  0  0  0  0  0
   38.8332   30.3159   50.0278 H   0  0  0  0  0  0  0  0  0  0  0  0
   36.5349   31.3865   46.5339 H   0  0  0  0  0  0  0  0  0  0  0  0
   39.5491   29.5757   46.2541 H   0  0  0  0  0  0  0  0  0  0  0  0
   40.3814   29.8913   43.9496 H   0  0  0  0  0  0  0  0  0  0  0  0
   40.6645   32.1715   43.0741 H   0  0  0  0  0  0  0  0  0  0  0  0
   40.2727   35.2459   45.1207 H   0  0  0  0  0  0  0  0  0  0  0  0
   41.0852   34.5446   43.6804 H   0  0  0  0  0  0  0  0  0  0  0  0
   39.3047   34.7821   43.6804 H   0  0  0  0  0  0  0  0  0  0  0  0
   32.2498   28.4846   48.1792 H   0  0  0  0  0  0  0  0  0  0  0  0
   33.4955   29.4931   47.4140 H   0  0  0  0  0  0  0  0  0  0  0  0
   33.6167   25.8398   48.4686 H   0  0  0  0  0  0  0  0  0  0  0  0
   34.1991   24.1242   46.8147 H   0  0  0  0  0  0  0  0  0  0  0  0
   34.3358   27.0095   43.8090 H   0  0  0  0  0  0  0  0  0  0  0  0
  1  6  2  0
  2  1  1  0
  3  4  1  0
  3  2  2  0
  4  5  2  0
  5 15  1  0
  5  6  1  0
  7  2  1  0
  8  7  1  0
  9  8  2  0
 10  9  1  0
 11 10  2  0
 11 12  1  0
 12 13  2  0
 13  8  1  0
 14 12  1  0
 16 15  1  0
 17 18  1  0
 17 16  1  0
 19 18  2  0
 20 19  1  0
 21 20  2  0
 22 20  1  0
 22 23  1  0
 23 17  1  0
 24 23  2  0
  1 25  1  0
  3 26  1  0
  9 27  1  0
 10 28  1  0
 11 29  1  0
 14 30  1  0
 14 31  1  0
 14 32  1  0
 16 33  1  0
 16 34  1  0
 18 35  1  0
 19 36  1  0
 22 37  1  0
M  ISO  8  25  14  26  14  27  14  28  14  29  14  30   8  31   8  32   8
M  ISO  5  33   8  34   8  35  14  36  14  37   9
M  END
>  <minimizedAffinity>  (1) 
-4.84680605

>  <minimizedRMSD>  (1) 
4.21126413

$$$$
