
     RDKit          3D

 22 23  0  0  0  0  0  0  0  0999 V2000
   36.8530   31.4620   49.7880 C   0  0  0  0  0  0  0  0  0  0  0  0
   37.4230   31.5970   48.4920 C   0  0  0  0  0  0  0  0  0  0  0  0
   36.9330   30.7690   47.5060 C   0  0  0  0  0  0  0  0  0  0  0  0
   35.9340   29.8910   47.8630 N   0  0  0  0  0  0  0  0  0  0  0  0
   35.4150   29.7860   49.0800 C   0  0  0  0  0  0  0  0  0  0  0  0
   35.8910   30.5850   50.0380 N   0  0  0  0  0  0  0  0  0  0  0  0
   34.3740   28.8510   49.2580 N   0  0  0  0  0  0  0  0  0  0  0  0
   38.4500   32.6330   48.3950 C   0  0  0  0  0  0  0  0  0  0  0  0
   38.6930   33.5450   49.3980 C   0  0  0  0  0  0  0  0  0  0  0  0
   39.6920   34.4350   49.1220 C   0  0  0  0  0  0  0  0  0  0  0  0
   40.0700   34.0270   47.8740 C   0  0  0  0  0  0  0  0  0  0  0  0
   39.3330   33.0380   47.5630 O   0  0  0  0  0  0  0  0  0  0  0  0
   37.4780   30.8390   46.1350 C   0  0  0  0  0  0  0  0  0  0  0  0
   38.7250   30.3800   46.1880 F   0  0  0  0  0  0  0  0  0  0  0  0
   36.7630   30.0870   45.2150 F   0  0  0  0  0  0  0  0  0  0  0  0
   37.4670   32.1660   45.6470 F   0  0  0  0  0  0  0  0  0  0  0  0
   37.2199   32.1019   50.6040 H   0  0  0  0  0  0  0  0  0  0  0  0
   33.9398   28.7339   50.1846 H   0  0  0  0  0  0  0  0  0  0  0  0
   34.0480   28.2854   48.4613 H   0  0  0  0  0  0  0  0  0  0  0  0
   38.1296   33.5559   50.3427 H   0  0  0  0  0  0  0  0  0  0  0  0
   40.0855   35.2573   49.7377 H   0  0  0  0  0  0  0  0  0  0  0  0
   40.8631   34.4707   47.2543 H   0  0  0  0  0  0  0  0  0  0  0  0
  1  6  2  0
  2  1  1  0
  3  4  1  0
  3  2  2  0
  4  5  2  0
  5  7  1  0
  5  6  1  0
  8  2  1  0
  8  9  2  0
 10  9  1  0
 11 10  2  0
 12 11  1  0
 12  8  1  0
 13 14  1  0
 13  3  1  0
 15 13  1  0
 16 13  1  0
  1 17  1  0
  7 18  1  0
  7 19  1  0
  9 20  1  0
 10 21  1  0
 11 22  1  0
M  ISO  4  17  14  20  14  21  14  22  14
M  END
>  <minimizedAffinity>  (1) 
-4.95562077

>  <minimizedRMSD>  (1) 
3.70121312

$$$$
