
     RDKit          3D

 37 39  0  0  0  0  0  0  0  0999 V2000
   39.5740   33.3980   47.0980 C   0  0  0  0  0  0  0  0  0  0  0  0
   39.5400   32.5160   46.0120 C   0  0  0  0  0  0  0  0  0  0  0  0
   39.0440   31.2480   46.2350 C   0  0  0  0  0  0  0  0  0  0  0  0
   38.6180   30.9220   47.4880 N   0  0  0  0  0  0  0  0  0  0  0  0
   38.6700   31.7840   48.4760 C   0  0  0  0  0  0  0  0  0  0  0  0
   39.1560   33.0770   48.3250 N   0  0  0  0  0  0  0  0  0  0  0  0
   39.9990   32.9810   44.8250 O   0  0  0  0  0  0  0  0  0  0  0  0
   40.0980   32.0860   43.7510 C   0  0  0  0  0  0  0  0  0  0  0  0
   40.7060   30.8440   43.7230 C   0  0  0  0  0  0  0  0  0  0  0  0
   40.6990   30.1240   42.5840 C   0  0  0  0  0  0  0  0  0  0  0  0
   40.0840   30.6450   41.4790 C   0  0  0  0  0  0  0  0  0  0  0  0
   39.4740   31.8950   41.5130 C   0  0  0  0  0  0  0  0  0  0  0  0
   39.4990   32.5950   42.6740 N   0  0  0  0  0  0  0  0  0  0  0  0
   38.8080   32.4360   40.2710 C   0  0  0  0  0  0  0  0  0  0  0  0
   38.0390   31.0690   50.0160 S   0  0  0  0  0  0  0  0  0  0  0  0
   36.2640   31.4940   50.0150 C   0  0  0  0  0  0  0  0  0  0  0  0
   35.5750   29.2710   51.4880 F   0  0  0  0  0  0  0  0  0  0  0  0
   35.2630   29.3080   50.1550 C   0  0  0  0  0  0  0  0  0  0  0  0
   35.5650   30.3720   49.3170 C   0  0  0  0  0  0  0  0  0  0  0  0
   35.2290   30.3450   47.9930 C   0  0  0  0  0  0  0  0  0  0  0  0
   34.5670   29.2410   47.4380 C   0  0  0  0  0  0  0  0  0  0  0  0
   34.2600   28.1740   48.2600 C   0  0  0  0  0  0  0  0  0  0  0  0
   34.6090   28.2180   49.6000 C   0  0  0  0  0  0  0  0  0  0  0  0
   39.9668   34.4119   46.9317 H   0  0  0  0  0  0  0  0  0  0  0  0
   38.9933   30.5141   45.4172 H   0  0  0  0  0  0  0  0  0  0  0  0
   41.1927   30.4461   44.6257 H   0  0  0  0  0  0  0  0  0  0  0  0
   41.1792   29.1352   42.5436 H   0  0  0  0  0  0  0  0  0  0  0  0
   40.0714   30.0642   40.5449 H   0  0  0  0  0  0  0  0  0  0  0  0
   37.9839   33.1054   40.5588 H   0  0  0  0  0  0  0  0  0  0  0  0
   39.5437   32.9955   39.6746 H   0  0  0  0  0  0  0  0  0  0  0  0
   38.4111   31.6013   39.6746 H   0  0  0  0  0  0  0  0  0  0  0  0
   35.8946   31.5899   51.0467 H   0  0  0  0  0  0  0  0  0  0  0  0
   36.0828   32.4542   49.5098 H   0  0  0  0  0  0  0  0  0  0  0  0
   35.4819   31.2029   47.3526 H   0  0  0  0  0  0  0  0  0  0  0  0
   34.2979   29.2247   46.3715 H   0  0  0  0  0  0  0  0  0  0  0  0
   33.7410   27.2938   47.8526 H   0  0  0  0  0  0  0  0  0  0  0  0
   34.3596   27.3617   50.2439 H   0  0  0  0  0  0  0  0  0  0  0  0
  1  6  2  0
  2  3  2  0
  2  1  1  0
  3  4  1  0
  4  5  2  0
  5 15  1  0
  6  5  1  0
  7  2  1  0
  8  7  1  0
  9  8  2  0
 10  9  1  0
 11 12  1  0
 11 10  2  0
 12 13  2  0
 13  8  1  0
 14 12  1  0
 16 15  1  0
 18 17  1  0
 19 16  1  0
 19 18  2  0
 20 19  1  0
 21 20  2  0
 21 22  1  0
 22 23  2  0
 23 18  1  0
  1 24  1  0
  3 25  1  0
  9 26  1  0
 10 27  1  0
 11 28  1  0
 14 29  1  0
 14 30  1  0
 14 31  1  0
 16 32  1  0
 16 33  1  0
 20 34  1  0
 21 35  1  0
 22 36  1  0
 23 37  1  0
M  ISO  8  24  14  25  14  26  14  27  14  28  14  29   8  30   8  31   8
M  ISO  6  32   8  33   8  34  14  35  14  36  14  37  14
M  END
>  <minimizedAffinity>  (1) 
-6.12077284

>  <minimizedRMSD>  (1) 
3.77316809

$$$$
