
     RDKit          3D

 17 17  0  0  0  0  0  0  0  0999 V2000
   36.5550   29.6230   51.2130 C   0  0  0  0  0  0  0  0  0  0  0  0
   37.2260   30.2130   50.1290 C   0  0  0  0  0  0  0  0  0  0  0  0
   36.5730   30.3630   48.9120 C   0  0  0  0  0  0  0  0  0  0  0  0
   35.2890   29.9160   48.8570 N   0  0  0  0  0  0  0  0  0  0  0  0
   34.6530   29.3560   49.8860 C   0  0  0  0  0  0  0  0  0  0  0  0
   35.2990   29.2180   51.0560 N   0  0  0  0  0  0  0  0  0  0  0  0
   33.3010   28.9460   49.6330 N   0  0  0  0  0  0  0  0  0  0  0  0
   37.2900   30.9870   47.7750 C   0  0  0  0  0  0  0  0  0  0  0  0
   38.4050   30.2450   47.5680 F   0  0  0  0  0  0  0  0  0  0  0  0
   36.5190   31.0480   46.6390 F   0  0  0  0  0  0  0  0  0  0  0  0
   37.6750   32.3040   48.0940 F   0  0  0  0  0  0  0  0  0  0  0  0
   38.5700   30.6310   50.3450 N   0  0  0  0  0  0  0  0  0  0  0  0
   37.0632   29.4977   52.1805 H   0  0  0  0  0  0  0  0  0  0  0  0
   32.7477   28.5056   50.3819 H   0  0  0  0  0  0  0  0  0  0  0  0
   32.8841   29.0922   48.7026 H   0  0  0  0  0  0  0  0  0  0  0  0
   39.1025   31.0688   49.5797 H   0  0  0  0  0  0  0  0  0  0  0  0
   39.0097   30.4955   51.2665 H   0  0  0  0  0  0  0  0  0  0  0  0
  2 12  1  0
  2  1  2  0
  3  2  1  0
  4  3  2  0
  4  5  1  0
  5  6  2  0
  6  1  1  0
  7  5  1  0
  8 11  1  0
  8  3  1  0
  9  8  1  0
 10  8  1  0
  1 13  1  0
  7 14  1  0
  7 15  1  0
 12 16  1  0
 12 17  1  0
M  ISO  1  13  14
M  END
>  <minimizedAffinity>  (1) 
-4.69357777

>  <minimizedRMSD>  (1) 
1.68536508

$$$$
