
     RDKit          3D

 26 28  0  0  0  0  0  0  0  0999 V2000
   38.0240   32.0190   49.1930 C   0  0  0  0  0  0  0  0  0  0  0  0
   38.5120   33.1610   49.7900 C   0  0  0  0  0  0  0  0  0  0  0  0
   39.3470   34.0680   49.1790 C   0  0  0  0  0  0  0  0  0  0  0  0
   39.7410   33.8500   47.8870 C   0  0  0  0  0  0  0  0  0  0  0  0
   39.2480   32.6960   47.2880 C   0  0  0  0  0  0  0  0  0  0  0  0
   38.4370   31.8460   47.9240 N   0  0  0  0  0  0  0  0  0  0  0  0
   37.4830   30.3890   51.0360 C   0  0  0  0  0  0  0  0  0  0  0  0
   37.1460   31.0780   49.8550 C   0  0  0  0  0  0  0  0  0  0  0  0
   35.9020   30.8430   49.2970 C   0  0  0  0  0  0  0  0  0  0  0  0
   35.0690   29.9570   49.9160 N   0  0  0  0  0  0  0  0  0  0  0  0
   35.4210   29.3160   51.0420 C   0  0  0  0  0  0  0  0  0  0  0  0
   36.6140   29.5240   51.6010 N   0  0  0  0  0  0  0  0  0  0  0  0
   39.6420   32.4210   45.9040 C   0  0  0  0  0  0  0  0  0  0  0  0
   40.4250   31.3920   45.4400 C   0  0  0  0  0  0  0  0  0  0  0  0
   40.5490   31.5060   44.0670 C   0  0  0  0  0  0  0  0  0  0  0  0
   39.8290   32.6130   43.7550 C   0  0  0  0  0  0  0  0  0  0  0  0
   39.2990   33.1450   44.8400 O   0  0  0  0  0  0  0  0  0  0  0  0
   38.2126   33.3619   50.8292 H   0  0  0  0  0  0  0  0  0  0  0  0
   39.6940   34.9587   49.7233 H   0  0  0  0  0  0  0  0  0  0  0  0
   40.4070   34.5451   47.3547 H   0  0  0  0  0  0  0  0  0  0  0  0
   38.4646   30.5574   51.5031 H   0  0  0  0  0  0  0  0  0  0  0  0
   35.5917   31.3583   48.3760 H   0  0  0  0  0  0  0  0  0  0  0  0
   34.7173   28.6111   51.5089 H   0  0  0  0  0  0  0  0  0  0  0  0
   40.8796   30.6051   46.0597 H   0  0  0  0  0  0  0  0  0  0  0  0
   41.1053   30.8482   43.3830 H   0  0  0  0  0  0  0  0  0  0  0  0
   39.7043   33.0120   42.7375 H   0  0  0  0  0  0  0  0  0  0  0  0
  1  2  2  0
  1  8  1  0
  3  2  1  0
  4  3  2  0
  5  4  1  0
  5  6  2  0
  6  1  1  0
  7 12  2  0
  8  7  1  0
  9  8  2  0
  9 10  1  0
 10 11  2  0
 11 12  1  0
 13  5  1  0
 14 13  2  0
 15 14  1  0
 16 15  2  0
 16 17  1  0
 17 13  1  0
  2 18  1  0
  3 19  1  0
  4 20  1  0
  7 21  1  0
  9 22  1  0
 11 23  1  0
 14 24  1  0
 15 25  1  0
 16 26  1  0
M  ISO  8  18  14  19  14  20  14  21  14  22  14  23  14  24  14  25  14
M  ISO  1  26  14
M  END
>  <minimizedAffinity>  (1) 
-6.11619043

>  <minimizedRMSD>  (1) 
0.270583987

$$$$
