
     RDKit          3D

 32 34  0  0  0  0  0  0  0  0999 V2000
   38.5450   31.5320   47.8920 C   0  0  0  0  0  0  0  0  0  0  0  0
   39.0760   32.7820   48.0410 C   0  0  0  0  0  0  0  0  0  0  0  0
   39.7170   33.4830   47.0390 C   0  0  0  0  0  0  0  0  0  0  0  0
   39.8410   32.8980   45.7850 C   0  0  0  0  0  0  0  0  0  0  0  0
   39.3060   31.6450   45.6450 C   0  0  0  0  0  0  0  0  0  0  0  0
   38.7050   31.0370   46.6630 N   0  0  0  0  0  0  0  0  0  0  0  0
   38.1670   30.9890   50.3230 C   0  0  0  0  0  0  0  0  0  0  0  0
   37.8790   30.8090   48.9520 C   0  0  0  0  0  0  0  0  0  0  0  0
   36.8890   29.8810   48.5960 C   0  0  0  0  0  0  0  0  0  0  0  0
   36.2590   29.2020   49.6040 N   0  0  0  0  0  0  0  0  0  0  0  0
   36.5750   29.4130   50.9090 C   0  0  0  0  0  0  0  0  0  0  0  0
   37.5170   30.2940   51.2720 N   0  0  0  0  0  0  0  0  0  0  0  0
   38.2980   30.7730   43.5810 C   0  0  0  0  0  0  0  0  0  0  0  0
   39.4280   31.0170   44.3370 C   0  0  0  0  0  0  0  0  0  0  0  0
   40.6350   30.6400   43.7910 C   0  0  0  0  0  0  0  0  0  0  0  0
   40.8060   30.0430   42.5600 C   0  0  0  0  0  0  0  0  0  0  0  0
   39.6830   29.7970   41.8000 C   0  0  0  0  0  0  0  0  0  0  0  0
   38.4730   30.1670   42.3300 C   0  0  0  0  0  0  0  0  0  0  0  0
   36.6780   31.1740   44.0900 S   0  0  0  0  0  0  0  0  0  0  0  0
   35.8620   31.5100   42.8550 O   0  0  0  0  0  0  0  0  0  0  0  0
   36.0620   29.9710   44.7830 O   0  0  0  0  0  0  0  0  0  0  0  0
   38.9867   33.2627   49.0264 H   0  0  0  0  0  0  0  0  0  0  0  0
   40.1226   34.4875   47.2303 H   0  0  0  0  0  0  0  0  0  0  0  0
   40.3410   33.4124   44.9511 H   0  0  0  0  0  0  0  0  0  0  0  0
   38.9396   31.7133   50.6202 H   0  0  0  0  0  0  0  0  0  0  0  0
   36.6277   29.7048   47.5421 H   0  0  0  0  0  0  0  0  0  0  0  0
   36.0436   28.8458   51.6874 H   0  0  0  0  0  0  0  0  0  0  0  0
   41.5391   30.8314   44.3876 H   0  0  0  0  0  0  0  0  0  0  0  0
   41.8078   29.7715   42.1958 H   0  0  0  0  0  0  0  0  0  0  0  0
   39.7539   29.3236   40.8096 H   0  0  0  0  0  0  0  0  0  0  0  0
   37.5730   29.9735   41.7279 H   0  0  0  0  0  0  0  0  0  0  0  0
   36.6975   32.2380   44.9528 H   0  0  0  0  0  0  0  0  0  0  0  0
  1  2  2  0
  1  8  1  0
  3  2  1  0
  4  3  2  0
  5  4  1  0
  5  6  2  0
  6  1  1  0
  7 12  2  0
  8  7  1  0
  9  8  2  0
  9 10  1  0
 10 11  2  0
 11 12  1  0
 13 19  1  0
 13 14  2  0
 14  5  1  0
 15 14  1  0
 16 15  2  0
 17 18  2  0
 17 16  1  0
 18 13  1  0
 19 21  2  0
 20 19  2  0
  2 22  1  0
  3 23  1  0
  4 24  1  0
  7 25  1  0
  9 26  1  0
 11 27  1  0
 15 28  1  0
 16 29  1  0
 17 30  1  0
 18 31  1  0
 19 32  1  0
M  ISO  8  22  14  23  14  24  14  25  14  26  14  27  14  28  14  29  14
M  ISO  3  30  14  31  14  32  11
M  END
>  <minimizedAffinity>  (1) 
-5.59278393

>  <minimizedRMSD>  (1) 
1.69940364

$$$$
