
     RDKit          3D

 29 31  0  0  0  0  0  0  0  0999 V2000
   38.2290   31.4590   48.4470 C   0  0  0  0  0  0  0  0  0  0  0  0
   38.7360   32.6830   48.7660 C   0  0  0  0  0  0  0  0  0  0  0  0
   39.4580   33.4490   47.8840 C   0  0  0  0  0  0  0  0  0  0  0  0
   39.7000   32.9900   46.6050 C   0  0  0  0  0  0  0  0  0  0  0  0
   39.1800   31.7590   46.3080 C   0  0  0  0  0  0  0  0  0  0  0  0
   38.4890   31.0500   47.1900 N   0  0  0  0  0  0  0  0  0  0  0  0
   36.8680   29.7800   51.5430 C   0  0  0  0  0  0  0  0  0  0  0  0
   37.6640   30.6160   50.7540 C   0  0  0  0  0  0  0  0  0  0  0  0
   37.4570   30.6250   49.3670 C   0  0  0  0  0  0  0  0  0  0  0  0
   36.5000   29.8240   48.8630 N   0  0  0  0  0  0  0  0  0  0  0  0
   35.7440   29.0230   49.6600 C   0  0  0  0  0  0  0  0  0  0  0  0
   35.9330   29.0080   50.9770 N   0  0  0  0  0  0  0  0  0  0  0  0
   40.0960   33.6690   44.1980 Cl  0  0  0  0  0  0  0  0  0  0  0  0
   39.8040   31.9490   43.9070 C   0  0  0  0  0  0  0  0  0  0  0  0
   39.3810   31.1840   44.9840 C   0  0  0  0  0  0  0  0  0  0  0  0
   39.1820   29.8620   44.6540 C   0  0  0  0  0  0  0  0  0  0  0  0
   39.3790   29.3510   43.3960 C   0  0  0  0  0  0  0  0  0  0  0  0
   39.8000   30.1810   42.3800 C   0  0  0  0  0  0  0  0  0  0  0  0
   40.0200   31.5070   42.6270 C   0  0  0  0  0  0  0  0  0  0  0  0
   38.5585   33.0761   49.7779 H   0  0  0  0  0  0  0  0  0  0  0  0
   39.8442   34.4302   48.1974 H   0  0  0  0  0  0  0  0  0  0  0  0
   40.2737   33.5756   45.8716 H   0  0  0  0  0  0  0  0  0  0  0  0
   37.0110   29.7568   52.6334 H   0  0  0  0  0  0  0  0  0  0  0  0
   38.4357   31.2527   51.2112 H   0  0  0  0  0  0  0  0  0  0  0  0
   34.9699   28.3822   49.2125 H   0  0  0  0  0  0  0  0  0  0  0  0
   38.8455   29.1757   45.4450 H   0  0  0  0  0  0  0  0  0  0  0  0
   39.2016   28.2833   43.1994 H   0  0  0  0  0  0  0  0  0  0  0  0
   39.9591   29.7762   41.3696 H   0  0  0  0  0  0  0  0  0  0  0  0
   40.3559   32.1904   41.8332 H   0  0  0  0  0  0  0  0  0  0  0  0
  1  2  2  0
  1  9  1  0
  3  2  1  0
  4  3  2  0
  5  4  1  0
  5  6  2  0
  6  1  1  0
  8  7  2  0
  9  8  1  0
 10  9  2  0
 10 11  1  0
 11 12  2  0
 12  7  1  0
 14 13  1  0
 14 15  2  0
 15  5  1  0
 16 15  1  0
 17 16  2  0
 18 19  2  0
 18 17  1  0
 19 14  1  0
  2 20  1  0
  3 21  1  0
  4 22  1  0
  7 23  1  0
  8 24  1  0
 11 25  1  0
 16 26  1  0
 17 27  1  0
 18 28  1  0
 19 29  1  0
M  ISO  8  20  14  21  14  22  14  23  14  24  14  25  14  26  14  27  14
M  ISO  2  28  14  29  14
M  END
>  <minimizedAffinity>  (1) 
-6.05693197

>  <minimizedRMSD>  (1) 
1.12369931

$$$$
