
     RDKit          3D

 27 29  0  0  0  0  0  0  0  0999 V2000
   38.2730   31.3760   48.3490 C   0  0  0  0  0  0  0  0  0  0  0  0
   38.7280   32.6620   48.4720 C   0  0  0  0  0  0  0  0  0  0  0  0
   39.4350   33.3250   47.5010 C   0  0  0  0  0  0  0  0  0  0  0  0
   39.7260   32.6920   46.3110 C   0  0  0  0  0  0  0  0  0  0  0  0
   39.2580   31.3960   46.2100 C   0  0  0  0  0  0  0  0  0  0  0  0
   38.5730   30.7780   47.1720 N   0  0  0  0  0  0  0  0  0  0  0  0
   37.1090   29.9290   51.6350 C   0  0  0  0  0  0  0  0  0  0  0  0
   37.9190   30.6250   50.7250 C   0  0  0  0  0  0  0  0  0  0  0  0
   37.5200   30.6830   49.3970 C   0  0  0  0  0  0  0  0  0  0  0  0
   36.3730   30.0730   49.0340 N   0  0  0  0  0  0  0  0  0  0  0  0
   35.6000   29.4020   49.9320 C   0  0  0  0  0  0  0  0  0  0  0  0
   35.9790   29.3390   51.2250 N   0  0  0  0  0  0  0  0  0  0  0  0
   39.5550   30.6970   44.9510 C   0  0  0  0  0  0  0  0  0  0  0  0
   40.5550   31.1880   44.1050 C   0  0  0  0  0  0  0  0  0  0  0  0
   40.7170   30.4310   42.9720 C   0  0  0  0  0  0  0  0  0  0  0  0
   40.0490   29.3380   42.6220 N   0  0  0  0  0  0  0  0  0  0  0  0
   39.0890   28.8990   43.4730 C   0  0  0  0  0  0  0  0  0  0  0  0
   38.8760   29.5940   44.6060 N   0  0  0  0  0  0  0  0  0  0  0  0
   38.5129   33.1972   49.4087 H   0  0  0  0  0  0  0  0  0  0  0  0
   39.7689   34.3591   47.6714 H   0  0  0  0  0  0  0  0  0  0  0  0
   40.2886   33.1821   45.5027 H   0  0  0  0  0  0  0  0  0  0  0  0
   37.4043   29.8676   52.6928 H   0  0  0  0  0  0  0  0  0  0  0  0
   38.8477   31.1128   51.0561 H   0  0  0  0  0  0  0  0  0  0  0  0
   34.6705   28.9134   49.6044 H   0  0  0  0  0  0  0  0  0  0  0  0
   41.1494   32.0870   44.3250 H   0  0  0  0  0  0  0  0  0  0  0  0
   41.4929   30.7701   42.2698 H   0  0  0  0  0  0  0  0  0  0  0  0
   38.4999   27.9988   43.2436 H   0  0  0  0  0  0  0  0  0  0  0  0
  1  2  2  0
  1  9  1  0
  3  2  1  0
  4  3  2  0
  5  4  1  0
  5  6  2  0
  6  1  1  0
  8  7  2  0
  9  8  1  0
 10  9  2  0
 10 11  1  0
 11 12  2  0
 12  7  1  0
 13  5  1  0
 14 13  2  0
 15 14  1  0
 16 15  2  0
 16 17  1  0
 17 18  2  0
 18 13  1  0
  2 19  1  0
  3 20  1  0
  4 21  1  0
  7 22  1  0
  8 23  1  0
 11 24  1  0
 14 25  1  0
 15 26  1  0
 17 27  1  0
M  ISO  8  19  14  20  14  21  14  22  14  23  14  24  14  25  14  26  14
M  ISO  1  27  14
M  END
>  <minimizedAffinity>  (1) 
-5.91174603

>  <minimizedRMSD>  (1) 
0.945665658

$$$$
