
     RDKit          3D

 31 33  0  0  0  0  0  0  0  0999 V2000
   38.4190   31.3920   48.1720 C   0  0  0  0  0  0  0  0  0  0  0  0
   38.8810   32.6690   48.2800 C   0  0  0  0  0  0  0  0  0  0  0  0
   39.5520   33.3690   47.3180 C   0  0  0  0  0  0  0  0  0  0  0  0
   39.7940   32.7490   46.1250 C   0  0  0  0  0  0  0  0  0  0  0  0
   39.3320   31.4490   45.9970 C   0  0  0  0  0  0  0  0  0  0  0  0
   38.6750   30.7980   46.9680 N   0  0  0  0  0  0  0  0  0  0  0  0
   39.5680   30.7730   44.7670 N   0  0  0  0  0  0  0  0  0  0  0  0
   40.6610   30.9340   43.8310 C   0  0  0  0  0  0  0  0  0  0  0  0
   39.8940   31.0340   42.5240 C   0  0  0  0  0  0  0  0  0  0  0  0
   38.9330   29.8700   42.6590 C   0  0  0  0  0  0  0  0  0  0  0  0
   38.7590   29.7450   44.1420 C   0  0  0  0  0  0  0  0  0  0  0  0
   37.2240   30.1090   51.4970 C   0  0  0  0  0  0  0  0  0  0  0  0
   37.9840   30.8650   50.5870 C   0  0  0  0  0  0  0  0  0  0  0  0
   37.7100   30.6780   49.2220 C   0  0  0  0  0  0  0  0  0  0  0  0
   36.7450   29.7970   48.8720 N   0  0  0  0  0  0  0  0  0  0  0  0
   36.0360   29.0880   49.7850 C   0  0  0  0  0  0  0  0  0  0  0  0
   36.2820   29.2510   51.0840 N   0  0  0  0  0  0  0  0  0  0  0  0
   38.6960   33.1859   49.2332 H   0  0  0  0  0  0  0  0  0  0  0  0
   39.8874   34.4009   47.4985 H   0  0  0  0  0  0  0  0  0  0  0  0
   40.3283   33.2558   45.3079 H   0  0  0  0  0  0  0  0  0  0  0  0
   41.2382   31.8481   44.0341 H   0  0  0  0  0  0  0  0  0  0  0  0
   41.4123   30.1311   43.8612 H   0  0  0  0  0  0  0  0  0  0  0  0
   40.5582   30.9102   41.6560 H   0  0  0  0  0  0  0  0  0  0  0  0
   39.4064   32.0061   42.3591 H   0  0  0  0  0  0  0  0  0  0  0  0
   37.9746   30.0897   42.1658 H   0  0  0  0  0  0  0  0  0  0  0  0
   39.3016   28.9473   42.1871 H   0  0  0  0  0  0  0  0  0  0  0  0
   37.7012   29.8864   44.4087 H   0  0  0  0  0  0  0  0  0  0  0  0
   39.0704   28.7472   44.4845 H   0  0  0  0  0  0  0  0  0  0  0  0
   37.4077   30.2252   52.5753 H   0  0  0  0  0  0  0  0  0  0  0  0
   38.7567   31.5697   50.9280 H   0  0  0  0  0  0  0  0  0  0  0  0
   35.2608   28.3811   49.4542 H   0  0  0  0  0  0  0  0  0  0  0  0
  1  2  2  0
  1 14  1  0
  3  2  1  0
  4  3  2  0
  5  4  1  0
  5  6  2  0
  6  1  1  0
  7  5  1  0
  8  7  1  0
  9 10  1  0
  9  8  1  0
 10 11  1  0
 11  7  1  0
 13 12  2  0
 14 13  1  0
 15 14  2  0
 15 16  1  0
 16 17  2  0
 17 12  1  0
  2 18  1  0
  3 19  1  0
  4 20  1  0
  8 21  1  0
  8 22  1  0
  9 23  1  0
  9 24  1  0
 10 25  1  0
 10 26  1  0
 11 27  1  0
 11 28  1  0
 12 29  1  0
 13 30  1  0
 16 31  1  0
M  ISO  8  18  14  19  14  20  14  21  13  22  13  23  13  24  13  25  13
M  ISO  6  26  13  27  13  28  13  29  14  30  14  31  14
M  END
>  <minimizedAffinity>  (1) 
-5.85340405

>  <minimizedRMSD>  (1) 
0.522290766

$$$$
