
     RDKit          3D

 26 27  0  0  0  0  0  0  0  0999 V2000
   38.4380   31.3260   48.0340 C   0  0  0  0  0  0  0  0  0  0  0  0
   38.9130   32.6020   48.0850 C   0  0  0  0  0  0  0  0  0  0  0  0
   39.5820   33.2660   47.0950 C   0  0  0  0  0  0  0  0  0  0  0  0
   39.8090   32.6030   45.9230 C   0  0  0  0  0  0  0  0  0  0  0  0
   39.3340   31.3110   45.8550 C   0  0  0  0  0  0  0  0  0  0  0  0
   38.6800   30.6930   46.8550 N   0  0  0  0  0  0  0  0  0  0  0  0
   37.2630   30.1760   51.4150 C   0  0  0  0  0  0  0  0  0  0  0  0
   38.0340   30.8880   50.4720 C   0  0  0  0  0  0  0  0  0  0  0  0
   37.7320   30.6670   49.1200 C   0  0  0  0  0  0  0  0  0  0  0  0
   36.7330   29.7970   48.7850 N   0  0  0  0  0  0  0  0  0  0  0  0
   36.0250   29.1400   49.7480 C   0  0  0  0  0  0  0  0  0  0  0  0
   36.2950   29.3340   51.0410 N   0  0  0  0  0  0  0  0  0  0  0  0
   39.5500   30.5460   44.6140 C   0  0  0  0  0  0  0  0  0  0  0  0
   40.5130   30.8590   43.7580 C   0  0  0  0  0  0  0  0  0  0  0  0
   40.7380   30.1070   42.5190 C   0  0  0  0  0  0  0  0  0  0  0  0
   38.7402   33.1553   49.0199 H   0  0  0  0  0  0  0  0  0  0  0  0
   39.9263   34.3009   47.2378 H   0  0  0  0  0  0  0  0  0  0  0  0
   40.3401   33.0728   45.0820 H   0  0  0  0  0  0  0  0  0  0  0  0
   37.4641   30.3178   52.4871 H   0  0  0  0  0  0  0  0  0  0  0  0
   38.8308   31.5806   50.7810 H   0  0  0  0  0  0  0  0  0  0  0  0
   35.2244   28.4441   49.4567 H   0  0  0  0  0  0  0  0  0  0  0  0
   38.8940   29.6915   44.3917 H   0  0  0  0  0  0  0  0  0  0  0  0
   41.1670   31.7138   43.9854 H   0  0  0  0  0  0  0  0  0  0  0  0
   41.0454   29.0797   42.7643 H   0  0  0  0  0  0  0  0  0  0  0  0
   39.8082   30.0812   41.9317 H   0  0  0  0  0  0  0  0  0  0  0  0
   41.5291   30.5961   41.9317 H   0  0  0  0  0  0  0  0  0  0  0  0
  1  2  2  0
  1  9  1  0
  3  2  1  0
  4  3  2  0
  5  4  1  0
  5  6  2  0
  6  1  1  0
  8  7  2  0
  9  8  1  0
 10  9  2  0
 10 11  1  0
 11 12  2  0
 12  7  1  0
 13  5  1  0
 14 13  2  0
 15 14  1  0
  2 16  1  0
  3 17  1  0
  4 18  1  0
  7 19  1  0
  8 20  1  0
 11 21  1  0
 13 22  1  0
 14 23  1  0
 15 24  1  0
 15 25  1  0
 15 26  1  0
M  ISO  8  16  14  17  14  18  14  19  14  20  14  21  14  24   8  25   8
M  ISO  1  26   8
M  END
>  <minimizedAffinity>  (1) 
-5.3197093

>  <minimizedRMSD>  (1) 
0.422092497

$$$$
