
     RDKit          3D

 21 22  0  0  0  0  0  0  0  0999 V2000
   38.4420   31.1120   47.8480 C   0  0  0  0  0  0  0  0  0  0  0  0
   38.9000   32.4170   47.8050 C   0  0  0  0  0  0  0  0  0  0  0  0
   39.5700   32.9530   46.7270 C   0  0  0  0  0  0  0  0  0  0  0  0
   39.8070   32.1600   45.6160 C   0  0  0  0  0  0  0  0  0  0  0  0
   39.3390   30.8690   45.6900 C   0  0  0  0  0  0  0  0  0  0  0  0
   38.6980   30.3840   46.7440 N   0  0  0  0  0  0  0  0  0  0  0  0
   39.5580   30.0100   44.5730 N   0  0  0  0  0  0  0  0  0  0  0  0
   37.2710   30.2780   51.3400 C   0  0  0  0  0  0  0  0  0  0  0  0
   38.0330   30.8670   50.3280 C   0  0  0  0  0  0  0  0  0  0  0  0
   37.7310   30.5700   49.0100 C   0  0  0  0  0  0  0  0  0  0  0  0
   36.7050   29.7160   48.7280 N   0  0  0  0  0  0  0  0  0  0  0  0
   35.9770   29.1560   49.7440 C   0  0  0  0  0  0  0  0  0  0  0  0
   36.2660   29.4400   51.0320 N   0  0  0  0  0  0  0  0  0  0  0  0
   38.7195   33.0610   48.6783 H   0  0  0  0  0  0  0  0  0  0  0  0
   39.9126   33.9981   46.7482 H   0  0  0  0  0  0  0  0  0  0  0  0
   40.3366   32.5395   44.7297 H   0  0  0  0  0  0  0  0  0  0  0  0
   39.2198   29.0374   44.5972 H   0  0  0  0  0  0  0  0  0  0  0  0
   40.0544   30.3621   43.7420 H   0  0  0  0  0  0  0  0  0  0  0  0
   37.4944   30.5010   52.3937 H   0  0  0  0  0  0  0  0  0  0  0  0
   38.8568   31.5533   50.5736 H   0  0  0  0  0  0  0  0  0  0  0  0
   35.1503   28.4695   49.5088 H   0  0  0  0  0  0  0  0  0  0  0  0
  1 10  1  0
  2  1  2  0
  3  2  1  0
  4  5  1  0
  4  3  2  0
  5  6  2  0
  6  1  1  0
  7  5  1  0
  9  8  2  0
 10  9  1  0
 11 10  2  0
 11 12  1  0
 12 13  2  0
 13  8  1  0
  2 14  1  0
  3 15  1  0
  4 16  1  0
  7 17  1  0
  7 18  1  0
  8 19  1  0
  9 20  1  0
 12 21  1  0
M  ISO  6  14  14  15  14  16  14  19  14  20  14  21  14
M  END
>  <minimizedAffinity>  (1) 
-5.01106548

>  <minimizedRMSD>  (1) 
0.179466814

$$$$
