
     RDKit          3D

 22 23  0  0  0  0  0  0  0  0999 V2000
   38.3920   31.1590   47.9290 C   0  0  0  0  0  0  0  0  0  0  0  0
   38.8990   32.4470   47.9420 C   0  0  0  0  0  0  0  0  0  0  0  0
   39.5340   33.0330   46.8810 C   0  0  0  0  0  0  0  0  0  0  0  0
   39.6940   32.3130   45.7070 C   0  0  0  0  0  0  0  0  0  0  0  0
   39.1760   31.0230   45.7210 C   0  0  0  0  0  0  0  0  0  0  0  0
   38.5660   30.4910   46.7710 N   0  0  0  0  0  0  0  0  0  0  0  0
   37.3060   30.2270   51.4230 C   0  0  0  0  0  0  0  0  0  0  0  0
   38.0430   30.8590   50.4160 C   0  0  0  0  0  0  0  0  0  0  0  0
   37.7190   30.5810   49.0940 C   0  0  0  0  0  0  0  0  0  0  0  0
   36.7060   29.7100   48.8140 N   0  0  0  0  0  0  0  0  0  0  0  0
   36.0190   29.1200   49.8430 C   0  0  0  0  0  0  0  0  0  0  0  0
   36.3170   29.3770   51.1150 N   0  0  0  0  0  0  0  0  0  0  0  0
   39.3310   30.2250   44.4750 C   0  0  0  0  0  0  0  0  0  0  0  0
   38.7842   33.0367   48.8635 H   0  0  0  0  0  0  0  0  0  0  0  0
   39.9129   34.0628   46.9586 H   0  0  0  0  0  0  0  0  0  0  0  0
   40.1969   32.7341   44.8240 H   0  0  0  0  0  0  0  0  0  0  0  0
   37.5407   30.4298   52.4784 H   0  0  0  0  0  0  0  0  0  0  0  0
   38.8565   31.5567   50.6640 H   0  0  0  0  0  0  0  0  0  0  0  0
   35.2034   28.4187   49.6128 H   0  0  0  0  0  0  0  0  0  0  0  0
   39.5348   29.1757   44.7346 H   0  0  0  0  0  0  0  0  0  0  0  0
   38.4047   30.2834   43.8846 H   0  0  0  0  0  0  0  0  0  0  0  0
   40.1681   30.6259   43.8846 H   0  0  0  0  0  0  0  0  0  0  0  0
  1  2  2  0
  1  9  1  0
  3  2  1  0
  4  5  1  0
  4  3  2  0
  5  6  2  0
  6  1  1  0
  8  7  2  0
  9  8  1  0
 10  9  2  0
 10 11  1  0
 11 12  2  0
 12  7  1  0
 13  5  1  0
  2 14  1  0
  3 15  1  0
  4 16  1  0
  7 17  1  0
  8 18  1  0
 11 19  1  0
 13 20  1  0
 13 21  1  0
 13 22  1  0
M  ISO  8  14  14  15  14  16  14  17  14  18  14  19  14  20   8  21   8
M  ISO  1  22   8
M  END
>  <minimizedAffinity>  (1) 
-4.92864466

>  <minimizedRMSD>  (1) 
0.131762251

$$$$
