
     RDKit          3D

 33 36  0  0  0  0  0  0  0  0999 V2000
   38.5410   31.2950   47.6980 C   0  0  0  0  0  0  0  0  0  0  0  0
   38.9940   32.5850   47.6760 C   0  0  0  0  0  0  0  0  0  0  0  0
   39.6530   33.1370   46.6000 C   0  0  0  0  0  0  0  0  0  0  0  0
   39.8850   32.3860   45.4820 C   0  0  0  0  0  0  0  0  0  0  0  0
   39.4220   31.0970   45.5320 C   0  0  0  0  0  0  0  0  0  0  0  0
   38.7840   30.5690   46.5770 N   0  0  0  0  0  0  0  0  0  0  0  0
   38.8400   29.1470   44.0450 C   0  0  0  0  0  0  0  0  0  0  0  0
   39.6280   30.2260   44.3800 C   0  0  0  0  0  0  0  0  0  0  0  0
   40.6740   30.4170   43.4890 C   0  0  0  0  0  0  0  0  0  0  0  0
   40.9460   29.6500   42.3800 C   0  0  0  0  0  0  0  0  0  0  0  0
   41.8910   29.6870   41.4300 N   0  0  0  0  0  0  0  0  0  0  0  0
   41.6610   28.6680   40.5760 C   0  0  0  0  0  0  0  0  0  0  0  0
   40.5490   27.9550   40.9750 C   0  0  0  0  0  0  0  0  0  0  0  0
   40.1100   28.5910   42.1170 C   0  0  0  0  0  0  0  0  0  0  0  0
   39.0520   28.3350   42.9520 C   0  0  0  0  0  0  0  0  0  0  0  0
   37.4060   30.3660   51.1740 C   0  0  0  0  0  0  0  0  0  0  0  0
   38.1520   31.0040   50.1690 C   0  0  0  0  0  0  0  0  0  0  0  0
   37.8440   30.7030   48.8340 C   0  0  0  0  0  0  0  0  0  0  0  0
   36.8550   29.8220   48.5980 N   0  0  0  0  0  0  0  0  0  0  0  0
   36.1470   29.2180   49.5880 C   0  0  0  0  0  0  0  0  0  0  0  0
   36.4290   29.4960   50.8570 N   0  0  0  0  0  0  0  0  0  0  0  0
   38.8235   33.2136   48.5625 H   0  0  0  0  0  0  0  0  0  0  0  0
   39.9927   34.1825   46.6405 H   0  0  0  0  0  0  0  0  0  0  0  0
   40.4078   32.7887   44.6019 H   0  0  0  0  0  0  0  0  0  0  0  0
   37.9825   28.9177   44.6947 H   0  0  0  0  0  0  0  0  0  0  0  0
   41.3498   31.2617   43.6882 H   0  0  0  0  0  0  0  0  0  0  0  0
   42.6572   30.3721   41.3637 H   0  0  0  0  0  0  0  0  0  0  0  0
   42.2715   28.4389   39.6901 H   0  0  0  0  0  0  0  0  0  0  0  0
   40.1089   27.0721   40.4884 H   0  0  0  0  0  0  0  0  0  0  0  0
   38.3787   27.4888   42.7507 H   0  0  0  0  0  0  0  0  0  0  0  0
   37.6226   30.5796   52.2311 H   0  0  0  0  0  0  0  0  0  0  0  0
   38.9515   31.7163   50.4207 H   0  0  0  0  0  0  0  0  0  0  0  0
   35.3468   28.5046   49.3414 H   0  0  0  0  0  0  0  0  0  0  0  0
  1 18  1  0
  2  1  2  0
  3  2  1  0
  4  5  1  0
  4  3  2  0
  5  6  2  0
  6  1  1  0
  7  8  2  0
  8  5  1  0
  9  8  1  0
 10  9  2  0
 11 10  1  0
 12 13  2  0
 12 11  1  0
 13 14  1  0
 14 10  1  0
 14 15  2  0
 15  7  1  0
 17 16  2  0
 18 17  1  0
 19 18  2  0
 19 20  1  0
 20 21  2  0
 21 16  1  0
  2 22  1  0
  3 23  1  0
  4 24  1  0
  7 25  1  0
  9 26  1  0
 11 27  1  0
 12 28  1  0
 13 29  1  0
 15 30  1  0
 16 31  1  0
 17 32  1  0
 20 33  1  0
M  ISO  8  22  14  23  14  24  14  25  14  26  14  27   9  28  14  29  14
M  ISO  4  30  14  31  14  32  14  33  14
M  END
>  <minimizedAffinity>  (1) 
-6.56729317

>  <minimizedRMSD>  (1) 
0.599999428

$$$$
