
     RDKit          3D

 49 53  0  0  0  0  0  0  0  0999 V2000
   38.7720   31.6780   47.3630 C   0  0  0  0  0  0  0  0  0  0  0  0
   39.3820   32.8980   47.2770 C   0  0  0  0  0  0  0  0  0  0  0  0
   40.1320   33.2980   46.1990 C   0  0  0  0  0  0  0  0  0  0  0  0
   40.3000   32.4530   45.1330 C   0  0  0  0  0  0  0  0  0  0  0  0
   39.6770   31.2270   45.2380 C   0  0  0  0  0  0  0  0  0  0  0  0
   38.9570   30.8570   46.2860 N   0  0  0  0  0  0  0  0  0  0  0  0
   38.9810   29.2090   43.9280 C   0  0  0  0  0  0  0  0  0  0  0  0
   39.8210   30.2920   44.1410 C   0  0  0  0  0  0  0  0  0  0  0  0
   40.8130   30.3890   43.1900 C   0  0  0  0  0  0  0  0  0  0  0  0
   40.9990   29.5320   42.1280 C   0  0  0  0  0  0  0  0  0  0  0  0
   41.8980   29.4820   41.1270 N   0  0  0  0  0  0  0  0  0  0  0  0
   41.6040   28.4150   40.3560 C   0  0  0  0  0  0  0  0  0  0  0  0
   40.4910   27.7590   40.8660 C   0  0  0  0  0  0  0  0  0  0  0  0
   40.1290   28.4860   41.9840 C   0  0  0  0  0  0  0  0  0  0  0  0
   39.1190   28.3210   42.8840 C   0  0  0  0  0  0  0  0  0  0  0  0
   37.6540   30.5840   50.7890 C   0  0  0  0  0  0  0  0  0  0  0  0
   38.5290   31.0070   49.7730 C   0  0  0  0  0  0  0  0  0  0  0  0
   37.9700   31.2350   48.5030 C   0  0  0  0  0  0  0  0  0  0  0  0
   36.6450   31.0420   48.3230 N   0  0  0  0  0  0  0  0  0  0  0  0
   35.8300   30.6310   49.3300 C   0  0  0  0  0  0  0  0  0  0  0  0
   36.3510   30.4110   50.5440 N   0  0  0  0  0  0  0  0  0  0  0  0
   34.3850   30.4390   49.0560 C   0  0  0  0  0  0  0  0  0  0  0  0
   34.1080   30.2380   47.5810 C   0  0  0  0  0  0  0  0  0  0  0  0
   34.5280   28.8940   47.0750 C   0  0  0  0  0  0  0  0  0  0  0  0
   34.2830   27.7880   48.0530 C   0  0  0  0  0  0  0  0  0  0  0  0
   33.3300   28.1490   49.1500 C   0  0  0  0  0  0  0  0  0  0  0  0
   33.7720   29.3710   49.9240 C   0  0  0  0  0  0  0  0  0  0  0  0
   39.2656   33.5978   48.1177 H   0  0  0  0  0  0  0  0  0  0  0  0
   40.5972   34.2947   46.1908 H   0  0  0  0  0  0  0  0  0  0  0  0
   40.8934   32.7345   44.2506 H   0  0  0  0  0  0  0  0  0  0  0  0
   38.1543   29.0495   44.6359 H   0  0  0  0  0  0  0  0  0  0  0  0
   41.5200   31.2260   43.2876 H   0  0  0  0  0  0  0  0  0  0  0  0
   42.6739   30.1425   40.9764 H   0  0  0  0  0  0  0  0  0  0  0  0
   42.1618   28.1102   39.4583 H   0  0  0  0  0  0  0  0  0  0  0  0
   40.0038   26.8572   40.4669 H   0  0  0  0  0  0  0  0  0  0  0  0
   38.4163   27.4815   42.7771 H   0  0  0  0  0  0  0  0  0  0  0  0
   38.0465   30.3929   51.7987 H   0  0  0  0  0  0  0  0  0  0  0  0
   39.6026   31.1530   49.9630 H   0  0  0  0  0  0  0  0  0  0  0  0
   33.8798   31.3750   49.3363 H   0  0  0  0  0  0  0  0  0  0  0  0
   33.0274   30.3526   47.4104 H   0  0  0  0  0  0  0  0  0  0  0  0
   34.6973   30.9892   47.0347 H   0  0  0  0  0  0  0  0  0  0  0  0
   33.9661   28.6766   46.1547 H   0  0  0  0  0  0  0  0  0  0  0  0
   35.6129   28.9376   46.8989 H   0  0  0  0  0  0  0  0  0  0  0  0
   33.8716   26.9268   47.5062 H   0  0  0  0  0  0  0  0  0  0  0  0
   35.2485   27.5632   48.5296 H   0  0  0  0  0  0  0  0  0  0  0  0
   32.3430   28.3498   48.7077 H   0  0  0  0  0  0  0  0  0  0  0  0
   33.2945   27.3036   49.8529 H   0  0  0  0  0  0  0  0  0  0  0  0
   34.5161   29.0598   50.6720 H   0  0  0  0  0  0  0  0  0  0  0  0
   32.8735   29.8048   50.3872 H   0  0  0  0  0  0  0  0  0  0  0  0
  1 18  1  0
  2  1  2  0
  3  2  1  0
  4  5  1  0
  4  3  2  0
  5  6  2  0
  6  1  1  0
  7  8  2  0
  8  5  1  0
  9  8  1  0
 10  9  2  0
 11 10  1  0
 12 13  2  0
 12 11  1  0
 13 14  1  0
 14 10  1  0
 14 15  2  0
 15  7  1  0
 17 16  2  0
 18 17  1  0
 19 18  2  0
 19 20  1  0
 20 21  2  0
 21 16  1  0
 22 20  1  0
 22 27  1  0
 23 22  1  0
 24 23  1  0
 24 25  1  0
 25 26  1  0
 26 27  1  0
  2 28  1  0
  3 29  1  0
  4 30  1  0
  7 31  1  0
  9 32  1  0
 11 33  1  0
 12 34  1  0
 13 35  1  0
 15 36  1  0
 16 37  1  0
 17 38  1  0
 22 39  1  0
 23 40  1  0
 23 41  1  0
 24 42  1  0
 24 43  1  0
 25 44  1  0
 25 45  1  0
 26 46  1  0
 26 47  1  0
 27 48  1  0
 27 49  1  0
M  ISO  8  28  14  29  14  30  14  31  14  32  14  33   9  34  14  35  14
M  ISO  8  36  14  37  14  38  14  39  13  40  13  41  13  42  13  43  13
M  ISO  6  44  13  45  13  46  13  47  13  48  13  49  13
M  END
>  <minimizedAffinity>  (1) 
-7.69996786

>  <minimizedRMSD>  (1) 
1.22041929

$$$$
