
     RDKit          3D

 34 37  0  0  0  0  0  0  0  0999 V2000
   38.5460   31.3100   47.7070 C   0  0  0  0  0  0  0  0  0  0  0  0
   38.9930   32.5910   47.6770 C   0  0  0  0  0  0  0  0  0  0  0  0
   39.6530   33.1420   46.5990 C   0  0  0  0  0  0  0  0  0  0  0  0
   39.8840   32.3830   45.4860 C   0  0  0  0  0  0  0  0  0  0  0  0
   39.4220   31.0940   45.5440 C   0  0  0  0  0  0  0  0  0  0  0  0
   38.7880   30.5700   46.5840 N   0  0  0  0  0  0  0  0  0  0  0  0
   38.8400   29.1460   44.0550 C   0  0  0  0  0  0  0  0  0  0  0  0
   39.6370   30.2320   44.3890 C   0  0  0  0  0  0  0  0  0  0  0  0
   40.6800   30.4230   43.5000 C   0  0  0  0  0  0  0  0  0  0  0  0
   40.9360   29.6390   42.3860 C   0  0  0  0  0  0  0  0  0  0  0  0
   41.8840   29.6790   41.4330 N   0  0  0  0  0  0  0  0  0  0  0  0
   41.6590   28.6700   40.5810 C   0  0  0  0  0  0  0  0  0  0  0  0
   40.5390   27.9550   40.9870 C   0  0  0  0  0  0  0  0  0  0  0  0
   40.1040   28.5900   42.1300 C   0  0  0  0  0  0  0  0  0  0  0  0
   39.0500   28.3350   42.9600 C   0  0  0  0  0  0  0  0  0  0  0  0
   37.4160   30.3610   51.1730 C   0  0  0  0  0  0  0  0  0  0  0  0
   38.1570   30.9960   50.1670 C   0  0  0  0  0  0  0  0  0  0  0  0
   37.8470   30.7120   48.8380 C   0  0  0  0  0  0  0  0  0  0  0  0
   36.8560   29.8450   48.6200 N   0  0  0  0  0  0  0  0  0  0  0  0
   36.1400   29.2310   49.5970 C   0  0  0  0  0  0  0  0  0  0  0  0
   36.4360   29.5030   50.8710 N   0  0  0  0  0  0  0  0  0  0  0  0
   35.1450   28.3600   49.1160 O   0  0  0  0  0  0  0  0  0  0  0  0
   38.8195   33.2237   48.5600 H   0  0  0  0  0  0  0  0  0  0  0  0
   39.9921   34.1878   46.6346 H   0  0  0  0  0  0  0  0  0  0  0  0
   40.4058   32.7802   44.6028 H   0  0  0  0  0  0  0  0  0  0  0  0
   37.9842   28.9172   44.7070 H   0  0  0  0  0  0  0  0  0  0  0  0
   41.3610   31.2650   43.6929 H   0  0  0  0  0  0  0  0  0  0  0  0
   42.6493   30.3654   41.3693 H   0  0  0  0  0  0  0  0  0  0  0  0
   42.2687   28.4421   39.6942 H   0  0  0  0  0  0  0  0  0  0  0  0
   40.0957   27.0732   40.5013 H   0  0  0  0  0  0  0  0  0  0  0  0
   38.3750   27.4906   42.7569 H   0  0  0  0  0  0  0  0  0  0  0  0
   37.6444   30.5719   52.2282 H   0  0  0  0  0  0  0  0  0  0  0  0
   38.9629   31.7007   50.4198 H   0  0  0  0  0  0  0  0  0  0  0  0
   34.5701   27.8656   49.7525 H   0  0  0  0  0  0  0  0  0  0  0  0
  1 18  1  0
  2  1  2  0
  3  2  1  0
  4  5  1  0
  4  3  2  0
  5  6  2  0
  6  1  1  0
  7  8  2  0
  8  5  1  0
  9  8  1  0
 10  9  2  0
 11 10  1  0
 12 13  2  0
 12 11  1  0
 13 14  1  0
 14 10  1  0
 14 15  2  0
 15  7  1  0
 17 16  2  0
 18 17  1  0
 19 18  2  0
 19 20  1  0
 20 21  2  0
 21 16  1  0
 22 20  1  0
  2 23  1  0
  3 24  1  0
  4 25  1  0
  7 26  1  0
  9 27  1  0
 11 28  1  0
 12 29  1  0
 13 30  1  0
 15 31  1  0
 16 32  1  0
 17 33  1  0
 22 34  1  0
M  ISO  8  23  14  24  14  25  14  26  14  27  14  28   9  29  14  30  14
M  ISO  4  31  14  32  14  33  14  34   3
M  END
>  <minimizedAffinity>  (1) 
-6.87017107

>  <minimizedRMSD>  (1) 
0.0301937982

$$$$
