
     RDKit          3D

 20 21  0  0  1  0  0  0  0  0999 V2000
   36.1480   31.2510   49.3200 C   0  0  1  0  0  0  0  0  0  0  0  0
   35.6470   29.8990   49.5590 C   0  0  0  0  0  0  0  0  0  0  0  0
   36.3670   30.6090   50.6610 C   0  0  1  0  0  0  0  0  0  0  0  0
   37.6750   30.5320   47.4800 C   0  0  0  0  0  0  0  0  0  0  0  0
   37.3070   31.4950   48.4400 C   0  0  0  0  0  0  0  0  0  0  0  0
   38.0890   32.6420   48.4970 C   0  0  0  0  0  0  0  0  0  0  0  0
   39.1380   32.7710   47.6460 N   0  0  0  0  0  0  0  0  0  0  0  0
   39.4620   31.8240   46.7330 C   0  0  0  0  0  0  0  0  0  0  0  0
   38.7210   30.6890   46.6480 N   0  0  0  0  0  0  0  0  0  0  0  0
   37.7160   30.1400   51.0790 C   0  0  0  0  0  0  0  0  0  0  0  0
   37.9980   29.0090   50.3120 F   0  0  0  0  0  0  0  0  0  0  0  0
   37.7760   29.8130   52.4230 F   0  0  0  0  0  0  0  0  0  0  0  0
   38.6330   31.1340   50.7920 F   0  0  0  0  0  0  0  0  0  0  0  0
   35.6864   32.1821   48.9595 H   0  0  0  0  0  0  0  0  0  0  0  0
   34.5640   29.7229   49.6376 H   0  0  0  0  0  0  0  0  0  0  0  0
   35.7724   28.9295   49.0547 H   0  0  0  0  0  0  0  0  0  0  0  0
   36.1512   30.8892   51.7026 H   0  0  0  0  0  0  0  0  0  0  0  0
   37.0802   29.6096   47.4071 H   0  0  0  0  0  0  0  0  0  0  0  0
   37.8605   33.4360   49.2232 H   0  0  0  0  0  0  0  0  0  0  0  0
   40.3217   31.9737   46.0633 H   0  0  0  0  0  0  0  0  0  0  0  0
  1  2  1  0
  1  3  1  0
  2  3  1  0
  3 10  1  0
  4  5  2  0
  5  6  1  0
  5  1  1  0
  7  6  2  0
  8  7  1  0
  9  8  2  0
  9  4  1  0
 10 12  1  0
 11 10  1  0
 13 10  1  0
  1 14  1  1
  2 15  1  0
  2 16  1  0
  3 17  1  1
  4 18  1  0
  6 19  1  0
  8 20  1  0
M  ISO  7  14  13  15  13  16  13  17  13  18  14  19  14  20  14
M  END
>  <minimizedAffinity>  (1) 
-5.04233408

>  <minimizedRMSD>  (1) 
1.33869767

$$$$
