
     RDKit          3D

 19 20  0  0  1  0  0  0  0  0999 V2000
   36.0310   30.3920   50.0050 C   0  0  1  0  0  0  0  0  0  0  0  0
   36.1550   28.9340   49.9280 C   0  0  0  0  0  0  0  0  0  0  0  0
   36.4300   29.6090   51.2350 C   0  0  1  0  0  0  0  0  0  0  0  0
   37.8320   30.7570   48.2980 C   0  0  0  0  0  0  0  0  0  0  0  0
   37.0390   31.2520   49.3520 C   0  0  0  0  0  0  0  0  0  0  0  0
   37.2410   32.5670   49.7560 C   0  0  0  0  0  0  0  0  0  0  0  0
   38.1980   33.3300   49.1170 N   0  0  0  0  0  0  0  0  0  0  0  0
   38.9440   32.8100   48.0990 C   0  0  0  0  0  0  0  0  0  0  0  0
   38.7490   31.5240   47.7040 N   0  0  0  0  0  0  0  0  0  0  0  0
   37.7540   29.7400   51.7650 N   0  0  0  0  0  0  0  0  0  0  0  0
   35.2353   31.1104   49.7587 H   0  0  0  0  0  0  0  0  0  0  0  0
   35.2534   28.3145   49.8123 H   0  0  0  0  0  0  0  0  0  0  0  0
   36.7193   28.2424   49.2852 H   0  0  0  0  0  0  0  0  0  0  0  0
   36.0579   29.4854   52.2628 H   0  0  0  0  0  0  0  0  0  0  0  0
   37.6931   29.7200   47.9585 H   0  0  0  0  0  0  0  0  0  0  0  0
   36.6450   32.9947   50.5756 H   0  0  0  0  0  0  0  0  0  0  0  0
   39.7020   33.4308   47.5989 H   0  0  0  0  0  0  0  0  0  0  0  0
   37.7138   29.7360   52.7942 H   0  0  0  0  0  0  0  0  0  0  0  0
   38.3330   28.9522   51.4410 H   0  0  0  0  0  0  0  0  0  0  0  0
  1  3  1  0
  2  1  1  0
  2  3  1  0
  3 10  1  0
  4  5  2  0
  5  6  1  0
  5  1  1  0
  7  6  2  0
  8  7  1  0
  9  8  2  0
  9  4  1  0
  1 11  1  1
  2 12  1  0
  2 13  1  0
  3 14  1  1
  4 15  1  0
  6 16  1  0
  8 17  1  0
 10 18  1  0
 10 19  1  0
M  ISO  8  11  13  12  13  13  13  14  13  15  14  16  14  17  14  18   5
M  ISO  1  19   5
M  END
>  <minimizedAffinity>  (1) 
-4.44135046

>  <minimizedRMSD>  (1) 
0.981585741

$$$$
