
     RDKit          3D

 34 36  0  0  0  0  0  0  0  0999 V2000
   33.9710   28.8590   47.5800 C   0  0  0  0  0  0  0  0  0  0  0  0
   33.9860   28.1880   48.8010 C   0  0  0  0  0  0  0  0  0  0  0  0
   34.9370   28.2640   49.7570 C   0  0  0  0  0  0  0  0  0  0  0  0
   36.0130   29.0680   49.5510 C   0  0  0  0  0  0  0  0  0  0  0  0
   36.0290   29.7270   48.3800 C   0  0  0  0  0  0  0  0  0  0  0  0
   35.0580   29.5850   47.5210 N   0  0  0  0  0  0  0  0  0  0  0  0
   31.6780   28.3130   47.3960 C   0  0  0  0  0  0  0  0  0  0  0  0
   32.8490   28.7020   46.6710 C   0  0  0  0  0  0  0  0  0  0  0  0
   32.7110   28.8660   45.3160 C   0  0  0  0  0  0  0  0  0  0  0  0
   31.4720   28.6440   44.7760 N   0  0  0  0  0  0  0  0  0  0  0  0
   30.3930   28.2830   45.4630 C   0  0  0  0  0  0  0  0  0  0  0  0
   30.5160   28.1210   46.7810 N   0  0  0  0  0  0  0  0  0  0  0  0
   29.2030   28.1030   44.7350 N   0  0  0  0  0  0  0  0  0  0  0  0
   33.8700   29.2670   44.5200 C   0  0  0  0  0  0  0  0  0  0  0  0
   34.8480   28.4150   44.7370 F   0  0  0  0  0  0  0  0  0  0  0  0
   33.6120   29.3750   43.1670 F   0  0  0  0  0  0  0  0  0  0  0  0
   34.3350   30.5600   44.9040 F   0  0  0  0  0  0  0  0  0  0  0  0
   36.8440   32.1870   50.1350 Cl  0  0  0  0  0  0  0  0  0  0  0  0
   37.4970   31.7930   48.5720 C   0  0  0  0  0  0  0  0  0  0  0  0
   37.0610   30.6840   47.9050 C   0  0  0  0  0  0  0  0  0  0  0  0
   37.7100   30.5060   46.7140 C   0  0  0  0  0  0  0  0  0  0  0  0
   38.6910   31.3240   46.2090 C   0  0  0  0  0  0  0  0  0  0  0  0
   39.0850   32.4260   46.9280 C   0  0  0  0  0  0  0  0  0  0  0  0
   40.3340   33.4480   46.2590 Cl  0  0  0  0  0  0  0  0  0  0  0  0
   38.4620   32.6510   48.1350 C   0  0  0  0  0  0  0  0  0  0  0  0
   33.1324   27.5259   49.0084 H   0  0  0  0  0  0  0  0  0  0  0  0
   34.8421   27.6845   50.6872 H   0  0  0  0  0  0  0  0  0  0  0  0
   36.8177   29.1725   50.2937 H   0  0  0  0  0  0  0  0  0  0  0  0
   31.7413   28.1700   48.4848 H   0  0  0  0  0  0  0  0  0  0  0  0
   28.3391   27.8233   45.2212 H   0  0  0  0  0  0  0  0  0  0  0  0
   29.1955   28.2508   43.7157 H   0  0  0  0  0  0  0  0  0  0  0  0
   37.4217   29.6335   46.1093 H   0  0  0  0  0  0  0  0  0  0  0  0
   39.1566   31.0988   45.2382 H   0  0  0  0  0  0  0  0  0  0  0  0
   38.7425   33.5218   48.7458 H   0  0  0  0  0  0  0  0  0  0  0  0
  1  2  2  0
  2  3  1  0
  4  3  2  0
  5  4  1  0
  6  1  1  0
  6  5  2  0
  8  7  2  0
  8  1  1  0
  9  8  1  0
 10  9  2  0
 10 11  1  0
 11 12  2  0
 12  7  1  0
 13 11  1  0
 14 15  1  0
 14 17  1  0
 14  9  1  0
 16 14  1  0
 19 18  1  0
 20  5  1  0
 20 19  2  0
 21 20  1  0
 22 21  2  0
 22 23  1  0
 23 25  2  0
 24 23  1  0
 25 19  1  0
  2 26  1  0
  3 27  1  0
  4 28  1  0
  7 29  1  0
 13 30  1  0
 13 31  1  0
 21 32  1  0
 22 33  1  0
 25 34  1  0
M  ISO  7  26  14  27  14  28  14  29  14  32  14  33  14  34  14
M  END
>  <minimizedAffinity>  (1) 
-6.11658144

>  <minimizedRMSD>  (1) 
4.37609625

$$$$
