
     RDKit          3D

 30 32  0  0  1  0  0  0  0  0999 V2000
   36.6450   31.2040   46.3440 C   0  0  1  0  0  0  0  0  0  0  0  0
   35.4750   30.3110   46.4600 C   0  0  0  0  0  0  0  0  0  0  0  0
   36.7040   29.8310   47.0600 C   0  0  2  0  0  0  0  0  0  0  0  0
   34.7140   28.1340   48.7790 Cl  0  0  0  0  0  0  0  0  0  0  0  0
   36.0070   29.1110   49.4420 C   0  0  0  0  0  0  0  0  0  0  0  0
   36.7990   29.7410   48.5070 C   0  0  0  0  0  0  0  0  0  0  0  0
   37.8470   30.4580   48.9850 C   0  0  0  0  0  0  0  0  0  0  0  0
   38.1210   30.5570   50.3630 C   0  0  0  0  0  0  0  0  0  0  0  0
   37.2940   29.9000   51.2830 C   0  0  0  0  0  0  0  0  0  0  0  0
   37.5740   29.8880   53.0010 Cl  0  0  0  0  0  0  0  0  0  0  0  0
   36.2210   29.1700   50.7850 C   0  0  0  0  0  0  0  0  0  0  0  0
   37.0850   30.3380   43.9770 C   0  0  0  0  0  0  0  0  0  0  0  0
   37.3290   31.3040   45.0210 C   0  0  0  0  0  0  0  0  0  0  0  0
   38.2430   32.3140   44.7630 C   0  0  0  0  0  0  0  0  0  0  0  0
   38.8610   32.3410   43.5390 N   0  0  0  0  0  0  0  0  0  0  0  0
   38.6090   31.4190   42.5810 C   0  0  0  0  0  0  0  0  0  0  0  0
   37.7260   30.4280   42.8050 N   0  0  0  0  0  0  0  0  0  0  0  0
   39.3950   31.6520   41.3400 C   0  0  0  0  0  0  0  0  0  0  0  0
   38.9040   30.9030   40.2850 F   0  0  0  0  0  0  0  0  0  0  0  0
   40.7290   31.2590   41.4850 F   0  0  0  0  0  0  0  0  0  0  0  0
   39.2870   32.9870   41.0000 F   0  0  0  0  0  0  0  0  0  0  0  0
   36.8629   32.2518   46.5984 H   0  0  0  0  0  0  0  0  0  0  0  0
   34.6366   30.6031   47.1095 H   0  0  0  0  0  0  0  0  0  0  0  0
   34.7777   29.8829   45.7249 H   0  0  0  0  0  0  0  0  0  0  0  0
   37.3387   28.9374   46.9672 H   0  0  0  0  0  0  0  0  0  0  0  0
   38.5041   30.9790   48.2731 H   0  0  0  0  0  0  0  0  0  0  0  0
   38.9800   31.1472   50.7149 H   0  0  0  0  0  0  0  0  0  0  0  0
   35.5465   28.6413   51.4745 H   0  0  0  0  0  0  0  0  0  0  0  0
   36.3671   29.5217   44.1454 H   0  0  0  0  0  0  0  0  0  0  0  0
   38.4675   33.0767   45.5231 H   0  0  0  0  0  0  0  0  0  0  0  0
  1  2  1  0
  1  3  1  0
  2  3  1  0
  3  6  1  0
  4  5  1  0
  5 11  2  0
  6  7  2  0
  6  5  1  0
  7  8  1  0
  8  9  2  0
  9 10  1  0
 11  9  1  0
 12 13  2  0
 13  1  1  0
 14 13  1  0
 15 14  2  0
 16 17  2  0
 16 15  1  0
 17 12  1  0
 18 20  1  0
 18 16  1  0
 19 18  1  0
 21 18  1  0
  1 22  1  1
  2 23  1  0
  2 24  1  0
  3 25  1  6
  7 26  1  0
  8 27  1  0
 11 28  1  0
 12 29  1  0
 14 30  1  0
M  ISO  8  22  13  23  13  24  13  25  13  26  14  27  14  28  14  29  14
M  ISO  1  30  14
M  END
>  <minimizedAffinity>  (1) 
-4.41641378

>  <minimizedRMSD>  (1) 
1.60741937

$$$$
