
     RDKit          3D

 28 30  0  0  1  0  0  0  0  0999 V2000
   37.4790   31.4320   46.0450 C   0  0  1  0  0  0  0  0  0  0  0  0
   36.1140   30.8770   46.0230 C   0  0  0  0  0  0  0  0  0  0  0  0
   37.1090   30.0700   46.7020 C   0  0  2  0  0  0  0  0  0  0  0  0
   34.8220   28.5000   48.1340 Cl  0  0  0  0  0  0  0  0  0  0  0  0
   36.0900   29.3610   48.9760 C   0  0  0  0  0  0  0  0  0  0  0  0
   37.0410   29.9330   48.1470 C   0  0  0  0  0  0  0  0  0  0  0  0
   38.0820   30.5530   48.7670 C   0  0  0  0  0  0  0  0  0  0  0  0
   38.1910   30.6130   50.1750 C   0  0  0  0  0  0  0  0  0  0  0  0
   37.2050   30.0200   50.9710 C   0  0  0  0  0  0  0  0  0  0  0  0
   37.2420   29.9920   52.7260 Cl  0  0  0  0  0  0  0  0  0  0  0  0
   36.1420   29.3880   50.3330 C   0  0  0  0  0  0  0  0  0  0  0  0
   37.6620   31.2290   43.5020 C   0  0  0  0  0  0  0  0  0  0  0  0
   38.2940   31.3680   44.7910 C   0  0  0  0  0  0  0  0  0  0  0  0
   39.6750   31.4100   44.8350 C   0  0  0  0  0  0  0  0  0  0  0  0
   40.3820   31.3180   43.6510 N   0  0  0  0  0  0  0  0  0  0  0  0
   39.7510   31.1880   42.4550 C   0  0  0  0  0  0  0  0  0  0  0  0
   38.4070   31.1460   42.3920 N   0  0  0  0  0  0  0  0  0  0  0  0
   40.6270   31.1110   41.3780 O   0  0  0  0  0  0  0  0  0  0  0  0
   37.9339   32.3823   46.3612 H   0  0  0  0  0  0  0  0  0  0  0  0
   35.3251   31.3665   46.6129 H   0  0  0  0  0  0  0  0  0  0  0  0
   35.4016   30.6661   45.2118 H   0  0  0  0  0  0  0  0  0  0  0  0
   37.4901   29.0412   46.6219 H   0  0  0  0  0  0  0  0  0  0  0  0
   38.8640   31.0227   48.1523 H   0  0  0  0  0  0  0  0  0  0  0  0
   39.0463   31.1231   50.6423 H   0  0  0  0  0  0  0  0  0  0  0  0
   35.3467   28.9120   50.9255 H   0  0  0  0  0  0  0  0  0  0  0  0
   36.5650   31.1910   43.4303 H   0  0  0  0  0  0  0  0  0  0  0  0
   40.2017   31.5148   45.7950 H   0  0  0  0  0  0  0  0  0  0  0  0
   40.2735   31.0147   40.4583 H   0  0  0  0  0  0  0  0  0  0  0  0
  1  3  1  0
  2  1  1  0
  2  3  1  0
  3  6  1  0
  4  5  1  0
  5 11  2  0
  6  7  2  0
  6  5  1  0
  7  8  1  0
  8  9  2  0
  9 10  1  0
 11  9  1  0
 12 13  2  0
 13 14  1  0
 13  1  1  0
 15 14  2  0
 16 15  1  0
 17 16  2  0
 17 12  1  0
 18 16  1  0
  1 19  1  1
  2 20  1  0
  2 21  1  0
  3 22  1  6
  7 23  1  0
  8 24  1  0
 11 25  1  0
 12 26  1  0
 14 27  1  0
 18 28  1  0
M  ISO  8  19  13  20  13  21  13  22  13  23  14  24  14  25  14  26  14
M  ISO  2  27  14  28   3
M  END
>  <minimizedAffinity>  (1) 
-4.40901804

>  <minimizedRMSD>  (1) 
1.17446506

$$$$
