
     RDKit          3D

 42 46  0  0  1  0  0  0  0  0999 V2000
   36.5730   28.0670   42.0990 C   0  0  0  0  0  0  0  0  0  0  0  0
   36.5080   28.9210   43.2770 C   0  0  0  0  0  0  0  0  0  0  0  0
   37.6540   29.5000   43.7340 C   0  0  0  0  0  0  0  0  0  0  0  0
   38.8180   29.2290   43.0400 N   0  0  0  0  0  0  0  0  0  0  0  0
   38.8560   28.4350   41.9570 C   0  0  0  0  0  0  0  0  0  0  0  0
   37.7390   27.8640   41.4950 N   0  0  0  0  0  0  0  0  0  0  0  0
   40.0740   28.1520   41.2960 N   0  0  0  0  0  0  0  0  0  0  0  0
   37.7330   30.3560   44.8650 N   0  0  0  0  0  0  0  0  0  0  0  0
   36.7860   30.4770   45.8430 C   0  0  0  0  0  0  0  0  0  0  0  0
   37.2400   31.3980   46.7410 N   0  0  0  0  0  0  0  0  0  0  0  0
   38.4460   31.8660   46.3620 C   0  0  0  0  0  0  0  0  0  0  0  0
   39.3650   32.7720   46.8400 C   0  0  0  0  0  0  0  0  0  0  0  0
   40.5150   33.0260   46.2120 N   0  0  0  0  0  0  0  0  0  0  0  0
   40.8050   32.3840   45.0680 C   0  0  0  0  0  0  0  0  0  0  0  0
   39.9360   31.4840   44.5540 N   0  0  0  0  0  0  0  0  0  0  0  0
   38.7600   31.2040   45.1700 C   0  0  0  0  0  0  0  0  0  0  0  0
   35.2070   29.2360   43.9650 C   0  0  1  0  0  0  0  0  0  0  0  0
   33.9830   29.2490   43.2230 C   0  0  0  0  0  0  0  0  0  0  0  0
   34.2250   28.0200   44.0810 C   0  0  2  0  0  0  0  0  0  0  0  0
   31.1970   27.4040   43.8470 Cl  0  0  0  0  0  0  0  0  0  0  0  0
   32.0150   27.6620   45.3680 C   0  0  0  0  0  0  0  0  0  0  0  0
   33.3500   27.9730   45.2550 C   0  0  0  0  0  0  0  0  0  0  0  0
   34.0190   28.2010   46.4510 C   0  0  0  0  0  0  0  0  0  0  0  0
   33.3720   28.1220   47.6850 C   0  0  0  0  0  0  0  0  0  0  0  0
   32.0020   27.8030   47.7340 C   0  0  0  0  0  0  0  0  0  0  0  0
   31.0710   27.7240   49.2140 Cl  0  0  0  0  0  0  0  0  0  0  0  0
   31.3270   27.5700   46.5340 C   0  0  0  0  0  0  0  0  0  0  0  0
   39.0480   33.4440   48.0500 N   0  0  0  0  0  0  0  0  0  0  0  0
   35.6601   27.5918   41.7107 H   0  0  0  0  0  0  0  0  0  0  0  0
   40.0802   27.5405   40.4672 H   0  0  0  0  0  0  0  0  0  0  0  0
   40.9548   28.5574   41.6435 H   0  0  0  0  0  0  0  0  0  0  0  0
   35.8323   29.9315   45.8963 H   0  0  0  0  0  0  0  0  0  0  0  0
   41.7519   32.5909   44.5479 H   0  0  0  0  0  0  0  0  0  0  0  0
   35.6704   29.9689   44.6419 H   0  0  0  0  0  0  0  0  0  0  0  0
   33.1891   29.9556   43.5066 H   0  0  0  0  0  0  0  0  0  0  0  0
   33.7503   29.3890   42.1570 H   0  0  0  0  0  0  0  0  0  0  0  0
   34.3163   26.9297   43.9671 H   0  0  0  0  0  0  0  0  0  0  0  0
   35.0899   28.4511   46.4246 H   0  0  0  0  0  0  0  0  0  0  0  0
   33.9299   28.3081   48.6146 H   0  0  0  0  0  0  0  0  0  0  0  0
   30.2566   27.3164   46.5339 H   0  0  0  0  0  0  0  0  0  0  0  0
   39.7060   34.1307   48.4453 H   0  0  0  0  0  0  0  0  0  0  0  0
   38.1600   33.2447   48.5324 H   0  0  0  0  0  0  0  0  0  0  0  0
  1  2  2  0
  2  3  1  0
  2 17  1  0
  3  8  1  0
  4  3  2  0
  5  4  1  0
  6  5  2  0
  6  1  1  0
  7  5  1  0
  8 16  1  0
  8  9  1  0
  9 10  2  0
 11 10  1  0
 11 12  2  0
 12 28  1  0
 13 12  1  0
 14 13  2  0
 15 14  1  0
 15 16  2  0
 16 11  1  0
 17 19  1  0
 18 17  1  0
 18 19  1  0
 19 22  1  0
 20 21  1  0
 21 27  2  0
 22 21  1  0
 22 23  2  0
 23 24  1  0
 24 25  2  0
 25 26  1  0
 27 25  1  0
  1 29  1  0
  7 30  1  0
  7 31  1  0
  9 32  1  0
 14 33  1  0
 17 34  1  1
 18 35  1  0
 18 36  1  0
 19 37  1  6
 23 38  1  0
 24 39  1  0
 27 40  1  0
 28 41  1  0
 28 42  1  0
M  ISO  8  29  14  32  14  33  14  34  13  35  13  36  13  37  13  38  14
M  ISO  2  39  14  40  14
M  END
>  <minimizedAffinity>  (1) 
-5.14513493

>  <minimizedRMSD>  (1) 
4.52902031

$$$$
