
     RDKit          3D

 31 33  0  0  1  0  0  0  0  0999 V2000
   37.8200   31.4500   45.9390 C   0  0  1  0  0  0  0  0  0  0  0  0
   36.3950   31.3050   45.9670 C   0  0  0  0  0  0  0  0  0  0  0  0
   37.1990   30.1590   46.5520 C   0  0  2  0  0  0  0  0  0  0  0  0
   37.9540   31.3430   43.3560 C   0  0  0  0  0  0  0  0  0  0  0  0
   38.5940   31.2200   44.6590 C   0  0  0  0  0  0  0  0  0  0  0  0
   39.9310   30.9740   44.7280 C   0  0  0  0  0  0  0  0  0  0  0  0
   40.6050   30.8530   43.5410 N   0  0  0  0  0  0  0  0  0  0  0  0
   39.9980   30.9710   42.3480 C   0  0  0  0  0  0  0  0  0  0  0  0
   38.6880   31.2140   42.2560 N   0  0  0  0  0  0  0  0  0  0  0  0
   40.7400   30.8470   41.1310 N   0  0  0  0  0  0  0  0  0  0  0  0
   40.5940   30.8480   45.9790 N   0  0  0  0  0  0  0  0  0  0  0  0
   34.8440   28.7120   47.9540 Cl  0  0  0  0  0  0  0  0  0  0  0  0
   36.1680   29.4500   48.8140 C   0  0  0  0  0  0  0  0  0  0  0  0
   37.0930   30.0820   48.0120 C   0  0  0  0  0  0  0  0  0  0  0  0
   38.1500   30.6940   48.6710 C   0  0  0  0  0  0  0  0  0  0  0  0
   38.2680   30.6730   50.0630 C   0  0  0  0  0  0  0  0  0  0  0  0
   37.2850   30.0130   50.8330 C   0  0  0  0  0  0  0  0  0  0  0  0
   37.2880   29.9680   52.5780 Cl  0  0  0  0  0  0  0  0  0  0  0  0
   36.2210   29.3940   50.1700 C   0  0  0  0  0  0  0  0  0  0  0  0
   38.4838   32.2643   46.2649 H   0  0  0  0  0  0  0  0  0  0  0  0
   35.8008   31.9441   46.6366 H   0  0  0  0  0  0  0  0  0  0  0  0
   35.6145   31.3629   45.1941 H   0  0  0  0  0  0  0  0  0  0  0  0
   37.3426   29.0792   46.3990 H   0  0  0  0  0  0  0  0  0  0  0  0
   36.8743   31.5406   43.2836 H   0  0  0  0  0  0  0  0  0  0  0  0
   40.2609   30.9399   40.2240 H   0  0  0  0  0  0  0  0  0  0  0  0
   41.7533   30.6649   41.1619 H   0  0  0  0  0  0  0  0  0  0  0  0
   41.6066   30.6618   46.0088 H   0  0  0  0  0  0  0  0  0  0  0  0
   40.0618   30.9429   46.8558 H   0  0  0  0  0  0  0  0  0  0  0  0
   38.9189   31.2118   48.0789 H   0  0  0  0  0  0  0  0  0  0  0  0
   39.1192   31.1663   50.5550 H   0  0  0  0  0  0  0  0  0  0  0  0
   35.4386   28.8695   50.7381 H   0  0  0  0  0  0  0  0  0  0  0  0
  1  2  1  0
  1  3  1  0
  2  3  1  0
  3 14  1  0
  4  5  2  0
  5  6  1  0
  5  1  1  0
  6 11  1  0
  7  6  2  0
  8  7  1  0
  9  8  2  0
  9  4  1  0
 10  8  1  0
 12 13  1  0
 13 19  2  0
 14 15  2  0
 14 13  1  0
 15 16  1  0
 16 17  2  0
 17 18  1  0
 19 17  1  0
  1 20  1  1
  2 21  1  0
  2 22  1  0
  3 23  1  6
  4 24  1  0
 10 25  1  0
 10 26  1  0
 11 27  1  0
 11 28  1  0
 15 29  1  0
 16 30  1  0
 19 31  1  0
M  ISO  8  20  13  21  13  22  13  23  13  24  14  29  14  30  14  31  14
M  END
>  <minimizedAffinity>  (1) 
-5.00972033

>  <minimizedRMSD>  (1) 
0.093181327

$$$$
