
     RDKit          3D

 32 34  0  0  1  0  0  0  0  0999 V2000
   37.6700   31.4610   45.5820 C   0  0  1  0  0  0  0  0  0  0  0  0
   36.2650   31.1790   45.6000 C   0  0  0  0  0  0  0  0  0  0  0  0
   37.1630   30.1360   46.2400 C   0  0  2  0  0  0  0  0  0  0  0  0
   34.7080   28.9070   47.6700 Cl  0  0  0  0  0  0  0  0  0  0  0  0
   36.0740   29.5740   48.5140 C   0  0  0  0  0  0  0  0  0  0  0  0
   37.0440   30.1210   47.7020 C   0  0  0  0  0  0  0  0  0  0  0  0
   38.1400   30.6700   48.3520 C   0  0  0  0  0  0  0  0  0  0  0  0
   38.2510   30.6700   49.7430 C   0  0  0  0  0  0  0  0  0  0  0  0
   37.2250   30.0970   50.5240 C   0  0  0  0  0  0  0  0  0  0  0  0
   37.2430   30.0460   52.2750 Cl  0  0  0  0  0  0  0  0  0  0  0  0
   36.1220   29.5440   49.8670 C   0  0  0  0  0  0  0  0  0  0  0  0
   37.8220   31.1840   43.0180 C   0  0  0  0  0  0  0  0  0  0  0  0
   38.4740   31.2570   44.3200 C   0  0  0  0  0  0  0  0  0  0  0  0
   39.8300   31.2250   44.3900 C   0  0  0  0  0  0  0  0  0  0  0  0
   40.5110   31.1220   43.2060 N   0  0  0  0  0  0  0  0  0  0  0  0
   39.8960   31.0550   42.0140 C   0  0  0  0  0  0  0  0  0  0  0  0
   38.5630   31.0860   41.9230 N   0  0  0  0  0  0  0  0  0  0  0  0
   40.6530   30.9590   40.8030 N   0  0  0  0  0  0  0  0  0  0  0  0
   40.5920   31.2930   45.6370 C   0  0  0  0  0  0  0  0  0  0  0  0
   38.2495   32.3459   45.8839 H   0  0  0  0  0  0  0  0  0  0  0  0
   35.6023   31.7833   46.2369 H   0  0  0  0  0  0  0  0  0  0  0  0
   35.4953   31.1322   44.8156 H   0  0  0  0  0  0  0  0  0  0  0  0
   37.4070   29.0689   46.1320 H   0  0  0  0  0  0  0  0  0  0  0  0
   38.9458   31.1188   47.7527 H   0  0  0  0  0  0  0  0  0  0  0  0
   39.1330   31.1140   50.2277 H   0  0  0  0  0  0  0  0  0  0  0  0
   35.3022   29.0895   50.4426 H   0  0  0  0  0  0  0  0  0  0  0  0
   36.7247   31.2100   42.9448 H   0  0  0  0  0  0  0  0  0  0  0  0
   40.1685   30.9083   39.8955 H   0  0  0  0  0  0  0  0  0  0  0  0
   41.6822   30.9406   40.8391 H   0  0  0  0  0  0  0  0  0  0  0  0
   39.9025   31.2315   46.4919 H   0  0  0  0  0  0  0  0  0  0  0  0
   41.3031   30.4547   45.6784 H   0  0  0  0  0  0  0  0  0  0  0  0
   41.1434   32.2439   45.6784 H   0  0  0  0  0  0  0  0  0  0  0  0
  1  2  1  0
  1  3  1  0
  2  3  1  0
  3  6  1  0
  4  5  1  0
  5 11  2  0
  6  7  2  0
  6  5  1  0
  7  8  1  0
  8  9  2  0
  9 10  1  0
 11  9  1  0
 12 13  2  0
 13 14  1  0
 13  1  1  0
 14 19  1  0
 15 14  2  0
 16 15  1  0
 17 16  2  0
 17 12  1  0
 18 16  1  0
  1 20  1  1
  2 21  1  0
  2 22  1  0
  3 23  1  6
  7 24  1  0
  8 25  1  0
 11 26  1  0
 12 27  1  0
 18 28  1  0
 18 29  1  0
 19 30  1  0
 19 31  1  0
 19 32  1  0
M  ISO  8  20  13  21  13  22  13  23  13  24  14  25  14  26  14  27  14
M  ISO  3  30   8  31   8  32   8
M  END
>  <minimizedAffinity>  (1) 
-4.81398964

>  <minimizedRMSD>  (1) 
0.369506121

$$$$
