
     RDKit          3D

 36 39  0  0  1  0  0  0  0  0999 V2000
   35.4520   30.8330   44.7230 C   0  0  1  0  0  0  0  0  0  0  0  0
   34.1040   30.3870   44.9680 C   0  0  0  0  0  0  0  0  0  0  0  0
   35.2140   29.4790   45.4680 C   0  0  2  0  0  0  0  0  0  0  0  0
   33.3780   27.7550   47.2670 Cl  0  0  0  0  0  0  0  0  0  0  0  0
   34.6650   28.7550   47.8860 C   0  0  0  0  0  0  0  0  0  0  0  0
   35.3190   29.4840   46.9270 C   0  0  0  0  0  0  0  0  0  0  0  0
   36.3220   30.3030   47.3990 C   0  0  0  0  0  0  0  0  0  0  0  0
   36.6550   30.3890   48.7530 C   0  0  0  0  0  0  0  0  0  0  0  0
   35.9410   29.6120   49.6900 C   0  0  0  0  0  0  0  0  0  0  0  0
   36.2390   29.6420   51.4150 Cl  0  0  0  0  0  0  0  0  0  0  0  0
   34.9230   28.7790   49.2170 C   0  0  0  0  0  0  0  0  0  0  0  0
   35.2550   30.4350   42.1720 C   0  0  0  0  0  0  0  0  0  0  0  0
   36.0320   30.7230   43.3560 C   0  0  0  0  0  0  0  0  0  0  0  0
   37.3530   30.9410   43.2200 C   0  0  0  0  0  0  0  0  0  0  0  0
   37.8840   30.8640   41.9270 N   0  0  0  0  0  0  0  0  0  0  0  0
   37.1380   30.5930   40.8470 C   0  0  0  0  0  0  0  0  0  0  0  0
   35.8300   30.3820   40.9800 N   0  0  0  0  0  0  0  0  0  0  0  0
   37.7180   30.5370   39.5530 N   0  0  0  0  0  0  0  0  0  0  0  0
   38.3930   31.4210   44.0420 C   0  0  0  0  0  0  0  0  0  0  0  0
   38.4580   32.3460   45.0910 C   0  0  0  0  0  0  0  0  0  0  0  0
   39.5440   32.7910   45.7230 C   0  0  0  0  0  0  0  0  0  0  0  0
   40.8060   32.2300   45.2400 C   0  0  0  0  0  0  0  0  0  0  0  0
   40.1930   31.0780   43.8670 S   0  0  0  0  0  0  0  0  0  0  0  0
   35.9792   31.7764   44.9281 H   0  0  0  0  0  0  0  0  0  0  0  0
   33.4807   30.9278   45.6954 H   0  0  0  0  0  0  0  0  0  0  0  0
   33.2318   30.2258   44.3174 H   0  0  0  0  0  0  0  0  0  0  0  0
   35.5705   28.4471   45.3332 H   0  0  0  0  0  0  0  0  0  0  0  0
   36.8844   30.9152   46.6787 H   0  0  0  0  0  0  0  0  0  0  0  0
   37.4649   31.0551   49.0852 H   0  0  0  0  0  0  0  0  0  0  0  0
   34.3420   28.1546   49.9116 H   0  0  0  0  0  0  0  0  0  0  0  0
   34.1731   30.2577   42.2618 H   0  0  0  0  0  0  0  0  0  0  0  0
   38.7284   30.6980   39.4341 H   0  0  0  0  0  0  0  0  0  0  0  0
   37.1286   30.3353   38.7327 H   0  0  0  0  0  0  0  0  0  0  0  0
   37.4966   32.7550   45.4353 H   0  0  0  0  0  0  0  0  0  0  0  0
   39.4952   33.5224   46.5431 H   0  0  0  0  0  0  0  0  0  0  0  0
   41.8333   32.4246   45.5818 H   0  0  0  0  0  0  0  0  0  0  0  0
  1  2  1  0
  1  3  1  0
  2  3  1  0
  3  6  1  0
  4  5  1  0
  5 11  2  0
  6  7  2  0
  6  5  1  0
  7  8  1  0
  8  9  2  0
  9 10  1  0
 11  9  1  0
 12 13  2  0
 13  1  1  0
 14 13  1  0
 14 19  1  0
 15 14  2  0
 16 17  2  0
 16 15  1  0
 17 12  1  0
 18 16  1  0
 19 20  2  0
 20 21  1  0
 22 21  2  0
 23 19  1  0
 23 22  1  0
  1 24  1  1
  2 25  1  0
  2 26  1  0
  3 27  1  6
  7 28  1  0
  8 29  1  0
 11 30  1  0
 12 31  1  0
 18 32  1  0
 18 33  1  0
 20 34  1  0
 21 35  1  0
 22 36  1  0
M  ISO  8  24  13  25  13  26  13  27  13  28  14  29  14  30  14  31  14
M  ISO  3  34  14  35  14  36  14
M  END
>  <minimizedAffinity>  (1) 
-4.67305136

>  <minimizedRMSD>  (1) 
2.77821279

$$$$
