
     RDKit          3D

 27 29  0  0  0  0  0  0  0  0999 V2000
   36.0070   30.0190   48.7510 C   0  0  0  0  0  0  0  0  0  0  0  0
   35.9350   29.0010   49.6120 C   0  0  0  0  0  0  0  0  0  0  0  0
   34.8700   28.1490   49.6020 C   0  0  0  0  0  0  0  0  0  0  0  0
   33.9040   28.4060   48.6680 C   0  0  0  0  0  0  0  0  0  0  0  0
   34.5490   29.8780   47.8180 S   0  0  0  0  0  0  0  0  0  0  0  0
   37.9910   33.0120   49.3650 C   0  0  0  0  0  0  0  0  0  0  0  0
   38.9260   32.9870   48.3110 C   0  0  0  0  0  0  0  0  0  0  0  0
   38.8640   31.9270   47.3860 C   0  0  0  0  0  0  0  0  0  0  0  0
   37.8990   30.9750   47.5570 N   0  0  0  0  0  0  0  0  0  0  0  0
   37.0330   31.0460   48.5780 C   0  0  0  0  0  0  0  0  0  0  0  0
   37.0640   32.0340   49.4700 N   0  0  0  0  0  0  0  0  0  0  0  0
   33.9090   26.6800   46.1510 Cl  0  0  0  0  0  0  0  0  0  0  0  0
   32.5650   26.9880   47.2130 C   0  0  0  0  0  0  0  0  0  0  0  0
   32.6430   27.7710   48.3200 C   0  0  0  0  0  0  0  0  0  0  0  0
   31.6240   28.0570   49.2020 C   0  0  0  0  0  0  0  0  0  0  0  0
   30.3760   27.4860   48.9410 C   0  0  0  0  0  0  0  0  0  0  0  0
   30.2340   26.6780   47.8280 C   0  0  0  0  0  0  0  0  0  0  0  0
   31.3040   26.4320   46.9800 C   0  0  0  0  0  0  0  0  0  0  0  0
   36.7458   28.8474   50.3394 H   0  0  0  0  0  0  0  0  0  0  0  0
   34.7924   27.3052   50.3034 H   0  0  0  0  0  0  0  0  0  0  0  0
   38.0156   33.8277   50.1025 H   0  0  0  0  0  0  0  0  0  0  0  0
   39.6859   33.7763   48.2132 H   0  0  0  0  0  0  0  0  0  0  0  0
   39.5738   31.8670   46.5478 H   0  0  0  0  0  0  0  0  0  0  0  0
   31.7861   28.7071   50.0744 H   0  0  0  0  0  0  0  0  0  0  0  0
   29.5224   27.6756   49.6084 H   0  0  0  0  0  0  0  0  0  0  0  0
   29.2564   26.2227   47.6113 H   0  0  0  0  0  0  0  0  0  0  0  0
   31.1565   25.7840   46.1034 H   0  0  0  0  0  0  0  0  0  0  0  0
  1  2  2  0
  3  2  1  0
  4  3  2  0
  5  4  1  0
  5  1  1  0
  6 11  2  0
  7  6  1  0
  8  9  1  0
  8  7  2  0
  9 10  2  0
 10  1  1  0
 10 11  1  0
 12 13  1  0
 13 14  2  0
 14  4  1  0
 14 15  1  0
 16 15  2  0
 17 16  1  0
 18 13  1  0
 18 17  2  0
  2 19  1  0
  3 20  1  0
  6 21  1  0
  7 22  1  0
  8 23  1  0
 15 24  1  0
 16 25  1  0
 17 26  1  0
 18 27  1  0
M  ISO  8  19  14  20  14  21  14  22  14  23  14  24  14  25  14  26  14
M  ISO  1  27  14
M  END
>  <minimizedAffinity>  (1) 
-5.40039635

>  <minimizedRMSD>  (1) 
0.45092693

$$$$
