
     RDKit          3D

 37 39  0  0  0  0  0  0  0  0999 V2000
   35.6500   30.1890   47.2720 C   0  0  0  0  0  0  0  0  0  0  0  0
   35.6690   29.2490   48.3140 C   0  0  0  0  0  0  0  0  0  0  0  0
   36.5550   29.2070   49.3340 C   0  0  0  0  0  0  0  0  0  0  0  0
   37.5350   30.1360   49.4060 C   0  0  0  0  0  0  0  0  0  0  0  0
   37.5430   31.0480   48.4180 C   0  0  0  0  0  0  0  0  0  0  0  0
   36.6460   31.0160   47.4670 N   0  0  0  0  0  0  0  0  0  0  0  0
   33.3290   29.9910   46.8820 C   0  0  0  0  0  0  0  0  0  0  0  0
   34.6070   30.1360   46.2610 C   0  0  0  0  0  0  0  0  0  0  0  0
   34.6290   30.2190   44.8940 C   0  0  0  0  0  0  0  0  0  0  0  0
   33.4240   30.1560   44.2410 N   0  0  0  0  0  0  0  0  0  0  0  0
   32.2390   30.0210   44.8300 C   0  0  0  0  0  0  0  0  0  0  0  0
   32.2110   29.9380   46.1680 N   0  0  0  0  0  0  0  0  0  0  0  0
   31.1200   29.9890   43.9850 N   0  0  0  0  0  0  0  0  0  0  0  0
   35.9090   30.3700   44.2030 C   0  0  0  0  0  0  0  0  0  0  0  0
   36.7810   29.5320   44.7210 F   0  0  0  0  0  0  0  0  0  0  0  0
   35.8350   30.1970   42.8330 F   0  0  0  0  0  0  0  0  0  0  0  0
   36.4260   31.6890   44.3790 F   0  0  0  0  0  0  0  0  0  0  0  0
   39.3260   32.3880   47.2210 C   0  0  0  0  0  0  0  0  0  0  0  0
   38.4690   32.2010   48.2760 C   0  0  0  0  0  0  0  0  0  0  0  0
   38.4760   33.2220   49.2350 C   0  0  0  0  0  0  0  0  0  0  0  0
   39.2400   34.3500   49.2110 C   0  0  0  0  0  0  0  0  0  0  0  0
   40.0980   34.5260   48.1540 C   0  0  0  0  0  0  0  0  0  0  0  0
   40.1160   33.5420   47.1900 C   0  0  0  0  0  0  0  0  0  0  0  0
   39.4240   31.3100   45.8640 S   0  0  0  0  0  0  0  0  0  0  0  0
   39.1860   32.0260   44.5430 O   0  0  0  0  0  0  0  0  0  0  0  0
   40.8790   30.8020   45.7840 O   0  0  0  0  0  0  0  0  0  0  0  0
   34.8893   28.4732   48.2992 H   0  0  0  0  0  0  0  0  0  0  0  0
   36.4793   28.4219   50.1008 H   0  0  0  0  0  0  0  0  0  0  0  0
   38.2762   30.1450   50.2187 H   0  0  0  0  0  0  0  0  0  0  0  0
   33.2696   29.9216   47.9782 H   0  0  0  0  0  0  0  0  0  0  0  0
   30.1760   29.8862   44.3841 H   0  0  0  0  0  0  0  0  0  0  0  0
   31.2422   30.0683   42.9654 H   0  0  0  0  0  0  0  0  0  0  0  0
   37.7975   33.1012   50.0924 H   0  0  0  0  0  0  0  0  0  0  0  0
   39.1713   35.0976   50.0150 H   0  0  0  0  0  0  0  0  0  0  0  0
   40.7430   35.4140   48.0800 H   0  0  0  0  0  0  0  0  0  0  0  0
   40.7985   33.6728   46.3373 H   0  0  0  0  0  0  0  0  0  0  0  0
   38.4847   30.3288   46.0421 H   0  0  0  0  0  0  0  0  0  0  0  0
  1  6  1  0
  1  2  2  0
  2  3  1  0
  3  4  2  0
  5  4  1  0
  6  5  2  0
  8  7  2  0
  8  1  1  0
  9  8  1  0
 10 11  1  0
 10  9  2  0
 11 12  2  0
 12  7  1  0
 13 11  1  0
 14 17  1  0
 14 15  1  0
 14  9  1  0
 16 14  1  0
 18 19  2  0
 19  5  1  0
 19 20  1  0
 21 20  2  0
 22 21  1  0
 23 18  1  0
 23 22  2  0
 24 18  1  0
 25 24  2  0
 26 24  2  0
  2 27  1  0
  3 28  1  0
  4 29  1  0
  7 30  1  0
 13 31  1  0
 13 32  1  0
 20 33  1  0
 21 34  1  0
 22 35  1  0
 23 36  1  0
 24 37  1  0
M  ISO  8  27  14  28  14  29  14  30  14  33  14  34  14  35  14  36  14
M  ISO  1  37  11
M  END
>  <minimizedAffinity>  (1) 
-5.82580185

>  <minimizedRMSD>  (1) 
3.0684123

$$$$
