
     RDKit          3D

 31 33  0  0  0  0  0  0  0  0999 V2000
   36.1000   30.2790   48.4870 C   0  0  0  0  0  0  0  0  0  0  0  0
   35.8640   29.2830   49.3470 C   0  0  0  0  0  0  0  0  0  0  0  0
   34.8510   28.3890   49.1040 C   0  0  0  0  0  0  0  0  0  0  0  0
   34.1320   28.5900   47.9570 C   0  0  0  0  0  0  0  0  0  0  0  0
   34.9230   30.0750   47.2280 S   0  0  0  0  0  0  0  0  0  0  0  0
   32.9900   27.8150   47.4100 C   0  0  0  0  0  0  0  0  0  0  0  0
   32.0680   27.3950   48.5130 C   0  0  0  0  0  0  0  0  0  0  0  0
   31.1990   26.2260   48.1420 C   0  0  0  0  0  0  0  0  0  0  0  0
   31.8690   25.1290   47.6710 O   0  0  0  0  0  0  0  0  0  0  0  0
   33.2230   25.3190   47.5010 C   0  0  0  0  0  0  0  0  0  0  0  0
   33.5250   26.5820   46.7080 C   0  0  0  0  0  0  0  0  0  0  0  0
   38.0160   33.1470   49.6570 C   0  0  0  0  0  0  0  0  0  0  0  0
   38.9840   33.3260   48.6430 C   0  0  0  0  0  0  0  0  0  0  0  0
   38.9540   32.4460   47.5710 C   0  0  0  0  0  0  0  0  0  0  0  0
   38.0120   31.4550   47.5260 N   0  0  0  0  0  0  0  0  0  0  0  0
   37.1100   31.3370   48.5320 C   0  0  0  0  0  0  0  0  0  0  0  0
   37.0900   32.1510   49.5850 N   0  0  0  0  0  0  0  0  0  0  0  0
   36.4825   29.1797   50.2507 H   0  0  0  0  0  0  0  0  0  0  0  0
   34.6300   27.5591   49.7914 H   0  0  0  0  0  0  0  0  0  0  0  0
   32.4316   28.4452   46.7022 H   0  0  0  0  0  0  0  0  0  0  0  0
   32.6732   27.1174   49.3886 H   0  0  0  0  0  0  0  0  0  0  0  0
   31.4021   28.2444   48.7252 H   0  0  0  0  0  0  0  0  0  0  0  0
   30.6359   25.9227   49.0370 H   0  0  0  0  0  0  0  0  0  0  0  0
   30.5588   26.5708   47.3166 H   0  0  0  0  0  0  0  0  0  0  0  0
   33.6976   25.3984   48.4901 H   0  0  0  0  0  0  0  0  0  0  0  0
   33.6190   24.4609   46.9381 H   0  0  0  0  0  0  0  0  0  0  0  0
   33.0563   26.5028   45.7160 H   0  0  0  0  0  0  0  0  0  0  0  0
   34.6166   26.6813   46.6161 H   0  0  0  0  0  0  0  0  0  0  0  0
   38.0104   33.8262   50.5223 H   0  0  0  0  0  0  0  0  0  0  0  0
   39.7314   34.1310   48.7014 H   0  0  0  0  0  0  0  0  0  0  0  0
   39.6875   32.5451   46.7573 H   0  0  0  0  0  0  0  0  0  0  0  0
  1 16  1  0
  1  2  2  0
  3  2  1  0
  4  3  2  0
  5  4  1  0
  5  1  1  0
  6  4  1  0
  6  7  1  0
  8  7  1  0
  9  8  1  0
 10  9  1  0
 11  6  1  0
 11 10  1  0
 13 12  2  0
 14 13  1  0
 15 14  2  0
 15 16  1  0
 16 17  2  0
 17 12  1  0
  2 18  1  0
  3 19  1  0
  6 20  1  0
  7 21  1  0
  7 22  1  0
  8 23  1  0
  8 24  1  0
 10 25  1  0
 10 26  1  0
 11 27  1  0
 11 28  1  0
 12 29  1  0
 13 30  1  0
 14 31  1  0
M  ISO  8  18  14  19  14  20  13  21  13  22  13  23  13  24  13  25  13
M  ISO  6  26  13  27  13  28  13  29  14  30  14  31  14
M  END
>  <minimizedAffinity>  (1) 
-5.16835451

>  <minimizedRMSD>  (1) 
0.482934743

$$$$
