
     RDKit          3D

 31 33  0  0  0  0  0  0  0  0999 V2000
   36.2280   30.2950   47.8310 C   0  0  0  0  0  0  0  0  0  0  0  0
   36.4400   29.5270   48.9900 C   0  0  0  0  0  0  0  0  0  0  0  0
   37.3420   29.7710   49.9670 C   0  0  0  0  0  0  0  0  0  0  0  0
   38.1480   30.8490   49.8690 C   0  0  0  0  0  0  0  0  0  0  0  0
   37.9600   31.5960   48.7670 C   0  0  0  0  0  0  0  0  0  0  0  0
   37.0630   31.3040   47.8520 N   0  0  0  0  0  0  0  0  0  0  0  0
   34.0040   29.5240   47.5980 C   0  0  0  0  0  0  0  0  0  0  0  0
   35.1890   29.9090   46.8880 C   0  0  0  0  0  0  0  0  0  0  0  0
   35.1390   29.8700   45.5230 C   0  0  0  0  0  0  0  0  0  0  0  0
   33.9680   29.4710   44.9460 N   0  0  0  0  0  0  0  0  0  0  0  0
   32.8660   29.1140   45.6140 C   0  0  0  0  0  0  0  0  0  0  0  0
   32.9090   29.1480   46.9410 N   0  0  0  0  0  0  0  0  0  0  0  0
   31.7450   28.7370   44.8520 N   0  0  0  0  0  0  0  0  0  0  0  0
   36.3180   30.2520   44.7500 C   0  0  0  0  0  0  0  0  0  0  0  0
   37.3800   29.6380   45.2590 F   0  0  0  0  0  0  0  0  0  0  0  0
   36.2320   29.9630   43.3980 F   0  0  0  0  0  0  0  0  0  0  0  0
   36.5550   31.6460   44.8200 F   0  0  0  0  0  0  0  0  0  0  0  0
   38.8010   32.8240   48.5500 C   0  0  0  0  0  0  0  0  0  0  0  0
   39.1200   33.7870   49.4590 C   0  0  0  0  0  0  0  0  0  0  0  0
   39.9070   34.7290   48.8400 C   0  0  0  0  0  0  0  0  0  0  0  0
   40.0270   34.2860   47.5790 N   0  0  0  0  0  0  0  0  0  0  0  0
   39.3750   33.1540   47.3850 N   0  0  0  0  0  0  0  0  0  0  0  0
   35.8068   28.6362   49.1143 H   0  0  0  0  0  0  0  0  0  0  0  0
   37.4182   29.0975   50.8333 H   0  0  0  0  0  0  0  0  0  0  0  0
   38.9006   31.0973   50.6318 H   0  0  0  0  0  0  0  0  0  0  0  0
   33.9998   29.5396   48.6979 H   0  0  0  0  0  0  0  0  0  0  0  0
   30.8737   28.4542   45.3229 H   0  0  0  0  0  0  0  0  0  0  0  0
   31.7956   28.7438   43.8233 H   0  0  0  0  0  0  0  0  0  0  0  0
   38.8014   33.8075   50.5116 H   0  0  0  0  0  0  0  0  0  0  0  0
   40.3403   35.6398   49.2790 H   0  0  0  0  0  0  0  0  0  0  0  0
   40.5650   34.7722   46.8475 H   0  0  0  0  0  0  0  0  0  0  0  0
  1  6  1  0
  1  2  2  0
  2  3  1  0
  4  3  2  0
  5  4  1  0
  6  5  2  0
  8  7  2  0
  8  1  1  0
  9  8  1  0
 10  9  2  0
 10 11  1  0
 11 12  2  0
 12  7  1  0
 13 11  1  0
 14 17  1  0
 14 15  1  0
 14  9  1  0
 16 14  1  0
 18  5  1  0
 18 19  1  0
 20 19  2  0
 21 20  1  0
 22 21  1  0
 22 18  2  0
  2 23  1  0
  3 24  1  0
  4 25  1  0
  7 26  1  0
 13 27  1  0
 13 28  1  0
 19 29  1  0
 20 30  1  0
 21 31  1  0
M  ISO  7  23  14  24  14  25  14  26  14  29  14  30  14  31   9
M  END
>  <minimizedAffinity>  (1) 
-5.52788305

>  <minimizedRMSD>  (1) 
2.40941405

$$$$
