
     RDKit          3D

 35 38  0  0  0  0  0  0  0  0999 V2000
   32.8190   27.7180   48.4110 C   0  0  0  0  0  0  0  0  0  0  0  0
   32.8520   26.7740   47.4520 C   0  0  0  0  0  0  0  0  0  0  0  0
   31.6820   26.0800   47.2120 C   0  0  0  0  0  0  0  0  0  0  0  0
   30.5440   26.3270   47.9000 N   0  0  0  0  0  0  0  0  0  0  0  0
   30.6130   27.3080   48.8570 C   0  0  0  0  0  0  0  0  0  0  0  0
   31.7160   28.0250   49.1460 N   0  0  0  0  0  0  0  0  0  0  0  0
   28.8780   29.3350   48.1410 F   0  0  0  0  0  0  0  0  0  0  0  0
   28.5480   28.6090   49.2560 C   0  0  0  0  0  0  0  0  0  0  0  0
   29.4040   27.6010   49.6190 C   0  0  0  0  0  0  0  0  0  0  0  0
   29.0480   26.8850   50.7470 C   0  0  0  0  0  0  0  0  0  0  0  0
   27.8930   27.2080   51.4260 C   0  0  0  0  0  0  0  0  0  0  0  0
   27.0700   28.2320   51.0150 C   0  0  0  0  0  0  0  0  0  0  0  0
   27.3820   28.9880   49.8820 C   0  0  0  0  0  0  0  0  0  0  0  0
   36.0530   30.1590   48.8420 C   0  0  0  0  0  0  0  0  0  0  0  0
   35.9570   29.2260   49.7880 C   0  0  0  0  0  0  0  0  0  0  0  0
   34.9030   28.3390   49.7480 C   0  0  0  0  0  0  0  0  0  0  0  0
   34.0230   28.4930   48.7190 C   0  0  0  0  0  0  0  0  0  0  0  0
   34.7070   29.9110   47.8060 S   0  0  0  0  0  0  0  0  0  0  0  0
   38.0550   33.1500   49.4150 C   0  0  0  0  0  0  0  0  0  0  0  0
   38.9990   33.1230   48.3950 C   0  0  0  0  0  0  0  0  0  0  0  0
   38.9460   32.0560   47.4900 C   0  0  0  0  0  0  0  0  0  0  0  0
   37.9770   31.1030   47.6540 N   0  0  0  0  0  0  0  0  0  0  0  0
   37.0830   31.1980   48.6830 C   0  0  0  0  0  0  0  0  0  0  0  0
   37.1030   32.1920   49.5570 N   0  0  0  0  0  0  0  0  0  0  0  0
   33.7705   26.5644   46.8842 H   0  0  0  0  0  0  0  0  0  0  0  0
   31.6756   25.3007   46.4357 H   0  0  0  0  0  0  0  0  0  0  0  0
   29.6843   26.0606   51.1012 H   0  0  0  0  0  0  0  0  0  0  0  0
   27.6210   26.6309   52.3221 H   0  0  0  0  0  0  0  0  0  0  0  0
   26.1566   28.4577   51.5848 H   0  0  0  0  0  0  0  0  0  0  0  0
   26.7510   29.8139   49.5218 H   0  0  0  0  0  0  0  0  0  0  0  0
   36.7080   29.1645   50.5894 H   0  0  0  0  0  0  0  0  0  0  0  0
   34.7789   27.5504   50.5048 H   0  0  0  0  0  0  0  0  0  0  0  0
   38.0801   33.9805   50.1359 H   0  0  0  0  0  0  0  0  0  0  0  0
   39.7603   33.9116   48.3022 H   0  0  0  0  0  0  0  0  0  0  0  0
   39.6686   31.9849   46.6637 H   0  0  0  0  0  0  0  0  0  0  0  0
  1 17  1  0
  1  6  1  0
  2  1  2  0
  3  2  1  0
  3  4  2  0
  4  5  1  0
  5  6  2  0
  5  9  1  0
  7  8  1  0
  8  9  2  0
  8 13  1  0
  9 10  1  0
 10 11  2  0
 12 11  1  0
 13 12  2  0
 14 15  2  0
 16 15  1  0
 17 16  2  0
 18 17  1  0
 18 14  1  0
 19 24  2  0
 20 19  1  0
 21 22  1  0
 21 20  2  0
 22 23  2  0
 23 14  1  0
 23 24  1  0
  2 25  1  0
  3 26  1  0
 10 27  1  0
 11 28  1  0
 12 29  1  0
 13 30  1  0
 15 31  1  0
 16 32  1  0
 19 33  1  0
 20 34  1  0
 21 35  1  0
M  ISO  8  25  14  26  14  27  14  28  14  29  14  30  14  31  14  32  14
M  ISO  3  33  14  34  14  35  14
M  END
>  <minimizedAffinity>  (1) 
-7.61467886

>  <minimizedRMSD>  (1) 
1.14944375

$$$$
