
     RDKit          3D

 22 23  0  0  0  0  0  0  0  0999 V2000
   38.2180   33.3450   49.5390 Cl  0  0  0  0  0  0  0  0  0  0  0  0
   38.6170   32.4700   48.0790 C   0  0  0  0  0  0  0  0  0  0  0  0
   38.2750   31.1400   47.9430 C   0  0  0  0  0  0  0  0  0  0  0  0
   38.6260   30.5220   46.7610 C   0  0  0  0  0  0  0  0  0  0  0  0
   39.2860   31.1720   45.7470 C   0  0  0  0  0  0  0  0  0  0  0  0
   39.6110   32.5220   45.9350 C   0  0  0  0  0  0  0  0  0  0  0  0
   40.4510   33.3100   44.6200 Cl  0  0  0  0  0  0  0  0  0  0  0  0
   39.2830   33.1770   47.0930 C   0  0  0  0  0  0  0  0  0  0  0  0
   37.2930   30.0790   51.4390 C   0  0  0  0  0  0  0  0  0  0  0  0
   37.9650   30.6850   50.3710 C   0  0  0  0  0  0  0  0  0  0  0  0
   37.5730   30.5070   49.0570 C   0  0  0  0  0  0  0  0  0  0  0  0
   36.4880   29.7030   48.8420 N   0  0  0  0  0  0  0  0  0  0  0  0
   35.8490   29.1250   49.8800 C   0  0  0  0  0  0  0  0  0  0  0  0
   36.2330   29.3020   51.1400 N   0  0  0  0  0  0  0  0  0  0  0  0
   34.7050   28.2900   49.5240 C   0  0  0  0  0  0  0  0  0  0  0  0
   33.5440   28.7670   49.5950 O   0  0  0  0  0  0  0  0  0  0  0  0
   38.3659   29.4620   46.6244 H   0  0  0  0  0  0  0  0  0  0  0  0
   39.5512   30.6491   44.8163 H   0  0  0  0  0  0  0  0  0  0  0  0
   39.5421   34.2365   47.2352 H   0  0  0  0  0  0  0  0  0  0  0  0
   37.6166   30.2306   52.4793 H   0  0  0  0  0  0  0  0  0  0  0  0
   38.8343   31.3244   50.5843 H   0  0  0  0  0  0  0  0  0  0  0  0
   34.8580   27.2512   49.1961 H   0  0  0  0  0  0  0  0  0  0  0  0
  2  1  1  0
  3  2  2  0
  3 11  1  0
  4  3  1  0
  5  6  1  0
  5  4  2  0
  6  8  2  0
  7  6  1  0
  8  2  1  0
 10  9  2  0
 11 10  1  0
 12 11  2  0
 12 13  1  0
 13 14  2  0
 14  9  1  0
 15 16  2  0
 15 13  1  0
  4 17  1  0
  5 18  1  0
  8 19  1  0
  9 20  1  0
 10 21  1  0
 15 22  1  0
M  ISO  6  17  14  18  14  19  14  20  14  21  14  22   6
M  END
>  <minimizedAffinity>  (1) 
-5.95044661

>  <minimizedRMSD>  (1) 
0.971258521

$$$$
