
     RDKit          3D

 24 25  0  0  0  0  0  0  0  0999 V2000
   37.2120   29.5320   51.3760 C   0  0  0  0  0  0  0  0  0  0  0  0
   37.9530   30.0860   50.3290 C   0  0  0  0  0  0  0  0  0  0  0  0
   37.3360   30.5260   49.1480 C   0  0  0  0  0  0  0  0  0  0  0  0
   35.9950   30.3730   49.1100 N   0  0  0  0  0  0  0  0  0  0  0  0
   35.2900   29.8400   50.1190 C   0  0  0  0  0  0  0  0  0  0  0  0
   35.8940   29.4270   51.2330 N   0  0  0  0  0  0  0  0  0  0  0  0
   33.5740   28.5520   49.1510 C   0  0  0  0  0  0  0  0  0  0  0  0
   34.3320   27.5670   48.8540 O   0  0  0  0  0  0  0  0  0  0  0  0
   33.8850   29.8020   49.8010 N   0  0  0  0  0  0  0  0  0  0  0  0
   38.1450   33.3190   49.6330 Cl  0  0  0  0  0  0  0  0  0  0  0  0
   38.5140   32.4120   48.1910 C   0  0  0  0  0  0  0  0  0  0  0  0
   38.0970   31.1080   48.0460 C   0  0  0  0  0  0  0  0  0  0  0  0
   38.4220   30.4470   46.8820 C   0  0  0  0  0  0  0  0  0  0  0  0
   39.1460   31.0580   45.8790 C   0  0  0  0  0  0  0  0  0  0  0  0
   39.5530   32.3770   46.0570 C   0  0  0  0  0  0  0  0  0  0  0  0
   40.4650   33.0890   44.7470 Cl  0  0  0  0  0  0  0  0  0  0  0  0
   39.2420   33.0660   47.2120 C   0  0  0  0  0  0  0  0  0  0  0  0
   37.7072   29.1907   52.2970 H   0  0  0  0  0  0  0  0  0  0  0  0
   39.0441   30.1793   50.4328 H   0  0  0  0  0  0  0  0  0  0  0  0
   32.5188   28.4273   48.8664 H   0  0  0  0  0  0  0  0  0  0  0  0
   33.2080   30.5508   50.0059 H   0  0  0  0  0  0  0  0  0  0  0  0
   38.0958   29.4050   46.7487 H   0  0  0  0  0  0  0  0  0  0  0  0
   39.3966   30.5134   44.9567 H   0  0  0  0  0  0  0  0  0  0  0  0
   39.5645   34.1084   47.3509 H   0  0  0  0  0  0  0  0  0  0  0  0
  2  1  2  0
  3  2  1  0
  4  3  2  0
  4  5  1  0
  5  6  2  0
  6  1  1  0
  7  9  1  0
  8  7  2  0
  9  5  1  0
 11 10  1  0
 12 11  2  0
 12  3  1  0
 13 12  1  0
 14 15  1  0
 14 13  2  0
 15 17  2  0
 16 15  1  0
 17 11  1  0
  1 18  1  0
  2 19  1  0
  7 20  1  0
  9 21  1  0
 13 22  1  0
 14 23  1  0
 17 24  1  0
M  ISO  6  18  14  19  14  20   6  22  14  23  14  24  14
M  END
>  <minimizedAffinity>  (1) 
-6.53555775

>  <minimizedRMSD>  (1) 
0.335864514

$$$$
