
     RDKit          3D

 26 27  0  0  0  0  0  0  0  0999 V2000
   37.2360   29.5890   51.4230 C   0  0  0  0  0  0  0  0  0  0  0  0
   37.9730   30.1360   50.3700 C   0  0  0  0  0  0  0  0  0  0  0  0
   37.3700   30.5610   49.1890 C   0  0  0  0  0  0  0  0  0  0  0  0
   36.0220   30.4070   49.1330 N   0  0  0  0  0  0  0  0  0  0  0  0
   35.3290   29.8780   50.1580 C   0  0  0  0  0  0  0  0  0  0  0  0
   35.9200   29.4790   51.2730 N   0  0  0  0  0  0  0  0  0  0  0  0
   33.6010   28.5910   49.1760 C   0  0  0  0  0  0  0  0  0  0  0  0
   34.3700   27.6010   48.8910 O   0  0  0  0  0  0  0  0  0  0  0  0
   33.9200   29.8340   49.8220 N   0  0  0  0  0  0  0  0  0  0  0  0
   38.4690   33.2340   49.7870 Cl  0  0  0  0  0  0  0  0  0  0  0  0
   38.6800   32.3770   48.2770 C   0  0  0  0  0  0  0  0  0  0  0  0
   38.1370   31.1370   48.0810 C   0  0  0  0  0  0  0  0  0  0  0  0
   38.3410   30.5210   46.8720 C   0  0  0  0  0  0  0  0  0  0  0  0
   39.0750   31.1150   45.8620 C   0  0  0  0  0  0  0  0  0  0  0  0
   39.6160   32.3820   46.0960 C   0  0  0  0  0  0  0  0  0  0  0  0
   40.5290   33.0750   44.7850 Cl  0  0  0  0  0  0  0  0  0  0  0  0
   39.4230   33.0170   47.3010 C   0  0  0  0  0  0  0  0  0  0  0  0
   39.9900   34.3100   47.5060 N   0  0  0  0  0  0  0  0  0  0  0  0
   37.7301   29.2591   52.3488 H   0  0  0  0  0  0  0  0  0  0  0  0
   39.0634   30.2340   50.4770 H   0  0  0  0  0  0  0  0  0  0  0  0
   32.5477   28.4689   48.8833 H   0  0  0  0  0  0  0  0  0  0  0  0
   33.2441   30.5861   50.0182 H   0  0  0  0  0  0  0  0  0  0  0  0
   37.9075   29.5246   46.7012 H   0  0  0  0  0  0  0  0  0  0  0  0
   39.2289   30.6040   44.9002 H   0  0  0  0  0  0  0  0  0  0  0  0
   39.8528   34.7961   48.4037 H   0  0  0  0  0  0  0  0  0  0  0  0
   40.5365   34.7574   46.7563 H   0  0  0  0  0  0  0  0  0  0  0  0
  2  1  2  0
  3  2  1  0
  4  3  2  0
  4  5  1  0
  5  6  2  0
  6  1  1  0
  7  9  1  0
  8  7  2  0
  9  5  1  0
 11 10  1  0
 12 11  2  0
 12  3  1  0
 13 12  1  0
 14 15  1  0
 14 13  2  0
 15 17  2  0
 16 15  1  0
 17 18  1  0
 17 11  1  0
  1 19  1  0
  2 20  1  0
  7 21  1  0
  9 22  1  0
 13 23  1  0
 14 24  1  0
 18 25  1  0
 18 26  1  0
M  ISO  5  19  14  20  14  21   6  23  14  24  14
M  END
>  <minimizedAffinity>  (1) 
-7.04618502

>  <minimizedRMSD>  (1) 
0.157320127

$$$$
