
     RDKit          3D

 27 28  0  0  0  0  0  0  0  0999 V2000
   37.1980   29.5260   51.4130 C   0  0  0  0  0  0  0  0  0  0  0  0
   37.9480   30.0800   50.3720 C   0  0  0  0  0  0  0  0  0  0  0  0
   37.3270   30.5240   49.1830 C   0  0  0  0  0  0  0  0  0  0  0  0
   35.9920   30.3730   49.1410 N   0  0  0  0  0  0  0  0  0  0  0  0
   35.2940   29.8380   50.1530 C   0  0  0  0  0  0  0  0  0  0  0  0
   35.8740   29.4230   51.2650 N   0  0  0  0  0  0  0  0  0  0  0  0
   33.5670   28.5660   49.1580 C   0  0  0  0  0  0  0  0  0  0  0  0
   34.3250   27.5760   48.8620 O   0  0  0  0  0  0  0  0  0  0  0  0
   33.8820   29.8070   49.8170 N   0  0  0  0  0  0  0  0  0  0  0  0
   38.4910   33.1500   49.8410 Cl  0  0  0  0  0  0  0  0  0  0  0  0
   38.6840   32.3300   48.3140 C   0  0  0  0  0  0  0  0  0  0  0  0
   38.1010   31.1000   48.0970 C   0  0  0  0  0  0  0  0  0  0  0  0
   38.2910   30.5050   46.8670 C   0  0  0  0  0  0  0  0  0  0  0  0
   39.0390   31.1120   45.8830 C   0  0  0  0  0  0  0  0  0  0  0  0
   39.6140   32.3500   46.1290 C   0  0  0  0  0  0  0  0  0  0  0  0
   40.5490   33.0680   44.8440 Cl  0  0  0  0  0  0  0  0  0  0  0  0
   39.4400   32.9650   47.3450 C   0  0  0  0  0  0  0  0  0  0  0  0
   40.0560   34.2940   47.6120 C   0  0  0  0  0  0  0  0  0  0  0  0
   37.6878   29.1816   52.3358 H   0  0  0  0  0  0  0  0  0  0  0  0
   39.0388   30.1718   50.4800 H   0  0  0  0  0  0  0  0  0  0  0  0
   32.5136   28.4499   48.8633 H   0  0  0  0  0  0  0  0  0  0  0  0
   33.2077   30.5588   50.0193 H   0  0  0  0  0  0  0  0  0  0  0  0
   37.8349   29.5240   46.6679 H   0  0  0  0  0  0  0  0  0  0  0  0
   39.1794   30.6190   44.9097 H   0  0  0  0  0  0  0  0  0  0  0  0
   40.1295   34.4525   48.6980 H   0  0  0  0  0  0  0  0  0  0  0  0
   41.0617   34.3279   47.1676 H   0  0  0  0  0  0  0  0  0  0  0  0
   39.4319   35.0833   47.1676 H   0  0  0  0  0  0  0  0  0  0  0  0
  2  1  2  0
  3  2  1  0
  4  3  2  0
  4  5  1  0
  5  6  2  0
  6  1  1  0
  7  9  1  0
  8  7  2  0
  9  5  1  0
 11 10  1  0
 12 11  2  0
 12  3  1  0
 13 12  1  0
 14 15  1  0
 14 13  2  0
 15 17  2  0
 16 15  1  0
 17 18  1  0
 17 11  1  0
  1 19  1  0
  2 20  1  0
  7 21  1  0
  9 22  1  0
 13 23  1  0
 14 24  1  0
 18 25  1  0
 18 26  1  0
 18 27  1  0
M  ISO  8  19  14  20  14  21   6  23  14  24  14  25   8  26   8  27   8
M  END
>  <minimizedAffinity>  (1) 
-6.66416168

>  <minimizedRMSD>  (1) 
0.183040142

$$$$
