
     RDKit          3D

 30 33  0  0  0  0  0  0  0  0999 V2000
   34.2020   28.3390   49.1190 C   0  0  0  0  0  0  0  0  0  0  0  0
   34.1250   27.3190   48.2020 C   0  0  0  0  0  0  0  0  0  0  0  0
   32.8320   26.9950   47.9640 C   0  0  0  0  0  0  0  0  0  0  0  0
   32.1000   27.8270   48.7440 N   0  0  0  0  0  0  0  0  0  0  0  0
   32.9360   28.6340   49.4350 N   0  0  0  0  0  0  0  0  0  0  0  0
   30.0180   27.1770   49.8280 C   0  0  0  0  0  0  0  0  0  0  0  0
   30.6750   27.7870   48.7650 C   0  0  0  0  0  0  0  0  0  0  0  0
   29.8450   28.3150   47.7960 C   0  0  0  0  0  0  0  0  0  0  0  0
   28.4720   28.2280   47.9010 C   0  0  0  0  0  0  0  0  0  0  0  0
   27.4520   28.6420   47.1270 N   0  0  0  0  0  0  0  0  0  0  0  0
   26.2760   28.3040   47.6870 C   0  0  0  0  0  0  0  0  0  0  0  0
   26.5580   27.6630   48.8370 N   0  0  0  0  0  0  0  0  0  0  0  0
   27.8870   27.6100   48.9820 C   0  0  0  0  0  0  0  0  0  0  0  0
   28.6610   27.0540   49.9990 C   0  0  0  0  0  0  0  0  0  0  0  0
   36.7090   29.7060   51.4310 C   0  0  0  0  0  0  0  0  0  0  0  0
   37.6830   30.2070   50.5330 C   0  0  0  0  0  0  0  0  0  0  0  0
   37.4610   30.0660   49.1630 C   0  0  0  0  0  0  0  0  0  0  0  0
   36.3180   29.4540   48.7500 N   0  0  0  0  0  0  0  0  0  0  0  0
   35.3970   28.9810   49.6480 C   0  0  0  0  0  0  0  0  0  0  0  0
   35.6090   29.1150   50.9500 N   0  0  0  0  0  0  0  0  0  0  0  0
   34.9912   26.8341   47.7281 H   0  0  0  0  0  0  0  0  0  0  0  0
   32.4550   26.2195   47.2811 H   0  0  0  0  0  0  0  0  0  0  0  0
   30.6533   26.7469   50.6163 H   0  0  0  0  0  0  0  0  0  0  0  0
   30.2876   28.8154   46.9221 H   0  0  0  0  0  0  0  0  0  0  0  0
   27.5564   29.1452   46.2344 H   0  0  0  0  0  0  0  0  0  0  0  0
   25.2746   28.5119   47.2822 H   0  0  0  0  0  0  0  0  0  0  0  0
   28.2181   26.5541   50.8731 H   0  0  0  0  0  0  0  0  0  0  0  0
   36.8559   29.8021   52.5169 H   0  0  0  0  0  0  0  0  0  0  0  0
   38.5942   30.6964   50.9075 H   0  0  0  0  0  0  0  0  0  0  0  0
   38.1934   30.4411   48.4330 H   0  0  0  0  0  0  0  0  0  0  0  0
  1  5  2  0
  1 19  1  0
  2  1  1  0
  3  2  2  0
  3  4  1  0
  4  7  1  0
  4  5  1  0
  6 14  2  0
  7  6  1  0
  8  9  1  0
  8  7  2  0
  9 13  2  0
 10 11  1  0
 10  9  1  0
 11 12  2  0
 12 13  1  0
 13 14  1  0
 16 15  2  0
 17 16  1  0
 18 17  2  0
 18 19  1  0
 19 20  2  0
 20 15  1  0
  2 21  1  0
  3 22  1  0
  6 23  1  0
  8 24  1  0
 10 25  1  0
 11 26  1  0
 14 27  1  0
 15 28  1  0
 16 29  1  0
 17 30  1  0
M  ISO  8  21  14  22  14  23  14  24  14  25   9  26  14  27  14  28  14
M  ISO  2  29  14  30  14
M  END
>  <minimizedAffinity>  (1) 
-5.83850193

>  <minimizedRMSD>  (1) 
3.26289535

$$$$
