
     RDKit          3D

 27 29  0  0  0  0  0  0  0  0999 V2000
   35.7950   29.6760   48.2390 C   0  0  0  0  0  0  0  0  0  0  0  0
   36.5140   29.5560   49.4000 C   0  0  0  0  0  0  0  0  0  0  0  0
   37.7180   30.1610   49.2710 C   0  0  0  0  0  0  0  0  0  0  0  0
   37.7390   30.6590   48.0120 N   0  0  0  0  0  0  0  0  0  0  0  0
   36.5740   30.3580   47.4090 N   0  0  0  0  0  0  0  0  0  0  0  0
   32.5710   29.0020   46.6160 C   0  0  0  0  0  0  0  0  0  0  0  0
   31.9380   28.1580   47.5550 C   0  0  0  0  0  0  0  0  0  0  0  0
   32.6310   27.8310   48.7360 C   0  0  0  0  0  0  0  0  0  0  0  0
   33.8810   28.3430   48.9220 N   0  0  0  0  0  0  0  0  0  0  0  0
   34.4570   29.1580   47.9860 C   0  0  0  0  0  0  0  0  0  0  0  0
   33.8040   29.4750   46.8560 N   0  0  0  0  0  0  0  0  0  0  0  0
   38.2300   33.4040   49.0380 Cl  0  0  0  0  0  0  0  0  0  0  0  0
   38.9780   32.6850   47.6270 C   0  0  0  0  0  0  0  0  0  0  0  0
   38.6810   31.3970   47.2320 C   0  0  0  0  0  0  0  0  0  0  0  0
   39.2070   30.7350   46.1450 C   0  0  0  0  0  0  0  0  0  0  0  0
   40.1260   31.4540   45.3810 C   0  0  0  0  0  0  0  0  0  0  0  0
   40.4610   32.7360   45.7240 C   0  0  0  0  0  0  0  0  0  0  0  0
   39.9030   33.3650   46.8340 C   0  0  0  0  0  0  0  0  0  0  0  0
   36.1628   29.0417   50.3067 H   0  0  0  0  0  0  0  0  0  0  0  0
   38.5119   30.2329   50.0290 H   0  0  0  0  0  0  0  0  0  0  0  0
   32.0518   29.2726   45.6848 H   0  0  0  0  0  0  0  0  0  0  0  0
   30.9276   27.7655   47.3680 H   0  0  0  0  0  0  0  0  0  0  0  0
   32.1738   27.1764   49.4926 H   0  0  0  0  0  0  0  0  0  0  0  0
   38.9201   29.7030   45.8948 H   0  0  0  0  0  0  0  0  0  0  0  0
   40.5847   30.9876   44.4967 H   0  0  0  0  0  0  0  0  0  0  0  0
   41.1893   33.2832   45.1074 H   0  0  0  0  0  0  0  0  0  0  0  0
   40.1910   34.3965   47.0853 H   0  0  0  0  0  0  0  0  0  0  0  0
  1  2  1  0
  3  2  2  0
  4  3  1  0
  5  4  1  0
  5  1  2  0
  6 11  2  0
  6  7  1  0
  7  8  2  0
  8  9  1  0
 10  1  1  0
 10  9  2  0
 11 10  1  0
 13 12  1  0
 14 13  2  0
 14  4  1  0
 15 14  1  0
 16 17  1  0
 16 15  2  0
 17 18  2  0
 18 13  1  0
  2 19  1  0
  3 20  1  0
  6 21  1  0
  7 22  1  0
  8 23  1  0
 15 24  1  0
 16 25  1  0
 17 26  1  0
 18 27  1  0
M  ISO  8  19  14  20  14  21  14  22  14  23  14  24  14  25  14  26  14
M  ISO  1  27  14
M  END
>  <minimizedAffinity>  (1) 
-5.61245537

>  <minimizedRMSD>  (1) 
7.27516603

$$$$
