
     RDKit          3D

 24 26  0  0  0  0  0  0  0  0999 V2000
   35.5410   29.9900   48.8820 C   0  0  0  0  0  0  0  0  0  0  0  0
   35.9340   30.0810   50.1900 C   0  0  0  0  0  0  0  0  0  0  0  0
   36.9370   30.9980   50.2890 C   0  0  0  0  0  0  0  0  0  0  0  0
   37.1580   31.4680   49.0390 N   0  0  0  0  0  0  0  0  0  0  0  0
   36.3060   30.8490   48.2010 N   0  0  0  0  0  0  0  0  0  0  0  0
   38.1240   32.4480   48.6690 C   0  0  0  0  0  0  0  0  0  0  0  0
   38.5950   33.3280   49.6220 C   0  0  0  0  0  0  0  0  0  0  0  0
   39.5060   34.1320   48.9300 C   0  0  0  0  0  0  0  0  0  0  0  0
   39.5540   33.7260   47.6280 N   0  0  0  0  0  0  0  0  0  0  0  0
   38.7060   32.6970   47.4750 N   0  0  0  0  0  0  0  0  0  0  0  0
   33.4680   28.0990   46.5070 C   0  0  0  0  0  0  0  0  0  0  0  0
   32.5050   27.5180   47.3610 C   0  0  0  0  0  0  0  0  0  0  0  0
   32.5810   27.7840   48.7430 C   0  0  0  0  0  0  0  0  0  0  0  0
   33.5840   28.5910   49.1870 N   0  0  0  0  0  0  0  0  0  0  0  0
   34.4950   29.1330   48.3180 C   0  0  0  0  0  0  0  0  0  0  0  0
   34.4200   28.8810   47.0180 N   0  0  0  0  0  0  0  0  0  0  0  0
   35.5088   29.5066   51.0262 H   0  0  0  0  0  0  0  0  0  0  0  0
   37.4646   31.2980   51.2064 H   0  0  0  0  0  0  0  0  0  0  0  0
   38.3169   33.3842   50.6848 H   0  0  0  0  0  0  0  0  0  0  0  0
   40.0891   34.9574   49.3644 H   0  0  0  0  0  0  0  0  0  0  0  0
   40.1408   34.1388   46.8889 H   0  0  0  0  0  0  0  0  0  0  0  0
   33.4331   27.9073   45.4244 H   0  0  0  0  0  0  0  0  0  0  0  0
   31.7124   26.8715   46.9562 H   0  0  0  0  0  0  0  0  0  0  0  0
   31.8508   27.3520   49.4431 H   0  0  0  0  0  0  0  0  0  0  0  0
  1  2  1  0
  2  3  2  0
  4  3  1  0
  5  1  2  0
  5  4  1  0
  6  4  1  0
  6  7  1  0
  8  7  2  0
  9  8  1  0
 10  9  1  0
 10  6  2  0
 11 16  2  0
 11 12  1  0
 12 13  2  0
 13 14  1  0
 15  1  1  0
 15 14  2  0
 16 15  1  0
  2 17  1  0
  3 18  1  0
  7 19  1  0
  8 20  1  0
  9 21  1  0
 11 22  1  0
 12 23  1  0
 13 24  1  0
M  ISO  8  17  14  18  14  19  14  20  14  21   9  22  14  23  14  24  14
M  END
>  <minimizedAffinity>  (1) 
-5.35591841

>  <minimizedRMSD>  (1) 
6.53318882

$$$$
