
     RDKit          3D

 32 35  0  0  0  0  0  0  0  0999 V2000
   35.7000   29.9510   48.7030 C   0  0  0  0  0  0  0  0  0  0  0  0
   35.7520   28.8520   49.5280 C   0  0  0  0  0  0  0  0  0  0  0  0
   34.5930   28.1390   49.3740 C   0  0  0  0  0  0  0  0  0  0  0  0
   33.8460   28.8030   48.4620 N   0  0  0  0  0  0  0  0  0  0  0  0
   34.5240   29.8830   48.0720 N   0  0  0  0  0  0  0  0  0  0  0  0
   32.5640   28.3440   48.0530 C   0  0  0  0  0  0  0  0  0  0  0  0
   31.6810   27.6270   48.8380 C   0  0  0  0  0  0  0  0  0  0  0  0
   30.4590   27.2540   48.2790 C   0  0  0  0  0  0  0  0  0  0  0  0
   30.1350   27.5880   46.9800 C   0  0  0  0  0  0  0  0  0  0  0  0
   28.9350   27.1810   46.5400 N   0  0  0  0  0  0  0  0  0  0  0  0
   28.5570   27.4750   45.2800 C   0  0  0  0  0  0  0  0  0  0  0  0
   29.4220   28.1900   44.4760 C   0  0  0  0  0  0  0  0  0  0  0  0
   30.6670   28.6220   44.9080 C   0  0  0  0  0  0  0  0  0  0  0  0
   31.0310   28.3070   46.2050 C   0  0  0  0  0  0  0  0  0  0  0  0
   32.2290   28.6750   46.7500 C   0  0  0  0  0  0  0  0  0  0  0  0
   37.9740   32.7520   49.4040 C   0  0  0  0  0  0  0  0  0  0  0  0
   38.6620   32.8830   48.1620 C   0  0  0  0  0  0  0  0  0  0  0  0
   38.3300   32.0050   47.1080 C   0  0  0  0  0  0  0  0  0  0  0  0
   37.3650   31.0880   47.3580 N   0  0  0  0  0  0  0  0  0  0  0  0
   36.7260   30.9830   48.5490 C   0  0  0  0  0  0  0  0  0  0  0  0
   37.0340   31.8060   49.5470 N   0  0  0  0  0  0  0  0  0  0  0  0
   36.5839   28.5899   50.1983 H   0  0  0  0  0  0  0  0  0  0  0  0
   34.3219   27.2070   49.8915 H   0  0  0  0  0  0  0  0  0  0  0  0
   31.9348   27.3582   49.8740 H   0  0  0  0  0  0  0  0  0  0  0  0
   29.7401   26.6829   48.8849 H   0  0  0  0  0  0  0  0  0  0  0  0
   27.5771   27.1511   44.8993 H   0  0  0  0  0  0  0  0  0  0  0  0
   29.1102   28.4273   43.4482 H   0  0  0  0  0  0  0  0  0  0  0  0
   31.3371   29.1913   44.2470 H   0  0  0  0  0  0  0  0  0  0  0  0
   32.9437   29.2471   46.1402 H   0  0  0  0  0  0  0  0  0  0  0  0
   38.2132   33.4240   50.2414 H   0  0  0  0  0  0  0  0  0  0  0  0
   39.4361   33.6530   48.0280 H   0  0  0  0  0  0  0  0  0  0  0  0
   38.8309   32.0627   46.1304 H   0  0  0  0  0  0  0  0  0  0  0  0
  1  2  1  0
  3  2  2  0
  4  3  1  0
  5  4  1  0
  5  1  2  0
  6  4  1  0
  6  7  2  0
  8  7  1  0
  9  8  2  0
 10  9  1  0
 11 10  2  0
 12 13  2  0
 12 11  1  0
 13 14  1  0
 14 15  2  0
 14  9  1  0
 15  6  1  0
 16 21  2  0
 17 16  1  0
 18 19  1  0
 18 17  2  0
 19 20  2  0
 20  1  1  0
 20 21  1  0
  2 22  1  0
  3 23  1  0
  7 24  1  0
  8 25  1  0
 11 26  1  0
 12 27  1  0
 13 28  1  0
 15 29  1  0
 16 30  1  0
 17 31  1  0
 18 32  1  0
M  ISO  8  22  14  23  14  24  14  25  14  26  14  27  14  28  14  29  14
M  ISO  3  30  14  31  14  32  14
M  END
>  <minimizedAffinity>  (1) 
-5.26436186

>  <minimizedRMSD>  (1) 
3.97801089

$$$$
