
     RDKit          3D

 33 36  0  0  0  0  0  0  0  0999 V2000
   36.0110   29.9810   48.9450 C   0  0  0  0  0  0  0  0  0  0  0  0
   36.0620   29.0060   49.9350 C   0  0  0  0  0  0  0  0  0  0  0  0
   34.9540   28.2120   49.8000 C   0  0  0  0  0  0  0  0  0  0  0  0
   34.2490   28.6950   48.7510 N   0  0  0  0  0  0  0  0  0  0  0  0
   34.8940   29.7590   48.2420 N   0  0  0  0  0  0  0  0  0  0  0  0
   33.0370   28.0940   48.3420 C   0  0  0  0  0  0  0  0  0  0  0  0
   31.9510   28.1520   49.2010 C   0  0  0  0  0  0  0  0  0  0  0  0
   30.7210   27.5790   48.8600 C   0  0  0  0  0  0  0  0  0  0  0  0
   30.5740   26.9350   47.6430 C   0  0  0  0  0  0  0  0  0  0  0  0
   31.6420   26.8670   46.7770 C   0  0  0  0  0  0  0  0  0  0  0  0
   31.5220   26.2240   45.5400 C   0  0  0  0  0  0  0  0  0  0  0  0
   32.6210   26.1780   44.7000 C   0  0  0  0  0  0  0  0  0  0  0  0
   33.8130   26.7620   45.0850 C   0  0  0  0  0  0  0  0  0  0  0  0
   33.9610   27.4060   46.3050 C   0  0  0  0  0  0  0  0  0  0  0  0
   32.8580   27.4410   47.1250 C   0  0  0  0  0  0  0  0  0  0  0  0
   37.9740   33.0620   49.3580 C   0  0  0  0  0  0  0  0  0  0  0  0
   38.8780   32.9780   48.2770 C   0  0  0  0  0  0  0  0  0  0  0  0
   38.8060   31.8650   47.4170 C   0  0  0  0  0  0  0  0  0  0  0  0
   37.8610   30.9280   47.6790 N   0  0  0  0  0  0  0  0  0  0  0  0
   37.0020   31.0350   48.7290 C   0  0  0  0  0  0  0  0  0  0  0  0
   37.0770   32.0870   49.5350 N   0  0  0  0  0  0  0  0  0  0  0  0
   36.8518   28.8924   50.6921 H   0  0  0  0  0  0  0  0  0  0  0  0
   34.6881   27.3468   50.4251 H   0  0  0  0  0  0  0  0  0  0  0  0
   32.0583   28.6591   50.1712 H   0  0  0  0  0  0  0  0  0  0  0  0
   29.8724   27.6400   49.5573 H   0  0  0  0  0  0  0  0  0  0  0  0
   29.6101   26.4807   47.3700 H   0  0  0  0  0  0  0  0  0  0  0  0
   30.5696   25.7625   45.2400 H   0  0  0  0  0  0  0  0  0  0  0  0
   32.5456   25.6758   43.7243 H   0  0  0  0  0  0  0  0  0  0  0  0
   34.6733   26.7146   44.4012 H   0  0  0  0  0  0  0  0  0  0  0  0
   34.9149   27.8664   46.6019 H   0  0  0  0  0  0  0  0  0  0  0  0
   38.0074   33.9194   50.0463 H   0  0  0  0  0  0  0  0  0  0  0  0
   39.6252   33.7677   48.1094 H   0  0  0  0  0  0  0  0  0  0  0  0
   39.4917   31.7594   46.5633 H   0  0  0  0  0  0  0  0  0  0  0  0
  1  2  1  0
  3  2  2  0
  4  3  1  0
  5  4  1  0
  5  1  2  0
  6  4  1  0
  6  7  2  0
  8  7  1  0
  9  8  2  0
 10 15  2  0
 10  9  1  0
 11 10  1  0
 12 13  1  0
 12 11  2  0
 13 14  2  0
 14 15  1  0
 15  6  1  0
 16 21  2  0
 17 16  1  0
 18 19  1  0
 18 17  2  0
 19 20  2  0
 20  1  1  0
 20 21  1  0
  2 22  1  0
  3 23  1  0
  7 24  1  0
  8 25  1  0
  9 26  1  0
 11 27  1  0
 12 28  1  0
 13 29  1  0
 14 30  1  0
 16 31  1  0
 17 32  1  0
 18 33  1  0
M  ISO  8  22  14  23  14  24  14  25  14  26  14  27  14  28  14  29  14
M  ISO  4  30  14  31  14  32  14  33  14
M  END
>  <minimizedAffinity>  (1) 
-5.1862731

>  <minimizedRMSD>  (1) 
2.62867737

$$$$
