
     RDKit          3D

 32 34  0  0  0  0  0  0  0  0999 V2000
   36.0100   30.0900   48.7340 C   0  0  0  0  0  0  0  0  0  0  0  0
   35.9000   29.1310   49.7220 C   0  0  0  0  0  0  0  0  0  0  0  0
   34.8350   28.3300   49.4590 C   0  0  0  0  0  0  0  0  0  0  0  0
   34.2800   28.8020   48.2940 N   0  0  0  0  0  0  0  0  0  0  0  0
   35.0130   29.8520   47.8950 N   0  0  0  0  0  0  0  0  0  0  0  0
   37.9940   33.0880   49.4480 C   0  0  0  0  0  0  0  0  0  0  0  0
   38.9630   33.0680   48.4130 C   0  0  0  0  0  0  0  0  0  0  0  0
   38.9060   32.0190   47.4980 C   0  0  0  0  0  0  0  0  0  0  0  0
   37.9370   31.0750   47.6310 N   0  0  0  0  0  0  0  0  0  0  0  0
   37.0230   31.1400   48.6510 C   0  0  0  0  0  0  0  0  0  0  0  0
   37.0450   32.1310   49.5500 N   0  0  0  0  0  0  0  0  0  0  0  0
   32.1470   25.5890   47.7080 N   0  0  0  0  0  0  0  0  0  0  0  0
   31.3680   26.5950   48.3750 C   0  0  0  0  0  0  0  0  0  0  0  0
   32.1080   27.8660   48.6460 C   0  0  0  0  0  0  0  0  0  0  0  0
   33.1090   28.2600   47.6130 C   0  0  0  0  0  0  0  0  0  0  0  0
   33.5530   27.1860   46.6890 C   0  0  0  0  0  0  0  0  0  0  0  0
   32.5010   26.1450   46.4040 C   0  0  0  0  0  0  0  0  0  0  0  0
   36.5711   29.0314   50.5879 H   0  0  0  0  0  0  0  0  0  0  0  0
   34.4869   27.4756   50.0580 H   0  0  0  0  0  0  0  0  0  0  0  0
   38.0152   33.9029   50.1865 H   0  0  0  0  0  0  0  0  0  0  0  0
   39.7311   33.8516   48.3354 H   0  0  0  0  0  0  0  0  0  0  0  0
   39.6363   31.9554   46.6778 H   0  0  0  0  0  0  0  0  0  0  0  0
   32.9977   25.3790   48.2494 H   0  0  0  0  0  0  0  0  0  0  0  0
   30.4974   26.8306   47.7452 H   0  0  0  0  0  0  0  0  0  0  0  0
   31.0870   26.1789   49.3537 H   0  0  0  0  0  0  0  0  0  0  0  0
   31.3694   28.6770   48.7286 H   0  0  0  0  0  0  0  0  0  0  0  0
   32.6801   27.6909   49.5690 H   0  0  0  0  0  0  0  0  0  0  0  0
   32.5964   28.9936   46.9735 H   0  0  0  0  0  0  0  0  0  0  0  0
   33.8468   27.6500   45.7359 H   0  0  0  0  0  0  0  0  0  0  0  0
   34.3869   26.6667   47.1839 H   0  0  0  0  0  0  0  0  0  0  0  0
   31.6217   26.6053   45.9296 H   0  0  0  0  0  0  0  0  0  0  0  0
   32.8661   25.3709   45.7130 H   0  0  0  0  0  0  0  0  0  0  0  0
  1  2  1  0
  3  2  2  0
  4  3  1  0
  5  4  1  0
  5  1  2  0
  6 11  2  0
  7  6  1  0
  8  9  1  0
  8  7  2  0
  9 10  2  0
 10  1  1  0
 10 11  1  0
 12 13  1  0
 13 14  1  0
 15  4  1  0
 15 14  1  0
 16 15  1  0
 17 16  1  0
 17 12  1  0
  2 18  1  0
  3 19  1  0
  6 20  1  0
  7 21  1  0
  8 22  1  0
 12 23  1  0
 13 24  1  0
 13 25  1  0
 14 26  1  0
 14 27  1  0
 15 28  1  0
 16 29  1  0
 16 30  1  0
 17 31  1  0
 17 32  1  0
M  ISO  8  18  14  19  14  20  14  21  14  22  14  23   5  24  13  25  13
M  ISO  7  26  13  27  13  28  13  29  13  30  13  31  13  32  13
M  END
>  <minimizedAffinity>  (1) 
-5.01959562

>  <minimizedRMSD>  (1) 
2.15559554

$$$$
