
     RDKit          3D

 24 26  0  0  0  0  0  0  0  0999 V2000
   35.2990   29.5930   48.6420 C   0  0  0  0  0  0  0  0  0  0  0  0
   36.1480   29.0080   49.5720 C   0  0  0  0  0  0  0  0  0  0  0  0
   37.2450   29.7980   49.7340 C   0  0  0  0  0  0  0  0  0  0  0  0
   37.0610   30.8710   48.8960 N   0  0  0  0  0  0  0  0  0  0  0  0
   35.8980   30.7080   48.2710 N   0  0  0  0  0  0  0  0  0  0  0  0
   32.3720   28.8790   46.5580 C   0  0  0  0  0  0  0  0  0  0  0  0
   31.6160   28.0060   47.4010 C   0  0  0  0  0  0  0  0  0  0  0  0
   32.1300   27.6820   48.6670 C   0  0  0  0  0  0  0  0  0  0  0  0
   33.3200   28.2260   49.0060 N   0  0  0  0  0  0  0  0  0  0  0  0
   34.0280   29.0510   48.2030 C   0  0  0  0  0  0  0  0  0  0  0  0
   33.5390   29.3540   47.0070 N   0  0  0  0  0  0  0  0  0  0  0  0
   37.9800   31.9910   48.7260 C   0  0  0  0  0  0  0  0  0  0  0  0
   38.3250   32.9840   49.5510 C   0  0  0  0  0  0  0  0  0  0  0  0
   39.2050   33.9150   49.1710 C   0  0  0  0  0  0  0  0  0  0  0  0
   39.6810   33.7580   47.9430 C   0  0  0  0  0  0  0  0  0  0  0  0
   38.9440   32.3480   47.2870 S   0  0  0  0  0  0  0  0  0  0  0  0
   35.9637   28.0578   50.0946 H   0  0  0  0  0  0  0  0  0  0  0  0
   38.1020   29.6149   50.3988 H   0  0  0  0  0  0  0  0  0  0  0  0
   32.0012   29.1546   45.5597 H   0  0  0  0  0  0  0  0  0  0  0  0
   30.6519   27.5967   47.0649 H   0  0  0  0  0  0  0  0  0  0  0  0
   31.5878   27.0145   49.3529 H   0  0  0  0  0  0  0  0  0  0  0  0
   37.8791   33.0356   50.5552 H   0  0  0  0  0  0  0  0  0  0  0  0
   39.5103   34.7454   49.8246 H   0  0  0  0  0  0  0  0  0  0  0  0
   40.4108   34.4079   47.4380 H   0  0  0  0  0  0  0  0  0  0  0  0
  1  2  1  0
  2  3  2  0
  4  3  1  0
  5  1  2  0
  5  4  1  0
  6 11  2  0
  6  7  1  0
  7  8  2  0
  8  9  1  0
 10  1  1  0
 10  9  2  0
 11 10  1  0
 12  4  1  0
 12 13  2  0
 14 13  1  0
 15 14  2  0
 16 15  1  0
 16 12  1  0
  2 17  1  0
  3 18  1  0
  6 19  1  0
  7 20  1  0
  8 21  1  0
 13 22  1  0
 14 23  1  0
 15 24  1  0
M  ISO  8  17  14  18  14  19  14  20  14  21  14  22  14  23  14  24  14
M  END
>  <minimizedAffinity>  (1) 
-4.91729021

>  <minimizedRMSD>  (1) 
6.62080145

$$$$
