
     RDKit          3D

 31 33  0  0  1  0  0  0  0  0999 V2000
   36.0570   30.1630   48.8620 C   0  0  0  0  0  0  0  0  0  0  0  0
   36.1670   29.0230   49.6200 C   0  0  0  0  0  0  0  0  0  0  0  0
   35.0320   28.2910   49.5190 C   0  0  0  0  0  0  0  0  0  0  0  0
   34.2150   28.9870   48.6890 N   0  0  0  0  0  0  0  0  0  0  0  0
   34.8510   30.0960   48.3150 N   0  0  0  0  0  0  0  0  0  0  0  0
   38.0530   33.1880   49.4230 C   0  0  0  0  0  0  0  0  0  0  0  0
   38.9940   33.1230   48.3620 C   0  0  0  0  0  0  0  0  0  0  0  0
   38.9230   32.0450   47.4820 C   0  0  0  0  0  0  0  0  0  0  0  0
   37.9560   31.1210   47.6920 N   0  0  0  0  0  0  0  0  0  0  0  0
   37.0700   31.2080   48.7120 C   0  0  0  0  0  0  0  0  0  0  0  0
   37.1130   32.2310   49.5740 N   0  0  0  0  0  0  0  0  0  0  0  0
   32.5970   29.2710   46.9680 N   0  0  0  0  0  0  0  0  0  0  0  0
   32.8860   28.6560   48.2460 C   0  0  1  0  0  0  0  0  0  0  0  0
   32.7040   27.1650   48.0550 C   0  0  0  0  0  0  0  0  0  0  0  0
   31.6790   26.8860   47.0500 N   0  0  0  0  0  0  0  0  0  0  0  0
   32.1230   27.2860   45.7340 C   0  0  0  0  0  0  0  0  0  0  0  0
   33.1420   28.3900   45.9360 C   0  0  0  0  0  0  0  0  0  0  0  0
   37.0463   28.7457   50.2200 H   0  0  0  0  0  0  0  0  0  0  0  0
   34.8168   27.3300   50.0090 H   0  0  0  0  0  0  0  0  0  0  0  0
   38.0903   34.0289   50.1311 H   0  0  0  0  0  0  0  0  0  0  0  0
   39.7593   33.9034   48.2378 H   0  0  0  0  0  0  0  0  0  0  0  0
   39.6293   31.9479   46.6443 H   0  0  0  0  0  0  0  0  0  0  0  0
   31.5792   29.3713   46.8459 H   0  0  0  0  0  0  0  0  0  0  0  0
   32.2103   29.0254   49.0314 H   0  0  0  0  0  0  0  0  0  0  0  0
   33.6577   26.7253   47.7276 H   0  0  0  0  0  0  0  0  0  0  0  0
   32.3851   26.7258   49.0117 H   0  0  0  0  0  0  0  0  0  0  0  0
   31.4778   25.8759   47.0452 H   0  0  0  0  0  0  0  0  0  0  0  0
   31.2727   27.6581   45.1437 H   0  0  0  0  0  0  0  0  0  0  0  0
   32.5615   26.4371   45.1890 H   0  0  0  0  0  0  0  0  0  0  0  0
   34.1019   27.9660   46.2658 H   0  0  0  0  0  0  0  0  0  0  0  0
   33.3267   28.9383   45.0004 H   0  0  0  0  0  0  0  0  0  0  0  0
  1  2  1  0
  3  2  2  0
  4  3  1  0
  5  4  1  0
  5  1  2  0
  6 11  2  0
  7  6  1  0
  8  9  1  0
  8  7  2  0
  9 10  2  0
 10  1  1  0
 10 11  1  0
 12 13  1  0
 13  4  1  0
 14 13  1  0
 15 14  1  0
 16 17  1  0
 16 15  1  0
 17 12  1  0
  2 18  1  0
  3 19  1  0
  6 20  1  0
  7 21  1  0
  8 22  1  0
 12 23  1  0
 13 24  1  1
 14 25  1  0
 14 26  1  0
 15 27  1  0
 16 28  1  0
 16 29  1  0
 17 30  1  0
 17 31  1  0
M  ISO  8  18  14  19  14  20  14  21  14  22  14  23   5  24  13  25  13
M  ISO  6  26  13  27   5  28  13  29  13  30  13  31  13
M  END
>  <minimizedAffinity>  (1) 
-4.68545294

>  <minimizedRMSD>  (1) 
2.4258976

$$$$
