
     RDKit          3D

 43 47  0  0  0  0  0  0  0  0999 V2000
   34.7560   28.9700   48.9820 C   0  0  0  0  0  0  0  0  0  0  0  0
   34.6960   28.4150   47.7200 C   0  0  0  0  0  0  0  0  0  0  0  0
   33.4290   27.9270   47.5210 C   0  0  0  0  0  0  0  0  0  0  0  0
   32.7290   28.1880   48.6640 N   0  0  0  0  0  0  0  0  0  0  0  0
   33.5490   28.8120   49.5160 N   0  0  0  0  0  0  0  0  0  0  0  0
   30.5210   27.5380   47.8100 N   0  0  0  0  0  0  0  0  0  0  0  0
   31.3640   27.8300   48.8470 C   0  0  0  0  0  0  0  0  0  0  0  0
   30.6350   27.7050   49.9640 N   0  0  0  0  0  0  0  0  0  0  0  0
   29.3630   27.3430   49.6610 C   0  0  0  0  0  0  0  0  0  0  0  0
   28.2080   27.0760   50.3600 C   0  0  0  0  0  0  0  0  0  0  0  0
   27.0980   26.7340   49.6790 N   0  0  0  0  0  0  0  0  0  0  0  0
   27.0900   26.6470   48.3420 C   0  0  0  0  0  0  0  0  0  0  0  0
   28.1930   26.8990   47.6280 N   0  0  0  0  0  0  0  0  0  0  0  0
   29.3030   27.2400   48.2880 C   0  0  0  0  0  0  0  0  0  0  0  0
   37.5050   29.7380   51.2910 C   0  0  0  0  0  0  0  0  0  0  0  0
   38.1320   30.8430   50.6550 C   0  0  0  0  0  0  0  0  0  0  0  0
   37.5940   31.2830   49.4600 C   0  0  0  0  0  0  0  0  0  0  0  0
   36.5110   30.6610   48.9510 N   0  0  0  0  0  0  0  0  0  0  0  0
   35.9270   29.6010   49.5850 C   0  0  0  0  0  0  0  0  0  0  0  0
   36.4230   29.1590   50.7290 N   0  0  0  0  0  0  0  0  0  0  0  0
   38.0840   32.3700   48.6830 N   0  0  0  0  0  0  0  0  0  0  0  0
   38.1810   33.7510   49.1640 C   0  0  0  0  0  0  0  0  0  0  0  0
   39.6530   34.1050   49.1100 C   0  0  0  0  0  0  0  0  0  0  0  0
   39.9300   34.2720   47.7420 O   0  0  0  0  0  0  0  0  0  0  0  0
   39.7980   33.0980   47.0510 C   0  0  0  0  0  0  0  0  0  0  0  0
   38.5550   32.3080   47.3400 C   0  0  0  0  0  0  0  0  0  0  0  0
   28.2700   27.1830   51.7760 N   0  0  0  0  0  0  0  0  0  0  0  0
   35.5233   28.3712   46.9964 H   0  0  0  0  0  0  0  0  0  0  0  0
   33.0515   27.4244   46.6183 H   0  0  0  0  0  0  0  0  0  0  0  0
   30.7816   27.5457   46.8135 H   0  0  0  0  0  0  0  0  0  0  0  0
   26.1622   26.3640   47.8233 H   0  0  0  0  0  0  0  0  0  0  0  0
   37.9018   29.3540   52.2424 H   0  0  0  0  0  0  0  0  0  0  0  0
   39.0133   31.3306   51.0973 H   0  0  0  0  0  0  0  0  0  0  0  0
   37.6012   34.4241   48.5153 H   0  0  0  0  0  0  0  0  0  0  0  0
   37.7771   33.8543   50.1819 H   0  0  0  0  0  0  0  0  0  0  0  0
   39.8485   35.0363   49.6619 H   0  0  0  0  0  0  0  0  0  0  0  0
   40.2843   33.3311   49.5710 H   0  0  0  0  0  0  0  0  0  0  0  0
   40.6645   32.4647   47.2923 H   0  0  0  0  0  0  0  0  0  0  0  0
   39.7332   33.3807   45.9899 H   0  0  0  0  0  0  0  0  0  0  0  0
   37.7558   32.6826   46.6836 H   0  0  0  0  0  0  0  0  0  0  0  0
   38.8198   31.2552   47.1626 H   0  0  0  0  0  0  0  0  0  0  0  0
   27.4320   26.9932   52.3440 H   0  0  0  0  0  0  0  0  0  0  0  0
   29.1529   27.4504   52.2341 H   0  0  0  0  0  0  0  0  0  0  0  0
  1  5  2  0
  1 19  1  0
  2  1  1  0
  3  2  2  0
  3  4  1  0
  4  7  1  0
  4  5  1  0
  6 14  1  0
  6  7  1  0
  7  8  2  0
  9  8  1  0
  9 10  2  0
 10 27  1  0
 11 10  1  0
 12 11  2  0
 13 14  2  0
 13 12  1  0
 14  9  1  0
 16 15  2  0
 17 16  1  0
 18 17  2  0
 18 19  1  0
 19 20  2  0
 20 15  1  0
 21 22  1  0
 21 17  1  0
 23 22  1  0
 24 23  1  0
 25 26  1  0
 25 24  1  0
 26 21  1  0
  2 28  1  0
  3 29  1  0
  6 30  1  0
 12 31  1  0
 15 32  1  0
 16 33  1  0
 22 34  1  0
 22 35  1  0
 23 36  1  0
 23 37  1  0
 25 38  1  0
 25 39  1  0
 26 40  1  0
 26 41  1  0
 27 42  1  0
 27 43  1  0
M  ISO  8  28  14  29  14  30   9  31  14  32  14  33  14  34  13  35  13
M  ISO  6  36  13  37  13  38  13  39  13  40  13  41  13
M  END
>  <minimizedAffinity>  (1) 
-7.64401531

>  <minimizedRMSD>  (1) 
0.59266609

$$$$
