
     RDKit          3D

 33 36  0  0  0  0  0  0  0  0999 V2000
   34.7940   29.0780   48.6820 C   0  0  0  0  0  0  0  0  0  0  0  0
   34.6920   28.4970   47.4210 C   0  0  0  0  0  0  0  0  0  0  0  0
   33.4320   27.9770   47.2900 C   0  0  0  0  0  0  0  0  0  0  0  0
   32.7780   28.2400   48.4630 N   0  0  0  0  0  0  0  0  0  0  0  0
   33.6240   28.8920   49.2540 N   0  0  0  0  0  0  0  0  0  0  0  0
   30.5630   27.4910   47.7180 N   0  0  0  0  0  0  0  0  0  0  0  0
   31.4340   27.8460   48.7000 C   0  0  0  0  0  0  0  0  0  0  0  0
   30.7550   27.7370   49.8640 N   0  0  0  0  0  0  0  0  0  0  0  0
   29.4920   27.3280   49.6260 C   0  0  0  0  0  0  0  0  0  0  0  0
   28.3810   27.0510   50.3810 C   0  0  0  0  0  0  0  0  0  0  0  0
   27.2480   26.6470   49.7620 N   0  0  0  0  0  0  0  0  0  0  0  0
   27.1750   26.5090   48.4340 C   0  0  0  0  0  0  0  0  0  0  0  0
   28.2470   26.7730   47.6750 N   0  0  0  0  0  0  0  0  0  0  0  0
   29.3770   27.1740   48.2650 C   0  0  0  0  0  0  0  0  0  0  0  0
   37.3980   30.1980   51.0050 C   0  0  0  0  0  0  0  0  0  0  0  0
   38.2210   31.0160   50.1490 C   0  0  0  0  0  0  0  0  0  0  0  0
   37.8530   31.1540   48.8030 C   0  0  0  0  0  0  0  0  0  0  0  0
   36.7370   30.5100   48.3700 N   0  0  0  0  0  0  0  0  0  0  0  0
   35.9820   29.7430   49.2110 C   0  0  0  0  0  0  0  0  0  0  0  0
   36.3210   29.6060   50.4830 N   0  0  0  0  0  0  0  0  0  0  0  0
   38.6870   31.9920   47.9070 C   0  0  0  0  0  0  0  0  0  0  0  0
   37.8070   32.5740   47.0080 F   0  0  0  0  0  0  0  0  0  0  0  0
   39.6160   31.2410   47.2410 F   0  0  0  0  0  0  0  0  0  0  0  0
   39.2610   33.0290   48.6260 F   0  0  0  0  0  0  0  0  0  0  0  0
   28.4870   27.2060   51.7950 N   0  0  0  0  0  0  0  0  0  0  0  0
   35.4865   28.4617   46.6610 H   0  0  0  0  0  0  0  0  0  0  0  0
   33.0253   27.4510   46.4137 H   0  0  0  0  0  0  0  0  0  0  0  0
   30.7787   27.4685   46.7111 H   0  0  0  0  0  0  0  0  0  0  0  0
   26.2361   26.1792   47.9653 H   0  0  0  0  0  0  0  0  0  0  0  0
   37.6523   30.0644   52.0668 H   0  0  0  0  0  0  0  0  0  0  0  0
   39.1162   31.5198   50.5425 H   0  0  0  0  0  0  0  0  0  0  0  0
   27.6751   27.0079   52.3971 H   0  0  0  0  0  0  0  0  0  0  0  0
   29.3754   27.5160   52.2139 H   0  0  0  0  0  0  0  0  0  0  0  0
  1 19  1  0
  1  5  2  0
  2  1  1  0
  3  2  2  0
  3  4  1  0
  4  7  1  0
  4  5  1  0
  6 14  1  0
  6  7  1  0
  7  8  2  0
  9  8  1  0
  9 10  2  0
 10 25  1  0
 11 10  1  0
 12 11  2  0
 13 14  2  0
 13 12  1  0
 14  9  1  0
 16 15  2  0
 17 16  1  0
 18 17  2  0
 18 19  1  0
 19 20  2  0
 20 15  1  0
 21 24  1  0
 21 17  1  0
 22 21  1  0
 23 21  1  0
  2 26  1  0
  3 27  1  0
  6 28  1  0
 12 29  1  0
 15 30  1  0
 16 31  1  0
 25 32  1  0
 25 33  1  0
M  ISO  6  26  14  27  14  28   9  29  14  30  14  31  14
M  END
>  <minimizedAffinity>  (1) 
-7.35873652

>  <minimizedRMSD>  (1) 
0.662048519

$$$$
