
     RDKit          3D

 37 41  0  0  0  0  0  0  0  0999 V2000
   34.8040   29.0540   48.8020 C   0  0  0  0  0  0  0  0  0  0  0  0
   34.7050   28.5260   47.5140 C   0  0  0  0  0  0  0  0  0  0  0  0
   33.4400   28.0330   47.3530 C   0  0  0  0  0  0  0  0  0  0  0  0
   32.7760   28.2640   48.5430 N   0  0  0  0  0  0  0  0  0  0  0  0
   33.6210   28.8670   49.3630 N   0  0  0  0  0  0  0  0  0  0  0  0
   30.5530   27.5770   47.7340 N   0  0  0  0  0  0  0  0  0  0  0  0
   31.4240   27.8810   48.7450 C   0  0  0  0  0  0  0  0  0  0  0  0
   30.7220   27.7340   49.8800 N   0  0  0  0  0  0  0  0  0  0  0  0
   29.4580   27.3540   49.6270 C   0  0  0  0  0  0  0  0  0  0  0  0
   28.3380   27.0640   50.3450 C   0  0  0  0  0  0  0  0  0  0  0  0
   27.2050   26.7020   49.7090 N   0  0  0  0  0  0  0  0  0  0  0  0
   27.1460   26.6180   48.3660 C   0  0  0  0  0  0  0  0  0  0  0  0
   28.2280   26.8960   47.6280 N   0  0  0  0  0  0  0  0  0  0  0  0
   29.3570   27.2560   48.2680 C   0  0  0  0  0  0  0  0  0  0  0  0
   37.8070   29.5970   50.8380 C   0  0  0  0  0  0  0  0  0  0  0  0
   38.2180   30.8880   50.4040 C   0  0  0  0  0  0  0  0  0  0  0  0
   37.4630   31.5290   49.4380 C   0  0  0  0  0  0  0  0  0  0  0  0
   36.3710   30.9180   48.9390 N   0  0  0  0  0  0  0  0  0  0  0  0
   35.9870   29.6740   49.3660 C   0  0  0  0  0  0  0  0  0  0  0  0
   36.7080   29.0550   50.2940 N   0  0  0  0  0  0  0  0  0  0  0  0
   37.8010   32.8830   48.9100 C   0  0  0  0  0  0  0  0  0  0  0  0
   39.0390   32.9730   48.1170 C   0  0  0  0  0  0  0  0  0  0  0  0
   39.0200   33.5900   49.4650 C   0  0  0  0  0  0  0  0  0  0  0  0
   28.4260   27.1610   51.7720 N   0  0  0  0  0  0  0  0  0  0  0  0
   35.5054   28.5094   46.7596 H   0  0  0  0  0  0  0  0  0  0  0  0
   33.0314   27.5483   46.4540 H   0  0  0  0  0  0  0  0  0  0  0  0
   30.7750   27.5911   46.7283 H   0  0  0  0  0  0  0  0  0  0  0  0
   26.2077   26.3206   47.8749 H   0  0  0  0  0  0  0  0  0  0  0  0
   38.3795   29.0543   51.6046 H   0  0  0  0  0  0  0  0  0  0  0  0
   39.1146   31.3651   50.8264 H   0  0  0  0  0  0  0  0  0  0  0  0
   36.7464   33.1651   48.7748 H   0  0  0  0  0  0  0  0  0  0  0  0
   39.6399   32.0689   47.9395 H   0  0  0  0  0  0  0  0  0  0  0  0
   39.2799   33.3392   47.1081 H   0  0  0  0  0  0  0  0  0  0  0  0
   39.0234   34.6847   49.5723 H   0  0  0  0  0  0  0  0  0  0  0  0
   39.6302   33.5032   50.3761 H   0  0  0  0  0  0  0  0  0  0  0  0
   27.6028   26.9506   52.3542 H   0  0  0  0  0  0  0  0  0  0  0  0
   29.3124   27.4411   52.2155 H   0  0  0  0  0  0  0  0  0  0  0  0
  1  5  2  0
  1 19  1  0
  2  1  1  0
  3  2  2  0
  3  4  1  0
  4  7  1  0
  4  5  1  0
  6 14  1  0
  6  7  1  0
  7  8  2  0
  9  8  1  0
  9 10  2  0
 10 24  1  0
 11 10  1  0
 12 11  2  0
 13 14  2  0
 13 12  1  0
 14  9  1  0
 16 15  2  0
 17 16  1  0
 18 19  1  0
 18 17  2  0
 19 20  2  0
 20 15  1  0
 21 17  1  0
 21 23  1  0
 22 21  1  0
 22 23  1  0
  2 25  1  0
  3 26  1  0
  6 27  1  0
 12 28  1  0
 15 29  1  0
 16 30  1  0
 21 31  1  0
 22 32  1  0
 22 33  1  0
 23 34  1  0
 23 35  1  0
 24 36  1  0
 24 37  1  0
M  ISO  8  25  14  26  14  27   9  28  14  29  14  30  14  31  13  32  13
M  ISO  3  33  13  34  13  35  13
M  END
>  <minimizedAffinity>  (1) 
-7.29672384

>  <minimizedRMSD>  (1) 
0.317670166

$$$$
