
     RDKit          3D

 31 34  0  0  0  0  0  0  0  0999 V2000
   34.7750   29.0980   48.6710 C   0  0  0  0  0  0  0  0  0  0  0  0
   34.6720   28.5270   47.4120 C   0  0  0  0  0  0  0  0  0  0  0  0
   33.4100   28.0070   47.2900 C   0  0  0  0  0  0  0  0  0  0  0  0
   32.7580   28.2700   48.4820 N   0  0  0  0  0  0  0  0  0  0  0  0
   33.6040   28.9190   49.2730 N   0  0  0  0  0  0  0  0  0  0  0  0
   30.5570   27.4960   47.7370 N   0  0  0  0  0  0  0  0  0  0  0  0
   31.4240   27.8660   48.7000 C   0  0  0  0  0  0  0  0  0  0  0  0
   30.7460   27.7560   49.8650 N   0  0  0  0  0  0  0  0  0  0  0  0
   29.4820   27.3260   49.6300 C   0  0  0  0  0  0  0  0  0  0  0  0
   28.3730   27.0380   50.3880 C   0  0  0  0  0  0  0  0  0  0  0  0
   27.2490   26.6160   49.7650 N   0  0  0  0  0  0  0  0  0  0  0  0
   27.1810   26.4690   48.4280 C   0  0  0  0  0  0  0  0  0  0  0  0
   28.2440   26.7420   47.6650 N   0  0  0  0  0  0  0  0  0  0  0  0
   29.3710   27.1640   48.2770 C   0  0  0  0  0  0  0  0  0  0  0  0
   37.6020   29.9560   50.8530 C   0  0  0  0  0  0  0  0  0  0  0  0
   38.1950   31.0480   50.1560 C   0  0  0  0  0  0  0  0  0  0  0  0
   37.6070   31.4470   48.9680 C   0  0  0  0  0  0  0  0  0  0  0  0
   36.5080   30.7930   48.5280 N   0  0  0  0  0  0  0  0  0  0  0  0
   35.9590   29.7600   49.2000 C   0  0  0  0  0  0  0  0  0  0  0  0
   36.5110   29.3530   50.3550 N   0  0  0  0  0  0  0  0  0  0  0  0
   38.1210   32.5040   48.2240 O   0  0  0  0  0  0  0  0  0  0  0  0
   28.4730   27.2010   51.7920 N   0  0  0  0  0  0  0  0  0  0  0  0
   35.4622   28.4967   46.6474 H   0  0  0  0  0  0  0  0  0  0  0  0
   32.9962   27.4831   46.4157 H   0  0  0  0  0  0  0  0  0  0  0  0
   30.7722   27.4710   46.7300 H   0  0  0  0  0  0  0  0  0  0  0  0
   26.2467   26.1228   47.9619 H   0  0  0  0  0  0  0  0  0  0  0  0
   38.0387   29.6067   51.8002 H   0  0  0  0  0  0  0  0  0  0  0  0
   39.0884   31.5560   50.5480 H   0  0  0  0  0  0  0  0  0  0  0  0
   37.6838   32.7719   47.3771 H   0  0  0  0  0  0  0  0  0  0  0  0
   27.6626   26.9950   52.3934 H   0  0  0  0  0  0  0  0  0  0  0  0
   29.3561   27.5255   52.2112 H   0  0  0  0  0  0  0  0  0  0  0  0
  1 19  1  0
  1  5  2  0
  2  1  1  0
  3  2  2  0
  3  4  1  0
  4  7  1  0
  4  5  1  0
  6 14  1  0
  6  7  1  0
  7  8  2  0
  9  8  1  0
  9 10  2  0
 10 22  1  0
 11 10  1  0
 12 11  2  0
 13 14  2  0
 13 12  1  0
 14  9  1  0
 16 15  2  0
 17 16  1  0
 18 17  2  0
 18 19  1  0
 19 20  2  0
 20 15  1  0
 21 17  1  0
  2 23  1  0
  3 24  1  0
  6 25  1  0
 12 26  1  0
 15 27  1  0
 16 28  1  0
 21 29  1  0
 22 30  1  0
 22 31  1  0
M  ISO  7  23  14  24  14  25   9  26  14  27  14  28  14  29   3
M  END
>  <minimizedAffinity>  (1) 
-6.53609896

>  <minimizedRMSD>  (1) 
0.213809654

$$$$
