
     RDKit          3D

 28 30  0  0  0  0  0  0  0  0999 V2000
   37.5950   31.1290   49.6060 C   0  0  0  0  0  0  0  0  0  0  0  0
   37.8310   30.7060   50.8620 C   0  0  0  0  0  0  0  0  0  0  0  0
   37.0330   29.7630   51.4330 C   0  0  0  0  0  0  0  0  0  0  0  0
   35.9840   29.2420   50.7260 N   0  0  0  0  0  0  0  0  0  0  0  0
   35.7650   29.6720   49.4820 C   0  0  0  0  0  0  0  0  0  0  0  0
   36.5600   30.6050   48.9290 N   0  0  0  0  0  0  0  0  0  0  0  0
   35.8330   30.2630   46.5240 Cl  0  0  0  0  0  0  0  0  0  0  0  0
   34.5800   29.3410   47.3410 C   0  0  0  0  0  0  0  0  0  0  0  0
   34.6480   29.1310   48.7000 C   0  0  0  0  0  0  0  0  0  0  0  0
   33.6560   28.4050   49.3250 C   0  0  0  0  0  0  0  0  0  0  0  0
   32.5720   27.8650   48.6420 C   0  0  0  0  0  0  0  0  0  0  0  0
   32.5320   28.0920   47.2840 C   0  0  0  0  0  0  0  0  0  0  0  0
   31.2200   27.4720   46.2780 Cl  0  0  0  0  0  0  0  0  0  0  0  0
   33.5270   28.8230   46.6430 C   0  0  0  0  0  0  0  0  0  0  0  0
   39.5140   34.1780   48.9240 C   0  0  0  0  0  0  0  0  0  0  0  0
   39.9470   33.9850   47.6000 C   0  0  0  0  0  0  0  0  0  0  0  0
   39.5650   32.7950   46.9600 C   0  0  0  0  0  0  0  0  0  0  0  0
   38.8060   31.9110   47.6550 N   0  0  0  0  0  0  0  0  0  0  0  0
   38.4080   32.1340   48.9360 C   0  0  0  0  0  0  0  0  0  0  0  0
   38.7650   33.2720   49.5650 N   0  0  0  0  0  0  0  0  0  0  0  0
   38.6743   31.1253   51.4304 H   0  0  0  0  0  0  0  0  0  0  0  0
   37.2308   29.4208   52.4596 H   0  0  0  0  0  0  0  0  0  0  0  0
   33.7254   28.2462   50.4113 H   0  0  0  0  0  0  0  0  0  0  0  0
   31.7898   27.2885   49.1575 H   0  0  0  0  0  0  0  0  0  0  0  0
   33.4645   28.9862   45.5570 H   0  0  0  0  0  0  0  0  0  0  0  0
   39.7994   35.1015   49.4490 H   0  0  0  0  0  0  0  0  0  0  0  0
   40.5618   34.7379   47.0851 H   0  0  0  0  0  0  0  0  0  0  0  0
   39.8723   32.5855   45.9248 H   0  0  0  0  0  0  0  0  0  0  0  0
  1  2  2  0
  2  3  1  0
  4  3  2  0
  5  4  1  0
  6  5  2  0
  6  1  1  0
  7  8  1  0
  8  9  2  0
  9 10  1  0
  9  5  1  0
 11 10  2  0
 12 11  1  0
 13 12  1  0
 14 12  2  0
 14  8  1  0
 15 20  2  0
 16 15  1  0
 17 16  2  0
 17 18  1  0
 18 19  2  0
 19 20  1  0
 19  1  1  0
  2 21  1  0
  3 22  1  0
 10 23  1  0
 11 24  1  0
 14 25  1  0
 15 26  1  0
 16 27  1  0
 17 28  1  0
M  ISO  8  21  14  22  14  23  14  24  14  25  14  26  14  27  14  28  14
M  END
>  <minimizedAffinity>  (1) 
-6.09361458

>  <minimizedRMSD>  (1) 
2.63256311

$$$$
