
     RDKit          3D

 27 29  0  0  0  0  0  0  0  0999 V2000
   35.9750   30.2380   48.6020 C   0  0  0  0  0  0  0  0  0  0  0  0
   36.0100   29.2040   49.4850 C   0  0  0  0  0  0  0  0  0  0  0  0
   34.9960   28.2870   49.4830 C   0  0  0  0  0  0  0  0  0  0  0  0
   33.9670   28.4060   48.6080 N   0  0  0  0  0  0  0  0  0  0  0  0
   33.9590   29.4320   47.7520 C   0  0  0  0  0  0  0  0  0  0  0  0
   34.9480   30.3680   47.7200 N   0  0  0  0  0  0  0  0  0  0  0  0
   38.0890   33.1140   49.4660 C   0  0  0  0  0  0  0  0  0  0  0  0
   38.9970   33.1680   48.3840 C   0  0  0  0  0  0  0  0  0  0  0  0
   38.8540   32.2020   47.3760 C   0  0  0  0  0  0  0  0  0  0  0  0
   37.8620   31.2780   47.4940 N   0  0  0  0  0  0  0  0  0  0  0  0
   37.0160   31.2580   48.5400 C   0  0  0  0  0  0  0  0  0  0  0  0
   37.1360   32.1850   49.5300 N   0  0  0  0  0  0  0  0  0  0  0  0
   32.8660   29.5970   46.7910 C   0  0  0  0  0  0  0  0  0  0  0  0
   32.0290   28.5330   46.5310 C   0  0  0  0  0  0  0  0  0  0  0  0
   31.0040   28.6940   45.6290 C   0  0  0  0  0  0  0  0  0  0  0  0
   30.8040   29.9130   44.9790 C   0  0  0  0  0  0  0  0  0  0  0  0
   31.6430   30.9450   45.2560 C   0  0  0  0  0  0  0  0  0  0  0  0
   32.6430   30.7760   46.1400 N   0  0  0  0  0  0  0  0  0  0  0  0
   36.8457   29.1066   50.1936 H   0  0  0  0  0  0  0  0  0  0  0  0
   35.0150   27.4485   50.1947 H   0  0  0  0  0  0  0  0  0  0  0  0
   38.1711   33.8561   50.2738 H   0  0  0  0  0  0  0  0  0  0  0  0
   39.7833   33.9356   48.3341 H   0  0  0  0  0  0  0  0  0  0  0  0
   39.5300   32.1920   46.5083 H   0  0  0  0  0  0  0  0  0  0  0  0
   32.1791   27.5685   47.0382 H   0  0  0  0  0  0  0  0  0  0  0  0
   30.3316   27.8498   45.4164 H   0  0  0  0  0  0  0  0  0  0  0  0
   29.9834   30.0356   44.2568 H   0  0  0  0  0  0  0  0  0  0  0  0
   31.5050   31.9164   44.7587 H   0  0  0  0  0  0  0  0  0  0  0  0
  1  2  2  0
  3  2  1  0
  4  3  2  0
  5  4  1  0
  6  5  2  0
  6  1  1  0
  7 12  2  0
  8  7  1  0
  9 10  1  0
  9  8  2  0
 10 11  2  0
 11  1  1  0
 11 12  1  0
 13  5  1  0
 14 13  2  0
 15 14  1  0
 16 17  1  0
 16 15  2  0
 17 18  2  0
 18 13  1  0
  2 19  1  0
  3 20  1  0
  7 21  1  0
  8 22  1  0
  9 23  1  0
 14 24  1  0
 15 25  1  0
 16 26  1  0
 17 27  1  0
M  ISO  8  19  14  20  14  21  14  22  14  23  14  24  14  25  14  26  14
M  ISO  1  27  14
M  END
>  <minimizedAffinity>  (1) 
-4.97930765

>  <minimizedRMSD>  (1) 
0.500026703

$$$$
