
     RDKit          3D

 24 26  0  0  0  0  0  0  0  0999 V2000
   36.0000   30.2780   48.6080 C   0  0  0  0  0  0  0  0  0  0  0  0
   36.0040   29.2510   49.4840 C   0  0  0  0  0  0  0  0  0  0  0  0
   34.9990   28.3270   49.4680 C   0  0  0  0  0  0  0  0  0  0  0  0
   33.9930   28.4360   48.5730 N   0  0  0  0  0  0  0  0  0  0  0  0
   34.0000   29.4640   47.7050 C   0  0  0  0  0  0  0  0  0  0  0  0
   34.9890   30.3920   47.7050 N   0  0  0  0  0  0  0  0  0  0  0  0
   38.1030   33.1500   49.4990 C   0  0  0  0  0  0  0  0  0  0  0  0
   39.0240   33.2030   48.4550 C   0  0  0  0  0  0  0  0  0  0  0  0
   38.9080   32.2340   47.4440 C   0  0  0  0  0  0  0  0  0  0  0  0
   37.9130   31.3010   47.5280 N   0  0  0  0  0  0  0  0  0  0  0  0
   37.0400   31.2980   48.5710 C   0  0  0  0  0  0  0  0  0  0  0  0
   37.1470   32.2210   49.5430 N   0  0  0  0  0  0  0  0  0  0  0  0
   32.9220   29.6240   46.7100 C   0  0  0  0  0  0  0  0  0  0  0  0
   32.1600   28.5680   46.3270 C   0  0  0  0  0  0  0  0  0  0  0  0
   30.9940   29.3160   45.0940 S   0  0  0  0  0  0  0  0  0  0  0  0
   31.8200   31.0200   45.3590 C   0  0  0  0  0  0  0  0  0  0  0  0
   32.6100   30.7520   46.1290 N   0  0  0  0  0  0  0  0  0  0  0  0
   36.8212   29.1581   50.2145 H   0  0  0  0  0  0  0  0  0  0  0  0
   35.0085   27.4927   50.1848 H   0  0  0  0  0  0  0  0  0  0  0  0
   38.1659   33.8932   50.3075 H   0  0  0  0  0  0  0  0  0  0  0  0
   39.8099   33.9720   48.4234 H   0  0  0  0  0  0  0  0  0  0  0  0
   39.6088   32.2265   46.5962 H   0  0  0  0  0  0  0  0  0  0  0  0
   32.2196   27.5231   46.6655 H   0  0  0  0  0  0  0  0  0  0  0  0
   31.5927   31.9908   44.8943 H   0  0  0  0  0  0  0  0  0  0  0  0
  1  2  2  0
  3  2  1  0
  4  3  2  0
  5  6  2  0
  5  4  1  0
  6  1  1  0
  7 12  2  0
  8  7  1  0
  9 10  1  0
  9  8  2  0
 10 11  2  0
 11  1  1  0
 11 12  1  0
 13  5  1  0
 14 13  2  0
 15 16  1  0
 15 14  1  0
 16 17  2  0
 17 13  1  0
  2 18  1  0
  3 19  1  0
  7 20  1  0
  8 21  1  0
  9 22  1  0
 14 23  1  0
 16 24  1  0
M  ISO  7  18  14  19  14  20  14  21  14  22  14  23  14  24  14
M  END
>  <minimizedAffinity>  (1) 
-4.92472696

>  <minimizedRMSD>  (1) 
0.748412848

$$$$
