
     RDKit          3D

 19 20  0  0  0  0  0  0  0  0999 V2000
   35.9230   30.2660   48.6190 C   0  0  0  0  0  0  0  0  0  0  0  0
   35.9740   29.1990   49.4700 C   0  0  0  0  0  0  0  0  0  0  0  0
   34.9480   28.2960   49.4800 C   0  0  0  0  0  0  0  0  0  0  0  0
   33.8880   28.4520   48.6570 N   0  0  0  0  0  0  0  0  0  0  0  0
   33.8550   29.5160   47.8220 C   0  0  0  0  0  0  0  0  0  0  0  0
   34.8600   30.4200   47.7960 N   0  0  0  0  0  0  0  0  0  0  0  0
   38.1150   33.0730   49.4850 C   0  0  0  0  0  0  0  0  0  0  0  0
   38.9920   33.1360   48.3850 C   0  0  0  0  0  0  0  0  0  0  0  0
   38.8020   32.1850   47.3450 C   0  0  0  0  0  0  0  0  0  0  0  0
   37.7970   31.2860   47.4770 N   0  0  0  0  0  0  0  0  0  0  0  0
   36.9810   31.2680   48.5550 C   0  0  0  0  0  0  0  0  0  0  0  0
   37.1490   32.1620   49.5460 N   0  0  0  0  0  0  0  0  0  0  0  0
   32.7410   29.6220   47.0010 O   0  0  0  0  0  0  0  0  0  0  0  0
   36.8345   29.0673   50.1424 H   0  0  0  0  0  0  0  0  0  0  0  0
   34.9856   27.4352   50.1638 H   0  0  0  0  0  0  0  0  0  0  0  0
   38.2316   33.7916   50.3097 H   0  0  0  0  0  0  0  0  0  0  0  0
   39.7912   33.8899   48.3324 H   0  0  0  0  0  0  0  0  0  0  0  0
   39.4528   32.1794   46.4582 H   0  0  0  0  0  0  0  0  0  0  0  0
   32.6620   30.3801   46.3692 H   0  0  0  0  0  0  0  0  0  0  0  0
  1  2  2  0
  2  3  1  0
  4  3  2  0
  5  4  1  0
  6  5  2  0
  6  1  1  0
  7 12  2  0
  8  7  1  0
  9 10  1  0
  9  8  2  0
 10 11  2  0
 11  1  1  0
 11 12  1  0
 13  5  1  0
  2 14  1  0
  3 15  1  0
  7 16  1  0
  8 17  1  0
  9 18  1  0
 13 19  1  0
M  ISO  6  14  14  15  14  16  14  17  14  18  14  19   3
M  END
>  <minimizedAffinity>  (1) 
-4.63595629

>  <minimizedRMSD>  (1) 
0.151968658

$$$$
