
     RDKit          3D

 46 51  0  0  0  0  0  0  0  0999 V2000
   37.3240   30.9870   49.6610 C   0  0  0  0  0  0  0  0  0  0  0  0
   37.5480   30.6120   50.9650 C   0  0  0  0  0  0  0  0  0  0  0  0
   36.7250   29.6850   51.5360 C   0  0  0  0  0  0  0  0  0  0  0  0
   35.6980   29.1420   50.8160 N   0  0  0  0  0  0  0  0  0  0  0  0
   35.5140   29.5300   49.5620 C   0  0  0  0  0  0  0  0  0  0  0  0
   36.3090   30.4450   48.9690 N   0  0  0  0  0  0  0  0  0  0  0  0
   34.4230   28.9530   48.8000 C   0  0  0  0  0  0  0  0  0  0  0  0
   34.4860   28.8420   47.4350 C   0  0  0  0  0  0  0  0  0  0  0  0
   33.5400   28.3230   46.5760 C   0  0  0  0  0  0  0  0  0  0  0  0
   32.3970   27.8640   47.2090 C   0  0  0  0  0  0  0  0  0  0  0  0
   31.4170   27.3360   46.4280 N   0  0  0  0  0  0  0  0  0  0  0  0
   30.2680   26.8630   46.9430 C   0  0  0  0  0  0  0  0  0  0  0  0
   30.0720   26.9140   48.3180 C   0  0  0  0  0  0  0  0  0  0  0  0
   31.0700   27.4520   49.1180 C   0  0  0  0  0  0  0  0  0  0  0  0
   32.2590   27.9420   48.5890 C   0  0  0  0  0  0  0  0  0  0  0  0
   33.2540   28.4770   49.3750 C   0  0  0  0  0  0  0  0  0  0  0  0
   39.4160   33.9380   48.9960 C   0  0  0  0  0  0  0  0  0  0  0  0
   39.7600   33.7580   47.6420 C   0  0  0  0  0  0  0  0  0  0  0  0
   39.2640   32.6170   46.9770 C   0  0  0  0  0  0  0  0  0  0  0  0
   38.4880   31.7750   47.6970 N   0  0  0  0  0  0  0  0  0  0  0  0
   38.1700   31.9740   49.0030 C   0  0  0  0  0  0  0  0  0  0  0  0
   38.6380   33.0520   49.6370 N   0  0  0  0  0  0  0  0  0  0  0  0
   40.4050   31.2570   45.3520 C   0  0  0  0  0  0  0  0  0  0  0  0
   39.5380   32.3040   45.5830 C   0  0  0  0  0  0  0  0  0  0  0  0
   38.9750   32.9990   44.5370 C   0  0  0  0  0  0  0  0  0  0  0  0
   39.2580   32.6740   43.2160 C   0  0  0  0  0  0  0  0  0  0  0  0
   40.1300   31.6200   42.9990 C   0  0  0  0  0  0  0  0  0  0  0  0
   40.7170   30.8960   44.0360 C   0  0  0  0  0  0  0  0  0  0  0  0
   40.2850   31.4500   41.6160 O   0  0  0  0  0  0  0  0  0  0  0  0
   39.2520   32.1850   40.9660 C   0  0  0  0  0  0  0  0  0  0  0  0
   38.8970   33.1280   41.9550 O   0  0  0  0  0  0  0  0  0  0  0  0
   38.3771   31.0521   51.5386 H   0  0  0  0  0  0  0  0  0  0  0  0
   36.8887   29.3741   52.5784 H   0  0  0  0  0  0  0  0  0  0  0  0
   35.4083   29.2142   46.9651 H   0  0  0  0  0  0  0  0  0  0  0  0
   33.6808   28.2777   45.4860 H   0  0  0  0  0  0  0  0  0  0  0  0
   29.4939   26.4415   46.2848 H   0  0  0  0  0  0  0  0  0  0  0  0
   29.1413   26.5342   48.7646 H   0  0  0  0  0  0  0  0  0  0  0  0
   30.9155   27.4922   50.2064 H   0  0  0  0  0  0  0  0  0  0  0  0
   33.1214   28.5274   50.4658 H   0  0  0  0  0  0  0  0  0  0  0  0
   39.7912   34.8193   49.5369 H   0  0  0  0  0  0  0  0  0  0  0  0
   40.3970   34.4860   47.1183 H   0  0  0  0  0  0  0  0  0  0  0  0
   40.8486   30.7090   46.1963 H   0  0  0  0  0  0  0  0  0  0  0  0
   38.2863   33.8295   44.7513 H   0  0  0  0  0  0  0  0  0  0  0  0
   41.4059   30.0646   43.8259 H   0  0  0  0  0  0  0  0  0  0  0  0
   39.6246   32.6799   40.0571 H   0  0  0  0  0  0  0  0  0  0  0  0
   38.4119   31.5625   40.6243 H   0  0  0  0  0  0  0  0  0  0  0  0
  1  2  2  0
  2  3  1  0
  4  3  2  0
  5  4  1  0
  6  5  2  0
  6  1  1  0
  7 16  1  0
  7  5  1  0
  8  7  2  0
  9 10  2  0
  9  8  1  0
 10 15  1  0
 11 12  2  0
 11 10  1  0
 12 13  1  0
 13 14  2  0
 15 14  1  0
 15 16  2  0
 17 22  2  0
 18 17  1  0
 19 18  2  0
 19 20  1  0
 20 21  2  0
 21 22  1  0
 21  1  1  0
 23 24  2  0
 24 19  1  0
 25 24  1  0
 26 25  2  0
 27 26  1  0
 27 28  2  0
 28 23  1  0
 29 27  1  0
 30 29  1  0
 30 31  1  0
 31 26  1  0
  2 32  1  0
  3 33  1  0
  8 34  1  0
  9 35  1  0
 12 36  1  0
 13 37  1  0
 14 38  1  0
 16 39  1  0
 17 40  1  0
 18 41  1  0
 23 42  1  0
 25 43  1  0
 28 44  1  0
 30 45  1  0
 30 46  1  0
M  ISO  8  32  14  33  14  34  14  35  14  36  14  37  14  38  14  39  14
M  ISO  7  40  14  41  14  42  14  43  14  44  14  45  13  46  13
M  END
>  <minimizedAffinity>  (1) 
-8.28797054

>  <minimizedRMSD>  (1) 
0.486915588

$$$$
