
     RDKit          3D

 47 51  0  0  0  0  0  0  0  0999 V2000
   37.5890   31.2400   49.4660 C   0  0  0  0  0  0  0  0  0  0  0  0
   37.8580   30.7040   50.7050 C   0  0  0  0  0  0  0  0  0  0  0  0
   37.0040   29.7430   51.1780 C   0  0  0  0  0  0  0  0  0  0  0  0
   35.9320   29.3370   50.4490 N   0  0  0  0  0  0  0  0  0  0  0  0
   35.7160   29.8860   49.2580 C   0  0  0  0  0  0  0  0  0  0  0  0
   36.5310   30.8370   48.7490 N   0  0  0  0  0  0  0  0  0  0  0  0
   34.5700   29.4550   48.4720 C   0  0  0  0  0  0  0  0  0  0  0  0
   34.2110   30.1030   47.3170 C   0  0  0  0  0  0  0  0  0  0  0  0
   33.1600   29.8110   46.4780 C   0  0  0  0  0  0  0  0  0  0  0  0
   32.3970   28.7210   46.8840 C   0  0  0  0  0  0  0  0  0  0  0  0
   31.3430   28.3730   46.1060 N   0  0  0  0  0  0  0  0  0  0  0  0
   30.5390   27.3410   46.4010 C   0  0  0  0  0  0  0  0  0  0  0  0
   30.7970   26.6030   47.5460 C   0  0  0  0  0  0  0  0  0  0  0  0
   31.8740   26.9530   48.3470 C   0  0  0  0  0  0  0  0  0  0  0  0
   32.6980   28.0200   48.0360 C   0  0  0  0  0  0  0  0  0  0  0  0
   33.7730   28.3750   48.8310 C   0  0  0  0  0  0  0  0  0  0  0  0
   39.5360   34.3340   48.9890 C   0  0  0  0  0  0  0  0  0  0  0  0
   40.0970   34.1280   47.7130 C   0  0  0  0  0  0  0  0  0  0  0  0
   39.8050   32.9330   47.0250 C   0  0  0  0  0  0  0  0  0  0  0  0
   38.9840   32.0610   47.6720 N   0  0  0  0  0  0  0  0  0  0  0  0
   38.4630   32.2810   48.8870 C   0  0  0  0  0  0  0  0  0  0  0  0
   38.7380   33.4130   49.5400 N   0  0  0  0  0  0  0  0  0  0  0  0
   40.3690   32.6770   45.6830 C   0  0  0  0  0  0  0  0  0  0  0  0
   40.6220   31.2350   45.3850 C   0  0  0  0  0  0  0  0  0  0  0  0
   39.4130   30.4940   44.9260 C   0  0  0  0  0  0  0  0  0  0  0  0
   38.5350   31.1980   44.1450 O   0  0  0  0  0  0  0  0  0  0  0  0
   39.1120   32.3240   43.5590 C   0  0  0  0  0  0  0  0  0  0  0  0
   39.5810   33.3140   44.6010 C   0  0  0  0  0  0  0  0  0  0  0  0
   38.7264   31.0350   51.2934 H   0  0  0  0  0  0  0  0  0  0  0  0
   37.1893   29.2927   52.1643 H   0  0  0  0  0  0  0  0  0  0  0  0
   34.8386   30.9585   47.0269 H   0  0  0  0  0  0  0  0  0  0  0  0
   32.9426   30.3882   45.5672 H   0  0  0  0  0  0  0  0  0  0  0  0
   29.6918   27.0852   45.7476 H   0  0  0  0  0  0  0  0  0  0  0  0
   30.1558   25.7509   47.8158 H   0  0  0  0  0  0  0  0  0  0  0  0
   32.0786   26.3660   49.2545 H   0  0  0  0  0  0  0  0  0  0  0  0
   33.9961   27.8041   49.7444 H   0  0  0  0  0  0  0  0  0  0  0  0
   39.7566   35.2616   49.5375 H   0  0  0  0  0  0  0  0  0  0  0  0
   40.7521   34.8874   47.2612 H   0  0  0  0  0  0  0  0  0  0  0  0
   41.3576   33.1585   45.7115 H   0  0  0  0  0  0  0  0  0  0  0  0
   41.3868   31.1728   44.5968 H   0  0  0  0  0  0  0  0  0  0  0  0
   40.9471   30.7660   46.3254 H   0  0  0  0  0  0  0  0  0  0  0  0
   39.7526   29.6221   44.3477 H   0  0  0  0  0  0  0  0  0  0  0  0
   38.8570   30.2404   45.8406 H   0  0  0  0  0  0  0  0  0  0  0  0
   39.9738   32.0089   42.9523 H   0  0  0  0  0  0  0  0  0  0  0  0
   38.3513   32.8155   42.9347 H   0  0  0  0  0  0  0  0  0  0  0  0
   40.2079   34.0721   44.1089 H   0  0  0  0  0  0  0  0  0  0  0  0
   38.6869   33.7607   45.0605 H   0  0  0  0  0  0  0  0  0  0  0  0
  1  2  2  0
  2  3  1  0
  4  3  2  0
  5  4  1  0
  6  5  2  0
  6  1  1  0
  7 16  1  0
  7  5  1  0
  8  7  2  0
  9 10  2  0
  9  8  1  0
 10 15  1  0
 11 12  2  0
 11 10  1  0
 12 13  1  0
 13 14  2  0
 15 14  1  0
 15 16  2  0
 17 22  2  0
 18 17  1  0
 19 20  1  0
 19 18  2  0
 20 21  2  0
 21  1  1  0
 21 22  1  0
 23 19  1  0
 24 23  1  0
 25 24  1  0
 26 25  1  0
 27 26  1  0
 27 28  1  0
 28 23  1  0
  2 29  1  0
  3 30  1  0
  8 31  1  0
  9 32  1  0
 12 33  1  0
 13 34  1  0
 14 35  1  0
 16 36  1  0
 17 37  1  0
 18 38  1  0
 23 39  1  0
 24 40  1  0
 24 41  1  0
 25 42  1  0
 25 43  1  0
 27 44  1  0
 27 45  1  0
 28 46  1  0
 28 47  1  0
M  ISO  8  29  14  30  14  31  14  32  14  33  14  34  14  35  14  36  14
M  ISO  8  37  14  38  14  39  13  40  13  41  13  42  13  43  13  44  13
M  ISO  3  45  13  46  13  47  13
M  END
>  <minimizedAffinity>  (1) 
-7.93769836

>  <minimizedRMSD>  (1) 
0.452348381

$$$$
