
     RDKit          3D

 39 42  0  0  0  0  0  0  0  0999 V2000
   37.5900   31.2270   49.4560 C   0  0  0  0  0  0  0  0  0  0  0  0
   37.8560   30.6850   50.6860 C   0  0  0  0  0  0  0  0  0  0  0  0
   37.0130   29.7220   51.1710 C   0  0  0  0  0  0  0  0  0  0  0  0
   35.9380   29.3170   50.4410 N   0  0  0  0  0  0  0  0  0  0  0  0
   35.7160   29.8690   49.2510 C   0  0  0  0  0  0  0  0  0  0  0  0
   36.5300   30.8190   48.7500 N   0  0  0  0  0  0  0  0  0  0  0  0
   34.5690   29.4360   48.4760 C   0  0  0  0  0  0  0  0  0  0  0  0
   34.2050   30.0820   47.3180 C   0  0  0  0  0  0  0  0  0  0  0  0
   33.1530   29.7940   46.4800 C   0  0  0  0  0  0  0  0  0  0  0  0
   32.3900   28.7110   46.8890 C   0  0  0  0  0  0  0  0  0  0  0  0
   31.3300   28.3590   46.1180 N   0  0  0  0  0  0  0  0  0  0  0  0
   30.5210   27.3230   46.4210 C   0  0  0  0  0  0  0  0  0  0  0  0
   30.7810   26.5860   47.5680 C   0  0  0  0  0  0  0  0  0  0  0  0
   31.8610   26.9430   48.3570 C   0  0  0  0  0  0  0  0  0  0  0  0
   32.6900   28.0130   48.0370 C   0  0  0  0  0  0  0  0  0  0  0  0
   33.7700   28.3660   48.8300 C   0  0  0  0  0  0  0  0  0  0  0  0
   39.5780   34.2990   49.0220 C   0  0  0  0  0  0  0  0  0  0  0  0
   40.0590   34.1650   47.7270 C   0  0  0  0  0  0  0  0  0  0  0  0
   39.7010   33.0110   46.9910 C   0  0  0  0  0  0  0  0  0  0  0  0
   38.8990   32.1090   47.6220 N   0  0  0  0  0  0  0  0  0  0  0  0
   38.4470   32.2600   48.8730 C   0  0  0  0  0  0  0  0  0  0  0  0
   38.7960   33.3570   49.5540 N   0  0  0  0  0  0  0  0  0  0  0  0
   40.1590   32.7590   45.5890 C   0  0  0  0  0  0  0  0  0  0  0  0
   40.8060   31.3770   45.4850 C   0  0  0  0  0  0  0  0  0  0  0  0
   38.7271   31.0163   51.2703 H   0  0  0  0  0  0  0  0  0  0  0  0
   37.2054   29.2727   52.1565 H   0  0  0  0  0  0  0  0  0  0  0  0
   34.8337   30.9358   47.0252 H   0  0  0  0  0  0  0  0  0  0  0  0
   32.9367   30.3704   45.5684 H   0  0  0  0  0  0  0  0  0  0  0  0
   29.6711   27.0671   45.7712 H   0  0  0  0  0  0  0  0  0  0  0  0
   30.1414   25.7349   47.8447 H   0  0  0  0  0  0  0  0  0  0  0  0
   32.0704   26.3614   49.2669 H   0  0  0  0  0  0  0  0  0  0  0  0
   33.9915   27.7934   49.7427 H   0  0  0  0  0  0  0  0  0  0  0  0
   39.8430   35.1875   49.6140 H   0  0  0  0  0  0  0  0  0  0  0  0
   40.7036   34.9381   47.2832 H   0  0  0  0  0  0  0  0  0  0  0  0
   39.2948   32.8076   44.9102 H   0  0  0  0  0  0  0  0  0  0  0  0
   40.8990   33.5236   45.3103 H   0  0  0  0  0  0  0  0  0  0  0  0
   40.9910   30.9818   46.4948 H   0  0  0  0  0  0  0  0  0  0  0  0
   40.1327   30.6968   44.9427 H   0  0  0  0  0  0  0  0  0  0  0  0
   41.7596   31.4584   44.9427 H   0  0  0  0  0  0  0  0  0  0  0  0
  1  2  2  0
  2  3  1  0
  4  3  2  0
  5  4  1  0
  6  5  2  0
  6  1  1  0
  7 16  1  0
  7  5  1  0
  8  7  2  0
  9 10  2  0
  9  8  1  0
 10 15  1  0
 11 12  2  0
 11 10  1  0
 12 13  1  0
 13 14  2  0
 15 14  1  0
 15 16  2  0
 17 22  2  0
 18 17  1  0
 19 20  1  0
 19 18  2  0
 20 21  2  0
 21  1  1  0
 21 22  1  0
 23 19  1  0
 24 23  1  0
  2 25  1  0
  3 26  1  0
  8 27  1  0
  9 28  1  0
 12 29  1  0
 13 30  1  0
 14 31  1  0
 16 32  1  0
 17 33  1  0
 18 34  1  0
 23 35  1  0
 23 36  1  0
 24 37  1  0
 24 38  1  0
 24 39  1  0
M  ISO  8  25  14  26  14  27  14  28  14  29  14  30  14  31  14  32  14
M  ISO  7  33  14  34  14  35   8  36   8  37   8  38   8  39   8
M  END
>  <minimizedAffinity>  (1) 
-7.00313759

>  <minimizedRMSD>  (1) 
0.573365569

$$$$
