
     RDKit          3D

 36 39  0  0  0  0  0  0  0  0999 V2000
   37.5500   31.1410   49.5810 C   0  0  0  0  0  0  0  0  0  0  0  0
   37.8110   30.6650   50.8450 C   0  0  0  0  0  0  0  0  0  0  0  0
   36.9970   29.6990   51.3590 C   0  0  0  0  0  0  0  0  0  0  0  0
   35.9480   29.2150   50.6350 N   0  0  0  0  0  0  0  0  0  0  0  0
   35.7340   29.7110   49.4060 C   0  0  0  0  0  0  0  0  0  0  0  0
   36.5170   30.6630   48.8710 N   0  0  0  0  0  0  0  0  0  0  0  0
   34.6170   29.1910   48.6410 C   0  0  0  0  0  0  0  0  0  0  0  0
   34.5490   29.3820   47.2810 C   0  0  0  0  0  0  0  0  0  0  0  0
   33.5620   28.9560   46.4030 C   0  0  0  0  0  0  0  0  0  0  0  0
   32.5360   28.2540   47.0190 C   0  0  0  0  0  0  0  0  0  0  0  0
   31.5260   27.7940   46.2500 N   0  0  0  0  0  0  0  0  0  0  0  0
   30.4800   27.0990   46.7520 C   0  0  0  0  0  0  0  0  0  0  0  0
   30.4400   26.8450   48.1110 C   0  0  0  0  0  0  0  0  0  0  0  0
   31.4700   27.3120   48.9000 C   0  0  0  0  0  0  0  0  0  0  0  0
   32.5450   28.0270   48.3810 C   0  0  0  0  0  0  0  0  0  0  0  0
   33.5720   28.4900   49.1810 C   0  0  0  0  0  0  0  0  0  0  0  0
   39.4950   34.2130   49.0620 C   0  0  0  0  0  0  0  0  0  0  0  0
   39.9590   34.0690   47.7560 C   0  0  0  0  0  0  0  0  0  0  0  0
   39.5960   32.9000   47.0510 C   0  0  0  0  0  0  0  0  0  0  0  0
   38.8140   31.9990   47.7070 N   0  0  0  0  0  0  0  0  0  0  0  0
   38.3840   32.1760   48.9750 C   0  0  0  0  0  0  0  0  0  0  0  0
   38.7320   33.2830   49.6340 N   0  0  0  0  0  0  0  0  0  0  0  0
   40.0760   32.7350   45.6790 C   0  0  0  0  0  0  0  0  0  0  0  0
   38.6579   31.0551   51.4285 H   0  0  0  0  0  0  0  0  0  0  0  0
   37.1888   29.3062   52.3684 H   0  0  0  0  0  0  0  0  0  0  0  0
   35.3819   29.9432   46.8322 H   0  0  0  0  0  0  0  0  0  0  0  0
   33.5905   29.1559   45.3217 H   0  0  0  0  0  0  0  0  0  0  0  0
   29.6759   26.7423   46.0916 H   0  0  0  0  0  0  0  0  0  0  0  0
   29.6044   26.2825   48.5530 H   0  0  0  0  0  0  0  0  0  0  0  0
   31.4407   27.1116   49.9812 H   0  0  0  0  0  0  0  0  0  0  0  0
   33.5499   28.2934   50.2631 H   0  0  0  0  0  0  0  0  0  0  0  0
   39.7646   35.1139   49.6328 H   0  0  0  0  0  0  0  0  0  0  0  0
   40.5880   34.8411   47.2889 H   0  0  0  0  0  0  0  0  0  0  0  0
   41.1161   32.3774   45.6950 H   0  0  0  0  0  0  0  0  0  0  0  0
   39.4444   32.0024   45.1552 H   0  0  0  0  0  0  0  0  0  0  0  0
   40.0284   33.7011   45.1552 H   0  0  0  0  0  0  0  0  0  0  0  0
  1  2  2  0
  2  3  1  0
  4  3  2  0
  5  4  1  0
  6  5  2  0
  6  1  1  0
  7 16  1  0
  7  5  1  0
  8  7  2  0
  9 10  2  0
  9  8  1  0
 10 15  1  0
 11 12  2  0
 11 10  1  0
 12 13  1  0
 13 14  2  0
 15 14  1  0
 15 16  2  0
 17 22  2  0
 18 17  1  0
 19 20  1  0
 19 18  2  0
 20 21  2  0
 21  1  1  0
 21 22  1  0
 23 19  1  0
  2 24  1  0
  3 25  1  0
  8 26  1  0
  9 27  1  0
 12 28  1  0
 13 29  1  0
 14 30  1  0
 16 31  1  0
 17 32  1  0
 18 33  1  0
 23 34  1  0
 23 35  1  0
 23 36  1  0
M  ISO  8  24  14  25  14  26  14  27  14  28  14  29  14  30  14  31  14
M  ISO  5  32  14  33  14  34   8  35   8  36   8
M  END
>  <minimizedAffinity>  (1) 
-6.86028004

>  <minimizedRMSD>  (1) 
0.0524594523

$$$$
