
     RDKit          3D

 34 37  0  0  0  0  0  0  0  0999 V2000
   37.5230   31.1280   49.6150 C   0  0  0  0  0  0  0  0  0  0  0  0
   37.7610   30.6610   50.8740 C   0  0  0  0  0  0  0  0  0  0  0  0
   36.9410   29.6970   51.3960 C   0  0  0  0  0  0  0  0  0  0  0  0
   35.9020   29.2210   50.6540 N   0  0  0  0  0  0  0  0  0  0  0  0
   35.6960   29.7030   49.4200 C   0  0  0  0  0  0  0  0  0  0  0  0
   36.4900   30.6510   48.8850 N   0  0  0  0  0  0  0  0  0  0  0  0
   34.5800   29.1850   48.6400 C   0  0  0  0  0  0  0  0  0  0  0  0
   34.5220   29.3920   47.2860 C   0  0  0  0  0  0  0  0  0  0  0  0
   33.5390   28.9680   46.4160 C   0  0  0  0  0  0  0  0  0  0  0  0
   32.5070   28.2520   47.0160 C   0  0  0  0  0  0  0  0  0  0  0  0
   31.5040   27.8000   46.2350 N   0  0  0  0  0  0  0  0  0  0  0  0
   30.4630   27.1020   46.7080 C   0  0  0  0  0  0  0  0  0  0  0  0
   30.4150   26.8320   48.0640 C   0  0  0  0  0  0  0  0  0  0  0  0
   31.4430   27.2910   48.8840 C   0  0  0  0  0  0  0  0  0  0  0  0
   32.5110   28.0120   48.3780 C   0  0  0  0  0  0  0  0  0  0  0  0
   33.5310   28.4690   49.1840 C   0  0  0  0  0  0  0  0  0  0  0  0
   39.4870   34.1890   49.0970 C   0  0  0  0  0  0  0  0  0  0  0  0
   39.9330   34.0670   47.7870 C   0  0  0  0  0  0  0  0  0  0  0  0
   39.5440   32.9050   47.0790 C   0  0  0  0  0  0  0  0  0  0  0  0
   38.7690   32.0010   47.7270 N   0  0  0  0  0  0  0  0  0  0  0  0
   38.3580   32.1550   48.9940 C   0  0  0  0  0  0  0  0  0  0  0  0
   38.7270   33.2540   49.6590 N   0  0  0  0  0  0  0  0  0  0  0  0
   39.9720   32.7640   45.7870 O   0  0  0  0  0  0  0  0  0  0  0  0
   38.6023   31.0544   51.4634 H   0  0  0  0  0  0  0  0  0  0  0  0
   37.1200   29.3086   52.4095 H   0  0  0  0  0  0  0  0  0  0  0  0
   35.3532   29.9604   46.8433 H   0  0  0  0  0  0  0  0  0  0  0  0
   33.5683   29.1784   45.3367 H   0  0  0  0  0  0  0  0  0  0  0  0
   29.6663   26.7523   46.0350 H   0  0  0  0  0  0  0  0  0  0  0  0
   29.5757   26.2621   48.4891 H   0  0  0  0  0  0  0  0  0  0  0  0
   31.4053   27.0750   49.9619 H   0  0  0  0  0  0  0  0  0  0  0  0
   33.5100   28.2630   50.2643 H   0  0  0  0  0  0  0  0  0  0  0  0
   39.7684   35.0775   49.6813 H   0  0  0  0  0  0  0  0  0  0  0  0
   40.5612   34.8400   47.3203 H   0  0  0  0  0  0  0  0  0  0  0  0
   40.5372   33.4638   45.3736 H   0  0  0  0  0  0  0  0  0  0  0  0
  1  2  2  0
  2  3  1  0
  4  3  2  0
  5  4  1  0
  6  5  2  0
  6  1  1  0
  7 16  1  0
  7  5  1  0
  8  7  2  0
  9 10  2  0
  9  8  1  0
 10 15  1  0
 11 12  2  0
 11 10  1  0
 12 13  1  0
 13 14  2  0
 15 14  1  0
 15 16  2  0
 17 22  2  0
 18 17  1  0
 19 20  1  0
 19 18  2  0
 20 21  2  0
 21  1  1  0
 21 22  1  0
 23 19  1  0
  2 24  1  0
  3 25  1  0
  8 26  1  0
  9 27  1  0
 12 28  1  0
 13 29  1  0
 14 30  1  0
 16 31  1  0
 17 32  1  0
 18 33  1  0
 23 34  1  0
M  ISO  8  24  14  25  14  26  14  27  14  28  14  29  14  30  14  31  14
M  ISO  3  32  14  33  14  34   3
M  END
>  <minimizedAffinity>  (1) 
-6.70675659

>  <minimizedRMSD>  (1) 
0.0292893276

$$$$
