
     RDKit          3D

 35 38  0  0  0  0  0  0  0  0999 V2000
   37.5280   31.1260   49.6010 C   0  0  0  0  0  0  0  0  0  0  0  0
   37.7740   30.6620   50.8560 C   0  0  0  0  0  0  0  0  0  0  0  0
   36.9580   29.6960   51.3710 C   0  0  0  0  0  0  0  0  0  0  0  0
   35.9140   29.2060   50.6400 N   0  0  0  0  0  0  0  0  0  0  0  0
   35.7070   29.6820   49.4220 C   0  0  0  0  0  0  0  0  0  0  0  0
   36.4990   30.6420   48.8800 N   0  0  0  0  0  0  0  0  0  0  0  0
   34.5980   29.1760   48.6240 C   0  0  0  0  0  0  0  0  0  0  0  0
   34.5270   29.3780   47.2770 C   0  0  0  0  0  0  0  0  0  0  0  0
   33.5430   28.9620   46.4060 C   0  0  0  0  0  0  0  0  0  0  0  0
   32.5170   28.2550   47.0170 C   0  0  0  0  0  0  0  0  0  0  0  0
   31.5190   27.8190   46.2160 N   0  0  0  0  0  0  0  0  0  0  0  0
   30.4640   27.1170   46.6990 C   0  0  0  0  0  0  0  0  0  0  0  0
   30.4120   26.8380   48.0700 C   0  0  0  0  0  0  0  0  0  0  0  0
   31.4400   27.2900   48.8810 C   0  0  0  0  0  0  0  0  0  0  0  0
   32.5190   28.0100   48.3770 C   0  0  0  0  0  0  0  0  0  0  0  0
   33.5470   28.4630   49.1860 C   0  0  0  0  0  0  0  0  0  0  0  0
   39.4930   34.2000   49.0950 C   0  0  0  0  0  0  0  0  0  0  0  0
   39.9350   34.0530   47.7680 C   0  0  0  0  0  0  0  0  0  0  0  0
   39.5520   32.8920   47.0570 C   0  0  0  0  0  0  0  0  0  0  0  0
   38.7710   31.9780   47.7010 N   0  0  0  0  0  0  0  0  0  0  0  0
   38.3670   32.1620   48.9870 C   0  0  0  0  0  0  0  0  0  0  0  0
   38.7290   33.2670   49.6710 N   0  0  0  0  0  0  0  0  0  0  0  0
   39.9060   32.5930   45.7320 N   0  0  0  0  0  0  0  0  0  0  0  0
   38.6146   31.0577   51.4449 H   0  0  0  0  0  0  0  0  0  0  0  0
   37.1433   29.3090   52.3839 H   0  0  0  0  0  0  0  0  0  0  0  0
   35.3583   29.9431   46.8302 H   0  0  0  0  0  0  0  0  0  0  0  0
   33.5686   29.1711   45.3264 H   0  0  0  0  0  0  0  0  0  0  0  0
   29.6643   26.7733   46.0264 H   0  0  0  0  0  0  0  0  0  0  0  0
   29.5709   26.2707   48.4950 H   0  0  0  0  0  0  0  0  0  0  0  0
   31.4022   27.0727   49.9587 H   0  0  0  0  0  0  0  0  0  0  0  0
   33.5315   28.2595   50.2669 H   0  0  0  0  0  0  0  0  0  0  0  0
   39.7800   35.0950   49.6665 H   0  0  0  0  0  0  0  0  0  0  0  0
   40.5631   34.8221   47.2948 H   0  0  0  0  0  0  0  0  0  0  0  0
   40.4945   33.2468   45.1961 H   0  0  0  0  0  0  0  0  0  0  0  0
   39.5773   31.7198   45.2956 H   0  0  0  0  0  0  0  0  0  0  0  0
  1  2  2  0
  2  3  1  0
  4  3  2  0
  5  4  1  0
  6  5  2  0
  6  1  1  0
  7 16  1  0
  7  5  1  0
  8  7  2  0
  9 10  2  0
  9  8  1  0
 10 15  1  0
 11 12  2  0
 11 10  1  0
 12 13  1  0
 13 14  2  0
 15 14  1  0
 15 16  2  0
 17 22  2  0
 18 17  1  0
 19 20  1  0
 19 18  2  0
 20 21  2  0
 21  1  1  0
 21 22  1  0
 23 19  1  0
  2 24  1  0
  3 25  1  0
  8 26  1  0
  9 27  1  0
 12 28  1  0
 13 29  1  0
 14 30  1  0
 16 31  1  0
 17 32  1  0
 18 33  1  0
 23 34  1  0
 23 35  1  0
M  ISO  8  24  14  25  14  26  14  27  14  28  14  29  14  30  14  31  14
M  ISO  2  32  14  33  14
M  END
>  <minimizedAffinity>  (1) 
-6.70244932

>  <minimizedRMSD>  (1) 
0.035256438

$$$$
