
     RDKit          3D

 18 18  0  0  0  0  0  0  0  0999 V2000
   37.5290   30.2740   50.6600 C   0  0  0  0  0  0  0  0  0  0  0  0
   38.3580   31.2630   50.0860 C   0  0  0  0  0  0  0  0  0  0  0  0
   38.0990   31.6000   48.7520 C   0  0  0  0  0  0  0  0  0  0  0  0
   37.0950   30.9780   48.1020 N   0  0  0  0  0  0  0  0  0  0  0  0
   36.3230   30.0370   48.6850 C   0  0  0  0  0  0  0  0  0  0  0  0
   36.5520   29.7010   49.9530 N   0  0  0  0  0  0  0  0  0  0  0  0
   37.7110   29.8560   52.0200 N   0  0  0  0  0  0  0  0  0  0  0  0
   35.3390   29.4980   47.8820 O   0  0  0  0  0  0  0  0  0  0  0  0
   34.0590   27.2780   48.3230 O   0  0  0  0  0  0  0  0  0  0  0  0
   33.9080   28.7810   48.3630 P   0  0  0  0  0  0  0  0  0  0  0  0
   33.4340   29.1880   49.9310 O   0  0  0  0  0  0  0  0  0  0  0  0
   32.6660   29.2530   47.2950 O   0  0  0  0  0  0  0  0  0  0  0  0
   39.1656   31.7437   50.6576 H   0  0  0  0  0  0  0  0  0  0  0  0
   38.7064   32.3618   48.2413 H   0  0  0  0  0  0  0  0  0  0  0  0
   37.0976   29.1334   52.4232 H   0  0  0  0  0  0  0  0  0  0  0  0
   38.4551   30.2784   52.5934 H   0  0  0  0  0  0  0  0  0  0  0  0
   33.9992   28.7027   50.5830 H   0  0  0  0  0  0  0  0  0  0  0  0
   31.8789   29.5521   47.8157 H   0  0  0  0  0  0  0  0  0  0  0  0
  1  7  1  0
  2  1  2  0
  3  2  1  0
  4  5  1  0
  4  3  2  0
  5  6  2  0
  6  1  1  0
  8 10  1  0
  8  5  1  0
  9 10  2  0
 10 11  1  0
 12 10  1  0
  2 13  1  0
  3 14  1  0
  7 15  1  0
  7 16  1  0
 11 17  1  0
 12 18  1  0
M  ISO  4  13  14  14  14  17   3  18   3
M  END
>  <minimizedAffinity>  (1) 
-4.40814352

>  <minimizedRMSD>  (1) 
1.20866907

$$$$
