
     RDKit          3D

 14 14  0  0  0  0  0  0  0  0999 V2000
   37.3810   30.0080   50.7930 C   0  0  0  0  0  0  0  0  0  0  0  0
   37.7300   31.1900   50.1050 C   0  0  0  0  0  0  0  0  0  0  0  0
   37.1020   31.4340   48.8900 C   0  0  0  0  0  0  0  0  0  0  0  0
   36.1980   30.5320   48.4400 N   0  0  0  0  0  0  0  0  0  0  0  0
   35.8810   29.4120   49.1130 C   0  0  0  0  0  0  0  0  0  0  0  0
   36.4750   29.1630   50.2790 N   0  0  0  0  0  0  0  0  0  0  0  0
   34.9220   28.5050   48.5820 N   0  0  0  0  0  0  0  0  0  0  0  0
   37.9660   29.6550   52.0530 N   0  0  0  0  0  0  0  0  0  0  0  0
   38.4713   31.8915   50.5154 H   0  0  0  0  0  0  0  0  0  0  0  0
   37.3336   32.3381   48.3077 H   0  0  0  0  0  0  0  0  0  0  0  0
   34.6816   27.6480   49.1002 H   0  0  0  0  0  0  0  0  0  0  0  0
   34.4682   28.7054   47.6793 H   0  0  0  0  0  0  0  0  0  0  0  0
   37.6855   28.7835   52.5249 H   0  0  0  0  0  0  0  0  0  0  0  0
   38.6668   30.2729   52.4866 H   0  0  0  0  0  0  0  0  0  0  0  0
  1  8  1  0
  2  1  2  0
  3  2  1  0
  4  3  2  0
  4  5  1  0
  5  6  2  0
  6  1  1  0
  7  5  1  0
  2  9  1  0
  3 10  1  0
  7 11  1  0
  7 12  1  0
  8 13  1  0
  8 14  1  0
M  ISO  2   9  14  10  14
M  END
>  <minimizedAffinity>  (1) 
-3.44726539

>  <minimizedRMSD>  (1) 
0.122956425

$$$$
