
     RDKit          3D

 34 36  0  0  0  0  0  0  0  0999 V2000
   34.9390   29.5010   48.3360 C   0  0  0  0  0  0  0  0  0  0  0  0
   34.5910   28.2040   48.6680 C   0  0  0  0  0  0  0  0  0  0  0  0
   33.4690   27.7480   47.9920 C   0  0  0  0  0  0  0  0  0  0  0  0
   32.7540   28.4770   47.0820 C   0  0  0  0  0  0  0  0  0  0  0  0
   33.1950   29.7600   46.8300 C   0  0  0  0  0  0  0  0  0  0  0  0
   34.2770   30.2940   47.4380 N   0  0  0  0  0  0  0  0  0  0  0  0
   37.5870   30.2240   50.7740 C   0  0  0  0  0  0  0  0  0  0  0  0
   38.3030   31.2590   50.1700 C   0  0  0  0  0  0  0  0  0  0  0  0
   37.8610   31.7020   48.9110 C   0  0  0  0  0  0  0  0  0  0  0  0
   36.7760   31.1000   48.3720 N   0  0  0  0  0  0  0  0  0  0  0  0
   36.1050   30.1050   48.9780 C   0  0  0  0  0  0  0  0  0  0  0  0
   36.5210   29.6700   50.1890 N   0  0  0  0  0  0  0  0  0  0  0  0
   37.9600   29.7130   52.0470 N   0  0  0  0  0  0  0  0  0  0  0  0
   32.4920   30.6540   45.8530 C   0  0  0  0  0  0  0  0  0  0  0  0
   33.1900   30.6470   44.5130 C   0  0  0  0  0  0  0  0  0  0  0  0
   32.1440   30.4840   43.4600 C   0  0  0  0  0  0  0  0  0  0  0  0
   30.8180   30.2820   44.1530 C   0  0  0  0  0  0  0  0  0  0  0  0
   31.0950   30.1770   45.6330 C   0  0  0  0  0  0  0  0  0  0  0  0
   35.1483   27.5953   49.3953 H   0  0  0  0  0  0  0  0  0  0  0  0
   33.1288   26.7235   48.2035 H   0  0  0  0  0  0  0  0  0  0  0  0
   31.8705   28.0608   46.5757 H   0  0  0  0  0  0  0  0  0  0  0  0
   39.1785   31.7102   50.6598 H   0  0  0  0  0  0  0  0  0  0  0  0
   38.3814   32.5131   48.3806 H   0  0  0  0  0  0  0  0  0  0  0  0
   37.4175   28.9488   52.4743 H   0  0  0  0  0  0  0  0  0  0  0  0
   38.7728   30.1069   52.5421 H   0  0  0  0  0  0  0  0  0  0  0  0
   32.4977   31.6697   46.2752 H   0  0  0  0  0  0  0  0  0  0  0  0
   33.7269   31.5956   44.3648 H   0  0  0  0  0  0  0  0  0  0  0  0
   33.9205   29.8262   44.4622 H   0  0  0  0  0  0  0  0  0  0  0  0
   32.3761   29.6095   42.8344 H   0  0  0  0  0  0  0  0  0  0  0  0
   32.1079   31.3734   42.8138 H   0  0  0  0  0  0  0  0  0  0  0  0
   30.1554   31.1372   43.9540 H   0  0  0  0  0  0  0  0  0  0  0  0
   30.3214   29.3722   43.7848 H   0  0  0  0  0  0  0  0  0  0  0  0
   30.3887   30.8060   46.1946 H   0  0  0  0  0  0  0  0  0  0  0  0
   30.9759   29.1403   45.9810 H   0  0  0  0  0  0  0  0  0  0  0  0
  1  2  2  0
  1 11  1  0
  3  2  1  0
  4  3  2  0
  5  4  1  0
  5  6  2  0
  6  1  1  0
  7 13  1  0
  8  7  2  0
  9  8  1  0
 10  9  2  0
 10 11  1  0
 11 12  2  0
 12  7  1  0
 14  5  1  0
 15 14  1  0
 16 17  1  0
 16 15  1  0
 17 18  1  0
 18 14  1  0
  2 19  1  0
  3 20  1  0
  4 21  1  0
  8 22  1  0
  9 23  1  0
 13 24  1  0
 13 25  1  0
 14 26  1  0
 15 27  1  0
 15 28  1  0
 16 29  1  0
 16 30  1  0
 17 31  1  0
 17 32  1  0
 18 33  1  0
 18 34  1  0
M  ISO  8  19  14  20  14  21  14  22  14  23  14  26  13  27  13  28  13
M  ISO  6  29  13  30  13  31  13  32  13  33  13  34  13
M  END
>  <minimizedAffinity>  (1) 
-5.25958061

>  <minimizedRMSD>  (1) 
0.642567515

$$$$
