
     RDKit          3D

 24 25  0  0  0  0  0  0  0  0999 V2000
   37.5900   30.2330   50.7640 C   0  0  0  0  0  0  0  0  0  0  0  0
   38.2920   31.2730   50.1410 C   0  0  0  0  0  0  0  0  0  0  0  0
   37.8400   31.7040   48.8820 C   0  0  0  0  0  0  0  0  0  0  0  0
   36.7570   31.0830   48.3580 N   0  0  0  0  0  0  0  0  0  0  0  0
   36.1020   30.0950   48.9680 C   0  0  0  0  0  0  0  0  0  0  0  0
   36.5280   29.6710   50.1800 N   0  0  0  0  0  0  0  0  0  0  0  0
   34.9330   29.4720   48.3310 C   0  0  0  0  0  0  0  0  0  0  0  0
   34.5730   28.1940   48.7070 C   0  0  0  0  0  0  0  0  0  0  0  0
   33.4600   27.7160   48.0410 C   0  0  0  0  0  0  0  0  0  0  0  0
   32.7670   28.4340   47.0930 C   0  0  0  0  0  0  0  0  0  0  0  0
   33.2100   29.7050   46.7900 C   0  0  0  0  0  0  0  0  0  0  0  0
   34.2930   30.2380   47.4020 N   0  0  0  0  0  0  0  0  0  0  0  0
   32.5070   30.5330   45.7750 C   0  0  0  0  0  0  0  0  0  0  0  0
   37.9680   29.7230   52.0410 N   0  0  0  0  0  0  0  0  0  0  0  0
   39.1668   31.7363   50.6207 H   0  0  0  0  0  0  0  0  0  0  0  0
   38.3478   32.5166   48.3418 H   0  0  0  0  0  0  0  0  0  0  0  0
   35.1191   27.6117   49.4638 H   0  0  0  0  0  0  0  0  0  0  0  0
   33.1075   26.7025   48.2828 H   0  0  0  0  0  0  0  0  0  0  0  0
   31.8859   28.0070   46.5917 H   0  0  0  0  0  0  0  0  0  0  0  0
   31.8753   31.2770   46.2824 H   0  0  0  0  0  0  0  0  0  0  0  0
   33.2474   31.0486   45.1458 H   0  0  0  0  0  0  0  0  0  0  0  0
   31.8781   29.8860   45.1458 H   0  0  0  0  0  0  0  0  0  0  0  0
   37.4289   28.9572   52.4699 H   0  0  0  0  0  0  0  0  0  0  0  0
   38.7801   30.1204   52.5345 H   0  0  0  0  0  0  0  0  0  0  0  0
  1 14  1  0
  2  1  2  0
  3  2  1  0
  4  3  2  0
  4  5  1  0
  5  6  2  0
  6  1  1  0
  7  8  2  0
  7  5  1  0
  9  8  1  0
 10  9  2  0
 11 10  1  0
 11 12  2  0
 12  7  1  0
 13 11  1  0
  2 15  1  0
  3 16  1  0
  8 17  1  0
  9 18  1  0
 10 19  1  0
 13 20  1  0
 13 21  1  0
 13 22  1  0
 14 23  1  0
 14 24  1  0
M  ISO  8  15  14  16  14  17  14  18  14  19  14  20   8  21   8  22   8
M  END
>  <minimizedAffinity>  (1) 
-5.02543926

>  <minimizedRMSD>  (1) 
0.232217684

$$$$
