
     RDKit          3D

 23 24  0  0  0  0  0  0  0  0999 V2000
   34.9500   29.4750   48.3380 C   0  0  0  0  0  0  0  0  0  0  0  0
   34.5770   28.2010   48.7050 C   0  0  0  0  0  0  0  0  0  0  0  0
   33.4670   27.7170   48.0410 C   0  0  0  0  0  0  0  0  0  0  0  0
   32.7760   28.4210   47.0930 C   0  0  0  0  0  0  0  0  0  0  0  0
   33.2250   29.6930   46.7890 C   0  0  0  0  0  0  0  0  0  0  0  0
   34.3050   30.2070   47.4130 N   0  0  0  0  0  0  0  0  0  0  0  0
   32.6010   30.5520   45.8140 N   0  0  0  0  0  0  0  0  0  0  0  0
   37.6020   30.2410   50.7660 C   0  0  0  0  0  0  0  0  0  0  0  0
   38.2990   31.2850   50.1320 C   0  0  0  0  0  0  0  0  0  0  0  0
   37.8490   31.7070   48.8870 C   0  0  0  0  0  0  0  0  0  0  0  0
   36.7670   31.0880   48.3580 N   0  0  0  0  0  0  0  0  0  0  0  0
   36.1110   30.0940   48.9730 C   0  0  0  0  0  0  0  0  0  0  0  0
   36.5380   29.6690   50.1910 N   0  0  0  0  0  0  0  0  0  0  0  0
   37.9640   29.7200   52.0420 N   0  0  0  0  0  0  0  0  0  0  0  0
   35.1184   27.6173   49.4641 H   0  0  0  0  0  0  0  0  0  0  0  0
   33.1173   26.7041   48.2894 H   0  0  0  0  0  0  0  0  0  0  0  0
   31.8963   27.9913   46.5915 H   0  0  0  0  0  0  0  0  0  0  0  0
   32.9851   31.4905   45.6336 H   0  0  0  0  0  0  0  0  0  0  0  0
   31.7710   30.2273   45.2977 H   0  0  0  0  0  0  0  0  0  0  0  0
   39.1737   31.7532   50.6072 H   0  0  0  0  0  0  0  0  0  0  0  0
   38.3567   32.5199   48.3471 H   0  0  0  0  0  0  0  0  0  0  0  0
   37.4169   28.9536   52.4594 H   0  0  0  0  0  0  0  0  0  0  0  0
   38.7728   30.1098   52.5468 H   0  0  0  0  0  0  0  0  0  0  0  0
  1  2  2  0
  1 12  1  0
  3  2  1  0
  4  3  2  0
  5  4  1  0
  5  6  2  0
  6  1  1  0
  7  5  1  0
  8 14  1  0
  9  8  2  0
 10  9  1  0
 11 10  2  0
 11 12  1  0
 12 13  2  0
 13  8  1  0
  2 15  1  0
  3 16  1  0
  4 17  1  0
  7 18  1  0
  7 19  1  0
  9 20  1  0
 10 21  1  0
 14 22  1  0
 14 23  1  0
M  ISO  5  15  14  16  14  17  14  20  14  21  14
M  END
>  <minimizedAffinity>  (1) 
-4.9919858

>  <minimizedRMSD>  (1) 
0.22933352

$$$$
