
     RDKit          3D

 37 39  0  0  0  0  0  0  0  0999 V2000
   34.0800   28.9670   47.6200 C   0  0  0  0  0  0  0  0  0  0  0  0
   34.1130   28.3040   48.8590 C   0  0  0  0  0  0  0  0  0  0  0  0
   35.1020   28.4150   49.7800 C   0  0  0  0  0  0  0  0  0  0  0  0
   36.1590   29.2020   49.5550 C   0  0  0  0  0  0  0  0  0  0  0  0
   36.1370   29.8470   48.3580 C   0  0  0  0  0  0  0  0  0  0  0  0
   35.1540   29.7130   47.4860 N   0  0  0  0  0  0  0  0  0  0  0  0
   31.7900   28.3790   47.4740 C   0  0  0  0  0  0  0  0  0  0  0  0
   32.9460   28.7680   46.7180 C   0  0  0  0  0  0  0  0  0  0  0  0
   32.7860   28.8840   45.3660 C   0  0  0  0  0  0  0  0  0  0  0  0
   31.5490   28.6220   44.8520 N   0  0  0  0  0  0  0  0  0  0  0  0
   30.4850   28.2620   45.5680 C   0  0  0  0  0  0  0  0  0  0  0  0
   30.6210   28.1440   46.8840 N   0  0  0  0  0  0  0  0  0  0  0  0
   29.2930   28.0350   44.8380 N   0  0  0  0  0  0  0  0  0  0  0  0
   33.9240   29.2740   44.5510 C   0  0  0  0  0  0  0  0  0  0  0  0
   34.9320   28.4530   44.7680 F   0  0  0  0  0  0  0  0  0  0  0  0
   33.6620   29.3330   43.1920 F   0  0  0  0  0  0  0  0  0  0  0  0
   34.3700   30.5850   44.8840 F   0  0  0  0  0  0  0  0  0  0  0  0
   36.9080   31.9810   49.9450 F   0  0  0  0  0  0  0  0  0  0  0  0
   37.6090   31.8150   48.7740 C   0  0  0  0  0  0  0  0  0  0  0  0
   37.2390   30.7540   47.9690 C   0  0  0  0  0  0  0  0  0  0  0  0
   37.9660   30.6280   46.8140 C   0  0  0  0  0  0  0  0  0  0  0  0
   38.9860   31.4920   46.4830 C   0  0  0  0  0  0  0  0  0  0  0  0
   39.3110   32.5250   47.3150 C   0  0  0  0  0  0  0  0  0  0  0  0
   38.6240   32.7060   48.4830 C   0  0  0  0  0  0  0  0  0  0  0  0
   38.8990   33.8050   49.4670 C   0  0  0  0  0  0  0  0  0  0  0  0
   33.2686   27.6418   49.1009 H   0  0  0  0  0  0  0  0  0  0  0  0
   35.0339   27.8515   50.7223 H   0  0  0  0  0  0  0  0  0  0  0  0
   36.9792   29.3183   50.2787 H   0  0  0  0  0  0  0  0  0  0  0  0
   31.8723   28.2727   48.5658 H   0  0  0  0  0  0  0  0  0  0  0  0
   28.4331   27.7540   45.3305 H   0  0  0  0  0  0  0  0  0  0  0  0
   29.2859   28.1509   43.8146 H   0  0  0  0  0  0  0  0  0  0  0  0
   37.7255   29.8051   46.1249 H   0  0  0  0  0  0  0  0  0  0  0  0
   39.5414   31.3494   45.5443 H   0  0  0  0  0  0  0  0  0  0  0  0
   40.1264   33.2122   47.0451 H   0  0  0  0  0  0  0  0  0  0  0  0
   38.8011   33.4138   50.4904 H   0  0  0  0  0  0  0  0  0  0  0  0
   39.9200   34.1854   49.3160 H   0  0  0  0  0  0  0  0  0  0  0  0
   38.1775   34.6214   49.3160 H   0  0  0  0  0  0  0  0  0  0  0  0
  1  2  2  0
  2  3  1  0
  4  3  2  0
  5  4  1  0
  6  1  1  0
  6  5  2  0
  8  7  2  0
  8  1  1  0
  9  8  1  0
 10  9  2  0
 10 11  1  0
 11 12  2  0
 12  7  1  0
 13 11  1  0
 14 15  1  0
 14 17  1  0
 14  9  1  0
 16 14  1  0
 19 18  1  0
 20  5  1  0
 20 19  2  0
 21 20  1  0
 22 21  2  0
 22 23  1  0
 23 24  2  0
 24 19  1  0
 24 25  1  0
  2 26  1  0
  3 27  1  0
  4 28  1  0
  7 29  1  0
 13 30  1  0
 13 31  1  0
 21 32  1  0
 22 33  1  0
 23 34  1  0
 25 35  1  0
 25 36  1  0
 25 37  1  0
M  ISO  8  26  14  27  14  28  14  29  14  32  14  33  14  34  14  35   8
M  ISO  2  36   8  37   8
M  END
>  <minimizedAffinity>  (1) 
-6.49344254

>  <minimizedRMSD>  (1) 
1.03235066

$$$$
