
     RDKit          3D

 46 49  0  0  0  0  0  0  0  0999 V2000
   34.8590   29.3950   47.9540 C   0  0  0  0  0  0  0  0  0  0  0  0
   34.5850   28.2130   48.6170 C   0  0  0  0  0  0  0  0  0  0  0  0
   33.3800   27.6530   48.2730 C   0  0  0  0  0  0  0  0  0  0  0  0
   32.5230   28.2120   47.3550 C   0  0  0  0  0  0  0  0  0  0  0  0
   32.8770   29.3850   46.7480 C   0  0  0  0  0  0  0  0  0  0  0  0
   34.0510   29.9670   47.0570 N   0  0  0  0  0  0  0  0  0  0  0  0
   37.8340   30.6470   49.7180 C   0  0  0  0  0  0  0  0  0  0  0  0
   38.5020   31.3900   48.7200 C   0  0  0  0  0  0  0  0  0  0  0  0
   37.9110   31.4400   47.4730 C   0  0  0  0  0  0  0  0  0  0  0  0
   36.7530   30.7890   47.2890 N   0  0  0  0  0  0  0  0  0  0  0  0
   36.1290   30.0900   48.2320 C   0  0  0  0  0  0  0  0  0  0  0  0
   36.6820   30.0240   49.4560 N   0  0  0  0  0  0  0  0  0  0  0  0
   38.4820   32.1480   46.4000 N   0  0  0  0  0  0  0  0  0  0  0  0
   39.6960   32.8920   46.3730 C   0  0  0  0  0  0  0  0  0  0  0  0
   40.6230   32.5310   45.2240 C   0  0  0  0  0  0  0  0  0  0  0  0
   39.9140   32.4890   43.9000 C   0  0  0  0  0  0  0  0  0  0  0  0
   38.7350   31.5330   44.0860 C   0  0  0  0  0  0  0  0  0  0  0  0
   37.8330   32.1940   45.1050 C   0  0  0  0  0  0  0  0  0  0  0  0
   38.3520   30.5230   51.0540 N   0  0  0  0  0  0  0  0  0  0  0  0
   29.9020   28.9810   47.1110 Cl  0  0  0  0  0  0  0  0  0  0  0  0
   30.6440   29.9040   45.8470 C   0  0  0  0  0  0  0  0  0  0  0  0
   32.0140   30.0250   45.7740 C   0  0  0  0  0  0  0  0  0  0  0  0
   32.4660   30.7970   44.7100 C   0  0  0  0  0  0  0  0  0  0  0  0
   31.6470   31.4010   43.7920 C   0  0  0  0  0  0  0  0  0  0  0  0
   30.2740   31.2550   43.8990 C   0  0  0  0  0  0  0  0  0  0  0  0
   29.2120   32.0130   42.7440 Cl  0  0  0  0  0  0  0  0  0  0  0  0
   29.7920   30.4990   44.9400 C   0  0  0  0  0  0  0  0  0  0  0  0
   35.2690   27.7633   49.3517 H   0  0  0  0  0  0  0  0  0  0  0  0
   33.0853   26.7097   48.7561 H   0  0  0  0  0  0  0  0  0  0  0  0
   31.5677   27.7235   47.1126 H   0  0  0  0  0  0  0  0  0  0  0  0
   39.4511   31.9061   48.9268 H   0  0  0  0  0  0  0  0  0  0  0  0
   39.4444   33.9597   46.2908 H   0  0  0  0  0  0  0  0  0  0  0  0
   40.2348   32.6511   47.3012 H   0  0  0  0  0  0  0  0  0  0  0  0
   41.4256   33.2812   45.1700 H   0  0  0  0  0  0  0  0  0  0  0  0
   41.0206   31.5244   45.4207 H   0  0  0  0  0  0  0  0  0  0  0  0
   40.5893   32.1157   43.1160 H   0  0  0  0  0  0  0  0  0  0  0  0
   39.5777   33.4894   43.5901 H   0  0  0  0  0  0  0  0  0  0  0  0
   38.2011   31.3919   43.1347 H   0  0  0  0  0  0  0  0  0  0  0  0
   39.0658   30.5383   44.4194 H   0  0  0  0  0  0  0  0  0  0  0  0
   37.6545   33.2407   44.8175 H   0  0  0  0  0  0  0  0  0  0  0  0
   36.8690   31.6661   45.1502 H   0  0  0  0  0  0  0  0  0  0  0  0
   37.8378   29.9728   51.7567 H   0  0  0  0  0  0  0  0  0  0  0  0
   39.2371   30.9844   51.3080 H   0  0  0  0  0  0  0  0  0  0  0  0
   33.5519   30.9319   44.5975 H   0  0  0  0  0  0  0  0  0  0  0  0
   32.0777   31.9983   42.9749 H   0  0  0  0  0  0  0  0  0  0  0  0
   28.7059   30.3657   45.0523 H   0  0  0  0  0  0  0  0  0  0  0  0
  1 11  1  0
  1  2  2  0
  3  2  1  0
  4  3  2  0
  5  6  2  0
  5  4  1  0
  6  1  1  0
  7 19  1  0
  8  7  2  0
  9  8  1  0
 10  9  2  0
 10 11  1  0
 11 12  2  0
 12  7  1  0
 13  9  1  0
 14 13  1  0
 15 14  1  0
 16 17  1  0
 16 15  1  0
 17 18  1  0
 18 13  1  0
 21 20  1  0
 22 21  2  0
 22  5  1  0
 23 22  1  0
 24 25  1  0
 24 23  2  0
 25 27  2  0
 26 25  1  0
 27 21  1  0
  2 28  1  0
  3 29  1  0
  4 30  1  0
  8 31  1  0
 14 32  1  0
 14 33  1  0
 15 34  1  0
 15 35  1  0
 16 36  1  0
 16 37  1  0
 17 38  1  0
 17 39  1  0
 18 40  1  0
 18 41  1  0
 19 42  1  0
 19 43  1  0
 23 44  1  0
 24 45  1  0
 27 46  1  0
M  ISO  8  28  14  29  14  30  14  31  14  32  13  33  13  34  13  35  13
M  ISO  8  36  13  37  13  38  13  39  13  40  13  41  13  44  14  45  14
M  ISO  1  46  14
M  END
>  <minimizedAffinity>  (1) 
-7.20602942

>  <minimizedRMSD>  (1) 
1.17558384

$$$$
