
     RDKit          3D

 38 41  0  0  0  0  0  0  0  0999 V2000
   34.8070   29.1030   48.3890 C   0  0  0  0  0  0  0  0  0  0  0  0
   34.4370   27.8490   48.8380 C   0  0  0  0  0  0  0  0  0  0  0  0
   33.3230   27.3380   48.2110 C   0  0  0  0  0  0  0  0  0  0  0  0
   32.6350   28.0110   47.2230 C   0  0  0  0  0  0  0  0  0  0  0  0
   33.0820   29.2490   46.8490 C   0  0  0  0  0  0  0  0  0  0  0  0
   34.1670   29.7880   47.4360 N   0  0  0  0  0  0  0  0  0  0  0  0
   30.0590   29.2070   46.9040 Cl  0  0  0  0  0  0  0  0  0  0  0  0
   31.0320   30.0630   45.7440 C   0  0  0  0  0  0  0  0  0  0  0  0
   32.4000   30.0110   45.8160 C   0  0  0  0  0  0  0  0  0  0  0  0
   33.0440   30.7420   44.8260 C   0  0  0  0  0  0  0  0  0  0  0  0
   32.4160   31.4640   43.8510 C   0  0  0  0  0  0  0  0  0  0  0  0
   31.0260   31.4870   43.8180 C   0  0  0  0  0  0  0  0  0  0  0  0
   30.1930   32.3940   42.5890 Cl  0  0  0  0  0  0  0  0  0  0  0  0
   30.3590   30.7820   44.7700 C   0  0  0  0  0  0  0  0  0  0  0  0
   37.3960   30.0990   50.8040 C   0  0  0  0  0  0  0  0  0  0  0  0
   38.2160   30.9530   50.0640 C   0  0  0  0  0  0  0  0  0  0  0  0
   37.8610   31.1740   48.7340 C   0  0  0  0  0  0  0  0  0  0  0  0
   36.7630   30.5550   48.2640 N   0  0  0  0  0  0  0  0  0  0  0  0
   35.9860   29.7390   48.9870 C   0  0  0  0  0  0  0  0  0  0  0  0
   36.3270   29.5250   50.2660 N   0  0  0  0  0  0  0  0  0  0  0  0
   38.6610   32.0520   47.8880 C   0  0  0  0  0  0  0  0  0  0  0  0
   39.0930   33.3120   48.2450 C   0  0  0  0  0  0  0  0  0  0  0  0
   39.8110   33.8780   47.2590 N   0  0  0  0  0  0  0  0  0  0  0  0
   39.8050   32.9370   46.2950 C   0  0  0  0  0  0  0  0  0  0  0  0
   39.1200   31.8260   46.6440 N   0  0  0  0  0  0  0  0  0  0  0  0
   37.6690   29.7980   52.1900 N   0  0  0  0  0  0  0  0  0  0  0  0
   34.9832   27.3084   49.6250 H   0  0  0  0  0  0  0  0  0  0  0  0
   32.9636   26.3432   48.5131 H   0  0  0  0  0  0  0  0  0  0  0  0
   31.7494   27.5638   46.7478 H   0  0  0  0  0  0  0  0  0  0  0  0
   34.1440   30.7394   44.8271 H   0  0  0  0  0  0  0  0  0  0  0  0
   33.0013   32.0190   43.1030 H   0  0  0  0  0  0  0  0  0  0  0  0
   29.2590   30.7826   44.7667 H   0  0  0  0  0  0  0  0  0  0  0  0
   39.1015   31.4296   50.5099 H   0  0  0  0  0  0  0  0  0  0  0  0
   38.8781   33.7919   49.2112 H   0  0  0  0  0  0  0  0  0  0  0  0
   40.2574   34.8061   47.2443 H   0  0  0  0  0  0  0  0  0  0  0  0
   40.3062   33.0605   45.3237 H   0  0  0  0  0  0  0  0  0  0  0  0
   37.0467   29.1643   52.7116 H   0  0  0  0  0  0  0  0  0  0  0  0
   38.4859   30.2171   52.6568 H   0  0  0  0  0  0  0  0  0  0  0  0
  1  2  2  0
  1 19  1  0
  3  2  1  0
  4  3  2  0
  5  4  1  0
  5  6  2  0
  6  1  1  0
  8  9  2  0
  8  7  1  0
  9  5  1  0
 10  9  1  0
 11 10  2  0
 12 11  1  0
 12 14  2  0
 13 12  1  0
 14  8  1  0
 15 26  1  0
 16 15  2  0
 17 16  1  0
 18 17  2  0
 18 19  1  0
 19 20  2  0
 20 15  1  0
 21 22  2  0
 21 17  1  0
 23 22  1  0
 24 25  2  0
 24 23  1  0
 25 21  1  0
  2 27  1  0
  3 28  1  0
  4 29  1  0
 10 30  1  0
 11 31  1  0
 14 32  1  0
 16 33  1  0
 22 34  1  0
 23 35  1  0
 24 36  1  0
 26 37  1  0
 26 38  1  0
M  ISO  8  27  14  28  14  29  14  30  14  31  14  32  14  33  14  34  14
M  ISO  2  35   9  36  14
M  END
>  <minimizedAffinity>  (1) 
-6.89903831

>  <minimizedRMSD>  (1) 
0.635896921

$$$$
