
     RDKit          3D

 36 38  0  0  0  0  0  0  0  0999 V2000
   34.2150   29.2620   47.7990 C   0  0  0  0  0  0  0  0  0  0  0  0
   34.2390   28.6940   49.0830 C   0  0  0  0  0  0  0  0  0  0  0  0
   35.2430   28.8290   49.9850 C   0  0  0  0  0  0  0  0  0  0  0  0
   36.3340   29.5540   49.6840 C   0  0  0  0  0  0  0  0  0  0  0  0
   36.3210   30.1040   48.4500 C   0  0  0  0  0  0  0  0  0  0  0  0
   35.3230   29.9470   47.6050 N   0  0  0  0  0  0  0  0  0  0  0  0
   32.5560   30.3160   46.4840 C   0  0  0  0  0  0  0  0  0  0  0  0
   33.0700   29.0530   46.9300 C   0  0  0  0  0  0  0  0  0  0  0  0
   32.4250   27.9420   46.4690 C   0  0  0  0  0  0  0  0  0  0  0  0
   31.3550   28.1210   45.6320 N   0  0  0  0  0  0  0  0  0  0  0  0
   30.8970   29.2980   45.2320 C   0  0  0  0  0  0  0  0  0  0  0  0
   31.5110   30.3940   45.6690 N   0  0  0  0  0  0  0  0  0  0  0  0
   29.7810   29.2890   44.3650 N   0  0  0  0  0  0  0  0  0  0  0  0
   32.8920   26.6260   46.8860 C   0  0  0  0  0  0  0  0  0  0  0  0
   32.5910   26.4370   48.1640 F   0  0  0  0  0  0  0  0  0  0  0  0
   32.3860   25.5740   46.1440 F   0  0  0  0  0  0  0  0  0  0  0  0
   34.3000   26.5160   46.7690 F   0  0  0  0  0  0  0  0  0  0  0  0
   37.0720   32.4290   49.7410 F   0  0  0  0  0  0  0  0  0  0  0  0
   37.8180   32.0830   48.6430 C   0  0  0  0  0  0  0  0  0  0  0  0
   37.4580   30.9300   47.9880 C   0  0  0  0  0  0  0  0  0  0  0  0
   38.2330   30.6250   46.8950 C   0  0  0  0  0  0  0  0  0  0  0  0
   39.2830   31.4160   46.4930 C   0  0  0  0  0  0  0  0  0  0  0  0
   39.5920   32.5600   47.1940 C   0  0  0  0  0  0  0  0  0  0  0  0
   38.8640   32.9190   48.2860 C   0  0  0  0  0  0  0  0  0  0  0  0
   39.1690   34.1270   49.0480 C   0  0  0  0  0  0  0  0  0  0  0  0
   39.7330   34.0100   50.1670 O   0  0  0  0  0  0  0  0  0  0  0  0
   33.3707   28.0888   49.3825 H   0  0  0  0  0  0  0  0  0  0  0  0
   35.1639   28.3424   50.9683 H   0  0  0  0  0  0  0  0  0  0  0  0
   37.1702   29.6887   50.3859 H   0  0  0  0  0  0  0  0  0  0  0  0
   33.0398   31.2428   46.8259 H   0  0  0  0  0  0  0  0  0  0  0  0
   29.3860   30.1773   44.0248 H   0  0  0  0  0  0  0  0  0  0  0  0
   29.3626   28.3941   44.0733 H   0  0  0  0  0  0  0  0  0  0  0  0
   38.0049   29.7149   46.3209 H   0  0  0  0  0  0  0  0  0  0  0  0
   39.8767   31.1348   45.6107 H   0  0  0  0  0  0  0  0  0  0  0  0
   40.4340   33.1887   46.8687 H   0  0  0  0  0  0  0  0  0  0  0  0
   38.9107   35.1200   48.6515 H   0  0  0  0  0  0  0  0  0  0  0  0
  1  2  2  0
  2  3  1  0
  4  3  2  0
  5  4  1  0
  6  1  1  0
  6  5  2  0
  7  8  2  0
  8  1  1  0
  9 14  1  0
  9  8  1  0
 10  9  2  0
 11 10  1  0
 11 12  2  0
 12  7  1  0
 13 11  1  0
 14 15  1  0
 16 14  1  0
 17 14  1  0
 19 18  1  0
 20  5  1  0
 20 19  2  0
 21 20  1  0
 22 21  2  0
 22 23  1  0
 23 24  2  0
 24 19  1  0
 24 25  1  0
 25 26  2  0
  2 27  1  0
  3 28  1  0
  4 29  1  0
  7 30  1  0
 13 31  1  0
 13 32  1  0
 21 33  1  0
 22 34  1  0
 23 35  1  0
 25 36  1  0
M  ISO  8  27  14  28  14  29  14  30  14  33  14  34  14  35  14  36   6
M  END
>  <minimizedAffinity>  (1) 
-6.44014692

>  <minimizedRMSD>  (1) 
2.31447029

$$$$
