
     RDKit          3D

 34 36  0  0  0  0  0  0  0  0999 V2000
   34.7700   29.1060   48.3200 C   0  0  0  0  0  0  0  0  0  0  0  0
   34.4170   27.8560   48.7880 C   0  0  0  0  0  0  0  0  0  0  0  0
   33.2930   27.3320   48.2000 C   0  0  0  0  0  0  0  0  0  0  0  0
   32.5770   27.9910   47.2280 C   0  0  0  0  0  0  0  0  0  0  0  0
   32.9970   29.2290   46.8230 C   0  0  0  0  0  0  0  0  0  0  0  0
   34.0970   29.7750   47.3770 N   0  0  0  0  0  0  0  0  0  0  0  0
   29.9770   29.1430   46.9630 Cl  0  0  0  0  0  0  0  0  0  0  0  0
   30.9100   29.9990   45.7790 C   0  0  0  0  0  0  0  0  0  0  0  0
   32.2820   29.9740   45.8060 C   0  0  0  0  0  0  0  0  0  0  0  0
   32.8920   30.7070   44.7960 C   0  0  0  0  0  0  0  0  0  0  0  0
   32.2260   31.4110   43.8350 C   0  0  0  0  0  0  0  0  0  0  0  0
   30.8450   31.4160   43.8400 C   0  0  0  0  0  0  0  0  0  0  0  0
   29.9370   32.2990   42.6370 Cl  0  0  0  0  0  0  0  0  0  0  0  0
   30.1920   30.7010   44.8240 C   0  0  0  0  0  0  0  0  0  0  0  0
   37.4020   30.1640   50.6620 C   0  0  0  0  0  0  0  0  0  0  0  0
   38.2080   31.0020   49.8710 C   0  0  0  0  0  0  0  0  0  0  0  0
   37.8270   31.1860   48.5470 C   0  0  0  0  0  0  0  0  0  0  0  0
   36.7200   30.5530   48.1180 N   0  0  0  0  0  0  0  0  0  0  0  0
   35.9560   29.7550   48.8740 C   0  0  0  0  0  0  0  0  0  0  0  0
   36.3180   29.5740   50.1530 N   0  0  0  0  0  0  0  0  0  0  0  0
   38.6720   32.0680   47.7090 C   0  0  0  0  0  0  0  0  0  0  0  0
   39.1450   33.1700   48.4180 F   0  0  0  0  0  0  0  0  0  0  0  0
   37.9340   32.6060   46.6500 F   0  0  0  0  0  0  0  0  0  0  0  0
   39.7100   31.3880   47.1180 F   0  0  0  0  0  0  0  0  0  0  0  0
   37.6930   29.8980   52.0420 N   0  0  0  0  0  0  0  0  0  0  0  0
   34.9873   27.3259   49.5650 H   0  0  0  0  0  0  0  0  0  0  0  0
   32.9485   26.3380   48.5213 H   0  0  0  0  0  0  0  0  0  0  0  0
   31.6821   27.5309   46.7837 H   0  0  0  0  0  0  0  0  0  0  0  0
   33.9916   30.7211   44.7687 H   0  0  0  0  0  0  0  0  0  0  0  0
   32.7822   31.9674   43.0662 H   0  0  0  0  0  0  0  0  0  0  0  0
   29.0924   30.6884   44.8502 H   0  0  0  0  0  0  0  0  0  0  0  0
   39.1028   31.4915   50.2829 H   0  0  0  0  0  0  0  0  0  0  0  0
   37.0777   29.2781   52.5879 H   0  0  0  0  0  0  0  0  0  0  0  0
   38.5172   30.3270   52.4865 H   0  0  0  0  0  0  0  0  0  0  0  0
  1  2  2  0
  1 19  1  0
  3  2  1  0
  4  3  2  0
  5  4  1  0
  5  6  2  0
  6  1  1  0
  8  9  2  0
  8  7  1  0
  9  5  1  0
 10  9  1  0
 11 12  1  0
 11 10  2  0
 12 14  2  0
 13 12  1  0
 14  8  1  0
 15 25  1  0
 16 15  2  0
 17 16  1  0
 18 17  2  0
 18 19  1  0
 19 20  2  0
 20 15  1  0
 21 22  1  0
 21 17  1  0
 23 21  1  0
 24 21  1  0
  2 26  1  0
  3 27  1  0
  4 28  1  0
 10 29  1  0
 11 30  1  0
 14 31  1  0
 16 32  1  0
 25 33  1  0
 25 34  1  0
M  ISO  7  26  14  27  14  28  14  29  14  30  14  31  14  32  14
M  END
>  <minimizedAffinity>  (1) 
-6.69191456

>  <minimizedRMSD>  (1) 
0.577953637

$$$$
