
     RDKit          3D

 37 40  0  0  0  0  0  0  0  0999 V2000
   34.7410   29.2170   47.9970 C   0  0  0  0  0  0  0  0  0  0  0  0
   34.5080   28.0390   48.6840 C   0  0  0  0  0  0  0  0  0  0  0  0
   33.3090   27.4480   48.3950 C   0  0  0  0  0  0  0  0  0  0  0  0
   32.4020   27.9750   47.4960 C   0  0  0  0  0  0  0  0  0  0  0  0
   32.7160   29.1450   46.8610 C   0  0  0  0  0  0  0  0  0  0  0  0
   33.8890   29.7580   47.1200 N   0  0  0  0  0  0  0  0  0  0  0  0
   29.7650   28.8010   47.3920 Cl  0  0  0  0  0  0  0  0  0  0  0  0
   30.4500   29.6560   46.0510 C   0  0  0  0  0  0  0  0  0  0  0  0
   31.8080   29.7520   45.9060 C   0  0  0  0  0  0  0  0  0  0  0  0
   32.2070   30.4690   44.7850 C   0  0  0  0  0  0  0  0  0  0  0  0
   31.3650   31.0470   43.8780 C   0  0  0  0  0  0  0  0  0  0  0  0
   30.0110   30.9250   44.0650 C   0  0  0  0  0  0  0  0  0  0  0  0
   28.8950   31.6490   42.9310 Cl  0  0  0  0  0  0  0  0  0  0  0  0
   29.5600   30.2250   45.1600 C   0  0  0  0  0  0  0  0  0  0  0  0
   37.7330   30.5640   49.6450 C   0  0  0  0  0  0  0  0  0  0  0  0
   38.3680   31.2680   48.6230 C   0  0  0  0  0  0  0  0  0  0  0  0
   37.7570   31.2750   47.3650 C   0  0  0  0  0  0  0  0  0  0  0  0
   36.5930   30.5950   47.2430 N   0  0  0  0  0  0  0  0  0  0  0  0
   35.9970   29.9260   48.2300 C   0  0  0  0  0  0  0  0  0  0  0  0
   36.5870   29.9230   49.4300 N   0  0  0  0  0  0  0  0  0  0  0  0
   38.3640   31.9900   46.2490 C   0  0  0  0  0  0  0  0  0  0  0  0
   39.6590   32.6170   46.4300 C   0  0  0  0  0  0  0  0  0  0  0  0
   39.9570   33.3520   44.7870 S   0  0  0  0  0  0  0  0  0  0  0  0
   38.2960   32.6970   44.1290 C   0  0  0  0  0  0  0  0  0  0  0  0
   37.8330   32.1350   45.0280 N   0  0  0  0  0  0  0  0  0  0  0  0
   38.2890   30.5040   50.9670 N   0  0  0  0  0  0  0  0  0  0  0  0
   35.2256   27.6141   49.4013 H   0  0  0  0  0  0  0  0  0  0  0  0
   33.0542   26.5065   48.9035 H   0  0  0  0  0  0  0  0  0  0  0  0
   31.4483   27.4649   47.2953 H   0  0  0  0  0  0  0  0  0  0  0  0
   33.2879   30.5802   44.6141 H   0  0  0  0  0  0  0  0  0  0  0  0
   31.7644   31.5994   43.0147 H   0  0  0  0  0  0  0  0  0  0  0  0
   28.4783   30.1169   45.3283 H   0  0  0  0  0  0  0  0  0  0  0  0
   39.3152   31.7987   48.7996 H   0  0  0  0  0  0  0  0  0  0  0  0
   40.2966   32.6428   47.3260 H   0  0  0  0  0  0  0  0  0  0  0  0
   37.8721   32.8240   43.1219 H   0  0  0  0  0  0  0  0  0  0  0  0
   37.8026   29.9778   51.7069 H   0  0  0  0  0  0  0  0  0  0  0  0
   39.1744   30.9871   51.1757 H   0  0  0  0  0  0  0  0  0  0  0  0
  1 19  1  0
  1  2  2  0
  3  2  1  0
  4  3  2  0
  5  6  2  0
  5  4  1  0
  6  1  1  0
  8  7  1  0
  9  8  2  0
  9  5  1  0
 10  9  1  0
 11 12  1  0
 11 10  2  0
 12 14  2  0
 13 12  1  0
 14  8  1  0
 15 26  1  0
 16 15  2  0
 17 16  1  0
 18 17  2  0
 18 19  1  0
 19 20  2  0
 20 15  1  0
 21 22  2  0
 21 17  1  0
 23 22  1  0
 24 23  1  0
 24 25  2  0
 25 21  1  0
  2 27  1  0
  3 28  1  0
  4 29  1  0
 10 30  1  0
 11 31  1  0
 14 32  1  0
 16 33  1  0
 22 34  1  0
 24 35  1  0
 26 36  1  0
 26 37  1  0
M  ISO  8  27  14  28  14  29  14  30  14  31  14  32  14  33  14  34  14
M  ISO  1  35  14
M  END
>  <minimizedAffinity>  (1) 
-6.50745678

>  <minimizedRMSD>  (1) 
1.27585268

$$$$
