
     RDKit          3D

 34 36  0  0  0  0  0  0  0  0999 V2000
   34.8210   29.1630   48.3860 C   0  0  0  0  0  0  0  0  0  0  0  0
   34.5120   27.8880   48.8220 C   0  0  0  0  0  0  0  0  0  0  0  0
   33.4130   27.3290   48.1970 C   0  0  0  0  0  0  0  0  0  0  0  0
   32.6890   27.9860   47.2220 C   0  0  0  0  0  0  0  0  0  0  0  0
   33.0770   29.2470   46.8610 C   0  0  0  0  0  0  0  0  0  0  0  0
   34.1430   29.8300   47.4460 N   0  0  0  0  0  0  0  0  0  0  0  0
   30.0630   29.1190   46.9630 Cl  0  0  0  0  0  0  0  0  0  0  0  0
   30.9840   30.0000   45.7980 C   0  0  0  0  0  0  0  0  0  0  0  0
   32.3520   29.9880   45.8430 C   0  0  0  0  0  0  0  0  0  0  0  0
   32.9570   30.7410   44.8450 C   0  0  0  0  0  0  0  0  0  0  0  0
   32.2820   31.4450   43.8850 C   0  0  0  0  0  0  0  0  0  0  0  0
   30.9020   31.4310   43.8760 C   0  0  0  0  0  0  0  0  0  0  0  0
   30.0400   32.3250   42.6580 Cl  0  0  0  0  0  0  0  0  0  0  0  0
   30.2740   30.7020   44.8400 C   0  0  0  0  0  0  0  0  0  0  0  0
   37.4420   30.1780   50.7480 C   0  0  0  0  0  0  0  0  0  0  0  0
   38.1450   31.1610   50.0530 C   0  0  0  0  0  0  0  0  0  0  0  0
   37.7060   31.4610   48.7800 C   0  0  0  0  0  0  0  0  0  0  0  0
   36.6360   30.7870   48.3040 N   0  0  0  0  0  0  0  0  0  0  0  0
   35.9710   29.8450   48.9810 C   0  0  0  0  0  0  0  0  0  0  0  0
   36.3930   29.5440   50.2300 N   0  0  0  0  0  0  0  0  0  0  0  0
   37.8120   29.7760   52.0970 N   0  0  0  0  0  0  0  0  0  0  0  0
   38.4040   32.4980   47.9770 C   0  0  0  0  0  0  0  0  0  0  0  0
   35.0898   27.3644   49.5979 H   0  0  0  0  0  0  0  0  0  0  0  0
   33.1013   26.3154   48.4895 H   0  0  0  0  0  0  0  0  0  0  0  0
   31.8205   27.5066   46.7467 H   0  0  0  0  0  0  0  0  0  0  0  0
   34.0563   30.7738   44.8248 H   0  0  0  0  0  0  0  0  0  0  0  0
   32.8353   32.0178   43.1262 H   0  0  0  0  0  0  0  0  0  0  0  0
   29.1746   30.6705   44.8574 H   0  0  0  0  0  0  0  0  0  0  0  0
   39.0099   31.6738   50.4991 H   0  0  0  0  0  0  0  0  0  0  0  0
   37.2718   29.0462   52.5833 H   0  0  0  0  0  0  0  0  0  0  0  0
   38.6140   30.2213   52.5653 H   0  0  0  0  0  0  0  0  0  0  0  0
   38.8892   33.2189   48.6514 H   0  0  0  0  0  0  0  0  0  0  0  0
   39.1649   32.0199   47.3425 H   0  0  0  0  0  0  0  0  0  0  0  0
   37.6747   33.0229   47.3425 H   0  0  0  0  0  0  0  0  0  0  0  0
  1  2  2  0
  1 19  1  0
  3  2  1  0
  4  3  2  0
  5  4  1  0
  5  6  2  0
  6  1  1  0
  8  9  2  0
  8  7  1  0
  9  5  1  0
 10  9  1  0
 11 10  2  0
 12 11  1  0
 12 14  2  0
 13 12  1  0
 14  8  1  0
 15 21  1  0
 16 15  2  0
 17 16  1  0
 18 17  2  0
 18 19  1  0
 19 20  2  0
 20 15  1  0
 22 17  1  0
  2 23  1  0
  3 24  1  0
  4 25  1  0
 10 26  1  0
 11 27  1  0
 14 28  1  0
 16 29  1  0
 21 30  1  0
 21 31  1  0
 22 32  1  0
 22 33  1  0
 22 34  1  0
M  ISO  8  23  14  24  14  25  14  26  14  27  14  28  14  29  14  32   8
M  ISO  2  33   8  34   8
M  END
>  <minimizedAffinity>  (1) 
-6.09115648

>  <minimizedRMSD>  (1) 
0.198225468

$$$$
