
     RDKit          3D

 32 34  0  0  0  0  0  0  0  0999 V2000
   34.7590   29.2750   48.3110 C   0  0  0  0  0  0  0  0  0  0  0  0
   34.5120   27.9810   48.7270 C   0  0  0  0  0  0  0  0  0  0  0  0
   33.4370   27.3940   48.1100 C   0  0  0  0  0  0  0  0  0  0  0  0
   32.6670   28.0290   47.1580 C   0  0  0  0  0  0  0  0  0  0  0  0
   32.9910   29.3130   46.8110 C   0  0  0  0  0  0  0  0  0  0  0  0
   34.0380   29.9270   47.3920 N   0  0  0  0  0  0  0  0  0  0  0  0
   29.9800   29.0860   46.9990 Cl  0  0  0  0  0  0  0  0  0  0  0  0
   30.8490   30.0010   45.8170 C   0  0  0  0  0  0  0  0  0  0  0  0
   32.2210   30.0410   45.8180 C   0  0  0  0  0  0  0  0  0  0  0  0
   32.7770   30.8190   44.8090 C   0  0  0  0  0  0  0  0  0  0  0  0
   32.0490   31.5050   43.8730 C   0  0  0  0  0  0  0  0  0  0  0  0
   30.6730   31.4430   43.9020 C   0  0  0  0  0  0  0  0  0  0  0  0
   29.7180   32.3050   42.7240 Cl  0  0  0  0  0  0  0  0  0  0  0  0
   30.0810   30.6820   44.8870 C   0  0  0  0  0  0  0  0  0  0  0  0
   37.3910   30.3350   50.6400 C   0  0  0  0  0  0  0  0  0  0  0  0
   38.0150   31.3820   49.9630 C   0  0  0  0  0  0  0  0  0  0  0  0
   37.5280   31.7170   48.7160 C   0  0  0  0  0  0  0  0  0  0  0  0
   36.4780   31.0020   48.2400 N   0  0  0  0  0  0  0  0  0  0  0  0
   35.8890   30.0000   48.9000 C   0  0  0  0  0  0  0  0  0  0  0  0
   36.3660   29.6790   50.1130 N   0  0  0  0  0  0  0  0  0  0  0  0
   37.8260   29.8960   51.9610 N   0  0  0  0  0  0  0  0  0  0  0  0
   38.1230   32.7560   48.0070 O   0  0  0  0  0  0  0  0  0  0  0  0
   35.1224   27.4678   49.4847 H   0  0  0  0  0  0  0  0  0  0  0  0
   33.1751   26.3627   48.3890 H   0  0  0  0  0  0  0  0  0  0  0  0
   31.8139   27.5165   46.6893 H   0  0  0  0  0  0  0  0  0  0  0  0
   33.8737   30.8883   44.7589 H   0  0  0  0  0  0  0  0  0  0  0  0
   32.5599   32.1017   43.1030 H   0  0  0  0  0  0  0  0  0  0  0  0
   28.9841   30.6146   44.9352 H   0  0  0  0  0  0  0  0  0  0  0  0
   38.8647   31.9215   50.4068 H   0  0  0  0  0  0  0  0  0  0  0  0
   37.3407   29.1185   52.4310 H   0  0  0  0  0  0  0  0  0  0  0  0
   38.6185   30.3634   52.4239 H   0  0  0  0  0  0  0  0  0  0  0  0
   37.7809   33.0039   47.1117 H   0  0  0  0  0  0  0  0  0  0  0  0
  1  2  2  0
  1 19  1  0
  3  2  1  0
  4  3  2  0
  5  4  1  0
  5  6  2  0
  6  1  1  0
  8  9  2  0
  8  7  1  0
  9  5  1  0
 10  9  1  0
 11 12  1  0
 11 10  2  0
 12 14  2  0
 13 12  1  0
 14  8  1  0
 15 21  1  0
 16 15  2  0
 17 16  1  0
 18 17  2  0
 18 19  1  0
 19 20  2  0
 20 15  1  0
 22 17  1  0
  2 23  1  0
  3 24  1  0
  4 25  1  0
 10 26  1  0
 11 27  1  0
 14 28  1  0
 16 29  1  0
 21 30  1  0
 21 31  1  0
 22 32  1  0
M  ISO  8  23  14  24  14  25  14  26  14  27  14  28  14  29  14  32   3
M  END
>  <minimizedAffinity>  (1) 
-6.04923105

>  <minimizedRMSD>  (1) 
0.0427502841

$$$$
