
     RDKit          3D

 45 48  0  0  0  0  0  0  0  0999 V2000
   34.6910   30.1730   47.5700 C   0  0  0  0  0  0  0  0  0  0  0  0
   34.8920   30.4700   48.9340 C   0  0  0  0  0  0  0  0  0  0  0  0
   36.0420   30.9450   49.4770 C   0  0  0  0  0  0  0  0  0  0  0  0
   37.1200   31.1730   48.7070 C   0  0  0  0  0  0  0  0  0  0  0  0
   36.9360   30.8890   47.3960 C   0  0  0  0  0  0  0  0  0  0  0  0
   35.7980   30.4270   46.9020 N   0  0  0  0  0  0  0  0  0  0  0  0
   32.8030   30.6360   46.2230 C   0  0  0  0  0  0  0  0  0  0  0  0
   33.3990   29.6820   47.1120 C   0  0  0  0  0  0  0  0  0  0  0  0
   32.6910   28.5420   47.3500 C   0  0  0  0  0  0  0  0  0  0  0  0
   31.4760   28.4000   46.7240 N   0  0  0  0  0  0  0  0  0  0  0  0
   30.9350   29.2930   45.9000 C   0  0  0  0  0  0  0  0  0  0  0  0
   31.6220   30.4230   45.6580 N   0  0  0  0  0  0  0  0  0  0  0  0
   29.6880   28.9740   45.3510 N   0  0  0  0  0  0  0  0  0  0  0  0
   33.2420   27.5360   48.2430 C   0  0  0  0  0  0  0  0  0  0  0  0
   33.2290   27.9870   49.4810 F   0  0  0  0  0  0  0  0  0  0  0  0
   32.5990   26.3110   48.2050 F   0  0  0  0  0  0  0  0  0  0  0  0
   34.5980   27.2460   47.9220 F   0  0  0  0  0  0  0  0  0  0  0  0
   36.4690   31.2300   44.6900 F   0  0  0  0  0  0  0  0  0  0  0  0
   37.7820   31.2570   45.0750 C   0  0  0  0  0  0  0  0  0  0  0  0
   38.0320   31.0900   46.4250 C   0  0  0  0  0  0  0  0  0  0  0  0
   39.3650   31.1260   46.7660 C   0  0  0  0  0  0  0  0  0  0  0  0
   40.3560   31.3160   45.8280 C   0  0  0  0  0  0  0  0  0  0  0  0
   40.0450   31.4750   44.5060 C   0  0  0  0  0  0  0  0  0  0  0  0
   38.7420   31.4470   44.1120 C   0  0  0  0  0  0  0  0  0  0  0  0
   38.2030   30.4220   41.9730 C   0  0  0  0  0  0  0  0  0  0  0  0
   38.3050   31.6100   42.7080 C   0  0  0  0  0  0  0  0  0  0  0  0
   38.0110   32.8480   42.1360 C   0  0  0  0  0  0  0  0  0  0  0  0
   37.6110   32.8880   40.8130 C   0  0  0  0  0  0  0  0  0  0  0  0
   37.5000   31.7330   40.0620 C   0  0  0  0  0  0  0  0  0  0  0  0
   37.7950   30.5170   40.6400 C   0  0  0  0  0  0  0  0  0  0  0  0
   38.7460   28.1100   43.0430 N   0  0  0  0  0  0  0  0  0  0  0  0
   38.5070   29.1480   42.5710 C   0  0  0  0  0  0  0  0  0  0  0  0
   34.0451   30.3026   49.6157 H   0  0  0  0  0  0  0  0  0  0  0  0
   36.0922   31.1452   50.5575 H   0  0  0  0  0  0  0  0  0  0  0  0
   38.0698   31.5572   49.1075 H   0  0  0  0  0  0  0  0  0  0  0  0
   33.3401   31.5705   46.0034 H   0  0  0  0  0  0  0  0  0  0  0  0
   29.2255   29.6313   44.7068 H   0  0  0  0  0  0  0  0  0  0  0  0
   29.2326   28.0819   45.5911 H   0  0  0  0  0  0  0  0  0  0  0  0
   39.6481   30.9990   47.8213 H   0  0  0  0  0  0  0  0  0  0  0  0
   41.4088   31.3401   46.1460 H   0  0  0  0  0  0  0  0  0  0  0  0
   40.8436   31.6248   43.7645 H   0  0  0  0  0  0  0  0  0  0  0  0
   38.0956   33.7730   42.7252 H   0  0  0  0  0  0  0  0  0  0  0  0
   37.3766   33.8576   40.3493 H   0  0  0  0  0  0  0  0  0  0  0  0
   37.1787   31.7838   39.0112 H   0  0  0  0  0  0  0  0  0  0  0  0
   37.7072   29.6004   40.0382 H   0  0  0  0  0  0  0  0  0  0  0  0
  1  2  2  0
  2  3  1  0
  4  3  2  0
  5  4  1  0
  6  5  2  0
  6  1  1  0
  7  8  2  0
  8  9  1  0
  8  1  1  0
  9 14  1  0
 10  9  2  0
 11 10  1  0
 12 11  2  0
 12  7  1  0
 13 11  1  0
 14 15  1  0
 16 14  1  0
 17 14  1  0
 18 19  1  0
 19 20  2  0
 20 21  1  0
 20  5  1  0
 22 21  2  0
 23 22  1  0
 24 23  2  0
 24 19  1  0
 25 32  1  0
 25 26  2  0
 26 24  1  0
 27 26  1  0
 28 27  2  0
 29 30  2  0
 29 28  1  0
 30 25  1  0
 32 31  3  0
  2 33  1  0
  3 34  1  0
  4 35  1  0
  7 36  1  0
 13 37  1  0
 13 38  1  0
 21 39  1  0
 22 40  1  0
 23 41  1  0
 27 42  1  0
 28 43  1  0
 29 44  1  0
 30 45  1  0
M  ISO  8  33  14  34  14  35  14  36  14  39  14  40  14  41  14  42  14
M  ISO  3  43  14  44  14  45  14
M  END
>  <minimizedAffinity>  (1) 
-6.38320637

>  <minimizedRMSD>  (1) 
6.11278534

$$$$
