
     RDKit          3D

 37 39  0  0  1  0  0  0  0  0999 V2000
   39.3120   32.6340   46.4490 C   0  0  0  0  0  0  0  0  0  0  0  0
   40.2650   31.8290   45.8120 C   0  0  0  0  0  0  0  0  0  0  0  0
   39.8630   30.5600   45.3430 C   0  0  0  0  0  0  0  0  0  0  0  0
   38.5640   30.1830   45.5320 N   0  0  0  0  0  0  0  0  0  0  0  0
   37.6840   30.9800   46.1450 C   0  0  0  0  0  0  0  0  0  0  0  0
   38.0470   32.1980   46.6030 N   0  0  0  0  0  0  0  0  0  0  0  0
   36.3330   30.5270   46.3170 N   0  0  0  0  0  0  0  0  0  0  0  0
   35.4730   30.1520   45.2160 C   0  0  0  0  0  0  0  0  0  0  0  0
   34.2880   29.5070   45.8330 C   0  0  0  0  0  0  0  0  0  0  0  0
   34.6320   29.3240   47.3000 C   0  0  0  0  0  0  0  0  0  0  0  0
   35.6370   30.3800   47.5710 C   0  0  1  0  0  0  0  0  0  0  0  0
   36.4190   30.2700   48.7220 N   0  0  0  0  0  0  0  0  0  0  0  0
   36.4360   29.0730   49.4560 C   0  0  0  0  0  0  0  0  0  0  0  0
   36.4060   29.3970   50.9530 C   0  0  0  0  0  0  0  0  0  0  0  0
   37.6870   30.1470   51.2620 C   0  0  0  0  0  0  0  0  0  0  0  0
   37.7420   31.4100   50.4320 C   0  0  0  0  0  0  0  0  0  0  0  0
   36.6320   31.4900   49.4290 C   0  0  0  0  0  0  0  0  0  0  0  0
   39.5982   33.6272   46.8253 H   0  0  0  0  0  0  0  0  0  0  0  0
   41.3002   32.1770   45.6807 H   0  0  0  0  0  0  0  0  0  0  0  0
   40.5770   29.8923   44.8386 H   0  0  0  0  0  0  0  0  0  0  0  0
   35.9898   29.4463   44.5489 H   0  0  0  0  0  0  0  0  0  0  0  0
   35.1897   31.0234   44.6074 H   0  0  0  0  0  0  0  0  0  0  0  0
   33.4023   30.1503   45.7249 H   0  0  0  0  0  0  0  0  0  0  0  0
   34.0529   28.5471   45.3501 H   0  0  0  0  0  0  0  0  0  0  0  0
   33.7410   29.4622   47.9301 H   0  0  0  0  0  0  0  0  0  0  0  0
   35.0098   28.3151   47.5221 H   0  0  0  0  0  0  0  0  0  0  0  0
   35.1426   31.3129   47.8797 H   0  0  0  0  0  0  0  0  0  0  0  0
   35.5556   28.4682   49.1932 H   0  0  0  0  0  0  0  0  0  0  0  0
   37.3499   28.5084   49.2193 H   0  0  0  0  0  0  0  0  0  0  0  0
   35.5334   30.0242   51.1877 H   0  0  0  0  0  0  0  0  0  0  0  0
   36.3295   28.4796   51.5550 H   0  0  0  0  0  0  0  0  0  0  0  0
   37.7107   30.4085   52.3302 H   0  0  0  0  0  0  0  0  0  0  0  0
   38.5521   29.5114   51.0218 H   0  0  0  0  0  0  0  0  0  0  0  0
   37.6715   32.2771   51.1052 H   0  0  0  0  0  0  0  0  0  0  0  0
   38.6919   31.4026   49.8773 H   0  0  0  0  0  0  0  0  0  0  0  0
   36.8763   32.2772   48.7005 H   0  0  0  0  0  0  0  0  0  0  0  0
   35.7079   31.7095   49.9839 H   0  0  0  0  0  0  0  0  0  0  0  0
  1  6  2  0
  2  1  1  0
  3  4  1  0
  3  2  2  0
  4  5  2  0
  5  7  1  0
  5  6  1  0
  7 11  1  0
  8  9  1  0
  8  7  1  0
  9 10  1  0
 10 11  1  0
 11 12  1  0
 12 17  1  0
 12 13  1  0
 13 14  1  0
 14 15  1  0
 16 15  1  0
 17 16  1  0
  1 18  1  0
  2 19  1  0
  3 20  1  0
  8 21  1  0
  8 22  1  0
  9 23  1  0
  9 24  1  0
 10 25  1  0
 10 26  1  0
 11 27  1  1
 13 28  1  0
 13 29  1  0
 14 30  1  0
 14 31  1  0
 15 32  1  0
 15 33  1  0
 16 34  1  0
 16 35  1  0
 17 36  1  0
 17 37  1  0
M  ISO  8  18  14  19  14  20  14  21  13  22  13  23  13  24  13  25  13
M  ISO  8  26  13  27  13  28  13  29  13  30  13  31  13  32  13  33  13
M  ISO  4  34  13  35  13  36  13  37  13
M  END
>  <minimizedAffinity>  (1) 
-5.6006732

>  <minimizedRMSD>  (1) 
2.88462615

$$$$
