
     RDKit          3D

 40 43  0  0  0  0  0  0  0  0999 V2000
   33.5390   28.2210   47.6320 C   0  0  0  0  0  0  0  0  0  0  0  0
   33.7870   26.8430   47.7060 C   0  0  0  0  0  0  0  0  0  0  0  0
   32.8530   25.8680   47.8530 C   0  0  0  0  0  0  0  0  0  0  0  0
   31.5500   26.1910   47.9410 C   0  0  0  0  0  0  0  0  0  0  0  0
   31.2910   27.5150   47.8710 C   0  0  0  0  0  0  0  0  0  0  0  0
   32.2390   28.4280   47.7280 N   0  0  0  0  0  0  0  0  0  0  0  0
   34.8590   29.3850   46.0570 C   0  0  0  0  0  0  0  0  0  0  0  0
   34.6400   29.1580   47.4550 C   0  0  0  0  0  0  0  0  0  0  0  0
   35.4460   29.8280   48.3260 C   0  0  0  0  0  0  0  0  0  0  0  0
   36.3930   30.6580   47.7860 N   0  0  0  0  0  0  0  0  0  0  0  0
   36.5970   30.8700   46.4950 C   0  0  0  0  0  0  0  0  0  0  0  0
   35.8070   30.2130   45.6290 N   0  0  0  0  0  0  0  0  0  0  0  0
   37.6080   31.7610   46.1340 N   0  0  0  0  0  0  0  0  0  0  0  0
   35.2710   29.6350   49.7550 C   0  0  0  0  0  0  0  0  0  0  0  0
   35.4980   28.3740   50.0590 F   0  0  0  0  0  0  0  0  0  0  0  0
   36.0700   30.4400   50.5480 F   0  0  0  0  0  0  0  0  0  0  0  0
   33.9340   29.9280   50.1550 F   0  0  0  0  0  0  0  0  0  0  0  0
   29.7160   27.8870   45.6430 F   0  0  0  0  0  0  0  0  0  0  0  0
   29.1250   28.1950   46.8300 C   0  0  0  0  0  0  0  0  0  0  0  0
   29.8990   28.0070   47.9520 C   0  0  0  0  0  0  0  0  0  0  0  0
   29.2760   28.3150   49.1440 C   0  0  0  0  0  0  0  0  0  0  0  0
   27.9790   28.7760   49.1920 C   0  0  0  0  0  0  0  0  0  0  0  0
   27.2610   28.9430   48.0460 C   0  0  0  0  0  0  0  0  0  0  0  0
   27.8370   28.6490   46.8220 C   0  0  0  0  0  0  0  0  0  0  0  0
   27.0220   28.8480   45.6280 C   0  0  0  0  0  0  0  0  0  0  0  0
   27.1380   30.0470   44.8920 C   0  0  0  0  0  0  0  0  0  0  0  0
   25.9160   29.8140   43.4930 S   0  0  0  0  0  0  0  0  0  0  0  0
   25.4740   28.1000   44.1870 C   0  0  0  0  0  0  0  0  0  0  0  0
   26.1340   27.9930   45.1150 N   0  0  0  0  0  0  0  0  0  0  0  0
   34.8368   26.5213   47.6387 H   0  0  0  0  0  0  0  0  0  0  0  0
   33.1622   24.8134   47.9001 H   0  0  0  0  0  0  0  0  0  0  0  0
   30.7582   25.4368   48.0605 H   0  0  0  0  0  0  0  0  0  0  0  0
   34.2289   28.8627   45.3220 H   0  0  0  0  0  0  0  0  0  0  0  0
   37.7959   31.9511   45.1393 H   0  0  0  0  0  0  0  0  0  0  0  0
   38.1665   32.2287   46.8622 H   0  0  0  0  0  0  0  0  0  0  0  0
   29.8321   28.1885   50.0846 H   0  0  0  0  0  0  0  0  0  0  0  0
   27.5191   29.0112   50.1632 H   0  0  0  0  0  0  0  0  0  0  0  0
   26.2254   29.3108   48.0934 H   0  0  0  0  0  0  0  0  0  0  0  0
   27.7895   30.9104   45.0923 H   0  0  0  0  0  0  0  0  0  0  0  0
   24.7487   27.3761   43.7871 H   0  0  0  0  0  0  0  0  0  0  0  0
  1  2  2  0
  1  6  1  0
  2  3  1  0
  3  4  2  0
  5  4  1  0
  5 20  1  0
  6  5  2  0
  7  8  2  0
  8  1  1  0
  8  9  1  0
  9 14  1  0
 10  9  2  0
 11 10  1  0
 12  7  1  0
 12 11  2  0
 13 11  1  0
 14 15  1  0
 14 17  1  0
 14 16  1  0
 18 19  1  0
 19 20  2  0
 20 21  1  0
 21 22  2  0
 23 22  1  0
 24 19  1  0
 24 23  2  0
 25 24  1  0
 26 25  2  0
 27 28  1  0
 27 26  1  0
 28 29  2  0
 29 25  1  0
  2 30  1  0
  3 31  1  0
  4 32  1  0
  7 33  1  0
 13 34  1  0
 13 35  1  0
 21 36  1  0
 22 37  1  0
 23 38  1  0
 26 39  1  0
 28 40  1  0
M  ISO  8  30  14  31  14  32  14  33  14  36  14  37  14  38  14  39  14
M  ISO  1  40  14
M  END
>  <minimizedAffinity>  (1) 
-6.22297812

>  <minimizedRMSD>  (1) 
9.05221748

$$$$
