
     RDKit          3D

 26 27  0  0  1  0  0  0  0  0999 V2000
   38.3440   33.0520   49.1820 C   0  0  0  0  0  0  0  0  0  0  0  0
   39.0410   33.0190   47.9680 C   0  0  0  0  0  0  0  0  0  0  0  0
   38.6550   32.0660   47.0230 C   0  0  0  0  0  0  0  0  0  0  0  0
   37.6310   31.2290   47.3320 N   0  0  0  0  0  0  0  0  0  0  0  0
   36.9840   31.2900   48.5130 C   0  0  0  0  0  0  0  0  0  0  0  0
   37.3310   32.1910   49.4340 N   0  0  0  0  0  0  0  0  0  0  0  0
   35.9150   30.3680   48.7560 N   0  0  0  0  0  0  0  0  0  0  0  0
   34.7230   30.3070   47.9050 C   0  0  0  0  0  0  0  0  0  0  0  0
   33.9800   29.1140   48.3700 C   0  0  0  0  0  0  0  0  0  0  0  0
   34.9480   28.3390   49.2410 C   0  0  0  0  0  0  0  0  0  0  0  0
   35.8380   29.4000   49.8210 C   0  0  1  0  0  0  0  0  0  0  0  0
   37.7320   29.2670   51.4650 C   0  0  0  0  0  0  0  0  0  0  0  0
   37.0840   30.1100   52.1550 O   0  0  0  0  0  0  0  0  0  0  0  0
   37.1080   28.8680   50.2290 N   0  0  0  0  0  0  0  0  0  0  0  0
   38.6254   33.7921   49.9456 H   0  0  0  0  0  0  0  0  0  0  0  0
   39.8644   33.7197   47.7656 H   0  0  0  0  0  0  0  0  0  0  0  0
   39.1676   31.9950   46.0524 H   0  0  0  0  0  0  0  0  0  0  0  0
   35.0078   30.1973   46.8482 H   0  0  0  0  0  0  0  0  0  0  0  0
   34.1183   31.2232   47.9751 H   0  0  0  0  0  0  0  0  0  0  0  0
   33.0972   29.4156   48.9529 H   0  0  0  0  0  0  0  0  0  0  0  0
   33.6192   28.5073   47.5264 H   0  0  0  0  0  0  0  0  0  0  0  0
   34.4132   27.7987   50.0360 H   0  0  0  0  0  0  0  0  0  0  0  0
   35.5069   27.5756   48.6799 H   0  0  0  0  0  0  0  0  0  0  0  0
   35.4568   29.8481   50.7505 H   0  0  0  0  0  0  0  0  0  0  0  0
   38.7046   28.8672   51.7878 H   0  0  0  0  0  0  0  0  0  0  0  0
   37.5844   28.1846   49.6233 H   0  0  0  0  0  0  0  0  0  0  0  0
  1  6  2  0
  2  1  1  0
  3  4  1  0
  3  2  2  0
  4  5  2  0
  5  7  1  0
  5  6  1  0
  7 11  1  0
  8  9  1  0
  8  7  1  0
  9 10  1  0
 10 11  1  0
 11 14  1  0
 12 13  2  0
 14 12  1  0
  1 15  1  0
  2 16  1  0
  3 17  1  0
  8 18  1  0
  8 19  1  0
  9 20  1  0
  9 21  1  0
 10 22  1  0
 10 23  1  0
 11 24  1  1
 12 25  1  0
 14 26  1  0
M  ISO  8  15  14  16  14  17  14  18  13  19  13  20  13  21  13  22  13
M  ISO  3  23  13  24  13  25   6
M  END
>  <minimizedAffinity>  (1) 
-4.90330124

>  <minimizedRMSD>  (1) 
0.899816573

$$$$
