
     RDKit          3D

 44 47  0  0  0  0  0  0  0  0999 V2000
   32.6130   28.3010   47.5560 C   0  0  0  0  0  0  0  0  0  0  0  0
   32.9030   27.9320   48.8770 C   0  0  0  0  0  0  0  0  0  0  0  0
   34.0500   28.2180   49.5440 C   0  0  0  0  0  0  0  0  0  0  0  0
   35.0350   28.9130   48.9390 C   0  0  0  0  0  0  0  0  0  0  0  0
   34.7640   29.2720   47.6670 C   0  0  0  0  0  0  0  0  0  0  0  0
   33.6300   28.9710   47.0540 N   0  0  0  0  0  0  0  0  0  0  0  0
   30.5310   29.1160   46.7750 C   0  0  0  0  0  0  0  0  0  0  0  0
   31.3310   27.9420   46.9610 C   0  0  0  0  0  0  0  0  0  0  0  0
   30.7830   26.7610   46.5590 C   0  0  0  0  0  0  0  0  0  0  0  0
   29.5270   26.7940   46.0180 N   0  0  0  0  0  0  0  0  0  0  0  0
   28.7890   27.8860   45.8470 C   0  0  0  0  0  0  0  0  0  0  0  0
   29.3180   29.0540   46.2390 N   0  0  0  0  0  0  0  0  0  0  0  0
   27.5240   27.7330   45.2720 N   0  0  0  0  0  0  0  0  0  0  0  0
   31.5420   25.5310   46.7190 C   0  0  0  0  0  0  0  0  0  0  0  0
   31.6270   25.2290   47.9970 F   0  0  0  0  0  0  0  0  0  0  0  0
   31.0390   24.4460   46.0200 F   0  0  0  0  0  0  0  0  0  0  0  0
   32.8730   25.6770   46.2360 F   0  0  0  0  0  0  0  0  0  0  0  0
   36.4950   31.0890   48.8400 F   0  0  0  0  0  0  0  0  0  0  0  0
   36.6040   30.9450   47.4800 C   0  0  0  0  0  0  0  0  0  0  0  0
   35.7490   30.0390   46.8760 C   0  0  0  0  0  0  0  0  0  0  0  0
   35.9030   29.9320   45.5180 C   0  0  0  0  0  0  0  0  0  0  0  0
   36.8340   30.6690   44.8210 C   0  0  0  0  0  0  0  0  0  0  0  0
   37.6510   31.5510   45.4750 C   0  0  0  0  0  0  0  0  0  0  0  0
   37.5450   31.7010   46.8250 C   0  0  0  0  0  0  0  0  0  0  0  0
   37.1350   32.6340   49.4590 F   0  0  0  0  0  0  0  0  0  0  0  0
   38.2380   33.1070   48.8360 C   0  0  0  0  0  0  0  0  0  0  0  0
   38.3960   32.6290   47.5650 C   0  0  0  0  0  0  0  0  0  0  0  0
   39.4930   33.0300   46.7970 C   0  0  0  0  0  0  0  0  0  0  0  0
   40.4280   33.9180   47.3230 C   0  0  0  0  0  0  0  0  0  0  0  0
   40.2470   34.3800   48.5930 C   0  0  0  0  0  0  0  0  0  0  0  0
   39.1530   33.9810   49.3640 C   0  0  0  0  0  0  0  0  0  0  0  0
   32.1348   27.3616   49.4197 H   0  0  0  0  0  0  0  0  0  0  0  0
   34.1769   27.8812   50.5835 H   0  0  0  0  0  0  0  0  0  0  0  0
   35.9806   29.1660   49.4409 H   0  0  0  0  0  0  0  0  0  0  0  0
   30.9317   30.0927   47.0839 H   0  0  0  0  0  0  0  0  0  0  0  0
   26.9228   28.5561   45.1235 H   0  0  0  0  0  0  0  0  0  0  0  0
   27.1931   26.7972   44.9969 H   0  0  0  0  0  0  0  0  0  0  0  0
   35.2594   29.2319   44.9651 H   0  0  0  0  0  0  0  0  0  0  0  0
   36.9217   30.5481   43.7312 H   0  0  0  0  0  0  0  0  0  0  0  0
   38.3917   32.1376   44.9118 H   0  0  0  0  0  0  0  0  0  0  0  0
   39.6180   32.6433   45.7748 H   0  0  0  0  0  0  0  0  0  0  0  0
   41.2943   34.2399   46.7264 H   0  0  0  0  0  0  0  0  0  0  0  0
   40.9785   35.0822   49.0195 H   0  0  0  0  0  0  0  0  0  0  0  0
   39.0264   34.3650   50.3870 H   0  0  0  0  0  0  0  0  0  0  0  0
  1  2  2  0
  2  3  1  0
  4  3  2  0
  5  4  1  0
  6  1  1  0
  6  5  2  0
  7  8  2  0
  8  1  1  0
  9 14  1  0
  9  8  1  0
 10  9  2  0
 11 10  1  0
 11 12  2  0
 12  7  1  0
 13 11  1  0
 14 15  1  0
 16 14  1  0
 17 14  1  0
 19 18  1  0
 20 19  2  0
 20  5  1  0
 21 20  1  0
 22 23  1  0
 22 21  2  0
 23 24  2  0
 24 19  1  0
 24 27  1  0
 26 31  2  0
 26 25  1  0
 27 26  1  0
 28 29  1  0
 28 27  2  0
 29 30  2  0
 30 31  1  0
  2 32  1  0
  3 33  1  0
  4 34  1  0
  7 35  1  0
 13 36  1  0
 13 37  1  0
 21 38  1  0
 22 39  1  0
 23 40  1  0
 28 41  1  0
 29 42  1  0
 30 43  1  0
 31 44  1  0
M  ISO  8  32  14  33  14  34  14  35  14  38  14  39  14  40  14  41  14
M  ISO  3  42  14  43  14  44  14
M  END
>  <minimizedAffinity>  (1) 
-6.2077198

>  <minimizedRMSD>  (1) 
3.57228637

$$$$
