
     RDKit          3D

 35 37  0  0  0  0  0  0  0  0999 V2000
   33.9870   29.0280   47.4530 C   0  0  0  0  0  0  0  0  0  0  0  0
   33.9770   28.2780   48.6370 C   0  0  0  0  0  0  0  0  0  0  0  0
   34.9200   28.3120   49.6100 C   0  0  0  0  0  0  0  0  0  0  0  0
   35.9900   29.1170   49.4930 C   0  0  0  0  0  0  0  0  0  0  0  0
   36.0100   29.8500   48.3460 C   0  0  0  0  0  0  0  0  0  0  0  0
   35.0680   29.7820   47.4290 N   0  0  0  0  0  0  0  0  0  0  0  0
   31.6650   28.6560   47.1890 C   0  0  0  0  0  0  0  0  0  0  0  0
   32.8940   28.9020   46.4930 C   0  0  0  0  0  0  0  0  0  0  0  0
   32.8260   28.9830   45.1350 C   0  0  0  0  0  0  0  0  0  0  0  0
   31.5910   28.8250   44.5470 N   0  0  0  0  0  0  0  0  0  0  0  0
   30.4580   28.5980   45.2090 C   0  0  0  0  0  0  0  0  0  0  0  0
   30.5170   28.5150   46.5410 N   0  0  0  0  0  0  0  0  0  0  0  0
   29.2990   28.4740   44.4350 N   0  0  0  0  0  0  0  0  0  0  0  0
   34.0400   29.2310   44.3760 C   0  0  0  0  0  0  0  0  0  0  0  0
   34.9550   28.3340   44.6920 F   0  0  0  0  0  0  0  0  0  0  0  0
   33.8700   29.2400   43.0000 F   0  0  0  0  0  0  0  0  0  0  0  0
   34.5840   30.5190   44.6830 F   0  0  0  0  0  0  0  0  0  0  0  0
   36.5810   31.9810   50.0210 F   0  0  0  0  0  0  0  0  0  0  0  0
   37.3970   31.8390   48.9250 C   0  0  0  0  0  0  0  0  0  0  0  0
   37.1250   30.7820   48.0810 C   0  0  0  0  0  0  0  0  0  0  0  0
   37.9650   30.6810   47.0010 C   0  0  0  0  0  0  0  0  0  0  0  0
   38.9960   31.5600   46.7750 C   0  0  0  0  0  0  0  0  0  0  0  0
   39.2220   32.6020   47.6550 C   0  0  0  0  0  0  0  0  0  0  0  0
   38.4130   32.7520   48.7520 C   0  0  0  0  0  0  0  0  0  0  0  0
   38.6680   33.8000   49.6070 O   0  0  0  0  0  0  0  0  0  0  0  0
   33.1252   27.5991   48.7908 H   0  0  0  0  0  0  0  0  0  0  0  0
   34.8089   27.6767   50.5011 H   0  0  0  0  0  0  0  0  0  0  0  0
   36.7796   29.1781   50.2564 H   0  0  0  0  0  0  0  0  0  0  0  0
   31.6748   28.5825   48.2865 H   0  0  0  0  0  0  0  0  0  0  0  0
   28.3920   28.2979   44.8903 H   0  0  0  0  0  0  0  0  0  0  0  0
   29.3528   28.5589   43.4099 H   0  0  0  0  0  0  0  0  0  0  0  0
   37.8060   29.8609   46.2854 H   0  0  0  0  0  0  0  0  0  0  0  0
   39.6420   31.4348   45.8935 H   0  0  0  0  0  0  0  0  0  0  0  0
   40.0469   33.3074   47.4761 H   0  0  0  0  0  0  0  0  0  0  0  0
   38.1015   33.9347   50.4077 H   0  0  0  0  0  0  0  0  0  0  0  0
  1  2  2  0
  2  3  1  0
  4  3  2  0
  5  4  1  0
  6  1  1  0
  6  5  2  0
  8  7  2  0
  8  1  1  0
  9  8  1  0
 10  9  2  0
 10 11  1  0
 11 12  2  0
 12  7  1  0
 13 11  1  0
 14 17  1  0
 14 15  1  0
 14  9  1  0
 16 14  1  0
 19 18  1  0
 20  5  1  0
 20 19  2  0
 21 20  1  0
 22 21  2  0
 22 23  1  0
 23 24  2  0
 24 19  1  0
 24 25  1  0
  2 26  1  0
  3 27  1  0
  4 28  1  0
  7 29  1  0
 13 30  1  0
 13 31  1  0
 21 32  1  0
 22 33  1  0
 23 34  1  0
 25 35  1  0
M  ISO  8  26  14  27  14  28  14  29  14  32  14  33  14  34  14  35   3
M  END
>  <minimizedAffinity>  (1) 
-6.18276691

>  <minimizedRMSD>  (1) 
0.766412497

$$$$
