
     RDKit          3D

 36 38  0  0  1  0  0  0  0  0999 V2000
   39.8430   33.1720   45.3010 C   0  0  0  0  0  0  0  0  0  0  0  0
   40.9050   32.3530   44.9340 C   0  0  0  0  0  0  0  0  0  0  0  0
   40.6610   31.0040   44.7350 C   0  0  0  0  0  0  0  0  0  0  0  0
   39.4010   30.5330   44.9060 N   0  0  0  0  0  0  0  0  0  0  0  0
   38.3980   31.2940   45.2510 C   0  0  0  0  0  0  0  0  0  0  0  0
   38.6890   32.5550   45.4230 N   0  0  0  0  0  0  0  0  0  0  0  0
   37.1040   30.7580   45.4140 N   0  0  0  0  0  0  0  0  0  0  0  0
   36.4080   30.0490   44.3360 C   0  0  0  0  0  0  0  0  0  0  0  0
   35.1430   29.5980   44.9390 C   0  0  0  0  0  0  0  0  0  0  0  0
   35.3930   29.6720   46.4470 C   0  0  0  0  0  0  0  0  0  0  0  0
   36.2360   30.8460   46.5970 C   0  0  1  0  0  0  0  0  0  0  0  0
   36.7420   30.2360   48.9960 C   0  0  0  0  0  0  0  0  0  0  0  0
   36.8660   31.0600   47.8670 C   0  0  0  0  0  0  0  0  0  0  0  0
   37.7810   32.0820   48.0850 C   0  0  0  0  0  0  0  0  0  0  0  0
   38.4990   32.2870   49.2460 C   0  0  0  0  0  0  0  0  0  0  0  0
   38.2990   31.3990   50.3170 C   0  0  0  0  0  0  0  0  0  0  0  0
   37.4050   30.3440   50.2120 C   0  0  0  0  0  0  0  0  0  0  0  0
   37.1930   29.4110   51.3400 C   0  0  0  0  0  0  0  0  0  0  0  0
   35.8690   29.2990   51.6960 F   0  0  0  0  0  0  0  0  0  0  0  0
   37.7940   28.2190   51.0380 F   0  0  0  0  0  0  0  0  0  0  0  0
   37.8380   29.8770   52.4940 F   0  0  0  0  0  0  0  0  0  0  0  0
   34.9730   28.3650   48.9330 N   0  0  0  0  0  0  0  0  0  0  0  0
   35.7490   29.1860   48.9500 C   0  0  0  0  0  0  0  0  0  0  0  0
   39.9596   34.2518   45.4756 H   0  0  0  0  0  0  0  0  0  0  0  0
   41.9159   32.7669   44.8046 H   0  0  0  0  0  0  0  0  0  0  0  0
   41.4763   30.3258   44.4429 H   0  0  0  0  0  0  0  0  0  0  0  0
   37.0013   29.1893   43.9912 H   0  0  0  0  0  0  0  0  0  0  0  0
   36.2442   30.6885   43.4561 H   0  0  0  0  0  0  0  0  0  0  0  0
   34.3150   30.2614   44.6486 H   0  0  0  0  0  0  0  0  0  0  0  0
   34.8583   28.5877   44.6101 H   0  0  0  0  0  0  0  0  0  0  0  0
   34.4478   29.7946   46.9961 H   0  0  0  0  0  0  0  0  0  0  0  0
   35.8569   28.7589   46.8484 H   0  0  0  0  0  0  0  0  0  0  0  0
   35.6526   31.7781   46.6258 H   0  0  0  0  0  0  0  0  0  0  0  0
   37.9482   32.7902   47.2601 H   0  0  0  0  0  0  0  0  0  0  0  0
   39.2088   33.1231   49.3307 H   0  0  0  0  0  0  0  0  0  0  0  0
   38.8599   31.5430   51.2523 H   0  0  0  0  0  0  0  0  0  0  0  0
  1  6  2  0
  2  1  1  0
  3  4  1  0
  3  2  2  0
  4  5  2  0
  5  7  1  0
  5  6  1  0
  7 11  1  0
  8  9  1  0
  8  7  1  0
  9 10  1  0
 10 11  1  0
 11 13  1  0
 12 17  2  0
 13 14  2  0
 13 12  1  0
 14 15  1  0
 15 16  2  0
 17 16  1  0
 17 18  1  0
 18 19  1  0
 18 21  1  0
 20 18  1  0
 22 23  3  0
 23 12  1  0
  1 24  1  0
  2 25  1  0
  3 26  1  0
  8 27  1  0
  8 28  1  0
  9 29  1  0
  9 30  1  0
 10 31  1  0
 10 32  1  0
 11 33  1  6
 14 34  1  0
 15 35  1  0
 16 36  1  0
M  ISO  8  24  14  25  14  26  14  27  13  28  13  29  13  30  13  31  13
M  ISO  5  32  13  33  13  34  14  35  14  36  14
M  END
>  <minimizedAffinity>  (1) 
-7.18924475

>  <minimizedRMSD>  (1) 
1.11818552

$$$$
