
     RDKit          3D

 36 38  0  0  1  0  0  0  0  0999 V2000
   39.8480   32.8620   46.4640 C   0  0  0  0  0  0  0  0  0  0  0  0
   39.8330   32.0070   45.3480 C   0  0  0  0  0  0  0  0  0  0  0  0
   39.0500   30.8670   45.4110 C   0  0  0  0  0  0  0  0  0  0  0  0
   38.3560   30.6630   46.5520 N   0  0  0  0  0  0  0  0  0  0  0  0
   38.3690   31.4720   47.6110 C   0  0  0  0  0  0  0  0  0  0  0  0
   39.1190   32.5770   47.5660 N   0  0  0  0  0  0  0  0  0  0  0  0
   37.5920   31.1570   48.7660 N   0  0  0  0  0  0  0  0  0  0  0  0
   38.1950   31.3160   50.1000 C   0  0  0  0  0  0  0  0  0  0  0  0
   37.6660   30.3550   51.1130 C   0  0  0  0  0  0  0  0  0  0  0  0
   37.0930   29.1620   50.3660 C   0  0  0  0  0  0  0  0  0  0  0  0
   35.8450   29.6800   49.6790 C   0  0  0  0  0  0  0  0  0  0  0  0
   36.2450   30.7050   48.6640 C   0  0  2  0  0  0  0  0  0  0  0  0
   34.6990   29.3400   47.2780 C   0  0  0  0  0  0  0  0  0  0  0  0
   35.7820   30.2280   47.3600 C   0  0  0  0  0  0  0  0  0  0  0  0
   36.3180   30.5150   46.1240 C   0  0  0  0  0  0  0  0  0  0  0  0
   35.8400   29.9870   44.9410 C   0  0  0  0  0  0  0  0  0  0  0  0
   34.7720   29.1230   44.9330 C   0  0  0  0  0  0  0  0  0  0  0  0
   34.1790   28.7850   46.1280 C   0  0  0  0  0  0  0  0  0  0  0  0
   33.5460   28.6700   49.5450 N   0  0  0  0  0  0  0  0  0  0  0  0
   34.0570   28.9690   48.5310 C   0  0  0  0  0  0  0  0  0  0  0  0
   40.4611   33.7750   46.4400 H   0  0  0  0  0  0  0  0  0  0  0  0
   40.4262   32.2372   44.4507 H   0  0  0  0  0  0  0  0  0  0  0  0
   38.9954   30.1596   44.5704 H   0  0  0  0  0  0  0  0  0  0  0  0
   39.2810   31.1650   50.0111 H   0  0  0  0  0  0  0  0  0  0  0  0
   37.9408   32.3271   50.4507 H   0  0  0  0  0  0  0  0  0  0  0  0
   38.4790   30.0257   51.7768 H   0  0  0  0  0  0  0  0  0  0  0  0
   36.8890   30.8332   51.7275 H   0  0  0  0  0  0  0  0  0  0  0  0
   37.8146   28.7896   49.6239 H   0  0  0  0  0  0  0  0  0  0  0  0
   36.8700   28.3239   51.0426 H   0  0  0  0  0  0  0  0  0  0  0  0
   35.3251   28.8487   49.1803 H   0  0  0  0  0  0  0  0  0  0  0  0
   35.1694   30.1313   50.4206 H   0  0  0  0  0  0  0  0  0  0  0  0
   35.7439   31.6645   48.8595 H   0  0  0  0  0  0  0  0  0  0  0  0
   37.1747   31.2033   46.0767 H   0  0  0  0  0  0  0  0  0  0  0  0
   36.3215   30.2623   43.9910 H   0  0  0  0  0  0  0  0  0  0  0  0
   34.3966   28.7078   43.9861 H   0  0  0  0  0  0  0  0  0  0  0  0
   33.3214   28.0971   46.1643 H   0  0  0  0  0  0  0  0  0  0  0  0
  1  6  2  0
  2  3  2  0
  2  1  1  0
  3  4  1  0
  4  5  2  0
  5  7  1  0
  6  5  1  0
  7  8  1  0
  8  9  1  0
 10  9  1  0
 11 10  1  0
 12  7  1  0
 12 11  1  0
 13 14  2  0
 13 20  1  0
 14 12  1  0
 15 14  1  0
 16 15  2  0
 17 16  1  0
 17 18  2  0
 18 13  1  0
 20 19  3  0
  1 21  1  0
  2 22  1  0
  3 23  1  0
  8 24  1  0
  8 25  1  0
  9 26  1  0
  9 27  1  0
 10 28  1  0
 10 29  1  0
 11 30  1  0
 11 31  1  0
 12 32  1  1
 15 33  1  0
 16 34  1  0
 17 35  1  0
 18 36  1  0
M  ISO  8  21  14  22  14  23  14  24  13  25  13  26  13  27  13  28  13
M  ISO  8  29  13  30  13  31  13  32  13  33  14  34  14  35  14  36  14
M  END
>  <minimizedAffinity>  (1) 
-6.2739954

>  <minimizedRMSD>  (1) 
2.00772572

$$$$
