
     RDKit          3D

 33 35  0  0  1  0  0  0  0  0999 V2000
   39.7920   33.2460   44.7940 C   0  0  0  0  0  0  0  0  0  0  0  0
   40.7040   32.2540   44.4000 C   0  0  0  0  0  0  0  0  0  0  0  0
   40.7660   31.0670   45.1530 C   0  0  0  0  0  0  0  0  0  0  0  0
   39.9320   30.9570   46.2200 N   0  0  0  0  0  0  0  0  0  0  0  0
   39.0730   31.9200   46.5710 C   0  0  0  0  0  0  0  0  0  0  0  0
   38.9930   33.0750   45.8620 N   0  0  0  0  0  0  0  0  0  0  0  0
   38.2180   31.7310   47.7110 N   0  0  0  0  0  0  0  0  0  0  0  0
   38.0230   32.8370   48.6600 C   0  0  0  0  0  0  0  0  0  0  0  0
   37.7970   32.3670   50.0650 C   0  0  0  0  0  0  0  0  0  0  0  0
   38.3240   30.9640   50.1900 C   0  0  0  0  0  0  0  0  0  0  0  0
   37.4120   30.0980   49.3670 C   0  0  0  0  0  0  0  0  0  0  0  0
   37.5640   30.4740   47.9160 C   0  0  1  0  0  0  0  0  0  0  0  0
   36.2910   30.3300   47.1620 C   0  0  0  0  0  0  0  0  0  0  0  0
   35.1080   30.2760   47.8680 C   0  0  0  0  0  0  0  0  0  0  0  0
   33.8920   30.1420   47.2280 C   0  0  0  0  0  0  0  0  0  0  0  0
   33.8730   30.0650   45.8770 N   0  0  0  0  0  0  0  0  0  0  0  0
   35.0320   30.1170   45.1710 C   0  0  0  0  0  0  0  0  0  0  0  0
   36.2100   30.2470   45.8200 N   0  0  0  0  0  0  0  0  0  0  0  0
   39.7298   34.1811   44.2180 H   0  0  0  0  0  0  0  0  0  0  0  0
   41.3537   32.4010   43.5247 H   0  0  0  0  0  0  0  0  0  0  0  0
   41.4633   30.2586   44.8879 H   0  0  0  0  0  0  0  0  0  0  0  0
   38.9184   33.4758   48.6433 H   0  0  0  0  0  0  0  0  0  0  0  0
   37.1227   33.3859   48.3467 H   0  0  0  0  0  0  0  0  0  0  0  0
   38.3282   33.0267   50.7668 H   0  0  0  0  0  0  0  0  0  0  0  0
   36.7229   32.3883   50.3011 H   0  0  0  0  0  0  0  0  0  0  0  0
   39.3530   30.9076   49.8053 H   0  0  0  0  0  0  0  0  0  0  0  0
   38.3473   30.6369   51.2400 H   0  0  0  0  0  0  0  0  0  0  0  0
   37.6821   29.0407   49.5052 H   0  0  0  0  0  0  0  0  0  0  0  0
   36.3692   30.2462   49.6842 H   0  0  0  0  0  0  0  0  0  0  0  0
   38.2571   29.7378   47.4829 H   0  0  0  0  0  0  0  0  0  0  0  0
   35.1335   30.3411   48.9658 H   0  0  0  0  0  0  0  0  0  0  0  0
   32.9566   30.0987   47.8051 H   0  0  0  0  0  0  0  0  0  0  0  0
   35.0118   30.0534   44.0730 H   0  0  0  0  0  0  0  0  0  0  0  0
  1  6  2  0
  2  1  1  0
  2  3  2  0
  3  4  1  0
  4  5  2  0
  5  7  1  0
  6  5  1  0
  7 12  1  0
  7  8  1  0
  8  9  1  0
  9 10  1  0
 11 10  1  0
 12 11  1  0
 13 14  2  0
 13 12  1  0
 15 14  1  0
 16 15  2  0
 17 18  2  0
 17 16  1  0
 18 13  1  0
  1 19  1  0
  2 20  1  0
  3 21  1  0
  8 22  1  0
  8 23  1  0
  9 24  1  0
  9 25  1  0
 10 26  1  0
 10 27  1  0
 11 28  1  0
 11 29  1  0
 12 30  1  6
 14 31  1  0
 15 32  1  0
 17 33  1  0
M  ISO  8  19  14  20  14  21  14  22  13  23  13  24  13  25  13  26  13
M  ISO  7  27  13  28  13  29  13  30  13  31  14  32  14  33  14
M  END
>  <minimizedAffinity>  (1) 
-5.59440756

>  <minimizedRMSD>  (1) 
3.2980876

$$$$
