
     RDKit          3D

 35 37  0  0  1  0  0  0  0  0999 V2000
   38.8150   32.3720   47.3880 C   0  0  0  0  0  0  0  0  0  0  0  0
   39.3850   31.6020   46.3390 C   0  0  0  0  0  0  0  0  0  0  0  0
   38.7030   30.4680   45.9160 C   0  0  0  0  0  0  0  0  0  0  0  0
   37.5370   30.1880   46.5470 N   0  0  0  0  0  0  0  0  0  0  0  0
   37.0080   30.9130   47.5290 C   0  0  0  0  0  0  0  0  0  0  0  0
   37.6560   32.0050   47.9440 N   0  0  0  0  0  0  0  0  0  0  0  0
   35.7680   30.5260   48.1250 N   0  0  0  0  0  0  0  0  0  0  0  0
   35.6210   30.5810   49.5870 C   0  0  0  0  0  0  0  0  0  0  0  0
   34.6980   29.5410   50.1330 C   0  0  0  0  0  0  0  0  0  0  0  0
   34.6040   28.4200   49.1180 C   0  0  0  0  0  0  0  0  0  0  0  0
   33.8420   29.0060   47.9400 C   0  0  0  0  0  0  0  0  0  0  0  0
   34.6620   30.0980   47.3350 C   0  0  2  0  0  0  0  0  0  0  0  0
   34.4120   27.5490   46.0020 F   0  0  0  0  0  0  0  0  0  0  0  0
   34.7690   28.6630   45.2940 C   0  0  0  0  0  0  0  0  0  0  0  0
   34.8800   29.9250   45.8970 C   0  0  0  0  0  0  0  0  0  0  0  0
   35.2280   30.9520   45.0120 C   0  0  0  0  0  0  0  0  0  0  0  0
   35.4440   30.7430   43.6720 C   0  0  0  0  0  0  0  0  0  0  0  0
   35.3200   29.4850   43.1480 C   0  0  0  0  0  0  0  0  0  0  0  0
   34.9820   28.4360   43.9510 C   0  0  0  0  0  0  0  0  0  0  0  0
   39.3305   33.2758   47.7450 H   0  0  0  0  0  0  0  0  0  0  0  0
   40.3384   31.8951   45.8753 H   0  0  0  0  0  0  0  0  0  0  0  0
   39.0904   29.8290   45.1088 H   0  0  0  0  0  0  0  0  0  0  0  0
   36.6125   30.4400   50.0421 H   0  0  0  0  0  0  0  0  0  0  0  0
   35.1850   31.5608   49.8315 H   0  0  0  0  0  0  0  0  0  0  0  0
   35.0935   29.1524   51.0830 H   0  0  0  0  0  0  0  0  0  0  0  0
   33.7034   29.9723   50.3196 H   0  0  0  0  0  0  0  0  0  0  0  0
   35.6084   28.0985   48.8053 H   0  0  0  0  0  0  0  0  0  0  0  0
   34.1000   27.5342   49.5318 H   0  0  0  0  0  0  0  0  0  0  0  0
   33.6590   28.2219   47.1905 H   0  0  0  0  0  0  0  0  0  0  0  0
   32.8761   29.4073   48.2806 H   0  0  0  0  0  0  0  0  0  0  0  0
   34.0407   31.0050   47.3719 H   0  0  0  0  0  0  0  0  0  0  0  0
   35.3333   31.9729   45.4078 H   0  0  0  0  0  0  0  0  0  0  0  0
   35.7165   31.5863   43.0203 H   0  0  0  0  0  0  0  0  0  0  0  0
   35.4937   29.3193   42.0745 H   0  0  0  0  0  0  0  0  0  0  0  0
   34.8808   27.4235   43.5333 H   0  0  0  0  0  0  0  0  0  0  0  0
  1  6  2  0
  2  1  1  0
  3  2  2  0
  3  4  1  0
  4  5  2  0
  5  6  1  0
  5  7  1  0
  7  8  1  0
  8  9  1  0
 10  9  1  0
 11 10  1  0
 12 11  1  0
 12  7  1  0
 14 15  2  0
 14 13  1  0
 15 12  1  0
 16 15  1  0
 17 16  2  0
 18 17  1  0
 18 19  2  0
 19 14  1  0
  1 20  1  0
  2 21  1  0
  3 22  1  0
  8 23  1  0
  8 24  1  0
  9 25  1  0
  9 26  1  0
 10 27  1  0
 10 28  1  0
 11 29  1  0
 11 30  1  0
 12 31  1  6
 16 32  1  0
 17 33  1  0
 18 34  1  0
 19 35  1  0
M  ISO  8  20  14  21  14  22  14  23  13  24  13  25  13  26  13  27  13
M  ISO  8  28  13  29  13  30  13  31  13  32  14  33  14  34  14  35  14
M  END
>  <minimizedAffinity>  (1) 
-4.2862277

>  <minimizedRMSD>  (1) 
0.954643488

$$$$
