
     RDKit          3D

 31 32  0  0  1  0  0  0  0  0999 V2000
   38.5730   32.7260   47.8810 C   0  0  0  0  0  0  0  0  0  0  0  0
   39.3380   32.0460   46.9000 C   0  0  0  0  0  0  0  0  0  0  0  0
   38.9160   30.7860   46.5000 C   0  0  0  0  0  0  0  0  0  0  0  0
   37.7910   30.2890   47.0800 N   0  0  0  0  0  0  0  0  0  0  0  0
   37.0790   30.9410   48.0050 C   0  0  0  0  0  0  0  0  0  0  0  0
   37.4780   32.1570   48.3990 N   0  0  0  0  0  0  0  0  0  0  0  0
   35.9040   30.3340   48.5620 N   0  0  0  0  0  0  0  0  0  0  0  0
   35.7060   30.4050   50.0160 C   0  0  0  0  0  0  0  0  0  0  0  0
   34.9650   29.2120   50.5650 C   0  0  0  0  0  0  0  0  0  0  0  0
   35.1040   28.0830   49.5780 C   0  0  0  0  0  0  0  0  0  0  0  0
   34.2990   28.4890   48.3650 C   0  0  0  0  0  0  0  0  0  0  0  0
   34.9570   29.6770   47.7140 C   0  0  1  0  0  0  0  0  0  0  0  0
   33.9850   30.6120   47.0480 C   0  0  0  0  0  0  0  0  0  0  0  0
   32.8900   29.9470   46.2870 C   0  0  0  0  0  0  0  0  0  0  0  0
   38.8811   33.7267   48.2182 H   0  0  0  0  0  0  0  0  0  0  0  0
   40.2402   32.5040   46.4683 H   0  0  0  0  0  0  0  0  0  0  0  0
   39.4701   30.2115   45.7431 H   0  0  0  0  0  0  0  0  0  0  0  0
   36.6911   30.4608   50.5023 H   0  0  0  0  0  0  0  0  0  0  0  0
   35.0966   31.2969   50.2235 H   0  0  0  0  0  0  0  0  0  0  0  0
   35.3971   28.9172   51.5327 H   0  0  0  0  0  0  0  0  0  0  0  0
   33.9037   29.4582   50.7169 H   0  0  0  0  0  0  0  0  0  0  0  0
   36.1603   27.9411   49.3058 H   0  0  0  0  0  0  0  0  0  0  0  0
   34.7456   27.1325   49.9999 H   0  0  0  0  0  0  0  0  0  0  0  0
   34.2598   27.6525   47.6517 H   0  0  0  0  0  0  0  0  0  0  0  0
   33.2754   28.7523   48.6698 H   0  0  0  0  0  0  0  0  0  0  0  0
   35.5545   29.2630   46.8884 H   0  0  0  0  0  0  0  0  0  0  0  0
   33.5268   31.2390   47.8270 H   0  0  0  0  0  0  0  0  0  0  0  0
   34.5666   31.1851   46.3109 H   0  0  0  0  0  0  0  0  0  0  0  0
   32.1679   29.5084   46.9914 H   0  0  0  0  0  0  0  0  0  0  0  0
   32.3807   30.6885   45.6539 H   0  0  0  0  0  0  0  0  0  0  0  0
   33.3131   29.1532   45.6539 H   0  0  0  0  0  0  0  0  0  0  0  0
  1  6  2  0
  2  1  1  0
  3  2  2  0
  3  4  1  0
  4  5  2  0
  5  6  1  0
  5  7  1  0
  7  8  1  0
  8  9  1  0
 10  9  1  0
 11 10  1  0
 12 11  1  0
 12  7  1  0
 13 12  1  0
 14 13  1  0
  1 15  1  0
  2 16  1  0
  3 17  1  0
  8 18  1  0
  8 19  1  0
  9 20  1  0
  9 21  1  0
 10 22  1  0
 10 23  1  0
 11 24  1  0
 11 25  1  0
 12 26  1  6
 13 27  1  0
 13 28  1  0
 14 29  1  0
 14 30  1  0
 14 31  1  0
M  ISO  8  15  14  16  14  17  14  18  13  19  13  20  13  21  13  22  13
M  ISO  8  23  13  24  13  25  13  26  13  27   8  28   8  29   8  30   8
M  ISO  1  31   8
M  END
>  <minimizedAffinity>  (1) 
-4.15349531

>  <minimizedRMSD>  (1) 
0.592870116

$$$$
