
     RDKit          3D

 41 44  0  0  1  0  0  0  0  0999 V2000
   39.6230   33.0440   44.6240 C   0  0  0  0  0  0  0  0  0  0  0  0
   40.4860   32.0320   44.2170 C   0  0  0  0  0  0  0  0  0  0  0  0
   40.5470   30.8890   44.9840 C   0  0  0  0  0  0  0  0  0  0  0  0
   39.7600   30.8180   46.0910 N   0  0  0  0  0  0  0  0  0  0  0  0
   38.9250   31.8240   46.4670 C   0  0  0  0  0  0  0  0  0  0  0  0
   38.8610   32.9250   45.7350 N   0  0  0  0  0  0  0  0  0  0  0  0
   38.1310   31.6590   47.6610 N   0  0  0  0  0  0  0  0  0  0  0  0
   38.0290   32.7470   48.5980 C   0  0  0  0  0  0  0  0  0  0  0  0
   37.8180   32.2840   50.0180 C   0  0  0  0  0  0  0  0  0  0  0  0
   38.3110   30.8640   50.1260 C   0  0  0  0  0  0  0  0  0  0  0  0
   37.3470   30.0200   49.3270 C   0  0  0  0  0  0  0  0  0  0  0  0
   37.4500   30.3820   47.8920 C   0  0  1  0  0  0  0  0  0  0  0  0
   36.1700   30.3160   47.1750 C   0  0  0  0  0  0  0  0  0  0  0  0
   34.8900   30.2380   47.7160 C   0  0  0  0  0  0  0  0  0  0  0  0
   33.8060   30.1890   46.8880 C   0  0  0  0  0  0  0  0  0  0  0  0
   34.0730   30.2260   45.4720 C   0  0  0  0  0  0  0  0  0  0  0  0
   35.9570   30.3300   45.4620 S   0  0  0  0  0  0  0  0  0  0  0  0
   33.3290   30.2030   44.2730 C   0  0  0  0  0  0  0  0  0  0  0  0
   32.6380   29.1010   43.8970 C   0  0  0  0  0  0  0  0  0  0  0  0
   31.9410   29.2050   42.6870 C   0  0  0  0  0  0  0  0  0  0  0  0
   31.9940   30.3900   41.9640 C   0  0  0  0  0  0  0  0  0  0  0  0
   32.7230   31.4910   42.4020 C   0  0  0  0  0  0  0  0  0  0  0  0
   33.3880   31.3500   43.5850 N   0  0  0  0  0  0  0  0  0  0  0  0
   39.5586   33.9654   44.0266 H   0  0  0  0  0  0  0  0  0  0  0  0
   41.1005   32.1407   43.3112 H   0  0  0  0  0  0  0  0  0  0  0  0
   41.2130   30.0579   44.7090 H   0  0  0  0  0  0  0  0  0  0  0  0
   38.9579   33.3347   48.5553 H   0  0  0  0  0  0  0  0  0  0  0  0
   37.1511   33.3454   48.3131 H   0  0  0  0  0  0  0  0  0  0  0  0
   38.3828   32.9282   50.7080 H   0  0  0  0  0  0  0  0  0  0  0  0
   36.7515   32.3380   50.2818 H   0  0  0  0  0  0  0  0  0  0  0  0
   39.3259   30.7803   49.7101 H   0  0  0  0  0  0  0  0  0  0  0  0
   38.3570   30.5349   51.1746 H   0  0  0  0  0  0  0  0  0  0  0  0
   37.5958   28.9563   49.4562 H   0  0  0  0  0  0  0  0  0  0  0  0
   36.3207   30.2002   49.6793 H   0  0  0  0  0  0  0  0  0  0  0  0
   38.0904   29.5990   47.4598 H   0  0  0  0  0  0  0  0  0  0  0  0
   34.7524   30.2159   48.8071 H   0  0  0  0  0  0  0  0  0  0  0  0
   32.7807   30.1246   47.2813 H   0  0  0  0  0  0  0  0  0  0  0  0
   32.6250   28.1831   44.5031 H   0  0  0  0  0  0  0  0  0  0  0  0
   31.3549   28.3534   42.3112 H   0  0  0  0  0  0  0  0  0  0  0  0
   31.4421   30.4600   41.0151 H   0  0  0  0  0  0  0  0  0  0  0  0
   32.7613   32.4265   41.8246 H   0  0  0  0  0  0  0  0  0  0  0  0
  1  6  2  0
  2  1  1  0
  2  3  2  0
  3  4  1  0
  4  5  2  0
  5  7  1  0
  6  5  1  0
  7 12  1  0
  7  8  1  0
  8  9  1  0
  9 10  1  0
 11 10  1  0
 12 11  1  0
 13 14  2  0
 13 12  1  0
 15 14  1  0
 16 15  2  0
 17 16  1  0
 17 13  1  0
 18 16  1  0
 19 18  2  0
 20 19  1  0
 21 22  1  0
 21 20  2  0
 22 23  2  0
 23 18  1  0
  1 24  1  0
  2 25  1  0
  3 26  1  0
  8 27  1  0
  8 28  1  0
  9 29  1  0
  9 30  1  0
 10 31  1  0
 10 32  1  0
 11 33  1  0
 11 34  1  0
 12 35  1  6
 14 36  1  0
 15 37  1  0
 19 38  1  0
 20 39  1  0
 21 40  1  0
 22 41  1  0
M  ISO  8  24  14  25  14  26  14  27  13  28  13  29  13  30  13  31  13
M  ISO  8  32  13  33  13  34  13  35  13  36  14  37  14  38  14  39  14
M  ISO  2  40  14  41  14
M  END
>  <minimizedAffinity>  (1) 
-5.58117294

>  <minimizedRMSD>  (1) 
0.205890432

$$$$
