
     RDKit          3D

 26 28  0  0  0  0  0  0  0  0999 V2000
   35.8250   29.0470   49.4500 C   0  0  0  0  0  0  0  0  0  0  0  0
   35.8660   30.0330   48.4870 C   0  0  0  0  0  0  0  0  0  0  0  0
   34.7780   30.1170   47.6210 C   0  0  0  0  0  0  0  0  0  0  0  0
   33.7180   29.2410   47.7370 C   0  0  0  0  0  0  0  0  0  0  0  0
   32.6000   29.1830   46.9910 N   0  0  0  0  0  0  0  0  0  0  0  0
   31.8320   28.1670   47.4600 C   0  0  0  0  0  0  0  0  0  0  0  0
   32.4920   27.5790   48.5260 C   0  0  0  0  0  0  0  0  0  0  0  0
   33.6770   28.2560   48.6990 C   0  0  0  0  0  0  0  0  0  0  0  0
   34.7500   28.1680   49.5600 C   0  0  0  0  0  0  0  0  0  0  0  0
   38.0670   32.8790   49.1200 C   0  0  0  0  0  0  0  0  0  0  0  0
   39.0860   32.7230   48.1670 C   0  0  0  0  0  0  0  0  0  0  0  0
   38.9950   31.6230   47.3100 C   0  0  0  0  0  0  0  0  0  0  0  0
   37.9530   30.7710   47.4300 N   0  0  0  0  0  0  0  0  0  0  0  0
   36.9870   30.9580   48.3650 C   0  0  0  0  0  0  0  0  0  0  0  0
   37.0620   32.0030   49.1880 N   0  0  0  0  0  0  0  0  0  0  0  0
   40.0330   31.4850   46.3570 N   0  0  0  0  0  0  0  0  0  0  0  0
   36.6662   28.9517   50.1523 H   0  0  0  0  0  0  0  0  0  0  0  0
   34.7637   30.8888   46.8374 H   0  0  0  0  0  0  0  0  0  0  0  0
   32.3673   29.8020   46.2013 H   0  0  0  0  0  0  0  0  0  0  0  0
   30.8529   27.8627   47.0616 H   0  0  0  0  0  0  0  0  0  0  0  0
   32.1347   26.7277   49.1240 H   0  0  0  0  0  0  0  0  0  0  0  0
   34.7574   27.3950   50.3426 H   0  0  0  0  0  0  0  0  0  0  0  0
   38.0970   33.7300   49.8163 H   0  0  0  0  0  0  0  0  0  0  0  0
   39.9205   33.4363   48.0978 H   0  0  0  0  0  0  0  0  0  0  0  0
   40.7970   32.1750   46.3241 H   0  0  0  0  0  0  0  0  0  0  0  0
   40.0241   30.6946   45.6966 H   0  0  0  0  0  0  0  0  0  0  0  0
  1  9  2  0
  2  1  1  0
  3  4  1  0
  3  2  2  0
  4  8  2  0
  5  6  1  0
  5  4  1  0
  6  7  2  0
  7  8  1  0
  8  9  1  0
 10 15  2  0
 11 10  1  0
 12 13  1  0
 12 11  2  0
 13 14  2  0
 14  2  1  0
 14 15  1  0
 16 12  1  0
  1 17  1  0
  3 18  1  0
  5 19  1  0
  6 20  1  0
  7 21  1  0
  9 22  1  0
 10 23  1  0
 11 24  1  0
 16 25  1  0
 16 26  1  0
M  ISO  8  17  14  18  14  19   9  20  14  21  14  22  14  23  14  24  14
M  END
>  <minimizedAffinity>  (1) 
-5.94390488

>  <minimizedRMSD>  (1) 
2.6404562

$$$$
