
     RDKit          3D

 29 31  0  0  0  0  0  0  0  0999 V2000
   37.4080   30.1950   51.4110 C   0  0  0  0  0  0  0  0  0  0  0  0
   37.9370   30.8010   50.2750 C   0  0  0  0  0  0  0  0  0  0  0  0
   37.3180   30.6050   49.0550 C   0  0  0  0  0  0  0  0  0  0  0  0
   36.2050   29.8200   49.0180 N   0  0  0  0  0  0  0  0  0  0  0  0
   35.7080   29.2400   50.1360 C   0  0  0  0  0  0  0  0  0  0  0  0
   36.2950   29.4210   51.3140 N   0  0  0  0  0  0  0  0  0  0  0  0
   37.1680   30.7690   46.6470 C   0  0  0  0  0  0  0  0  0  0  0  0
   37.7800   31.1860   47.8060 C   0  0  0  0  0  0  0  0  0  0  0  0
   38.7910   32.1230   47.7450 C   0  0  0  0  0  0  0  0  0  0  0  0
   39.1480   32.6090   46.4980 C   0  0  0  0  0  0  0  0  0  0  0  0
   40.1090   33.5290   46.1970 N   0  0  0  0  0  0  0  0  0  0  0  0
   40.1040   33.6920   44.8630 C   0  0  0  0  0  0  0  0  0  0  0  0
   39.1640   32.8980   44.3120 N   0  0  0  0  0  0  0  0  0  0  0  0
   38.5590   32.2150   45.3120 C   0  0  0  0  0  0  0  0  0  0  0  0
   37.5460   31.2730   45.4000 C   0  0  0  0  0  0  0  0  0  0  0  0
   34.5770   28.4350   50.1290 O   0  0  0  0  0  0  0  0  0  0  0  0
   33.9360   27.2110   47.9270 O   0  0  0  0  0  0  0  0  0  0  0  0
   33.5330   28.3870   48.7970 P   0  0  0  0  0  0  0  0  0  0  0  0
   33.6330   29.8010   47.8670 O   0  0  0  0  0  0  0  0  0  0  0  0
   31.9240   28.1140   49.2530 O   0  0  0  0  0  0  0  0  0  0  0  0
   37.8912   30.3427   52.3881 H   0  0  0  0  0  0  0  0  0  0  0  0
   38.8374   31.4287   50.3475 H   0  0  0  0  0  0  0  0  0  0  0  0
   36.3627   30.0218   46.7032 H   0  0  0  0  0  0  0  0  0  0  0  0
   39.2970   32.4727   48.6570 H   0  0  0  0  0  0  0  0  0  0  0  0
   40.7248   34.0100   46.8681 H   0  0  0  0  0  0  0  0  0  0  0  0
   40.7664   34.3704   44.3053 H   0  0  0  0  0  0  0  0  0  0  0  0
   37.0399   30.9224   44.4884 H   0  0  0  0  0  0  0  0  0  0  0  0
   33.6886   30.5870   48.4664 H   0  0  0  0  0  0  0  0  0  0  0  0
   31.8583   28.1029   50.2408 H   0  0  0  0  0  0  0  0  0  0  0  0
  2  1  2  0
  3  2  1  0
  4  3  2  0
  4  5  1  0
  5  6  2  0
  6  1  1  0
  7  8  2  0
  8  3  1  0
  9  8  1  0
 10  9  2  0
 11 10  1  0
 12 11  1  0
 13 12  2  0
 13 14  1  0
 14 15  2  0
 14 10  1  0
 15  7  1  0
 16  5  1  0
 17 18  2  0
 18 20  1  0
 18 16  1  0
 19 18  1  0
  1 21  1  0
  2 22  1  0
  7 23  1  0
  9 24  1  0
 11 25  1  0
 12 26  1  0
 15 27  1  0
 19 28  1  0
 20 29  1  0
M  ISO  8  21  14  22  14  23  14  24  14  25   9  26  14  27  14  28   3
M  ISO  1  29   3
M  END
>  <minimizedAffinity>  (1) 
-6.88446045

>  <minimizedRMSD>  (1) 
0.637307048

$$$$
