
     RDKit          3D

 27 29  0  0  0  0  0  0  0  0999 V2000
   37.0480   30.7410   46.6170 C   0  0  0  0  0  0  0  0  0  0  0  0
   37.6230   31.1750   47.8040 C   0  0  0  0  0  0  0  0  0  0  0  0
   38.6310   32.0990   47.7710 C   0  0  0  0  0  0  0  0  0  0  0  0
   39.0460   32.5710   46.5380 C   0  0  0  0  0  0  0  0  0  0  0  0
   40.0340   33.4940   46.2890 N   0  0  0  0  0  0  0  0  0  0  0  0
   40.0840   33.6400   44.9470 C   0  0  0  0  0  0  0  0  0  0  0  0
   39.1710   32.8510   44.3570 N   0  0  0  0  0  0  0  0  0  0  0  0
   38.5080   32.1710   45.3250 C   0  0  0  0  0  0  0  0  0  0  0  0
   37.4910   31.2380   45.3820 C   0  0  0  0  0  0  0  0  0  0  0  0
   37.2510   29.8630   51.3070 C   0  0  0  0  0  0  0  0  0  0  0  0
   37.8420   30.4210   50.1770 C   0  0  0  0  0  0  0  0  0  0  0  0
   37.0990   30.6040   49.0280 C   0  0  0  0  0  0  0  0  0  0  0  0
   35.7950   30.2210   49.0570 N   0  0  0  0  0  0  0  0  0  0  0  0
   35.2320   29.6770   50.1670 C   0  0  0  0  0  0  0  0  0  0  0  0
   35.9560   29.5020   51.2790 N   0  0  0  0  0  0  0  0  0  0  0  0
   33.4720   28.3160   49.1780 C   0  0  0  0  0  0  0  0  0  0  0  0
   34.2730   27.7810   48.3720 O   0  0  0  0  0  0  0  0  0  0  0  0
   33.8540   29.2930   50.1360 N   0  0  0  0  0  0  0  0  0  0  0  0
   36.2362   29.9993   46.6452 H   0  0  0  0  0  0  0  0  0  0  0  0
   39.0992   32.4573   48.6996 H   0  0  0  0  0  0  0  0  0  0  0  0
   40.6187   33.9772   46.9858 H   0  0  0  0  0  0  0  0  0  0  0  0
   40.7743   34.3098   44.4133 H   0  0  0  0  0  0  0  0  0  0  0  0
   37.0247   30.8818   44.4516 H   0  0  0  0  0  0  0  0  0  0  0  0
   37.8431   29.7174   52.2225 H   0  0  0  0  0  0  0  0  0  0  0  0
   38.9014   30.7162   50.1996 H   0  0  0  0  0  0  0  0  0  0  0  0
   32.4158   28.0111   49.1400 H   0  0  0  0  0  0  0  0  0  0  0  0
   33.1672   29.7079   50.7818 H   0  0  0  0  0  0  0  0  0  0  0  0
  1  2  2  0
  2 12  1  0
  3  2  1  0
  4  3  2  0
  5  4  1  0
  6  5  1  0
  7  6  2  0
  7  8  1  0
  8  9  2  0
  8  4  1  0
  9  1  1  0
 11 10  2  0
 12 13  2  0
 12 11  1  0
 13 14  1  0
 14 15  2  0
 15 10  1  0
 16 18  1  0
 17 16  2  0
 18 14  1  0
  1 19  1  0
  3 20  1  0
  5 21  1  0
  6 22  1  0
  9 23  1  0
 10 24  1  0
 11 25  1  0
 16 26  1  0
 18 27  1  0
M  ISO  8  19  14  20  14  21   9  22  14  23  14  24  14  25  14  26   6
M  END
>  <minimizedAffinity>  (1) 
-6.80494308

>  <minimizedRMSD>  (1) 
0.635831714

$$$$
