
     RDKit          3D

 26 28  0  0  0  0  0  0  0  0999 V2000
   37.2500   30.8890   46.4210 C   0  0  0  0  0  0  0  0  0  0  0  0
   37.8400   31.3790   47.5790 C   0  0  0  0  0  0  0  0  0  0  0  0
   38.8200   32.3380   47.5010 C   0  0  0  0  0  0  0  0  0  0  0  0
   39.1840   32.7830   46.2290 C   0  0  0  0  0  0  0  0  0  0  0  0
   40.1210   33.7190   45.9240 N   0  0  0  0  0  0  0  0  0  0  0  0
   40.1210   33.8160   44.5730 C   0  0  0  0  0  0  0  0  0  0  0  0
   39.2260   32.9830   44.0410 N   0  0  0  0  0  0  0  0  0  0  0  0
   38.6180   32.3190   45.0480 C   0  0  0  0  0  0  0  0  0  0  0  0
   37.6290   31.3480   45.1590 C   0  0  0  0  0  0  0  0  0  0  0  0
   37.5470   30.2860   51.1680 C   0  0  0  0  0  0  0  0  0  0  0  0
   38.1050   30.8440   50.0150 C   0  0  0  0  0  0  0  0  0  0  0  0
   37.3710   30.8320   48.8380 C   0  0  0  0  0  0  0  0  0  0  0  0
   36.1250   30.2710   48.8630 N   0  0  0  0  0  0  0  0  0  0  0  0
   35.6020   29.7340   50.0000 C   0  0  0  0  0  0  0  0  0  0  0  0
   36.3160   29.7450   51.1440 N   0  0  0  0  0  0  0  0  0  0  0  0
   34.2410   29.1630   49.8680 C   0  0  0  0  0  0  0  0  0  0  0  0
   33.4390   29.5940   50.9250 F   0  0  0  0  0  0  0  0  0  0  0  0
   34.3660   27.7780   49.8670 F   0  0  0  0  0  0  0  0  0  0  0  0
   33.7280   29.5570   48.6460 F   0  0  0  0  0  0  0  0  0  0  0  0
   36.4660   30.1215   46.5006 H   0  0  0  0  0  0  0  0  0  0  0  0
   39.2995   32.7398   48.4058 H   0  0  0  0  0  0  0  0  0  0  0  0
   40.7100   34.2462   46.5844 H   0  0  0  0  0  0  0  0  0  0  0  0
   40.7702   34.4895   43.9942 H   0  0  0  0  0  0  0  0  0  0  0  0
   37.1477   30.9436   44.2563 H   0  0  0  0  0  0  0  0  0  0  0  0
   38.1212   30.2892   52.1062 H   0  0  0  0  0  0  0  0  0  0  0  0
   39.1118   31.2864   50.0402 H   0  0  0  0  0  0  0  0  0  0  0  0
  1  2  2  0
  2 12  1  0
  3  2  1  0
  4  3  2  0
  5  4  1  0
  6  5  1  0
  7  6  2  0
  7  8  1  0
  8  9  2  0
  8  4  1  0
  9  1  1  0
 11 10  2  0
 12 13  2  0
 12 11  1  0
 13 14  1  0
 14 15  2  0
 15 10  1  0
 16 14  1  0
 16 17  1  0
 18 16  1  0
 19 16  1  0
  1 20  1  0
  3 21  1  0
  5 22  1  0
  6 23  1  0
  9 24  1  0
 10 25  1  0
 11 26  1  0
M  ISO  7  20  14  21  14  22   9  23  14  24  14  25  14  26  14
M  END
>  <minimizedAffinity>  (1) 
-6.62403727

>  <minimizedRMSD>  (1) 
0.582056284

$$$$
