
     RDKit          3D

 38 41  0  0  0  0  0  0  0  0999 V2000
   36.2520   29.7140   50.6330 C   0  0  0  0  0  0  0  0  0  0  0  0
   36.9800   30.4180   49.6760 C   0  0  0  0  0  0  0  0  0  0  0  0
   36.6320   30.3140   48.3410 C   0  0  0  0  0  0  0  0  0  0  0  0
   35.5840   29.5200   48.0180 N   0  0  0  0  0  0  0  0  0  0  0  0
   34.8880   28.8430   48.9650 C   0  0  0  0  0  0  0  0  0  0  0  0
   35.2120   28.9340   50.2550 N   0  0  0  0  0  0  0  0  0  0  0  0
   33.8050   28.0380   48.5140 N   0  0  0  0  0  0  0  0  0  0  0  0
   33.9390   27.1800   47.3760 C   0  0  0  0  0  0  0  0  0  0  0  0
   33.0560   25.9750   47.5730 C   0  0  0  0  0  0  0  0  0  0  0  0
   31.5930   26.3600   47.6480 C   0  0  0  0  0  0  0  0  0  0  0  0
   31.3730   27.6300   48.4120 C   0  0  0  0  0  0  0  0  0  0  0  0
   32.5590   28.0880   49.2130 C   0  0  0  0  0  0  0  0  0  0  0  0
   36.9170   30.7180   45.9670 C   0  0  0  0  0  0  0  0  0  0  0  0
   37.3260   31.0080   47.2600 C   0  0  0  0  0  0  0  0  0  0  0  0
   38.3380   31.9070   47.4820 C   0  0  0  0  0  0  0  0  0  0  0  0
   38.9260   32.5050   46.3810 C   0  0  0  0  0  0  0  0  0  0  0  0
   39.9300   33.4150   46.3470 N   0  0  0  0  0  0  0  0  0  0  0  0
   40.1670   33.7080   45.0610 C   0  0  0  0  0  0  0  0  0  0  0  0
   39.3380   33.0080   44.2730 N   0  0  0  0  0  0  0  0  0  0  0  0
   38.5510   32.2490   45.0680 C   0  0  0  0  0  0  0  0  0  0  0  0
   37.5260   31.3350   44.8690 C   0  0  0  0  0  0  0  0  0  0  0  0
   36.5225   29.7920   51.6964 H   0  0  0  0  0  0  0  0  0  0  0  0
   37.8258   31.0523   49.9799 H   0  0  0  0  0  0  0  0  0  0  0  0
   34.9863   26.8590   47.2757 H   0  0  0  0  0  0  0  0  0  0  0  0
   33.6411   27.7179   46.4639 H   0  0  0  0  0  0  0  0  0  0  0  0
   33.2004   25.2851   46.7285 H   0  0  0  0  0  0  0  0  0  0  0  0
   33.3344   25.4971   48.5238 H   0  0  0  0  0  0  0  0  0  0  0  0
   31.2101   26.4925   46.6253 H   0  0  0  0  0  0  0  0  0  0  0  0
   31.0620   25.5550   48.1772 H   0  0  0  0  0  0  0  0  0  0  0  0
   31.1162   28.4229   47.6941 H   0  0  0  0  0  0  0  0  0  0  0  0
   30.5679   27.4261   49.1333 H   0  0  0  0  0  0  0  0  0  0  0  0
   32.6394   27.4475   50.1036 H   0  0  0  0  0  0  0  0  0  0  0  0
   32.3807   29.1458   49.4566 H   0  0  0  0  0  0  0  0  0  0  0  0
   36.1046   29.9947   45.8029 H   0  0  0  0  0  0  0  0  0  0  0  0
   38.6716   32.1451   48.5028 H   0  0  0  0  0  0  0  0  0  0  0  0
   40.4215   33.8096   47.1616 H   0  0  0  0  0  0  0  0  0  0  0  0
   40.9285   34.4174   44.7047 H   0  0  0  0  0  0  0  0  0  0  0  0
   37.1925   31.0957   43.8484 H   0  0  0  0  0  0  0  0  0  0  0  0
  2  1  2  0
  3  2  1  0
  4  3  2  0
  4  5  1  0
  5  6  2  0
  6  1  1  0
  7  5  1  0
  7 12  1  0
  8  9  1  0
  8  7  1  0
  9 10  1  0
 10 11  1  0
 11 12  1  0
 13 14  2  0
 14 15  1  0
 14  3  1  0
 16 15  2  0
 17 16  1  0
 18 17  1  0
 19 18  2  0
 19 20  1  0
 20 16  1  0
 21 20  2  0
 21 13  1  0
  1 22  1  0
  2 23  1  0
  8 24  1  0
  8 25  1  0
  9 26  1  0
  9 27  1  0
 10 28  1  0
 10 29  1  0
 11 30  1  0
 11 31  1  0
 12 32  1  0
 12 33  1  0
 13 34  1  0
 15 35  1  0
 17 36  1  0
 18 37  1  0
 21 38  1  0
M  ISO  8  22  14  23  14  24  13  25  13  26  13  27  13  28  13  29  13
M  ISO  8  30  13  31  13  32  13  33  13  34  14  35  14  36   9  37  14
M  ISO  1  38  14
M  END
>  <minimizedAffinity>  (1) 
-6.47520828

>  <minimizedRMSD>  (1) 
1.43145597

$$$$
