
     RDKit          3D

 31 34  0  0  0  0  0  0  0  0999 V2000
   36.2710   29.6710   50.7640 C   0  0  0  0  0  0  0  0  0  0  0  0
   36.9810   30.3670   49.7860 C   0  0  0  0  0  0  0  0  0  0  0  0
   36.6080   30.2760   48.4530 C   0  0  0  0  0  0  0  0  0  0  0  0
   35.5400   29.4920   48.1620 N   0  0  0  0  0  0  0  0  0  0  0  0
   34.8540   28.8190   49.1160 C   0  0  0  0  0  0  0  0  0  0  0  0
   35.2140   28.9070   50.3920 N   0  0  0  0  0  0  0  0  0  0  0  0
   36.8630   30.6660   46.0880 C   0  0  0  0  0  0  0  0  0  0  0  0
   37.2850   30.9620   47.3720 C   0  0  0  0  0  0  0  0  0  0  0  0
   38.3010   31.8680   47.5780 C   0  0  0  0  0  0  0  0  0  0  0  0
   38.8720   32.4600   46.4560 C   0  0  0  0  0  0  0  0  0  0  0  0
   39.8800   33.3750   46.4220 N   0  0  0  0  0  0  0  0  0  0  0  0
   40.0960   33.6580   45.1240 C   0  0  0  0  0  0  0  0  0  0  0  0
   39.2630   32.9570   44.3420 N   0  0  0  0  0  0  0  0  0  0  0  0
   38.4850   32.1990   45.1440 C   0  0  0  0  0  0  0  0  0  0  0  0
   37.4550   31.2780   44.9730 C   0  0  0  0  0  0  0  0  0  0  0  0
   33.7160   27.9950   48.7290 C   0  0  0  0  0  0  0  0  0  0  0  0
   33.8620   26.9180   47.8790 C   0  0  0  0  0  0  0  0  0  0  0  0
   32.7320   26.1640   47.5430 C   0  0  0  0  0  0  0  0  0  0  0  0
   31.5270   26.5150   48.0620 N   0  0  0  0  0  0  0  0  0  0  0  0
   31.4000   27.5730   48.8940 C   0  0  0  0  0  0  0  0  0  0  0  0
   32.4880   28.2750   49.2000 N   0  0  0  0  0  0  0  0  0  0  0  0
   36.5641   29.7407   51.8219 H   0  0  0  0  0  0  0  0  0  0  0  0
   37.8404   30.9908   50.0729 H   0  0  0  0  0  0  0  0  0  0  0  0
   36.0506   29.9395   45.9391 H   0  0  0  0  0  0  0  0  0  0  0  0
   38.6484   32.1146   48.5921 H   0  0  0  0  0  0  0  0  0  0  0  0
   40.3790   33.7724   47.2307 H   0  0  0  0  0  0  0  0  0  0  0  0
   40.8521   34.3670   44.7556 H   0  0  0  0  0  0  0  0  0  0  0  0
   37.1043   31.0294   43.9605 H   0  0  0  0  0  0  0  0  0  0  0  0
   34.8500   26.6565   47.4723 H   0  0  0  0  0  0  0  0  0  0  0  0
   32.8185   25.2995   46.8683 H   0  0  0  0  0  0  0  0  0  0  0  0
   30.4188   27.8474   49.3088 H   0  0  0  0  0  0  0  0  0  0  0  0
  2  1  2  0
  3  2  1  0
  4  3  2  0
  4  5  1  0
  5  6  2  0
  6  1  1  0
  7  8  2  0
  8  9  1  0
  8  3  1  0
 10  9  2  0
 11 10  1  0
 12 11  1  0
 13 12  2  0
 13 14  1  0
 14 10  1  0
 15 14  2  0
 15  7  1  0
 16  5  1  0
 16 21  1  0
 17 16  2  0
 18 17  1  0
 18 19  2  0
 19 20  1  0
 20 21  2  0
  1 22  1  0
  2 23  1  0
  7 24  1  0
  9 25  1  0
 11 26  1  0
 12 27  1  0
 15 28  1  0
 17 29  1  0
 18 30  1  0
 20 31  1  0
M  ISO  8  22  14  23  14  24  14  25  14  26   9  27  14  28  14  29  14
M  ISO  2  30  14  31  14
M  END
>  <minimizedAffinity>  (1) 
-6.40921736

>  <minimizedRMSD>  (1) 
1.33330739

$$$$
