
     RDKit          3D

 35 38  0  0  0  0  0  0  0  0999 V2000
   36.7940   30.6430   46.0700 C   0  0  0  0  0  0  0  0  0  0  0  0
   37.1930   30.9180   47.3610 C   0  0  0  0  0  0  0  0  0  0  0  0
   38.2070   31.8210   47.5790 C   0  0  0  0  0  0  0  0  0  0  0  0
   38.7990   32.4260   46.4850 C   0  0  0  0  0  0  0  0  0  0  0  0
   39.8140   33.3430   46.4600 N   0  0  0  0  0  0  0  0  0  0  0  0
   40.0450   33.6350   45.1690 C   0  0  0  0  0  0  0  0  0  0  0  0
   39.2240   32.9460   44.3730 N   0  0  0  0  0  0  0  0  0  0  0  0
   38.4320   32.1800   45.1680 C   0  0  0  0  0  0  0  0  0  0  0  0
   37.4020   31.2640   44.9680 C   0  0  0  0  0  0  0  0  0  0  0  0
   36.0850   29.6430   50.7250 C   0  0  0  0  0  0  0  0  0  0  0  0
   36.8200   30.3590   49.7780 C   0  0  0  0  0  0  0  0  0  0  0  0
   36.5050   30.2280   48.4400 C   0  0  0  0  0  0  0  0  0  0  0  0
   35.4790   29.3980   48.0860 N   0  0  0  0  0  0  0  0  0  0  0  0
   34.7790   28.7100   49.0440 C   0  0  0  0  0  0  0  0  0  0  0  0
   35.0820   28.8340   50.3320 N   0  0  0  0  0  0  0  0  0  0  0  0
   33.7180   27.8550   48.6280 N   0  0  0  0  0  0  0  0  0  0  0  0
   32.3250   27.9840   49.0230 C   0  0  0  0  0  0  0  0  0  0  0  0
   31.6200   27.6860   47.7160 C   0  0  0  0  0  0  0  0  0  0  0  0
   32.6260   26.9570   46.8470 C   0  0  0  0  0  0  0  0  0  0  0  0
   33.8240   26.7100   47.7400 C   0  0  0  0  0  0  0  0  0  0  0  0
   35.9815   29.9212   45.9002 H   0  0  0  0  0  0  0  0  0  0  0  0
   38.5399   32.0569   48.6005 H   0  0  0  0  0  0  0  0  0  0  0  0
   40.3069   33.7347   47.2752 H   0  0  0  0  0  0  0  0  0  0  0  0
   40.8071   34.3453   44.8159 H   0  0  0  0  0  0  0  0  0  0  0  0
   37.0655   31.0276   43.9477 H   0  0  0  0  0  0  0  0  0  0  0  0
   36.3254   29.7397   51.7940 H   0  0  0  0  0  0  0  0  0  0  0  0
   37.6405   31.0198   50.0942 H   0  0  0  0  0  0  0  0  0  0  0  0
   32.0573   27.2539   49.8010 H   0  0  0  0  0  0  0  0  0  0  0  0
   32.0686   28.9594   49.4622 H   0  0  0  0  0  0  0  0  0  0  0  0
   30.7396   27.0510   47.8942 H   0  0  0  0  0  0  0  0  0  0  0  0
   31.2679   28.6089   47.2320 H   0  0  0  0  0  0  0  0  0  0  0  0
   32.2080   26.0037   46.4913 H   0  0  0  0  0  0  0  0  0  0  0  0
   32.8945   27.5408   45.9542 H   0  0  0  0  0  0  0  0  0  0  0  0
   33.7362   25.7597   48.2871 H   0  0  0  0  0  0  0  0  0  0  0  0
   34.7848   26.6211   47.2118 H   0  0  0  0  0  0  0  0  0  0  0  0
  1  2  2  0
  2  3  1  0
  2 12  1  0
  4  3  2  0
  5  4  1  0
  6  5  1  0
  7  8  1  0
  7  6  2  0
  8  4  1  0
  9  8  2  0
  9  1  1  0
 11 10  2  0
 12 11  1  0
 13 12  2  0
 13 14  1  0
 14 15  2  0
 15 10  1  0
 16 17  1  0
 16 14  1  0
 18 17  1  0
 19 18  1  0
 19 20  1  0
 20 16  1  0
  1 21  1  0
  3 22  1  0
  5 23  1  0
  6 24  1  0
  9 25  1  0
 10 26  1  0
 11 27  1  0
 17 28  1  0
 17 29  1  0
 18 30  1  0
 18 31  1  0
 19 32  1  0
 19 33  1  0
 20 34  1  0
 20 35  1  0
M  ISO  8  21  14  22  14  23   9  24  14  25  14  26  14  27  14  28  13
M  ISO  7  29  13  30  13  31  13  32  13  33  13  34  13  35  13
M  END
>  <minimizedAffinity>  (1) 
-6.28019094

>  <minimizedRMSD>  (1) 
1.37197006

$$$$
