
     RDKit          3D

 26 28  0  0  0  0  0  0  0  0999 V2000
   37.1390   30.8070   46.6270 C   0  0  0  0  0  0  0  0  0  0  0  0
   37.7420   31.2580   47.8090 C   0  0  0  0  0  0  0  0  0  0  0  0
   38.7530   32.1920   47.7430 C   0  0  0  0  0  0  0  0  0  0  0  0
   39.1450   32.6580   46.5090 C   0  0  0  0  0  0  0  0  0  0  0  0
   40.1070   33.5670   46.2060 N   0  0  0  0  0  0  0  0  0  0  0  0
   40.1140   33.6920   44.8640 C   0  0  0  0  0  0  0  0  0  0  0  0
   39.1930   32.8940   44.3150 N   0  0  0  0  0  0  0  0  0  0  0  0
   38.5670   32.2330   45.3110 C   0  0  0  0  0  0  0  0  0  0  0  0
   37.5530   31.2950   45.3920 C   0  0  0  0  0  0  0  0  0  0  0  0
   37.4350   30.0300   51.3420 C   0  0  0  0  0  0  0  0  0  0  0  0
   38.0170   30.5930   50.2080 C   0  0  0  0  0  0  0  0  0  0  0  0
   37.2390   30.6890   49.0460 C   0  0  0  0  0  0  0  0  0  0  0  0
   35.9440   30.2310   49.0610 N   0  0  0  0  0  0  0  0  0  0  0  0
   35.4290   29.6920   50.1910 C   0  0  0  0  0  0  0  0  0  0  0  0
   36.1550   29.5900   51.3140 N   0  0  0  0  0  0  0  0  0  0  0  0
   34.0510   29.2240   50.1500 C   0  0  0  0  0  0  0  0  0  0  0  0
   33.6990   28.2770   49.4140 O   0  0  0  0  0  0  0  0  0  0  0  0
   32.9370   29.6810   50.8530 O   0  0  0  0  0  0  0  0  0  0  0  0
   36.3319   30.0612   46.6763 H   0  0  0  0  0  0  0  0  0  0  0  0
   39.2378   32.5584   48.6599 H   0  0  0  0  0  0  0  0  0  0  0  0
   40.7141   34.0648   46.8728 H   0  0  0  0  0  0  0  0  0  0  0  0
   40.7838   34.3575   44.2997 H   0  0  0  0  0  0  0  0  0  0  0  0
   37.0705   30.9324   44.4724 H   0  0  0  0  0  0  0  0  0  0  0  0
   38.0211   29.9422   52.2687 H   0  0  0  0  0  0  0  0  0  0  0  0
   39.0568   30.9517   50.2242 H   0  0  0  0  0  0  0  0  0  0  0  0
   32.0547   29.2538   50.7144 H   0  0  0  0  0  0  0  0  0  0  0  0
  1  2  2  0
  2 12  1  0
  3  2  1  0
  4  3  2  0
  5  4  1  0
  6  5  1  0
  7  6  2  0
  7  8  1  0
  8  9  2  0
  8  4  1  0
  9  1  1  0
 11 10  2  0
 12 13  2  0
 12 11  1  0
 13 14  1  0
 14 15  2  0
 15 10  1  0
 16 14  1  0
 16 18  1  0
 17 16  2  0
  1 19  1  0
  3 20  1  0
  5 21  1  0
  6 22  1  0
  9 23  1  0
 10 24  1  0
 11 25  1  0
 18 26  1  0
M  ISO  8  19  14  20  14  21   9  22  14  23  14  24  14  25  14  26   3
M  END
>  <minimizedAffinity>  (1) 
-6.64494371

>  <minimizedRMSD>  (1) 
0.460062206

$$$$
