
     RDKit          3D

 35 38  0  0  0  0  0  0  0  0999 V2000
   35.8860   29.5220   50.6010 C   0  0  0  0  0  0  0  0  0  0  0  0
   36.6560   30.2630   49.7050 C   0  0  0  0  0  0  0  0  0  0  0  0
   36.3830   30.1530   48.3550 C   0  0  0  0  0  0  0  0  0  0  0  0
   35.3710   29.3260   47.9350 N   0  0  0  0  0  0  0  0  0  0  0  0
   34.6370   28.6160   48.8320 C   0  0  0  0  0  0  0  0  0  0  0  0
   34.9070   28.7260   50.1430 N   0  0  0  0  0  0  0  0  0  0  0  0
   36.7340   30.6270   45.9900 C   0  0  0  0  0  0  0  0  0  0  0  0
   37.1110   30.8710   47.2990 C   0  0  0  0  0  0  0  0  0  0  0  0
   38.1340   31.7600   47.5950 C   0  0  0  0  0  0  0  0  0  0  0  0
   38.7590   32.3870   46.5280 C   0  0  0  0  0  0  0  0  0  0  0  0
   39.7660   33.2820   46.5350 N   0  0  0  0  0  0  0  0  0  0  0  0
   40.0300   33.6040   45.2580 C   0  0  0  0  0  0  0  0  0  0  0  0
   39.2120   32.9340   44.4370 N   0  0  0  0  0  0  0  0  0  0  0  0
   38.4120   32.1710   45.1970 C   0  0  0  0  0  0  0  0  0  0  0  0
   37.3720   31.2660   44.9300 C   0  0  0  0  0  0  0  0  0  0  0  0
   33.5720   27.7620   48.3120 C   0  0  0  0  0  0  0  0  0  0  0  0
   33.8910   26.5570   48.0130 O   0  0  0  0  0  0  0  0  0  0  0  0
   32.6430   29.0580   45.6400 Cl  0  0  0  0  0  0  0  0  0  0  0  0
   31.5920   28.5230   46.9060 C   0  0  0  0  0  0  0  0  0  0  0  0
   32.1540   27.9760   48.0380 C   0  0  0  0  0  0  0  0  0  0  0  0
   31.2070   27.5870   48.9960 C   0  0  0  0  0  0  0  0  0  0  0  0
   29.8630   27.7130   48.8730 C   0  0  0  0  0  0  0  0  0  0  0  0
   29.3840   28.2690   47.7100 C   0  0  0  0  0  0  0  0  0  0  0  0
   30.2390   28.6810   46.7110 C   0  0  0  0  0  0  0  0  0  0  0  0
   36.0806   29.5897   51.6815 H   0  0  0  0  0  0  0  0  0  0  0  0
   37.4619   30.9197   50.0646 H   0  0  0  0  0  0  0  0  0  0  0  0
   35.9186   29.9180   45.7839 H   0  0  0  0  0  0  0  0  0  0  0  0
   38.4368   31.9593   48.6335 H   0  0  0  0  0  0  0  0  0  0  0  0
   40.2460   33.6519   47.3679 H   0  0  0  0  0  0  0  0  0  0  0  0
   40.8050   34.3143   44.9342 H   0  0  0  0  0  0  0  0  0  0  0  0
   37.0643   31.0638   43.8935 H   0  0  0  0  0  0  0  0  0  0  0  0
   31.5873   27.1414   49.9271 H   0  0  0  0  0  0  0  0  0  0  0  0
   29.1824   27.3835   49.6719 H   0  0  0  0  0  0  0  0  0  0  0  0
   28.2987   28.3870   47.5748 H   0  0  0  0  0  0  0  0  0  0  0  0
   29.8503   29.1244   45.7824 H   0  0  0  0  0  0  0  0  0  0  0  0
  2  1  2  0
  3  2  1  0
  4  3  2  0
  4  5  1  0
  5  6  2  0
  6  1  1  0
  7  8  2  0
  8  9  1  0
  8  3  1  0
 10 11  1  0
 10  9  2  0
 12 11  1  0
 13 14  1  0
 13 12  2  0
 14 10  1  0
 15 14  2  0
 15  7  1  0
 16  5  1  0
 17 16  2  0
 18 19  1  0
 19 20  2  0
 20 16  1  0
 20 21  1  0
 22 21  2  0
 23 22  1  0
 24 19  1  0
 24 23  2  0
  1 25  1  0
  2 26  1  0
  7 27  1  0
  9 28  1  0
 11 29  1  0
 12 30  1  0
 15 31  1  0
 21 32  1  0
 22 33  1  0
 23 34  1  0
 24 35  1  0
M  ISO  8  25  14  26  14  27  14  28  14  29   9  30  14  31  14  32  14
M  ISO  3  33  14  34  14  35  14
M  END
>  <minimizedAffinity>  (1) 
-6.48856544

>  <minimizedRMSD>  (1) 
2.44791317

$$$$
