
     RDKit          3D

 37 40  0  0  1  0  0  0  0  0999 V2000
   35.7740   29.4230   50.5970 C   0  0  0  0  0  0  0  0  0  0  0  0
   36.5490   30.1770   49.7150 C   0  0  0  0  0  0  0  0  0  0  0  0
   36.2920   30.0710   48.3540 C   0  0  0  0  0  0  0  0  0  0  0  0
   35.2950   29.2400   47.9290 N   0  0  0  0  0  0  0  0  0  0  0  0
   34.5530   28.5170   48.8060 C   0  0  0  0  0  0  0  0  0  0  0  0
   34.7950   28.6130   50.1270 N   0  0  0  0  0  0  0  0  0  0  0  0
   36.6590   30.5770   46.0050 C   0  0  0  0  0  0  0  0  0  0  0  0
   37.0270   30.8000   47.3380 C   0  0  0  0  0  0  0  0  0  0  0  0
   38.0460   31.6820   47.6250 C   0  0  0  0  0  0  0  0  0  0  0  0
   38.6840   32.3280   46.5830 C   0  0  0  0  0  0  0  0  0  0  0  0
   39.6950   33.2220   46.6060 N   0  0  0  0  0  0  0  0  0  0  0  0
   39.9710   33.5630   45.3480 C   0  0  0  0  0  0  0  0  0  0  0  0
   39.1630   32.9100   44.5130 N   0  0  0  0  0  0  0  0  0  0  0  0
   38.3480   32.1300   45.2500 C   0  0  0  0  0  0  0  0  0  0  0  0
   37.3130   31.2350   44.9570 C   0  0  0  0  0  0  0  0  0  0  0  0
   33.5020   27.6430   48.3270 C   0  0  0  0  0  0  0  0  0  0  0  0
   33.7810   26.4990   47.9030 O   0  0  0  0  0  0  0  0  0  0  0  0
   29.8310   27.6790   48.2250 C   0  0  2  0  0  0  0  0  0  0  0  0
   31.1350   27.0080   48.6810 C   0  0  0  0  0  0  0  0  0  0  0  0
   32.1000   28.1310   48.3490 C   0  0  2  0  0  0  0  0  0  0  0  0
   31.6730   28.5700   47.1130 O   0  0  0  0  0  0  0  0  0  0  0  0
   30.3220   28.3670   46.9810 C   0  0  0  0  0  0  0  0  0  0  0  0
   29.5020   28.5920   49.2460 O   0  0  0  0  0  0  0  0  0  0  0  0
   35.9589   29.4866   51.6795 H   0  0  0  0  0  0  0  0  0  0  0  0
   37.3441   30.8392   50.0883 H   0  0  0  0  0  0  0  0  0  0  0  0
   35.8437   29.8742   45.7784 H   0  0  0  0  0  0  0  0  0  0  0  0
   38.3468   31.8689   48.6664 H   0  0  0  0  0  0  0  0  0  0  0  0
   40.1696   33.5780   47.4480 H   0  0  0  0  0  0  0  0  0  0  0  0
   40.7501   34.2774   45.0436 H   0  0  0  0  0  0  0  0  0  0  0  0
   37.0165   31.0505   43.9139 H   0  0  0  0  0  0  0  0  0  0  0  0
   28.9465   27.0511   48.0423 H   0  0  0  0  0  0  0  0  0  0  0  0
   31.1261   26.7745   49.7559 H   0  0  0  0  0  0  0  0  0  0  0  0
   31.3578   26.0363   48.2162 H   0  0  0  0  0  0  0  0  0  0  0  0
   32.1013   28.9397   49.0947 H   0  0  0  0  0  0  0  0  0  0  0  0
   29.8094   29.3329   46.8617 H   0  0  0  0  0  0  0  0  0  0  0  0
   30.1135   27.7490   46.0952 H   0  0  0  0  0  0  0  0  0  0  0  0
   29.6543   28.1694   50.1282 H   0  0  0  0  0  0  0  0  0  0  0  0
  2  1  2  0
  3  2  1  0
  4  3  2  0
  4  5  1  0
  5  6  2  0
  6  1  1  0
  7  8  2  0
  8  9  1  0
  8  3  1  0
 10 11  1  0
 10  9  2  0
 12 11  1  0
 13 14  1  0
 13 12  2  0
 14 10  1  0
 15 14  2  0
 15  7  1  0
 16  5  1  0
 17 16  2  0
 18 19  1  0
 18 23  1  0
 20 16  1  0
 20 19  1  0
 21 20  1  0
 22 21  1  0
 22 18  1  0
  1 24  1  0
  2 25  1  0
  7 26  1  0
  9 27  1  0
 11 28  1  0
 12 29  1  0
 15 30  1  0
 18 31  1  6
 19 32  1  0
 19 33  1  0
 20 34  1  1
 22 35  1  0
 22 36  1  0
 23 37  1  0
M  ISO  8  24  14  25  14  26  14  27  14  28   9  29  14  30  14  31  13
M  ISO  6  32  13  33  13  34  13  35  13  36  13  37   3
M  END
>  <minimizedAffinity>  (1) 
-6.37501669

>  <minimizedRMSD>  (1) 
2.59672856

$$$$
