
     RDKit          3D

 32 35  0  0  0  0  0  0  0  0999 V2000
   36.6680   30.5930   46.0440 C   0  0  0  0  0  0  0  0  0  0  0  0
   37.0520   30.8380   47.3670 C   0  0  0  0  0  0  0  0  0  0  0  0
   38.0760   31.7220   47.6290 C   0  0  0  0  0  0  0  0  0  0  0  0
   38.7000   32.3460   46.5680 C   0  0  0  0  0  0  0  0  0  0  0  0
   39.7140   33.2380   46.5780 N   0  0  0  0  0  0  0  0  0  0  0  0
   39.9780   33.5600   45.3070 C   0  0  0  0  0  0  0  0  0  0  0  0
   39.1640   32.9010   44.4860 N   0  0  0  0  0  0  0  0  0  0  0  0
   38.3500   32.1300   45.2410 C   0  0  0  0  0  0  0  0  0  0  0  0
   37.3190   31.2390   44.9920 C   0  0  0  0  0  0  0  0  0  0  0  0
   35.7890   29.5770   50.6690 C   0  0  0  0  0  0  0  0  0  0  0  0
   36.5400   30.3120   49.7700 C   0  0  0  0  0  0  0  0  0  0  0  0
   36.3220   30.1240   48.3970 C   0  0  0  0  0  0  0  0  0  0  0  0
   35.3690   29.2170   47.9950 N   0  0  0  0  0  0  0  0  0  0  0  0
   34.6650   28.5290   48.9130 C   0  0  0  0  0  0  0  0  0  0  0  0
   34.8550   28.6910   50.2300 N   0  0  0  0  0  0  0  0  0  0  0  0
   33.6680   27.5810   48.4460 C   0  0  0  0  0  0  0  0  0  0  0  0
   33.9620   26.5510   47.8060 O   0  0  0  0  0  0  0  0  0  0  0  0
   32.2150   27.8410   48.7410 C   0  0  0  0  0  0  0  0  0  0  0  0
   31.2900   28.0260   47.5480 C   0  0  0  0  0  0  0  0  0  0  0  0
   31.2150   26.8040   48.3900 C   0  0  0  0  0  0  0  0  0  0  0  0
   35.8500   29.8887   45.8323 H   0  0  0  0  0  0  0  0  0  0  0  0
   38.3898   31.9263   48.6633 H   0  0  0  0  0  0  0  0  0  0  0  0
   40.1958   33.6034   47.4118 H   0  0  0  0  0  0  0  0  0  0  0  0
   40.7564   34.2680   44.9863 H   0  0  0  0  0  0  0  0  0  0  0  0
   37.0105   31.0387   43.9553 H   0  0  0  0  0  0  0  0  0  0  0  0
   35.9485   29.7101   51.7492 H   0  0  0  0  0  0  0  0  0  0  0  0
   37.2938   31.0303   50.1247 H   0  0  0  0  0  0  0  0  0  0  0  0
   32.4533   28.4046   49.6551 H   0  0  0  0  0  0  0  0  0  0  0  0
   31.6896   27.9683   46.5248 H   0  0  0  0  0  0  0  0  0  0  0  0
   30.5769   28.7975   47.2221 H   0  0  0  0  0  0  0  0  0  0  0  0
   30.3438   26.6436   49.0421 H   0  0  0  0  0  0  0  0  0  0  0  0
   31.2677   25.7248   48.1838 H   0  0  0  0  0  0  0  0  0  0  0  0
  1  2  2  0
  2  3  1  0
  2 12  1  0
  4  5  1  0
  4  3  2  0
  6  5  1  0
  7  8  1  0
  7  6  2  0
  8  4  1  0
  9  8  2  0
  9  1  1  0
 11 10  2  0
 12 11  1  0
 13 12  2  0
 13 14  1  0
 14 15  2  0
 15 10  1  0
 16 18  1  0
 16 14  1  0
 17 16  2  0
 19 20  1  0
 19 18  1  0
 20 18  1  0
  1 21  1  0
  3 22  1  0
  5 23  1  0
  6 24  1  0
  9 25  1  0
 10 26  1  0
 11 27  1  0
 18 28  1  0
 19 29  1  0
 19 30  1  0
 20 31  1  0
 20 32  1  0
M  ISO  8  21  14  22  14  23   9  24  14  25  14  26  14  27  14  28  13
M  ISO  4  29  13  30  13  31  13  32  13
M  END
>  <minimizedAffinity>  (1) 
-5.81955051

>  <minimizedRMSD>  (1) 
1.65374732

$$$$
