
     RDKit          3D

 47 51  0  0  1  0  0  0  0  0999 V2000
   35.6420   29.4190   50.6170 C   0  0  0  0  0  0  0  0  0  0  0  0
   36.4130   30.1400   49.7320 C   0  0  0  0  0  0  0  0  0  0  0  0
   36.1540   30.0560   48.3660 C   0  0  0  0  0  0  0  0  0  0  0  0
   35.1230   29.2440   47.9460 N   0  0  0  0  0  0  0  0  0  0  0  0
   34.3950   28.5570   48.8590 C   0  0  0  0  0  0  0  0  0  0  0  0
   34.6290   28.6250   50.1640 N   0  0  0  0  0  0  0  0  0  0  0  0
   36.5590   30.5290   46.0280 C   0  0  0  0  0  0  0  0  0  0  0  0
   36.9100   30.7700   47.3670 C   0  0  0  0  0  0  0  0  0  0  0  0
   37.9270   31.6480   47.6460 C   0  0  0  0  0  0  0  0  0  0  0  0
   38.5850   32.2750   46.6160 C   0  0  0  0  0  0  0  0  0  0  0  0
   39.6040   33.1650   46.6540 N   0  0  0  0  0  0  0  0  0  0  0  0
   39.9000   33.4870   45.3970 C   0  0  0  0  0  0  0  0  0  0  0  0
   39.1130   32.8390   44.5560 N   0  0  0  0  0  0  0  0  0  0  0  0
   38.2660   32.0620   45.2750 C   0  0  0  0  0  0  0  0  0  0  0  0
   37.2390   31.1760   44.9980 C   0  0  0  0  0  0  0  0  0  0  0  0
   33.3120   27.7210   48.3550 C   0  0  0  0  0  0  0  0  0  0  0  0
   33.5060   26.5810   47.8590 O   0  0  0  0  0  0  0  0  0  0  0  0
   31.8900   28.2480   48.4290 C   0  0  1  0  0  0  0  0  0  0  0  0
   30.8690   27.4750   47.5820 C   0  0  0  0  0  0  0  0  0  0  0  0
   30.8620   27.4110   49.0600 C   0  0  2  0  0  0  0  0  0  0  0  0
   29.7870   27.9790   49.8380 N   0  0  0  0  0  0  0  0  0  0  0  0
   29.1560   26.9150   50.5720 C   0  0  0  0  0  0  0  0  0  0  0  0
   27.9870   27.4200   51.3610 C   0  0  0  0  0  0  0  0  0  0  0  0
   26.9280   27.8590   50.3710 C   0  0  0  0  0  0  0  0  0  0  0  0
   27.4850   28.2520   49.0350 C   0  0  0  0  0  0  0  0  0  0  0  0
   28.8860   28.8110   49.1140 C   0  0  0  0  0  0  0  0  0  0  0  0
   35.8443   29.4838   51.6963 H   0  0  0  0  0  0  0  0  0  0  0  0
   37.2287   30.7785   50.1020 H   0  0  0  0  0  0  0  0  0  0  0  0
   35.7451   29.8276   45.7921 H   0  0  0  0  0  0  0  0  0  0  0  0
   38.2138   31.8487   48.6888 H   0  0  0  0  0  0  0  0  0  0  0  0
   40.0658   33.5268   47.5006 H   0  0  0  0  0  0  0  0  0  0  0  0
   40.6891   34.1934   45.0998 H   0  0  0  0  0  0  0  0  0  0  0  0
   36.9565   30.9805   43.9530 H   0  0  0  0  0  0  0  0  0  0  0  0
   32.2056   29.2942   48.5546 H   0  0  0  0  0  0  0  0  0  0  0  0
   30.0725   28.0122   47.0462 H   0  0  0  0  0  0  0  0  0  0  0  0
   30.9182   26.7436   46.7619 H   0  0  0  0  0  0  0  0  0  0  0  0
   30.8946   26.5871   49.7881 H   0  0  0  0  0  0  0  0  0  0  0  0
   28.8070   26.1487   49.8642 H   0  0  0  0  0  0  0  0  0  0  0  0
   29.8912   26.4908   51.2716 H   0  0  0  0  0  0  0  0  0  0  0  0
   27.5924   26.6187   52.0030 H   0  0  0  0  0  0  0  0  0  0  0  0
   28.2871   28.2589   52.0062 H   0  0  0  0  0  0  0  0  0  0  0  0
   26.2230   27.0276   50.2235 H   0  0  0  0  0  0  0  0  0  0  0  0
   26.4396   28.7498   50.7930 H   0  0  0  0  0  0  0  0  0  0  0  0
   26.8283   29.0163   48.5938 H   0  0  0  0  0  0  0  0  0  0  0  0
   27.5313   27.3411   48.4201 H   0  0  0  0  0  0  0  0  0  0  0  0
   29.2706   28.9339   48.0908 H   0  0  0  0  0  0  0  0  0  0  0  0
   28.8238   29.7681   49.6526 H   0  0  0  0  0  0  0  0  0  0  0  0
  2  1  2  0
  3  2  1  0
  4  3  2  0
  4  5  1  0
  5  6  2  0
  6  1  1  0
  7  8  2  0
  8  9  1  0
  8  3  1  0
 10 11  1  0
 10  9  2  0
 12 11  1  0
 13 14  1  0
 13 12  2  0
 14 10  1  0
 15 14  2  0
 15  7  1  0
 16 18  1  0
 16  5  1  0
 17 16  2  0
 18 20  1  0
 19 18  1  0
 19 20  1  0
 20 21  1  0
 21 22  1  0
 22 23  1  0
 24 23  1  0
 25 26  1  0
 25 24  1  0
 26 21  1  0
  1 27  1  0
  2 28  1  0
  7 29  1  0
  9 30  1  0
 11 31  1  0
 12 32  1  0
 15 33  1  0
 18 34  1  1
 19 35  1  0
 19 36  1  0
 20 37  1  6
 22 38  1  0
 22 39  1  0
 23 40  1  0
 23 41  1  0
 24 42  1  0
 24 43  1  0
 25 44  1  0
 25 45  1  0
 26 46  1  0
 26 47  1  0
M  ISO  8  27  14  28  14  29  14  30  14  31   9  32  14  33  14  34  13
M  ISO  8  35  13  36  13  37  13  38  13  39  13  40  13  41  13  42  13
M  ISO  5  43  13  44  13  45  13  46  13  47  13
M  END
>  <minimizedAffinity>  (1) 
-7.15052843

>  <minimizedRMSD>  (1) 
1.13273394

$$$$
