
     RDKit          3D

 38 41  0  0  1  0  0  0  0  0999 V2000
   35.5120   29.5850   50.5890 C   0  0  0  0  0  0  0  0  0  0  0  0
   36.2920   30.3220   49.7150 C   0  0  0  0  0  0  0  0  0  0  0  0
   36.1450   30.1090   48.3480 C   0  0  0  0  0  0  0  0  0  0  0  0
   35.2310   29.1770   47.9280 N   0  0  0  0  0  0  0  0  0  0  0  0
   34.4930   28.4830   48.8180 C   0  0  0  0  0  0  0  0  0  0  0  0
   34.6170   28.6700   50.1260 N   0  0  0  0  0  0  0  0  0  0  0  0
   36.5740   30.5690   46.0040 C   0  0  0  0  0  0  0  0  0  0  0  0
   36.9080   30.8190   47.3420 C   0  0  0  0  0  0  0  0  0  0  0  0
   37.9210   31.6930   47.6250 C   0  0  0  0  0  0  0  0  0  0  0  0
   38.5970   32.3100   46.5980 C   0  0  0  0  0  0  0  0  0  0  0  0
   39.6230   33.1940   46.6540 N   0  0  0  0  0  0  0  0  0  0  0  0
   39.9410   33.5020   45.4000 C   0  0  0  0  0  0  0  0  0  0  0  0
   39.1530   32.8480   44.5390 N   0  0  0  0  0  0  0  0  0  0  0  0
   38.2990   32.0900   45.2620 C   0  0  0  0  0  0  0  0  0  0  0  0
   37.2710   31.2040   44.9760 C   0  0  0  0  0  0  0  0  0  0  0  0
   33.5350   27.5180   48.3060 C   0  0  0  0  0  0  0  0  0  0  0  0
   33.8760   26.4700   47.6990 O   0  0  0  0  0  0  0  0  0  0  0  0
   32.0660   27.7700   48.5000 C   0  0  1  0  0  0  0  0  0  0  0  0
   31.3030   28.2200   47.2370 C   0  0  0  0  0  0  0  0  0  0  0  0
   31.0680   26.9110   47.8700 C   0  0  2  0  0  0  0  0  0  0  0  0
   29.9000   26.6350   48.5690 O   0  0  0  0  0  0  0  0  0  0  0  0
   28.5160   28.7290   49.1280 O   0  0  0  0  0  0  0  0  0  0  0  0
   29.5170   27.7520   49.7480 P   0  0  0  0  0  0  0  0  0  0  0  0
   30.8090   28.6500   50.3080 O   0  0  0  0  0  0  0  0  0  0  0  0
   28.7260   27.0660   51.0700 O   0  0  0  0  0  0  0  0  0  0  0  0
   35.6168   29.7409   51.6728 H   0  0  0  0  0  0  0  0  0  0  0  0
   37.0135   31.0611   50.0934 H   0  0  0  0  0  0  0  0  0  0  0  0
   35.7596   29.8698   45.7637 H   0  0  0  0  0  0  0  0  0  0  0  0
   38.1942   31.9019   48.6699 H   0  0  0  0  0  0  0  0  0  0  0  0
   40.0716   33.5583   47.5066 H   0  0  0  0  0  0  0  0  0  0  0  0
   40.7416   34.1985   45.1105 H   0  0  0  0  0  0  0  0  0  0  0  0
   37.0028   31.0002   43.9288 H   0  0  0  0  0  0  0  0  0  0  0  0
   32.2164   28.1177   49.5327 H   0  0  0  0  0  0  0  0  0  0  0  0
   31.8203   28.2842   46.2684 H   0  0  0  0  0  0  0  0  0  0  0  0
   30.6832   29.0835   46.9539 H   0  0  0  0  0  0  0  0  0  0  0  0
   31.0662   25.8880   47.4658 H   0  0  0  0  0  0  0  0  0  0  0  0
   30.8073   28.6488   51.2980 H   0  0  0  0  0  0  0  0  0  0  0  0
   29.1240   27.4112   51.9082 H   0  0  0  0  0  0  0  0  0  0  0  0
  2  1  2  0
  3  2  1  0
  4  3  2  0
  4  5  1  0
  5  6  2  0
  6  1  1  0
  7  8  2  0
  8  9  1  0
  8  3  1  0
 10 11  1  0
 10  9  2  0
 12 11  1  0
 13 14  1  0
 13 12  2  0
 14 10  1  0
 15 14  2  0
 15  7  1  0
 16 18  1  0
 16  5  1  0
 17 16  2  0
 19 20  1  0
 19 18  1  0
 20 18  1  0
 20 21  1  0
 21 23  1  0
 22 23  2  0
 23 24  1  0
 23 25  1  0
  1 26  1  0
  2 27  1  0
  7 28  1  0
  9 29  1  0
 11 30  1  0
 12 31  1  0
 15 32  1  0
 18 33  1  1
 19 34  1  0
 19 35  1  0
 20 36  1  6
 24 37  1  0
 25 38  1  0
M  ISO  8  26  14  27  14  28  14  29  14  30   9  31  14  32  14  33  13
M  ISO  5  34  13  35  13  36  13  37   3  38   3
M  END
>  <minimizedAffinity>  (1) 
-6.75680637

>  <minimizedRMSD>  (1) 
0.552439511

$$$$
