
     RDKit          3D

 34 35  0  0  1  0  0  0  0  0999 V2000
   35.5280   30.0690   49.8690 C   0  0  2  0  0  0  0  0  0  0  0  0
   36.1440   31.3310   49.3040 C   0  0  0  0  0  0  0  0  0  0  0  0
   37.6370   31.3230   49.3370 C   0  0  1  0  0  0  0  0  0  0  0  0
   38.2210   31.0040   50.6810 C   0  0  0  0  0  0  0  0  0  0  0  0
   37.4510   29.9750   51.4530 C   0  0  0  0  0  0  0  0  0  0  0  0
   36.5080   29.1890   50.5640 C   0  0  0  0  0  0  0  0  0  0  0  0
   34.8920   29.2780   48.7760 C   0  0  0  0  0  0  0  0  0  0  0  0
   34.7040   29.9480   47.5540 C   0  0  0  0  0  0  0  0  0  0  0  0
   34.0930   29.2030   46.5240 C   0  0  0  0  0  0  0  0  0  0  0  0
   33.7320   27.9130   46.7640 N   0  0  0  0  0  0  0  0  0  0  0  0
   33.9310   27.3060   47.9580 C   0  0  0  0  0  0  0  0  0  0  0  0
   34.5090   27.9930   48.9500 N   0  0  0  0  0  0  0  0  0  0  0  0
   38.2000   30.5270   48.2730 N   0  0  0  0  0  0  0  0  0  0  0  0
   38.8100   31.5840   47.0220 S   0  0  0  0  0  0  0  0  0  0  0  0
   39.1710   32.8850   47.6870 O   0  0  0  0  0  0  0  0  0  0  0  0
   37.7410   31.8840   46.0070 O   0  0  0  0  0  0  0  0  0  0  0  0
   40.1830   30.9590   46.3350 O   0  0  0  0  0  0  0  0  0  0  0  0
   34.7872   30.4025   50.6106 H   0  0  0  0  0  0  0  0  0  0  0  0
   35.7859   32.1885   49.8926 H   0  0  0  0  0  0  0  0  0  0  0  0
   35.8408   31.3985   48.2488 H   0  0  0  0  0  0  0  0  0  0  0  0
   37.9390   32.3639   49.1494 H   0  0  0  0  0  0  0  0  0  0  0  0
   39.2450   30.6304   50.5331 H   0  0  0  0  0  0  0  0  0  0  0  0
   38.1891   31.9326   51.2698 H   0  0  0  0  0  0  0  0  0  0  0  0
   38.1609   29.2780   51.9223 H   0  0  0  0  0  0  0  0  0  0  0  0
   36.8485   30.4979   52.2104 H   0  0  0  0  0  0  0  0  0  0  0  0
   35.9577   28.4652   51.1831 H   0  0  0  0  0  0  0  0  0  0  0  0
   37.1107   28.6814   49.7965 H   0  0  0  0  0  0  0  0  0  0  0  0
   35.0156   30.9930   47.4097 H   0  0  0  0  0  0  0  0  0  0  0  0
   33.9107   29.6587   45.5396 H   0  0  0  0  0  0  0  0  0  0  0  0
   33.6214   26.2615   48.1104 H   0  0  0  0  0  0  0  0  0  0  0  0
   38.9702   29.9523   48.6437 H   0  0  0  0  0  0  0  0  0  0  0  0
   39.1399   32.7729   48.6701 H   0  0  0  0  0  0  0  0  0  0  0  0
   36.9001   32.1200   46.4732 H   0  0  0  0  0  0  0  0  0  0  0  0
   40.8084   30.6743   47.0477 H   0  0  0  0  0  0  0  0  0  0  0  0
  1  6  1  0
  2  3  1  0
  2  1  1  0
  3  4  1  0
  4  5  1  0
  6  5  1  0
  7 12  1  0
  7  1  1  0
  8  7  2  0
  9 10  2  0
  9  8  1  0
 10 11  1  0
 11 12  2  0
 13  3  1  0
 14 15  1  0
 14 13  1  0
 16 14  1  0
 17 14  1  0
  1 18  1  1
  2 19  1  0
  2 20  1  0
  3 21  1  6
  4 22  1  0
  4 23  1  0
  5 24  1  0
  5 25  1  0
  6 26  1  0
  6 27  1  0
  8 28  1  0
  9 29  1  0
 11 30  1  0
 13 31  1  0
 15 32  1  0
 16 33  1  0
 17 34  1  0
M  ISO  8  18  13  19  13  20  13  21  13  22  13  23  13  24  13  25  13
M  ISO  8  26  13  27  13  28  14  29  14  30  14  31   5  32   3  33   3
M  ISO  1  34   3
M  END
>  <minimizedAffinity>  (1) 
-5.91819143

>  <minimizedRMSD>  (1) 
0.976787686

$$$$
