
     RDKit          3D

 28 29  0  0  1  0  0  0  0  0999 V2000
   35.5670   30.1450   49.6350 C   0  0  2  0  0  0  0  0  0  0  0  0
   36.4110   31.1610   48.8950 C   0  0  0  0  0  0  0  0  0  0  0  0
   37.8850   30.9300   49.0720 C   0  0  2  0  0  0  0  0  0  0  0  0
   38.2590   30.9520   50.5320 C   0  0  0  0  0  0  0  0  0  0  0  0
   37.3950   30.0620   51.3610 C   0  0  0  0  0  0  0  0  0  0  0  0
   36.3550   29.2970   50.5720 C   0  0  0  0  0  0  0  0  0  0  0  0
   34.9010   29.2370   48.6530 C   0  0  0  0  0  0  0  0  0  0  0  0
   34.7290   29.7420   47.3530 C   0  0  0  0  0  0  0  0  0  0  0  0
   34.1030   28.9120   46.4240 C   0  0  0  0  0  0  0  0  0  0  0  0
   33.6860   27.6560   46.8100 N   0  0  0  0  0  0  0  0  0  0  0  0
   33.8750   27.2070   48.0890 C   0  0  0  0  0  0  0  0  0  0  0  0
   34.4750   27.9960   48.9860 N   0  0  0  0  0  0  0  0  0  0  0  0
   38.6240   31.9760   48.3480 C   0  0  0  0  0  0  0  0  0  0  0  0
   38.8210   33.0740   48.8550 O   0  0  0  0  0  0  0  0  0  0  0  0
   34.8376   30.7210   50.2233 H   0  0  0  0  0  0  0  0  0  0  0  0
   36.1644   32.1646   49.2718 H   0  0  0  0  0  0  0  0  0  0  0  0
   36.1857   31.0621   47.8229 H   0  0  0  0  0  0  0  0  0  0  0  0
   38.1446   29.9402   48.6683 H   0  0  0  0  0  0  0  0  0  0  0  0
   39.3034   30.6219   50.6328 H   0  0  0  0  0  0  0  0  0  0  0  0
   38.1209   31.9812   50.8949 H   0  0  0  0  0  0  0  0  0  0  0  0
   38.0412   29.3354   51.8752 H   0  0  0  0  0  0  0  0  0  0  0  0
   36.8471   30.7132   52.0580 H   0  0  0  0  0  0  0  0  0  0  0  0
   35.6592   28.8254   51.2815 H   0  0  0  0  0  0  0  0  0  0  0  0
   36.8956   28.5604   49.9596 H   0  0  0  0  0  0  0  0  0  0  0  0
   35.0739   30.7501   47.0797 H   0  0  0  0  0  0  0  0  0  0  0  0
   33.9432   29.2565   45.3916 H   0  0  0  0  0  0  0  0  0  0  0  0
   33.5348   26.2015   48.3775 H   0  0  0  0  0  0  0  0  0  0  0  0
   39.0052   31.7694   47.3370 H   0  0  0  0  0  0  0  0  0  0  0  0
  1  6  1  0
  2  3  1  0
  2  1  1  0
  3  4  1  0
  4  5  1  0
  6  5  1  0
  7 12  1  0
  7  1  1  0
  8  7  2  0
  9 10  2  0
  9  8  1  0
 10 11  1  0
 11 12  2  0
 13 14  2  0
 13  3  1  0
  1 15  1  1
  2 16  1  0
  2 17  1  0
  3 18  1  6
  4 19  1  0
  4 20  1  0
  5 21  1  0
  5 22  1  0
  6 23  1  0
  6 24  1  0
  8 25  1  0
  9 26  1  0
 11 27  1  0
 13 28  1  0
M  ISO  8  15  13  16  13  17  13  18  13  19  13  20  13  21  13  22  13
M  ISO  6  23  13  24  13  25  14  26  14  27  14  28   6
M  END
>  <minimizedAffinity>  (1) 
-5.27444029

>  <minimizedRMSD>  (1) 
0.454090625

$$$$
