
     RDKit          3D

 43 45  0  0  1  0  0  0  0  0999 V2000
   35.3000   30.3350   49.9610 C   0  0  2  0  0  0  0  0  0  0  0  0
   36.2590   31.2880   49.3420 C   0  0  0  0  0  0  0  0  0  0  0  0
   37.6980   30.7760   49.3680 C   0  0  2  0  0  0  0  0  0  0  0  0
   38.1200   30.6400   50.8050 C   0  0  0  0  0  0  0  0  0  0  0  0
   37.1270   29.8130   51.6070 C   0  0  0  0  0  0  0  0  0  0  0  0
   36.0230   29.2640   50.7520 C   0  0  0  0  0  0  0  0  0  0  0  0
   38.5940   31.5850   48.5310 C   0  0  2  0  0  0  0  0  0  0  0  0
   38.7260   33.0380   48.8670 C   0  0  0  0  0  0  0  0  0  0  0  0
   39.5080   33.4750   47.6100 C   0  0  0  0  0  0  0  0  0  0  0  0
   38.9500   32.7690   46.5710 O   0  0  0  0  0  0  0  0  0  0  0  0
   38.2840   31.6620   47.0820 C   0  0  1  0  0  0  0  0  0  0  0  0
   38.8230   30.4880   46.5030 O   0  0  0  0  0  0  0  0  0  0  0  0
   37.8430   31.1090   44.1130 O   0  0  0  0  0  0  0  0  0  0  0  0
   39.0550   30.6260   44.8550 P   0  0  0  0  0  0  0  0  0  0  0  0
   40.3850   31.6080   44.5600 O   0  0  0  0  0  0  0  0  0  0  0  0
   39.3730   29.0510   44.2710 O   0  0  0  0  0  0  0  0  0  0  0  0
   34.4550   29.6390   48.9650 C   0  0  0  0  0  0  0  0  0  0  0  0
   34.4330   30.2160   47.6940 C   0  0  0  0  0  0  0  0  0  0  0  0
   33.6770   29.6040   46.7130 C   0  0  0  0  0  0  0  0  0  0  0  0
   32.9740   28.4470   47.0300 N   0  0  0  0  0  0  0  0  0  0  0  0
   33.0230   27.9200   48.2780 C   0  0  0  0  0  0  0  0  0  0  0  0
   33.7540   28.5220   49.2050 N   0  0  0  0  0  0  0  0  0  0  0  0
   34.6655   30.9523   50.6139 H   0  0  0  0  0  0  0  0  0  0  0  0
   36.2140   32.2396   49.8919 H   0  0  0  0  0  0  0  0  0  0  0  0
   35.9697   31.4133   48.2881 H   0  0  0  0  0  0  0  0  0  0  0  0
   37.7624   29.7797   48.9062 H   0  0  0  0  0  0  0  0  0  0  0  0
   39.1043   30.1503   50.8427 H   0  0  0  0  0  0  0  0  0  0  0  0
   38.1634   31.6466   51.2464 H   0  0  0  0  0  0  0  0  0  0  0  0
   37.6622   28.9740   52.0757 H   0  0  0  0  0  0  0  0  0  0  0  0
   36.6727   30.4712   52.3622 H   0  0  0  0  0  0  0  0  0  0  0  0
   35.2951   28.7566   51.4022 H   0  0  0  0  0  0  0  0  0  0  0  0
   36.4793   28.5719   50.0290 H   0  0  0  0  0  0  0  0  0  0  0  0
   39.4985   31.0011   48.7567 H   0  0  0  0  0  0  0  0  0  0  0  0
   37.7496   33.5384   48.9459 H   0  0  0  0  0  0  0  0  0  0  0  0
   39.1953   33.2705   49.8343 H   0  0  0  0  0  0  0  0  0  0  0  0
   39.3970   34.5567   47.4441 H   0  0  0  0  0  0  0  0  0  0  0  0
   40.5855   33.2766   47.7082 H   0  0  0  0  0  0  0  0  0  0  0  0
   37.2060   31.7471   46.8806 H   0  0  0  0  0  0  0  0  0  0  0  0
   40.7782   31.8984   45.4209 H   0  0  0  0  0  0  0  0  0  0  0  0
   39.4975   28.4345   45.0355 H   0  0  0  0  0  0  0  0  0  0  0  0
   35.0019   31.1327   47.4795 H   0  0  0  0  0  0  0  0  0  0  0  0
   33.6319   30.0251   45.6978 H   0  0  0  0  0  0  0  0  0  0  0  0
   32.4630   27.0042   48.5182 H   0  0  0  0  0  0  0  0  0  0  0  0
  1  6  1  0
  2  3  1  0
  2  1  1  0
  3  4  1  0
  4  5  1  0
  6  5  1  0
  7  8  1  0
  7  3  1  0
  9  8  1  0
 10 11  1  0
 10  9  1  0
 11  7  1  0
 12 11  1  0
 13 14  2  0
 14 12  1  0
 15 14  1  0
 16 14  1  0
 17 22  1  0
 17  1  1  0
 18 17  2  0
 19 20  2  0
 19 18  1  0
 20 21  1  0
 21 22  2  0
  1 23  1  1
  2 24  1  0
  2 25  1  0
  3 26  1  6
  4 27  1  0
  4 28  1  0
  5 29  1  0
  5 30  1  0
  6 31  1  0
  6 32  1  0
  7 33  1  6
  8 34  1  0
  8 35  1  0
  9 36  1  0
  9 37  1  0
 11 38  1  1
 15 39  1  0
 16 40  1  0
 18 41  1  0
 19 42  1  0
 21 43  1  0
M  ISO  8  23  13  24  13  25  13  26  13  27  13  28  13  29  13  30  13
M  ISO  8  31  13  32  13  33  13  34  13  35  13  36  13  37  13  38  13
M  ISO  5  39   3  40   3  41  14  42  14  43  14
M  END
>  <minimizedAffinity>  (1) 
-6.71164608

>  <minimizedRMSD>  (1) 
0.931354165

$$$$
