
     RDKit          3D

 40 42  0  0  1  0  0  0  0  0999 V2000
   35.3460   30.3330   49.9170 C   0  0  2  0  0  0  0  0  0  0  0  0
   36.2720   31.2540   49.2140 C   0  0  0  0  0  0  0  0  0  0  0  0
   37.7240   30.7750   49.2300 C   0  0  2  0  0  0  0  0  0  0  0  0
   38.1950   30.7220   50.6610 C   0  0  0  0  0  0  0  0  0  0  0  0
   37.2230   29.9660   51.5510 C   0  0  0  0  0  0  0  0  0  0  0  0
   36.1080   29.3370   50.7660 C   0  0  0  0  0  0  0  0  0  0  0  0
   38.5750   31.5420   48.3140 C   0  0  2  0  0  0  0  0  0  0  0  0
   38.8760   32.9610   48.6900 C   0  0  0  0  0  0  0  0  0  0  0  0
   39.5400   33.3990   47.3720 C   0  0  0  0  0  0  0  0  0  0  0  0
   38.8030   32.7860   46.3760 O   0  0  0  0  0  0  0  0  0  0  0  0
   38.1010   31.7190   46.9220 C   0  0  1  0  0  0  0  0  0  0  0  0
   38.4780   30.4500   46.1470 C   0  0  0  0  0  0  0  0  0  0  0  0
   34.4930   29.5530   48.9920 C   0  0  0  0  0  0  0  0  0  0  0  0
   34.5040   29.9740   47.6610 C   0  0  0  0  0  0  0  0  0  0  0  0
   33.7460   29.2730   46.7480 C   0  0  0  0  0  0  0  0  0  0  0  0
   33.0090   28.1890   47.1810 N   0  0  0  0  0  0  0  0  0  0  0  0
   33.0170   27.8020   48.4910 C   0  0  0  0  0  0  0  0  0  0  0  0
   33.7570   28.4930   49.3550 N   0  0  0  0  0  0  0  0  0  0  0  0
   34.7107   30.9825   50.5372 H   0  0  0  0  0  0  0  0  0  0  0  0
   36.2231   32.2387   49.7018 H   0  0  0  0  0  0  0  0  0  0  0  0
   35.9536   31.2982   48.1620 H   0  0  0  0  0  0  0  0  0  0  0  0
   37.7967   29.7533   48.8290 H   0  0  0  0  0  0  0  0  0  0  0  0
   39.1727   30.2191   50.6950 H   0  0  0  0  0  0  0  0  0  0  0  0
   38.2661   31.7542   51.0344 H   0  0  0  0  0  0  0  0  0  0  0  0
   37.7717   29.1751   52.0834 H   0  0  0  0  0  0  0  0  0  0  0  0
   36.7776   30.6860   52.2533 H   0  0  0  0  0  0  0  0  0  0  0  0
   35.4056   28.8669   51.4700 H   0  0  0  0  0  0  0  0  0  0  0  0
   36.5601   28.6018   50.0841 H   0  0  0  0  0  0  0  0  0  0  0  0
   39.4412   30.8687   48.3938 H   0  0  0  0  0  0  0  0  0  0  0  0
   37.9640   33.5362   48.9078 H   0  0  0  0  0  0  0  0  0  0  0  0
   39.4760   33.1008   49.6013 H   0  0  0  0  0  0  0  0  0  0  0  0
   39.4998   34.4930   47.2643 H   0  0  0  0  0  0  0  0  0  0  0  0
   40.6022   33.1161   47.3319 H   0  0  0  0  0  0  0  0  0  0  0  0
   37.0168   31.8998   46.8800 H   0  0  0  0  0  0  0  0  0  0  0  0
   38.7173   29.6444   46.8568 H   0  0  0  0  0  0  0  0  0  0  0  0
   37.6326   30.1420   45.5143 H   0  0  0  0  0  0  0  0  0  0  0  0
   39.3545   30.6536   45.5143 H   0  0  0  0  0  0  0  0  0  0  0  0
   35.1022   30.8428   47.3490 H   0  0  0  0  0  0  0  0  0  0  0  0
   33.7285   29.5729   45.6898 H   0  0  0  0  0  0  0  0  0  0  0  0
   32.4244   26.9375   48.8248 H   0  0  0  0  0  0  0  0  0  0  0  0
  1  6  1  0
  2  3  1  0
  2  1  1  0
  3  4  1  0
  4  5  1  0
  6  5  1  0
  7  8  1  0
  7  3  1  0
  9  8  1  0
 10 11  1  0
 10  9  1  0
 11  7  1  0
 12 11  1  0
 13 18  1  0
 13  1  1  0
 14 13  2  0
 15 16  2  0
 15 14  1  0
 16 17  1  0
 17 18  2  0
  1 19  1  1
  2 20  1  0
  2 21  1  0
  3 22  1  6
  4 23  1  0
  4 24  1  0
  5 25  1  0
  5 26  1  0
  6 27  1  0
  6 28  1  0
  7 29  1  6
  8 30  1  0
  8 31  1  0
  9 32  1  0
  9 33  1  0
 11 34  1  1
 12 35  1  0
 12 36  1  0
 12 37  1  0
 14 38  1  0
 15 39  1  0
 17 40  1  0
M  ISO  8  19  13  20  13  21  13  22  13  23  13  24  13  25  13  26  13
M  ISO  8  27  13  28  13  29  13  30  13  31  13  32  13  33  13  34  13
M  ISO  6  35   8  36   8  37   8  38  14  39  14  40  14
M  END
>  <minimizedAffinity>  (1) 
-6.2910676

>  <minimizedRMSD>  (1) 
0.629888773

$$$$
