
     RDKit          3D

 39 41  0  0  1  0  0  0  0  0999 V2000
   37.3350   29.2830   50.4760 C   0  0  0  0  0  0  0  0  0  0  0  0
   36.6780   29.2100   49.2470 C   0  0  0  0  0  0  0  0  0  0  0  0
   36.1680   30.3830   48.6540 C   0  0  0  0  0  0  0  0  0  0  0  0
   36.3530   31.5410   49.3330 N   0  0  0  0  0  0  0  0  0  0  0  0
   36.9950   31.5890   50.5250 C   0  0  0  0  0  0  0  0  0  0  0  0
   37.4820   30.4720   51.0940 N   0  0  0  0  0  0  0  0  0  0  0  0
   35.5010   30.3040   47.4070 N   0  0  0  0  0  0  0  0  0  0  0  0
   34.0680   30.4400   47.4660 C   0  0  0  0  0  0  0  0  0  0  0  0
   33.3900   30.4860   46.1430 C   0  0  0  0  0  0  0  0  0  0  0  0
   34.1730   30.4480   44.9930 N   0  0  0  0  0  0  0  0  0  0  0  0
   35.4570   29.8560   44.9930 C   0  0  0  0  0  0  0  0  0  0  0  0
   36.2680   30.1030   46.2250 C   0  0  1  0  0  0  0  0  0  0  0  0
   37.2780   31.1000   46.0760 N   0  0  0  0  0  0  0  0  0  0  0  0
   37.2330   31.8030   44.8410 C   0  0  0  0  0  0  0  0  0  0  0  0
   38.4320   32.6600   44.6280 C   0  0  0  0  0  0  0  0  0  0  0  0
   39.7390   31.9360   44.8760 C   0  0  0  0  0  0  0  0  0  0  0  0
   39.6820   31.5490   46.3590 C   0  0  0  0  0  0  0  0  0  0  0  0
   38.5410   30.5760   46.4730 C   0  0  0  0  0  0  0  0  0  0  0  0
   37.7334   28.3692   50.9410 H   0  0  0  0  0  0  0  0  0  0  0  0
   36.5584   28.2400   48.7423 H   0  0  0  0  0  0  0  0  0  0  0  0
   37.1198   32.5557   51.0349 H   0  0  0  0  0  0  0  0  0  0  0  0
   33.6659   29.5833   48.0268 H   0  0  0  0  0  0  0  0  0  0  0  0
   33.8688   31.4078   47.9494 H   0  0  0  0  0  0  0  0  0  0  0  0
   32.7062   29.6255   46.0986 H   0  0  0  0  0  0  0  0  0  0  0  0
   32.9205   31.4804   46.1159 H   0  0  0  0  0  0  0  0  0  0  0  0
   33.6216   29.9461   44.2824 H   0  0  0  0  0  0  0  0  0  0  0  0
   35.3314   28.7691   44.8796 H   0  0  0  0  0  0  0  0  0  0  0  0
   36.0095   30.3213   44.1634 H   0  0  0  0  0  0  0  0  0  0  0  0
   36.7964   29.1482   46.3633 H   0  0  0  0  0  0  0  0  0  0  0  0
   37.1718   31.0721   44.0212 H   0  0  0  0  0  0  0  0  0  0  0  0
   36.3518   32.4610   44.8632 H   0  0  0  0  0  0  0  0  0  0  0  0
   38.4239   33.0192   43.5883 H   0  0  0  0  0  0  0  0  0  0  0  0
   38.3748   33.4854   45.3528 H   0  0  0  0  0  0  0  0  0  0  0  0
   39.8147   31.0402   44.2421 H   0  0  0  0  0  0  0  0  0  0  0  0
   40.6152   32.5565   44.6368 H   0  0  0  0  0  0  0  0  0  0  0  0
   40.6247   31.0750   46.6698 H   0  0  0  0  0  0  0  0  0  0  0  0
   39.5379   32.4268   47.0061 H   0  0  0  0  0  0  0  0  0  0  0  0
   38.4658   30.2557   47.5226 H   0  0  0  0  0  0  0  0  0  0  0  0
   38.7663   29.7468   45.7862 H   0  0  0  0  0  0  0  0  0  0  0  0
  1  6  2  0
  2  1  1  0
  3  2  2  0
  3  4  1  0
  4  5  2  0
  5  6  1  0
  7  8  1  0
  7  3  1  0
  9  8  1  0
 10  9  1  0
 11 10  1  0
 11 12  1  0
 12  7  1  0
 13 12  1  0
 13 18  1  0
 14 13  1  0
 15 14  1  0
 15 16  1  0
 16 17  1  0
 17 18  1  0
  1 19  1  0
  2 20  1  0
  5 21  1  0
  8 22  1  0
  8 23  1  0
  9 24  1  0
  9 25  1  0
 10 26  1  0
 11 27  1  0
 11 28  1  0
 12 29  1  1
 14 30  1  0
 14 31  1  0
 15 32  1  0
 15 33  1  0
 16 34  1  0
 16 35  1  0
 17 36  1  0
 17 37  1  0
 18 38  1  0
 18 39  1  0
M  ISO  8  19  14  20  14  21  14  22  13  23  13  24  13  25  13  26   5
M  ISO  8  27  13  28  13  29  13  30  13  31  13  32  13  33  13  34  13
M  ISO  5  35  13  36  13  37  13  38  13  39  13
M  END
>  <minimizedAffinity>  (1) 
-4.88020086

>  <minimizedRMSD>  (1) 
5.12359905

$$$$
