
     RDKit          3D

 26 27  0  0  1  0  0  0  0  0999 V2000
   37.4620   30.2000   51.1610 C   0  0  0  0  0  0  0  0  0  0  0  0
   38.2780   31.0040   50.3580 C   0  0  0  0  0  0  0  0  0  0  0  0
   37.7770   31.5480   49.1810 C   0  0  0  0  0  0  0  0  0  0  0  0
   36.4910   31.2580   48.8750 N   0  0  0  0  0  0  0  0  0  0  0  0
   35.6990   30.4850   49.6410 C   0  0  0  0  0  0  0  0  0  0  0  0
   36.1840   29.9550   50.7850 N   0  0  0  0  0  0  0  0  0  0  0  0
   38.5870   32.3720   48.3430 N   0  0  0  0  0  0  0  0  0  0  0  0
   39.0100   31.7730   47.1020 C   0  0  0  0  0  0  0  0  0  0  0  0
   39.9150   32.6060   46.2800 C   0  0  0  0  0  0  0  0  0  0  0  0
   40.0040   33.9540   46.6090 N   0  0  0  0  0  0  0  0  0  0  0  0
   39.9180   34.3870   47.9300 C   0  0  0  0  0  0  0  0  0  0  0  0
   38.9040   33.6850   48.7880 C   0  0  2  0  0  0  0  0  0  0  0  0
   39.4790   33.6410   50.1440 N   0  0  0  0  0  0  0  0  0  0  0  0
   37.8563   29.7689   52.0931 H   0  0  0  0  0  0  0  0  0  0  0  0
   39.3168   31.2058   50.6582 H   0  0  0  0  0  0  0  0  0  0  0  0
   34.6609   30.2856   49.3367 H   0  0  0  0  0  0  0  0  0  0  0  0
   39.5314   30.8334   47.3373 H   0  0  0  0  0  0  0  0  0  0  0  0
   38.0978   31.6297   46.5042 H   0  0  0  0  0  0  0  0  0  0  0  0
   39.5706   32.5408   45.2373 H   0  0  0  0  0  0  0  0  0  0  0  0
   40.9211   32.2002   46.4619 H   0  0  0  0  0  0  0  0  0  0  0  0
   40.9145   34.2803   46.2548 H   0  0  0  0  0  0  0  0  0  0  0  0
   40.9055   34.2488   48.3945 H   0  0  0  0  0  0  0  0  0  0  0  0
   39.5880   35.4350   47.8779 H   0  0  0  0  0  0  0  0  0  0  0  0
   37.9518   34.2343   48.7470 H   0  0  0  0  0  0  0  0  0  0  0  0
   38.7219   33.6989   50.8400 H   0  0  0  0  0  0  0  0  0  0  0  0
   39.9943   32.7581   50.2699 H   0  0  0  0  0  0  0  0  0  0  0  0
  2  1  2  0
  3  2  1  0
  4  3  2  0
  4  5  1  0
  5  6  2  0
  6  1  1  0
  7 12  1  0
  7  3  1  0
  8  7  1  0
  9 10  1  0
  9  8  1  0
 10 11  1  0
 11 12  1  0
 12 13  1  0
  1 14  1  0
  2 15  1  0
  5 16  1  0
  8 17  1  0
  8 18  1  0
  9 19  1  0
  9 20  1  0
 10 21  1  0
 11 22  1  0
 11 23  1  0
 12 24  1  1
 13 25  1  0
 13 26  1  0
M  ISO  8  14  14  15  14  16  14  17  13  18  13  19  13  20  13  21   5
M  ISO  5  22  13  23  13  24  13  25   5  26   5
M  END
>  <minimizedAffinity>  (1) 
-4.79870319

>  <minimizedRMSD>  (1) 
0.413481504

$$$$
