
     RDKit          3D

 15 15  0  0  0  0  0  0  0  0999 V2000
   37.2740   30.1890   51.4350 C   0  0  0  0  0  0  0  0  0  0  0  0
   38.1040   30.7150   50.4340 C   0  0  0  0  0  0  0  0  0  0  0  0
   37.8000   30.4250   49.1140 C   0  0  0  0  0  0  0  0  0  0  0  0
   36.7220   29.6490   48.8520 N   0  0  0  0  0  0  0  0  0  0  0  0
   35.9320   29.1500   49.8360 C   0  0  0  0  0  0  0  0  0  0  0  0
   36.2170   29.4250   51.1120 N   0  0  0  0  0  0  0  0  0  0  0  0
   38.6520   30.9690   48.1270 N   0  0  0  0  0  0  0  0  0  0  0  0
   34.7540   28.2970   49.4720 C   0  0  0  0  0  0  0  0  0  0  0  0
   37.4900   30.4035   52.4920 H   0  0  0  0  0  0  0  0  0  0  0  0
   38.9720   31.3403   50.6900 H   0  0  0  0  0  0  0  0  0  0  0  0
   38.4699   30.7835   47.1304 H   0  0  0  0  0  0  0  0  0  0  0  0
   39.4553   31.5511   48.4041 H   0  0  0  0  0  0  0  0  0  0  0  0
   34.2620   27.9407   50.3890 H   0  0  0  0  0  0  0  0  0  0  0  0
   34.0411   28.8897   48.8799 H   0  0  0  0  0  0  0  0  0  0  0  0
   35.0946   27.4348   48.8799 H   0  0  0  0  0  0  0  0  0  0  0  0
  2  1  2  0
  3  2  1  0
  4  3  2  0
  4  5  1  0
  5  6  2  0
  6  1  1  0
  7  3  1  0
  8  5  1  0
  1  9  1  0
  2 10  1  0
  7 11  1  0
  7 12  1  0
  8 13  1  0
  8 14  1  0
  8 15  1  0
M  ISO  5   9  14  10  14  13   8  14   8  15   8
M  END
>  <minimizedAffinity>  (1) 
-3.9869802

>  <minimizedRMSD>  (1) 
0.067363292

$$$$
