
     RDKit          3D

 40 42  0  0  1  0  0  0  0  0999 V2000
   36.2110   29.2980   43.4610 C   0  0  0  0  0  0  0  0  0  0  0  0
   37.1600   29.9900   44.2010 C   0  0  0  0  0  0  0  0  0  0  0  0
   37.2500   31.3670   44.1990 C   0  0  0  0  0  0  0  0  0  0  0  0
   36.3420   32.0010   43.4170 N   0  0  0  0  0  0  0  0  0  0  0  0
   35.4070   31.3670   42.6850 C   0  0  0  0  0  0  0  0  0  0  0  0
   35.3500   30.0010   42.7160 N   0  0  0  0  0  0  0  0  0  0  0  0
   38.2080   32.0580   44.9500 N   0  0  0  0  0  0  0  0  0  0  0  0
   39.2920   32.6460   44.2220 C   0  0  0  0  0  0  0  0  0  0  0  0
   40.3510   33.2920   45.0340 C   0  0  0  0  0  0  0  0  0  0  0  0
   40.0400   33.5790   46.3540 N   0  0  0  0  0  0  0  0  0  0  0  0
   39.2290   32.7000   47.1030 C   0  0  0  0  0  0  0  0  0  0  0  0
   38.0460   32.1400   46.3770 C   0  0  2  0  0  0  0  0  0  0  0  0
   37.7620   30.8130   47.0280 C   0  0  0  0  0  0  0  0  0  0  0  0
   36.8260   31.0600   48.1850 C   0  0  0  0  0  0  0  0  0  0  0  0
   34.8520   30.6290   46.3210 F   0  0  0  0  0  0  0  0  0  0  0  0
   34.8370   29.7770   47.3820 C   0  0  0  0  0  0  0  0  0  0  0  0
   35.8130   29.9620   48.3390 C   0  0  0  0  0  0  0  0  0  0  0  0
   35.8510   29.1160   49.4560 C   0  0  0  0  0  0  0  0  0  0  0  0
   34.9170   28.0920   49.6160 C   0  0  0  0  0  0  0  0  0  0  0  0
   33.9540   27.9490   48.6210 C   0  0  0  0  0  0  0  0  0  0  0  0
   33.9080   28.7650   47.5290 C   0  0  0  0  0  0  0  0  0  0  0  0
   36.1679   28.1991   43.4864 H   0  0  0  0  0  0  0  0  0  0  0  0
   37.8702   29.4165   44.8148 H   0  0  0  0  0  0  0  0  0  0  0  0
   34.6979   31.9403   42.0698 H   0  0  0  0  0  0  0  0  0  0  0  0
   39.7644   31.8526   43.6242 H   0  0  0  0  0  0  0  0  0  0  0  0
   38.8428   33.4546   43.6267 H   0  0  0  0  0  0  0  0  0  0  0  0
   41.2237   32.6223   45.0359 H   0  0  0  0  0  0  0  0  0  0  0  0
   40.5207   34.2698   44.5596 H   0  0  0  0  0  0  0  0  0  0  0  0
   40.9347   33.6579   46.8582 H   0  0  0  0  0  0  0  0  0  0  0  0
   39.8554   31.8575   47.4313 H   0  0  0  0  0  0  0  0  0  0  0  0
   38.8205   33.2973   47.9315 H   0  0  0  0  0  0  0  0  0  0  0  0
   37.1858   32.8198   46.4666 H   0  0  0  0  0  0  0  0  0  0  0  0
   37.2901   30.1335   46.3030 H   0  0  0  0  0  0  0  0  0  0  0  0
   38.6953   30.3493   47.3800 H   0  0  0  0  0  0  0  0  0  0  0  0
   37.4169   31.1293   49.1102 H   0  0  0  0  0  0  0  0  0  0  0  0
   36.2827   31.9956   47.9863 H   0  0  0  0  0  0  0  0  0  0  0  0
   36.6299   29.2618   50.2189 H   0  0  0  0  0  0  0  0  0  0  0  0
   34.9406   27.4260   50.4911 H   0  0  0  0  0  0  0  0  0  0  0  0
   33.2041   27.1502   48.7188 H   0  0  0  0  0  0  0  0  0  0  0  0
   33.1307   28.6172   46.7648 H   0  0  0  0  0  0  0  0  0  0  0  0
  1  2  2  0
  3  2  1  0
  3  7  1  0
  4  3  2  0
  5  6  2  0
  5  4  1  0
  6  1  1  0
  7 12  1  0
  8  7  1  0
  8  9  1  0
  9 10  1  0
 10 11  1  0
 12 13  1  0
 12 11  1  0
 13 14  1  0
 14 17  1  0
 15 16  1  0
 16 21  2  0
 16 17  1  0
 17 18  2  0
 18 19  1  0
 20 19  2  0
 21 20  1  0
  1 22  1  0
  2 23  1  0
  5 24  1  0
  8 25  1  0
  8 26  1  0
  9 27  1  0
  9 28  1  0
 10 29  1  0
 11 30  1  0
 11 31  1  0
 12 32  1  6
 13 33  1  0
 13 34  1  0
 14 35  1  0
 14 36  1  0
 18 37  1  0
 19 38  1  0
 20 39  1  0
 21 40  1  0
M  ISO  8  22  14  23  14  24  14  25  13  26  13  27  13  28  13  29   5
M  ISO  8  30  13  31  13  32  13  33   8  34   8  35   8  36   8  37  14
M  ISO  3  38  14  39  14  40  14
M  END
>  <minimizedAffinity>  (1) 
-5.73139477

>  <minimizedRMSD>  (1) 
6.69185591

$$$$
