
     RDKit          3D

 33 35  0  0  1  0  0  0  0  0999 V2000
   36.3650   32.0220   50.5820 Cl  0  0  0  0  0  0  0  0  0  0  0  0
   37.3850   32.1450   49.1670 C   0  0  0  0  0  0  0  0  0  0  0  0
   37.2150   31.2830   48.0980 C   0  0  0  0  0  0  0  0  0  0  0  0
   38.0530   31.4330   47.0140 C   0  0  0  0  0  0  0  0  0  0  0  0
   39.0310   32.4100   46.9870 C   0  0  0  0  0  0  0  0  0  0  0  0
   39.1690   33.2580   48.0820 C   0  0  0  0  0  0  0  0  0  0  0  0
   40.4270   34.4650   47.9710 Cl  0  0  0  0  0  0  0  0  0  0  0  0
   38.3500   33.1320   49.1770 C   0  0  0  0  0  0  0  0  0  0  0  0
   35.2120   28.2780   49.2540 C   0  0  0  0  0  0  0  0  0  0  0  0
   36.2340   29.2370   49.1520 C   0  0  0  0  0  0  0  0  0  0  0  0
   36.1510   30.2740   48.2100 C   0  0  0  0  0  0  0  0  0  0  0  0
   35.0510   30.3040   47.4120 N   0  0  0  0  0  0  0  0  0  0  0  0
   34.0880   29.3690   47.5340 C   0  0  0  0  0  0  0  0  0  0  0  0
   34.1590   28.3850   48.4230 N   0  0  0  0  0  0  0  0  0  0  0  0
   40.2500   31.1330   45.3430 C   0  0  1  0  0  0  0  0  0  0  0  0
   39.9190   32.5390   45.7890 C   0  0  1  0  0  0  0  0  0  0  0  0
   39.2920   33.1880   44.7430 O   0  0  0  0  0  0  0  0  0  0  0  0
   39.3660   32.4100   43.6080 C   0  0  0  0  0  0  0  0  0  0  0  0
   40.4320   31.3710   43.8400 C   0  0  2  0  0  0  0  0  0  0  0  0
   41.4240   30.6580   45.9180 O   0  0  0  0  0  0  0  0  0  0  0  0
   40.1930   30.2010   43.1240 O   0  0  0  0  0  0  0  0  0  0  0  0
   37.9412   30.7603   46.1509 H   0  0  0  0  0  0  0  0  0  0  0  0
   38.4604   33.8022   50.0423 H   0  0  0  0  0  0  0  0  0  0  0  0
   35.2710   27.4639   49.9914 H   0  0  0  0  0  0  0  0  0  0  0  0
   37.1079   29.1743   49.8172 H   0  0  0  0  0  0  0  0  0  0  0  0
   33.2107   29.4229   46.8727 H   0  0  0  0  0  0  0  0  0  0  0  0
   39.4970   30.3800   45.6186 H   0  0  0  0  0  0  0  0  0  0  0  0
   40.8089   33.1262   46.0596 H   0  0  0  0  0  0  0  0  0  0  0  0
   39.6317   33.0337   42.7418 H   0  0  0  0  0  0  0  0  0  0  0  0
   38.3970   31.9317   43.4022 H   0  0  0  0  0  0  0  0  0  0  0  0
   41.4395   31.6799   43.5245 H   0  0  0  0  0  0  0  0  0  0  0  0
   41.3448   30.6900   46.9043 H   0  0  0  0  0  0  0  0  0  0  0  0
   40.0403   29.4534   43.7548 H   0  0  0  0  0  0  0  0  0  0  0  0
  2  8  2  0
  2  1  1  0
  3 11  1  0
  3  2  1  0
  4  3  2  0
  5  4  1  0
  5  6  2  0
  6  8  1  0
  7  6  1  0
 10  9  2  0
 11 10  1  0
 12 13  1  0
 12 11  2  0
 13 14  2  0
 14  9  1  0
 15 16  1  0
 15 20  1  0
 16  5  1  0
 17 16  1  0
 18 19  1  0
 18 17  1  0
 19 21  1  0
 19 15  1  0
  4 22  1  0
  8 23  1  0
  9 24  1  0
 10 25  1  0
 13 26  1  0
 15 27  1  6
 16 28  1  1
 18 29  1  0
 18 30  1  0
 19 31  1  1
 20 32  1  0
 21 33  1  0
M  ISO  8  22  14  23  14  24  14  25  14  26  14  27  13  28  13  29  13
M  ISO  4  30  13  31  13  32   3  33   3
M  END
>  <minimizedAffinity>  (1) 
-7.10139847

>  <minimizedRMSD>  (1) 
2.45323038

$$$$
