
     RDKit          3D

 27 29  0  0  0  0  0  0  0  0999 V2000
   38.0000   33.3550   49.5950 Cl  0  0  0  0  0  0  0  0  0  0  0  0
   38.4730   32.4950   48.1510 C   0  0  0  0  0  0  0  0  0  0  0  0
   38.0720   31.1800   47.9560 C   0  0  0  0  0  0  0  0  0  0  0  0
   38.4850   30.5780   46.7970 C   0  0  0  0  0  0  0  0  0  0  0  0
   39.2580   31.2100   45.8520 C   0  0  0  0  0  0  0  0  0  0  0  0
   39.6350   32.5260   46.0900 C   0  0  0  0  0  0  0  0  0  0  0  0
   40.6150   33.3010   44.8700 Cl  0  0  0  0  0  0  0  0  0  0  0  0
   39.2470   33.1890   47.2470 C   0  0  0  0  0  0  0  0  0  0  0  0
   37.0080   29.3600   51.0970 C   0  0  0  0  0  0  0  0  0  0  0  0
   37.7950   29.9490   50.1040 C   0  0  0  0  0  0  0  0  0  0  0  0
   37.2570   30.5670   48.9890 C   0  0  0  0  0  0  0  0  0  0  0  0
   35.8920   30.5640   48.9160 N   0  0  0  0  0  0  0  0  0  0  0  0
   35.1430   29.9930   49.8800 C   0  0  0  0  0  0  0  0  0  0  0  0
   35.6850   29.4070   50.9410 N   0  0  0  0  0  0  0  0  0  0  0  0
   39.6750   30.5320   44.6310 C   0  0  0  0  0  0  0  0  0  0  0  0
   39.0760   29.4030   44.1210 C   0  0  0  0  0  0  0  0  0  0  0  0
   39.7320   29.0540   42.9750 N   0  0  0  0  0  0  0  0  0  0  0  0
   40.7310   29.9640   42.7790 C   0  0  0  0  0  0  0  0  0  0  0  0
   40.6820   30.8630   43.8050 N   0  0  0  0  0  0  0  0  0  0  0  0
   38.1829   29.5364   46.6131 H   0  0  0  0  0  0  0  0  0  0  0  0
   39.5468   34.2306   47.4348 H   0  0  0  0  0  0  0  0  0  0  0  0
   37.4628   28.8760   51.9739 H   0  0  0  0  0  0  0  0  0  0  0  0
   38.8892   29.9202   50.2133 H   0  0  0  0  0  0  0  0  0  0  0  0
   34.0473   30.0131   49.7847 H   0  0  0  0  0  0  0  0  0  0  0  0
   38.2177   28.8734   44.5601 H   0  0  0  0  0  0  0  0  0  0  0  0
   39.5130   28.2505   42.3689 H   0  0  0  0  0  0  0  0  0  0  0  0
   41.4470   29.9713   41.9439 H   0  0  0  0  0  0  0  0  0  0  0  0
  2  1  1  0
  3  2  2  0
  3 11  1  0
  4  3  1  0
  5  6  1  0
  5  4  2  0
  6  8  2  0
  7  6  1  0
  8  2  1  0
 10  9  2  0
 11 10  1  0
 12 11  2  0
 12 13  1  0
 13 14  2  0
 14  9  1  0
 15  5  1  0
 16 15  2  0
 17 16  1  0
 18 17  1  0
 18 19  2  0
 19 15  1  0
  4 20  1  0
  8 21  1  0
  9 22  1  0
 10 23  1  0
 13 24  1  0
 16 25  1  0
 17 26  1  0
 18 27  1  0
M  ISO  8  20  14  21  14  22  14  23  14  24  14  25  14  26   9  27  14
M  END
>  <minimizedAffinity>  (1) 
-6.44071388

>  <minimizedRMSD>  (1) 
0.384078234

$$$$
