
     RDKit          3D

 33 35  0  0  0  0  0  0  0  0999 V2000
   38.2790   33.2610   49.7320 Cl  0  0  0  0  0  0  0  0  0  0  0  0
   38.5270   32.4350   48.2290 C   0  0  0  0  0  0  0  0  0  0  0  0
   38.0240   31.1550   48.0330 C   0  0  0  0  0  0  0  0  0  0  0  0
   38.2550   30.5560   46.8230 C   0  0  0  0  0  0  0  0  0  0  0  0
   38.9510   31.1500   45.8030 C   0  0  0  0  0  0  0  0  0  0  0  0
   39.4470   32.4470   46.0350 C   0  0  0  0  0  0  0  0  0  0  0  0
   40.3410   33.2240   44.7440 Cl  0  0  0  0  0  0  0  0  0  0  0  0
   39.2420   33.0960   47.2410 C   0  0  0  0  0  0  0  0  0  0  0  0
   37.2120   29.4280   51.3040 C   0  0  0  0  0  0  0  0  0  0  0  0
   37.9330   30.0030   50.2490 C   0  0  0  0  0  0  0  0  0  0  0  0
   37.2890   30.5540   49.1360 C   0  0  0  0  0  0  0  0  0  0  0  0
   35.9340   30.4900   49.1560 N   0  0  0  0  0  0  0  0  0  0  0  0
   35.2540   29.9390   50.1690 C   0  0  0  0  0  0  0  0  0  0  0  0
   35.8820   29.4130   51.2300 N   0  0  0  0  0  0  0  0  0  0  0  0
   39.2050   30.5160   44.4960 C   0  0  0  0  0  0  0  0  0  0  0  0
   40.6080   30.7860   43.9950 C   0  0  0  0  0  0  0  0  0  0  0  0
   40.4970   30.8790   42.4980 C   0  0  0  0  0  0  0  0  0  0  0  0
   39.0680   31.1780   42.1610 C   0  0  0  0  0  0  0  0  0  0  0  0
   38.2600   30.9030   43.4110 C   0  0  0  0  0  0  0  0  0  0  0  0
   37.8600   29.5422   46.6612 H   0  0  0  0  0  0  0  0  0  0  0  0
   39.6357   34.1089   47.4110 H   0  0  0  0  0  0  0  0  0  0  0  0
   37.7322   28.9990   52.1731 H   0  0  0  0  0  0  0  0  0  0  0  0
   39.0318   30.0216   50.2971 H   0  0  0  0  0  0  0  0  0  0  0  0
   34.1549   29.9174   50.1298 H   0  0  0  0  0  0  0  0  0  0  0  0
   39.0570   29.4470   44.7088 H   0  0  0  0  0  0  0  0  0  0  0  0
   40.9880   31.7310   44.4105 H   0  0  0  0  0  0  0  0  0  0  0  0
   41.3069   29.9936   44.3010 H   0  0  0  0  0  0  0  0  0  0  0  0
   41.1458   31.6848   42.1243 H   0  0  0  0  0  0  0  0  0  0  0  0
   40.8119   29.9344   42.0305 H   0  0  0  0  0  0  0  0  0  0  0  0
   38.9609   32.2318   41.8645 H   0  0  0  0  0  0  0  0  0  0  0  0
   38.7213   30.5579   41.3212 H   0  0  0  0  0  0  0  0  0  0  0  0
   37.7062   31.8072   43.7036 H   0  0  0  0  0  0  0  0  0  0  0  0
   37.5374   30.0941   43.2279 H   0  0  0  0  0  0  0  0  0  0  0  0
  2  1  1  0
  3  2  2  0
  3 11  1  0
  4  3  1  0
  5  6  1  0
  5  4  2  0
  6  8  2  0
  7  6  1  0
  8  2  1  0
 10  9  2  0
 11 12  2  0
 11 10  1  0
 12 13  1  0
 13 14  2  0
 14  9  1  0
 15  5  1  0
 16 15  1  0
 17 16  1  0
 18 17  1  0
 18 19  1  0
 19 15  1  0
  4 20  1  0
  8 21  1  0
  9 22  1  0
 10 23  1  0
 13 24  1  0
 15 25  1  0
 16 26  1  0
 16 27  1  0
 17 28  1  0
 17 29  1  0
 18 30  1  0
 18 31  1  0
 19 32  1  0
 19 33  1  0
M  ISO  8  20  14  21  14  22  14  23  14  24  14  25  13  26  13  27  13
M  ISO  6  28  13  29  13  30  13  31  13  32  13  33  13
M  END
>  <minimizedAffinity>  (1) 
-6.29701471

>  <minimizedRMSD>  (1) 
0.410157353

$$$$
