
     RDKit          3D

 24 25  0  0  0  0  0  0  0  0999 V2000
   37.9630   33.3380   49.4720 Cl  0  0  0  0  0  0  0  0  0  0  0  0
   38.4760   32.3870   48.1000 C   0  0  0  0  0  0  0  0  0  0  0  0
   38.0650   31.0770   47.9700 C   0  0  0  0  0  0  0  0  0  0  0  0
   38.5100   30.3800   46.8560 C   0  0  0  0  0  0  0  0  0  0  0  0
   39.3310   30.9670   45.9090 C   0  0  0  0  0  0  0  0  0  0  0  0
   39.7140   32.2910   46.0900 C   0  0  0  0  0  0  0  0  0  0  0  0
   40.7500   32.9570   44.8510 Cl  0  0  0  0  0  0  0  0  0  0  0  0
   39.2940   33.0090   47.1780 C   0  0  0  0  0  0  0  0  0  0  0  0
   36.8510   29.4230   51.1440 C   0  0  0  0  0  0  0  0  0  0  0  0
   37.7130   29.9430   50.1610 C   0  0  0  0  0  0  0  0  0  0  0  0
   37.2030   30.5300   49.0050 C   0  0  0  0  0  0  0  0  0  0  0  0
   35.8470   30.5580   48.9070 N   0  0  0  0  0  0  0  0  0  0  0  0
   35.0390   30.0580   49.8520 C   0  0  0  0  0  0  0  0  0  0  0  0
   35.5300   29.5000   50.9520 N   0  0  0  0  0  0  0  0  0  0  0  0
   38.9910   29.5180   43.7460 C   0  0  0  0  0  0  0  0  0  0  0  0
   37.7660   29.6600   43.5160 O   0  0  0  0  0  0  0  0  0  0  0  0
   39.6930   30.1120   44.8310 N   0  0  0  0  0  0  0  0  0  0  0  0
   38.2020   29.3326   46.7218 H   0  0  0  0  0  0  0  0  0  0  0  0
   39.6011   34.0565   47.3140 H   0  0  0  0  0  0  0  0  0  0  0  0
   37.2573   28.9606   52.0557 H   0  0  0  0  0  0  0  0  0  0  0  0
   38.8018   29.8854   50.3069 H   0  0  0  0  0  0  0  0  0  0  0  0
   33.9490   30.1109   49.7137 H   0  0  0  0  0  0  0  0  0  0  0  0
   39.5669   28.8850   43.0549 H   0  0  0  0  0  0  0  0  0  0  0  0
   40.6934   29.8668   44.8379 H   0  0  0  0  0  0  0  0  0  0  0  0
  2  1  1  0
  3  2  2  0
  3 11  1  0
  4  3  1  0
  5  6  1  0
  5  4  2  0
  6  8  2  0
  7  6  1  0
  8  2  1  0
 10  9  2  0
 11 10  1  0
 12 11  2  0
 12 13  1  0
 13 14  2  0
 14  9  1  0
 15 17  1  0
 16 15  2  0
 17  5  1  0
  4 18  1  0
  8 19  1  0
  9 20  1  0
 10 21  1  0
 13 22  1  0
 15 23  1  0
 17 24  1  0
M  ISO  6  18  14  19  14  20  14  21  14  22  14  23   6
M  END
>  <minimizedAffinity>  (1) 
-5.89322853

>  <minimizedRMSD>  (1) 
0.598300934

$$$$
