
     RDKit          3D

 22 23  0  0  0  0  0  0  0  0999 V2000
   38.1060   33.2930   49.5750 Cl  0  0  0  0  0  0  0  0  0  0  0  0
   38.4980   32.4170   48.1290 C   0  0  0  0  0  0  0  0  0  0  0  0
   38.0230   31.1260   47.9330 C   0  0  0  0  0  0  0  0  0  0  0  0
   38.3840   30.5030   46.7540 C   0  0  0  0  0  0  0  0  0  0  0  0
   39.1700   31.0900   45.7970 C   0  0  0  0  0  0  0  0  0  0  0  0
   39.6250   32.3990   46.0470 C   0  0  0  0  0  0  0  0  0  0  0  0
   40.6240   33.1150   44.8010 Cl  0  0  0  0  0  0  0  0  0  0  0  0
   39.2960   33.0660   47.2020 C   0  0  0  0  0  0  0  0  0  0  0  0
   36.9550   29.3840   51.1110 C   0  0  0  0  0  0  0  0  0  0  0  0
   37.7620   29.9380   50.1050 C   0  0  0  0  0  0  0  0  0  0  0  0
   37.1960   30.5510   48.9790 C   0  0  0  0  0  0  0  0  0  0  0  0
   35.8480   30.5730   48.9240 N   0  0  0  0  0  0  0  0  0  0  0  0
   35.0850   30.0390   49.8940 C   0  0  0  0  0  0  0  0  0  0  0  0
   35.6320   29.4520   50.9720 N   0  0  0  0  0  0  0  0  0  0  0  0
   39.5040   30.3610   44.5780 C   0  0  0  0  0  0  0  0  0  0  0  0
   38.9650   29.2390   44.3000 O   0  0  0  0  0  0  0  0  0  0  0  0
   38.0209   29.4804   46.5736 H   0  0  0  0  0  0  0  0  0  0  0  0
   39.6570   34.0887   47.3856 H   0  0  0  0  0  0  0  0  0  0  0  0
   37.4045   28.9050   51.9933 H   0  0  0  0  0  0  0  0  0  0  0  0
   38.8567   29.8902   50.2020 H   0  0  0  0  0  0  0  0  0  0  0  0
   33.9897   30.0836   49.8031 H   0  0  0  0  0  0  0  0  0  0  0  0
   40.2392   30.7899   43.8812 H   0  0  0  0  0  0  0  0  0  0  0  0
  2  1  1  0
  3  2  2  0
  3 11  1  0
  4  3  1  0
  5  6  1  0
  5  4  2  0
  6  8  2  0
  7  6  1  0
  8  2  1  0
 10  9  2  0
 11 10  1  0
 12 11  2  0
 12 13  1  0
 13 14  2  0
 14  9  1  0
 15  5  1  0
 16 15  2  0
  4 17  1  0
  8 18  1  0
  9 19  1  0
 10 20  1  0
 13 21  1  0
 15 22  1  0
M  ISO  6  17  14  18  14  19  14  20  14  21  14  22   6
M  END
>  <minimizedAffinity>  (1) 
-5.65163612

>  <minimizedRMSD>  (1) 
0.147879228

$$$$
