
     RDKit          3D

 25 26  0  0  0  0  0  0  0  0999 V2000
   34.0410   28.9700   48.5530 C   0  0  0  0  0  0  0  0  0  0  0  0
   34.7880   29.0900   47.4110 C   0  0  0  0  0  0  0  0  0  0  0  0
   34.3170   28.3960   46.2980 C   0  0  0  0  0  0  0  0  0  0  0  0
   33.1920   27.6300   46.2790 C   0  0  0  0  0  0  0  0  0  0  0  0
   32.4600   27.5230   47.4270 C   0  0  0  0  0  0  0  0  0  0  0  0
   32.8910   28.1910   48.5480 C   0  0  0  0  0  0  0  0  0  0  0  0
   38.0290   30.5290   48.3330 C   0  0  0  0  0  0  0  0  0  0  0  0
   38.3310   31.3730   47.2540 C   0  0  0  0  0  0  0  0  0  0  0  0
   37.4010   31.4250   46.2270 C   0  0  0  0  0  0  0  0  0  0  0  0
   36.2700   30.6880   46.2920 N   0  0  0  0  0  0  0  0  0  0  0  0
   36.0080   29.8880   47.3390 C   0  0  0  0  0  0  0  0  0  0  0  0
   36.8860   29.8160   48.3450 N   0  0  0  0  0  0  0  0  0  0  0  0
   37.7200   32.2850   45.1420 N   0  0  0  0  0  0  0  0  0  0  0  0
   34.5220   29.7830   50.0050 S   0  0  0  0  0  0  0  0  0  0  0  0
   34.5210   31.2690   49.7700 O   0  0  0  0  0  0  0  0  0  0  0  0
   33.5080   29.5180   51.1030 O   0  0  0  0  0  0  0  0  0  0  0  0
   34.8970   28.4729   45.3665 H   0  0  0  0  0  0  0  0  0  0  0  0
   32.8800   27.1098   45.3614 H   0  0  0  0  0  0  0  0  0  0  0  0
   31.5440   26.9145   47.4538 H   0  0  0  0  0  0  0  0  0  0  0  0
   32.3042   28.1057   49.4745 H   0  0  0  0  0  0  0  0  0  0  0  0
   38.7310   30.4487   49.1760 H   0  0  0  0  0  0  0  0  0  0  0  0
   39.2585   31.9636   47.2242 H   0  0  0  0  0  0  0  0  0  0  0  0
   38.5993   32.8214   45.1513 H   0  0  0  0  0  0  0  0  0  0  0  0
   37.0720   32.3721   44.3461 H   0  0  0  0  0  0  0  0  0  0  0  0
   35.7654   29.3313   50.3611 H   0  0  0  0  0  0  0  0  0  0  0  0
  1 14  1  0
  2  1  2  0
  3  2  1  0
  4  3  2  0
  4  5  1  0
  5  6  2  0
  6  1  1  0
  7 12  2  0
  8  7  1  0
  9 10  1  0
  9  8  2  0
 10 11  2  0
 11  2  1  0
 11 12  1  0
 13  9  1  0
 14 16  2  0
 15 14  2  0
  3 17  1  0
  4 18  1  0
  5 19  1  0
  6 20  1  0
  7 21  1  0
  8 22  1  0
 13 23  1  0
 13 24  1  0
 14 25  1  0
M  ISO  7  17  14  18  14  19  14  20  14  21  14  22  14  25  11
M  END
>  <minimizedAffinity>  (1) 
-3.34815073

>  <minimizedRMSD>  (1) 
2.60191083

$$$$
