
     RDKit          3D

 32 34  0  0  0  0  0  0  0  0999 V2000
   38.6620   32.9610   49.7420 Cl  0  0  0  0  0  0  0  0  0  0  0  0
   38.6360   32.2920   48.1300 C   0  0  0  0  0  0  0  0  0  0  0  0
   37.8930   31.1640   47.8540 C   0  0  0  0  0  0  0  0  0  0  0  0
   37.9180   30.6920   46.5650 C   0  0  0  0  0  0  0  0  0  0  0  0
   38.6320   31.2800   45.5580 C   0  0  0  0  0  0  0  0  0  0  0  0
   39.3720   32.4250   45.8820 C   0  0  0  0  0  0  0  0  0  0  0  0
   40.2770   33.1570   44.5770 Cl  0  0  0  0  0  0  0  0  0  0  0  0
   39.3780   32.9330   47.1610 C   0  0  0  0  0  0  0  0  0  0  0  0
   36.8430   32.5610   43.4590 Cl  0  0  0  0  0  0  0  0  0  0  0  0
   37.8190   31.1020   43.1740 C   0  0  0  0  0  0  0  0  0  0  0  0
   38.5640   30.6720   44.2440 C   0  0  0  0  0  0  0  0  0  0  0  0
   39.3560   29.5330   44.0960 C   0  0  0  0  0  0  0  0  0  0  0  0
   39.3970   28.8400   42.8950 C   0  0  0  0  0  0  0  0  0  0  0  0
   38.6240   29.3170   41.8410 C   0  0  0  0  0  0  0  0  0  0  0  0
   37.8390   30.4400   41.9770 C   0  0  0  0  0  0  0  0  0  0  0  0
   37.0340   30.9340   40.8800 C   0  0  0  0  0  0  0  0  0  0  0  0
   35.8320   30.5590   40.7820 O   0  0  0  0  0  0  0  0  0  0  0  0
   37.0490   29.3610   51.0730 C   0  0  0  0  0  0  0  0  0  0  0  0
   37.7750   29.9260   50.0250 C   0  0  0  0  0  0  0  0  0  0  0  0
   37.1400   30.5630   48.9630 C   0  0  0  0  0  0  0  0  0  0  0  0
   35.7820   30.6040   49.0040 N   0  0  0  0  0  0  0  0  0  0  0  0
   35.0950   30.0530   50.0240 C   0  0  0  0  0  0  0  0  0  0  0  0
   35.7130   29.4400   51.0410 N   0  0  0  0  0  0  0  0  0  0  0  0
   37.3316   29.7916   46.3295 H   0  0  0  0  0  0  0  0  0  0  0  0
   39.9629   33.8321   47.4051 H   0  0  0  0  0  0  0  0  0  0  0  0
   39.9579   29.1786   44.9458 H   0  0  0  0  0  0  0  0  0  0  0  0
   40.0211   27.9415   42.7795 H   0  0  0  0  0  0  0  0  0  0  0  0
   38.6404   28.7854   40.8781 H   0  0  0  0  0  0  0  0  0  0  0  0
   37.4635   31.6269   40.1415 H   0  0  0  0  0  0  0  0  0  0  0  0
   37.5627   28.8614   51.9076 H   0  0  0  0  0  0  0  0  0  0  0  0
   38.8733   29.8669   50.0380 H   0  0  0  0  0  0  0  0  0  0  0  0
   33.9964   30.1085   50.0208 H   0  0  0  0  0  0  0  0  0  0  0  0
  2  1  1  0
  3  2  2  0
  3 20  1  0
  4  3  1  0
  5  6  1  0
  5  4  2  0
  6  8  2  0
  7  6  1  0
  8  2  1  0
 10  9  1  0
 10 11  2  0
 11  5  1  0
 12 11  1  0
 13 12  2  0
 14 15  2  0
 14 13  1  0
 15 10  1  0
 16 15  1  0
 17 16  2  0
 19 18  2  0
 20 21  2  0
 20 19  1  0
 21 22  1  0
 22 23  2  0
 23 18  1  0
  4 24  1  0
  8 25  1  0
 12 26  1  0
 13 27  1  0
 14 28  1  0
 16 29  1  0
 18 30  1  0
 19 31  1  0
 22 32  1  0
M  ISO  8  24  14  25  14  26  14  27  14  28  14  29   6  30  14  31  14
M  ISO  1  32  14
M  END
>  <minimizedAffinity>  (1) 
-6.20688963

>  <minimizedRMSD>  (1) 
0.260240376

$$$$
