
     RDKit          3D

 39 41  0  0  1  0  0  0  0  0999 V2000
   35.4800   30.5240   47.7880 N   0  0  0  0  0  0  0  0  0  0  0  0
   34.4730   30.6310   48.7740 C   0  0  0  0  0  0  0  0  0  0  0  0
   34.9830   30.3080   50.1350 C   0  0  0  0  0  0  0  0  0  0  0  0
   35.6970   28.9570   50.0240 C   0  0  0  0  0  0  0  0  0  0  0  0
   36.9740   29.2460   49.3230 C   0  0  0  0  0  0  0  0  0  0  0  0
   36.8040   30.2640   48.2720 C   0  0  2  0  0  0  0  0  0  0  0  0
   38.5870   31.8270   47.4920 C   0  0  0  0  0  0  0  0  0  0  0  0
   37.6300   31.4880   48.4630 C   0  0  0  0  0  0  0  0  0  0  0  0
   37.5950   32.4090   49.4880 C   0  0  0  0  0  0  0  0  0  0  0  0
   38.4030   33.5170   49.5450 C   0  0  0  0  0  0  0  0  0  0  0  0
   39.3150   33.7690   48.5460 C   0  0  0  0  0  0  0  0  0  0  0  0
   39.4310   32.9170   47.4770 C   0  0  0  0  0  0  0  0  0  0  0  0
   38.8120   30.2030   45.4320 N   0  0  0  0  0  0  0  0  0  0  0  0
   38.7080   30.9210   46.3610 C   0  0  0  0  0  0  0  0  0  0  0  0
   35.1340   29.8000   46.6120 C   0  0  0  0  0  0  0  0  0  0  0  0
   33.6830   29.5580   46.5360 C   0  0  0  0  0  0  0  0  0  0  0  0
   32.8920   30.4990   45.8580 C   0  0  0  0  0  0  0  0  0  0  0  0
   31.5070   30.3000   45.7700 C   0  0  0  0  0  0  0  0  0  0  0  0
   30.9970   29.1800   46.3600 N   0  0  0  0  0  0  0  0  0  0  0  0
   31.7660   28.2840   47.0070 C   0  0  0  0  0  0  0  0  0  0  0  0
   33.0960   28.4850   47.0860 N   0  0  0  0  0  0  0  0  0  0  0  0
   34.0865   31.6609   48.7755 H   0  0  0  0  0  0  0  0  0  0  0  0
   33.6817   29.9073   48.5290 H   0  0  0  0  0  0  0  0  0  0  0  0
   35.6874   31.0834   50.4706 H   0  0  0  0  0  0  0  0  0  0  0  0
   34.1628   30.2650   50.8668 H   0  0  0  0  0  0  0  0  0  0  0  0
   35.8916   28.5406   51.0234 H   0  0  0  0  0  0  0  0  0  0  0  0
   35.0906   28.2155   49.4832 H   0  0  0  0  0  0  0  0  0  0  0  0
   37.7080   29.6110   50.0566 H   0  0  0  0  0  0  0  0  0  0  0  0
   37.3195   28.3170   48.8459 H   0  0  0  0  0  0  0  0  0  0  0  0
   37.2363   29.7313   47.4122 H   0  0  0  0  0  0  0  0  0  0  0  0
   36.8787   32.2467   50.3069 H   0  0  0  0  0  0  0  0  0  0  0  0
   38.3208   34.2090   50.3961 H   0  0  0  0  0  0  0  0  0  0  0  0
   39.9563   34.6608   48.6050 H   0  0  0  0  0  0  0  0  0  0  0  0
   40.1493   33.0918   46.6625 H   0  0  0  0  0  0  0  0  0  0  0  0
   35.4467   30.3790   45.7305 H   0  0  0  0  0  0  0  0  0  0  0  0
   35.6457   28.8267   46.6421 H   0  0  0  0  0  0  0  0  0  0  0  0
   33.3551   31.3852   45.3995 H   0  0  0  0  0  0  0  0  0  0  0  0
   30.8578   31.0174   45.2467 H   0  0  0  0  0  0  0  0  0  0  0  0
   31.3118   27.3944   47.4677 H   0  0  0  0  0  0  0  0  0  0  0  0
  1  6  1  0
  1  2  1  0
  2  3  1  0
  4  3  1  0
  5  4  1  0
  6  8  1  0
  6  5  1  0
  7  8  2  0
  8  9  1  0
  9 10  2  0
 11 10  1  0
 12  7  1  0
 12 11  2  0
 13 14  3  0
 14  7  1  0
 15  1  1  0
 16 15  1  0
 16 21  1  0
 17 16  2  0
 18 17  1  0
 18 19  2  0
 19 20  1  0
 20 21  2  0
  2 22  1  0
  2 23  1  0
  3 24  1  0
  3 25  1  0
  4 26  1  0
  4 27  1  0
  5 28  1  0
  5 29  1  0
  6 30  1  6
  9 31  1  0
 10 32  1  0
 11 33  1  0
 12 34  1  0
 15 35  1  0
 15 36  1  0
 17 37  1  0
 18 38  1  0
 20 39  1  0
M  ISO  8  22  13  23  13  24  13  25  13  26  13  27  13  28  13  29  13
M  ISO  8  30  13  31  14  32  14  33  14  34  14  35   8  36   8  37  14
M  ISO  2  38  14  39  14
M  END
>  <minimizedAffinity>  (1) 
-5.73901463

>  <minimizedRMSD>  (1) 
2.81279135

$$$$
