
     RDKit          3D

 43 45  0  0  1  0  0  0  0  0999 V2000
   34.7060   29.4850   48.0270 N   0  0  0  0  0  0  0  0  0  0  0  0
   34.5740   30.1580   49.3060 C   0  0  0  0  0  0  0  0  0  0  0  0
   35.6210   31.2240   49.4610 C   0  0  0  0  0  0  0  0  0  0  0  0
   36.9450   30.6390   49.0270 C   0  0  0  0  0  0  0  0  0  0  0  0
   36.9200   30.4510   47.5450 C   0  0  0  0  0  0  0  0  0  0  0  0
   35.4880   30.2040   47.1190 C   0  0  1  0  0  0  0  0  0  0  0  0
   34.0510   30.1220   45.0720 C   0  0  0  0  0  0  0  0  0  0  0  0
   35.2980   29.9210   45.6980 C   0  0  0  0  0  0  0  0  0  0  0  0
   36.2150   29.4540   44.8080 C   0  0  0  0  0  0  0  0  0  0  0  0
   36.0070   29.1990   43.4720 C   0  0  0  0  0  0  0  0  0  0  0  0
   34.7640   29.4150   42.9170 C   0  0  0  0  0  0  0  0  0  0  0  0
   33.7760   29.8850   43.7370 C   0  0  0  0  0  0  0  0  0  0  0  0
   32.4710   31.5840   46.5350 N   0  0  0  0  0  0  0  0  0  0  0  0
   32.8970   30.6310   45.7860 C   0  0  0  0  0  0  0  0  0  0  0  0
   31.6270   29.9500   45.7870 N   0  0  0  0  0  0  0  0  0  0  0  0
   31.4970   31.6260   46.8920 H   0  0  0  0  0  0  0  0  0  0  0  0
   34.6330   28.1000   48.0930 C   0  0  0  0  0  0  0  0  0  0  0  0
   33.3080   27.5760   47.7320 C   0  0  0  0  0  0  0  0  0  0  0  0
   32.2810   27.7020   48.6820 C   0  0  0  0  0  0  0  0  0  0  0  0
   31.0070   27.1970   48.3870 C   0  0  0  0  0  0  0  0  0  0  0  0
   30.8240   26.6000   47.1810 N   0  0  0  0  0  0  0  0  0  0  0  0
   31.8150   26.4860   46.2810 C   0  0  0  0  0  0  0  0  0  0  0  0
   33.0380   26.9740   46.5690 N   0  0  0  0  0  0  0  0  0  0  0  0
   33.5776   30.6199   49.3689 H   0  0  0  0  0  0  0  0  0  0  0  0
   34.7052   29.4171   50.1084 H   0  0  0  0  0  0  0  0  0  0  0  0
   35.3698   32.0895   48.8303 H   0  0  0  0  0  0  0  0  0  0  0  0
   35.6744   31.5604   50.5069 H   0  0  0  0  0  0  0  0  0  0  0  0
   37.7605   31.3249   49.2999 H   0  0  0  0  0  0  0  0  0  0  0  0
   37.1105   29.6726   49.5257 H   0  0  0  0  0  0  0  0  0  0  0  0
   37.3045   31.3546   47.0493 H   0  0  0  0  0  0  0  0  0  0  0  0
   37.5516   29.5961   47.2616 H   0  0  0  0  0  0  0  0  0  0  0  0
   35.0214   31.1973   47.1944 H   0  0  0  0  0  0  0  0  0  0  0  0
   37.2259   29.2605   45.1961 H   0  0  0  0  0  0  0  0  0  0  0  0
   36.8313   28.8234   42.8479 H   0  0  0  0  0  0  0  0  0  0  0  0
   34.5736   29.2163   41.8520 H   0  0  0  0  0  0  0  0  0  0  0  0
   32.7685   30.0736   43.3377 H   0  0  0  0  0  0  0  0  0  0  0  0
   30.8310   30.3454   46.3075 H   0  0  0  0  0  0  0  0  0  0  0  0
   31.5153   29.0678   45.2672 H   0  0  0  0  0  0  0  0  0  0  0  0
   35.3772   27.6766   47.4025 H   0  0  0  0  0  0  0  0  0  0  0  0
   34.8281   27.8099   49.1360 H   0  0  0  0  0  0  0  0  0  0  0  0
   32.4745   28.1920   49.6477 H   0  0  0  0  0  0  0  0  0  0  0  0
   30.1818   27.2816   49.1094 H   0  0  0  0  0  0  0  0  0  0  0  0
   31.6291   25.9967   45.3135 H   0  0  0  0  0  0  0  0  0  0  0  0
  1 17  1  0
  1  2  1  0
  2  3  1  0
  4  3  1  0
  5  4  1  0
  6  5  1  0
  6  1  1  0
  7  8  2  0
  7 14  1  0
  8  6  1  0
  9  8  1  0
 10  9  2  0
 11 10  1  0
 11 12  2  0
 12  7  1  0
 13 16  1  0
 14 15  1  0
 14 13  2  0
 18 17  1  0
 18 19  2  0
 20 19  1  0
 21 20  2  0
 22 23  2  0
 22 21  1  0
 23 18  1  0
  2 24  1  0
  2 25  1  0
  3 26  1  0
  3 27  1  0
  4 28  1  0
  4 29  1  0
  5 30  1  0
  5 31  1  0
  6 32  1  6
  9 33  1  0
 10 34  1  0
 11 35  1  0
 12 36  1  0
 15 37  1  0
 15 38  1  0
 17 39  1  0
 17 40  1  0
 19 41  1  0
 20 42  1  0
 22 43  1  0
M  ISO  8  24  13  25  13  26  13  27  13  28  13  29  13  30  13  31  13
M  ISO  8  32  13  33  14  34  14  35  14  36  14  39   8  40   8  41  14
M  ISO  2  42  14  43  14
M  END
>  <minimizedAffinity>  (1) 
-3.91031051

>  <minimizedRMSD>  (1) 
3.83447456

$$$$
