
     RDKit          3D

 29 30  0  0  1  0  0  0  0  0999 V2000
   37.5990   30.3670   47.9180 C   0  0  1  0  0  0  0  0  0  0  0  0
   36.7350   30.8890   46.8730 C   0  0  0  0  0  0  0  0  0  0  0  0
   37.4940   30.7260   45.5820 C   0  0  0  0  0  0  0  0  0  0  0  0
   38.7210   31.5230   45.7170 C   0  0  0  0  0  0  0  0  0  0  0  0
   39.3890   31.7350   46.9720 C   0  0  0  0  0  0  0  0  0  0  0  0
   38.6860   31.3580   48.2490 C   0  0  1  0  0  0  0  0  0  0  0  0
   37.1940   29.3700   51.4740 C   0  0  0  0  0  0  0  0  0  0  0  0
   37.8220   29.7530   50.2490 C   0  0  0  0  0  0  0  0  0  0  0  0
   36.9540   29.9970   49.1870 C   0  0  0  0  0  0  0  0  0  0  0  0
   35.5960   29.8700   49.3430 N   0  0  0  0  0  0  0  0  0  0  0  0
   35.0520   29.5050   50.5190 C   0  0  0  0  0  0  0  0  0  0  0  0
   35.8450   29.2540   51.5890 N   0  0  0  0  0  0  0  0  0  0  0  0
   38.2040   32.5970   48.9740 C   0  0  0  0  0  0  0  0  0  0  0  0
   38.9960   32.7770   50.1290 F   0  0  0  0  0  0  0  0  0  0  0  0
   38.4020   33.7590   48.2660 F   0  0  0  0  0  0  0  0  0  0  0  0
   36.9030   32.5260   49.3580 F   0  0  0  0  0  0  0  0  0  0  0  0
   37.9796   29.4346   47.4755 H   0  0  0  0  0  0  0  0  0  0  0  0
   35.7938   30.3208   46.8367 H   0  0  0  0  0  0  0  0  0  0  0  0
   36.4751   31.9421   47.0557 H   0  0  0  0  0  0  0  0  0  0  0  0
   36.8923   31.0944   44.7381 H   0  0  0  0  0  0  0  0  0  0  0  0
   37.7256   29.6685   45.3870 H   0  0  0  0  0  0  0  0  0  0  0  0
   39.4625   31.0497   45.0566 H   0  0  0  0  0  0  0  0  0  0  0  0
   38.3488   32.5341   45.4954 H   0  0  0  0  0  0  0  0  0  0  0  0
   40.3262   31.1601   46.9388 H   0  0  0  0  0  0  0  0  0  0  0  0
   39.4836   32.8290   47.0375 H   0  0  0  0  0  0  0  0  0  0  0  0
   39.3715   30.8654   48.9543 H   0  0  0  0  0  0  0  0  0  0  0  0
   37.8229   29.1624   52.3523 H   0  0  0  0  0  0  0  0  0  0  0  0
   38.9135   29.8484   50.1514 H   0  0  0  0  0  0  0  0  0  0  0  0
   33.9600   29.4101   50.6118 H   0  0  0  0  0  0  0  0  0  0  0  0
  1  6  1  0
  1  9  1  0
  2  1  1  0
  3  4  1  0
  3  2  1  0
  4  5  1  0
  5  6  1  0
  6 13  1  0
  7 12  2  0
  8  7  1  0
  9 10  1  0
  9  8  2  0
 10 11  2  0
 11 12  1  0
 13 16  1  0
 13 14  1  0
 15 13  1  0
  1 17  1  6
  2 18  1  0
  2 19  1  0
  3 20  1  0
  3 21  1  0
  4 22  1  0
  4 23  1  0
  5 24  1  0
  5 25  1  0
  6 26  1  1
  7 27  1  0
  8 28  1  0
 11 29  1  0
M  ISO  8  17  13  18  13  19  13  20  13  21  13  22  13  23  13  24  13
M  ISO  5  25  13  26  13  27  14  28  14  29  14
M  END
>  <minimizedAffinity>  (1) 
-5.35879946

>  <minimizedRMSD>  (1) 
1.06492996

$$$$
