
     RDKit          3D

 42 44  0  0  1  0  0  0  0  0999 V2000
   37.2270   30.0320   47.4500 C   0  0  1  0  0  0  0  0  0  0  0  0
   36.3040   30.6510   46.5190 C   0  0  0  0  0  0  0  0  0  0  0  0
   36.7540   30.3700   45.1130 C   0  0  0  0  0  0  0  0  0  0  0  0
   38.2350   30.4040   44.9890 C   0  0  0  0  0  0  0  0  0  0  0  0
   38.9730   31.1210   46.0590 C   0  0  0  0  0  0  0  0  0  0  0  0
   38.5490   30.7510   47.4560 C   0  0  1  0  0  0  0  0  0  0  0  0
   37.3440   29.3170   51.0800 C   0  0  0  0  0  0  0  0  0  0  0  0
   37.7680   29.5100   49.7510 C   0  0  0  0  0  0  0  0  0  0  0  0
   36.7870   29.8590   48.8240 C   0  0  0  0  0  0  0  0  0  0  0  0
   35.4740   29.9980   49.2350 N   0  0  0  0  0  0  0  0  0  0  0  0
   35.1210   29.8010   50.5180 C   0  0  0  0  0  0  0  0  0  0  0  0
   36.0470   29.4630   51.4390 N   0  0  0  0  0  0  0  0  0  0  0  0
   38.6900   31.9320   48.3380 C   0  0  0  0  0  0  0  0  0  0  0  0
   39.2190   33.0570   47.4580 C   0  0  0  0  0  0  0  0  0  0  0  0
   39.9570   34.0580   48.3330 C   0  0  0  0  0  0  0  0  0  0  0  0
   39.3030   34.0440   49.7080 C   0  0  0  0  0  0  0  0  0  0  0  0
   37.8140   33.8410   49.5600 C   0  0  0  0  0  0  0  0  0  0  0  0
   37.4790   32.4460   49.0180 C   0  0  0  0  0  0  0  0  0  0  0  0
   37.3063   29.0103   47.0502 H   0  0  0  0  0  0  0  0  0  0  0  0
   35.2959   30.2381   46.6717 H   0  0  0  0  0  0  0  0  0  0  0  0
   36.2824   31.7376   46.6889 H   0  0  0  0  0  0  0  0  0  0  0  0
   36.3949   29.3733   44.8169 H   0  0  0  0  0  0  0  0  0  0  0  0
   36.3386   31.1509   44.4591 H   0  0  0  0  0  0  0  0  0  0  0  0
   38.5932   29.3640   44.9752 H   0  0  0  0  0  0  0  0  0  0  0  0
   38.4370   30.9691   44.0671 H   0  0  0  0  0  0  0  0  0  0  0  0
   40.0438   30.8931   45.9517 H   0  0  0  0  0  0  0  0  0  0  0  0
   38.7503   32.1910   45.9341 H   0  0  0  0  0  0  0  0  0  0  0  0
   39.2162   29.9991   47.9027 H   0  0  0  0  0  0  0  0  0  0  0  0
   38.0847   29.0409   51.8449 H   0  0  0  0  0  0  0  0  0  0  0  0
   38.8218   29.3912   49.4587 H   0  0  0  0  0  0  0  0  0  0  0  0
   34.0692   29.9164   50.8185 H   0  0  0  0  0  0  0  0  0  0  0  0
   39.3411   31.6003   49.1602 H   0  0  0  0  0  0  0  0  0  0  0  0
   38.3796   33.5565   46.9521 H   0  0  0  0  0  0  0  0  0  0  0  0
   39.9028   32.6481   46.6996 H   0  0  0  0  0  0  0  0  0  0  0  0
   41.0155   33.7712   48.4190 H   0  0  0  0  0  0  0  0  0  0  0  0
   39.9056   35.0648   47.8929 H   0  0  0  0  0  0  0  0  0  0  0  0
   39.7264   33.2237   50.3062 H   0  0  0  0  0  0  0  0  0  0  0  0
   39.4921   35.0035   50.2117 H   0  0  0  0  0  0  0  0  0  0  0  0
   37.3386   33.9639   50.5443 H   0  0  0  0  0  0  0  0  0  0  0  0
   37.4377   34.5853   48.8427 H   0  0  0  0  0  0  0  0  0  0  0  0
   36.6454   32.5107   48.3032 H   0  0  0  0  0  0  0  0  0  0  0  0
   37.1779   31.7740   49.8352 H   0  0  0  0  0  0  0  0  0  0  0  0
  1  6  1  0
  1  9  1  0
  2  1  1  0
  3  2  1  0
  4  3  1  0
  4  5  1  0
  5  6  1  0
  6 13  1  0
  7 12  2  0
  8  7  1  0
  9 10  1  0
  9  8  2  0
 10 11  2  0
 11 12  1  0
 13 18  1  0
 14 15  1  0
 14 13  1  0
 15 16  1  0
 17 16  1  0
 18 17  1  0
  1 19  1  6
  2 20  1  0
  2 21  1  0
  3 22  1  0
  3 23  1  0
  4 24  1  0
  4 25  1  0
  5 26  1  0
  5 27  1  0
  6 28  1  1
  7 29  1  0
  8 30  1  0
 11 31  1  0
 13 32  1  0
 14 33  1  0
 14 34  1  0
 15 35  1  0
 15 36  1  0
 16 37  1  0
 16 38  1  0
 17 39  1  0
 17 40  1  0
 18 41  1  0
 18 42  1  0
M  ISO  8  19  13  20  13  21  13  22  13  23  13  24  13  25  13  26  13
M  ISO  8  27  13  28  13  29  14  30  14  31  14  32  13  33  13  34  13
M  ISO  8  35  13  36  13  37  13  38  13  39  13  40  13  41  13  42  13
M  END
>  <minimizedAffinity>  (1) 
-5.20539665

>  <minimizedRMSD>  (1) 
1.77559948

$$$$
