
     RDKit          3D

 27 28  0  0  1  0  0  0  0  0999 V2000
   38.2180   30.6670   47.8310 C   0  0  1  0  0  0  0  0  0  0  0  0
   37.3990   30.8390   46.6150 C   0  0  0  0  0  0  0  0  0  0  0  0
   38.3110   30.9010   45.4250 C   0  0  0  0  0  0  0  0  0  0  0  0
   39.5770   31.6010   45.7350 C   0  0  0  0  0  0  0  0  0  0  0  0
   39.5450   32.5370   46.8840 C   0  0  0  0  0  0  0  0  0  0  0  0
   38.7810   32.0760   48.1040 C   0  0  1  0  0  0  0  0  0  0  0  0
   37.3590   30.1470   51.4190 C   0  0  0  0  0  0  0  0  0  0  0  0
   38.0630   30.5470   50.2710 C   0  0  0  0  0  0  0  0  0  0  0  0
   37.4960   30.2620   49.0400 C   0  0  0  0  0  0  0  0  0  0  0  0
   36.2940   29.6100   49.0020 N   0  0  0  0  0  0  0  0  0  0  0  0
   35.6370   29.2360   50.1160 C   0  0  0  0  0  0  0  0  0  0  0  0
   36.1730   29.5060   51.3270 N   0  0  0  0  0  0  0  0  0  0  0  0
   37.6740   32.9150   48.2320 O   0  0  0  0  0  0  0  0  0  0  0  0
   38.9450   29.8637   47.6409 H   0  0  0  0  0  0  0  0  0  0  0  0
   36.7101   29.9880   46.5094 H   0  0  0  0  0  0  0  0  0  0  0  0
   36.8127   31.7670   46.6864 H   0  0  0  0  0  0  0  0  0  0  0  0
   37.7987   31.4363   44.6120 H   0  0  0  0  0  0  0  0  0  0  0  0
   38.5555   29.8701   45.1293 H   0  0  0  0  0  0  0  0  0  0  0  0
   40.3396   30.8369   45.9462 H   0  0  0  0  0  0  0  0  0  0  0  0
   39.7909   32.2245   44.8544 H   0  0  0  0  0  0  0  0  0  0  0  0
   40.5842   32.7257   47.1912 H   0  0  0  0  0  0  0  0  0  0  0  0
   39.0089   33.4267   46.5219 H   0  0  0  0  0  0  0  0  0  0  0  0
   39.4307   32.0834   48.9916 H   0  0  0  0  0  0  0  0  0  0  0  0
   37.7814   30.3597   52.4121 H   0  0  0  0  0  0  0  0  0  0  0  0
   39.0291   31.0675   50.3470 H   0  0  0  0  0  0  0  0  0  0  0  0
   34.6713   28.7146   50.0412 H   0  0  0  0  0  0  0  0  0  0  0  0
   37.4804   33.0618   49.1917 H   0  0  0  0  0  0  0  0  0  0  0  0
  1  6  1  0
  1  9  1  0
  2  1  1  0
  3  4  1  0
  3  2  1  0
  4  5  1  0
  5  6  1  0
  6 13  1  0
  8  7  2  0
  9  8  1  0
 10  9  2  0
 10 11  1  0
 11 12  2  0
 12  7  1  0
  1 14  1  6
  2 15  1  0
  2 16  1  0
  3 17  1  0
  3 18  1  0
  4 19  1  0
  4 20  1  0
  5 21  1  0
  5 22  1  0
  6 23  1  1
  7 24  1  0
  8 25  1  0
 11 26  1  0
 13 27  1  0
M  ISO  8  14  13  15  13  16  13  17  13  18  13  19  13  20  13  21  13
M  ISO  6  22  13  23  13  24  14  25  14  26  14  27   3
M  END
>  <minimizedAffinity>  (1) 
-4.98289394

>  <minimizedRMSD>  (1) 
0.111846365

$$$$
