
     RDKit          3D

 27 28  0  0  1  0  0  0  0  0999 V2000
   37.8760   30.5190   47.8920 C   0  0  1  0  0  0  0  0  0  0  0  0
   37.0560   30.9380   46.7510 C   0  0  0  0  0  0  0  0  0  0  0  0
   37.9090   30.9790   45.5170 C   0  0  0  0  0  0  0  0  0  0  0  0
   39.2930   31.4210   45.8080 C   0  0  0  0  0  0  0  0  0  0  0  0
   39.4410   32.2800   47.0330 C   0  0  0  0  0  0  0  0  0  0  0  0
   38.7680   31.7250   48.2650 C   0  0  1  0  0  0  0  0  0  0  0  0
   37.2080   29.5420   51.4270 C   0  0  0  0  0  0  0  0  0  0  0  0
   37.9220   29.9350   50.2610 C   0  0  0  0  0  0  0  0  0  0  0  0
   37.1670   30.1320   49.1110 C   0  0  0  0  0  0  0  0  0  0  0  0
   35.8150   29.9430   49.1540 N   0  0  0  0  0  0  0  0  0  0  0  0
   35.1650   29.5700   50.2700 C   0  0  0  0  0  0  0  0  0  0  0  0
   35.8640   29.3690   51.4110 N   0  0  0  0  0  0  0  0  0  0  0  0
   37.8330   33.0090   49.1080 S   0  0  0  0  0  0  0  0  0  0  0  0
   38.4035   29.6138   47.5568 H   0  0  0  0  0  0  0  0  0  0  0  0
   36.2341   30.2214   46.6061 H   0  0  0  0  0  0  0  0  0  0  0  0
   36.6382   31.9371   46.9441 H   0  0  0  0  0  0  0  0  0  0  0  0
   37.4577   31.6780   44.7974 H   0  0  0  0  0  0  0  0  0  0  0  0
   37.9591   29.9595   45.1070 H   0  0  0  0  0  0  0  0  0  0  0  0
   39.9164   30.5247   45.9423 H   0  0  0  0  0  0  0  0  0  0  0  0
   39.6024   32.0443   44.9561 H   0  0  0  0  0  0  0  0  0  0  0  0
   40.5140   32.3924   47.2475 H   0  0  0  0  0  0  0  0  0  0  0  0
   38.9478   33.2372   46.8084 H   0  0  0  0  0  0  0  0  0  0  0  0
   39.5398   31.3677   48.9626 H   0  0  0  0  0  0  0  0  0  0  0  0
   37.7599   29.3746   52.3637 H   0  0  0  0  0  0  0  0  0  0  0  0
   39.0130   30.0754   50.2692 H   0  0  0  0  0  0  0  0  0  0  0  0
   34.0741   29.4294   50.2558 H   0  0  0  0  0  0  0  0  0  0  0  0
   37.9520   32.8456   50.4630 H   0  0  0  0  0  0  0  0  0  0  0  0
  1  6  1  0
  1  9  1  0
  2  1  1  0
  3  4  1  0
  3  2  1  0
  4  5  1  0
  5  6  1  0
  6 13  1  0
  8  7  2  0
  9 10  2  0
  9  8  1  0
 10 11  1  0
 11 12  2  0
 12  7  1  0
  1 14  1  6
  2 15  1  0
  2 16  1  0
  3 17  1  0
  3 18  1  0
  4 19  1  0
  4 20  1  0
  5 21  1  0
  5 22  1  0
  6 23  1  1
  7 24  1  0
  8 25  1  0
 11 26  1  0
 13 27  1  0
M  ISO  8  14  13  15  13  16  13  17  13  18  13  19  13  20  13  21  13
M  ISO  6  22  13  23  13  24  14  25  14  26  14  27  11
M  END
>  <minimizedAffinity>  (1) 
-4.7611475

>  <minimizedRMSD>  (1) 
0.509126961

$$$$
