
     RDKit          3D

 37 39  0  0  1  0  0  0  0  0999 V2000
   37.2410   30.1130   47.0410 C   0  0  1  0  0  0  0  0  0  0  0  0
   36.7370   30.8020   45.8660 C   0  0  0  0  0  0  0  0  0  0  0  0
   37.5860   30.5000   44.6780 C   0  0  0  0  0  0  0  0  0  0  0  0
   38.9950   30.2400   45.0420 C   0  0  0  0  0  0  0  0  0  0  0  0
   39.4770   30.8400   46.3110 C   0  0  0  0  0  0  0  0  0  0  0  0
   38.5240   30.8190   47.4830 C   0  0  1  0  0  0  0  0  0  0  0  0
   35.9300   29.1570   50.3880 C   0  0  0  0  0  0  0  0  0  0  0  0
   36.7810   29.2400   49.2620 C   0  0  0  0  0  0  0  0  0  0  0  0
   36.3580   30.0420   48.2100 C   0  0  0  0  0  0  0  0  0  0  0  0
   35.1570   30.7130   48.2940 N   0  0  0  0  0  0  0  0  0  0  0  0
   34.3840   30.6050   49.3810 C   0  0  0  0  0  0  0  0  0  0  0  0
   34.7560   29.8320   50.4350 N   0  0  0  0  0  0  0  0  0  0  0  0
   38.3540   32.0860   48.1820 C   0  0  2  0  0  0  0  0  0  0  0  0
   39.0540   33.3140   47.8640 C   0  0  0  0  0  0  0  0  0  0  0  0
   38.9130   34.0730   49.2030 C   0  0  0  0  0  0  0  0  0  0  0  0
   39.2080   33.0700   50.1160 O   0  0  0  0  0  0  0  0  0  0  0  0
   38.6530   31.8830   49.6570 C   0  0  0  0  0  0  0  0  0  0  0  0
   37.3706   29.0702   46.7156 H   0  0  0  0  0  0  0  0  0  0  0  0
   35.7065   30.4723   45.6675 H   0  0  0  0  0  0  0  0  0  0  0  0
   36.7596   31.8858   46.0526 H   0  0  0  0  0  0  0  0  0  0  0  0
   37.5514   31.3591   43.9919 H   0  0  0  0  0  0  0  0  0  0  0  0
   37.1888   29.5895   44.2054 H   0  0  0  0  0  0  0  0  0  0  0  0
   39.1239   29.1503   45.1184 H   0  0  0  0  0  0  0  0  0  0  0  0
   39.5910   30.7187   44.2511 H   0  0  0  0  0  0  0  0  0  0  0  0
   40.3851   30.2967   46.6115 H   0  0  0  0  0  0  0  0  0  0  0  0
   39.6290   31.9056   46.0844 H   0  0  0  0  0  0  0  0  0  0  0  0
   38.9754   30.2322   48.2965 H   0  0  0  0  0  0  0  0  0  0  0  0
   36.2269   28.5319   51.2431 H   0  0  0  0  0  0  0  0  0  0  0  0
   37.7351   28.6940   49.2210 H   0  0  0  0  0  0  0  0  0  0  0  0
   33.4304   31.1517   49.4221 H   0  0  0  0  0  0  0  0  0  0  0  0
   37.3304   32.2860   47.8325 H   0  0  0  0  0  0  0  0  0  0  0  0
   40.1083   33.1270   47.6122 H   0  0  0  0  0  0  0  0  0  0  0  0
   38.6615   33.8520   46.9885 H   0  0  0  0  0  0  0  0  0  0  0  0
   39.6301   34.9043   49.2722 H   0  0  0  0  0  0  0  0  0  0  0  0
   37.9303   34.5440   49.3528 H   0  0  0  0  0  0  0  0  0  0  0  0
   37.7256   31.6606   50.2052 H   0  0  0  0  0  0  0  0  0  0  0  0
   39.3407   31.0382   49.8099 H   0  0  0  0  0  0  0  0  0  0  0  0
  1  6  1  0
  1  9  1  0
  2  1  1  0
  3  4  1  0
  3  2  1  0
  4  5  1  0
  5  6  1  0
  6 13  1  0
  7 12  2  0
  8  7  1  0
  9 10  1  0
  9  8  2  0
 10 11  2  0
 11 12  1  0
 13 14  1  0
 13 17  1  0
 14 15  1  0
 15 16  1  0
 17 16  1  0
  1 18  1  6
  2 19  1  0
  2 20  1  0
  3 21  1  0
  3 22  1  0
  4 23  1  0
  4 24  1  0
  5 25  1  0
  5 26  1  0
  6 27  1  1
  7 28  1  0
  8 29  1  0
 11 30  1  0
 13 31  1  1
 14 32  1  0
 14 33  1  0
 15 34  1  0
 15 35  1  0
 17 36  1  0
 17 37  1  0
M  ISO  8  18  13  19  13  20  13  21  13  22  13  23  13  24  13  25  13
M  ISO  8  26  13  27  13  28  14  29  14  30  14  31  13  32  13  33  13
M  ISO  4  34  13  35  13  36  13  37  13
M  END
>  <minimizedAffinity>  (1) 
-4.50845242

>  <minimizedRMSD>  (1) 
1.94550538

$$$$
