
     RDKit          3D

 46 48  0  0  1  0  0  0  0  0999 V2000
   36.0650   31.0580   43.2020 C   0  0  1  0  0  0  0  0  0  0  0  0
   35.3910   32.3290   42.9880 C   0  0  0  0  0  0  0  0  0  0  0  0
   36.1450   33.1170   41.9630 C   0  0  0  0  0  0  0  0  0  0  0  0
   37.6140   32.9940   42.1580 C   0  0  0  0  0  0  0  0  0  0  0  0
   38.0410   32.5630   43.5040 C   0  0  0  0  0  0  0  0  0  0  0  0
   37.3250   31.3210   44.0330 C   0  0  1  0  0  0  0  0  0  0  0  0
   34.7590   27.7220   44.1740 C   0  0  0  0  0  0  0  0  0  0  0  0
   35.5060   28.7180   43.4850 C   0  0  0  0  0  0  0  0  0  0  0  0
   35.3110   30.0210   43.9250 C   0  0  0  0  0  0  0  0  0  0  0  0
   34.4400   30.3050   44.9670 N   0  0  0  0  0  0  0  0  0  0  0  0
   33.7620   29.3210   45.5790 C   0  0  0  0  0  0  0  0  0  0  0  0
   33.9120   28.0170   45.1910 N   0  0  0  0  0  0  0  0  0  0  0  0
   37.8070   31.0640   46.5980 C   0  0  0  0  0  0  0  0  0  0  0  0
   38.9110   30.5830   46.3230 O   0  0  0  0  0  0  0  0  0  0  0  0
   37.0760   31.4450   45.4390 N   0  0  0  0  0  0  0  0  0  0  0  0
   37.1570   31.2920   47.8850 C   0  0  0  0  0  0  0  0  0  0  0  0
   38.0680   31.9380   48.8720 C   0  0  0  0  0  0  0  0  0  0  0  0
   38.2810   31.0790   50.1010 C   0  0  0  0  0  0  0  0  0  0  0  0
   37.0010   30.6510   50.7440 C   0  0  0  0  0  0  0  0  0  0  0  0
   35.8670   30.4520   49.7560 C   0  0  0  0  0  0  0  0  0  0  0  0
   36.5150   30.0630   48.4230 C   0  0  0  0  0  0  0  0  0  0  0  0
   36.2402   30.6681   42.1885 H   0  0  0  0  0  0  0  0  0  0  0  0
   34.3662   32.1471   42.6321 H   0  0  0  0  0  0  0  0  0  0  0  0
   35.3520   32.8913   43.9326 H   0  0  0  0  0  0  0  0  0  0  0  0
   35.8604   34.1763   42.0452 H   0  0  0  0  0  0  0  0  0  0  0  0
   35.8932   32.7217   40.9678 H   0  0  0  0  0  0  0  0  0  0  0  0
   37.9925   32.2604   41.4310 H   0  0  0  0  0  0  0  0  0  0  0  0
   38.0235   34.0056   42.0199 H   0  0  0  0  0  0  0  0  0  0  0  0
   39.1193   32.3483   43.4692 H   0  0  0  0  0  0  0  0  0  0  0  0
   37.7857   33.3847   44.1893 H   0  0  0  0  0  0  0  0  0  0  0  0
   37.9673   30.4351   43.9205 H   0  0  0  0  0  0  0  0  0  0  0  0
   34.8731   26.6711   43.8696 H   0  0  0  0  0  0  0  0  0  0  0  0
   36.1912   28.4728   42.6601 H   0  0  0  0  0  0  0  0  0  0  0  0
   33.0765   29.5661   46.4036 H   0  0  0  0  0  0  0  0  0  0  0  0
   36.1808   31.9063   45.6552 H   0  0  0  0  0  0  0  0  0  0  0  0
   36.3425   32.0077   47.6995 H   0  0  0  0  0  0  0  0  0  0  0  0
   39.0413   32.1168   48.3917 H   0  0  0  0  0  0  0  0  0  0  0  0
   37.6021   32.8806   49.1952 H   0  0  0  0  0  0  0  0  0  0  0  0
   38.8433   30.1803   49.8073 H   0  0  0  0  0  0  0  0  0  0  0  0
   38.8310   31.6860   50.8352 H   0  0  0  0  0  0  0  0  0  0  0  0
   37.1758   29.7009   51.2700 H   0  0  0  0  0  0  0  0  0  0  0  0
   36.6970   31.4560   51.4292 H   0  0  0  0  0  0  0  0  0  0  0  0
   35.1980   29.6501   50.1017 H   0  0  0  0  0  0  0  0  0  0  0  0
   35.2636   31.3660   49.6534 H   0  0  0  0  0  0  0  0  0  0  0  0
   35.7502   29.6970   47.7222 H   0  0  0  0  0  0  0  0  0  0  0  0
   37.2532   29.2593   48.5616 H   0  0  0  0  0  0  0  0  0  0  0  0
  1  9  1  0
  1  6  1  0
  2  1  1  0
  3  4  1  0
  3  2  1  0
  4  5  1  0
  5  6  1  0
  6 15  1  0
  7 12  2  0
  8  9  2  0
  8  7  1  0
  9 10  1  0
 10 11  2  0
 12 11  1  0
 13 16  1  0
 14 13  2  0
 15 13  1  0
 16 21  1  0
 16 17  1  0
 17 18  1  0
 18 19  1  0
 20 19  1  0
 21 20  1  0
  1 22  1  6
  2 23  1  0
  2 24  1  0
  3 25  1  0
  3 26  1  0
  4 27  1  0
  4 28  1  0
  5 29  1  0
  5 30  1  0
  6 31  1  1
  7 32  1  0
  8 33  1  0
 11 34  1  0
 15 35  1  0
 16 36  1  0
 17 37  1  0
 17 38  1  0
 18 39  1  0
 18 40  1  0
 19 41  1  0
 19 42  1  0
 20 43  1  0
 20 44  1  0
 21 45  1  0
 21 46  1  0
M  ISO  8  22  13  23  13  24  13  25  13  26  13  27  13  28  13  29  13
M  ISO  8  30  13  31  13  32  14  33  14  34  14  36  13  37  13  38  13
M  ISO  8  39  13  40  13  41  13  42  13  43  13  44  13  45  13  46  13
M  END
>  <minimizedAffinity>  (1) 
-5.21841288

>  <minimizedRMSD>  (1) 
4.69825602

$$$$
