
     RDKit          3D

 22 23  0  0  0  0  0  0  0  0999 V2000
   37.6160   33.1150   49.7080 C   0  0  0  0  0  0  0  0  0  0  0  0
   38.7280   33.2250   48.8240 C   0  0  0  0  0  0  0  0  0  0  0  0
   38.8730   32.2480   47.8530 C   0  0  0  0  0  0  0  0  0  0  0  0
   37.9580   31.2250   47.7770 N   0  0  0  0  0  0  0  0  0  0  0  0
   36.9160   31.1650   48.6440 C   0  0  0  0  0  0  0  0  0  0  0  0
   36.7500   32.1080   49.6040 N   0  0  0  0  0  0  0  0  0  0  0  0
   36.9990   29.2470   51.1340 Br  0  0  0  0  0  0  0  0  0  0  0  0
   35.8400   29.1510   49.6060 C   0  0  0  0  0  0  0  0  0  0  0  0
   35.9350   30.0870   48.5820 C   0  0  0  0  0  0  0  0  0  0  0  0
   35.0680   29.9430   47.5260 C   0  0  0  0  0  0  0  0  0  0  0  0
   34.1270   28.9360   47.4340 C   0  0  0  0  0  0  0  0  0  0  0  0
   34.0650   28.0300   48.4640 C   0  0  0  0  0  0  0  0  0  0  0  0
   34.9310   28.1450   49.5540 C   0  0  0  0  0  0  0  0  0  0  0  0
   39.6820   34.3390   48.9400 C   0  0  0  0  0  0  0  0  0  0  0  0
   40.3930   34.6090   47.9140 O   0  0  0  0  0  0  0  0  0  0  0  0
   37.4700   33.8748   50.4900 H   0  0  0  0  0  0  0  0  0  0  0  0
   39.7154   32.2905   47.1469 H   0  0  0  0  0  0  0  0  0  0  0  0
   35.1267   30.6729   46.7051 H   0  0  0  0  0  0  0  0  0  0  0  0
   33.4526   28.8626   46.5681 H   0  0  0  0  0  0  0  0  0  0  0  0
   33.3312   27.2112   48.4307 H   0  0  0  0  0  0  0  0  0  0  0  0
   34.8757   27.4154   50.3754 H   0  0  0  0  0  0  0  0  0  0  0  0
   39.7789   34.9155   49.8718 H   0  0  0  0  0  0  0  0  0  0  0  0
  2 14  1  0
  2  1  2  0
  3  2  1  0
  4  3  2  0
  4  5  1  0
  5  6  2  0
  6  1  1  0
  8  7  1  0
  9  5  1  0
  9  8  2  0
 10  9  1  0
 11 10  2  0
 11 12  1  0
 12 13  2  0
 13  8  1  0
 15 14  2  0
  1 16  1  0
  3 17  1  0
 10 18  1  0
 11 19  1  0
 12 20  1  0
 13 21  1  0
 14 22  1  0
M  ISO  7  16  14  17  14  18  14  19  14  20  14  21  14  22   6
M  END
>  <minimizedAffinity>  (1) 
-5.51775837

>  <minimizedRMSD>  (1) 
0.403173745

$$$$
