
     RDKit          3D

 21 22  0  0  0  0  0  0  0  0999 V2000
   37.2110   29.4020   51.1380 Br  0  0  0  0  0  0  0  0  0  0  0  0
   35.9450   29.2790   49.7110 C   0  0  0  0  0  0  0  0  0  0  0  0
   35.9810   30.1570   48.6320 C   0  0  0  0  0  0  0  0  0  0  0  0
   35.0370   29.9980   47.6520 C   0  0  0  0  0  0  0  0  0  0  0  0
   34.0580   29.0240   47.6720 C   0  0  0  0  0  0  0  0  0  0  0  0
   34.0550   28.1670   48.7660 C   0  0  0  0  0  0  0  0  0  0  0  0
   35.0030   28.3000   49.7830 C   0  0  0  0  0  0  0  0  0  0  0  0
   37.8390   33.1860   49.4570 C   0  0  0  0  0  0  0  0  0  0  0  0
   38.8890   33.2070   48.5060 C   0  0  0  0  0  0  0  0  0  0  0  0
   38.9380   32.1530   47.5760 C   0  0  0  0  0  0  0  0  0  0  0  0
   37.9840   31.1760   47.6380 N   0  0  0  0  0  0  0  0  0  0  0  0
   36.9980   31.2000   48.5690 C   0  0  0  0  0  0  0  0  0  0  0  0
   36.9310   32.2070   49.4750 N   0  0  0  0  0  0  0  0  0  0  0  0
   40.0750   34.5220   48.5140 S   0  0  0  0  0  0  0  0  0  0  0  0
   35.0602   30.6888   46.7963 H   0  0  0  0  0  0  0  0  0  0  0  0
   33.3183   28.9313   46.8632 H   0  0  0  0  0  0  0  0  0  0  0  0
   33.2960   27.3735   48.8318 H   0  0  0  0  0  0  0  0  0  0  0  0
   34.9880   27.6132   50.6421 H   0  0  0  0  0  0  0  0  0  0  0  0
   37.7701   33.9957   50.1984 H   0  0  0  0  0  0  0  0  0  0  0  0
   39.7294   32.1156   46.8129 H   0  0  0  0  0  0  0  0  0  0  0  0
   40.3769   34.8568   49.8077 H   0  0  0  0  0  0  0  0  0  0  0  0
  2  7  2  0
  2  1  1  0
  3  2  1  0
  4  5  1  0
  4  3  2  0
  5  6  2  0
  6  7  1  0
  8 13  2  0
  9 14  1  0
  9  8  1  0
 10 11  1  0
 10  9  2  0
 11 12  2  0
 12  3  1  0
 12 13  1  0
  4 15  1  0
  5 16  1  0
  6 17  1  0
  7 18  1  0
  8 19  1  0
 10 20  1  0
 14 21  1  0
M  ISO  7  15  14  16  14  17  14  18  14  19  14  20  14  21  11
M  END
>  <minimizedAffinity>  (1) 
-5.01903009

>  <minimizedRMSD>  (1) 
0.122180849

$$$$
