
     RDKit          3D

 30 32  0  0  0  0  0  0  0  0999 V2000
   36.4500   31.1130   48.3290 C   0  0  0  0  0  0  0  0  0  0  0  0
   37.3090   31.5370   47.2750 C   0  0  0  0  0  0  0  0  0  0  0  0
   37.0790   30.9870   46.0250 C   0  0  0  0  0  0  0  0  0  0  0  0
   36.0670   30.0820   45.8390 N   0  0  0  0  0  0  0  0  0  0  0  0
   35.2750   29.7130   46.8890 C   0  0  0  0  0  0  0  0  0  0  0  0
   35.4650   30.2260   48.1270 N   0  0  0  0  0  0  0  0  0  0  0  0
   34.5510   28.1640   49.5230 Br  0  0  0  0  0  0  0  0  0  0  0  0
   33.7580   27.9910   47.7890 C   0  0  0  0  0  0  0  0  0  0  0  0
   34.1940   28.7540   46.7180 C   0  0  0  0  0  0  0  0  0  0  0  0
   33.5670   28.5680   45.5020 C   0  0  0  0  0  0  0  0  0  0  0  0
   32.5350   27.6560   45.3250 C   0  0  0  0  0  0  0  0  0  0  0  0
   32.1250   26.9150   46.4020 C   0  0  0  0  0  0  0  0  0  0  0  0
   32.7410   27.0870   47.6330 C   0  0  0  0  0  0  0  0  0  0  0  0
   37.2130   32.9260   49.9930 Cl  0  0  0  0  0  0  0  0  0  0  0  0
   38.4460   33.2090   48.7770 C   0  0  0  0  0  0  0  0  0  0  0  0
   38.3260   32.4870   47.6060 C   0  0  0  0  0  0  0  0  0  0  0  0
   39.2910   32.6910   46.6230 C   0  0  0  0  0  0  0  0  0  0  0  0
   40.3130   33.5930   46.8560 C   0  0  0  0  0  0  0  0  0  0  0  0
   40.4150   34.3060   48.0370 C   0  0  0  0  0  0  0  0  0  0  0  0
   39.4550   34.1120   49.0310 C   0  0  0  0  0  0  0  0  0  0  0  0
   36.5990   31.5251   49.3379 H   0  0  0  0  0  0  0  0  0  0  0  0
   37.7134   31.2788   45.1751 H   0  0  0  0  0  0  0  0  0  0  0  0
   33.8979   29.1656   44.6398 H   0  0  0  0  0  0  0  0  0  0  0  0
   32.0573   27.5312   44.3420 H   0  0  0  0  0  0  0  0  0  0  0  0
   31.3093   26.1854   46.2908 H   0  0  0  0  0  0  0  0  0  0  0  0
   32.4084   26.4897   48.4948 H   0  0  0  0  0  0  0  0  0  0  0  0
   39.2409   32.1408   45.6718 H   0  0  0  0  0  0  0  0  0  0  0  0
   41.0715   33.7490   46.0747 H   0  0  0  0  0  0  0  0  0  0  0  0
   41.2412   35.0159   48.1904 H   0  0  0  0  0  0  0  0  0  0  0  0
   39.5022   34.6605   49.9833 H   0  0  0  0  0  0  0  0  0  0  0  0
  2 16  1  0
  2  1  2  0
  3  2  1  0
  4  3  2  0
  4  5  1  0
  5  6  2  0
  6  1  1  0
  8  7  1  0
  9  5  1  0
  9  8  2  0
 10  9  1  0
 11 10  2  0
 11 12  1  0
 12 13  2  0
 13  8  1  0
 15 20  2  0
 15 14  1  0
 16 15  1  0
 17 18  1  0
 17 16  2  0
 18 19  2  0
 19 20  1  0
  1 21  1  0
  3 22  1  0
 10 23  1  0
 11 24  1  0
 12 25  1  0
 13 26  1  0
 17 27  1  0
 18 28  1  0
 19 29  1  0
 20 30  1  0
M  ISO  8  21  14  22  14  23  14  24  14  25  14  26  14  27  14  28  14
M  ISO  2  29  14  30  14
M  END
>  <minimizedAffinity>  (1) 
-4.98268175

>  <minimizedRMSD>  (1) 
2.99139452

$$$$
