
     RDKit          3D

 35 37  0  0  0  0  0  0  0  0999 V2000
   36.0480   29.2240   49.1760 C   0  0  0  0  0  0  0  0  0  0  0  0
   35.9750   30.3720   48.3470 C   0  0  0  0  0  0  0  0  0  0  0  0
   34.9330   30.4210   47.4180 C   0  0  0  0  0  0  0  0  0  0  0  0
   34.0530   29.3910   47.3480 N   0  0  0  0  0  0  0  0  0  0  0  0
   34.1530   28.3160   48.1520 C   0  0  0  0  0  0  0  0  0  0  0  0
   35.1380   28.2230   49.0610 N   0  0  0  0  0  0  0  0  0  0  0  0
   33.2020   27.2720   48.0310 N   0  0  0  0  0  0  0  0  0  0  0  0
   31.8560   27.4210   48.5410 C   0  0  0  0  0  0  0  0  0  0  0  0
   30.8760   26.9070   47.4920 C   0  0  0  0  0  0  0  0  0  0  0  0
   31.1730   25.5190   47.0340 C   0  0  0  0  0  0  0  0  0  0  0  0
   32.4680   24.9870   47.6260 C   0  0  0  0  0  0  0  0  0  0  0  0
   33.5530   26.0200   47.3870 C   0  0  0  0  0  0  0  0  0  0  0  0
   36.9530   31.3890   48.5090 N   0  0  0  0  0  0  0  0  0  0  0  0
   37.0620   32.0760   49.6660 C   0  0  0  0  0  0  0  0  0  0  0  0
   38.0360   33.0680   49.7880 C   0  0  0  0  0  0  0  0  0  0  0  0
   38.8070   33.2410   48.6660 C   0  0  0  0  0  0  0  0  0  0  0  0
   39.7020   34.1410   48.7540 O   0  0  0  0  0  0  0  0  0  0  0  0
   38.7180   32.5740   47.5120 N   0  0  0  0  0  0  0  0  0  0  0  0
   37.7620   31.6280   47.4460 C   0  0  0  0  0  0  0  0  0  0  0  0
   37.6530   30.9800   46.3680 O   0  0  0  0  0  0  0  0  0  0  0  0
   36.8524   29.1434   49.9220 H   0  0  0  0  0  0  0  0  0  0  0  0
   34.8269   31.2875   46.7488 H   0  0  0  0  0  0  0  0  0  0  0  0
   31.7449   26.8392   49.4679 H   0  0  0  0  0  0  0  0  0  0  0  0
   31.6522   28.4801   48.7572 H   0  0  0  0  0  0  0  0  0  0  0  0
   29.8640   26.9230   47.9227 H   0  0  0  0  0  0  0  0  0  0  0  0
   30.9648   27.5646   46.6147 H   0  0  0  0  0  0  0  0  0  0  0  0
   30.3465   24.8603   47.3389 H   0  0  0  0  0  0  0  0  0  0  0  0
   31.2837   25.5395   45.9398 H   0  0  0  0  0  0  0  0  0  0  0  0
   32.3435   24.8197   48.7060 H   0  0  0  0  0  0  0  0  0  0  0  0
   32.7397   24.0316   47.1533 H   0  0  0  0  0  0  0  0  0  0  0  0
   34.5031   25.6519   47.8014 H   0  0  0  0  0  0  0  0  0  0  0  0
   33.6563   26.1890   46.3050 H   0  0  0  0  0  0  0  0  0  0  0  0
   36.3878   31.8554   50.5067 H   0  0  0  0  0  0  0  0  0  0  0  0
   38.1738   33.6603   50.7046 H   0  0  0  0  0  0  0  0  0  0  0  0
   39.3444   32.7719   46.7186 H   0  0  0  0  0  0  0  0  0  0  0  0
  2 13  1  0
  2  1  2  0
  3  2  1  0
  4  3  2  0
  4  5  1  0
  5  6  2  0
  6  1  1  0
  7  5  1  0
  7  8  1  0
  9  8  1  0
 10  9  1  0
 10 11  1  0
 12 11  1  0
 12  7  1  0
 13 14  1  0
 14 15  2  0
 16 17  2  0
 16 15  1  0
 18 16  1  0
 19 18  1  0
 19 13  1  0
 20 19  2  0
  1 21  1  0
  3 22  1  0
  8 23  1  0
  8 24  1  0
  9 25  1  0
  9 26  1  0
 10 27  1  0
 10 28  1  0
 11 29  1  0
 11 30  1  0
 12 31  1  0
 12 32  1  0
 14 33  1  0
 15 34  1  0
 18 35  1  0
M  ISO  8  21  14  22  14  23  13  24  13  25  13  26  13  27  13  28  13
M  ISO  7  29  13  30  13  31  13  32  13  33  14  34  14  35   9
M  END
>  <minimizedAffinity>  (1) 
-5.78800821

>  <minimizedRMSD>  (1) 
0.413880318

$$$$
