
     RDKit          3D

 27 29  0  0  0  0  0  0  0  0999 V2000
   36.1530   29.4010   49.1660 C   0  0  0  0  0  0  0  0  0  0  0  0
   36.1450   30.4700   48.2510 C   0  0  0  0  0  0  0  0  0  0  0  0
   35.1770   30.4620   47.2620 C   0  0  0  0  0  0  0  0  0  0  0  0
   34.2930   29.4380   47.2170 N   0  0  0  0  0  0  0  0  0  0  0  0
   34.3200   28.4200   48.1080 C   0  0  0  0  0  0  0  0  0  0  0  0
   35.2490   28.4020   49.0810 N   0  0  0  0  0  0  0  0  0  0  0  0
   37.1320   31.4940   48.4030 N   0  0  0  0  0  0  0  0  0  0  0  0
   37.2250   32.2080   49.5530 C   0  0  0  0  0  0  0  0  0  0  0  0
   38.1900   33.1990   49.6840 C   0  0  0  0  0  0  0  0  0  0  0  0
   38.9850   33.3460   48.5580 C   0  0  0  0  0  0  0  0  0  0  0  0
   39.8820   34.2520   48.6520 O   0  0  0  0  0  0  0  0  0  0  0  0
   38.9140   32.6530   47.4100 N   0  0  0  0  0  0  0  0  0  0  0  0
   37.9510   31.7110   47.3650 C   0  0  0  0  0  0  0  0  0  0  0  0
   37.8640   31.0510   46.3030 O   0  0  0  0  0  0  0  0  0  0  0  0
   33.3390   27.3480   48.0050 C   0  0  0  0  0  0  0  0  0  0  0  0
   32.0610   27.3180   48.4100 C   0  0  0  0  0  0  0  0  0  0  0  0
   31.3000   26.1910   48.2130 C   0  0  0  0  0  0  0  0  0  0  0  0
   31.9610   25.1240   47.5750 C   0  0  0  0  0  0  0  0  0  0  0  0
   33.6580   25.7980   47.2870 S   0  0  0  0  0  0  0  0  0  0  0  0
   36.9092   29.3790   49.9646 H   0  0  0  0  0  0  0  0  0  0  0  0
   35.1268   31.2757   46.5235 H   0  0  0  0  0  0  0  0  0  0  0  0
   36.5344   32.0017   50.3840 H   0  0  0  0  0  0  0  0  0  0  0  0
   38.3113   33.8074   50.5924 H   0  0  0  0  0  0  0  0  0  0  0  0
   39.5505   32.8289   46.6196 H   0  0  0  0  0  0  0  0  0  0  0  0
   31.6206   28.1981   48.9013 H   0  0  0  0  0  0  0  0  0  0  0  0
   30.2490   26.1269   48.5312 H   0  0  0  0  0  0  0  0  0  0  0  0
   31.5646   24.1321   47.3123 H   0  0  0  0  0  0  0  0  0  0  0  0
  2  7  1  0
  2  1  2  0
  3  2  1  0
  4  3  2  0
  4  5  1  0
  5  6  2  0
  6  1  1  0
  7  8  1  0
  8  9  2  0
 10 11  2  0
 10  9  1  0
 12 10  1  0
 13 12  1  0
 13  7  1  0
 14 13  2  0
 15  5  1  0
 15 16  2  0
 17 16  1  0
 18 17  2  0
 19 18  1  0
 19 15  1  0
  1 20  1  0
  3 21  1  0
  8 22  1  0
  9 23  1  0
 12 24  1  0
 16 25  1  0
 17 26  1  0
 18 27  1  0
M  ISO  8  20  14  21  14  22  14  23  14  24   9  25  14  26  14  27  14
M  END
>  <minimizedAffinity>  (1) 
-5.5319252

>  <minimizedRMSD>  (1) 
0.508602619

$$$$
