
     RDKit          3D

 30 32  0  0  0  0  0  0  0  0999 V2000
   36.0190   29.2000   49.1230 C   0  0  0  0  0  0  0  0  0  0  0  0
   36.0580   30.2890   48.2340 C   0  0  0  0  0  0  0  0  0  0  0  0
   35.2110   30.2320   47.1230 C   0  0  0  0  0  0  0  0  0  0  0  0
   34.4120   29.1390   46.9710 N   0  0  0  0  0  0  0  0  0  0  0  0
   34.3980   28.1200   47.8330 C   0  0  0  0  0  0  0  0  0  0  0  0
   35.2100   28.1410   48.9300 N   0  0  0  0  0  0  0  0  0  0  0  0
   36.9450   31.3660   48.5220 N   0  0  0  0  0  0  0  0  0  0  0  0
   36.8850   32.0350   49.6870 C   0  0  0  0  0  0  0  0  0  0  0  0
   37.7690   33.0810   49.9310 C   0  0  0  0  0  0  0  0  0  0  0  0
   38.6440   33.3240   48.9050 C   0  0  0  0  0  0  0  0  0  0  0  0
   39.4640   34.2830   49.1110 O   0  0  0  0  0  0  0  0  0  0  0  0
   38.7340   32.6740   47.7200 N   0  0  0  0  0  0  0  0  0  0  0  0
   37.8400   31.6700   47.5590 C   0  0  0  0  0  0  0  0  0  0  0  0
   37.9010   31.0440   46.4600 O   0  0  0  0  0  0  0  0  0  0  0  0
   31.7980   28.2950   49.2420 Cl  0  0  0  0  0  0  0  0  0  0  0  0
   32.2950   26.9210   48.2560 C   0  0  0  0  0  0  0  0  0  0  0  0
   33.5340   26.9600   47.6510 C   0  0  0  0  0  0  0  0  0  0  0  0
   33.9160   25.8840   46.8820 C   0  0  0  0  0  0  0  0  0  0  0  0
   33.0910   24.7840   46.7120 C   0  0  0  0  0  0  0  0  0  0  0  0
   31.8490   24.7720   47.3330 C   0  0  0  0  0  0  0  0  0  0  0  0
   31.4540   25.8380   48.1030 C   0  0  0  0  0  0  0  0  0  0  0  0
   36.6727   29.2138   50.0076 H   0  0  0  0  0  0  0  0  0  0  0  0
   35.1902   31.0507   46.3886 H   0  0  0  0  0  0  0  0  0  0  0  0
   36.1386   31.7558   50.4453 H   0  0  0  0  0  0  0  0  0  0  0  0
   37.7658   33.6618   50.8652 H   0  0  0  0  0  0  0  0  0  0  0  0
   39.4266   32.9234   46.9996 H   0  0  0  0  0  0  0  0  0  0  0  0
   34.9000   25.8979   46.3906 H   0  0  0  0  0  0  0  0  0  0  0  0
   33.4149   23.9332   46.0946 H   0  0  0  0  0  0  0  0  0  0  0  0
   31.1807   23.9073   47.2079 H   0  0  0  0  0  0  0  0  0  0  0  0
   30.4707   25.8286   48.5960 H   0  0  0  0  0  0  0  0  0  0  0  0
  2  7  1  0
  2  1  2  0
  3  2  1  0
  4  3  2  0
  4  5  1  0
  5  6  2  0
  6  1  1  0
  7  8  1  0
  8  9  2  0
 10 11  2  0
 10  9  1  0
 12 10  1  0
 13 12  1  0
 13  7  1  0
 14 13  2  0
 16 15  1  0
 17  5  1  0
 17 16  2  0
 18 17  1  0
 19 18  2  0
 19 20  1  0
 20 21  2  0
 21 16  1  0
  1 22  1  0
  3 23  1  0
  8 24  1  0
  9 25  1  0
 12 26  1  0
 18 27  1  0
 19 28  1  0
 20 29  1  0
 21 30  1  0
M  ISO  8  22  14  23  14  24  14  25  14  26   9  27  14  28  14  29  14
M  ISO  1  30  14
M  END
>  <minimizedAffinity>  (1) 
-5.44358206

>  <minimizedRMSD>  (1) 
1.21586835

$$$$
