
     RDKit          3D

 22 23  0  0  0  0  0  0  0  0999 V2000
   36.9960   31.4060   48.5290 N   0  0  0  0  0  0  0  0  0  0  0  0
   37.1640   32.1460   49.6510 C   0  0  0  0  0  0  0  0  0  0  0  0
   38.1420   33.1390   49.7040 C   0  0  0  0  0  0  0  0  0  0  0  0
   38.8650   33.2540   48.5320 C   0  0  0  0  0  0  0  0  0  0  0  0
   39.7790   34.1530   48.5260 O   0  0  0  0  0  0  0  0  0  0  0  0
   38.7190   32.5350   47.4080 N   0  0  0  0  0  0  0  0  0  0  0  0
   37.7480   31.5900   47.4360 C   0  0  0  0  0  0  0  0  0  0  0  0
   37.5960   30.9090   46.3980 O   0  0  0  0  0  0  0  0  0  0  0  0
   36.1530   29.2530   49.2750 C   0  0  0  0  0  0  0  0  0  0  0  0
   36.0060   30.3950   48.4640 C   0  0  0  0  0  0  0  0  0  0  0  0
   34.8800   30.4460   47.6480 C   0  0  0  0  0  0  0  0  0  0  0  0
   33.9970   29.4180   47.6690 N   0  0  0  0  0  0  0  0  0  0  0  0
   34.1710   28.3340   48.4640 C   0  0  0  0  0  0  0  0  0  0  0  0
   35.2490   28.2550   49.2650 N   0  0  0  0  0  0  0  0  0  0  0  0
   33.2090   27.2850   48.4440 N   0  0  0  0  0  0  0  0  0  0  0  0
   36.5244   31.9624   50.5269 H   0  0  0  0  0  0  0  0  0  0  0  0
   38.3198   33.7672   50.5893 H   0  0  0  0  0  0  0  0  0  0  0  0
   39.3074   32.6915   46.5772 H   0  0  0  0  0  0  0  0  0  0  0  0
   37.0299   29.1742   49.9344 H   0  0  0  0  0  0  0  0  0  0  0  0
   34.7082   31.3123   46.9922 H   0  0  0  0  0  0  0  0  0  0  0  0
   33.3355   26.4587   49.0457 H   0  0  0  0  0  0  0  0  0  0  0  0
   32.3864   27.3523   47.8278 H   0  0  0  0  0  0  0  0  0  0  0  0
  1  2  1  0
  2  3  2  0
  4  3  1  0
  5  4  2  0
  6  7  1  0
  6  4  1  0
  7  1  1  0
  8  7  2  0
 10  1  1  0
 10  9  2  0
 11 12  2  0
 11 10  1  0
 12 13  1  0
 13 14  2  0
 14  9  1  0
 15 13  1  0
  2 16  1  0
  3 17  1  0
  6 18  1  0
  9 19  1  0
 11 20  1  0
 15 21  1  0
 15 22  1  0
M  ISO  5  16  14  17  14  18   9  19  14  20  14
M  END
>  <minimizedAffinity>  (1) 
-4.89110136

>  <minimizedRMSD>  (1) 
0.0816708654

$$$$
