
     RDKit          3D

 42 45  0  0  1  0  0  0  0  0999 V2000
   33.1510   30.3490   45.6350 C   0  0  1  0  0  0  0  0  0  0  0  0
   32.9690   30.6220   44.4250 N   0  0  0  0  0  0  0  0  0  0  0  0
   32.0490   31.0590   43.6910 C   0  0  0  0  0  0  0  0  0  0  0  0
   31.8150   29.8620   43.1580 N   0  0  0  0  0  0  0  0  0  0  0  0
   32.2040   28.7880   43.9070 C   0  0  0  0  0  0  0  0  0  0  0  0
   31.8710   27.5270   43.3340 C   0  0  0  0  0  0  0  0  0  0  0  0
   32.2660   26.4170   44.0030 C   0  0  0  0  0  0  0  0  0  0  0  0
   32.9610   26.4280   45.1830 C   0  0  0  0  0  0  0  0  0  0  0  0
   33.2230   27.7040   45.6370 C   0  0  0  0  0  0  0  0  0  0  0  0
   32.9170   28.9850   45.1270 C   0  0  0  0  0  0  0  0  0  0  0  0
   34.7570   29.4010   48.8610 C   0  0  0  0  0  0  0  0  0  0  0  0
   36.0600   29.8190   48.5300 C   0  0  0  0  0  0  0  0  0  0  0  0
   36.1450   30.3340   47.2630 C   0  0  0  0  0  0  0  0  0  0  0  0
   35.0380   30.3970   46.4830 N   0  0  0  0  0  0  0  0  0  0  0  0
   33.8230   29.9870   46.8460 C   0  0  0  0  0  0  0  0  0  0  0  0
   33.7650   29.5050   48.0390 N   0  0  0  0  0  0  0  0  0  0  0  0
   37.4530   30.7840   46.8490 N   0  0  0  0  0  0  0  0  0  0  0  0
   37.4760   30.8350   50.3470 C   0  0  1  0  0  0  0  0  0  0  0  0
   37.1080   29.6660   49.5340 C   0  0  1  0  0  0  0  0  0  0  0  0
   36.9220   28.5380   50.5160 C   0  0  0  0  0  0  0  0  0  0  0  0
   37.6450   28.9700   51.6290 O   0  0  0  0  0  0  0  0  0  0  0  0
   37.3590   30.3260   51.7640 C   0  0  0  0  0  0  0  0  0  0  0  0
   38.8230   31.1770   50.2130 O   0  0  0  0  0  0  0  0  0  0  0  0
   32.9823   31.3278   46.1077 H   0  0  0  0  0  0  0  0  0  0  0  0
   33.7234   31.2998   44.2451 H   0  0  0  0  0  0  0  0  0  0  0  0
   31.1942   31.4622   44.2538 H   0  0  0  0  0  0  0  0  0  0  0  0
   32.2606   31.9060   43.0218 H   0  0  0  0  0  0  0  0  0  0  0  0
   31.3677   29.7522   42.2367 H   0  0  0  0  0  0  0  0  0  0  0  0
   31.3158   27.4573   42.3870 H   0  0  0  0  0  0  0  0  0  0  0  0
   32.0108   25.4393   43.5683 H   0  0  0  0  0  0  0  0  0  0  0  0
   33.2766   25.5168   45.7122 H   0  0  0  0  0  0  0  0  0  0  0  0
   33.7812   27.7287   46.5845 H   0  0  0  0  0  0  0  0  0  0  0  0
   34.5764   28.9697   49.8567 H   0  0  0  0  0  0  0  0  0  0  0  0
   37.5869   31.1819   45.9084 H   0  0  0  0  0  0  0  0  0  0  0  0
   38.2522   30.7071   47.4942 H   0  0  0  0  0  0  0  0  0  0  0  0
   36.8557   31.6986   50.0651 H   0  0  0  0  0  0  0  0  0  0  0  0
   37.9216   29.4579   48.8235 H   0  0  0  0  0  0  0  0  0  0  0  0
   35.8591   28.4004   50.7637 H   0  0  0  0  0  0  0  0  0  0  0  0
   37.2606   27.5655   50.1292 H   0  0  0  0  0  0  0  0  0  0  0  0
   38.0867   30.8207   52.4241 H   0  0  0  0  0  0  0  0  0  0  0  0
   36.3757   30.5208   52.2170 H   0  0  0  0  0  0  0  0  0  0  0  0
   39.2282   31.2799   51.1104 H   0  0  0  0  0  0  0  0  0  0  0  0
  1 15  1  0
  2  1  1  0
  3  2  1  0
  4  3  1  0
  4  5  1  0
  5 10  2  0
  6  5  1  0
  6  7  2  0
  7  8  1  0
  8  9  2  0
 10  1  1  0
 10  9  1  0
 12 11  2  0
 13 12  1  0
 14 15  1  0
 14 13  2  0
 15 16  2  0
 16 11  1  0
 17 13  1  0
 18 23  1  0
 18 22  1  0
 19 12  1  0
 19 18  1  0
 19 20  1  0
 20 21  1  0
 21 22  1  0
  1 24  1  1
  2 25  1  0
  3 26  1  0
  3 27  1  0
  4 28  1  0
  6 29  1  0
  7 30  1  0
  8 31  1  0
  9 32  1  0
 11 33  1  0
 17 34  1  0
 17 35  1  0
 18 36  1  1
 19 37  1  6
 20 38  1  0
 20 39  1  0
 22 40  1  0
 22 41  1  0
 23 42  1  0
M  ISO  8  24  13  25   5  26  13  27  13  29  14  30  14  31  14  32  14
M  ISO  8  33  14  36  13  37  13  38  13  39  13  40  13  41  13  42   3
M  END
>  <minimizedAffinity>  (1) 
-4.50308752

>  <minimizedRMSD>  (1) 
2.44676828

$$$$
