
     RDKit          3D

 41 44  0  0  0  0  0  0  0  0999 V2000
   32.4690   27.0580   48.0670 O   0  0  0  0  0  0  0  0  0  0  0  0
   31.1470   27.4520   48.2630 C   0  0  0  0  0  0  0  0  0  0  0  0
   30.8320   27.7630   49.5690 C   0  0  0  0  0  0  0  0  0  0  0  0
   29.5620   28.1680   49.9080 C   0  0  0  0  0  0  0  0  0  0  0  0
   28.5920   28.2620   48.9180 C   0  0  0  0  0  0  0  0  0  0  0  0
   28.9190   27.9460   47.6020 C   0  0  0  0  0  0  0  0  0  0  0  0
   30.1890   27.5450   47.2860 C   0  0  0  0  0  0  0  0  0  0  0  0
   30.5420   30.0330   45.7770 Cl  0  0  0  0  0  0  0  0  0  0  0  0
   30.7230   28.3880   45.1780 C   0  0  0  0  0  0  0  0  0  0  0  0
   30.5480   27.2070   45.9120 C   0  0  0  0  0  0  0  0  0  0  0  0
   30.7380   26.0060   45.2590 C   0  0  0  0  0  0  0  0  0  0  0  0
   31.0800   25.9800   43.9490 C   0  0  0  0  0  0  0  0  0  0  0  0
   31.2550   27.1290   43.2110 C   0  0  0  0  0  0  0  0  0  0  0  0
   31.0780   28.3310   43.8240 C   0  0  0  0  0  0  0  0  0  0  0  0
   35.3970   28.8470   49.1460 C   0  0  0  0  0  0  0  0  0  0  0  0
   35.3300   30.0310   48.4090 C   0  0  0  0  0  0  0  0  0  0  0  0
   34.2580   30.1870   47.5420 C   0  0  0  0  0  0  0  0  0  0  0  0
   33.3400   29.1850   47.4620 N   0  0  0  0  0  0  0  0  0  0  0  0
   33.4260   28.0630   48.1760 C   0  0  0  0  0  0  0  0  0  0  0  0
   34.4680   27.8820   49.0360 N   0  0  0  0  0  0  0  0  0  0  0  0
   36.3580   30.9940   48.5860 N   0  0  0  0  0  0  0  0  0  0  0  0
   36.5190   31.6720   49.7160 C   0  0  0  0  0  0  0  0  0  0  0  0
   37.5430   32.6030   49.8270 C   0  0  0  0  0  0  0  0  0  0  0  0
   38.3270   32.7390   48.7090 C   0  0  0  0  0  0  0  0  0  0  0  0
   39.2760   33.5820   48.7730 O   0  0  0  0  0  0  0  0  0  0  0  0
   38.2060   32.0830   47.5570 N   0  0  0  0  0  0  0  0  0  0  0  0
   37.1840   31.1820   47.5000 C   0  0  0  0  0  0  0  0  0  0  0  0
   37.0500   30.5440   46.4070 O   0  0  0  0  0  0  0  0  0  0  0  0
   31.6047   27.6864   50.3481 H   0  0  0  0  0  0  0  0  0  0  0  0
   29.3171   28.4148   50.9516 H   0  0  0  0  0  0  0  0  0  0  0  0
   27.5715   28.5842   49.1723 H   0  0  0  0  0  0  0  0  0  0  0  0
   28.1547   28.0188   46.8142 H   0  0  0  0  0  0  0  0  0  0  0  0
   30.6104   25.0612   45.8078 H   0  0  0  0  0  0  0  0  0  0  0  0
   31.2230   25.0065   43.4572 H   0  0  0  0  0  0  0  0  0  0  0  0
   31.5322   27.0765   42.1478 H   0  0  0  0  0  0  0  0  0  0  0  0
   31.2143   29.2618   43.2539 H   0  0  0  0  0  0  0  0  0  0  0  0
   36.2379   28.6991   49.8396 H   0  0  0  0  0  0  0  0  0  0  0  0
   34.1525   31.0978   46.9343 H   0  0  0  0  0  0  0  0  0  0  0  0
   35.8411   31.4962   50.5643 H   0  0  0  0  0  0  0  0  0  0  0  0
   37.7132   33.1880   50.7429 H   0  0  0  0  0  0  0  0  0  0  0  0
   38.8412   32.2450   46.7626 H   0  0  0  0  0  0  0  0  0  0  0  0
  1 19  1  0
  1  2  1  0
  2  3  2  0
  3  4  1  0
  5  4  2  0
  6  5  1  0
  7  6  2  0
  7  2  1  0
  9  8  1  0
  9 10  2  0
 10  7  1  0
 11 10  1  0
 12 11  2  0
 13 14  2  0
 13 12  1  0
 14  9  1  0
 16 21  1  0
 16 15  2  0
 17 16  1  0
 18 17  2  0
 18 19  1  0
 19 20  2  0
 20 15  1  0
 21 22  1  0
 22 23  2  0
 24 25  2  0
 24 23  1  0
 26 24  1  0
 27 26  1  0
 27 21  1  0
 28 27  2  0
  3 29  1  0
  4 30  1  0
  5 31  1  0
  6 32  1  0
 11 33  1  0
 12 34  1  0
 13 35  1  0
 14 36  1  0
 15 37  1  0
 17 38  1  0
 22 39  1  0
 23 40  1  0
 26 41  1  0
M  ISO  8  29  14  30  14  31  14  32  14  33  14  34  14  35  14  36  14
M  ISO  5  37  14  38  14  39  14  40  14  41   9
M  END
>  <minimizedAffinity>  (1) 
-5.90714979

>  <minimizedRMSD>  (1) 
0.554659724

$$$$
