
     RDKit          3D

 46 49  0  0  0  0  0  0  0  0999 V2000
   35.4290   28.8360   49.1520 C   0  0  0  0  0  0  0  0  0  0  0  0
   35.3590   30.0210   48.4160 C   0  0  0  0  0  0  0  0  0  0  0  0
   34.2620   30.1990   47.5570 C   0  0  0  0  0  0  0  0  0  0  0  0
   33.3210   29.2180   47.4740 N   0  0  0  0  0  0  0  0  0  0  0  0
   33.4260   28.0900   48.2000 C   0  0  0  0  0  0  0  0  0  0  0  0
   34.4790   27.8900   49.0430 N   0  0  0  0  0  0  0  0  0  0  0  0
   36.3840   30.9870   48.5650 N   0  0  0  0  0  0  0  0  0  0  0  0
   36.5310   31.6750   49.7140 C   0  0  0  0  0  0  0  0  0  0  0  0
   37.5570   32.6220   49.8220 C   0  0  0  0  0  0  0  0  0  0  0  0
   38.3320   32.7620   48.7210 C   0  0  0  0  0  0  0  0  0  0  0  0
   39.2680   33.6100   48.7870 O   0  0  0  0  0  0  0  0  0  0  0  0
   38.2130   32.1040   47.5850 N   0  0  0  0  0  0  0  0  0  0  0  0
   37.2060   31.1860   47.5030 C   0  0  0  0  0  0  0  0  0  0  0  0
   37.0750   30.5430   46.4200 O   0  0  0  0  0  0  0  0  0  0  0  0
   32.4830   27.0600   48.1460 O   0  0  0  0  0  0  0  0  0  0  0  0
   31.1600   27.4680   48.2530 C   0  0  0  0  0  0  0  0  0  0  0  0
   30.8300   27.7790   49.5600 C   0  0  0  0  0  0  0  0  0  0  0  0
   29.5580   28.2090   49.8950 C   0  0  0  0  0  0  0  0  0  0  0  0
   28.6060   28.3250   48.8840 C   0  0  0  0  0  0  0  0  0  0  0  0
   28.9410   28.0130   47.5850 C   0  0  0  0  0  0  0  0  0  0  0  0
   30.1950   27.5900   47.2590 C   0  0  0  0  0  0  0  0  0  0  0  0
   30.6940   27.2310   45.9700 N   0  0  0  0  0  0  0  0  0  0  0  0
   31.1490   28.2690   45.0780 C   0  0  0  0  0  0  0  0  0  0  0  0
   31.8230   27.6330   43.8840 C   0  0  0  0  0  0  0  0  0  0  0  0
   32.7730   26.5360   44.2720 C   0  0  0  0  0  0  0  0  0  0  0  0
   32.2040   25.5340   45.2280 C   0  0  0  0  0  0  0  0  0  0  0  0
   30.7570   25.8550   45.5340 C   0  0  0  0  0  0  0  0  0  0  0  0
   36.2769   28.6733   49.8336 H   0  0  0  0  0  0  0  0  0  0  0  0
   34.1644   31.1176   46.9599 H   0  0  0  0  0  0  0  0  0  0  0  0
   35.8512   31.4945   50.5597 H   0  0  0  0  0  0  0  0  0  0  0  0
   37.7215   33.2104   50.7367 H   0  0  0  0  0  0  0  0  0  0  0  0
   38.8511   32.2748   46.7947 H   0  0  0  0  0  0  0  0  0  0  0  0
   31.5924   27.6828   50.3471 H   0  0  0  0  0  0  0  0  0  0  0  0
   29.3039   28.4539   50.9368 H   0  0  0  0  0  0  0  0  0  0  0  0
   27.5877   28.6655   49.1232 H   0  0  0  0  0  0  0  0  0  0  0  0
   28.1814   28.1071   46.7949 H   0  0  0  0  0  0  0  0  0  0  0  0
   30.2901   28.8678   44.7408 H   0  0  0  0  0  0  0  0  0  0  0  0
   31.8619   28.9225   45.6021 H   0  0  0  0  0  0  0  0  0  0  0  0
   32.3835   28.4086   43.3415 H   0  0  0  0  0  0  0  0  0  0  0  0
   31.0371   27.1863   43.2572 H   0  0  0  0  0  0  0  0  0  0  0  0
   33.0772   26.0051   43.3579 H   0  0  0  0  0  0  0  0  0  0  0  0
   33.6158   27.0188   44.7883 H   0  0  0  0  0  0  0  0  0  0  0  0
   32.2654   24.5311   44.7802 H   0  0  0  0  0  0  0  0  0  0  0  0
   32.7813   25.5677   46.1638 H   0  0  0  0  0  0  0  0  0  0  0  0
   30.1443   25.7201   44.6304 H   0  0  0  0  0  0  0  0  0  0  0  0
   30.3714   25.1852   46.3168 H   0  0  0  0  0  0  0  0  0  0  0  0
  2  7  1  0
  2  1  2  0
  3  2  1  0
  4  3  2  0
  4  5  1  0
  5  6  2  0
  6  1  1  0
  7  8  1  0
  8  9  2  0
 10 11  2  0
 10  9  1  0
 12 10  1  0
 13 12  1  0
 13  7  1  0
 14 13  2  0
 15  5  1  0
 15 16  1  0
 16 17  2  0
 17 18  1  0
 19 18  2  0
 20 19  1  0
 21 20  2  0
 21 16  1  0
 22 21  1  0
 23 22  1  0
 24 25  1  0
 24 23  1  0
 25 26  1  0
 26 27  1  0
 27 22  1  0
  1 28  1  0
  3 29  1  0
  8 30  1  0
  9 31  1  0
 12 32  1  0
 17 33  1  0
 18 34  1  0
 19 35  1  0
 20 36  1  0
 23 37  1  0
 23 38  1  0
 24 39  1  0
 24 40  1  0
 25 41  1  0
 25 42  1  0
 26 43  1  0
 26 44  1  0
 27 45  1  0
 27 46  1  0
M  ISO  8  28  14  29  14  30  14  31  14  32   9  33  14  34  14  35  14
M  ISO  8  36  14  37  13  38  13  39  13  40  13  41  13  42  13  43  13
M  ISO  3  44  13  45  13  46  13
M  END
>  <minimizedAffinity>  (1) 
-5.78040266

>  <minimizedRMSD>  (1) 
0.64634943

$$$$
