
     RDKit          3D

 38 41  0  0  0  0  0  0  0  0999 V2000
   35.4430   28.8610   49.1510 C   0  0  0  0  0  0  0  0  0  0  0  0
   35.3740   30.0600   48.4090 C   0  0  0  0  0  0  0  0  0  0  0  0
   34.2850   30.2210   47.5490 C   0  0  0  0  0  0  0  0  0  0  0  0
   33.3590   29.2340   47.4680 N   0  0  0  0  0  0  0  0  0  0  0  0
   33.4490   28.1040   48.1860 C   0  0  0  0  0  0  0  0  0  0  0  0
   34.5030   27.9060   49.0420 N   0  0  0  0  0  0  0  0  0  0  0  0
   36.3970   31.0180   48.5750 N   0  0  0  0  0  0  0  0  0  0  0  0
   36.5490   31.7050   49.7140 C   0  0  0  0  0  0  0  0  0  0  0  0
   37.5820   32.6400   49.8160 C   0  0  0  0  0  0  0  0  0  0  0  0
   38.3600   32.7650   48.7140 C   0  0  0  0  0  0  0  0  0  0  0  0
   39.3100   33.6150   48.7910 O   0  0  0  0  0  0  0  0  0  0  0  0
   38.2430   32.1080   47.5780 N   0  0  0  0  0  0  0  0  0  0  0  0
   37.2250   31.2000   47.5030 C   0  0  0  0  0  0  0  0  0  0  0  0
   37.0960   30.5600   46.4210 O   0  0  0  0  0  0  0  0  0  0  0  0
   32.4980   27.0770   48.1110 O   0  0  0  0  0  0  0  0  0  0  0  0
   31.1770   27.4810   48.2540 C   0  0  0  0  0  0  0  0  0  0  0  0
   30.8300   27.7660   49.5610 C   0  0  0  0  0  0  0  0  0  0  0  0
   29.5490   28.1820   49.8830 C   0  0  0  0  0  0  0  0  0  0  0  0
   28.6180   28.3090   48.8550 C   0  0  0  0  0  0  0  0  0  0  0  0
   28.9720   28.0240   47.5600 C   0  0  0  0  0  0  0  0  0  0  0  0
   30.2460   27.6110   47.2570 C   0  0  0  0  0  0  0  0  0  0  0  0
   30.6820   27.2950   45.9110 C   0  0  0  0  0  0  0  0  0  0  0  0
   30.5830   26.0180   45.3660 C   0  0  0  0  0  0  0  0  0  0  0  0
   31.0890   26.0900   44.0850 C   0  0  0  0  0  0  0  0  0  0  0  0
   31.4770   27.3370   43.8510 N   0  0  0  0  0  0  0  0  0  0  0  0
   31.2320   28.0270   44.9290 N   0  0  0  0  0  0  0  0  0  0  0  0
   36.2886   28.7039   49.8368 H   0  0  0  0  0  0  0  0  0  0  0  0
   34.1803   31.1352   46.9463 H   0  0  0  0  0  0  0  0  0  0  0  0
   35.8676   31.5350   50.5607 H   0  0  0  0  0  0  0  0  0  0  0  0
   37.7517   33.2329   50.7269 H   0  0  0  0  0  0  0  0  0  0  0  0
   38.8846   32.2702   46.7888 H   0  0  0  0  0  0  0  0  0  0  0  0
   31.5820   27.6609   50.3569 H   0  0  0  0  0  0  0  0  0  0  0  0
   29.2738   28.4064   50.9241 H   0  0  0  0  0  0  0  0  0  0  0  0
   27.5937   28.6394   49.0822 H   0  0  0  0  0  0  0  0  0  0  0  0
   28.2277   28.1275   46.7567 H   0  0  0  0  0  0  0  0  0  0  0  0
   30.1788   25.1232   45.8618 H   0  0  0  0  0  0  0  0  0  0  0  0
   31.1592   25.2526   43.3752 H   0  0  0  0  0  0  0  0  0  0  0  0
   31.8943   27.6934   42.9794 H   0  0  0  0  0  0  0  0  0  0  0  0
  2  7  1  0
  2  1  2  0
  3  2  1  0
  4  3  2  0
  4  5  1  0
  5  6  2  0
  6  1  1  0
  7  8  1  0
  8  9  2  0
 10 11  2  0
 10  9  1  0
 12 10  1  0
 13 12  1  0
 13  7  1  0
 14 13  2  0
 15  5  1  0
 15 16  1  0
 16 17  2  0
 17 18  1  0
 19 18  2  0
 20 19  1  0
 21 20  2  0
 21 16  1  0
 22 21  1  0
 23 22  1  0
 24 23  2  0
 25 24  1  0
 25 26  1  0
 26 22  2  0
  1 27  1  0
  3 28  1  0
  8 29  1  0
  9 30  1  0
 12 31  1  0
 17 32  1  0
 18 33  1  0
 19 34  1  0
 20 35  1  0
 23 36  1  0
 24 37  1  0
 25 38  1  0
M  ISO  8  27  14  28  14  29  14  30  14  31   9  32  14  33  14  34  14
M  ISO  4  35  14  36  14  37  14  38   9
M  END
>  <minimizedAffinity>  (1) 
-5.72164679

>  <minimizedRMSD>  (1) 
0.302294463

$$$$
