
     RDKit          3D

 29 31  0  0  0  0  0  0  0  0999 V2000
   35.6890   28.9410   50.3090 C   0  0  0  0  0  0  0  0  0  0  0  0
   36.1270   30.1330   49.7160 C   0  0  0  0  0  0  0  0  0  0  0  0
   35.6120   30.4640   48.4650 C   0  0  0  0  0  0  0  0  0  0  0  0
   34.7180   29.5920   47.9150 N   0  0  0  0  0  0  0  0  0  0  0  0
   34.3140   28.4630   48.4910 C   0  0  0  0  0  0  0  0  0  0  0  0
   34.8020   28.1590   49.6690 N   0  0  0  0  0  0  0  0  0  0  0  0
   33.3560   27.7600   47.6420 C   0  0  0  0  0  0  0  0  0  0  0  0
   33.6880   27.2520   46.4040 C   0  0  0  0  0  0  0  0  0  0  0  0
   32.8430   26.5860   45.5590 C   0  0  0  0  0  0  0  0  0  0  0  0
   31.5430   26.3860   45.9430 C   0  0  0  0  0  0  0  0  0  0  0  0
   31.1360   26.8650   47.1690 C   0  0  0  0  0  0  0  0  0  0  0  0
   29.8340   26.6410   47.5050 C   0  0  0  0  0  0  0  0  0  0  0  0
   29.3410   27.0840   48.7080 C   0  0  0  0  0  0  0  0  0  0  0  0
   30.2350   27.7610   49.5440 C   0  0  0  0  0  0  0  0  0  0  0  0
   31.5390   27.9520   49.1410 C   0  0  0  0  0  0  0  0  0  0  0  0
   32.0390   27.5170   47.9480 C   0  0  0  0  0  0  0  0  0  0  0  0
   37.1250   30.9790   50.4560 C   0  0  0  0  0  0  0  0  0  0  0  0
   38.3840   30.8820   49.8270 F   0  0  0  0  0  0  0  0  0  0  0  0
   36.7160   32.2830   50.3570 F   0  0  0  0  0  0  0  0  0  0  0  0
   37.2620   30.6140   51.7710 F   0  0  0  0  0  0  0  0  0  0  0  0
   36.0707   28.6454   51.2974 H   0  0  0  0  0  0  0  0  0  0  0  0
   35.9120   31.3855   47.9445 H   0  0  0  0  0  0  0  0  0  0  0  0
   34.7248   27.3950   46.0655 H   0  0  0  0  0  0  0  0  0  0  0  0
   33.2015   26.2169   44.5868 H   0  0  0  0  0  0  0  0  0  0  0  0
   30.8390   25.8541   45.2861 H   0  0  0  0  0  0  0  0  0  0  0  0
   29.1744   26.1024   46.8087 H   0  0  0  0  0  0  0  0  0  0  0  0
   28.2940   26.9146   48.9998 H   0  0  0  0  0  0  0  0  0  0  0  0
   29.8982   28.1398   50.5203 H   0  0  0  0  0  0  0  0  0  0  0  0
   32.2174   28.4871   49.8217 H   0  0  0  0  0  0  0  0  0  0  0  0
  2  1  2  0
  2 17  1  0
  3  2  1  0
  4  3  2  0
  4  5  1  0
  5  6  2  0
  6  1  1  0
  7 16  1  0
  7  5  1  0
  8  7  2  0
  9 10  2  0
  9  8  1  0
 10 11  1  0
 11 12  1  0
 11 16  2  0
 12 13  2  0
 13 14  1  0
 15 14  2  0
 16 15  1  0
 17 20  1  0
 18 17  1  0
 19 17  1  0
  1 21  1  0
  3 22  1  0
  8 23  1  0
  9 24  1  0
 10 25  1  0
 12 26  1  0
 13 27  1  0
 14 28  1  0
 15 29  1  0
M  ISO  8  21  14  22  14  23  14  24  14  25  14  26  14  27  14  28  14
M  ISO  1  29  14
M  END
>  <minimizedAffinity>  (1) 
-5.86025

>  <minimizedRMSD>  (1) 
0.6205917

$$$$
