
     RDKit          3D

 16 16  0  0  0  0  0  0  0  0999 V2000
   35.5510   29.1520   50.3910 C   0  0  0  0  0  0  0  0  0  0  0  0
   36.2350   30.1650   49.6990 C   0  0  0  0  0  0  0  0  0  0  0  0
   36.0130   30.3180   48.3270 C   0  0  0  0  0  0  0  0  0  0  0  0
   35.1340   29.4610   47.7320 N   0  0  0  0  0  0  0  0  0  0  0  0
   34.4900   28.4960   48.4240 C   0  0  0  0  0  0  0  0  0  0  0  0
   34.6860   28.3320   49.7300 N   0  0  0  0  0  0  0  0  0  0  0  0
   37.1770   31.0300   50.4950 C   0  0  0  0  0  0  0  0  0  0  0  0
   38.4520   31.0030   49.8940 F   0  0  0  0  0  0  0  0  0  0  0  0
   36.7300   32.3220   50.4130 F   0  0  0  0  0  0  0  0  0  0  0  0
   37.2930   30.6430   51.8000 F   0  0  0  0  0  0  0  0  0  0  0  0
   33.5340   27.5760   47.7370 C   0  0  0  0  0  0  0  0  0  0  0  0
   34.1670   26.4070   47.3370 F   0  0  0  0  0  0  0  0  0  0  0  0
   33.0040   28.1690   46.6040 F   0  0  0  0  0  0  0  0  0  0  0  0
   32.5160   27.2040   48.6090 F   0  0  0  0  0  0  0  0  0  0  0  0
   35.7141   29.0200   51.4708 H   0  0  0  0  0  0  0  0  0  0  0  0
   36.5277   31.0999   47.7492 H   0  0  0  0  0  0  0  0  0  0  0  0
  2  1  2  0
  2  7  1  0
  3  2  1  0
  4  3  2  0
  4  5  1  0
  5  6  2  0
  6  1  1  0
  7 10  1  0
  8  7  1  0
  9  7  1  0
 11  5  1  0
 11 14  1  0
 12 11  1  0
 13 11  1  0
  1 15  1  0
  3 16  1  0
M  ISO  2  15  14  16  14
M  END
>  <minimizedAffinity>  (1) 
-4.78412151

>  <minimizedRMSD>  (1) 
0.346537143

$$$$
