
     RDKit          3D

 15 15  0  0  0  0  0  0  0  0999 V2000
   35.4830   29.1220   50.3620 C   0  0  0  0  0  0  0  0  0  0  0  0
   36.2030   30.1330   49.7010 C   0  0  0  0  0  0  0  0  0  0  0  0
   35.9980   30.3130   48.3190 C   0  0  0  0  0  0  0  0  0  0  0  0
   35.1020   29.4870   47.7070 N   0  0  0  0  0  0  0  0  0  0  0  0
   34.4290   28.5300   48.3700 C   0  0  0  0  0  0  0  0  0  0  0  0
   34.6130   28.3440   49.6890 N   0  0  0  0  0  0  0  0  0  0  0  0
   37.1580   30.9660   50.5030 C   0  0  0  0  0  0  0  0  0  0  0  0
   38.4430   30.8990   49.9330 F   0  0  0  0  0  0  0  0  0  0  0  0
   36.7510   32.2710   50.4200 F   0  0  0  0  0  0  0  0  0  0  0  0
   37.2440   30.5720   51.8070 F   0  0  0  0  0  0  0  0  0  0  0  0
   33.4770   27.6770   47.6370 C   0  0  0  0  0  0  0  0  0  0  0  0
   32.4970   27.1560   48.2710 O   0  0  0  0  0  0  0  0  0  0  0  0
   35.6318   28.9646   51.4405 H   0  0  0  0  0  0  0  0  0  0  0  0
   36.5387   31.0883   47.7564 H   0  0  0  0  0  0  0  0  0  0  0  0
   33.6077   27.4914   46.5607 H   0  0  0  0  0  0  0  0  0  0  0  0
  2  1  2  0
  2  7  1  0
  3  2  1  0
  4  3  2  0
  4  5  1  0
  5  6  2  0
  6  1  1  0
  7 10  1  0
  8  7  1  0
  9  7  1  0
 11 12  2  0
 11  5  1  0
  1 13  1  0
  3 14  1  0
 11 15  1  0
M  ISO  3  13  14  14  14  15   6
M  END
>  <minimizedAffinity>  (1) 
-4.32834387

>  <minimizedRMSD>  (1) 
0.267033756

$$$$
