
     RDKit          3D

 37 39  0  0  0  0  0  0  0  0999 V2000
   32.8540   30.9120   46.4550 Cl  0  0  0  0  0  0  0  0  0  0  0  0
   32.9180   29.2530   46.9890 C   0  0  0  0  0  0  0  0  0  0  0  0
   33.9770   28.8280   47.7570 C   0  0  0  0  0  0  0  0  0  0  0  0
   34.0940   27.5010   48.2120 C   0  0  0  0  0  0  0  0  0  0  0  0
   33.0750   26.6300   47.8460 C   0  0  0  0  0  0  0  0  0  0  0  0
   32.0050   27.0370   47.0770 C   0  0  0  0  0  0  0  0  0  0  0  0
   30.7780   25.8770   46.6660 Cl  0  0  0  0  0  0  0  0  0  0  0  0
   31.9320   28.3510   46.6520 C   0  0  0  0  0  0  0  0  0  0  0  0
   30.8280   28.8580   45.8440 C   0  0  0  0  0  0  0  0  0  0  0  0
   30.2740   28.0770   44.7420 C   0  0  0  0  0  0  0  0  0  0  0  0
   29.0900   28.9250   44.2180 C   0  0  0  0  0  0  0  0  0  0  0  0
   28.0200   28.8360   45.1010 O   0  0  0  0  0  0  0  0  0  0  0  0
   28.3970   28.3910   46.3450 C   0  0  0  0  0  0  0  0  0  0  0  0
   29.6670   29.1130   46.8230 C   0  0  0  0  0  0  0  0  0  0  0  0
   36.1430   31.0700   49.7380 C   0  0  0  0  0  0  0  0  0  0  0  0
   37.1120   31.4400   48.7760 C   0  0  0  0  0  0  0  0  0  0  0  0
   37.0070   30.9230   47.4880 C   0  0  0  0  0  0  0  0  0  0  0  0
   35.9660   30.0860   47.2390 N   0  0  0  0  0  0  0  0  0  0  0  0
   35.0550   29.7390   48.1470 C   0  0  0  0  0  0  0  0  0  0  0  0
   35.1310   30.2240   49.4020 N   0  0  0  0  0  0  0  0  0  0  0  0
   38.1980   32.3730   49.2110 C   0  0  0  0  0  0  0  0  0  0  0  0
   39.0560   32.6400   48.1400 F   0  0  0  0  0  0  0  0  0  0  0  0
   37.6110   33.5650   49.5740 F   0  0  0  0  0  0  0  0  0  0  0  0
   38.9330   31.8960   50.2660 F   0  0  0  0  0  0  0  0  0  0  0  0
   34.9462   27.1713   48.8243 H   0  0  0  0  0  0  0  0  0  0  0  0
   33.1233   25.5831   48.1801 H   0  0  0  0  0  0  0  0  0  0  0  0
   31.2789   29.7159   45.3238 H   0  0  0  0  0  0  0  0  0  0  0  0
   31.0263   27.9312   43.9528 H   0  0  0  0  0  0  0  0  0  0  0  0
   29.9586   27.0724   45.0603 H   0  0  0  0  0  0  0  0  0  0  0  0
   29.4041   29.9755   44.1296 H   0  0  0  0  0  0  0  0  0  0  0  0
   28.7802   28.5466   43.2327 H   0  0  0  0  0  0  0  0  0  0  0  0
   27.5826   28.5839   47.0588 H   0  0  0  0  0  0  0  0  0  0  0  0
   28.6068   27.3129   46.2844 H   0  0  0  0  0  0  0  0  0  0  0  0
   29.9439   28.7385   47.8195 H   0  0  0  0  0  0  0  0  0  0  0  0
   29.4682   30.1940   46.8682 H   0  0  0  0  0  0  0  0  0  0  0  0
   36.2076   31.4676   50.7616 H   0  0  0  0  0  0  0  0  0  0  0  0
   37.7355   31.1809   46.7052 H   0  0  0  0  0  0  0  0  0  0  0  0
  1  2  1  0
  2  3  2  0
  3 19  1  0
  3  4  1  0
  5  4  2  0
  6  5  1  0
  7  6  1  0
  8  2  1  0
  8  6  2  0
  9  8  1  0
  9 14  1  0
 10  9  1  0
 11 10  1  0
 11 12  1  0
 12 13  1  0
 13 14  1  0
 16 21  1  0
 16 15  2  0
 17 16  1  0
 18 17  2  0
 18 19  1  0
 19 20  2  0
 20 15  1  0
 21 23  1  0
 21 24  1  0
 22 21  1  0
  4 25  1  0
  5 26  1  0
  9 27  1  0
 10 28  1  0
 10 29  1  0
 11 30  1  0
 11 31  1  0
 13 32  1  0
 13 33  1  0
 14 34  1  0
 14 35  1  0
 15 36  1  0
 17 37  1  0
M  ISO  8  25  14  26  14  27  13  28  13  29  13  30  13  31  13  32  13
M  ISO  5  33  13  34  13  35  13  36  14  37  14
M  END
>  <minimizedAffinity>  (1) 
-5.772192

>  <minimizedRMSD>  (1) 
1.83489239

$$$$
