
     RDKit          3D

 32 34  0  0  0  0  0  0  0  0999 V2000
   32.9080   30.9450   46.4980 Cl  0  0  0  0  0  0  0  0  0  0  0  0
   33.0020   29.2820   47.0510 C   0  0  0  0  0  0  0  0  0  0  0  0
   34.0900   28.8500   47.8120 C   0  0  0  0  0  0  0  0  0  0  0  0
   34.1940   27.5420   48.2650 C   0  0  0  0  0  0  0  0  0  0  0  0
   33.1720   26.6650   47.9360 C   0  0  0  0  0  0  0  0  0  0  0  0
   32.0800   27.0690   47.1830 C   0  0  0  0  0  0  0  0  0  0  0  0
   30.8390   25.8930   46.8170 Cl  0  0  0  0  0  0  0  0  0  0  0  0
   32.0020   28.3820   46.7430 C   0  0  0  0  0  0  0  0  0  0  0  0
   36.2400   31.1620   49.7130 C   0  0  0  0  0  0  0  0  0  0  0  0
   37.1990   31.5300   48.7400 C   0  0  0  0  0  0  0  0  0  0  0  0
   37.0860   30.9810   47.4600 C   0  0  0  0  0  0  0  0  0  0  0  0
   36.0570   30.1160   47.2170 N   0  0  0  0  0  0  0  0  0  0  0  0
   35.1640   29.7830   48.1530 C   0  0  0  0  0  0  0  0  0  0  0  0
   35.2430   30.2960   49.3960 N   0  0  0  0  0  0  0  0  0  0  0  0
   38.2670   32.4810   49.1390 C   0  0  0  0  0  0  0  0  0  0  0  0
   39.1750   32.6530   48.0740 F   0  0  0  0  0  0  0  0  0  0  0  0
   37.6950   33.7010   49.3800 F   0  0  0  0  0  0  0  0  0  0  0  0
   38.9750   32.0670   50.2400 F   0  0  0  0  0  0  0  0  0  0  0  0
   30.8510   28.8020   45.9510 C   0  0  0  0  0  0  0  0  0  0  0  0
   29.7260   29.2670   46.5990 C   0  0  0  0  0  0  0  0  0  0  0  0
   28.6150   29.6720   45.8500 C   0  0  0  0  0  0  0  0  0  0  0  0
   28.7870   29.5520   44.4820 C   0  0  0  0  0  0  0  0  0  0  0  0
   29.9020   29.0920   43.8140 C   0  0  0  0  0  0  0  0  0  0  0  0
   30.9410   28.7160   44.6030 N   0  0  0  0  0  0  0  0  0  0  0  0
   35.0564   27.2132   48.8635 H   0  0  0  0  0  0  0  0  0  0  0  0
   33.2288   25.6221   48.2811 H   0  0  0  0  0  0  0  0  0  0  0  0
   36.3021   31.5785   50.7292 H   0  0  0  0  0  0  0  0  0  0  0  0
   37.8062   31.2384   46.6694 H   0  0  0  0  0  0  0  0  0  0  0  0
   29.7019   29.3193   47.6975 H   0  0  0  0  0  0  0  0  0  0  0  0
   27.6892   30.0512   46.3072 H   0  0  0  0  0  0  0  0  0  0  0  0
   27.9364   29.8589   43.8557 H   0  0  0  0  0  0  0  0  0  0  0  0
   29.9467   29.0336   42.7165 H   0  0  0  0  0  0  0  0  0  0  0  0
  1  2  1  0
  2  3  2  0
  3 13  1  0
  3  4  1  0
  5  4  2  0
  6  5  1  0
  7  6  1  0
  8  2  1  0
  8  6  2  0
 10 15  1  0
 10  9  2  0
 11 10  1  0
 12 11  2  0
 12 13  1  0
 13 14  2  0
 14  9  1  0
 15 17  1  0
 15 18  1  0
 16 15  1  0
 19 20  2  0
 19  8  1  0
 21 20  1  0
 22 21  2  0
 23 22  1  0
 23 24  2  0
 24 19  1  0
  4 25  1  0
  5 26  1  0
  9 27  1  0
 11 28  1  0
 20 29  1  0
 21 30  1  0
 22 31  1  0
 23 32  1  0
M  ISO  8  25  14  26  14  27  14  28  14  29  14  30  14  31  14  32  14
M  END
>  <minimizedAffinity>  (1) 
-5.71792984

>  <minimizedRMSD>  (1) 
1.66520596

$$$$
