
     RDKit          3D

 30 32  0  0  0  0  0  0  0  0999 V2000
   32.8940   31.0020   46.5120 Cl  0  0  0  0  0  0  0  0  0  0  0  0
   32.9900   29.3290   47.0520 C   0  0  0  0  0  0  0  0  0  0  0  0
   34.0720   28.9040   47.7990 C   0  0  0  0  0  0  0  0  0  0  0  0
   34.1650   27.5860   48.2340 C   0  0  0  0  0  0  0  0  0  0  0  0
   33.1480   26.7050   47.9020 C   0  0  0  0  0  0  0  0  0  0  0  0
   32.0640   27.1110   47.1590 C   0  0  0  0  0  0  0  0  0  0  0  0
   30.7940   25.9720   46.7560 Cl  0  0  0  0  0  0  0  0  0  0  0  0
   31.9840   28.4370   46.7290 C   0  0  0  0  0  0  0  0  0  0  0  0
   36.2350   31.1770   49.7180 C   0  0  0  0  0  0  0  0  0  0  0  0
   37.2030   31.5330   48.7500 C   0  0  0  0  0  0  0  0  0  0  0  0
   37.0880   30.9850   47.4660 C   0  0  0  0  0  0  0  0  0  0  0  0
   36.0500   30.1400   47.2220 N   0  0  0  0  0  0  0  0  0  0  0  0
   35.1490   29.8190   48.1550 C   0  0  0  0  0  0  0  0  0  0  0  0
   35.2290   30.3240   49.3910 N   0  0  0  0  0  0  0  0  0  0  0  0
   38.2900   32.4720   49.1530 C   0  0  0  0  0  0  0  0  0  0  0  0
   39.2140   32.6090   48.0950 F   0  0  0  0  0  0  0  0  0  0  0  0
   37.7430   33.7010   49.3790 F   0  0  0  0  0  0  0  0  0  0  0  0
   38.9900   32.0330   50.2480 F   0  0  0  0  0  0  0  0  0  0  0  0
   30.8540   28.9140   45.9400 C   0  0  0  0  0  0  0  0  0  0  0  0
   30.6250   28.9690   44.5790 C   0  0  0  0  0  0  0  0  0  0  0  0
   29.3820   29.5140   44.3250 C   0  0  0  0  0  0  0  0  0  0  0  0
   28.8830   29.7780   45.5590 N   0  0  0  0  0  0  0  0  0  0  0  0
   29.7340   29.4320   46.5210 N   0  0  0  0  0  0  0  0  0  0  0  0
   35.0273   27.2502   48.8288 H   0  0  0  0  0  0  0  0  0  0  0  0
   33.2089   25.6598   48.2395 H   0  0  0  0  0  0  0  0  0  0  0  0
   36.2966   31.5906   50.7354 H   0  0  0  0  0  0  0  0  0  0  0  0
   37.8154   31.2306   46.6783 H   0  0  0  0  0  0  0  0  0  0  0  0
   31.3315   28.6276   43.8081 H   0  0  0  0  0  0  0  0  0  0  0  0
   28.9067   29.6926   43.3492 H   0  0  0  0  0  0  0  0  0  0  0  0
   27.9572   30.1958   45.7300 H   0  0  0  0  0  0  0  0  0  0  0  0
  1  2  1  0
  2  3  2  0
  3 13  1  0
  3  4  1  0
  5  4  2  0
  6  5  1  0
  7  6  1  0
  8  2  1  0
  8  6  2  0
 10 15  1  0
 10  9  2  0
 11 10  1  0
 12 11  2  0
 12 13  1  0
 13 14  2  0
 14  9  1  0
 15 17  1  0
 15 18  1  0
 16 15  1  0
 19 23  2  0
 19  8  1  0
 20 19  1  0
 21 20  2  0
 21 22  1  0
 22 23  1  0
  4 24  1  0
  5 25  1  0
  9 26  1  0
 11 27  1  0
 20 28  1  0
 21 29  1  0
 22 30  1  0
M  ISO  7  24  14  25  14  26  14  27  14  28  14  29  14  30   9
M  END
>  <minimizedAffinity>  (1) 
-5.63052988

>  <minimizedRMSD>  (1) 
1.75458324

$$$$
