
     RDKit          3D

 30 32  0  0  0  0  0  0  0  0999 V2000
   32.8730   30.9580   46.5180 Cl  0  0  0  0  0  0  0  0  0  0  0  0
   32.9430   29.2800   47.0340 C   0  0  0  0  0  0  0  0  0  0  0  0
   34.0220   28.8400   47.7880 C   0  0  0  0  0  0  0  0  0  0  0  0
   34.1130   27.5040   48.2190 C   0  0  0  0  0  0  0  0  0  0  0  0
   33.0740   26.6610   47.8520 C   0  0  0  0  0  0  0  0  0  0  0  0
   32.0010   27.0750   47.1080 C   0  0  0  0  0  0  0  0  0  0  0  0
   30.7480   25.9250   46.7020 Cl  0  0  0  0  0  0  0  0  0  0  0  0
   31.9390   28.4130   46.6940 C   0  0  0  0  0  0  0  0  0  0  0  0
   36.1890   31.0540   49.7770 C   0  0  0  0  0  0  0  0  0  0  0  0
   37.1530   31.4490   48.8010 C   0  0  0  0  0  0  0  0  0  0  0  0
   37.0340   30.9470   47.4940 C   0  0  0  0  0  0  0  0  0  0  0  0
   35.9890   30.1050   47.2490 N   0  0  0  0  0  0  0  0  0  0  0  0
   35.0950   29.7420   48.1590 C   0  0  0  0  0  0  0  0  0  0  0  0
   35.1960   30.2140   49.4130 N   0  0  0  0  0  0  0  0  0  0  0  0
   38.2360   32.3750   49.2280 C   0  0  0  0  0  0  0  0  0  0  0  0
   39.1080   32.6110   48.1600 F   0  0  0  0  0  0  0  0  0  0  0  0
   37.6750   33.5720   49.5720 F   0  0  0  0  0  0  0  0  0  0  0  0
   38.9740   31.8860   50.2890 F   0  0  0  0  0  0  0  0  0  0  0  0
   30.8000   28.8630   45.9010 C   0  0  0  0  0  0  0  0  0  0  0  0
   29.6100   29.3610   46.4390 C   0  0  0  0  0  0  0  0  0  0  0  0
   28.8100   29.6670   45.3930 N   0  0  0  0  0  0  0  0  0  0  0  0
   29.4270   29.3910   44.2340 C   0  0  0  0  0  0  0  0  0  0  0  0
   30.6530   28.8960   44.5440 N   0  0  0  0  0  0  0  0  0  0  0  0
   34.9644   27.1460   48.8165 H   0  0  0  0  0  0  0  0  0  0  0  0
   33.1138   25.6099   48.1739 H   0  0  0  0  0  0  0  0  0  0  0  0
   36.2539   31.4279   50.8094 H   0  0  0  0  0  0  0  0  0  0  0  0
   37.7502   31.2202   46.7051 H   0  0  0  0  0  0  0  0  0  0  0  0
   29.3709   29.4807   47.5060 H   0  0  0  0  0  0  0  0  0  0  0  0
   27.8603   30.0572   45.4744 H   0  0  0  0  0  0  0  0  0  0  0  0
   29.0173   29.5379   43.2238 H   0  0  0  0  0  0  0  0  0  0  0  0
  1  2  1  0
  2  3  2  0
  3 13  1  0
  3  4  1  0
  5  4  2  0
  6  5  1  0
  7  6  1  0
  8  2  1  0
  8  6  2  0
 10 15  1  0
 10  9  2  0
 11 10  1  0
 12 11  2  0
 12 13  1  0
 13 14  2  0
 14  9  1  0
 15 17  1  0
 15 18  1  0
 16 15  1  0
 19 20  2  0
 19  8  1  0
 21 20  1  0
 22 23  2  0
 22 21  1  0
 23 19  1  0
  4 24  1  0
  5 25  1  0
  9 26  1  0
 11 27  1  0
 20 28  1  0
 21 29  1  0
 22 30  1  0
M  ISO  7  24  14  25  14  26  14  27  14  28  14  29   9  30  14
M  END
>  <minimizedAffinity>  (1) 
-5.60913897

>  <minimizedRMSD>  (1) 
1.62372482

$$$$
