
     RDKit          3D

 30 32  0  0  0  0  0  0  0  0999 V2000
   32.9080   30.9680   46.5270 Cl  0  0  0  0  0  0  0  0  0  0  0  0
   32.9860   29.3170   47.0740 C   0  0  0  0  0  0  0  0  0  0  0  0
   34.0810   28.8890   47.8330 C   0  0  0  0  0  0  0  0  0  0  0  0
   34.1840   27.5790   48.2950 C   0  0  0  0  0  0  0  0  0  0  0  0
   33.1440   26.7130   47.9660 C   0  0  0  0  0  0  0  0  0  0  0  0
   32.0620   27.1100   47.2240 C   0  0  0  0  0  0  0  0  0  0  0  0
   30.8200   25.9300   46.8860 Cl  0  0  0  0  0  0  0  0  0  0  0  0
   31.9820   28.4420   46.7690 C   0  0  0  0  0  0  0  0  0  0  0  0
   36.2610   31.1920   49.7080 C   0  0  0  0  0  0  0  0  0  0  0  0
   37.2110   31.5320   48.7280 C   0  0  0  0  0  0  0  0  0  0  0  0
   37.0980   30.9770   47.4520 C   0  0  0  0  0  0  0  0  0  0  0  0
   36.0590   30.1240   47.2250 N   0  0  0  0  0  0  0  0  0  0  0  0
   35.1550   29.8050   48.1650 C   0  0  0  0  0  0  0  0  0  0  0  0
   35.2560   30.3320   49.3930 N   0  0  0  0  0  0  0  0  0  0  0  0
   38.3020   32.4810   49.1100 C   0  0  0  0  0  0  0  0  0  0  0  0
   39.1990   32.6390   48.0500 F   0  0  0  0  0  0  0  0  0  0  0  0
   37.7460   33.7100   49.3700 F   0  0  0  0  0  0  0  0  0  0  0  0
   39.0010   32.0720   50.2290 F   0  0  0  0  0  0  0  0  0  0  0  0
   30.7860   28.7450   45.9910 C   0  0  0  0  0  0  0  0  0  0  0  0
   30.5450   28.6940   44.6420 C   0  0  0  0  0  0  0  0  0  0  0  0
   29.2610   29.0680   44.3220 C   0  0  0  0  0  0  0  0  0  0  0  0
   28.7380   29.3510   45.5640 C   0  0  0  0  0  0  0  0  0  0  0  0
   29.6520   29.1480   46.4590 O   0  0  0  0  0  0  0  0  0  0  0  0
   35.0457   27.2444   48.8913 H   0  0  0  0  0  0  0  0  0  0  0  0
   33.1928   25.6709   48.3148 H   0  0  0  0  0  0  0  0  0  0  0  0
   36.3305   31.6179   50.7198 H   0  0  0  0  0  0  0  0  0  0  0  0
   37.8207   31.2191   46.6589 H   0  0  0  0  0  0  0  0  0  0  0  0
   31.2955   28.3879   43.8984 H   0  0  0  0  0  0  0  0  0  0  0  0
   28.7791   29.1258   43.3349 H   0  0  0  0  0  0  0  0  0  0  0  0
   27.7119   29.6934   45.7634 H   0  0  0  0  0  0  0  0  0  0  0  0
  1  2  1  0
  2  3  2  0
  3 13  1  0
  3  4  1  0
  5  4  2  0
  6  5  1  0
  7  6  1  0
  8  2  1  0
  8  6  2  0
 10 15  1  0
 10  9  2  0
 11 10  1  0
 12 11  2  0
 12 13  1  0
 13 14  2  0
 14  9  1  0
 15 17  1  0
 15 18  1  0
 16 15  1  0
 19 23  1  0
 19  8  1  0
 20 19  2  0
 21 20  1  0
 21 22  2  0
 22 23  1  0
  4 24  1  0
  5 25  1  0
  9 26  1  0
 11 27  1  0
 20 28  1  0
 21 29  1  0
 22 30  1  0
M  ISO  7  24  14  25  14  26  14  27  14  28  14  29  14  30  14
M  END
>  <minimizedAffinity>  (1) 
-5.56202698

>  <minimizedRMSD>  (1) 
1.7387861

$$$$
