
     RDKit          3D

 38 40  0  0  0  0  0  0  0  0999 V2000
   35.4040   29.2730   50.4440 C   0  0  0  0  0  0  0  0  0  0  0  0
   36.3060   30.1390   49.7750 C   0  0  0  0  0  0  0  0  0  0  0  0
   36.2210   30.2600   48.3910 C   0  0  0  0  0  0  0  0  0  0  0  0
   35.2730   29.5360   47.7390 N   0  0  0  0  0  0  0  0  0  0  0  0
   34.4380   28.7310   48.3780 C   0  0  0  0  0  0  0  0  0  0  0  0
   34.4860   28.5860   49.7250 N   0  0  0  0  0  0  0  0  0  0  0  0
   37.1230   31.1260   47.7160 N   0  0  0  0  0  0  0  0  0  0  0  0
   37.7590   31.1920   46.3990 C   0  0  0  0  0  0  0  0  0  0  0  0
   39.2010   31.5350   46.7090 C   0  0  0  0  0  0  0  0  0  0  0  0
   39.0510   32.5350   47.8260 C   0  0  0  0  0  0  0  0  0  0  0  0
   37.6670   32.3190   48.3370 C   0  0  0  0  0  0  0  0  0  0  0  0
   32.6640   30.3810   46.5690 Cl  0  0  0  0  0  0  0  0  0  0  0  0
   32.5600   28.6370   46.7500 C   0  0  0  0  0  0  0  0  0  0  0  0
   33.4360   27.9750   47.6190 C   0  0  0  0  0  0  0  0  0  0  0  0
   33.3860   26.5950   47.7920 C   0  0  0  0  0  0  0  0  0  0  0  0
   32.4210   25.9030   47.0570 C   0  0  0  0  0  0  0  0  0  0  0  0
   31.5550   26.5310   46.2000 C   0  0  0  0  0  0  0  0  0  0  0  0
   30.3910   25.5580   45.3360 Cl  0  0  0  0  0  0  0  0  0  0  0  0
   31.6300   27.9090   46.0510 C   0  0  0  0  0  0  0  0  0  0  0  0
   30.7000   28.5970   45.1310 C   0  0  0  0  0  0  0  0  0  0  0  0
   29.6940   27.7200   44.7170 F   0  0  0  0  0  0  0  0  0  0  0  0
   31.3430   29.1490   44.0620 F   0  0  0  0  0  0  0  0  0  0  0  0
   30.0500   29.6150   45.8040 F   0  0  0  0  0  0  0  0  0  0  0  0
   37.3110   30.8890   50.5920 C   0  0  0  0  0  0  0  0  0  0  0  0
   38.6070   30.6420   50.1160 F   0  0  0  0  0  0  0  0  0  0  0  0
   37.0460   32.2270   50.4960 F   0  0  0  0  0  0  0  0  0  0  0  0
   37.2680   30.5370   51.9280 F   0  0  0  0  0  0  0  0  0  0  0  0
   35.4501   29.1607   51.5373 H   0  0  0  0  0  0  0  0  0  0  0  0
   37.2953   31.9733   45.7789 H   0  0  0  0  0  0  0  0  0  0  0  0
   37.6579   30.2553   45.8312 H   0  0  0  0  0  0  0  0  0  0  0  0
   39.7609   30.6477   47.0393 H   0  0  0  0  0  0  0  0  0  0  0  0
   39.7623   31.9171   45.8436 H   0  0  0  0  0  0  0  0  0  0  0  0
   39.7914   32.3477   48.6176 H   0  0  0  0  0  0  0  0  0  0  0  0
   39.2152   33.5685   47.4871 H   0  0  0  0  0  0  0  0  0  0  0  0
   37.0396   33.1866   48.0847 H   0  0  0  0  0  0  0  0  0  0  0  0
   37.6857   32.1974   49.4301 H   0  0  0  0  0  0  0  0  0  0  0  0
   34.0735   26.0744   48.4748 H   0  0  0  0  0  0  0  0  0  0  0  0
   32.3532   24.8110   47.1703 H   0  0  0  0  0  0  0  0  0  0  0  0
  2  1  2  0
  2 24  1  0
  3  2  1  0
  4  5  1  0
  4  3  2  0
  5  6  2  0
  6  1  1  0
  7 11  1  0
  7  3  1  0
  8  9  1  0
  8  7  1  0
  9 10  1  0
 10 11  1  0
 12 13  1  0
 13 14  2  0
 14 15  1  0
 14  5  1  0
 16 15  2  0
 17 16  1  0
 18 17  1  0
 19 17  2  0
 19 13  1  0
 20 23  1  0
 20 19  1  0
 21 20  1  0
 22 20  1  0
 24 27  1  0
 25 24  1  0
 26 24  1  0
  1 28  1  0
  8 29  1  0
  8 30  1  0
  9 31  1  0
  9 32  1  0
 10 33  1  0
 10 34  1  0
 11 35  1  0
 11 36  1  0
 15 37  1  0
 16 38  1  0
M  ISO  8  28  14  29  13  30  13  31  13  32  13  33  13  34  13  35  13
M  ISO  3  36  13  37  14  38  14
M  END
>  <minimizedAffinity>  (1) 
-6.70030069

>  <minimizedRMSD>  (1) 
0.155800387

$$$$
