
     RDKit          3D

 39 41  0  0  0  0  0  0  0  0999 V2000
   35.4260   29.1760   50.3410 C   0  0  0  0  0  0  0  0  0  0  0  0
   36.3320   30.1040   49.7960 C   0  0  0  0  0  0  0  0  0  0  0  0
   36.2960   30.3350   48.4300 C   0  0  0  0  0  0  0  0  0  0  0  0
   35.3980   29.6660   47.6640 N   0  0  0  0  0  0  0  0  0  0  0  0
   34.5460   28.7890   48.2030 C   0  0  0  0  0  0  0  0  0  0  0  0
   34.5490   28.5370   49.5260 N   0  0  0  0  0  0  0  0  0  0  0  0
   32.8410   30.5490   46.4350 Cl  0  0  0  0  0  0  0  0  0  0  0  0
   32.7600   28.7990   46.4710 C   0  0  0  0  0  0  0  0  0  0  0  0
   33.5950   28.0920   47.3270 C   0  0  0  0  0  0  0  0  0  0  0  0
   33.5730   26.6890   47.3980 C   0  0  0  0  0  0  0  0  0  0  0  0
   32.6670   26.0450   46.5590 C   0  0  0  0  0  0  0  0  0  0  0  0
   31.8340   26.7170   45.7080 C   0  0  0  0  0  0  0  0  0  0  0  0
   30.7410   25.7910   44.7080 Cl  0  0  0  0  0  0  0  0  0  0  0  0
   31.8920   28.1000   45.6740 C   0  0  0  0  0  0  0  0  0  0  0  0
   30.9950   28.8510   44.7550 C   0  0  0  0  0  0  0  0  0  0  0  0
   30.0740   27.9840   44.1630 F   0  0  0  0  0  0  0  0  0  0  0  0
   31.6920   29.5270   43.7880 F   0  0  0  0  0  0  0  0  0  0  0  0
   30.2650   29.7790   45.4640 F   0  0  0  0  0  0  0  0  0  0  0  0
   37.1930   31.2580   47.7610 C   0  0  0  0  0  0  0  0  0  0  0  0
   37.9980   32.1630   48.6500 C   0  0  0  0  0  0  0  0  0  0  0  0
   38.9230   32.7890   47.5950 C   0  0  0  0  0  0  0  0  0  0  0  0
   39.2450   31.6090   46.6790 C   0  0  0  0  0  0  0  0  0  0  0  0
   38.3310   30.4760   47.0900 C   0  0  0  0  0  0  0  0  0  0  0  0
   37.2830   30.8100   50.6940 C   0  0  0  0  0  0  0  0  0  0  0  0
   38.6020   30.6560   50.2800 F   0  0  0  0  0  0  0  0  0  0  0  0
   36.9860   32.1650   50.6900 F   0  0  0  0  0  0  0  0  0  0  0  0
   37.1940   30.3790   52.0050 F   0  0  0  0  0  0  0  0  0  0  0  0
   35.4284   28.9695   51.4214 H   0  0  0  0  0  0  0  0  0  0  0  0
   34.2338   26.1309   48.0776 H   0  0  0  0  0  0  0  0  0  0  0  0
   32.6194   24.9463   46.5819 H   0  0  0  0  0  0  0  0  0  0  0  0
   36.5048   31.8257   47.1175 H   0  0  0  0  0  0  0  0  0  0  0  0
   37.3696   32.9177   49.1456 H   0  0  0  0  0  0  0  0  0  0  0  0
   38.5090   31.6660   49.4877 H   0  0  0  0  0  0  0  0  0  0  0  0
   38.4088   33.5895   47.0430 H   0  0  0  0  0  0  0  0  0  0  0  0
   39.8182   33.2600   48.0272 H   0  0  0  0  0  0  0  0  0  0  0  0
   40.2967   31.3106   46.8010 H   0  0  0  0  0  0  0  0  0  0  0  0
   39.0932   31.8758   45.6227 H   0  0  0  0  0  0  0  0  0  0  0  0
   37.9735   29.9073   46.2190 H   0  0  0  0  0  0  0  0  0  0  0  0
   38.8038   29.7174   47.7311 H   0  0  0  0  0  0  0  0  0  0  0  0
  2  1  2  0
  2 24  1  0
  3  2  1  0
  4  5  1  0
  4  3  2  0
  5  6  2  0
  6  1  1  0
  7  8  1  0
  8  9  2  0
  9 10  1  0
  9  5  1  0
 11 10  2  0
 12 11  1  0
 13 12  1  0
 14 12  2  0
 14  8  1  0
 15 18  1  0
 15 14  1  0
 16 15  1  0
 17 15  1  0
 19  3  1  0
 19 20  1  0
 21 20  1  0
 22 23  1  0
 22 21  1  0
 23 19  1  0
 24 27  1  0
 25 24  1  0
 26 24  1  0
  1 28  1  0
 10 29  1  0
 11 30  1  0
 19 31  1  0
 20 32  1  0
 20 33  1  0
 21 34  1  0
 21 35  1  0
 22 36  1  0
 22 37  1  0
 23 38  1  0
 23 39  1  0
M  ISO  8  28  14  29  14  30  14  31  13  32  13  33  13  34  13  35  13
M  ISO  4  36  13  37  13  38  13  39  13
M  END
>  <minimizedAffinity>  (1) 
-6.61057758

>  <minimizedRMSD>  (1) 
0.606042922

$$$$
