
     RDKit          3D

 32 33  0  0  0  0  0  0  0  0999 V2000
   35.6290   29.1270   50.1610 C   0  0  0  0  0  0  0  0  0  0  0  0
   36.3830   30.2040   49.6440 C   0  0  0  0  0  0  0  0  0  0  0  0
   36.2230   30.5480   48.3080 C   0  0  0  0  0  0  0  0  0  0  0  0
   35.3390   29.8250   47.5590 N   0  0  0  0  0  0  0  0  0  0  0  0
   34.6400   28.8220   48.0500 C   0  0  0  0  0  0  0  0  0  0  0  0
   34.7730   28.4610   49.3480 N   0  0  0  0  0  0  0  0  0  0  0  0
   32.7470   30.5260   46.4220 Cl  0  0  0  0  0  0  0  0  0  0  0  0
   32.7900   28.7760   46.3850 C   0  0  0  0  0  0  0  0  0  0  0  0
   33.7140   28.0960   47.1870 C   0  0  0  0  0  0  0  0  0  0  0  0
   33.7870   26.6970   47.1910 C   0  0  0  0  0  0  0  0  0  0  0  0
   32.8970   26.0220   46.3620 C   0  0  0  0  0  0  0  0  0  0  0  0
   31.9860   26.6770   45.5710 C   0  0  0  0  0  0  0  0  0  0  0  0
   30.9200   25.7140   44.5710 Cl  0  0  0  0  0  0  0  0  0  0  0  0
   31.9400   28.0510   45.5890 C   0  0  0  0  0  0  0  0  0  0  0  0
   30.9610   28.7770   44.7410 C   0  0  0  0  0  0  0  0  0  0  0  0
   30.0020   27.8860   44.2470 F   0  0  0  0  0  0  0  0  0  0  0  0
   31.5470   29.4690   43.7380 F   0  0  0  0  0  0  0  0  0  0  0  0
   30.2460   29.6790   45.5220 F   0  0  0  0  0  0  0  0  0  0  0  0
   37.3180   30.9170   50.5640 C   0  0  0  0  0  0  0  0  0  0  0  0
   38.6390   30.8280   50.0770 F   0  0  0  0  0  0  0  0  0  0  0  0
   36.9730   32.2580   50.5750 F   0  0  0  0  0  0  0  0  0  0  0  0
   37.2770   30.4410   51.8470 F   0  0  0  0  0  0  0  0  0  0  0  0
   36.9640   31.6060   47.7950 O   0  0  0  0  0  0  0  0  0  0  0  0
   37.5460   30.2590   45.6560 O   0  0  0  0  0  0  0  0  0  0  0  0
   38.0210   31.4530   46.4560 P   0  0  0  0  0  0  0  0  0  0  0  0
   37.9250   32.8050   45.4490 O   0  0  0  0  0  0  0  0  0  0  0  0
   39.6040   31.1470   46.9430 O   0  0  0  0  0  0  0  0  0  0  0  0
   35.7357   28.8312   51.2151 H   0  0  0  0  0  0  0  0  0  0  0  0
   34.5124   26.1588   47.8188 H   0  0  0  0  0  0  0  0  0  0  0  0
   32.9242   24.9226   46.3394 H   0  0  0  0  0  0  0  0  0  0  0  0
   37.8668   33.6245   46.0014 H   0  0  0  0  0  0  0  0  0  0  0  0
   39.6492   31.1383   47.9319 H   0  0  0  0  0  0  0  0  0  0  0  0
  2  1  2  0
  2 19  1  0
  3  2  1  0
  4  5  1  0
  4  3  2  0
  5  6  2  0
  6  1  1  0
  8  7  1  0
  8  9  2  0
  9 10  1  0
  9  5  1  0
 11 10  2  0
 12 14  2  0
 12 11  1  0
 13 12  1  0
 14  8  1  0
 15 18  1  0
 15 14  1  0
 16 15  1  0
 17 15  1  0
 19 21  1  0
 19 22  1  0
 20 19  1  0
 23  3  1  0
 24 25  2  0
 25 27  1  0
 25 23  1  0
 26 25  1  0
  1 28  1  0
 10 29  1  0
 11 30  1  0
 26 31  1  0
 27 32  1  0
M  ISO  5  28  14  29  14  30  14  31   3  32   3
M  END
>  <minimizedAffinity>  (1) 
-6.16399097

>  <minimizedRMSD>  (1) 
0.638041019

$$$$
