
     RDKit          3D

 28 29  0  0  0  0  0  0  0  0999 V2000
   32.6700   30.3130   46.5590 Cl  0  0  0  0  0  0  0  0  0  0  0  0
   32.6260   28.5540   46.7190 C   0  0  0  0  0  0  0  0  0  0  0  0
   33.5120   27.9230   47.5790 C   0  0  0  0  0  0  0  0  0  0  0  0
   33.5150   26.5350   47.7390 C   0  0  0  0  0  0  0  0  0  0  0  0
   32.5800   25.8210   46.9880 C   0  0  0  0  0  0  0  0  0  0  0  0
   31.6990   26.4300   46.1350 C   0  0  0  0  0  0  0  0  0  0  0  0
   30.5710   25.4290   45.2450 Cl  0  0  0  0  0  0  0  0  0  0  0  0
   31.7340   27.8110   46.0100 C   0  0  0  0  0  0  0  0  0  0  0  0
   35.4290   29.2650   50.4290 C   0  0  0  0  0  0  0  0  0  0  0  0
   36.3120   30.1470   49.7820 C   0  0  0  0  0  0  0  0  0  0  0  0
   36.2370   30.2630   48.4000 C   0  0  0  0  0  0  0  0  0  0  0  0
   35.3130   29.5220   47.7350 N   0  0  0  0  0  0  0  0  0  0  0  0
   34.4890   28.6960   48.3600 C   0  0  0  0  0  0  0  0  0  0  0  0
   34.5400   28.5650   49.6890 N   0  0  0  0  0  0  0  0  0  0  0  0
   37.1290   31.1540   47.7410 N   0  0  0  0  0  0  0  0  0  0  0  0
   37.2970   30.9210   50.6090 C   0  0  0  0  0  0  0  0  0  0  0  0
   38.5860   30.7710   50.0970 F   0  0  0  0  0  0  0  0  0  0  0  0
   36.9740   32.2600   50.5280 F   0  0  0  0  0  0  0  0  0  0  0  0
   37.2820   30.5370   51.9330 F   0  0  0  0  0  0  0  0  0  0  0  0
   30.7820   28.4810   45.0870 C   0  0  0  0  0  0  0  0  0  0  0  0
   29.8330   27.5690   44.6160 F   0  0  0  0  0  0  0  0  0  0  0  0
   31.4120   29.0870   44.0340 F   0  0  0  0  0  0  0  0  0  0  0  0
   30.0740   29.4600   45.7700 F   0  0  0  0  0  0  0  0  0  0  0  0
   34.2168   26.0318   48.4204 H   0  0  0  0  0  0  0  0  0  0  0  0
   32.5497   24.7257   47.0853 H   0  0  0  0  0  0  0  0  0  0  0  0
   35.4609   29.1460   51.5221 H   0  0  0  0  0  0  0  0  0  0  0  0
   37.0915   31.2563   46.7168 H   0  0  0  0  0  0  0  0  0  0  0  0
   37.8123   31.6968   48.2881 H   0  0  0  0  0  0  0  0  0  0  0  0
  1  2  1  0
  2  3  2  0
  3  4  1  0
  3 13  1  0
  5  4  2  0
  6  5  1  0
  7  6  1  0
  8  6  2  0
  8  2  1  0
 10  9  2  0
 10 16  1  0
 11 10  1  0
 12 13  1  0
 12 11  2  0
 13 14  2  0
 14  9  1  0
 15 11  1  0
 16 19  1  0
 17 16  1  0
 18 16  1  0
 20 23  1  0
 20  8  1  0
 21 20  1  0
 22 20  1  0
  4 24  1  0
  5 25  1  0
  9 26  1  0
 15 27  1  0
 15 28  1  0
M  ISO  3  24  14  25  14  26  14
M  END
>  <minimizedAffinity>  (1) 
-5.49147177

>  <minimizedRMSD>  (1) 
0.0565002002

$$$$
