
     RDKit          3D

 39 41  0  0  0  0  0  0  0  0999 V2000
   35.5520   29.1030   50.4600 C   0  0  0  0  0  0  0  0  0  0  0  0
   36.3650   30.0910   49.8440 C   0  0  0  0  0  0  0  0  0  0  0  0
   36.2270   30.3190   48.4770 C   0  0  0  0  0  0  0  0  0  0  0  0
   35.3060   29.5710   47.7940 N   0  0  0  0  0  0  0  0  0  0  0  0
   34.5530   28.6520   48.3800 C   0  0  0  0  0  0  0  0  0  0  0  0
   34.6760   28.4210   49.6970 N   0  0  0  0  0  0  0  0  0  0  0  0
   32.7630   30.2840   46.5790 Cl  0  0  0  0  0  0  0  0  0  0  0  0
   32.7050   28.5390   46.7130 C   0  0  0  0  0  0  0  0  0  0  0  0
   33.5830   27.8850   47.5810 C   0  0  0  0  0  0  0  0  0  0  0  0
   33.5920   26.4920   47.7380 C   0  0  0  0  0  0  0  0  0  0  0  0
   32.6550   25.7970   46.9610 C   0  0  0  0  0  0  0  0  0  0  0  0
   31.7880   26.4140   46.1070 C   0  0  0  0  0  0  0  0  0  0  0  0
   30.6700   25.4230   45.1980 Cl  0  0  0  0  0  0  0  0  0  0  0  0
   31.8170   27.7980   45.9860 C   0  0  0  0  0  0  0  0  0  0  0  0
   30.8870   28.4810   45.0670 C   0  0  0  0  0  0  0  0  0  0  0  0
   29.9390   27.5770   44.5700 F   0  0  0  0  0  0  0  0  0  0  0  0
   31.5360   29.0850   44.0240 F   0  0  0  0  0  0  0  0  0  0  0  0
   30.1870   29.4480   45.7350 F   0  0  0  0  0  0  0  0  0  0  0  0
   37.3410   30.8520   50.6830 C   0  0  0  0  0  0  0  0  0  0  0  0
   38.6240   30.7790   50.1650 F   0  0  0  0  0  0  0  0  0  0  0  0
   36.9630   32.1850   50.6770 F   0  0  0  0  0  0  0  0  0  0  0  0
   37.3390   30.4390   51.9970 F   0  0  0  0  0  0  0  0  0  0  0  0
   37.0570   31.3360   47.8200 C   0  0  0  0  0  0  0  0  0  0  0  0
   37.4920   30.8590   46.4780 C   0  0  0  0  0  0  0  0  0  0  0  0
   38.8730   30.6950   46.3150 C   0  0  0  0  0  0  0  0  0  0  0  0
   39.3890   30.2560   45.1120 C   0  0  0  0  0  0  0  0  0  0  0  0
   38.5670   29.9720   44.0520 C   0  0  0  0  0  0  0  0  0  0  0  0
   37.2160   30.1420   44.2380 C   0  0  0  0  0  0  0  0  0  0  0  0
   36.6600   30.5810   45.4330 C   0  0  0  0  0  0  0  0  0  0  0  0
   35.6358   28.8989   51.5376 H   0  0  0  0  0  0  0  0  0  0  0  0
   34.2851   25.9807   48.4223 H   0  0  0  0  0  0  0  0  0  0  0  0
   32.6168   24.7008   47.0438 H   0  0  0  0  0  0  0  0  0  0  0  0
   36.4738   32.2615   47.7048 H   0  0  0  0  0  0  0  0  0  0  0  0
   37.9467   31.5262   48.4382 H   0  0  0  0  0  0  0  0  0  0  0  0
   39.5517   30.9176   47.1515 H   0  0  0  0  0  0  0  0  0  0  0  0
   40.4765   30.1322   45.0022 H   0  0  0  0  0  0  0  0  0  0  0  0
   38.9726   29.6221   43.0912 H   0  0  0  0  0  0  0  0  0  0  0  0
   36.5410   29.9193   43.3985 H   0  0  0  0  0  0  0  0  0  0  0  0
   35.5714   30.7020   45.5346 H   0  0  0  0  0  0  0  0  0  0  0  0
  2  1  2  0
  2 19  1  0
  3  2  1  0
  4  5  1  0
  4  3  2  0
  5  6  2  0
  6  1  1  0
  7  8  1  0
  8  9  2  0
  9 10  1  0
  9  5  1  0
 11 10  2  0
 12 11  1  0
 13 12  1  0
 14 12  2  0
 14  8  1  0
 15 18  1  0
 15 14  1  0
 16 15  1  0
 17 15  1  0
 19 22  1  0
 20 19  1  0
 21 19  1  0
 23  3  1  0
 24 23  1  0
 25 24  2  0
 26 25  1  0
 27 28  1  0
 27 26  2  0
 28 29  2  0
 29 24  1  0
  1 30  1  0
 10 31  1  0
 11 32  1  0
 23 33  1  0
 23 34  1  0
 25 35  1  0
 26 36  1  0
 27 37  1  0
 28 38  1  0
 29 39  1  0
M  ISO  8  30  14  31  14  32  14  33   8  34   8  35  14  36  14  37  14
M  ISO  2  38  14  39  14
M  END
>  <minimizedAffinity>  (1) 
-6.52051544

>  <minimizedRMSD>  (1) 
0.706693947

$$$$
