
     RDKit          3D

 41 43  0  0  0  0  0  0  0  0999 V2000
   35.5950   29.1510   50.3720 C   0  0  0  0  0  0  0  0  0  0  0  0
   36.3900   30.1530   49.7520 C   0  0  0  0  0  0  0  0  0  0  0  0
   36.2620   30.3640   48.3930 C   0  0  0  0  0  0  0  0  0  0  0  0
   35.3620   29.5840   47.7150 N   0  0  0  0  0  0  0  0  0  0  0  0
   34.6290   28.6600   48.2950 C   0  0  0  0  0  0  0  0  0  0  0  0
   34.7280   28.4270   49.6160 N   0  0  0  0  0  0  0  0  0  0  0  0
   32.7390   30.2630   46.5450 Cl  0  0  0  0  0  0  0  0  0  0  0  0
   32.7620   28.5130   46.6380 C   0  0  0  0  0  0  0  0  0  0  0  0
   33.6820   27.8630   47.4840 C   0  0  0  0  0  0  0  0  0  0  0  0
   33.7420   26.4770   47.5960 C   0  0  0  0  0  0  0  0  0  0  0  0
   32.8350   25.7520   46.8170 C   0  0  0  0  0  0  0  0  0  0  0  0
   31.9300   26.3520   45.9870 C   0  0  0  0  0  0  0  0  0  0  0  0
   30.8440   25.3410   45.0620 Cl  0  0  0  0  0  0  0  0  0  0  0  0
   31.8990   27.7450   45.9010 C   0  0  0  0  0  0  0  0  0  0  0  0
   30.9310   28.4010   45.0120 C   0  0  0  0  0  0  0  0  0  0  0  0
   29.9840   27.4860   44.5520 F   0  0  0  0  0  0  0  0  0  0  0  0
   31.5190   29.0410   43.9590 F   0  0  0  0  0  0  0  0  0  0  0  0
   30.2200   29.3540   45.7090 F   0  0  0  0  0  0  0  0  0  0  0  0
   37.3320   30.9270   50.6280 C   0  0  0  0  0  0  0  0  0  0  0  0
   38.6320   30.8430   50.1300 F   0  0  0  0  0  0  0  0  0  0  0  0
   36.9620   32.2530   50.5650 F   0  0  0  0  0  0  0  0  0  0  0  0
   37.3120   30.5220   51.9360 F   0  0  0  0  0  0  0  0  0  0  0  0
   37.0790   31.3960   47.7490 C   0  0  0  0  0  0  0  0  0  0  0  0
   37.9510   30.7060   46.7910 N   0  0  0  0  0  0  0  0  0  0  0  0
   39.3050   31.2060   46.9010 C   0  0  0  0  0  0  0  0  0  0  0  0
   39.6590   31.8530   45.5740 C   0  0  0  0  0  0  0  0  0  0  0  0
   38.2800   32.3530   45.1550 C   0  0  0  0  0  0  0  0  0  0  0  0
   37.4640   31.1190   45.4820 C   0  0  0  0  0  0  0  0  0  0  0  0
   35.6806   28.9634   51.4525 H   0  0  0  0  0  0  0  0  0  0  0  0
   34.4633   25.9793   48.2608 H   0  0  0  0  0  0  0  0  0  0  0  0
   32.8505   24.6536   46.8746 H   0  0  0  0  0  0  0  0  0  0  0  0
   36.4348   32.1170   47.2243 H   0  0  0  0  0  0  0  0  0  0  0  0
   37.6692   31.9539   48.4909 H   0  0  0  0  0  0  0  0  0  0  0  0
   39.3670   31.9488   47.7099 H   0  0  0  0  0  0  0  0  0  0  0  0
   40.0034   30.3885   47.1331 H   0  0  0  0  0  0  0  0  0  0  0  0
   40.3736   32.6798   45.6994 H   0  0  0  0  0  0  0  0  0  0  0  0
   40.1541   31.1896   44.8495 H   0  0  0  0  0  0  0  0  0  0  0  0
   38.2401   32.6007   44.0840 H   0  0  0  0  0  0  0  0  0  0  0  0
   37.9471   33.2806   45.6437 H   0  0  0  0  0  0  0  0  0  0  0  0
   36.3915   31.3599   45.5228 H   0  0  0  0  0  0  0  0  0  0  0  0
   37.5715   30.3294   44.7238 H   0  0  0  0  0  0  0  0  0  0  0  0
  2  1  2  0
  2 19  1  0
  3  2  1  0
  4  5  1  0
  4  3  2  0
  5  6  2  0
  6  1  1  0
  7  8  1  0
  8  9  2  0
  9 10  1  0
  9  5  1  0
 11 10  2  0
 12 11  1  0
 13 12  1  0
 14 12  2  0
 14  8  1  0
 15 18  1  0
 15 14  1  0
 16 15  1  0
 17 15  1  0
 19 22  1  0
 20 19  1  0
 21 19  1  0
 23  3  1  0
 24 25  1  0
 24 23  1  0
 26 25  1  0
 27 28  1  0
 27 26  1  0
 28 24  1  0
  1 29  1  0
 10 30  1  0
 11 31  1  0
 23 32  1  0
 23 33  1  0
 25 34  1  0
 25 35  1  0
 26 36  1  0
 26 37  1  0
 27 38  1  0
 27 39  1  0
 28 40  1  0
 28 41  1  0
M  ISO  8  29  14  30  14  31  14  32   8  33   8  34  13  35  13  36  13
M  ISO  5  37  13  38  13  39  13  40  13  41  13
M  END
>  <minimizedAffinity>  (1) 
-6.05830956

>  <minimizedRMSD>  (1) 
0.828606009

$$$$
