
     RDKit          3D

 38 40  0  0  1  0  0  0  0  0999 V2000
   34.2890   29.9430   46.2410 C   0  0  1  0  0  0  0  0  0  0  0  0
   34.4370   29.6420   45.0210 N   0  0  0  0  0  0  0  0  0  0  0  0
   33.6160   29.7750   44.0440 C   0  0  0  0  0  0  0  0  0  0  0  0
   33.5080   28.4250   43.9680 N   0  0  0  0  0  0  0  0  0  0  0  0
   33.6050   27.7980   45.1780 C   0  0  0  0  0  0  0  0  0  0  0  0
   33.2850   26.4080   45.1910 C   0  0  0  0  0  0  0  0  0  0  0  0
   33.3650   25.7450   46.3570 C   0  0  0  0  0  0  0  0  0  0  0  0
   33.7320   26.3030   47.5360 C   0  0  0  0  0  0  0  0  0  0  0  0
   34.0240   27.6410   47.4410 C   0  0  0  0  0  0  0  0  0  0  0  0
   34.0090   28.5140   46.3570 C   0  0  0  0  0  0  0  0  0  0  0  0
   35.2180   30.6310   49.7790 C   0  0  0  0  0  0  0  0  0  0  0  0
   36.5730   30.7350   49.5780 C   0  0  0  0  0  0  0  0  0  0  0  0
   36.9850   30.5460   48.2730 C   0  0  0  0  0  0  0  0  0  0  0  0
   36.0570   30.2820   47.3250 N   0  0  0  0  0  0  0  0  0  0  0  0
   34.7510   30.1910   47.5650 C   0  0  0  0  0  0  0  0  0  0  0  0
   34.4250   30.3770   48.8080 N   0  0  0  0  0  0  0  0  0  0  0  0
   38.4070   30.6500   48.0080 N   0  0  0  0  0  0  0  0  0  0  0  0
   37.4870   31.0320   50.6990 C   0  0  0  0  0  0  0  0  0  0  0  0
   37.3990   30.0190   51.7880 C   0  0  0  0  0  0  0  0  0  0  0  0
   37.9930   28.7900   51.2870 N   0  0  0  0  0  0  0  0  0  0  0  0
   34.0329   31.0118   46.1949 H   0  0  0  0  0  0  0  0  0  0  0  0
   35.2695   30.1728   44.7275 H   0  0  0  0  0  0  0  0  0  0  0  0
   32.6797   30.2884   44.3081 H   0  0  0  0  0  0  0  0  0  0  0  0
   33.8886   30.3673   43.1581 H   0  0  0  0  0  0  0  0  0  0  0  0
   33.3662   27.9201   43.0815 H   0  0  0  0  0  0  0  0  0  0  0  0
   32.9802   25.8914   44.2689 H   0  0  0  0  0  0  0  0  0  0  0  0
   33.1149   24.6738   46.3542 H   0  0  0  0  0  0  0  0  0  0  0  0
   33.7903   25.7384   48.4782 H   0  0  0  0  0  0  0  0  0  0  0  0
   34.3234   28.1065   48.3916 H   0  0  0  0  0  0  0  0  0  0  0  0
   34.8086   30.7683   50.7907 H   0  0  0  0  0  0  0  0  0  0  0  0
   38.7636   30.5172   47.0509 H   0  0  0  0  0  0  0  0  0  0  0  0
   39.0604   30.8567   48.7769 H   0  0  0  0  0  0  0  0  0  0  0  0
   38.5186   31.0519   50.3178 H   0  0  0  0  0  0  0  0  0  0  0  0
   37.1942   32.0045   51.1215 H   0  0  0  0  0  0  0  0  0  0  0  0
   37.9501   30.3695   52.6731 H   0  0  0  0  0  0  0  0  0  0  0  0
   36.3517   29.8532   52.0808 H   0  0  0  0  0  0  0  0  0  0  0  0
   38.2789   28.1986   52.0803 H   0  0  0  0  0  0  0  0  0  0  0  0
   37.3033   28.2845   50.7129 H   0  0  0  0  0  0  0  0  0  0  0  0
  1 10  1  0
  1 15  1  0
  2  1  1  0
  3  2  1  0
  4  3  1  0
  4  5  1  0
  5  6  2  0
  5 10  1  0
  6  7  1  0
  7  8  2  0
  9  8  1  0
 10  9  2  0
 12 11  2  0
 12 18  1  0
 13 12  1  0
 14 15  1  0
 14 13  2  0
 15 16  2  0
 16 11  1  0
 17 13  1  0
 18 19  1  0
 20 19  1  0
  1 21  1  6
  2 22  1  0
  3 23  1  0
  3 24  1  0
  4 25  1  0
  6 26  1  0
  7 27  1  0
  8 28  1  0
  9 29  1  0
 11 30  1  0
 17 31  1  0
 17 32  1  0
 18 33  1  0
 18 34  1  0
 19 35  1  0
 19 36  1  0
 20 37  1  0
 20 38  1  0
M  ISO  8  21  13  22   5  23  13  24  13  26  14  27  14  28  14  29  14
M  ISO  7  30  14  33   8  34   8  35   8  36   8  37   5  38   5
M  END
>  <minimizedAffinity>  (1) 
-5.23448896

>  <minimizedRMSD>  (1) 
0.73238802

$$$$
