
     RDKit          3D

 23 24  0  0  0  0  0  0  0  0999 V2000
   37.9740   30.4590   47.1520 C   0  0  0  0  0  0  0  0  0  0  0  0
   38.9720   31.2550   46.4420 C   0  0  0  0  0  0  0  0  0  0  0  0
   39.2100   32.5890   46.7310 C   0  0  0  0  0  0  0  0  0  0  0  0
   40.1920   33.2700   45.9820 C   0  0  0  0  0  0  0  0  0  0  0  0
   40.8530   32.5590   45.0060 N   0  0  0  0  0  0  0  0  0  0  0  0
   40.5850   31.2480   44.7600 C   0  0  0  0  0  0  0  0  0  0  0  0
   39.6380   30.6050   45.4880 N   0  0  0  0  0  0  0  0  0  0  0  0
   37.1670   31.2130   48.1660 C   0  0  0  0  0  0  0  0  0  0  0  0
   37.2920   30.6960   49.5430 C   0  0  0  0  0  0  0  0  0  0  0  0
   36.2860   29.8640   50.0340 C   0  0  0  0  0  0  0  0  0  0  0  0
   36.6520   29.5340   51.3250 C   0  0  0  0  0  0  0  0  0  0  0  0
   37.8220   30.1410   51.5900 N   0  0  0  0  0  0  0  0  0  0  0  0
   38.1870   30.8270   50.5200 N   0  0  0  0  0  0  0  0  0  0  0  0
   38.4957   29.6412   47.6707 H   0  0  0  0  0  0  0  0  0  0  0  0
   37.2615   30.1088   46.3906 H   0  0  0  0  0  0  0  0  0  0  0  0
   38.6476   33.1036   47.5241 H   0  0  0  0  0  0  0  0  0  0  0  0
   40.4211   34.3292   46.1706 H   0  0  0  0  0  0  0  0  0  0  0  0
   41.1347   30.7109   43.9730 H   0  0  0  0  0  0  0  0  0  0  0  0
   37.4980   32.2620   48.1598 H   0  0  0  0  0  0  0  0  0  0  0  0
   36.1112   31.0981   47.8793 H   0  0  0  0  0  0  0  0  0  0  0  0
   35.3819   29.5360   49.5002 H   0  0  0  0  0  0  0  0  0  0  0  0
   36.0864   28.8891   52.0137 H   0  0  0  0  0  0  0  0  0  0  0  0
   38.3449   30.0818   52.4754 H   0  0  0  0  0  0  0  0  0  0  0  0
  1  8  1  0
  2  3  2  0
  2  1  1  0
  4  3  1  0
  5  4  2  0
  6  5  1  0
  6  7  2  0
  7  2  1  0
  8  9  1  0
  9 10  1  0
  9 13  2  0
 10 11  2  0
 11 12  1  0
 13 12  1  0
  1 14  1  0
  1 15  1  0
  3 16  1  0
  4 17  1  0
  6 18  1  0
  8 19  1  0
  8 20  1  0
 10 21  1  0
 11 22  1  0
 12 23  1  0
M  ISO  8  14   8  15   8  16  14  17  14  18  14  19   8  20   8  21  14
M  ISO  2  22  14  23   9
M  END
>  <minimizedAffinity>  (1) 
-4.70397282

>  <minimizedRMSD>  (1) 
3.26354885

$$$$
