
     RDKit          3D

 38 40  0  0  0  0  0  0  0  0999 V2000
   39.7230   31.8600   46.5910 C   0  0  0  0  0  0  0  0  0  0  0  0
   39.7700   31.8210   45.1640 C   0  0  0  0  0  0  0  0  0  0  0  0
   39.4650   32.9190   44.4280 C   0  0  0  0  0  0  0  0  0  0  0  0
   39.5010   32.9180   43.0230 C   0  0  0  0  0  0  0  0  0  0  0  0
   39.8720   31.7040   42.4590 N   0  0  0  0  0  0  0  0  0  0  0  0
   40.1660   30.6390   43.2180 C   0  0  0  0  0  0  0  0  0  0  0  0
   40.1170   30.6920   44.5600 N   0  0  0  0  0  0  0  0  0  0  0  0
   40.5370   29.4310   42.5690 N   0  0  0  0  0  0  0  0  0  0  0  0
   39.9030   28.1460   42.6320 C   0  0  0  0  0  0  0  0  0  0  0  0
   40.0330   27.5290   41.2520 C   0  0  0  0  0  0  0  0  0  0  0  0
   40.9080   28.5260   40.5100 C   0  0  0  0  0  0  0  0  0  0  0  0
   41.6500   29.1770   41.6740 C   0  0  0  0  0  0  0  0  0  0  0  0
   38.5470   32.3780   47.2940 C   0  0  0  0  0  0  0  0  0  0  0  0
   37.8630   31.3930   48.1630 C   0  0  0  0  0  0  0  0  0  0  0  0
   36.8200   30.6160   47.6780 C   0  0  0  0  0  0  0  0  0  0  0  0
   36.3860   29.8060   48.6940 C   0  0  0  0  0  0  0  0  0  0  0  0
   37.1500   30.0900   49.7650 N   0  0  0  0  0  0  0  0  0  0  0  0
   38.0060   31.0220   49.4260 N   0  0  0  0  0  0  0  0  0  0  0  0
   37.0780   29.4910   51.0940 C   0  0  0  0  0  0  0  0  0  0  0  0
   37.8570   28.3650   51.1590 F   0  0  0  0  0  0  0  0  0  0  0  0
   35.7910   29.1630   51.4530 F   0  0  0  0  0  0  0  0  0  0  0  0
   37.5580   30.3870   52.0520 F   0  0  0  0  0  0  0  0  0  0  0  0
   40.5764   32.4737   46.9152 H   0  0  0  0  0  0  0  0  0  0  0  0
   39.7159   30.7938   46.8616 H   0  0  0  0  0  0  0  0  0  0  0  0
   39.1790   33.8441   44.9500 H   0  0  0  0  0  0  0  0  0  0  0  0
   39.2558   33.8048   42.4201 H   0  0  0  0  0  0  0  0  0  0  0  0
   40.4031   27.5125   43.3794 H   0  0  0  0  0  0  0  0  0  0  0  0
   38.8473   28.2391   42.9265 H   0  0  0  0  0  0  0  0  0  0  0  0
   40.5160   26.5421   41.3045 H   0  0  0  0  0  0  0  0  0  0  0  0
   39.0632   27.3563   40.7623 H   0  0  0  0  0  0  0  0  0  0  0  0
   41.6004   28.0218   39.8198 H   0  0  0  0  0  0  0  0  0  0  0  0
   40.3549   29.2305   39.8714 H   0  0  0  0  0  0  0  0  0  0  0  0
   42.3869   28.4941   42.1219 H   0  0  0  0  0  0  0  0  0  0  0  0
   42.2435   30.0641   41.4080 H   0  0  0  0  0  0  0  0  0  0  0  0
   38.8670   33.2238   47.9203 H   0  0  0  0  0  0  0  0  0  0  0  0
   37.8219   32.6647   46.5181 H   0  0  0  0  0  0  0  0  0  0  0  0
   36.4131   30.6455   46.6565 H   0  0  0  0  0  0  0  0  0  0  0  0
   35.5721   29.0677   48.6442 H   0  0  0  0  0  0  0  0  0  0  0  0
  1 13  1  0
  2  1  1  0
  3  2  2  0
  4  3  1  0
  5  4  2  0
  5  6  1  0
  6  7  2  0
  7  2  1  0
  8  9  1  0
  8  6  1  0
 10  9  1  0
 11 10  1  0
 11 12  1  0
 12  8  1  0
 13 14  1  0
 14 18  2  0
 15 14  1  0
 15 16  2  0
 16 17  1  0
 17 19  1  0
 18 17  1  0
 19 20  1  0
 19 21  1  0
 19 22  1  0
  1 23  1  0
  1 24  1  0
  3 25  1  0
  4 26  1  0
  9 27  1  0
  9 28  1  0
 10 29  1  0
 10 30  1  0
 11 31  1  0
 11 32  1  0
 12 33  1  0
 12 34  1  0
 13 35  1  0
 13 36  1  0
 15 37  1  0
 16 38  1  0
M  ISO  8  23   8  24   8  25  14  26  14  27  13  28  13  29  13  30  13
M  ISO  8  31  13  32  13  33  13  34  13  35   8  36   8  37  14  38  14
M  END
>  <minimizedAffinity>  (1) 
-6.32569504

>  <minimizedRMSD>  (1) 
0.534691095

$$$$
