
     RDKit          3D

 36 38  0  0  0  0  0  0  0  0999 V2000
   39.6550   31.8340   45.2830 C   0  0  0  0  0  0  0  0  0  0  0  0
   39.6590   32.9160   44.4580 C   0  0  0  0  0  0  0  0  0  0  0  0
   39.4590   32.8090   43.0710 C   0  0  0  0  0  0  0  0  0  0  0  0
   39.2610   31.5180   42.6320 N   0  0  0  0  0  0  0  0  0  0  0  0
   39.2590   30.4570   43.4540 C   0  0  0  0  0  0  0  0  0  0  0  0
   39.4590   30.6250   44.7900 N   0  0  0  0  0  0  0  0  0  0  0  0
   41.6170   29.2690   42.1720 Cl  0  0  0  0  0  0  0  0  0  0  0  0
   40.0880   28.4560   42.3140 C   0  0  0  0  0  0  0  0  0  0  0  0
   39.0440   29.1080   42.9370 C   0  0  0  0  0  0  0  0  0  0  0  0
   37.8220   28.4790   43.0600 C   0  0  0  0  0  0  0  0  0  0  0  0
   37.6340   27.1870   42.5580 C   0  0  0  0  0  0  0  0  0  0  0  0
   38.7100   26.5900   41.9480 C   0  0  0  0  0  0  0  0  0  0  0  0
   38.5590   24.9680   41.2910 Cl  0  0  0  0  0  0  0  0  0  0  0  0
   39.9320   27.1830   41.8100 C   0  0  0  0  0  0  0  0  0  0  0  0
   39.8640   31.9920   46.6920 C   0  0  0  0  0  0  0  0  0  0  0  0
   38.7990   32.5180   47.5520 C   0  0  0  0  0  0  0  0  0  0  0  0
   38.0740   31.5040   48.3510 C   0  0  0  0  0  0  0  0  0  0  0  0
   37.0680   30.7300   47.7640 C   0  0  0  0  0  0  0  0  0  0  0  0
   36.5720   29.8850   48.7190 C   0  0  0  0  0  0  0  0  0  0  0  0
   37.2540   30.1390   49.8440 N   0  0  0  0  0  0  0  0  0  0  0  0
   38.1190   31.0850   49.5930 N   0  0  0  0  0  0  0  0  0  0  0  0
   37.0950   29.4950   51.1480 C   0  0  0  0  0  0  0  0  0  0  0  0
   37.8650   28.3540   51.2160 F   0  0  0  0  0  0  0  0  0  0  0  0
   35.7850   29.1650   51.4100 F   0  0  0  0  0  0  0  0  0  0  0  0
   37.5490   30.3250   52.1630 F   0  0  0  0  0  0  0  0  0  0  0  0
   39.8251   33.9125   44.8932 H   0  0  0  0  0  0  0  0  0  0  0  0
   39.4604   33.6779   42.3964 H   0  0  0  0  0  0  0  0  0  0  0  0
   36.9889   28.9978   43.5568 H   0  0  0  0  0  0  0  0  0  0  0  0
   36.6664   26.6715   42.6479 H   0  0  0  0  0  0  0  0  0  0  0  0
   40.7639   26.6622   41.3133 H   0  0  0  0  0  0  0  0  0  0  0  0
   40.1228   30.9977   47.0848 H   0  0  0  0  0  0  0  0  0  0  0  0
   40.6297   32.7803   46.7396 H   0  0  0  0  0  0  0  0  0  0  0  0
   39.2497   33.2408   48.2480 H   0  0  0  0  0  0  0  0  0  0  0  0
   38.0539   32.9635   46.8765 H   0  0  0  0  0  0  0  0  0  0  0  0
   36.7339   30.7900   46.7177 H   0  0  0  0  0  0  0  0  0  0  0  0
   35.7706   29.1428   48.5888 H   0  0  0  0  0  0  0  0  0  0  0  0
  1 15  1  0
  2  1  2  0
  3  2  1  0
  4  3  2  0
  4  5  1  0
  5  6  2  0
  6  1  1  0
  7  8  1  0
  8  9  2  0
  9 10  1  0
  9  5  1  0
 11 10  2  0
 12 11  1  0
 13 12  1  0
 14 12  2  0
 14  8  1  0
 15 16  1  0
 16 17  1  0
 17 21  2  0
 18 17  1  0
 18 19  2  0
 19 20  1  0
 20 22  1  0
 21 20  1  0
 22 23  1  0
 22 24  1  0
 22 25  1  0
  2 26  1  0
  3 27  1  0
 10 28  1  0
 11 29  1  0
 14 30  1  0
 15 31  1  0
 15 32  1  0
 16 33  1  0
 16 34  1  0
 18 35  1  0
 19 36  1  0
M  ISO  8  26  14  27  14  28  14  29  14  30  14  31   8  32   8  33   8
M  ISO  3  34   8  35  14  36  14
M  END
>  <minimizedAffinity>  (1) 
-6.31758785

>  <minimizedRMSD>  (1) 
2.05595827

$$$$
