
     RDKit          3D

 33 35  0  0  0  0  0  0  0  0999 V2000
   39.7660   31.6800   46.4270 C   0  0  0  0  0  0  0  0  0  0  0  0
   39.4420   31.7560   45.0370 C   0  0  0  0  0  0  0  0  0  0  0  0
   38.3660   32.5050   44.6200 C   0  0  0  0  0  0  0  0  0  0  0  0
   38.0360   32.5890   43.2600 C   0  0  0  0  0  0  0  0  0  0  0  0
   38.8440   31.8870   42.3940 N   0  0  0  0  0  0  0  0  0  0  0  0
   39.8940   31.1610   42.8330 C   0  0  0  0  0  0  0  0  0  0  0  0
   40.1670   31.1140   44.1530 N   0  0  0  0  0  0  0  0  0  0  0  0
   40.7430   30.4200   41.9000 C   0  0  0  0  0  0  0  0  0  0  0  0
   40.9130   30.6260   40.5530 C   0  0  0  0  0  0  0  0  0  0  0  0
   41.8040   29.7120   40.0270 C   0  0  0  0  0  0  0  0  0  0  0  0
   42.1600   28.9610   41.0850 N   0  0  0  0  0  0  0  0  0  0  0  0
   41.5420   29.3730   42.1800 N   0  0  0  0  0  0  0  0  0  0  0  0
   38.9110   32.3100   47.4380 C   0  0  0  0  0  0  0  0  0  0  0  0
   38.1270   31.3790   48.2680 C   0  0  0  0  0  0  0  0  0  0  0  0
   37.0510   30.6890   47.7330 C   0  0  0  0  0  0  0  0  0  0  0  0
   36.5140   29.9050   48.7170 C   0  0  0  0  0  0  0  0  0  0  0  0
   37.2450   30.1160   49.8170 N   0  0  0  0  0  0  0  0  0  0  0  0
   38.1870   30.9850   49.5300 N   0  0  0  0  0  0  0  0  0  0  0  0
   37.0750   29.5100   51.1480 C   0  0  0  0  0  0  0  0  0  0  0  0
   37.8500   28.3720   51.2570 F   0  0  0  0  0  0  0  0  0  0  0  0
   35.7650   29.1810   51.3970 F   0  0  0  0  0  0  0  0  0  0  0  0
   37.5020   30.3730   52.1370 F   0  0  0  0  0  0  0  0  0  0  0  0
   40.7648   32.1267   46.5400 H   0  0  0  0  0  0  0  0  0  0  0  0
   39.6475   30.6082   46.6444 H   0  0  0  0  0  0  0  0  0  0  0  0
   37.7580   33.0438   45.3617 H   0  0  0  0  0  0  0  0  0  0  0  0
   37.1802   33.1820   42.9050 H   0  0  0  0  0  0  0  0  0  0  0  0
   40.4081   31.4121   39.9723 H   0  0  0  0  0  0  0  0  0  0  0  0
   42.1439   29.6193   38.9849 H   0  0  0  0  0  0  0  0  0  0  0  0
   42.8227   28.1734   41.0477 H   0  0  0  0  0  0  0  0  0  0  0  0
   39.5541   32.9018   48.1060 H   0  0  0  0  0  0  0  0  0  0  0  0
   38.1780   32.9139   46.8830 H   0  0  0  0  0  0  0  0  0  0  0  0
   36.6908   30.7595   46.6960 H   0  0  0  0  0  0  0  0  0  0  0  0
   35.6492   29.2319   48.6220 H   0  0  0  0  0  0  0  0  0  0  0  0
  1 13  1  0
  2  1  1  0
  3  2  2  0
  4  3  1  0
  5  6  1  0
  5  4  2  0
  6  7  2  0
  7  2  1  0
  8 12  2  0
  8  6  1  0
  9  8  1  0
 10  9  2  0
 10 11  1  0
 11 12  1  0
 13 14  1  0
 14 18  2  0
 15 14  1  0
 15 16  2  0
 16 17  1  0
 17 19  1  0
 18 17  1  0
 19 20  1  0
 19 21  1  0
 19 22  1  0
  1 23  1  0
  1 24  1  0
  3 25  1  0
  4 26  1  0
  9 27  1  0
 10 28  1  0
 11 29  1  0
 13 30  1  0
 13 31  1  0
 15 32  1  0
 16 33  1  0
M  ISO  8  23   8  24   8  25  14  26  14  27  14  28  14  29   9  30   8
M  ISO  3  31   8  32  14  33  14
M  END
>  <minimizedAffinity>  (1) 
-6.25123692

>  <minimizedRMSD>  (1) 
0.64549917

$$$$
