
     RDKit          3D

 33 35  0  0  0  0  0  0  0  0999 V2000
   39.6370   31.8110   46.4860 C   0  0  0  0  0  0  0  0  0  0  0  0
   39.2180   31.8490   45.1140 C   0  0  0  0  0  0  0  0  0  0  0  0
   38.0800   32.4920   44.7450 C   0  0  0  0  0  0  0  0  0  0  0  0
   37.6520   32.5420   43.4110 C   0  0  0  0  0  0  0  0  0  0  0  0
   38.4720   31.8920   42.5150 N   0  0  0  0  0  0  0  0  0  0  0  0
   39.5970   31.2580   42.8950 C   0  0  0  0  0  0  0  0  0  0  0  0
   39.9430   31.2540   44.1980 N   0  0  0  0  0  0  0  0  0  0  0  0
   40.4450   30.5790   41.9190 C   0  0  0  0  0  0  0  0  0  0  0  0
   41.0490   29.3460   42.1650 C   0  0  0  0  0  0  0  0  0  0  0  0
   41.7790   28.9750   41.0520 C   0  0  0  0  0  0  0  0  0  0  0  0
   41.5820   30.0170   40.1670 C   0  0  0  0  0  0  0  0  0  0  0  0
   40.8150   30.8980   40.7160 O   0  0  0  0  0  0  0  0  0  0  0  0
   38.7910   32.3940   47.5330 C   0  0  0  0  0  0  0  0  0  0  0  0
   38.0600   31.4220   48.3580 C   0  0  0  0  0  0  0  0  0  0  0  0
   37.0210   30.6750   47.8100 C   0  0  0  0  0  0  0  0  0  0  0  0
   36.5120   29.8510   48.7790 C   0  0  0  0  0  0  0  0  0  0  0  0
   37.2160   30.0870   49.8840 N   0  0  0  0  0  0  0  0  0  0  0  0
   38.1210   31.0140   49.6120 N   0  0  0  0  0  0  0  0  0  0  0  0
   37.0790   29.4750   51.1990 C   0  0  0  0  0  0  0  0  0  0  0  0
   37.8600   28.3360   51.2900 F   0  0  0  0  0  0  0  0  0  0  0  0
   35.7630   29.1290   51.4680 F   0  0  0  0  0  0  0  0  0  0  0  0
   37.5100   30.3390   52.2050 F   0  0  0  0  0  0  0  0  0  0  0  0
   40.6053   32.3306   46.5357 H   0  0  0  0  0  0  0  0  0  0  0  0
   39.6232   30.7368   46.7223 H   0  0  0  0  0  0  0  0  0  0  0  0
   37.4750   32.9893   45.5174 H   0  0  0  0  0  0  0  0  0  0  0  0
   36.7320   33.0605   43.1033 H   0  0  0  0  0  0  0  0  0  0  0  0
   40.9589   28.7637   43.0939 H   0  0  0  0  0  0  0  0  0  0  0  0
   42.3769   28.0634   40.9052 H   0  0  0  0  0  0  0  0  0  0  0  0
   42.0103   30.0851   39.1561 H   0  0  0  0  0  0  0  0  0  0  0  0
   39.4337   32.9899   48.1977 H   0  0  0  0  0  0  0  0  0  0  0  0
   38.0267   32.9897   47.0124 H   0  0  0  0  0  0  0  0  0  0  0  0
   36.6670   30.7362   46.7703 H   0  0  0  0  0  0  0  0  0  0  0  0
   35.6844   29.1352   48.6662 H   0  0  0  0  0  0  0  0  0  0  0  0
  1 13  1  0
  2  1  1  0
  3  2  2  0
  4  3  1  0
  5  6  1  0
  5  4  2  0
  6  7  2  0
  7  2  1  0
  8  9  2  0
  8  6  1  0
 10  9  1  0
 11 12  1  0
 11 10  2  0
 12  8  1  0
 13 14  1  0
 14 18  2  0
 15 14  1  0
 15 16  2  0
 16 17  1  0
 17 19  1  0
 18 17  1  0
 19 20  1  0
 19 21  1  0
 19 22  1  0
  1 23  1  0
  1 24  1  0
  3 25  1  0
  4 26  1  0
  9 27  1  0
 10 28  1  0
 11 29  1  0
 13 30  1  0
 13 31  1  0
 15 32  1  0
 16 33  1  0
M  ISO  8  23   8  24   8  25  14  26  14  27  14  28  14  29  14  30   8
M  ISO  3  31   8  32  14  33  14
M  END
>  <minimizedAffinity>  (1) 
-6.02654314

>  <minimizedRMSD>  (1) 
0.809927166

$$$$
