
     RDKit          3D

 37 39  0  0  0  0  0  0  0  0999 V2000
   39.8100   31.8600   45.1300 C   0  0  0  0  0  0  0  0  0  0  0  0
   39.5160   33.0670   44.5830 C   0  0  0  0  0  0  0  0  0  0  0  0
   39.4320   33.2690   43.2020 C   0  0  0  0  0  0  0  0  0  0  0  0
   39.6750   32.1350   42.4440 N   0  0  0  0  0  0  0  0  0  0  0  0
   39.9650   30.9460   42.9930 C   0  0  0  0  0  0  0  0  0  0  0  0
   40.0260   30.8380   44.3370 N   0  0  0  0  0  0  0  0  0  0  0  0
   39.2350   28.8090   42.0410 C   0  0  0  0  0  0  0  0  0  0  0  0
   40.2140   29.7760   42.1530 C   0  0  0  0  0  0  0  0  0  0  0  0
   41.4080   29.6300   41.4750 C   0  0  0  0  0  0  0  0  0  0  0  0
   41.6200   28.5000   40.6770 C   0  0  0  0  0  0  0  0  0  0  0  0
   40.6020   27.5690   40.6090 C   0  0  0  0  0  0  0  0  0  0  0  0
   39.3900   27.6630   41.2620 C   0  0  0  0  0  0  0  0  0  0  0  0
   36.9670   29.0830   43.3070 N   0  0  0  0  0  0  0  0  0  0  0  0
   37.9830   28.9500   42.7440 C   0  0  0  0  0  0  0  0  0  0  0  0
   39.8810   31.7060   46.5480 C   0  0  0  0  0  0  0  0  0  0  0  0
   38.8880   32.3190   47.4300 C   0  0  0  0  0  0  0  0  0  0  0  0
   38.1070   31.3760   48.2630 C   0  0  0  0  0  0  0  0  0  0  0  0
   37.0320   30.6790   47.7170 C   0  0  0  0  0  0  0  0  0  0  0  0
   36.4990   29.8910   48.7040 C   0  0  0  0  0  0  0  0  0  0  0  0
   37.2350   30.1100   49.8080 N   0  0  0  0  0  0  0  0  0  0  0  0
   38.1620   30.9800   49.5180 N   0  0  0  0  0  0  0  0  0  0  0  0
   37.0650   29.5030   51.1330 C   0  0  0  0  0  0  0  0  0  0  0  0
   37.8440   28.3850   51.2560 F   0  0  0  0  0  0  0  0  0  0  0  0
   35.7490   29.1780   51.3850 F   0  0  0  0  0  0  0  0  0  0  0  0
   37.4630   30.3980   52.1280 F   0  0  0  0  0  0  0  0  0  0  0  0
   39.3366   33.9206   45.2532 H   0  0  0  0  0  0  0  0  0  0  0  0
   39.1932   34.2454   42.7553 H   0  0  0  0  0  0  0  0  0  0  0  0
   42.1897   30.3990   41.5618 H   0  0  0  0  0  0  0  0  0  0  0  0
   42.5611   28.3587   40.1252 H   0  0  0  0  0  0  0  0  0  0  0  0
   40.7712   26.6802   39.9833 H   0  0  0  0  0  0  0  0  0  0  0  0
   38.6078   26.8945   41.1749 H   0  0  0  0  0  0  0  0  0  0  0  0
   39.8473   30.6244   46.7456 H   0  0  0  0  0  0  0  0  0  0  0  0
   40.7983   32.2574   46.8021 H   0  0  0  0  0  0  0  0  0  0  0  0
   39.4144   33.0107   48.1041 H   0  0  0  0  0  0  0  0  0  0  0  0
   38.1602   32.8122   46.7689 H   0  0  0  0  0  0  0  0  0  0  0  0
   36.6744   30.7484   46.6791 H   0  0  0  0  0  0  0  0  0  0  0  0
   35.6381   29.2126   48.6112 H   0  0  0  0  0  0  0  0  0  0  0  0
  1 15  1  0
  2  1  2  0
  3  2  1  0
  4  5  1  0
  4  3  2  0
  5  6  2  0
  6  1  1  0
  7  8  2  0
  7 14  1  0
  8  5  1  0
  9  8  1  0
 10  9  2  0
 11 10  1  0
 11 12  2  0
 12  7  1  0
 14 13  3  0
 15 16  1  0
 16 17  1  0
 17 21  2  0
 18 17  1  0
 18 19  2  0
 19 20  1  0
 20 22  1  0
 21 20  1  0
 22 23  1  0
 22 24  1  0
 22 25  1  0
  2 26  1  0
  3 27  1  0
  9 28  1  0
 10 29  1  0
 11 30  1  0
 12 31  1  0
 15 32  1  0
 15 33  1  0
 16 34  1  0
 16 35  1  0
 18 36  1  0
 19 37  1  0
M  ISO  8  26  14  27  14  28  14  29  14  30  14  31  14  32   8  33   8
M  ISO  4  34   8  35   8  36  14  37  14
M  END
>  <minimizedAffinity>  (1) 
-5.99489212

>  <minimizedRMSD>  (1) 
0.65819782

$$$$
