
     RDKit          3D

 33 35  0  0  0  0  0  0  0  0999 V2000
   39.7180   31.5480   46.3310 C   0  0  0  0  0  0  0  0  0  0  0  0
   39.3340   31.7110   44.9660 C   0  0  0  0  0  0  0  0  0  0  0  0
   38.2690   32.4770   44.6210 C   0  0  0  0  0  0  0  0  0  0  0  0
   37.8710   32.6530   43.2870 C   0  0  0  0  0  0  0  0  0  0  0  0
   38.6510   31.9850   42.3640 N   0  0  0  0  0  0  0  0  0  0  0  0
   39.7010   31.2320   42.7270 C   0  0  0  0  0  0  0  0  0  0  0  0
   40.0240   31.1090   44.0260 N   0  0  0  0  0  0  0  0  0  0  0  0
   40.4840   30.5490   41.6590 C   0  0  0  0  0  0  0  0  0  0  0  0
   40.6300   30.8770   40.3910 C   0  0  0  0  0  0  0  0  0  0  0  0
   41.4080   30.0940   39.5750 C   0  0  0  0  0  0  0  0  0  0  0  0
   41.9970   29.0000   40.1330 C   0  0  0  0  0  0  0  0  0  0  0  0
   41.4130   29.0940   41.9080 S   0  0  0  0  0  0  0  0  0  0  0  0
   38.9700   32.2110   47.4010 C   0  0  0  0  0  0  0  0  0  0  0  0
   38.1540   31.3100   48.2460 C   0  0  0  0  0  0  0  0  0  0  0  0
   37.0480   30.6600   47.7190 C   0  0  0  0  0  0  0  0  0  0  0  0
   36.4880   29.8990   48.7170 C   0  0  0  0  0  0  0  0  0  0  0  0
   37.2440   30.0950   49.8120 N   0  0  0  0  0  0  0  0  0  0  0  0
   38.2060   30.9220   49.5030 N   0  0  0  0  0  0  0  0  0  0  0  0
   37.0660   29.5090   51.1390 C   0  0  0  0  0  0  0  0  0  0  0  0
   37.8420   28.3820   51.2700 F   0  0  0  0  0  0  0  0  0  0  0  0
   35.7500   29.1710   51.3780 F   0  0  0  0  0  0  0  0  0  0  0  0
   37.4600   30.4050   52.1270 F   0  0  0  0  0  0  0  0  0  0  0  0
   40.7573   31.8996   46.4094 H   0  0  0  0  0  0  0  0  0  0  0  0
   39.5197   30.4820   46.5165 H   0  0  0  0  0  0  0  0  0  0  0  0
   37.6968   32.9782   45.4156 H   0  0  0  0  0  0  0  0  0  0  0  0
   37.0084   33.2723   43.0001 H   0  0  0  0  0  0  0  0  0  0  0  0
   40.1320   31.7718   39.9894 H   0  0  0  0  0  0  0  0  0  0  0  0
   41.5502   30.3403   38.5124 H   0  0  0  0  0  0  0  0  0  0  0  0
   42.6500   28.2515   39.6603 H   0  0  0  0  0  0  0  0  0  0  0  0
   39.6909   32.7283   48.0512 H   0  0  0  0  0  0  0  0  0  0  0  0
   38.2622   32.8913   46.9049 H   0  0  0  0  0  0  0  0  0  0  0  0
   36.6832   30.7396   46.6843 H   0  0  0  0  0  0  0  0  0  0  0  0
   35.5983   29.2572   48.6363 H   0  0  0  0  0  0  0  0  0  0  0  0
  1 13  1  0
  2  1  1  0
  3  2  2  0
  4  3  1  0
  5  6  1  0
  5  4  2  0
  6  7  2  0
  7  2  1  0
  8 12  1  0
  8  6  1  0
  9  8  2  0
 10 11  2  0
 10  9  1  0
 11 12  1  0
 13 14  1  0
 14 18  2  0
 15 14  1  0
 15 16  2  0
 16 17  1  0
 17 19  1  0
 18 17  1  0
 19 20  1  0
 19 21  1  0
 19 22  1  0
  1 23  1  0
  1 24  1  0
  3 25  1  0
  4 26  1  0
  9 27  1  0
 10 28  1  0
 11 29  1  0
 13 30  1  0
 13 31  1  0
 15 32  1  0
 16 33  1  0
M  ISO  8  23   8  24   8  25  14  26  14  27  14  28  14  29  14  30   8
M  ISO  3  31   8  32  14  33  14
M  END
>  <minimizedAffinity>  (1) 
-5.95072699

>  <minimizedRMSD>  (1) 
0.765183151

$$$$
