
     RDKit          3D

 33 36  0  0  0  0  0  0  0  0999 V2000
   35.9340   30.1760   47.0700 Cl  0  0  0  0  0  0  0  0  0  0  0  0
   36.4210   30.0440   48.7540 C   0  0  0  0  0  0  0  0  0  0  0  0
   37.5850   30.6870   49.0890 C   0  0  0  0  0  0  0  0  0  0  0  0
   37.9920   30.5940   50.4280 C   0  0  0  0  0  0  0  0  0  0  0  0
   37.2330   29.8830   51.3230 C   0  0  0  0  0  0  0  0  0  0  0  0
   36.0770   29.2680   50.8970 C   0  0  0  0  0  0  0  0  0  0  0  0
   35.6190   29.3200   49.5930 C   0  0  0  0  0  0  0  0  0  0  0  0
   34.3470   27.6820   48.2370 C   0  0  0  0  0  0  0  0  0  0  0  0
   34.3990   28.6500   49.2230 C   0  0  0  0  0  0  0  0  0  0  0  0
   33.2110   28.9580   49.8560 C   0  0  0  0  0  0  0  0  0  0  0  0
   32.0040   28.3420   49.5410 C   0  0  0  0  0  0  0  0  0  0  0  0
   30.7390   28.4520   49.9890 N   0  0  0  0  0  0  0  0  0  0  0  0
   29.9350   27.6070   49.3300 C   0  0  0  0  0  0  0  0  0  0  0  0
   30.7050   26.9460   48.4420 N   0  0  0  0  0  0  0  0  0  0  0  0
   31.9880   27.3790   48.5500 C   0  0  0  0  0  0  0  0  0  0  0  0
   33.1650   27.0520   47.8980 C   0  0  0  0  0  0  0  0  0  0  0  0
   39.3850   33.4460   47.5240 C   0  0  0  0  0  0  0  0  0  0  0  0
   39.8380   32.9150   46.3180 C   0  0  0  0  0  0  0  0  0  0  0  0
   39.5130   31.5730   46.0390 C   0  0  0  0  0  0  0  0  0  0  0  0
   38.7800   30.8690   46.9550 N   0  0  0  0  0  0  0  0  0  0  0  0
   38.3680   31.4350   48.1090 C   0  0  0  0  0  0  0  0  0  0  0  0
   38.6710   32.7210   48.3900 N   0  0  0  0  0  0  0  0  0  0  0  0
   38.9165   31.0894   50.7595 H   0  0  0  0  0  0  0  0  0  0  0  0
   37.5461   29.8048   52.3746 H   0  0  0  0  0  0  0  0  0  0  0  0
   35.4856   28.7047   51.6339 H   0  0  0  0  0  0  0  0  0  0  0  0
   35.2714   27.4061   47.7084 H   0  0  0  0  0  0  0  0  0  0  0  0
   33.2194   29.7248   50.6447 H   0  0  0  0  0  0  0  0  0  0  0  0
   30.4328   29.0949   50.7332 H   0  0  0  0  0  0  0  0  0  0  0  0
   28.8536   27.4772   49.4838 H   0  0  0  0  0  0  0  0  0  0  0  0
   33.1589   26.2876   47.1070 H   0  0  0  0  0  0  0  0  0  0  0  0
   39.6219   34.4916   47.7701 H   0  0  0  0  0  0  0  0  0  0  0  0
   40.4260   33.5197   45.6119 H   0  0  0  0  0  0  0  0  0  0  0  0
   39.8424   31.0999   45.1022 H   0  0  0  0  0  0  0  0  0  0  0  0
  1  2  1  0
  2  3  2  0
  2  7  1  0
  3  4  1  0
  4  5  2  0
  6  5  1  0
  7  6  2  0
  8  9  2  0
  9  7  1  0
  9 10  1  0
 11 10  2  0
 11 12  1  0
 13 12  1  0
 14 15  1  0
 14 13  2  0
 15 11  1  0
 16  8  1  0
 16 15  2  0
 17 22  2  0
 18 17  1  0
 19 18  2  0
 19 20  1  0
 20 21  2  0
 21 22  1  0
 21  3  1  0
  4 23  1  0
  5 24  1  0
  6 25  1  0
  8 26  1  0
 10 27  1  0
 12 28  1  0
 13 29  1  0
 16 30  1  0
 17 31  1  0
 18 32  1  0
 19 33  1  0
M  ISO  8  23  14  24  14  25  14  26  14  27  14  28   9  29  14  30  14
M  ISO  3  31  14  32  14  33  14
M  END
>  <minimizedAffinity>  (1) 
-7.09807682

>  <minimizedRMSD>  (1) 
1.08469224

$$$$
