
     RDKit          3D

 30 32  0  0  0  0  0  0  0  0999 V2000
   36.6510   30.4480   45.9490 Cl  0  0  0  0  0  0  0  0  0  0  0  0
   36.8930   30.6960   47.6640 C   0  0  0  0  0  0  0  0  0  0  0  0
   38.0720   31.3020   48.0130 C   0  0  0  0  0  0  0  0  0  0  0  0
   38.2870   31.5120   49.3890 C   0  0  0  0  0  0  0  0  0  0  0  0
   37.3310   31.1100   50.2930 C   0  0  0  0  0  0  0  0  0  0  0  0
   36.1860   30.5140   49.8530 C   0  0  0  0  0  0  0  0  0  0  0  0
   35.9060   30.2760   48.5190 C   0  0  0  0  0  0  0  0  0  0  0  0
   40.2370   33.4420   46.0210 C   0  0  0  0  0  0  0  0  0  0  0  0
   40.9260   32.5640   45.1870 C   0  0  0  0  0  0  0  0  0  0  0  0
   40.6270   31.1920   45.3250 C   0  0  0  0  0  0  0  0  0  0  0  0
   39.6960   30.8060   46.2500 N   0  0  0  0  0  0  0  0  0  0  0  0
   39.0640   31.7150   47.0270 C   0  0  0  0  0  0  0  0  0  0  0  0
   39.3370   33.0200   46.9080 N   0  0  0  0  0  0  0  0  0  0  0  0
   35.1730   27.7740   49.5170 F   0  0  0  0  0  0  0  0  0  0  0  0
   34.3980   28.3900   48.5930 C   0  0  0  0  0  0  0  0  0  0  0  0
   34.6850   29.6400   48.0380 C   0  0  0  0  0  0  0  0  0  0  0  0
   33.8490   30.2080   47.0990 C   0  0  0  0  0  0  0  0  0  0  0  0
   32.6990   29.5480   46.6840 C   0  0  0  0  0  0  0  0  0  0  0  0
   32.4310   28.2980   47.2530 C   0  0  0  0  0  0  0  0  0  0  0  0
   33.2570   27.7130   48.1930 C   0  0  0  0  0  0  0  0  0  0  0  0
   39.2122   31.9937   49.7382 H   0  0  0  0  0  0  0  0  0  0  0  0
   37.4900   31.2692   51.3697 H   0  0  0  0  0  0  0  0  0  0  0  0
   35.4421   30.2046   50.6019 H   0  0  0  0  0  0  0  0  0  0  0  0
   40.4431   34.5198   45.9445 H   0  0  0  0  0  0  0  0  0  0  0  0
   41.6665   32.9227   44.4570 H   0  0  0  0  0  0  0  0  0  0  0  0
   41.1348   30.4441   44.6983 H   0  0  0  0  0  0  0  0  0  0  0  0
   34.0952   31.1926   46.6749 H   0  0  0  0  0  0  0  0  0  0  0  0
   32.0247   29.9913   45.9364 H   0  0  0  0  0  0  0  0  0  0  0  0
   31.5251   27.7589   46.9387 H   0  0  0  0  0  0  0  0  0  0  0  0
   33.0134   26.7274   48.6164 H   0  0  0  0  0  0  0  0  0  0  0  0
  1  2  1  0
  2  3  2  0
  2  7  1  0
  3  4  1  0
  4  5  2  0
  6  5  1  0
  7  6  2  0
  8 13  2  0
  9 10  2  0
  9  8  1  0
 10 11  1  0
 11 12  2  0
 12  3  1  0
 13 12  1  0
 15 14  1  0
 16  7  1  0
 16 15  2  0
 17 16  1  0
 18 17  2  0
 18 19  1  0
 19 20  2  0
 20 15  1  0
  4 21  1  0
  5 22  1  0
  6 23  1  0
  8 24  1  0
  9 25  1  0
 10 26  1  0
 17 27  1  0
 18 28  1  0
 19 29  1  0
 20 30  1  0
M  ISO  8  21  14  22  14  23  14  24  14  25  14  26  14  27  14  28  14
M  ISO  2  29  14  30  14
M  END
>  <minimizedAffinity>  (1) 
-6.80056763

>  <minimizedRMSD>  (1) 
0.525912642

$$$$
