
     RDKit          3D

 27 29  0  0  0  0  0  0  0  0999 V2000
   36.2230   30.3710   46.9880 Cl  0  0  0  0  0  0  0  0  0  0  0  0
   36.6850   30.2500   48.6690 C   0  0  0  0  0  0  0  0  0  0  0  0
   37.8460   30.9040   49.0140 C   0  0  0  0  0  0  0  0  0  0  0  0
   38.2420   30.8230   50.3570 C   0  0  0  0  0  0  0  0  0  0  0  0
   37.4790   30.1140   51.2430 C   0  0  0  0  0  0  0  0  0  0  0  0
   36.3400   29.4940   50.8220 C   0  0  0  0  0  0  0  0  0  0  0  0
   35.8940   29.5340   49.5200 C   0  0  0  0  0  0  0  0  0  0  0  0
   39.5980   33.6900   47.4360 C   0  0  0  0  0  0  0  0  0  0  0  0
   40.1060   33.1320   46.2400 C   0  0  0  0  0  0  0  0  0  0  0  0
   39.8350   31.7860   45.9930 C   0  0  0  0  0  0  0  0  0  0  0  0
   39.1030   31.1130   46.9170 N   0  0  0  0  0  0  0  0  0  0  0  0
   38.6310   31.6540   48.0410 C   0  0  0  0  0  0  0  0  0  0  0  0
   38.8850   32.9620   48.3020 N   0  0  0  0  0  0  0  0  0  0  0  0
   34.6700   28.8350   49.1880 C   0  0  0  0  0  0  0  0  0  0  0  0
   34.3050   27.8110   48.3500 C   0  0  0  0  0  0  0  0  0  0  0  0
   32.9660   27.5210   48.4150 C   0  0  0  0  0  0  0  0  0  0  0  0
   32.5180   28.3910   49.3130 N   0  0  0  0  0  0  0  0  0  0  0  0
   33.4910   29.1490   49.7610 N   0  0  0  0  0  0  0  0  0  0  0  0
   39.1598   31.3262   50.6952 H   0  0  0  0  0  0  0  0  0  0  0  0
   37.7847   30.0437   52.2973 H   0  0  0  0  0  0  0  0  0  0  0  0
   35.7474   28.9334   51.5599 H   0  0  0  0  0  0  0  0  0  0  0  0
   39.7942   34.7490   47.6595 H   0  0  0  0  0  0  0  0  0  0  0  0
   40.6922   33.7360   45.5318 H   0  0  0  0  0  0  0  0  0  0  0  0
   40.2011   31.2883   45.0829 H   0  0  0  0  0  0  0  0  0  0  0  0
   35.0115   27.2793   47.6956 H   0  0  0  0  0  0  0  0  0  0  0  0
   32.4023   26.7565   47.8603 H   0  0  0  0  0  0  0  0  0  0  0  0
   31.5366   28.4614   49.6175 H   0  0  0  0  0  0  0  0  0  0  0  0
  1  2  1  0
  2  3  2  0
  2  7  1  0
  3  4  1  0
  4  5  2  0
  6  5  1  0
  7  6  2  0
  8 13  2  0
  9  8  1  0
 10  9  2  0
 10 11  1  0
 11 12  2  0
 12 13  1  0
 12  3  1  0
 14  7  1  0
 14 18  2  0
 15 16  2  0
 15 14  1  0
 16 17  1  0
 17 18  1  0
  4 19  1  0
  5 20  1  0
  6 21  1  0
  8 22  1  0
  9 23  1  0
 10 24  1  0
 15 25  1  0
 16 26  1  0
 17 27  1  0
M  ISO  8  19  14  20  14  21  14  22  14  23  14  24  14  25  14  26  14
M  ISO  1  27   9
M  END
>  <minimizedAffinity>  (1) 
-6.42373133

>  <minimizedRMSD>  (1) 
0.910086513

$$$$
