
     RDKit          3D

 31 34  0  0  0  0  0  0  0  0999 V2000
   36.5830   30.0410   46.1240 Cl  0  0  0  0  0  0  0  0  0  0  0  0
   36.7930   30.4020   47.8230 C   0  0  0  0  0  0  0  0  0  0  0  0
   37.9180   31.1370   48.1640 C   0  0  0  0  0  0  0  0  0  0  0  0
   38.1090   31.4390   49.5200 C   0  0  0  0  0  0  0  0  0  0  0  0
   37.1850   31.0000   50.4400 C   0  0  0  0  0  0  0  0  0  0  0  0
   36.0900   30.2740   50.0290 C   0  0  0  0  0  0  0  0  0  0  0  0
   35.8500   29.9480   48.7170 C   0  0  0  0  0  0  0  0  0  0  0  0
   34.7410   29.2050   48.2500 N   0  0  0  0  0  0  0  0  0  0  0  0
   34.5350   27.9200   48.5930 C   0  0  0  0  0  0  0  0  0  0  0  0
   33.3840   27.5440   47.9620 N   0  0  0  0  0  0  0  0  0  0  0  0
   32.9180   28.5970   47.2560 C   0  0  0  0  0  0  0  0  0  0  0  0
   31.7790   28.6990   46.4540 C   0  0  0  0  0  0  0  0  0  0  0  0
   31.5130   29.8800   45.8340 N   0  0  0  0  0  0  0  0  0  0  0  0
   32.4010   30.8910   46.0510 C   0  0  0  0  0  0  0  0  0  0  0  0
   33.5160   30.8340   46.8200 N   0  0  0  0  0  0  0  0  0  0  0  0
   33.7830   29.6770   47.4310 C   0  0  0  0  0  0  0  0  0  0  0  0
   40.0530   33.3510   46.2020 C   0  0  0  0  0  0  0  0  0  0  0  0
   40.6550   32.5120   45.2630 C   0  0  0  0  0  0  0  0  0  0  0  0
   40.3070   31.1520   45.3200 C   0  0  0  0  0  0  0  0  0  0  0  0
   39.4190   30.7260   46.2670 N   0  0  0  0  0  0  0  0  0  0  0  0
   38.8690   31.5800   47.1470 C   0  0  0  0  0  0  0  0  0  0  0  0
   39.1900   32.8880   47.1080 N   0  0  0  0  0  0  0  0  0  0  0  0
   38.9858   32.0191   49.8438 H   0  0  0  0  0  0  0  0  0  0  0  0
   37.3216   31.2298   51.5070 H   0  0  0  0  0  0  0  0  0  0  0  0
   35.3707   29.9380   50.7904 H   0  0  0  0  0  0  0  0  0  0  0  0
   35.1649   27.2997   49.2476 H   0  0  0  0  0  0  0  0  0  0  0  0
   31.1074   27.8373   46.3258 H   0  0  0  0  0  0  0  0  0  0  0  0
   32.1920   31.8489   45.5523 H   0  0  0  0  0  0  0  0  0  0  0  0
   40.2968   34.4236   46.1949 H   0  0  0  0  0  0  0  0  0  0  0  0
   41.3657   32.8960   44.5164 H   0  0  0  0  0  0  0  0  0  0  0  0
   40.7455   30.4367   44.6087 H   0  0  0  0  0  0  0  0  0  0  0  0
  1  2  1  0
  2  3  2  0
  2  7  1  0
  3  4  1  0
  4  5  2  0
  6  5  1  0
  7  6  2  0
  8  9  1  0
  8  7  1  0
 10  9  2  0
 11 16  2  0
 11 10  1  0
 12 11  1  0
 13 14  1  0
 13 12  2  0
 14 15  2  0
 15 16  1  0
 16  8  1  0
 17 22  2  0
 18 19  2  0
 18 17  1  0
 19 20  1  0
 20 21  2  0
 21  3  1  0
 22 21  1  0
  4 23  1  0
  5 24  1  0
  6 25  1  0
  9 26  1  0
 12 27  1  0
 14 28  1  0
 17 29  1  0
 18 30  1  0
 19 31  1  0
M  ISO  8  23  14  24  14  25  14  26  14  27  14  28  14  29  14  30  14
M  ISO  1  31  14
M  END
>  <minimizedAffinity>  (1) 
-6.15675974

>  <minimizedRMSD>  (1) 
0.537539601

$$$$
