
     RDKit          3D

 22 23  0  0  0  0  0  0  0  0999 V2000
   36.3110   30.4850   46.4310 Cl  0  0  0  0  0  0  0  0  0  0  0  0
   36.7570   30.5270   48.1280 C   0  0  0  0  0  0  0  0  0  0  0  0
   37.9920   31.0690   48.4020 C   0  0  0  0  0  0  0  0  0  0  0  0
   38.3750   31.1150   49.7580 C   0  0  0  0  0  0  0  0  0  0  0  0
   37.5120   30.6250   50.7160 C   0  0  0  0  0  0  0  0  0  0  0  0
   36.3050   30.1040   50.3440 C   0  0  0  0  0  0  0  0  0  0  0  0
   35.8800   30.0340   49.0500 C   0  0  0  0  0  0  0  0  0  0  0  0
   39.9870   33.3790   46.4150 C   0  0  0  0  0  0  0  0  0  0  0  0
   40.5320   32.5890   45.4040 C   0  0  0  0  0  0  0  0  0  0  0  0
   40.1980   31.2300   45.4150 C   0  0  0  0  0  0  0  0  0  0  0  0
   39.3760   30.7730   46.3980 N   0  0  0  0  0  0  0  0  0  0  0  0
   38.8710   31.5750   47.3590 C   0  0  0  0  0  0  0  0  0  0  0  0
   39.1800   32.8910   47.3650 N   0  0  0  0  0  0  0  0  0  0  0  0
   34.5820   29.4650   48.7290 C   0  0  0  0  0  0  0  0  0  0  0  0
   34.0660   28.6080   49.4730 O   0  0  0  0  0  0  0  0  0  0  0  0
   39.3490   31.5360   50.0481 H   0  0  0  0  0  0  0  0  0  0  0  0
   37.7953   30.6537   51.7785 H   0  0  0  0  0  0  0  0  0  0  0  0
   35.6396   29.7200   51.1313 H   0  0  0  0  0  0  0  0  0  0  0  0
   40.2310   34.4514   46.4329 H   0  0  0  0  0  0  0  0  0  0  0  0
   41.1931   33.0136   44.6342 H   0  0  0  0  0  0  0  0  0  0  0  0
   40.5908   30.5475   44.6470 H   0  0  0  0  0  0  0  0  0  0  0  0
   34.0510   29.7928   47.8231 H   0  0  0  0  0  0  0  0  0  0  0  0
  1  2  1  0
  2  3  2  0
  2  7  1  0
  3  4  1  0
  4  5  2  0
  6  5  1  0
  7  6  2  0
  8 13  2  0
  9 10  2  0
  9  8  1  0
 10 11  1  0
 11 12  2  0
 12 13  1  0
 12  3  1  0
 14  7  1  0
 14 15  2  0
  4 16  1  0
  5 17  1  0
  6 18  1  0
  8 19  1  0
  9 20  1  0
 10 21  1  0
 14 22  1  0
M  ISO  7  16  14  17  14  18  14  19  14  20  14  21  14  22   6
M  END
>  <minimizedAffinity>  (1) 
-5.52311945

>  <minimizedRMSD>  (1) 
0.12867628

$$$$
