
     RDKit          3D

 39 41  0  0  1  0  0  0  0  0999 V2000
   34.1610   29.7710   47.7080 C   0  0  1  0  0  0  0  0  0  0  0  0
   33.5770   30.6440   46.6930 C   0  0  0  0  0  0  0  0  0  0  0  0
   32.3510   29.8570   46.2260 C   0  0  0  0  0  0  0  0  0  0  0  0
   32.9710   28.7930   45.3220 C   0  0  0  0  0  0  0  0  0  0  0  0
   33.9800   27.9540   45.9620 C   0  0  0  0  0  0  0  0  0  0  0  0
   34.4010   28.3250   47.3410 C   0  0  2  0  0  0  0  0  0  0  0  0
   36.3420   30.5430   45.7340 Cl  0  0  0  0  0  0  0  0  0  0  0  0
   36.4830   30.6940   47.4670 C   0  0  0  0  0  0  0  0  0  0  0  0
   37.6860   31.1840   47.8920 C   0  0  0  0  0  0  0  0  0  0  0  0
   37.8520   31.3970   49.2520 C   0  0  0  0  0  0  0  0  0  0  0  0
   36.7880   31.1050   50.0940 C   0  0  0  0  0  0  0  0  0  0  0  0
   35.6070   30.6150   49.5710 C   0  0  0  0  0  0  0  0  0  0  0  0
   35.4050   30.3880   48.2530 C   0  0  0  0  0  0  0  0  0  0  0  0
   40.1070   33.1690   46.0020 C   0  0  0  0  0  0  0  0  0  0  0  0
   40.7360   32.2580   45.1690 C   0  0  0  0  0  0  0  0  0  0  0  0
   40.3190   30.9260   45.2670 C   0  0  0  0  0  0  0  0  0  0  0  0
   39.3360   30.6000   46.1610 N   0  0  0  0  0  0  0  0  0  0  0  0
   38.7610   31.5230   46.9420 C   0  0  0  0  0  0  0  0  0  0  0  0
   39.1530   32.8160   46.8600 N   0  0  0  0  0  0  0  0  0  0  0  0
   33.8260   27.3120   48.3240 C   0  0  0  0  0  0  0  0  0  0  0  0
   34.6250   27.4430   49.4960 F   0  0  0  0  0  0  0  0  0  0  0  0
   32.5670   27.5840   48.7680 F   0  0  0  0  0  0  0  0  0  0  0  0
   33.8650   26.0260   47.9060 F   0  0  0  0  0  0  0  0  0  0  0  0
   33.3713   29.6986   48.4704 H   0  0  0  0  0  0  0  0  0  0  0  0
   33.2841   31.6122   47.1253 H   0  0  0  0  0  0  0  0  0  0  0  0
   34.2735   30.8859   45.8767 H   0  0  0  0  0  0  0  0  0  0  0  0
   31.8240   29.3993   47.0762 H   0  0  0  0  0  0  0  0  0  0  0  0
   31.5957   30.4774   45.7215 H   0  0  0  0  0  0  0  0  0  0  0  0
   33.4417   29.3023   44.4682 H   0  0  0  0  0  0  0  0  0  0  0  0
   32.1509   28.1205   45.0300 H   0  0  0  0  0  0  0  0  0  0  0  0
   33.5809   26.9298   46.0026 H   0  0  0  0  0  0  0  0  0  0  0  0
   34.8835   28.0797   45.3472 H   0  0  0  0  0  0  0  0  0  0  0  0
   35.4983   28.2672   47.3925 H   0  0  0  0  0  0  0  0  0  0  0  0
   38.7998   31.7863   49.6521 H   0  0  0  0  0  0  0  0  0  0  0  0
   36.8851   31.2638   51.1781 H   0  0  0  0  0  0  0  0  0  0  0  0
   34.7833   30.3968   50.2666 H   0  0  0  0  0  0  0  0  0  0  0  0
   40.4081   34.2258   45.9522 H   0  0  0  0  0  0  0  0  0  0  0  0
   41.5237   32.5664   44.4659 H   0  0  0  0  0  0  0  0  0  0  0  0
   40.7755   30.1511   44.6336 H   0  0  0  0  0  0  0  0  0  0  0  0
  1 13  1  0
  2  1  1  0
  3  2  1  0
  4  5  1  0
  4  3  1  0
  5  6  1  0
  6  1  1  0
  6 20  1  0
  7  8  1  0
  8  9  2  0
  8 13  1  0
  9 10  1  0
 10 11  2  0
 12 11  1  0
 13 12  2  0
 14 19  2  0
 15 16  2  0
 15 14  1  0
 16 17  1  0
 17 18  2  0
 18  9  1  0
 19 18  1  0
 20 22  1  0
 20 21  1  0
 23 20  1  0
  1 24  1  1
  2 25  1  0
  2 26  1  0
  3 27  1  0
  3 28  1  0
  4 29  1  0
  4 30  1  0
  5 31  1  0
  5 32  1  0
  6 33  1  6
 10 34  1  0
 11 35  1  0
 12 36  1  0
 14 37  1  0
 15 38  1  0
 16 39  1  0
M  ISO  8  24  13  25  13  26  13  27  13  28  13  29  13  30  13  31  13
M  ISO  8  32  13  33  13  34  14  35  14  36  14  37  14  38  14  39  14
M  END
>  <minimizedAffinity>  (1) 
-6.6023159

>  <minimizedRMSD>  (1) 
1.19390905

$$$$
