
     RDKit          3D

 43 45  0  0  1  0  0  0  0  0999 V2000
   35.3940   30.5680   49.1660 C   0  0  1  0  0  0  0  0  0  0  0  0
   34.5450   30.4580   47.9890 C   0  0  0  0  0  0  0  0  0  0  0  0
   33.4540   29.4900   48.4600 C   0  0  0  0  0  0  0  0  0  0  0  0
   34.1660   28.1320   48.3610 C   0  0  0  0  0  0  0  0  0  0  0  0
   35.3810   28.0500   49.1740 C   0  0  0  0  0  0  0  0  0  0  0  0
   35.8380   29.2840   49.8320 C   0  0  1  0  0  0  0  0  0  0  0  0
   36.7200   30.3400   46.4510 Cl  0  0  0  0  0  0  0  0  0  0  0  0
   37.2720   31.3860   47.7290 C   0  0  0  0  0  0  0  0  0  0  0  0
   38.3880   32.1150   47.4160 C   0  0  0  0  0  0  0  0  0  0  0  0
   38.8580   33.0150   48.3620 C   0  0  0  0  0  0  0  0  0  0  0  0
   38.1700   33.1240   49.5630 C   0  0  0  0  0  0  0  0  0  0  0  0
   37.0510   32.3520   49.7970 C   0  0  0  0  0  0  0  0  0  0  0  0
   36.5570   31.4530   48.8950 C   0  0  0  0  0  0  0  0  0  0  0  0
   39.1160   32.6110   43.8670 C   0  0  0  0  0  0  0  0  0  0  0  0
   40.2020   31.7920   43.6060 C   0  0  0  0  0  0  0  0  0  0  0  0
   40.6870   31.0630   44.6880 C   0  0  0  0  0  0  0  0  0  0  0  0
   40.0920   31.1830   45.9180 N   0  0  0  0  0  0  0  0  0  0  0  0
   39.0430   31.9940   46.1040 C   0  0  0  0  0  0  0  0  0  0  0  0
   38.5500   32.7150   45.0700 N   0  0  0  0  0  0  0  0  0  0  0  0
   37.3370   29.2650   49.9690 C   0  0  0  0  0  0  0  0  0  0  0  0
   38.0250   29.4420   51.0820 C   0  0  0  0  0  0  0  0  0  0  0  0
   37.2690   29.6850   52.3380 C   0  0  0  0  0  0  0  0  0  0  0  0
   34.7241   31.0151   49.9152 H   0  0  0  0  0  0  0  0  0  0  0  0
   35.1011   30.0455   47.1342 H   0  0  0  0  0  0  0  0  0  0  0  0
   34.1537   31.4240   47.6373 H   0  0  0  0  0  0  0  0  0  0  0  0
   33.1476   29.7060   49.4941 H   0  0  0  0  0  0  0  0  0  0  0  0
   32.5262   29.5478   47.8719 H   0  0  0  0  0  0  0  0  0  0  0  0
   33.4699   27.3485   48.6949 H   0  0  0  0  0  0  0  0  0  0  0  0
   34.4688   28.0007   47.3117 H   0  0  0  0  0  0  0  0  0  0  0  0
   35.2019   27.3028   49.9612 H   0  0  0  0  0  0  0  0  0  0  0  0
   36.1804   27.7974   48.4618 H   0  0  0  0  0  0  0  0  0  0  0  0
   35.3525   29.2874   50.8191 H   0  0  0  0  0  0  0  0  0  0  0  0
   39.7516   33.6256   48.1656 H   0  0  0  0  0  0  0  0  0  0  0  0
   38.5189   33.8293   50.3316 H   0  0  0  0  0  0  0  0  0  0  0  0
   36.5299   32.4662   50.7590 H   0  0  0  0  0  0  0  0  0  0  0  0
   38.6995   33.2055   43.0405 H   0  0  0  0  0  0  0  0  0  0  0  0
   40.6534   31.7220   42.6053 H   0  0  0  0  0  0  0  0  0  0  0  0
   41.5476   30.3906   44.5566 H   0  0  0  0  0  0  0  0  0  0  0  0
   37.9164   29.0860   49.0513 H   0  0  0  0  0  0  0  0  0  0  0  0
   39.1245   29.4105   51.0795 H   0  0  0  0  0  0  0  0  0  0  0  0
   37.9170   29.4767   53.2021 H   0  0  0  0  0  0  0  0  0  0  0  0
   36.9400   30.7341   52.3708 H   0  0  0  0  0  0  0  0  0  0  0  0
   36.3903   29.0240   52.3708 H   0  0  0  0  0  0  0  0  0  0  0  0
  1  6  1  0
  2  3  1  0
  2  1  1  0
  4  3  1  0
  4  5  1  0
  5  6  1  0
  6 20  1  0
  7  8  1  0
  8 13  2  0
  9  8  1  0
  9 10  2  0
 10 11  1  0
 11 12  2  0
 13  1  1  0
 13 12  1  0
 14 19  2  0
 15 14  1  0
 15 16  2  0
 16 17  1  0
 17 18  2  0
 18  9  1  0
 19 18  1  0
 20 21  2  0
 21 22  1  0
  1 23  1  1
  2 24  1  0
  2 25  1  0
  3 26  1  0
  3 27  1  0
  4 28  1  0
  4 29  1  0
  5 30  1  0
  5 31  1  0
  6 32  1  1
 10 33  1  0
 11 34  1  0
 12 35  1  0
 14 36  1  0
 15 37  1  0
 16 38  1  0
 20 39  1  0
 21 40  1  0
 22 41  1  0
 22 42  1  0
 22 43  1  0
M  ISO  8  23  13  24  13  25  13  26  13  27  13  28  13  29  13  30  13
M  ISO  8  31  13  32  13  33  14  34  14  35  14  36  14  37  14  38  14
M  ISO  3  41   8  42   8  43   8
M  END
>  <minimizedAffinity>  (1) 
-6.57555103

>  <minimizedRMSD>  (1) 
1.95333016

$$$$
