
     RDKit          3D

 40 42  0  0  1  0  0  0  0  0999 V2000
   35.4460   30.5870   49.2210 C   0  0  1  0  0  0  0  0  0  0  0  0
   34.6480   30.3940   48.0270 C   0  0  0  0  0  0  0  0  0  0  0  0
   33.5690   29.4100   48.5070 C   0  0  0  0  0  0  0  0  0  0  0  0
   34.3200   28.0740   48.5320 C   0  0  0  0  0  0  0  0  0  0  0  0
   35.4900   28.0780   49.4110 C   0  0  0  0  0  0  0  0  0  0  0  0
   35.8800   29.3670   50.0000 C   0  0  1  0  0  0  0  0  0  0  0  0
   36.8010   30.3350   46.5400 Cl  0  0  0  0  0  0  0  0  0  0  0  0
   37.3260   31.4100   47.8030 C   0  0  0  0  0  0  0  0  0  0  0  0
   38.4350   32.1500   47.4810 C   0  0  0  0  0  0  0  0  0  0  0  0
   38.8840   33.0720   48.4190 C   0  0  0  0  0  0  0  0  0  0  0  0
   38.1880   33.1880   49.6130 C   0  0  0  0  0  0  0  0  0  0  0  0
   37.0760   32.3970   49.8480 C   0  0  0  0  0  0  0  0  0  0  0  0
   36.6030   31.4790   48.9560 C   0  0  0  0  0  0  0  0  0  0  0  0
   39.1840   32.6200   43.9360 C   0  0  0  0  0  0  0  0  0  0  0  0
   40.2760   31.7800   43.6900 C   0  0  0  0  0  0  0  0  0  0  0  0
   40.7520   31.0550   44.7840 C   0  0  0  0  0  0  0  0  0  0  0  0
   40.1480   31.1980   46.0000 N   0  0  0  0  0  0  0  0  0  0  0  0
   39.1050   32.0180   46.1750 C   0  0  0  0  0  0  0  0  0  0  0  0
   38.6140   32.7380   45.1400 N   0  0  0  0  0  0  0  0  0  0  0  0
   37.8600   29.6300   51.5100 C   0  0  0  0  0  0  0  0  0  0  0  0
   37.0960   29.8250   52.5120 O   0  0  0  0  0  0  0  0  0  0  0  0
   37.3280   29.3910   50.2020 N   0  0  0  0  0  0  0  0  0  0  0  0
   34.7247   31.0622   49.9021 H   0  0  0  0  0  0  0  0  0  0  0  0
   35.2479   29.9609   47.2131 H   0  0  0  0  0  0  0  0  0  0  0  0
   34.2390   31.3287   47.6157 H   0  0  0  0  0  0  0  0  0  0  0  0
   33.2042   29.6790   49.5093 H   0  0  0  0  0  0  0  0  0  0  0  0
   32.6743   29.3964   47.8672 H   0  0  0  0  0  0  0  0  0  0  0  0
   33.6278   27.2920   48.8774 H   0  0  0  0  0  0  0  0  0  0  0  0
   34.6835   27.8882   47.5106 H   0  0  0  0  0  0  0  0  0  0  0  0
   35.2848   27.3837   50.2392 H   0  0  0  0  0  0  0  0  0  0  0  0
   36.3331   27.7937   48.7642 H   0  0  0  0  0  0  0  0  0  0  0  0
   35.3416   29.4324   50.9570 H   0  0  0  0  0  0  0  0  0  0  0  0
   39.7690   33.6940   48.2195 H   0  0  0  0  0  0  0  0  0  0  0  0
   38.5198   33.9093   50.3743 H   0  0  0  0  0  0  0  0  0  0  0  0
   36.5458   32.5149   50.8045 H   0  0  0  0  0  0  0  0  0  0  0  0
   38.7763   33.2096   43.1016 H   0  0  0  0  0  0  0  0  0  0  0  0
   40.7326   31.6959   42.6928 H   0  0  0  0  0  0  0  0  0  0  0  0
   41.6075   30.3735   44.6671 H   0  0  0  0  0  0  0  0  0  0  0  0
   38.9505   29.6457   51.6532 H   0  0  0  0  0  0  0  0  0  0  0  0
   37.9633   29.2365   49.4061 H   0  0  0  0  0  0  0  0  0  0  0  0
  1  6  1  0
  2  3  1  0
  2  1  1  0
  3  4  1  0
  4  5  1  0
  5  6  1  0
  6 22  1  0
  7  8  1  0
  8 13  2  0
  9  8  1  0
  9 10  2  0
 10 11  1  0
 11 12  2  0
 13  1  1  0
 13 12  1  0
 14 19  2  0
 15 14  1  0
 15 16  2  0
 16 17  1  0
 17 18  2  0
 18  9  1  0
 19 18  1  0
 20 21  2  0
 22 20  1  0
  1 23  1  1
  2 24  1  0
  2 25  1  0
  3 26  1  0
  3 27  1  0
  4 28  1  0
  4 29  1  0
  5 30  1  0
  5 31  1  0
  6 32  1  1
 10 33  1  0
 11 34  1  0
 12 35  1  0
 14 36  1  0
 15 37  1  0
 16 38  1  0
 20 39  1  0
 22 40  1  0
M  ISO  8  23  13  24  13  25  13  26  13  27  13  28  13  29  13  30  13
M  ISO  8  31  13  32  13  33  14  34  14  35  14  36  14  37  14  38  14
M  ISO  1  39   6
M  END
>  <minimizedAffinity>  (1) 
-6.36918926

>  <minimizedRMSD>  (1) 
2.10006618

$$$$
