
     RDKit          3D

 22 23  0  0  0  0  0  0  0  0999 V2000
   37.4030   30.2770   50.0610 C   0  0  0  0  0  0  0  0  0  0  0  0
   38.3030   31.3390   50.1740 C   0  0  0  0  0  0  0  0  0  0  0  0
   38.5320   32.1320   49.0410 C   0  0  0  0  0  0  0  0  0  0  0  0
   37.8530   31.8120   47.8860 N   0  0  0  0  0  0  0  0  0  0  0  0
   37.0000   30.7820   47.8300 C   0  0  0  0  0  0  0  0  0  0  0  0
   36.7720   30.0150   48.9070 N   0  0  0  0  0  0  0  0  0  0  0  0
   36.3200   30.5060   46.5670 C   0  0  0  0  0  0  0  0  0  0  0  0
   35.0640   29.9350   46.5350 C   0  0  0  0  0  0  0  0  0  0  0  0
   34.4890   29.7070   45.2850 C   0  0  0  0  0  0  0  0  0  0  0  0
   35.1790   30.0540   44.1330 C   0  0  0  0  0  0  0  0  0  0  0  0
   36.4300   30.6220   44.1970 C   0  0  0  0  0  0  0  0  0  0  0  0
   36.9560   30.8290   45.4110 N   0  0  0  0  0  0  0  0  0  0  0  0
   37.1530   29.4280   51.2680 C   0  0  0  0  0  0  0  0  0  0  0  0
   35.7940   29.1960   51.4040 F   0  0  0  0  0  0  0  0  0  0  0  0
   37.8990   28.2980   51.1490 F   0  0  0  0  0  0  0  0  0  0  0  0
   37.5290   30.1860   52.3820 F   0  0  0  0  0  0  0  0  0  0  0  0
   38.8170   31.5470   51.1240 H   0  0  0  0  0  0  0  0  0  0  0  0
   39.2304   32.9812   49.0732 H   0  0  0  0  0  0  0  0  0  0  0  0
   34.5353   29.6692   47.4623 H   0  0  0  0  0  0  0  0  0  0  0  0
   33.4898   29.2527   45.2129 H   0  0  0  0  0  0  0  0  0  0  0  0
   34.7177   29.8718   43.1511 H   0  0  0  0  0  0  0  0  0  0  0  0
   36.9787   30.8963   43.2839 H   0  0  0  0  0  0  0  0  0  0  0  0
  1  2  2  0
  1 13  1  0
  3  2  1  0
  4  3  2  0
  5  4  1  0
  5  6  2  0
  6  1  1  0
  7  5  1  0
  8  7  2  0
  9  8  1  0
 10 11  1  0
 10  9  2  0
 11 12  2  0
 12  7  1  0
 13 14  1  0
 13 16  1  0
 15 13  1  0
  2 17  1  0
  3 18  1  0
  8 19  1  0
  9 20  1  0
 10 21  1  0
 11 22  1  0
M  ISO  6  17  14  18  14  19  14  20  14  21  14  22  14
M  END
>  <minimizedAffinity>  (1) 
-5.29182243

>  <minimizedRMSD>  (1) 
0.237896666

$$$$
