
     RDKit          3D

 21 22  0  0  0  0  0  0  0  0999 V2000
   37.3990   30.2950   50.0250 C   0  0  0  0  0  0  0  0  0  0  0  0
   38.2970   31.3580   50.1700 C   0  0  0  0  0  0  0  0  0  0  0  0
   38.5500   32.1510   49.0440 C   0  0  0  0  0  0  0  0  0  0  0  0
   37.9130   31.8440   47.8820 N   0  0  0  0  0  0  0  0  0  0  0  0
   37.0520   30.8070   47.7880 C   0  0  0  0  0  0  0  0  0  0  0  0
   36.8000   30.0400   48.8550 N   0  0  0  0  0  0  0  0  0  0  0  0
   36.3930   30.5200   46.5190 C   0  0  0  0  0  0  0  0  0  0  0  0
   35.1260   29.9440   46.5180 C   0  0  0  0  0  0  0  0  0  0  0  0
   34.4220   29.6360   45.3690 C   0  0  0  0  0  0  0  0  0  0  0  0
   35.0320   29.9240   44.1890 N   0  0  0  0  0  0  0  0  0  0  0  0
   36.2710   30.4860   44.1790 C   0  0  0  0  0  0  0  0  0  0  0  0
   36.9430   30.7810   45.3230 N   0  0  0  0  0  0  0  0  0  0  0  0
   37.1240   29.4430   51.2260 C   0  0  0  0  0  0  0  0  0  0  0  0
   35.7690   29.1750   51.3170 F   0  0  0  0  0  0  0  0  0  0  0  0
   37.8870   28.3030   51.1120 F   0  0  0  0  0  0  0  0  0  0  0  0
   37.4700   30.1740   52.3540 F   0  0  0  0  0  0  0  0  0  0  0  0
   38.7865   31.5633   51.1335 H   0  0  0  0  0  0  0  0  0  0  0  0
   39.2463   33.0008   49.0978 H   0  0  0  0  0  0  0  0  0  0  0  0
   34.6576   29.7209   47.4880 H   0  0  0  0  0  0  0  0  0  0  0  0
   33.4209   29.1818   45.4076 H   0  0  0  0  0  0  0  0  0  0  0  0
   36.7451   30.7093   43.2119 H   0  0  0  0  0  0  0  0  0  0  0  0
  1  2  2  0
  1 13  1  0
  3  2  1  0
  4  3  2  0
  5  4  1  0
  5  6  2  0
  6  1  1  0
  7  5  1  0
  8  7  2  0
  9  8  1  0
 10  9  2  0
 11 10  1  0
 11 12  2  0
 12  7  1  0
 13 14  1  0
 13 16  1  0
 15 13  1  0
  2 17  1  0
  3 18  1  0
  8 19  1  0
  9 20  1  0
 11 21  1  0
M  ISO  5  17  14  18  14  19  14  20  14  21  14
M  END
>  <minimizedAffinity>  (1) 
-5.19864368

>  <minimizedRMSD>  (1) 
0.281707287

$$$$
