
     RDKit          3D

 16 16  0  0  0  0  0  0  0  0999 V2000
   37.3670   30.6130   49.1190 C   0  0  0  0  0  0  0  0  0  0  0  0
   37.4220   31.8790   49.7380 C   0  0  0  0  0  0  0  0  0  0  0  0
   38.1370   32.8910   49.1040 C   0  0  0  0  0  0  0  0  0  0  0  0
   38.7470   32.5970   47.9120 N   0  0  0  0  0  0  0  0  0  0  0  0
   38.6700   31.3650   47.3460 C   0  0  0  0  0  0  0  0  0  0  0  0
   37.9850   30.3930   47.9520 N   0  0  0  0  0  0  0  0  0  0  0  0
   36.5980   29.5170   49.7950 C   0  0  0  0  0  0  0  0  0  0  0  0
   35.9250   28.7670   48.8620 F   0  0  0  0  0  0  0  0  0  0  0  0
   37.4950   28.8040   50.5610 F   0  0  0  0  0  0  0  0  0  0  0  0
   35.6480   30.1290   50.6110 F   0  0  0  0  0  0  0  0  0  0  0  0
   39.3630   31.1340   46.0490 C   0  0  0  0  0  0  0  0  0  0  0  0
   40.7310   31.1620   46.1460 F   0  0  0  0  0  0  0  0  0  0  0  0
   39.0140   32.1580   45.1830 F   0  0  0  0  0  0  0  0  0  0  0  0
   38.8840   29.9660   45.4560 F   0  0  0  0  0  0  0  0  0  0  0  0
   36.9135   32.0618   50.6961 H   0  0  0  0  0  0  0  0  0  0  0  0
   38.2103   33.8957   49.5458 H   0  0  0  0  0  0  0  0  0  0  0  0
  1  2  2  0
  1  7  1  0
  3  2  1  0
  4  3  2  0
  5  4  1  0
  5  6  2  0
  6  1  1  0
  7  9  1  0
  7 10  1  0
  8  7  1  0
 11 12  1  0
 11  5  1  0
 13 11  1  0
 14 11  1  0
  2 15  1  0
  3 16  1  0
M  ISO  2  15  14  16  14
M  END
>  <minimizedAffinity>  (1) 
-5.13165474

>  <minimizedRMSD>  (1) 
2.43138313

$$$$
