
     RDKit          3D

 19 19  0  0  0  0  0  0  0  0999 V2000
   37.3570   30.2720   50.0230 C   0  0  0  0  0  0  0  0  0  0  0  0
   38.2910   31.3130   50.0940 C   0  0  0  0  0  0  0  0  0  0  0  0
   38.5160   32.0960   48.9430 C   0  0  0  0  0  0  0  0  0  0  0  0
   37.8020   31.7790   47.8250 N   0  0  0  0  0  0  0  0  0  0  0  0
   36.9170   30.7730   47.7980 C   0  0  0  0  0  0  0  0  0  0  0  0
   36.7010   30.0280   48.8920 N   0  0  0  0  0  0  0  0  0  0  0  0
   37.1240   29.4490   51.2430 C   0  0  0  0  0  0  0  0  0  0  0  0
   35.7670   29.1850   51.3780 F   0  0  0  0  0  0  0  0  0  0  0  0
   37.8870   28.3200   51.1480 F   0  0  0  0  0  0  0  0  0  0  0  0
   37.5080   30.2160   52.3420 F   0  0  0  0  0  0  0  0  0  0  0  0
   36.1290   30.4120   46.5890 C   0  0  0  0  0  0  0  0  0  0  0  0
   34.7600   29.8610   46.9860 C   0  0  0  0  0  0  0  0  0  0  0  0
   38.8371   31.5155   51.0271 H   0  0  0  0  0  0  0  0  0  0  0  0
   39.2367   32.9270   48.9467 H   0  0  0  0  0  0  0  0  0  0  0  0
   36.6746   29.6474   46.0165 H   0  0  0  0  0  0  0  0  0  0  0  0
   35.9849   31.3142   45.9764 H   0  0  0  0  0  0  0  0  0  0  0  0
   34.6815   29.8294   48.0827 H   0  0  0  0  0  0  0  0  0  0  0  0
   33.9712   30.5117   46.5805 H   0  0  0  0  0  0  0  0  0  0  0  0
   34.6419   28.8453   46.5805 H   0  0  0  0  0  0  0  0  0  0  0  0
  1  2  2  0
  1  7  1  0
  3  2  1  0
  4  3  2  0
  5  4  1  0
  5  6  2  0
  6  1  1  0
  7  8  1  0
  7 10  1  0
  9  7  1  0
 11 12  1  0
 11  5  1  0
  2 13  1  0
  3 14  1  0
 11 15  1  0
 11 16  1  0
 12 17  1  0
 12 18  1  0
 12 19  1  0
M  ISO  7  13  14  14  14  15   8  16   8  17   8  18   8  19   8
M  END
>  <minimizedAffinity>  (1) 
-4.70416927

>  <minimizedRMSD>  (1) 
0.303961009

$$$$
