
     RDKit          3D

 41 44  0  0  1  0  0  0  0  0999 V2000
   37.2580   30.5590   49.2430 C   0  0  0  0  0  0  0  0  0  0  0  0
   37.3020   31.7490   49.9720 C   0  0  0  0  0  0  0  0  0  0  0  0
   37.8870   32.8700   49.3660 C   0  0  0  0  0  0  0  0  0  0  0  0
   38.3690   32.7090   48.0990 N   0  0  0  0  0  0  0  0  0  0  0  0
   38.3070   31.5370   47.4230 C   0  0  0  0  0  0  0  0  0  0  0  0
   37.7490   30.4750   48.0100 N   0  0  0  0  0  0  0  0  0  0  0  0
   38.8500   31.5000   46.1020 N   0  0  0  0  0  0  0  0  0  0  0  0
   40.2450   31.1580   45.9380 C   0  0  0  0  0  0  0  0  0  0  0  0
   40.7780   32.1630   44.9230 C   0  0  0  0  0  0  0  0  0  0  0  0
   40.1120   31.7870   43.6170 C   0  0  0  0  0  0  0  0  0  0  0  0
   38.6670   32.1560   43.7280 C   0  0  0  0  0  0  0  0  0  0  0  0
   38.0010   31.7970   45.0120 C   0  0  1  0  0  0  0  0  0  0  0  0
   37.1060   29.7920   43.7780 C   0  0  0  0  0  0  0  0  0  0  0  0
   36.9770   30.7420   44.7730 C   0  0  0  0  0  0  0  0  0  0  0  0
   35.8200   30.6460   45.5400 C   0  0  0  0  0  0  0  0  0  0  0  0
   34.8680   29.6720   45.3240 C   0  0  0  0  0  0  0  0  0  0  0  0
   33.6880   29.4140   45.9540 N   0  0  0  0  0  0  0  0  0  0  0  0
   33.1670   28.3340   45.3190 C   0  0  0  0  0  0  0  0  0  0  0  0
   33.9760   27.9230   44.3300 N   0  0  0  0  0  0  0  0  0  0  0  0
   35.0340   28.7420   44.3190 C   0  0  0  0  0  0  0  0  0  0  0  0
   36.1700   28.8070   43.5390 C   0  0  0  0  0  0  0  0  0  0  0  0
   36.6340   29.3540   49.8840 C   0  0  0  0  0  0  0  0  0  0  0  0
   35.7980   29.7550   50.9260 F   0  0  0  0  0  0  0  0  0  0  0  0
   36.0030   28.6260   48.9260 F   0  0  0  0  0  0  0  0  0  0  0  0
   37.6580   28.6290   50.4770 F   0  0  0  0  0  0  0  0  0  0  0  0
   36.8904   31.8054   50.9905 H   0  0  0  0  0  0  0  0  0  0  0  0
   37.9545   33.8358   49.8881 H   0  0  0  0  0  0  0  0  0  0  0  0
   40.7815   31.2515   46.8938 H   0  0  0  0  0  0  0  0  0  0  0  0
   40.3802   30.1191   45.6027 H   0  0  0  0  0  0  0  0  0  0  0  0
   40.5070   33.1885   45.2146 H   0  0  0  0  0  0  0  0  0  0  0  0
   41.8753   32.1370   44.8511 H   0  0  0  0  0  0  0  0  0  0  0  0
   40.2113   30.7055   43.4423 H   0  0  0  0  0  0  0  0  0  0  0  0
   40.5836   32.3149   42.7750 H   0  0  0  0  0  0  0  0  0  0  0  0
   38.5864   33.2455   43.5995 H   0  0  0  0  0  0  0  0  0  0  0  0
   38.1502   31.5734   42.9512 H   0  0  0  0  0  0  0  0  0  0  0  0
   37.5102   32.7203   45.3536 H   0  0  0  0  0  0  0  0  0  0  0  0
   38.0032   29.8227   43.1423 H   0  0  0  0  0  0  0  0  0  0  0  0
   35.6588   31.3741   46.3487 H   0  0  0  0  0  0  0  0  0  0  0  0
   33.2778   29.9300   46.7455 H   0  0  0  0  0  0  0  0  0  0  0  0
   32.2098   27.8589   45.5798 H   0  0  0  0  0  0  0  0  0  0  0  0
   36.3286   28.0776   42.7310 H   0  0  0  0  0  0  0  0  0  0  0  0
  1 22  1  0
  1  2  2  0
  3  2  1  0
  4  3  2  0
  5  6  2  0
  5  4  1  0
  6  1  1  0
  7  5  1  0
  8  7  1  0
  9  8  1  0
 10 11  1  0
 10  9  1  0
 11 12  1  0
 12  7  1  0
 13 14  2  0
 14 12  1  0
 14 15  1  0
 16 15  2  0
 16 17  1  0
 18 17  1  0
 19 18  2  0
 20 19  1  0
 20 16  1  0
 21 13  1  0
 21 20  2  0
 22 25  1  0
 22 23  1  0
 24 22  1  0
  2 26  1  0
  3 27  1  0
  8 28  1  0
  8 29  1  0
  9 30  1  0
  9 31  1  0
 10 32  1  0
 10 33  1  0
 11 34  1  0
 11 35  1  0
 12 36  1  1
 13 37  1  0
 15 38  1  0
 17 39  1  0
 18 40  1  0
 21 41  1  0
M  ISO  8  26  14  27  14  28  13  29  13  30  13  31  13  32  13  33  13
M  ISO  8  34  13  35  13  36  13  37  14  38  14  39   9  40  14  41  14
M  END
>  <minimizedAffinity>  (1) 
-6.75047112

>  <minimizedRMSD>  (1) 
1.21898663

$$$$
