
     RDKit          3D

 43 45  0  0  1  0  0  0  0  0999 V2000
   36.9290   30.6970   48.9210 C   0  0  0  0  0  0  0  0  0  0  0  0
   37.0560   31.8160   49.7710 C   0  0  0  0  0  0  0  0  0  0  0  0
   37.8260   32.8850   49.3240 C   0  0  0  0  0  0  0  0  0  0  0  0
   38.4100   32.7780   48.0850 N   0  0  0  0  0  0  0  0  0  0  0  0
   38.2680   31.6990   47.3060 C   0  0  0  0  0  0  0  0  0  0  0  0
   37.5230   30.6580   47.7300 N   0  0  0  0  0  0  0  0  0  0  0  0
   38.9140   31.6900   46.0430 N   0  0  0  0  0  0  0  0  0  0  0  0
   40.2480   31.1540   45.9400 C   0  0  0  0  0  0  0  0  0  0  0  0
   41.0110   32.1820   45.0960 C   0  0  0  0  0  0  0  0  0  0  0  0
   40.4280   31.9990   43.7030 C   0  0  0  0  0  0  0  0  0  0  0  0
   39.0450   32.5530   43.7260 C   0  0  0  0  0  0  0  0  0  0  0  0
   38.2170   32.2160   44.9070 C   0  0  1  0  0  0  0  0  0  0  0  0
   37.0350   31.4260   44.6100 N   0  0  0  0  0  0  0  0  0  0  0  0
   37.3920   30.0880   44.2770 C   0  0  0  0  0  0  0  0  0  0  0  0
   36.2620   29.2770   43.7540 C   0  0  0  0  0  0  0  0  0  0  0  0
   35.4950   30.0020   42.6590 C   0  0  0  0  0  0  0  0  0  0  0  0
   34.9900   31.2780   43.3470 C   0  0  0  0  0  0  0  0  0  0  0  0
   36.2210   32.0960   43.6300 C   0  0  0  0  0  0  0  0  0  0  0  0
   36.1000   29.5440   49.3990 C   0  0  0  0  0  0  0  0  0  0  0  0
   35.1920   29.9770   50.3580 F   0  0  0  0  0  0  0  0  0  0  0  0
   35.5310   28.9580   48.3220 F   0  0  0  0  0  0  0  0  0  0  0  0
   36.9700   28.6510   50.0420 F   0  0  0  0  0  0  0  0  0  0  0  0
   36.5628   31.8423   50.7539 H   0  0  0  0  0  0  0  0  0  0  0  0
   37.9626   33.7851   49.9414 H   0  0  0  0  0  0  0  0  0  0  0  0
   40.7043   31.0529   46.9358 H   0  0  0  0  0  0  0  0  0  0  0  0
   40.2618   30.1504   45.4899 H   0  0  0  0  0  0  0  0  0  0  0  0
   40.8345   33.2030   45.4653 H   0  0  0  0  0  0  0  0  0  0  0  0
   42.1011   32.0381   45.1270 H   0  0  0  0  0  0  0  0  0  0  0  0
   40.4013   30.9304   43.4433 H   0  0  0  0  0  0  0  0  0  0  0  0
   41.0428   32.5168   42.9521 H   0  0  0  0  0  0  0  0  0  0  0  0
   39.1233   33.6490   43.6746 H   0  0  0  0  0  0  0  0  0  0  0  0
   38.5322   32.0906   42.8697 H   0  0  0  0  0  0  0  0  0  0  0  0
   37.8779   33.2167   45.2130 H   0  0  0  0  0  0  0  0  0  0  0  0
   38.1797   30.1202   43.5099 H   0  0  0  0  0  0  0  0  0  0  0  0
   37.7283   29.6059   45.2068 H   0  0  0  0  0  0  0  0  0  0  0  0
   36.6600   28.3366   43.3450 H   0  0  0  0  0  0  0  0  0  0  0  0
   35.5673   29.0886   44.5858 H   0  0  0  0  0  0  0  0  0  0  0  0
   34.6534   29.3913   42.3002 H   0  0  0  0  0  0  0  0  0  0  0  0
   36.1143   30.2128   41.7747 H   0  0  0  0  0  0  0  0  0  0  0  0
   34.3070   31.8282   42.6831 H   0  0  0  0  0  0  0  0  0  0  0  0
   34.4300   31.0517   44.2664 H   0  0  0  0  0  0  0  0  0  0  0  0
   36.7970   32.2228   42.7015 H   0  0  0  0  0  0  0  0  0  0  0  0
   35.9221   33.0812   44.0173 H   0  0  0  0  0  0  0  0  0  0  0  0
  1 19  1  0
  1  2  2  0
  3  2  1  0
  4  3  2  0
  5  6  2  0
  5  4  1  0
  6  1  1  0
  7  5  1  0
  8  7  1  0
  9  8  1  0
 10 11  1  0
 10  9  1  0
 11 12  1  0
 12  7  1  0
 13 12  1  0
 14 13  1  0
 15 14  1  0
 16 17  1  0
 16 15  1  0
 17 18  1  0
 18 13  1  0
 19 22  1  0
 19 20  1  0
 21 19  1  0
  2 23  1  0
  3 24  1  0
  8 25  1  0
  8 26  1  0
  9 27  1  0
  9 28  1  0
 10 29  1  0
 10 30  1  0
 11 31  1  0
 11 32  1  0
 12 33  1  1
 14 34  1  0
 14 35  1  0
 15 36  1  0
 15 37  1  0
 16 38  1  0
 16 39  1  0
 17 40  1  0
 17 41  1  0
 18 42  1  0
 18 43  1  0
M  ISO  8  23  14  24  14  25  13  26  13  27  13  28  13  29  13  30  13
M  ISO  8  31  13  32  13  33  13  34  13  35  13  36  13  37  13  38  13
M  ISO  5  39  13  40  13  41  13  42  13  43  13
M  END
>  <minimizedAffinity>  (1) 
-6.23738098

>  <minimizedRMSD>  (1) 
1.13401234

$$$$
