
     RDKit          3D

 30 31  0  0  1  0  0  0  0  0999 V2000
   37.2300   31.1060   49.2260 C   0  0  0  0  0  0  0  0  0  0  0  0
   37.4090   32.3800   49.7940 C   0  0  0  0  0  0  0  0  0  0  0  0
   38.1520   33.3120   49.0650 C   0  0  0  0  0  0  0  0  0  0  0  0
   38.6480   32.9260   47.8630 N   0  0  0  0  0  0  0  0  0  0  0  0
   38.4580   31.7000   47.3520 C   0  0  0  0  0  0  0  0  0  0  0  0
   37.7450   30.7950   48.0440 N   0  0  0  0  0  0  0  0  0  0  0  0
   39.0180   31.3910   46.0840 N   0  0  0  0  0  0  0  0  0  0  0  0
   40.3550   30.8630   46.0110 C   0  0  0  0  0  0  0  0  0  0  0  0
   41.0390   31.6530   44.8920 C   0  0  0  0  0  0  0  0  0  0  0  0
   40.3700   31.1690   43.6310 C   0  0  0  0  0  0  0  0  0  0  0  0
   38.9950   31.7430   43.6310 C   0  0  0  0  0  0  0  0  0  0  0  0
   38.2430   31.6070   44.9100 C   0  0  2  0  0  0  0  0  0  0  0  0
   36.4330   30.0940   50.0030 C   0  0  0  0  0  0  0  0  0  0  0  0
   35.0870   30.4260   49.9510 F   0  0  0  0  0  0  0  0  0  0  0  0
   36.7420   28.8560   49.5240 F   0  0  0  0  0  0  0  0  0  0  0  0
   36.8270   30.2000   51.3400 F   0  0  0  0  0  0  0  0  0  0  0  0
   37.3130   32.7260   45.0140 N   0  0  0  0  0  0  0  0  0  0  0  0
   36.9803   32.6331   50.7749 H   0  0  0  0  0  0  0  0  0  0  0  0
   38.3290   34.3259   49.4532 H   0  0  0  0  0  0  0  0  0  0  0  0
   40.8811   31.0121   46.9654 H   0  0  0  0  0  0  0  0  0  0  0  0
   40.3591   29.7812   45.8118 H   0  0  0  0  0  0  0  0  0  0  0  0
   40.8823   32.7335   45.0260 H   0  0  0  0  0  0  0  0  0  0  0  0
   42.1282   31.4999   44.8750 H   0  0  0  0  0  0  0  0  0  0  0  0
   40.3225   30.0700   43.6244 H   0  0  0  0  0  0  0  0  0  0  0  0
   40.9310   31.4835   42.7386 H   0  0  0  0  0  0  0  0  0  0  0  0
   39.0753   32.8149   43.3974 H   0  0  0  0  0  0  0  0  0  0  0  0
   38.4277   31.1677   42.8846 H   0  0  0  0  0  0  0  0  0  0  0  0
   37.6898   30.6576   44.8593 H   0  0  0  0  0  0  0  0  0  0  0  0
   37.1384   32.9361   46.0071 H   0  0  0  0  0  0  0  0  0  0  0  0
   37.7188   33.5535   44.5542 H   0  0  0  0  0  0  0  0  0  0  0  0
  1  2  2  0
  1 13  1  0
  3  2  1  0
  4  3  2  0
  5  4  1  0
  5  6  2  0
  6  1  1  0
  7  5  1  0
  8  7  1  0
  9  8  1  0
 10 11  1  0
 10  9  1  0
 11 12  1  0
 12 17  1  0
 12  7  1  0
 13 16  1  0
 14 13  1  0
 15 13  1  0
  2 18  1  0
  3 19  1  0
  8 20  1  0
  8 21  1  0
  9 22  1  0
  9 23  1  0
 10 24  1  0
 10 25  1  0
 11 26  1  0
 11 27  1  0
 12 28  1  6
 17 29  1  0
 17 30  1  0
M  ISO  8  18  14  19  14  20  13  21  13  22  13  23  13  24  13  25  13
M  ISO  5  26  13  27  13  28  13  29   5  30   5
M  END
>  <minimizedAffinity>  (1) 
-6.01206875

>  <minimizedRMSD>  (1) 
0.706241608

$$$$
