
     RDKit          3D

 19 20  0  0  1  0  0  0  0  0999 V2000
   36.0110   30.4170   50.0160 C   0  0  1  0  0  0  0  0  0  0  0  0
   35.7910   28.9940   49.7900 C   0  0  0  0  0  0  0  0  0  0  0  0
   36.5860   29.4080   50.9880 C   0  0  1  0  0  0  0  0  0  0  0  0
   37.0710   31.1800   49.2610 C   0  0  0  0  0  0  0  0  0  0  0  0
   37.3610   32.4850   49.7010 C   0  0  0  0  0  0  0  0  0  0  0  0
   38.3290   33.1430   48.9680 C   0  0  0  0  0  0  0  0  0  0  0  0
   38.9350   32.5550   47.9130 N   0  0  0  0  0  0  0  0  0  0  0  0
   38.6290   31.2920   47.5170 C   0  0  0  0  0  0  0  0  0  0  0  0
   37.6790   30.5980   48.2080 N   0  0  0  0  0  0  0  0  0  0  0  0
   37.9960   29.2710   51.0420 N   0  0  0  0  0  0  0  0  0  0  0  0
   35.3139   31.2678   50.0263 H   0  0  0  0  0  0  0  0  0  0  0  0
   34.7848   28.5699   49.9232 H   0  0  0  0  0  0  0  0  0  0  0  0
   35.9733   28.3135   48.9452 H   0  0  0  0  0  0  0  0  0  0  0  0
   36.5220   29.1838   52.0630 H   0  0  0  0  0  0  0  0  0  0  0  0
   36.8555   32.9455   50.5626 H   0  0  0  0  0  0  0  0  0  0  0  0
   38.6128   34.1679   49.2490 H   0  0  0  0  0  0  0  0  0  0  0  0
   39.1381   30.8369   46.6546 H   0  0  0  0  0  0  0  0  0  0  0  0
   38.3007   29.2414   52.0255 H   0  0  0  0  0  0  0  0  0  0  0  0
   38.2746   28.3990   50.5699 H   0  0  0  0  0  0  0  0  0  0  0  0
  1  3  1  0
  2  1  1  0
  2  3  1  0
  3 10  1  0
  4  5  2  0
  4  1  1  0
  6  5  1  0
  7  6  2  0
  8  7  1  0
  8  9  2  0
  9  4  1  0
  1 11  1  1
  2 12  1  0
  2 13  1  0
  3 14  1  1
  5 15  1  0
  6 16  1  0
  8 17  1  0
 10 18  1  0
 10 19  1  0
M  ISO  8  11  13  12  13  13  13  14  13  15  14  16  14  17  14  18   5
M  ISO  1  19   5
M  END
>  <minimizedAffinity>  (1) 
-4.39857864

>  <minimizedRMSD>  (1) 
0.133754715

$$$$
