
     RDKit          3D

 40 42  0  0  1  0  0  0  0  0999 V2000
   36.0580   30.9830   48.3340 C   0  0  1  0  0  0  0  0  0  0  0  0
   35.7530   30.0850   47.2630 C   0  0  0  0  0  0  0  0  0  0  0  0
   36.3850   29.5560   48.5210 C   0  0  2  0  0  0  0  0  0  0  0  0
   35.9030   28.7330   50.8120 C   0  0  2  0  0  0  0  0  0  0  0  0
   35.5610   28.6600   49.3870 C   0  0  1  0  0  0  0  0  0  0  0  0
   34.1370   29.0900   49.3230 C   0  0  0  0  0  0  0  0  0  0  0  0
   33.8680   29.8620   50.4540 O   0  0  0  0  0  0  0  0  0  0  0  0
   34.4650   29.1330   51.4310 C   0  0  0  0  0  0  0  0  0  0  0  0
   36.6170   29.8840   51.1040 O   0  0  0  0  0  0  0  0  0  0  0  0
   37.5030   29.9020   52.0200 C   0  0  0  0  0  0  0  0  0  0  0  0
   37.2790   31.8820   48.3250 C   0  0  0  0  0  0  0  0  0  0  0  0
   37.5370   32.6370   49.4560 C   0  0  0  0  0  0  0  0  0  0  0  0
   38.6470   33.4490   49.4200 C   0  0  0  0  0  0  0  0  0  0  0  0
   39.4250   33.4690   48.2970 N   0  0  0  0  0  0  0  0  0  0  0  0
   39.1600   32.7230   47.1920 C   0  0  0  0  0  0  0  0  0  0  0  0
   38.0650   31.9190   47.2210 N   0  0  0  0  0  0  0  0  0  0  0  0
   39.9970   32.7780   46.0460 N   0  0  0  0  0  0  0  0  0  0  0  0
   40.4960   31.3540   45.2270 S   0  0  0  0  0  0  0  0  0  0  0  0
   40.7210   31.5880   43.7660 O   0  0  0  0  0  0  0  0  0  0  0  0
   39.3990   30.3360   45.3520 O   0  0  0  0  0  0  0  0  0  0  0  0
   41.8620   30.6770   45.9120 O   0  0  0  0  0  0  0  0  0  0  0  0
   35.4344   31.7508   48.8153 H   0  0  0  0  0  0  0  0  0  0  0  0
   34.7054   29.8428   47.0310 H   0  0  0  0  0  0  0  0  0  0  0  0
   36.0015   30.0415   46.1923 H   0  0  0  0  0  0  0  0  0  0  0  0
   37.2935   29.0088   48.8129 H   0  0  0  0  0  0  0  0  0  0  0  0
   36.4366   27.8300   51.1433 H   0  0  0  0  0  0  0  0  0  0  0  0
   35.7470   27.6437   49.0095 H   0  0  0  0  0  0  0  0  0  0  0  0
   33.9679   29.6870   48.4147 H   0  0  0  0  0  0  0  0  0  0  0  0
   33.4741   28.2127   49.2929 H   0  0  0  0  0  0  0  0  0  0  0  0
   33.8758   28.2328   51.6601 H   0  0  0  0  0  0  0  0  0  0  0  0
   34.5552   29.6909   52.3747 H   0  0  0  0  0  0  0  0  0  0  0  0
   37.0127   29.8920   53.0046 H   0  0  0  0  0  0  0  0  0  0  0  0
   38.1487   29.0168   51.9230 H   0  0  0  0  0  0  0  0  0  0  0  0
   38.1123   30.8127   51.9230 H   0  0  0  0  0  0  0  0  0  0  0  0
   36.8857   32.5900   50.3412 H   0  0  0  0  0  0  0  0  0  0  0  0
   38.9055   34.0756   50.2863 H   0  0  0  0  0  0  0  0  0  0  0  0
   40.3124   33.6946   45.6977 H   0  0  0  0  0  0  0  0  0  0  0  0
   41.4021   32.2964   43.6463 H   0  0  0  0  0  0  0  0  0  0  0  0
   39.2149   30.1652   46.3096 H   0  0  0  0  0  0  0  0  0  0  0  0
   41.7889   30.7132   46.8986 H   0  0  0  0  0  0  0  0  0  0  0  0
  1  3  1  0
  2  1  1  0
  2  3  1  0
  3  5  1  0
  4  9  1  0
  4  8  1  0
  5  4  1  0
  6  5  1  0
  6  7  1  0
  7  8  1  0
  9 10  1  0
 11  1  1  0
 11 12  2  0
 13 12  1  0
 14 13  2  0
 15 16  2  0
 15 14  1  0
 16 11  1  0
 17 15  1  0
 18 20  1  0
 18 21  1  0
 18 17  1  0
 19 18  1  0
  1 22  1  1
  2 23  1  0
  2 24  1  0
  3 25  1  6
  4 26  1  1
  5 27  1  6
  6 28  1  0
  6 29  1  0
  8 30  1  0
  8 31  1  0
 10 32  1  0
 10 33  1  0
 10 34  1  0
 12 35  1  0
 13 36  1  0
 17 37  1  0
 19 38  1  0
 20 39  1  0
 21 40  1  0
M  ISO  8  22  13  23  13  24  13  25  13  26  13  27  13  28  13  29  13
M  ISO  8  30  13  31  13  32   8  33   8  34   8  35  14  36  14  38   3
M  ISO  2  39   3  40   3
M  END
>  <minimizedAffinity>  (1) 
-5.63262272

>  <minimizedRMSD>  (1) 
1.88016951

$$$$
