
     RDKit          3D

 24 25  0  0  0  0  0  0  0  0999 V2000
   37.3660   30.2590   51.4390 C   0  0  0  0  0  0  0  0  0  0  0  0
   38.1360   30.7740   50.3850 C   0  0  0  0  0  0  0  0  0  0  0  0
   37.7620   30.4460   49.0720 C   0  0  0  0  0  0  0  0  0  0  0  0
   36.6680   29.6400   48.8980 N   0  0  0  0  0  0  0  0  0  0  0  0
   35.9660   29.1730   49.9360 C   0  0  0  0  0  0  0  0  0  0  0  0
   36.3110   29.4780   51.1830 N   0  0  0  0  0  0  0  0  0  0  0  0
   34.8220   28.3250   49.6440 C   0  0  0  0  0  0  0  0  0  0  0  0
   34.4450   28.1980   48.4070 C   0  0  0  0  0  0  0  0  0  0  0  0
   33.3170   27.3950   47.8790 C   0  0  0  0  0  0  0  0  0  0  0  0
   33.7330   25.9920   47.4880 C   0  0  0  0  0  0  0  0  0  0  0  0
   32.7700   25.1120   46.7660 C   0  0  0  0  0  0  0  0  0  0  0  0
   33.9390   25.7160   46.0440 C   0  0  0  0  0  0  0  0  0  0  0  0
   37.6311   30.4985   52.4794 H   0  0  0  0  0  0  0  0  0  0  0  0
   39.0073   31.4160   50.5817 H   0  0  0  0  0  0  0  0  0  0  0  0
   38.3300   30.8246   48.2095 H   0  0  0  0  0  0  0  0  0  0  0  0
   34.2878   27.8029   50.4515 H   0  0  0  0  0  0  0  0  0  0  0  0
   35.0340   28.7533   47.6622 H   0  0  0  0  0  0  0  0  0  0  0  0
   32.5389   27.3287   48.6537 H   0  0  0  0  0  0  0  0  0  0  0  0
   32.9462   27.8970   46.9732 H   0  0  0  0  0  0  0  0  0  0  0  0
   34.3306   25.8773   48.4044 H   0  0  0  0  0  0  0  0  0  0  0  0
   32.7480   24.0319   46.9731 H   0  0  0  0  0  0  0  0  0  0  0  0
   31.6801   25.1037   46.6175 H   0  0  0  0  0  0  0  0  0  0  0  0
   34.7745   25.0783   45.7194 H   0  0  0  0  0  0  0  0  0  0  0  0
   34.0620   26.3351   45.1431 H   0  0  0  0  0  0  0  0  0  0  0  0
  2  1  2  0
  3  2  1  0
  4  3  2  0
  4  5  1  0
  5  6  2  0
  6  1  1  0
  7  5  1  0
  8  7  2  0
  9  8  1  0
 10  9  1  0
 11 10  1  0
 12 11  1  0
 12 10  1  0
  1 13  1  0
  2 14  1  0
  3 15  1  0
  7 16  1  0
  8 17  1  0
  9 18  1  0
  9 19  1  0
 10 20  1  0
 11 21  1  0
 11 22  1  0
 12 23  1  0
 12 24  1  0
M  ISO  8  13  14  14  14  15  14  18   8  19   8  20  13  21  13  22  13
M  ISO  2  23  13  24  13
M  END
>  <minimizedAffinity>  (1) 
-4.13278055

>  <minimizedRMSD>  (1) 
0.253258914

$$$$
