
     RDKit          3D

 29 30  0  0  1  0  0  0  0  0999 V2000
   38.4680   32.3740   48.2400 C   0  0  0  0  0  0  0  0  0  0  0  0
   38.9170   32.2350   46.9090 C   0  0  0  0  0  0  0  0  0  0  0  0
   38.1880   31.4190   46.0590 C   0  0  0  0  0  0  0  0  0  0  0  0
   37.0780   30.7910   46.5350 N   0  0  0  0  0  0  0  0  0  0  0  0
   36.6750   30.9460   47.8190 C   0  0  0  0  0  0  0  0  0  0  0  0
   37.3590   31.7350   48.6840 N   0  0  0  0  0  0  0  0  0  0  0  0
   35.4980   30.2710   48.2990 N   0  0  0  0  0  0  0  0  0  0  0  0
   35.5120   29.5850   49.5790 C   0  0  1  0  0  0  0  0  0  0  0  0
   34.6280   28.3550   49.6050 C   0  0  0  0  0  0  0  0  0  0  0  0
   34.3650   27.9310   48.1860 C   0  0  0  0  0  0  0  0  0  0  0  0
   33.5110   28.9980   47.5590 C   0  0  0  0  0  0  0  0  0  0  0  0
   34.3020   30.2820   47.4930 C   0  0  0  0  0  0  0  0  0  0  0  0
   37.5640   29.2690   51.0320 C   0  0  0  0  0  0  0  0  0  0  0  0
   36.8420   29.8990   51.8770 O   0  0  0  0  0  0  0  0  0  0  0  0
   36.8620   29.0910   49.7840 N   0  0  0  0  0  0  0  0  0  0  0  0
   39.0317   33.0161   48.9328 H   0  0  0  0  0  0  0  0  0  0  0  0
   39.8182   32.7586   46.5573 H   0  0  0  0  0  0  0  0  0  0  0  0
   38.5019   31.2805   45.0139 H   0  0  0  0  0  0  0  0  0  0  0  0
   35.1587   30.2986   50.3380 H   0  0  0  0  0  0  0  0  0  0  0  0
   35.1356   27.5438   50.1474 H   0  0  0  0  0  0  0  0  0  0  0  0
   33.6797   28.5811   50.1145 H   0  0  0  0  0  0  0  0  0  0  0  0
   35.3141   27.8364   47.6380 H   0  0  0  0  0  0  0  0  0  0  0  0
   33.8587   26.9549   48.1556 H   0  0  0  0  0  0  0  0  0  0  0  0
   33.2218   28.6900   46.5434 H   0  0  0  0  0  0  0  0  0  0  0  0
   32.6032   29.1503   48.1613 H   0  0  0  0  0  0  0  0  0  0  0  0
   34.5908   30.4580   46.4463 H   0  0  0  0  0  0  0  0  0  0  0  0
   33.6549   31.0777   47.8907 H   0  0  0  0  0  0  0  0  0  0  0  0
   38.5849   28.9101   51.2296 H   0  0  0  0  0  0  0  0  0  0  0  0
   37.3340   28.5972   49.0131 H   0  0  0  0  0  0  0  0  0  0  0  0
  1  6  2  0
  2  1  1  0
  3  4  1  0
  3  2  2  0
  4  5  2  0
  5  7  1  0
  5  6  1  0
  7  8  1  0
  8  9  1  0
  8 15  1  0
 10  9  1  0
 11 10  1  0
 12 11  1  0
 12  7  1  0
 13 14  2  0
 15 13  1  0
  1 16  1  0
  2 17  1  0
  3 18  1  0
  8 19  1  1
  9 20  1  0
  9 21  1  0
 10 22  1  0
 10 23  1  0
 11 24  1  0
 11 25  1  0
 12 26  1  0
 12 27  1  0
 13 28  1  0
 15 29  1  0
M  ISO  8  16  14  17  14  18  14  19  13  20  13  21  13  22  13  23  13
M  ISO  5  24  13  25  13  26  13  27  13  28   6
M  END
>  <minimizedAffinity>  (1) 
-5.20044279

>  <minimizedRMSD>  (1) 
0.918676496

$$$$
