
     RDKit          3D

 27 28  0  0  1  0  0  0  0  0999 V2000
   38.8670   32.7590   48.1190 C   0  0  0  0  0  0  0  0  0  0  0  0
   39.4180   32.1900   46.9520 C   0  0  0  0  0  0  0  0  0  0  0  0
   38.7900   31.0770   46.4020 C   0  0  0  0  0  0  0  0  0  0  0  0
   37.6790   30.6030   47.0230 N   0  0  0  0  0  0  0  0  0  0  0  0
   37.1760   31.1670   48.1350 C   0  0  0  0  0  0  0  0  0  0  0  0
   37.7540   32.2440   48.6980 N   0  0  0  0  0  0  0  0  0  0  0  0
   35.9910   30.6230   48.7520 N   0  0  0  0  0  0  0  0  0  0  0  0
   35.9190   30.4460   50.2050 C   0  0  1  0  0  0  0  0  0  0  0  0
   35.1180   29.2470   50.6070 C   0  0  0  0  0  0  0  0  0  0  0  0
   34.9790   28.3280   49.4240 C   0  0  0  0  0  0  0  0  0  0  0  0
   34.1220   29.0490   48.4190 C   0  0  0  0  0  0  0  0  0  0  0  0
   34.8650   30.2500   47.9180 C   0  0  0  0  0  0  0  0  0  0  0  0
   37.1980   30.5280   50.8260 N   0  0  0  0  0  0  0  0  0  0  0  0
   39.3501   33.6389   48.5689 H   0  0  0  0  0  0  0  0  0  0  0  0
   40.3206   32.6151   46.4888 H   0  0  0  0  0  0  0  0  0  0  0  0
   39.1809   30.5962   45.4931 H   0  0  0  0  0  0  0  0  0  0  0  0
   35.3522   31.3022   50.5995 H   0  0  0  0  0  0  0  0  0  0  0  0
   35.6302   28.7193   51.4251 H   0  0  0  0  0  0  0  0  0  0  0  0
   34.1217   29.5646   50.9483 H   0  0  0  0  0  0  0  0  0  0  0  0
   35.9678   28.1109   48.9936 H   0  0  0  0  0  0  0  0  0  0  0  0
   34.5261   27.3693   49.7170 H   0  0  0  0  0  0  0  0  0  0  0  0
   33.8959   28.3775   47.5776 H   0  0  0  0  0  0  0  0  0  0  0  0
   33.1801   29.3646   48.8915 H   0  0  0  0  0  0  0  0  0  0  0  0
   35.2382   30.0316   46.9065 H   0  0  0  0  0  0  0  0  0  0  0  0
   34.1602   31.0945   47.9294 H   0  0  0  0  0  0  0  0  0  0  0  0
   37.0838   30.5207   51.8496 H   0  0  0  0  0  0  0  0  0  0  0  0
   37.7714   29.7220   50.5388 H   0  0  0  0  0  0  0  0  0  0  0  0
  1  6  2  0
  2  1  1  0
  3  2  2  0
  3  4  1  0
  4  5  2  0
  5  6  1  0
  5  7  1  0
  7  8  1  0
  8  9  1  0
  8 13  1  0
 10  9  1  0
 11 10  1  0
 12 11  1  0
 12  7  1  0
  1 14  1  0
  2 15  1  0
  3 16  1  0
  8 17  1  1
  9 18  1  0
  9 19  1  0
 10 20  1  0
 10 21  1  0
 11 22  1  0
 11 23  1  0
 12 24  1  0
 12 25  1  0
 13 26  1  0
 13 27  1  0
M  ISO  8  14  14  15  14  16  14  17  13  18  13  19  13  20  13  21  13
M  ISO  6  22  13  23  13  24  13  25  13  26   5  27   5
M  END
>  <minimizedAffinity>  (1) 
-5.0473175

>  <minimizedRMSD>  (1) 
0.0842198059

$$$$
