
     RDKit          3D

 36 38  0  0  1  0  0  0  0  0999 V2000
   31.7930   31.7450   45.1290 C   0  0  0  0  0  0  0  0  0  0  0  0
   30.8860   31.3770   44.1240 C   0  0  0  0  0  0  0  0  0  0  0  0
   30.3740   30.0880   44.1470 C   0  0  0  0  0  0  0  0  0  0  0  0
   30.7770   29.2560   45.1390 N   0  0  0  0  0  0  0  0  0  0  0  0
   31.6420   29.6260   46.0870 C   0  0  0  0  0  0  0  0  0  0  0  0
   32.1650   30.8760   46.0990 N   0  0  0  0  0  0  0  0  0  0  0  0
   32.0480   28.7150   47.1250 N   0  0  0  0  0  0  0  0  0  0  0  0
   33.4360   28.5980   47.5310 C   0  0  1  0  0  0  0  0  0  0  0  0
   33.8330   27.2030   47.9370 C   0  0  0  0  0  0  0  0  0  0  0  0
   32.7900   26.2310   47.4090 C   0  0  0  0  0  0  0  0  0  0  0  0
   31.5120   26.5320   48.1570 C   0  0  0  0  0  0  0  0  0  0  0  0
   31.0470   27.9040   47.7680 C   0  0  0  0  0  0  0  0  0  0  0  0
   35.3640   30.0080   46.9450 C   0  0  0  0  0  0  0  0  0  0  0  0
   34.3970   29.0920   46.5340 C   0  0  0  0  0  0  0  0  0  0  0  0
   34.4320   28.7280   45.2040 C   0  0  0  0  0  0  0  0  0  0  0  0
   35.3600   29.2250   44.3050 C   0  0  0  0  0  0  0  0  0  0  0  0
   36.2830   30.1220   44.7750 C   0  0  0  0  0  0  0  0  0  0  0  0
   36.3090   30.5310   46.0870 C   0  0  0  0  0  0  0  0  0  0  0  0
   35.3630   30.7650   49.4400 N   0  0  0  0  0  0  0  0  0  0  0  0
   35.3730   30.4260   48.3370 C   0  0  0  0  0  0  0  0  0  0  0  0
   32.2115   32.7623   45.1292 H   0  0  0  0  0  0  0  0  0  0  0  0
   30.5895   32.0899   43.3405 H   0  0  0  0  0  0  0  0  0  0  0  0
   29.6604   29.7499   43.3812 H   0  0  0  0  0  0  0  0  0  0  0  0
   33.4866   29.2518   48.4142 H   0  0  0  0  0  0  0  0  0  0  0  0
   34.8172   26.9586   47.5109 H   0  0  0  0  0  0  0  0  0  0  0  0
   33.8929   27.1324   49.0331 H   0  0  0  0  0  0  0  0  0  0  0  0
   32.6432   26.3796   46.3290 H   0  0  0  0  0  0  0  0  0  0  0  0
   33.1043   25.1875   47.5585 H   0  0  0  0  0  0  0  0  0  0  0  0
   30.7436   25.7906   47.8927 H   0  0  0  0  0  0  0  0  0  0  0  0
   31.6896   26.4868   49.2416 H   0  0  0  0  0  0  0  0  0  0  0  0
   30.7156   28.4251   48.6783 H   0  0  0  0  0  0  0  0  0  0  0  0
   30.2399   27.7637   47.0339 H   0  0  0  0  0  0  0  0  0  0  0  0
   33.6854   28.0070   44.8396 H   0  0  0  0  0  0  0  0  0  0  0  0
   35.3565   28.9110   43.2508 H   0  0  0  0  0  0  0  0  0  0  0  0
   37.0298   30.5293   44.0775 H   0  0  0  0  0  0  0  0  0  0  0  0
   37.0597   31.2526   46.4416 H   0  0  0  0  0  0  0  0  0  0  0  0
  1  6  2  0
  2  3  2  0
  2  1  1  0
  3  4  1  0
  4  5  2  0
  5  6  1  0
  5  7  1  0
  7  8  1  0
  7 12  1  0
  8  9  1  0
 10  9  1  0
 10 11  1  0
 12 11  1  0
 13 20  1  0
 14 13  2  0
 14  8  1  0
 15 14  1  0
 16 17  1  0
 16 15  2  0
 17 18  2  0
 18 13  1  0
 20 19  3  0
  1 21  1  0
  2 22  1  0
  3 23  1  0
  8 24  1  1
  9 25  1  0
  9 26  1  0
 10 27  1  0
 10 28  1  0
 11 29  1  0
 11 30  1  0
 12 31  1  0
 12 32  1  0
 15 33  1  0
 16 34  1  0
 17 35  1  0
 18 36  1  0
M  ISO  8  21  14  22  14  23  14  24  13  25  13  26  13  27  13  28  13
M  ISO  8  29  13  30  13  31  13  32  13  33  14  34  14  35  14  36  14
M  END
>  <minimizedAffinity>  (1) 
-4.13989162

>  <minimizedRMSD>  (1) 
6.08805609

$$$$
