
     RDKit          3D

 27 29  0  0  0  0  0  0  0  0999 V2000
   33.7820   28.7340   47.3660 C   0  0  0  0  0  0  0  0  0  0  0  0
   34.3110   29.1100   46.1320 C   0  0  0  0  0  0  0  0  0  0  0  0
   35.3430   30.0080   46.3360 C   0  0  0  0  0  0  0  0  0  0  0  0
   35.4240   30.1620   47.6910 N   0  0  0  0  0  0  0  0  0  0  0  0
   34.5010   29.4070   48.2690 N   0  0  0  0  0  0  0  0  0  0  0  0
   37.6900   30.7020   45.8540 Cl  0  0  0  0  0  0  0  0  0  0  0  0
   37.4950   31.3460   47.4750 C   0  0  0  0  0  0  0  0  0  0  0  0
   36.3980   31.0320   48.2540 C   0  0  0  0  0  0  0  0  0  0  0  0
   36.2490   31.5500   49.5460 C   0  0  0  0  0  0  0  0  0  0  0  0
   37.2210   32.4040   50.0750 C   0  0  0  0  0  0  0  0  0  0  0  0
   38.3220   32.7050   49.2650 C   0  0  0  0  0  0  0  0  0  0  0  0
   39.5460   33.7830   49.9410 Cl  0  0  0  0  0  0  0  0  0  0  0  0
   38.4610   32.1880   47.9870 C   0  0  0  0  0  0  0  0  0  0  0  0
   31.8870   27.7290   48.6470 C   0  0  0  0  0  0  0  0  0  0  0  0
   32.6900   27.8060   47.5130 C   0  0  0  0  0  0  0  0  0  0  0  0
   32.4070   26.9260   46.4650 C   0  0  0  0  0  0  0  0  0  0  0  0
   31.3670   26.0510   46.6210 N   0  0  0  0  0  0  0  0  0  0  0  0
   30.6200   26.0180   47.7420 C   0  0  0  0  0  0  0  0  0  0  0  0
   30.8750   26.8620   48.7730 N   0  0  0  0  0  0  0  0  0  0  0  0
   33.9631   28.7499   45.1525 H   0  0  0  0  0  0  0  0  0  0  0  0
   35.9656   30.4943   45.5706 H   0  0  0  0  0  0  0  0  0  0  0  0
   35.3659   31.2846   50.1457 H   0  0  0  0  0  0  0  0  0  0  0  0
   37.1244   32.8228   51.0876 H   0  0  0  0  0  0  0  0  0  0  0  0
   39.3411   32.4487   47.3808 H   0  0  0  0  0  0  0  0  0  0  0  0
   32.0943   28.4150   49.4816 H   0  0  0  0  0  0  0  0  0  0  0  0
   33.0035   26.9366   45.5409 H   0  0  0  0  0  0  0  0  0  0  0  0
   29.7928   25.2974   47.8221 H   0  0  0  0  0  0  0  0  0  0  0  0
  1 15  1  0
  1  5  2  0
  2  3  2  0
  2  1  1  0
  3  4  1  0
  4  8  1  0
  4  5  1  0
  6  7  1  0
  7 13  2  0
  7  8  1  0
  8  9  2  0
  9 10  1  0
 11 12  1  0
 11 10  2  0
 13 11  1  0
 14 19  2  0
 15 14  1  0
 16 17  1  0
 16 15  2  0
 17 18  2  0
 18 19  1  0
  2 20  1  0
  3 21  1  0
  9 22  1  0
 10 23  1  0
 13 24  1  0
 14 25  1  0
 16 26  1  0
 18 27  1  0
M  ISO  8  20  14  21  14  22  14  23  14  24  14  25  14  26  14  27  14
M  END
>  <minimizedAffinity>  (1) 
-5.0463438

>  <minimizedRMSD>  (1) 
5.74204206

$$$$
