
     RDKit          3D

 30 32  0  0  0  0  0  0  0  0999 V2000
   35.1040   29.8100   47.4750 C   0  0  0  0  0  0  0  0  0  0  0  0
   35.6470   30.1160   46.2160 C   0  0  0  0  0  0  0  0  0  0  0  0
   36.8720   30.7570   46.4240 C   0  0  0  0  0  0  0  0  0  0  0  0
   37.0310   30.8210   47.7770 N   0  0  0  0  0  0  0  0  0  0  0  0
   35.9830   30.2600   48.3450 N   0  0  0  0  0  0  0  0  0  0  0  0
   33.5000   28.3740   48.7500 C   0  0  0  0  0  0  0  0  0  0  0  0
   33.8360   29.1400   47.6270 C   0  0  0  0  0  0  0  0  0  0  0  0
   32.8770   29.2520   46.6060 C   0  0  0  0  0  0  0  0  0  0  0  0
   31.6860   28.6050   46.7810 N   0  0  0  0  0  0  0  0  0  0  0  0
   31.4060   27.8740   47.8850 C   0  0  0  0  0  0  0  0  0  0  0  0
   32.3210   27.7610   48.8720 N   0  0  0  0  0  0  0  0  0  0  0  0
   38.1690   31.4090   48.4420 C   0  0  0  0  0  0  0  0  0  0  0  0
   39.0040   32.2380   47.4880 C   0  0  0  0  0  0  0  0  0  0  0  0
   39.3310   33.5340   48.1870 C   0  0  0  0  0  0  0  0  0  0  0  0
   38.6260   33.5160   49.5110 C   0  0  0  0  0  0  0  0  0  0  0  0
   37.6780   32.3410   49.5030 C   0  0  0  0  0  0  0  0  0  0  0  0
   35.1901   29.8914   45.2409 H   0  0  0  0  0  0  0  0  0  0  0  0
   37.5641   31.1320   45.6556 H   0  0  0  0  0  0  0  0  0  0  0  0
   34.2354   28.2738   49.5619 H   0  0  0  0  0  0  0  0  0  0  0  0
   33.0778   29.8396   45.6981 H   0  0  0  0  0  0  0  0  0  0  0  0
   30.4321   27.3713   47.9786 H   0  0  0  0  0  0  0  0  0  0  0  0
   38.7769   30.5887   48.8514 H   0  0  0  0  0  0  0  0  0  0  0  0
   38.4355   32.4396   46.5681 H   0  0  0  0  0  0  0  0  0  0  0  0
   39.9240   31.7028   47.2103 H   0  0  0  0  0  0  0  0  0  0  0  0
   40.4173   33.6158   48.3399 H   0  0  0  0  0  0  0  0  0  0  0  0
   39.0061   34.3948   47.5841 H   0  0  0  0  0  0  0  0  0  0  0  0
   39.3575   33.4031   50.3247 H   0  0  0  0  0  0  0  0  0  0  0  0
   38.0775   34.4559   49.6712 H   0  0  0  0  0  0  0  0  0  0  0  0
   36.6569   32.6777   49.2707 H   0  0  0  0  0  0  0  0  0  0  0  0
   37.6479   31.8465   50.4851 H   0  0  0  0  0  0  0  0  0  0  0  0
  1  7  1  0
  1  5  2  0
  2  3  2  0
  2  1  1  0
  3  4  1  0
  4  5  1  0
  4 12  1  0
  6 11  2  0
  7  6  1  0
  8  9  1  0
  8  7  2  0
  9 10  2  0
 10 11  1  0
 12 16  1  0
 13 14  1  0
 13 12  1  0
 14 15  1  0
 16 15  1  0
  2 17  1  0
  3 18  1  0
  6 19  1  0
  8 20  1  0
 10 21  1  0
 12 22  1  0
 13 23  1  0
 13 24  1  0
 14 25  1  0
 14 26  1  0
 15 27  1  0
 15 28  1  0
 16 29  1  0
 16 30  1  0
M  ISO  8  17  14  18  14  19  14  20  14  21  14  22  13  23  13  24  13
M  ISO  6  25  13  26  13  27  13  28  13  29  13  30  13
M  END
>  <minimizedAffinity>  (1) 
-4.76872015

>  <minimizedRMSD>  (1) 
4.22422695

$$$$
