
     RDKit          3D

 26 28  0  0  0  0  0  0  0  0999 V2000
   36.3300   30.4150   47.4750 C   0  0  0  0  0  0  0  0  0  0  0  0
   35.6120   29.9870   46.3550 C   0  0  0  0  0  0  0  0  0  0  0  0
   36.2150   30.5580   45.2260 C   0  0  0  0  0  0  0  0  0  0  0  0
   37.2510   31.2910   45.6860 N   0  0  0  0  0  0  0  0  0  0  0  0
   37.2930   31.1880   46.9990 N   0  0  0  0  0  0  0  0  0  0  0  0
   36.9530   29.7660   49.8190 C   0  0  0  0  0  0  0  0  0  0  0  0
   35.9840   30.0150   48.8230 C   0  0  0  0  0  0  0  0  0  0  0  0
   34.6410   29.8660   49.1650 C   0  0  0  0  0  0  0  0  0  0  0  0
   34.3380   29.4890   50.4390 N   0  0  0  0  0  0  0  0  0  0  0  0
   35.2860   29.2580   51.3680 C   0  0  0  0  0  0  0  0  0  0  0  0
   36.5880   29.3960   51.0580 N   0  0  0  0  0  0  0  0  0  0  0  0
   38.1410   32.0440   44.8750 C   0  0  0  0  0  0  0  0  0  0  0  0
   39.2250   32.6890   45.4200 C   0  0  0  0  0  0  0  0  0  0  0  0
   40.1470   33.4420   44.7330 C   0  0  0  0  0  0  0  0  0  0  0  0
   39.8880   33.5080   43.3610 C   0  0  0  0  0  0  0  0  0  0  0  0
   38.8100   32.8700   42.8030 C   0  0  0  0  0  0  0  0  0  0  0  0
   37.9480   32.1480   43.5490 N   0  0  0  0  0  0  0  0  0  0  0  0
   34.7345   29.3236   46.3588 H   0  0  0  0  0  0  0  0  0  0  0  0
   35.9065   30.4340   44.1774 H   0  0  0  0  0  0  0  0  0  0  0  0
   38.0205   29.8763   49.5776 H   0  0  0  0  0  0  0  0  0  0  0  0
   33.8467   30.0479   48.4261 H   0  0  0  0  0  0  0  0  0  0  0  0
   34.9943   28.9552   52.3845 H   0  0  0  0  0  0  0  0  0  0  0  0
   39.3681   32.5939   46.5065 H   0  0  0  0  0  0  0  0  0  0  0  0
   41.0011   33.9415   45.2136 H   0  0  0  0  0  0  0  0  0  0  0  0
   40.5647   34.0852   42.7138 H   0  0  0  0  0  0  0  0  0  0  0  0
   38.6436   32.9489   41.7185 H   0  0  0  0  0  0  0  0  0  0  0  0
  1  7  1  0
  2  1  1  0
  3  4  1  0
  3  2  2  0
  4  5  1  0
  5  1  2  0
  6 11  2  0
  7  8  2  0
  7  6  1  0
  8  9  1  0
  9 10  2  0
 11 10  1  0
 12 13  2  0
 12  4  1  0
 14 13  1  0
 15 14  2  0
 16 15  1  0
 16 17  2  0
 17 12  1  0
  2 18  1  0
  3 19  1  0
  6 20  1  0
  8 21  1  0
 10 22  1  0
 13 23  1  0
 14 24  1  0
 15 25  1  0
 16 26  1  0
M  ISO  8  18  14  19  14  20  14  21  14  22  14  23  14  24  14  25  14
M  ISO  1  26  14
M  END
>  <minimizedAffinity>  (1) 
-4.58571386

>  <minimizedRMSD>  (1) 
4.0910449

$$$$
