
     RDKit          3D

 27 29  0  0  1  0  0  0  0  0999 V2000
   33.7460   29.1040   47.5840 C   0  0  0  0  0  0  0  0  0  0  0  0
   34.4690   29.4350   46.4490 C   0  0  0  0  0  0  0  0  0  0  0  0
   35.5750   30.2030   46.8460 C   0  0  0  0  0  0  0  0  0  0  0  0
   35.4830   30.3090   48.1940 N   0  0  0  0  0  0  0  0  0  0  0  0
   34.4120   29.6610   48.5890 N   0  0  0  0  0  0  0  0  0  0  0  0
   32.3190   27.2170   48.4090 C   0  0  0  0  0  0  0  0  0  0  0  0
   32.5380   28.3150   47.5460 C   0  0  0  0  0  0  0  0  0  0  0  0
   31.5370   28.6170   46.6460 C   0  0  0  0  0  0  0  0  0  0  0  0
   30.4080   27.8480   46.6380 N   0  0  0  0  0  0  0  0  0  0  0  0
   30.2430   26.8060   47.4860 C   0  0  0  0  0  0  0  0  0  0  0  0
   31.2120   26.4890   48.3810 N   0  0  0  0  0  0  0  0  0  0  0  0
   36.4080   31.0160   49.0640 C   0  0  1  0  0  0  0  0  0  0  0  0
   37.7250   30.2780   49.4050 C   0  0  0  0  0  0  0  0  0  0  0  0
   37.6900   31.4810   48.5300 C   0  0  2  0  0  0  0  0  0  0  0  0
   38.4110   32.6900   49.0570 C   0  0  0  0  0  0  0  0  0  0  0  0
   39.1200   32.3580   50.1960 F   0  0  0  0  0  0  0  0  0  0  0  0
   39.3470   33.1040   48.1140 F   0  0  0  0  0  0  0  0  0  0  0  0
   37.5500   33.7100   49.4120 F   0  0  0  0  0  0  0  0  0  0  0  0
   34.2198   29.1464   45.4172 H   0  0  0  0  0  0  0  0  0  0  0  0
   36.3544   30.6300   46.1977 H   0  0  0  0  0  0  0  0  0  0  0  0
   33.1020   26.9553   49.1359 H   0  0  0  0  0  0  0  0  0  0  0  0
   31.6458   29.4606   45.9485 H   0  0  0  0  0  0  0  0  0  0  0  0
   29.3175   26.2126   47.4492 H   0  0  0  0  0  0  0  0  0  0  0  0
   35.5917   31.4997   49.6204 H   0  0  0  0  0  0  0  0  0  0  0  0
   38.1507   30.3386   50.4175 H   0  0  0  0  0  0  0  0  0  0  0  0
   38.0998   29.2474   49.3188 H   0  0  0  0  0  0  0  0  0  0  0  0
   37.9839   31.7350   47.5009 H   0  0  0  0  0  0  0  0  0  0  0  0
  1  5  2  0
  2  3  2  0
  2  1  1  0
  3  4  1  0
  4  5  1  0
  4 12  1  0
  7  1  1  0
  7  6  2  0
  8  7  1  0
  9  8  2  0
  9 10  1  0
 10 11  2  0
 11  6  1  0
 12 13  1  0
 14 15  1  0
 14 12  1  0
 14 13  1  0
 15 18  1  0
 15 16  1  0
 17 15  1  0
  2 19  1  0
  3 20  1  0
  6 21  1  0
  8 22  1  0
 10 23  1  0
 12 24  1  1
 13 25  1  0
 13 26  1  0
 14 27  1  6
M  ISO  8  19  14  20  14  21  14  22  14  23  14  24  13  25  13  26  13
M  ISO  1  27  13
M  END
>  <minimizedAffinity>  (1) 
-5.08711004

>  <minimizedRMSD>  (1) 
3.78326559

$$$$
