
     RDKit          3D

 39 42  0  0  1  0  0  0  0  0999 V2000
   33.4370   28.8800   47.3470 C   0  0  0  0  0  0  0  0  0  0  0  0
   34.1260   29.0170   46.1410 C   0  0  0  0  0  0  0  0  0  0  0  0
   35.2530   29.8090   46.3830 C   0  0  0  0  0  0  0  0  0  0  0  0
   35.2150   30.1220   47.7030 N   0  0  0  0  0  0  0  0  0  0  0  0
   34.1490   29.5640   48.2200 N   0  0  0  0  0  0  0  0  0  0  0  0
   32.1260   26.9400   48.2320 C   0  0  0  0  0  0  0  0  0  0  0  0
   32.2190   28.1250   47.4750 C   0  0  0  0  0  0  0  0  0  0  0  0
   31.0630   28.5670   46.8270 C   0  0  0  0  0  0  0  0  0  0  0  0
   29.9200   27.8400   46.9570 N   0  0  0  0  0  0  0  0  0  0  0  0
   29.8750   26.7120   47.6920 C   0  0  0  0  0  0  0  0  0  0  0  0
   30.9880   26.2520   48.3390 N   0  0  0  0  0  0  0  0  0  0  0  0
   36.1940   30.9350   48.4030 C   0  0  1  0  0  0  0  0  0  0  0  0
   37.4600   30.2280   48.9050 C   0  0  0  0  0  0  0  0  0  0  0  0
   37.4940   31.2020   47.7820 C   0  0  2  0  0  0  0  0  0  0  0  0
   38.0540   32.4840   47.8520 N   0  0  0  0  0  0  0  0  0  0  0  0
   37.9670   33.2260   49.0470 C   0  0  0  0  0  0  0  0  0  0  0  0
   39.2470   33.6970   49.6480 C   0  0  0  0  0  0  0  0  0  0  0  0
   40.0170   34.4080   48.5550 C   0  0  0  0  0  0  0  0  0  0  0  0
   40.2060   33.5590   47.3400 C   0  0  0  0  0  0  0  0  0  0  0  0
   38.9520   32.9090   46.8520 C   0  0  0  0  0  0  0  0  0  0  0  0
   33.8350   28.5806   45.1741 H   0  0  0  0  0  0  0  0  0  0  0  0
   36.0154   30.1159   45.6519 H   0  0  0  0  0  0  0  0  0  0  0  0
   33.0218   26.5699   48.7521 H   0  0  0  0  0  0  0  0  0  0  0  0
   31.0764   29.4860   46.2226 H   0  0  0  0  0  0  0  0  0  0  0  0
   28.9306   26.1538   47.7726 H   0  0  0  0  0  0  0  0  0  0  0  0
   35.4088   31.5690   48.8406 H   0  0  0  0  0  0  0  0  0  0  0  0
   37.8928   30.4908   49.8815 H   0  0  0  0  0  0  0  0  0  0  0  0
   37.7748   29.1847   49.0549 H   0  0  0  0  0  0  0  0  0  0  0  0
   37.9151   31.1377   46.7678 H   0  0  0  0  0  0  0  0  0  0  0  0
   37.3508   34.1138   48.8418 H   0  0  0  0  0  0  0  0  0  0  0  0
   37.5455   32.5281   49.7855 H   0  0  0  0  0  0  0  0  0  0  0  0
   39.0420   34.3901   50.4772 H   0  0  0  0  0  0  0  0  0  0  0  0
   39.8259   32.8517   50.0484 H   0  0  0  0  0  0  0  0  0  0  0  0
   39.4652   35.3154   48.2684 H   0  0  0  0  0  0  0  0  0  0  0  0
   41.0143   34.6482   48.9521 H   0  0  0  0  0  0  0  0  0  0  0  0
   40.6036   34.1927   46.5336 H   0  0  0  0  0  0  0  0  0  0  0  0
   40.8955   32.7495   47.6214 H   0  0  0  0  0  0  0  0  0  0  0  0
   38.4256   33.6302   46.2096 H   0  0  0  0  0  0  0  0  0  0  0  0
   39.2720   31.9957   46.3290 H   0  0  0  0  0  0  0  0  0  0  0  0
  1  7  1  0
  1  5  2  0
  2  3  2  0
  2  1  1  0
  3  4  1  0
  4  5  1  0
  4 12  1  0
  6 11  2  0
  7  6  1  0
  8  9  1  0
  8  7  2  0
  9 10  2  0
 10 11  1  0
 12 13  1  0
 14 15  1  0
 14 12  1  0
 14 13  1  0
 15 16  1  0
 16 17  1  0
 18 17  1  0
 19 18  1  0
 20 19  1  0
 20 15  1  0
  2 21  1  0
  3 22  1  0
  6 23  1  0
  8 24  1  0
 10 25  1  0
 12 26  1  1
 13 27  1  0
 13 28  1  0
 14 29  1  6
 16 30  1  0
 16 31  1  0
 17 32  1  0
 17 33  1  0
 18 34  1  0
 18 35  1  0
 19 36  1  0
 19 37  1  0
 20 38  1  0
 20 39  1  0
M  ISO  8  21  14  22  14  23  14  24  14  25  14  26  13  27  13  28  13
M  ISO  8  29  13  30  13  31  13  32  13  33  13  34  13  35  13  36  13
M  ISO  3  37  13  38  13  39  13
M  END
>  <minimizedAffinity>  (1) 
-4.59367275

>  <minimizedRMSD>  (1) 
4.11113405

$$$$
