
     RDKit          3D

 44 48  0  0  1  0  0  0  0  0999 V2000
   32.6480   29.1890   46.0000 C   0  0  1  0  0  0  0  0  0  0  0  0
   33.0970   27.8450   45.3290 C   0  0  0  0  0  0  0  0  0  0  0  0
   33.3200   29.1670   44.6890 C   0  0  2  0  0  0  0  0  0  0  0  0
   29.1370   29.3190   46.8230 C   0  0  0  0  0  0  0  0  0  0  0  0
   29.1520   30.0700   45.6490 C   0  0  0  0  0  0  0  0  0  0  0  0
   30.4770   30.1220   45.1810 C   0  0  0  0  0  0  0  0  0  0  0  0
   31.2150   29.4200   46.0590 N   0  0  0  0  0  0  0  0  0  0  0  0
   30.4020   28.9710   46.9950 N   0  0  0  0  0  0  0  0  0  0  0  0
   27.4550   27.7330   47.7820 C   0  0  0  0  0  0  0  0  0  0  0  0
   27.9450   29.0580   47.5770 C   0  0  0  0  0  0  0  0  0  0  0  0
   27.2270   30.0860   48.1330 C   0  0  0  0  0  0  0  0  0  0  0  0
   26.1030   29.7920   48.8400 N   0  0  0  0  0  0  0  0  0  0  0  0
   25.6660   28.5420   49.0170 C   0  0  0  0  0  0  0  0  0  0  0  0
   26.3470   27.4970   48.4830 N   0  0  0  0  0  0  0  0  0  0  0  0
   34.7200   29.7040   44.5770 C   0  0  0  0  0  0  0  0  0  0  0  0
   35.2860   30.1390   43.3700 C   0  0  0  0  0  0  0  0  0  0  0  0
   36.5520   30.5500   43.6470 N   0  0  0  0  0  0  0  0  0  0  0  0
   36.7710   30.3770   44.9800 C   0  0  0  0  0  0  0  0  0  0  0  0
   35.6540   29.8620   45.5470 N   0  0  0  0  0  0  0  0  0  0  0  0
   37.9400   32.1450   46.1640 C   0  0  1  0  0  0  0  0  0  0  0  0
   37.9630   30.6610   45.7840 C   0  0  2  0  0  0  0  0  0  0  0  0
   39.1490   30.6400   45.0520 O   0  0  0  0  0  0  0  0  0  0  0  0
   40.0820   31.2160   45.8990 C   0  0  0  0  0  0  0  0  0  0  0  0
   39.3590   32.2690   46.7010 C   0  0  1  0  0  0  0  0  0  0  0  0
   37.8350   32.9320   45.0100 O   0  0  0  0  0  0  0  0  0  0  0  0
   39.8950   33.5310   46.5430 O   0  0  0  0  0  0  0  0  0  0  0  0
   32.8290   29.7180   46.9473 H   0  0  0  0  0  0  0  0  0  0  0  0
   33.9441   27.2747   45.7379 H   0  0  0  0  0  0  0  0  0  0  0  0
   32.6097   26.9005   45.0454 H   0  0  0  0  0  0  0  0  0  0  0  0
   33.0625   29.5774   43.7014 H   0  0  0  0  0  0  0  0  0  0  0  0
   28.2795   30.5401   45.1717 H   0  0  0  0  0  0  0  0  0  0  0  0
   30.8378   30.6346   44.2771 H   0  0  0  0  0  0  0  0  0  0  0  0
   28.0065   26.8850   47.3500 H   0  0  0  0  0  0  0  0  0  0  0  0
   27.5542   31.1289   48.0093 H   0  0  0  0  0  0  0  0  0  0  0  0
   24.7501   28.3592   49.5982 H   0  0  0  0  0  0  0  0  0  0  0  0
   34.7975   30.1463   42.3844 H   0  0  0  0  0  0  0  0  0  0  0  0
   37.2278   30.9266   42.9671 H   0  0  0  0  0  0  0  0  0  0  0  0
   37.1244   32.4492   46.8365 H   0  0  0  0  0  0  0  0  0  0  0  0
   37.9409   29.9163   46.5933 H   0  0  0  0  0  0  0  0  0  0  0  0
   40.5042   30.4536   46.5702 H   0  0  0  0  0  0  0  0  0  0  0  0
   40.9108   31.6586   45.3270 H   0  0  0  0  0  0  0  0  0  0  0  0
   39.4292   32.1223   47.7889 H   0  0  0  0  0  0  0  0  0  0  0  0
   37.7086   33.8796   45.2672 H   0  0  0  0  0  0  0  0  0  0  0  0
   40.0649   33.9311   47.4325 H   0  0  0  0  0  0  0  0  0  0  0  0
  1  7  1  0
  2  1  1  0
  3  2  1  0
  3  1  1  0
  4  8  2  0
  4 10  1  0
  5  4  1  0
  6  5  2  0
  6  7  1  0
  7  8  1  0
  9 14  2  0
 10  9  1  0
 10 11  2  0
 11 12  1  0
 12 13  2  0
 14 13  1  0
 15  3  1  0
 15 19  1  0
 16 17  1  0
 16 15  2  0
 17 18  1  0
 18 19  2  0
 20 25  1  0
 20 24  1  0
 21 18  1  0
 21 20  1  0
 22 21  1  0
 22 23  1  0
 23 24  1  0
 24 26  1  0
  1 27  1  1
  2 28  1  0
  2 29  1  0
  3 30  1  6
  5 31  1  0
  6 32  1  0
  9 33  1  0
 11 34  1  0
 13 35  1  0
 16 36  1  0
 17 37  1  0
 20 38  1  1
 21 39  1  1
 23 40  1  0
 23 41  1  0
 24 42  1  1
 25 43  1  0
 26 44  1  0
M  ISO  8  27  13  28  13  29  13  30  13  31  14  32  14  33  14  34  14
M  ISO  8  35  14  36  14  37   9  38  13  39  13  40  13  41  13  42  13
M  ISO  2  43   3  44   3
M  END
>  <minimizedAffinity>  (1) 
-5.5673728

>  <minimizedRMSD>  (1) 
5.74060774

$$$$
