
     RDKit          3D

 47 52  0  0  1  0  0  0  0  0999 V2000
   31.0420   27.4390   49.1920 C   0  0  1  0  0  0  0  0  0  0  0  0
   31.3030   26.2910   48.1560 C   0  0  0  0  0  0  0  0  0  0  0  0
   31.5010   27.7430   47.8380 C   0  0  2  0  0  0  0  0  0  0  0  0
   27.6560   28.5960   49.5850 C   0  0  0  0  0  0  0  0  0  0  0  0
   27.6810   27.5750   50.5180 C   0  0  0  0  0  0  0  0  0  0  0  0
   28.9700   26.9910   50.5010 C   0  0  0  0  0  0  0  0  0  0  0  0
   29.6610   27.6740   49.5720 N   0  0  0  0  0  0  0  0  0  0  0  0
   28.8680   28.5880   49.0690 N   0  0  0  0  0  0  0  0  0  0  0  0
   25.1650   28.9110   49.5140 C   0  0  0  0  0  0  0  0  0  0  0  0
   26.4990   29.4090   49.3340 C   0  0  0  0  0  0  0  0  0  0  0  0
   26.6310   30.7000   48.9080 C   0  0  0  0  0  0  0  0  0  0  0  0
   25.5110   31.4420   48.6790 N   0  0  0  0  0  0  0  0  0  0  0  0
   24.2770   30.9510   48.8560 C   0  0  0  0  0  0  0  0  0  0  0  0
   24.0860   29.6600   49.2820 N   0  0  0  0  0  0  0  0  0  0  0  0
   32.8980   28.2570   47.6230 C   0  0  0  0  0  0  0  0  0  0  0  0
   33.5520   28.2990   46.4070 C   0  0  0  0  0  0  0  0  0  0  0  0
   34.7830   28.8420   46.6210 N   0  0  0  0  0  0  0  0  0  0  0  0
   34.9060   29.1380   47.9470 C   0  0  0  0  0  0  0  0  0  0  0  0
   33.7550   28.7780   48.5410 N   0  0  0  0  0  0  0  0  0  0  0  0
   36.0870   29.7490   48.6150 C   0  0  0  0  0  0  0  0  0  0  0  0
   36.5530   29.2670   49.8450 C   0  0  0  0  0  0  0  0  0  0  0  0
   37.9850   30.3580   50.1880 S   0  0  0  0  0  0  0  0  0  0  0  0
   37.6930   31.2880   48.5750 C   0  0  0  0  0  0  0  0  0  0  0  0
   36.7970   30.7520   48.1660 N   0  0  0  0  0  0  0  0  0  0  0  0
   39.0610   31.5810   46.0840 F   0  0  0  0  0  0  0  0  0  0  0  0
   39.2630   32.5140   47.0460 C   0  0  0  0  0  0  0  0  0  0  0  0
   38.6370   32.4210   48.2470 C   0  0  0  0  0  0  0  0  0  0  0  0
   38.7450   33.2790   49.2990 C   0  0  0  0  0  0  0  0  0  0  0  0
   39.5960   34.3730   49.1130 C   0  0  0  0  0  0  0  0  0  0  0  0
   40.2540   34.5020   47.8960 C   0  0  0  0  0  0  0  0  0  0  0  0
   40.1040   33.5910   46.8580 C   0  0  0  0  0  0  0  0  0  0  0  0
   31.3987   27.7133   50.1957 H   0  0  0  0  0  0  0  0  0  0  0  0
   32.1681   25.6213   48.2706 H   0  0  0  0  0  0  0  0  0  0  0  0
   30.7270   25.4550   47.7327 H   0  0  0  0  0  0  0  0  0  0  0  0
   31.1178   28.4054   47.0478 H   0  0  0  0  0  0  0  0  0  0  0  0
   26.8433   27.2696   51.1622 H   0  0  0  0  0  0  0  0  0  0  0  0
   29.3304   26.1546   51.1179 H   0  0  0  0  0  0  0  0  0  0  0  0
   25.0275   27.8744   49.8555 H   0  0  0  0  0  0  0  0  0  0  0  0
   27.6290   31.1355   48.7517 H   0  0  0  0  0  0  0  0  0  0  0  0
   23.4049   31.5912   48.6572 H   0  0  0  0  0  0  0  0  0  0  0  0
   33.1516   27.9563   45.4414 H   0  0  0  0  0  0  0  0  0  0  0  0
   35.5018   29.0025   45.9009 H   0  0  0  0  0  0  0  0  0  0  0  0
   36.1579   28.4400   50.4532 H   0  0  0  0  0  0  0  0  0  0  0  0
   38.1957   33.1210   50.2388 H   0  0  0  0  0  0  0  0  0  0  0  0
   39.7412   35.1148   49.9122 H   0  0  0  0  0  0  0  0  0  0  0  0
   40.9227   35.3628   47.7481 H   0  0  0  0  0  0  0  0  0  0  0  0
   40.6431   33.7254   45.9086 H   0  0  0  0  0  0  0  0  0  0  0  0
  1  7  1  0
  2  1  1  0
  3  2  1  0
  3  1  1  0
  4  5  1  0
  6  5  2  0
  7  6  1  0
  8  7  1  0
  8  4  2  0
 10  9  2  0
 10  4  1  0
 11 10  1  0
 12 13  1  0
 12 11  2  0
 13 14  2  0
 14  9  1  0
 15  3  1  0
 15 19  1  0
 16 17  1  0
 16 15  2  0
 17 18  1  0
 18 19  2  0
 18 20  1  0
 20 21  2  0
 21 22  1  0
 23 22  1  0
 24 23  2  0
 24 20  1  0
 25 26  1  0
 26 27  2  0
 27 23  1  0
 27 28  1  0
 29 28  2  0
 30 29  1  0
 31 26  1  0
 31 30  2  0
  1 32  1  1
  2 33  1  0
  2 34  1  0
  3 35  1  6
  5 36  1  0
  6 37  1  0
  9 38  1  0
 11 39  1  0
 13 40  1  0
 16 41  1  0
 17 42  1  0
 21 43  1  0
 28 44  1  0
 29 45  1  0
 30 46  1  0
 31 47  1  0
M  ISO  8  32  13  33  13  34  13  35  13  36  14  37  14  38  14  39  14
M  ISO  8  40  14  41  14  42   9  43  14  44  14  45  14  46  14  47  14
M  END
>  <minimizedAffinity>  (1) 
-7.68630362

>  <minimizedRMSD>  (1) 
2.24102783

$$$$
