
     RDKit          3D

 43 47  0  0  1  0  0  0  0  0999 V2000
   31.2960   27.8820   46.9780 C   0  0  1  0  0  0  0  0  0  0  0  0
   31.6030   27.7990   45.4360 C   0  0  0  0  0  0  0  0  0  0  0  0
   31.8260   29.0360   46.2540 C   0  0  2  0  0  0  0  0  0  0  0  0
   27.9000   28.5100   47.9850 C   0  0  0  0  0  0  0  0  0  0  0  0
   27.8860   27.1230   47.8970 C   0  0  0  0  0  0  0  0  0  0  0  0
   29.1760   26.7020   47.5020 C   0  0  0  0  0  0  0  0  0  0  0  0
   29.9040   27.8180   47.3690 N   0  0  0  0  0  0  0  0  0  0  0  0
   29.1300   28.8330   47.6580 N   0  0  0  0  0  0  0  0  0  0  0  0
   25.6040   28.7240   48.9680 C   0  0  0  0  0  0  0  0  0  0  0  0
   26.7570   29.2860   48.3620 C   0  0  0  0  0  0  0  0  0  0  0  0
   26.7300   30.6480   48.1420 C   0  0  0  0  0  0  0  0  0  0  0  0
   25.6290   31.3620   48.5100 N   0  0  0  0  0  0  0  0  0  0  0  0
   24.5600   30.7780   49.0830 C   0  0  0  0  0  0  0  0  0  0  0  0
   24.5390   29.4360   49.3210 N   0  0  0  0  0  0  0  0  0  0  0  0
   33.2190   29.5130   46.5020 C   0  0  0  0  0  0  0  0  0  0  0  0
   34.0890   29.9930   45.5460 C   0  0  0  0  0  0  0  0  0  0  0  0
   35.2440   30.3400   46.1740 N   0  0  0  0  0  0  0  0  0  0  0  0
   35.1160   30.0890   47.4970 C   0  0  0  0  0  0  0  0  0  0  0  0
   33.8800   29.5850   47.6870 N   0  0  0  0  0  0  0  0  0  0  0  0
   36.1400   30.3240   48.5600 C   0  0  0  0  0  0  0  0  0  0  0  0
   36.3990   29.3490   49.5470 C   0  0  0  0  0  0  0  0  0  0  0  0
   37.7040   30.1690   50.5440 S   0  0  0  0  0  0  0  0  0  0  0  0
   37.6610   31.6920   49.4390 C   0  0  0  0  0  0  0  0  0  0  0  0
   36.8690   31.4080   48.6850 N   0  0  0  0  0  0  0  0  0  0  0  0
   38.5650   32.8510   49.7210 C   0  0  0  0  0  0  0  0  0  0  0  0
   39.1100   33.4530   48.4600 C   0  0  0  0  0  0  0  0  0  0  0  0
   31.6033   27.3556   47.8937 H   0  0  0  0  0  0  0  0  0  0  0  0
   30.7827   27.7530   44.7045 H   0  0  0  0  0  0  0  0  0  0  0  0
   32.2092   27.1593   44.7778 H   0  0  0  0  0  0  0  0  0  0  0  0
   31.4866   30.0782   46.1607 H   0  0  0  0  0  0  0  0  0  0  0  0
   27.0245   26.4695   48.0988 H   0  0  0  0  0  0  0  0  0  0  0  0
   29.5134   25.6680   47.3373 H   0  0  0  0  0  0  0  0  0  0  0  0
   25.5909   27.6402   49.1558 H   0  0  0  0  0  0  0  0  0  0  0  0
   27.5884   31.1523   47.6743 H   0  0  0  0  0  0  0  0  0  0  0  0
   23.6915   31.3922   49.3630 H   0  0  0  0  0  0  0  0  0  0  0  0
   33.8852   30.0797   44.4685 H   0  0  0  0  0  0  0  0  0  0  0  0
   36.0803   30.7304   45.7167 H   0  0  0  0  0  0  0  0  0  0  0  0
   35.9398   28.3587   49.6830 H   0  0  0  0  0  0  0  0  0  0  0  0
   37.9983   33.6199   50.2665 H   0  0  0  0  0  0  0  0  0  0  0  0
   39.4127   32.4854   50.3191 H   0  0  0  0  0  0  0  0  0  0  0  0
   39.8284   34.2466   48.7132 H   0  0  0  0  0  0  0  0  0  0  0  0
   39.6165   32.6742   47.8710 H   0  0  0  0  0  0  0  0  0  0  0  0
   38.2848   33.8798   47.8710 H   0  0  0  0  0  0  0  0  0  0  0  0
  1  7  1  0
  2  3  1  0
  2  1  1  0
  3 15  1  0
  3  1  1  0
  4 10  1  0
  5  4  1  0
  6  5  2  0
  7  6  1  0
  7  8  1  0
  8  4  2  0
  9 14  2  0
 10  9  1  0
 11 10  2  0
 11 12  1  0
 12 13  2  0
 13 14  1  0
 15 19  1  0
 16 17  1  0
 16 15  2  0
 17 18  1  0
 18 19  2  0
 18 20  1  0
 20 24  1  0
 20 21  2  0
 21 22  1  0
 23 25  1  0
 23 22  1  0
 24 23  2  0
 26 25  1  0
  1 27  1  1
  2 28  1  0
  2 29  1  0
  3 30  1  6
  5 31  1  0
  6 32  1  0
  9 33  1  0
 11 34  1  0
 13 35  1  0
 16 36  1  0
 17 37  1  0
 21 38  1  0
 25 39  1  0
 25 40  1  0
 26 41  1  0
 26 42  1  0
 26 43  1  0
M  ISO  8  27  13  28  13  29  13  30  13  31  14  32  14  33  14  34  14
M  ISO  8  35  14  36  14  37   9  38  14  39   8  40   8  41   8  42   8
M  ISO  1  43   8
M  END
>  <minimizedAffinity>  (1) 
-6.34710026

>  <minimizedRMSD>  (1) 
1.30002677

$$$$
