
     RDKit          3D

 39 43  0  0  1  0  0  0  0  0999 V2000
   31.8860   27.7850   47.7920 C   0  0  1  0  0  0  0  0  0  0  0  0
   32.6680   26.7580   46.8870 C   0  0  0  0  0  0  0  0  0  0  0  0
   32.5600   28.2190   46.5680 C   0  0  2  0  0  0  0  0  0  0  0  0
   28.3300   28.1970   48.1690 C   0  0  0  0  0  0  0  0  0  0  0  0
   28.3830   26.9030   47.6700 C   0  0  0  0  0  0  0  0  0  0  0  0
   29.7420   26.5720   47.4590 C   0  0  0  0  0  0  0  0  0  0  0  0
   30.4450   27.6500   47.8290 N   0  0  0  0  0  0  0  0  0  0  0  0
   29.5910   28.5600   48.2300 N   0  0  0  0  0  0  0  0  0  0  0  0
   25.9520   28.1580   48.9800 C   0  0  0  0  0  0  0  0  0  0  0  0
   27.1040   28.8680   48.5020 C   0  0  0  0  0  0  0  0  0  0  0  0
   26.9880   30.2190   48.3760 C   0  0  0  0  0  0  0  0  0  0  0  0
   25.8090   30.8210   48.7020 N   0  0  0  0  0  0  0  0  0  0  0  0
   24.7510   30.1300   49.1460 C   0  0  0  0  0  0  0  0  0  0  0  0
   24.8120   28.7700   49.2930 N   0  0  0  0  0  0  0  0  0  0  0  0
   33.7900   29.0740   46.6570 C   0  0  0  0  0  0  0  0  0  0  0  0
   34.3600   29.7780   45.6170 C   0  0  0  0  0  0  0  0  0  0  0  0
   35.4430   30.4420   46.0940 N   0  0  0  0  0  0  0  0  0  0  0  0
   35.5630   30.1660   47.4280 C   0  0  0  0  0  0  0  0  0  0  0  0
   34.5540   29.3360   47.7520 N   0  0  0  0  0  0  0  0  0  0  0  0
   36.6110   30.6850   48.3560 C   0  0  0  0  0  0  0  0  0  0  0  0
   36.9490   29.9870   49.5190 C   0  0  0  0  0  0  0  0  0  0  0  0
   38.2490   31.0540   50.2550 S   0  0  0  0  0  0  0  0  0  0  0  0
   38.0940   32.2780   48.8250 C   0  0  0  0  0  0  0  0  0  0  0  0
   37.2960   31.7870   48.2100 N   0  0  0  0  0  0  0  0  0  0  0  0
   38.9890   33.4700   48.8780 C   0  0  0  0  0  0  0  0  0  0  0  0
   39.4390   33.9250   49.9370 O   0  0  0  0  0  0  0  0  0  0  0  0
   31.9152   28.1235   48.8382 H   0  0  0  0  0  0  0  0  0  0  0  0
   33.6227   26.3290   47.2254 H   0  0  0  0  0  0  0  0  0  0  0  0
   32.4385   25.8119   46.3749 H   0  0  0  0  0  0  0  0  0  0  0  0
   32.2166   28.7777   45.6848 H   0  0  0  0  0  0  0  0  0  0  0  0
   27.5201   26.2498   47.4732 H   0  0  0  0  0  0  0  0  0  0  0  0
   30.1400   25.6230   47.0704 H   0  0  0  0  0  0  0  0  0  0  0  0
   26.0134   27.0655   49.0921 H   0  0  0  0  0  0  0  0  0  0  0  0
   27.8368   30.8183   48.0149 H   0  0  0  0  0  0  0  0  0  0  0  0
   23.8211   30.6619   49.3958 H   0  0  0  0  0  0  0  0  0  0  0  0
   33.9985   29.7978   44.5783 H   0  0  0  0  0  0  0  0  0  0  0  0
   36.0677   31.0498   45.5453 H   0  0  0  0  0  0  0  0  0  0  0  0
   36.5397   29.0387   49.8973 H   0  0  0  0  0  0  0  0  0  0  0  0
   39.2608   33.9662   47.9346 H   0  0  0  0  0  0  0  0  0  0  0  0
  1  7  1  0
  2  1  1  0
  3 15  1  0
  3  2  1  0
  3  1  1  0
  4  8  2  0
  4 10  1  0
  5  4  1  0
  6  5  2  0
  6  7  1  0
  7  8  1  0
  9 14  2  0
 10  9  1  0
 11 10  2  0
 11 12  1  0
 12 13  2  0
 13 14  1  0
 15 19  1  0
 16 17  1  0
 16 15  2  0
 17 18  1  0
 18 19  2  0
 18 20  1  0
 20 21  2  0
 21 22  1  0
 23 25  1  0
 23 22  1  0
 24 20  1  0
 24 23  2  0
 25 26  2  0
  1 27  1  1
  2 28  1  0
  2 29  1  0
  3 30  1  6
  5 31  1  0
  6 32  1  0
  9 33  1  0
 11 34  1  0
 13 35  1  0
 16 36  1  0
 17 37  1  0
 21 38  1  0
 25 39  1  0
M  ISO  8  27  13  28  13  29  13  30  13  31  14  32  14  33  14  34  14
M  ISO  5  35  14  36  14  37   9  38  14  39   6
M  END
>  <minimizedAffinity>  (1) 
-6.23763084

>  <minimizedRMSD>  (1) 
0.91394496

$$$$
