
     RDKit          3D

 38 42  0  0  1  0  0  0  0  0999 V2000
   31.6250   28.2030   47.1220 C   0  0  1  0  0  0  0  0  0  0  0  0
   32.3780   27.1560   46.2160 C   0  0  0  0  0  0  0  0  0  0  0  0
   32.4720   28.6390   46.0130 C   0  0  2  0  0  0  0  0  0  0  0  0
   28.0860   28.6970   47.5280 C   0  0  0  0  0  0  0  0  0  0  0  0
   28.1080   27.9860   46.3280 C   0  0  0  0  0  0  0  0  0  0  0  0
   29.4560   27.7060   46.0200 C   0  0  0  0  0  0  0  0  0  0  0  0
   30.1840   28.2390   47.0100 N   0  0  0  0  0  0  0  0  0  0  0  0
   29.3530   28.7970   47.8520 N   0  0  0  0  0  0  0  0  0  0  0  0
   25.9410   28.2770   48.7490 C   0  0  0  0  0  0  0  0  0  0  0  0
   26.8750   29.1470   48.1370 C   0  0  0  0  0  0  0  0  0  0  0  0
   26.5510   30.4800   48.1530 C   0  0  0  0  0  0  0  0  0  0  0  0
   25.4000   30.8940   48.7300 N   0  0  0  0  0  0  0  0  0  0  0  0
   24.5350   30.0170   49.3070 C   0  0  0  0  0  0  0  0  0  0  0  0
   24.8130   28.6910   49.3150 N   0  0  0  0  0  0  0  0  0  0  0  0
   33.7710   29.3250   46.3040 C   0  0  0  0  0  0  0  0  0  0  0  0
   34.5730   29.9560   45.3600 C   0  0  0  0  0  0  0  0  0  0  0  0
   35.6520   30.4700   46.0120 N   0  0  0  0  0  0  0  0  0  0  0  0
   35.5340   30.1710   47.3460 C   0  0  0  0  0  0  0  0  0  0  0  0
   34.3990   29.4830   47.5010 N   0  0  0  0  0  0  0  0  0  0  0  0
   36.5020   30.5550   48.4130 C   0  0  0  0  0  0  0  0  0  0  0  0
   36.7330   29.6930   49.5070 C   0  0  0  0  0  0  0  0  0  0  0  0
   37.9780   30.6300   50.4830 S   0  0  0  0  0  0  0  0  0  0  0  0
   37.9590   32.0350   49.2170 C   0  0  0  0  0  0  0  0  0  0  0  0
   37.2090   31.6550   48.4660 N   0  0  0  0  0  0  0  0  0  0  0  0
   38.9240   33.6080   49.2260 S   0  0  0  0  0  0  0  0  0  0  0  0
   31.5792   28.4613   48.1903 H   0  0  0  0  0  0  0  0  0  0  0  0
   33.2352   26.5903   46.6099 H   0  0  0  0  0  0  0  0  0  0  0  0
   32.0992   26.2844   45.6056 H   0  0  0  0  0  0  0  0  0  0  0  0
   32.2932   29.2967   45.1496 H   0  0  0  0  0  0  0  0  0  0  0  0
   27.2319   27.6958   45.7295 H   0  0  0  0  0  0  0  0  0  0  0  0
   29.8334   27.1597   45.1430 H   0  0  0  0  0  0  0  0  0  0  0  0
   26.1614   27.1993   48.7562 H   0  0  0  0  0  0  0  0  0  0  0  0
   27.2297   31.2146   47.6950 H   0  0  0  0  0  0  0  0  0  0  0  0
   23.6070   30.3855   49.7685 H   0  0  0  0  0  0  0  0  0  0  0  0
   34.3721   30.0272   44.2809 H   0  0  0  0  0  0  0  0  0  0  0  0
   36.4252   30.9940   45.5779 H   0  0  0  0  0  0  0  0  0  0  0  0
   36.2833   28.7121   49.7207 H   0  0  0  0  0  0  0  0  0  0  0  0
   39.1595   33.9919   50.5199 H   0  0  0  0  0  0  0  0  0  0  0  0
  2  1  1  0
  3  2  1  0
  3 15  1  0
  3  1  1  0
  4  8  2  0
  4 10  1  0
  5  4  1  0
  6  5  2  0
  6  7  1  0
  7  1  1  0
  7  8  1  0
  9 14  2  0
 10 11  2  0
 10  9  1  0
 11 12  1  0
 12 13  2  0
 13 14  1  0
 15 19  1  0
 16 17  1  0
 16 15  2  0
 17 18  1  0
 18 19  2  0
 18 20  1  0
 20 24  1  0
 20 21  2  0
 21 22  1  0
 23 25  1  0
 23 22  1  0
 24 23  2  0
  1 26  1  1
  2 27  1  0
  2 28  1  0
  3 29  1  6
  5 30  1  0
  6 31  1  0
  9 32  1  0
 11 33  1  0
 13 34  1  0
 16 35  1  0
 17 36  1  0
 21 37  1  0
 25 38  1  0
M  ISO  8  26  13  27  13  28  13  29  13  30  14  31  14  32  14  33  14
M  ISO  5  34  14  35  14  36   9  37  14  38  11
M  END
>  <minimizedAffinity>  (1) 
-6.09112406

>  <minimizedRMSD>  (1) 
0.706241727

$$$$
