
     RDKit          3D

 27 29  0  0  0  0  0  0  0  0999 V2000
   38.3430   32.0060   48.7790 C   0  0  0  0  0  0  0  0  0  0  0  0
   38.6480   33.1520   49.4990 C   0  0  0  0  0  0  0  0  0  0  0  0
   39.4370   34.1840   49.0270 C   0  0  0  0  0  0  0  0  0  0  0  0
   39.9690   34.0690   47.7270 C   0  0  0  0  0  0  0  0  0  0  0  0
   39.6580   32.9120   47.0100 C   0  0  0  0  0  0  0  0  0  0  0  0
   38.8730   31.9100   47.5100 C   0  0  0  0  0  0  0  0  0  0  0  0
   36.1080   31.1620   49.2280 C   0  0  0  0  0  0  0  0  0  0  0  0
   37.4950   31.0450   49.4480 C   0  0  0  0  0  0  0  0  0  0  0  0
   37.9190   30.0040   50.2940 C   0  0  0  0  0  0  0  0  0  0  0  0
   36.9700   29.1900   50.8360 N   0  0  0  0  0  0  0  0  0  0  0  0
   35.6530   29.3320   50.6050 C   0  0  0  0  0  0  0  0  0  0  0  0
   35.2200   30.3310   49.7890 N   0  0  0  0  0  0  0  0  0  0  0  0
   38.5630   30.7000   46.7370 C   0  0  0  0  0  0  0  0  0  0  0  0
   38.9020   30.4930   45.3270 C   0  0  0  0  0  0  0  0  0  0  0  0
   37.4940   30.9740   45.6230 C   0  0  0  0  0  0  0  0  0  0  0  0
   38.2340   33.2456   50.5138 H   0  0  0  0  0  0  0  0  0  0  0  0
   39.6435   35.0686   49.6474 H   0  0  0  0  0  0  0  0  0  0  0  0
   40.6027   34.8577   47.2953 H   0  0  0  0  0  0  0  0  0  0  0  0
   40.0641   32.8011   45.9937 H   0  0  0  0  0  0  0  0  0  0  0  0
   35.7413   31.9650   48.5717 H   0  0  0  0  0  0  0  0  0  0  0  0
   38.9864   29.8514   50.5118 H   0  0  0  0  0  0  0  0  0  0  0  0
   34.9312   28.6458   51.0721 H   0  0  0  0  0  0  0  0  0  0  0  0
   38.7443   30.0504   47.6060 H   0  0  0  0  0  0  0  0  0  0  0  0
   39.0560   29.4701   44.9529 H   0  0  0  0  0  0  0  0  0  0  0  0
   39.7092   30.8663   44.6797 H   0  0  0  0  0  0  0  0  0  0  0  0
   37.1920   32.0032   45.3791 H   0  0  0  0  0  0  0  0  0  0  0  0
   36.4722   30.6343   45.3984 H   0  0  0  0  0  0  0  0  0  0  0  0
  1  8  1  0
  1  2  2  0
  3  2  1  0
  4  3  2  0
  5  6  2  0
  5  4  1  0
  6  1  1  0
  7  8  2  0
  7 12  1  0
  8  9  1  0
  9 10  2  0
 11 10  1  0
 12 11  2  0
 13  6  1  0
 14 15  1  0
 14 13  1  0
 15 13  1  0
  2 16  1  0
  3 17  1  0
  4 18  1  0
  5 19  1  0
  7 20  1  0
  9 21  1  0
 11 22  1  0
 13 23  1  0
 14 24  1  0
 14 25  1  0
 15 26  1  0
 15 27  1  0
M  ISO  8  16  14  17  14  18  14  19  14  20  14  21  14  22  14  23  13
M  ISO  4  24  13  25  13  26  13  27  13
M  END
>  <minimizedAffinity>  (1) 
-5.57844353

>  <minimizedRMSD>  (1) 
3.37294364

$$$$
