
     RDKit          3D

 26 27  0  0  0  0  0  0  0  0999 V2000
   38.0380   31.2580   48.0210 C   0  0  0  0  0  0  0  0  0  0  0  0
   38.3410   30.4880   46.9000 C   0  0  0  0  0  0  0  0  0  0  0  0
   39.1870   30.9090   45.8860 C   0  0  0  0  0  0  0  0  0  0  0  0
   39.7730   32.1900   45.9960 C   0  0  0  0  0  0  0  0  0  0  0  0
   39.4630   32.9360   47.1080 C   0  0  0  0  0  0  0  0  0  0  0  0
   38.6250   32.4970   48.0940 C   0  0  0  0  0  0  0  0  0  0  0  0
   37.7820   29.9660   50.0720 C   0  0  0  0  0  0  0  0  0  0  0  0
   37.1540   30.6500   48.9830 C   0  0  0  0  0  0  0  0  0  0  0  0
   35.7570   30.6490   48.9630 C   0  0  0  0  0  0  0  0  0  0  0  0
   35.0840   30.0180   49.9500 N   0  0  0  0  0  0  0  0  0  0  0  0
   35.7100   29.3750   50.9750 C   0  0  0  0  0  0  0  0  0  0  0  0
   37.0690   29.3530   51.0290 N   0  0  0  0  0  0  0  0  0  0  0  0
   38.3230   33.3750   49.2460 C   0  0  0  0  0  0  0  0  0  0  0  0
   39.5330   34.1880   49.6580 C   0  0  0  0  0  0  0  0  0  0  0  0
   37.8837   29.4912   46.8151 H   0  0  0  0  0  0  0  0  0  0  0  0
   39.3963   30.2639   45.0199 H   0  0  0  0  0  0  0  0  0  0  0  0
   40.4517   32.5757   45.2210 H   0  0  0  0  0  0  0  0  0  0  0  0
   39.9114   33.9353   47.2092 H   0  0  0  0  0  0  0  0  0  0  0  0
   38.8804   29.9422   50.1259 H   0  0  0  0  0  0  0  0  0  0  0  0
   35.2116   31.1559   48.1533 H   0  0  0  0  0  0  0  0  0  0  0  0
   35.1185   28.8753   51.7563 H   0  0  0  0  0  0  0  0  0  0  0  0
   37.5092   34.0611   48.9685 H   0  0  0  0  0  0  0  0  0  0  0  0
   38.0287   32.7406   50.0950 H   0  0  0  0  0  0  0  0  0  0  0  0
   39.5918   34.2275   50.7557 H   0  0  0  0  0  0  0  0  0  0  0  0
   40.4438   33.7179   49.2587 H   0  0  0  0  0  0  0  0  0  0  0  0
   39.4420   35.2089   49.2587 H   0  0  0  0  0  0  0  0  0  0  0  0
  1  6  1  0
  1  8  1  0
  2  1  2  0
  3  4  2  0
  3  2  1  0
  4  5  1  0
  5  6  2  0
  6 13  1  0
  7 12  2  0
  8  7  1  0
  9  8  2  0
  9 10  1  0
 10 11  2  0
 11 12  1  0
 13 14  1  0
  2 15  1  0
  3 16  1  0
  4 17  1  0
  5 18  1  0
  7 19  1  0
  9 20  1  0
 11 21  1  0
 13 22  1  0
 13 23  1  0
 14 24  1  0
 14 25  1  0
 14 26  1  0
M  ISO  8  15  14  16  14  17  14  18  14  19  14  20  14  21  14  22   8
M  ISO  4  23   8  24   8  25   8  26   8
M  END
>  <minimizedAffinity>  (1) 
-5.56809664

>  <minimizedRMSD>  (1) 
1.49263012

$$$$
