
     RDKit          3D

 21 22  0  0  0  0  0  0  0  0999 V2000
   38.4220   31.3680   47.4780 C   0  0  0  0  0  0  0  0  0  0  0  0
   38.8640   30.5230   46.4790 C   0  0  0  0  0  0  0  0  0  0  0  0
   39.7680   30.8780   45.5010 C   0  0  0  0  0  0  0  0  0  0  0  0
   40.2790   32.1900   45.5170 C   0  0  0  0  0  0  0  0  0  0  0  0
   39.8310   33.0350   46.5250 C   0  0  0  0  0  0  0  0  0  0  0  0
   38.9270   32.6500   47.4880 C   0  0  0  0  0  0  0  0  0  0  0  0
   38.0050   30.2910   49.6320 C   0  0  0  0  0  0  0  0  0  0  0  0
   37.4660   30.8070   48.4160 C   0  0  0  0  0  0  0  0  0  0  0  0
   36.0830   30.7160   48.2590 C   0  0  0  0  0  0  0  0  0  0  0  0
   35.3410   30.1600   49.2410 N   0  0  0  0  0  0  0  0  0  0  0  0
   35.8710   29.6810   50.3760 C   0  0  0  0  0  0  0  0  0  0  0  0
   37.2000   29.7500   50.5630 N   0  0  0  0  0  0  0  0  0  0  0  0
   38.4730   33.4830   48.4960 O   0  0  0  0  0  0  0  0  0  0  0  0
   38.4677   29.4970   46.4627 H   0  0  0  0  0  0  0  0  0  0  0  0
   40.0810   30.1577   44.7308 H   0  0  0  0  0  0  0  0  0  0  0  0
   41.0030   32.5319   44.7627 H   0  0  0  0  0  0  0  0  0  0  0  0
   40.2188   34.0640   46.5545 H   0  0  0  0  0  0  0  0  0  0  0  0
   39.0896   30.3362   49.8095 H   0  0  0  0  0  0  0  0  0  0  0  0
   35.6016   31.0932   47.3447 H   0  0  0  0  0  0  0  0  0  0  0  0
   35.2242   29.2360   51.1464 H   0  0  0  0  0  0  0  0  0  0  0  0
   38.8012   34.4152   48.5532 H   0  0  0  0  0  0  0  0  0  0  0  0
  1  6  1  0
  1  8  1  0
  2  1  2  0
  3  4  2  0
  3  2  1  0
  4  5  1  0
  5  6  2  0
  6 13  1  0
  7 12  2  0
  8  7  1  0
  9  8  2  0
  9 10  1  0
 10 11  2  0
 11 12  1  0
  2 14  1  0
  3 15  1  0
  4 16  1  0
  5 17  1  0
  7 18  1  0
  9 19  1  0
 11 20  1  0
 13 21  1  0
M  ISO  8  14  14  15  14  16  14  17  14  18  14  19  14  20  14  21   3
M  END
>  <minimizedAffinity>  (1) 
-5.08428478

>  <minimizedRMSD>  (1) 
1.83634436

$$$$
