
     RDKit          3D

 26 27  0  0  0  0  0  0  0  0999 V2000
   38.7530   31.2020   45.2970 C   0  0  0  0  0  0  0  0  0  0  0  0
   39.4910   32.1960   44.6720 C   0  0  0  0  0  0  0  0  0  0  0  0
   40.0730   33.2570   45.3310 C   0  0  0  0  0  0  0  0  0  0  0  0
   39.9170   33.3540   46.7190 C   0  0  0  0  0  0  0  0  0  0  0  0
   39.1780   32.3580   47.3320 C   0  0  0  0  0  0  0  0  0  0  0  0
   38.6040   31.3060   46.6690 C   0  0  0  0  0  0  0  0  0  0  0  0
   39.1500   29.1990   43.9620 C   0  0  0  0  0  0  0  0  0  0  0  0
   38.2190   30.1650   44.4390 C   0  0  0  0  0  0  0  0  0  0  0  0
   36.9010   30.0060   44.0290 C   0  0  0  0  0  0  0  0  0  0  0  0
   36.5830   28.9720   43.2220 N   0  0  0  0  0  0  0  0  0  0  0  0
   37.4720   28.0700   42.7800 C   0  0  0  0  0  0  0  0  0  0  0  0
   38.7560   28.1950   43.1590 N   0  0  0  0  0  0  0  0  0  0  0  0
   37.8720   30.3170   47.2760 O   0  0  0  0  0  0  0  0  0  0  0  0
   36.5640   31.6230   49.1530 O   0  0  0  0  0  0  0  0  0  0  0  0
   37.3690   30.3670   48.9060 P   0  0  0  0  0  0  0  0  0  0  0  0
   36.3590   29.0530   49.2400 O   0  0  0  0  0  0  0  0  0  0  0  0
   38.6880   30.3410   49.9590 O   0  0  0  0  0  0  0  0  0  0  0  0
   39.6199   32.1335   43.5814 H   0  0  0  0  0  0  0  0  0  0  0  0
   40.6490   34.0131   44.7773 H   0  0  0  0  0  0  0  0  0  0  0  0
   40.3599   34.1809   47.2934 H   0  0  0  0  0  0  0  0  0  0  0  0
   39.0427   32.4146   48.4222 H   0  0  0  0  0  0  0  0  0  0  0  0
   40.2076   29.2752   44.2548 H   0  0  0  0  0  0  0  0  0  0  0  0
   36.1263   30.7142   44.3581 H   0  0  0  0  0  0  0  0  0  0  0  0
   37.1576   27.2464   42.1221 H   0  0  0  0  0  0  0  0  0  0  0  0
   36.2742   28.9427   50.2202 H   0  0  0  0  0  0  0  0  0  0  0  0
   38.3637   30.3474   50.8944 H   0  0  0  0  0  0  0  0  0  0  0  0
  1  6  1  0
  2  1  2  0
  2  3  1  0
  3  4  2  0
  4  5  1  0
  6 13  1  0
  6  5  2  0
  7  8  2  0
  8  1  1  0
  9  8  1  0
 10  9  2  0
 11 12  2  0
 11 10  1  0
 12  7  1  0
 13 15  1  0
 15 14  2  0
 15 16  1  0
 15 17  1  0
  2 18  1  0
  3 19  1  0
  4 20  1  0
  5 21  1  0
  7 22  1  0
  9 23  1  0
 11 24  1  0
 16 25  1  0
 17 26  1  0
M  ISO  8  18  14  19  14  20  14  21  14  22  14  23  14  24  14  25   3
M  ISO  1  26   3
M  END
>  <minimizedAffinity>  (1) 
-4.78584862

>  <minimizedRMSD>  (1) 
5.18166304

$$$$
