
     RDKit          3D

 25 26  0  0  0  0  0  0  0  0999 V2000
   37.4990   31.1290   47.7050 C   0  0  0  0  0  0  0  0  0  0  0  0
   37.2350   30.7140   46.4160 C   0  0  0  0  0  0  0  0  0  0  0  0
   37.8970   31.2350   45.3080 C   0  0  0  0  0  0  0  0  0  0  0  0
   38.8860   32.2370   45.5210 C   0  0  0  0  0  0  0  0  0  0  0  0
   39.1170   32.6210   46.8170 C   0  0  0  0  0  0  0  0  0  0  0  0
   38.4710   32.1050   47.8930 C   0  0  0  0  0  0  0  0  0  0  0  0
   37.3410   29.7120   49.6690 C   0  0  0  0  0  0  0  0  0  0  0  0
   36.6760   30.5290   48.7360 C   0  0  0  0  0  0  0  0  0  0  0  0
   35.2910   30.6770   48.8970 C   0  0  0  0  0  0  0  0  0  0  0  0
   34.6650   30.0550   49.9070 N   0  0  0  0  0  0  0  0  0  0  0  0
   35.3060   29.2820   50.7890 C   0  0  0  0  0  0  0  0  0  0  0  0
   36.6360   29.1180   50.6610 N   0  0  0  0  0  0  0  0  0  0  0  0
   39.4190   33.7600   49.2560 C   0  0  0  0  0  0  0  0  0  0  0  0
   39.7590   34.3230   48.1570 O   0  0  0  0  0  0  0  0  0  0  0  0
   38.7460   32.4870   49.2090 N   0  0  0  0  0  0  0  0  0  0  0  0
   39.6810   34.3420   50.5160 O   0  0  0  0  0  0  0  0  0  0  0  0
   36.4700   29.9396   46.2574 H   0  0  0  0  0  0  0  0  0  0  0  0
   37.6620   30.8815   44.2932 H   0  0  0  0  0  0  0  0  0  0  0  0
   39.4405   32.6836   44.6825 H   0  0  0  0  0  0  0  0  0  0  0  0
   39.8751   33.3977   46.9960 H   0  0  0  0  0  0  0  0  0  0  0  0
   38.4273   29.5567   49.5930 H   0  0  0  0  0  0  0  0  0  0  0  0
   34.7187   31.3023   48.1960 H   0  0  0  0  0  0  0  0  0  0  0  0
   34.7568   28.7888   51.6046 H   0  0  0  0  0  0  0  0  0  0  0  0
   38.4991   31.9296   50.0392 H   0  0  0  0  0  0  0  0  0  0  0  0
   39.4027   33.8761   51.3440 H   0  0  0  0  0  0  0  0  0  0  0  0
  1  6  1  0
  1  8  1  0
  2  1  2  0
  3  4  2  0
  3  2  1  0
  4  5  1  0
  5  6  2  0
  6 15  1  0
  7 12  2  0
  8  9  2  0
  8  7  1  0
  9 10  1  0
 10 11  2  0
 12 11  1  0
 13 16  1  0
 14 13  2  0
 15 13  1  0
  2 17  1  0
  3 18  1  0
  4 19  1  0
  5 20  1  0
  7 21  1  0
  9 22  1  0
 11 23  1  0
 15 24  1  0
 16 25  1  0
M  ISO  8  17  14  18  14  19  14  20  14  21  14  22  14  23  14  25   3
M  END
>  <minimizedAffinity>  (1) 
-4.94826365

>  <minimizedRMSD>  (1) 
0.77536869

$$$$
