
     RDKit          3D

 37 39  0  0  0  0  0  0  0  0999 V2000
   38.2250   31.9150   47.3950 C   0  0  0  0  0  0  0  0  0  0  0  0
   38.7940   32.7890   48.2840 C   0  0  0  0  0  0  0  0  0  0  0  0
   38.3720   32.8910   49.6130 C   0  0  0  0  0  0  0  0  0  0  0  0
   37.2900   32.0200   50.0250 C   0  0  0  0  0  0  0  0  0  0  0  0
   36.7690   31.1770   49.1000 C   0  0  0  0  0  0  0  0  0  0  0  0
   37.1850   31.0920   47.8220 C   0  0  0  0  0  0  0  0  0  0  0  0
   40.0220   31.2400   45.8800 C   0  0  0  0  0  0  0  0  0  0  0  0
   38.7900   31.9190   46.0650 C   0  0  0  0  0  0  0  0  0  0  0  0
   38.2860   32.4960   44.9280 C   0  0  0  0  0  0  0  0  0  0  0  0
   38.9290   32.4060   43.7570 N   0  0  0  0  0  0  0  0  0  0  0  0
   40.0690   31.7740   43.6030 C   0  0  0  0  0  0  0  0  0  0  0  0
   40.6070   31.1970   44.6660 N   0  0  0  0  0  0  0  0  0  0  0  0
   35.1760   30.0500   47.1780 C   0  0  0  0  0  0  0  0  0  0  0  0
   34.6470   30.6540   48.1920 O   0  0  0  0  0  0  0  0  0  0  0  0
   36.5950   30.2310   46.9310 N   0  0  0  0  0  0  0  0  0  0  0  0
   34.3850   29.2680   46.3810 O   0  0  0  0  0  0  0  0  0  0  0  0
   33.0150   29.4350   46.2160 C   0  0  0  0  0  0  0  0  0  0  0  0
   32.5130   30.3360   45.4020 O   0  0  0  0  0  0  0  0  0  0  0  0
   31.9890   28.6210   46.9060 C   0  0  0  0  0  0  0  0  0  0  0  0
   32.4050   27.6810   47.8210 C   0  0  0  0  0  0  0  0  0  0  0  0
   31.4530   26.8990   48.4860 C   0  0  0  0  0  0  0  0  0  0  0  0
   30.1110   27.1270   48.1740 C   0  0  0  0  0  0  0  0  0  0  0  0
   29.6840   28.0660   47.2590 C   0  0  0  0  0  0  0  0  0  0  0  0
   30.6530   28.8160   46.6250 C   0  0  0  0  0  0  0  0  0  0  0  0
   39.6144   33.4352   47.9386 H   0  0  0  0  0  0  0  0  0  0  0  0
   38.8395   33.5992   50.3129 H   0  0  0  0  0  0  0  0  0  0  0  0
   36.9039   32.0420   51.0548 H   0  0  0  0  0  0  0  0  0  0  0  0
   35.9486   30.5157   49.4156 H   0  0  0  0  0  0  0  0  0  0  0  0
   40.5044   30.7440   46.7351 H   0  0  0  0  0  0  0  0  0  0  0  0
   37.3337   33.0442   44.9788 H   0  0  0  0  0  0  0  0  0  0  0  0
   40.5621   31.7253   42.6209 H   0  0  0  0  0  0  0  0  0  0  0  0
   37.1048   29.7630   46.1681 H   0  0  0  0  0  0  0  0  0  0  0  0
   33.4767   27.5452   48.0282 H   0  0  0  0  0  0  0  0  0  0  0  0
   31.7493   26.1377   49.2226 H   0  0  0  0  0  0  0  0  0  0  0  0
   29.3499   26.5220   48.6884 H   0  0  0  0  0  0  0  0  0  0  0  0
   28.6151   28.2111   47.0435 H   0  0  0  0  0  0  0  0  0  0  0  0
   30.3570   29.5771   45.8880 H   0  0  0  0  0  0  0  0  0  0  0  0
  1  6  1  0
  1  2  2  0
  2  3  1  0
  3  4  2  0
  5  4  1  0
  6  5  2  0
  7  8  2  0
  8  1  1  0
  9  8  1  0
 10  9  2  0
 11 10  1  0
 11 12  2  0
 12  7  1  0
 13 14  2  0
 15 13  1  0
 15  6  1  0
 16 13  1  0
 17 16  1  0
 17 19  1  0
 18 17  2  0
 19 20  2  0
 20 21  1  0
 22 21  2  0
 23 22  1  0
 24 19  1  0
 24 23  2  0
  2 25  1  0
  3 26  1  0
  4 27  1  0
  5 28  1  0
  7 29  1  0
  9 30  1  0
 11 31  1  0
 15 32  1  0
 20 33  1  0
 21 34  1  0
 22 35  1  0
 23 36  1  0
 24 37  1  0
M  ISO  8  25  14  26  14  27  14  28  14  29  14  30  14  31  14  33  14
M  ISO  4  34  14  35  14  36  14  37  14
M  END
>  <minimizedAffinity>  (1) 
-5.95202875

>  <minimizedRMSD>  (1) 
1.44550455

$$$$
