
     RDKit          3D

 34 36  0  0  0  0  0  0  0  0999 V2000
   38.2350   31.9230   47.3980 C   0  0  0  0  0  0  0  0  0  0  0  0
   38.8320   32.7650   48.2900 C   0  0  0  0  0  0  0  0  0  0  0  0
   38.4160   32.8610   49.6230 C   0  0  0  0  0  0  0  0  0  0  0  0
   37.3090   32.0140   50.0290 C   0  0  0  0  0  0  0  0  0  0  0  0
   36.7590   31.2010   49.0990 C   0  0  0  0  0  0  0  0  0  0  0  0
   37.1660   31.1190   47.8180 C   0  0  0  0  0  0  0  0  0  0  0  0
   40.0270   31.2490   45.8730 C   0  0  0  0  0  0  0  0  0  0  0  0
   38.7910   31.9240   46.0630 C   0  0  0  0  0  0  0  0  0  0  0  0
   38.2680   32.4960   44.9300 C   0  0  0  0  0  0  0  0  0  0  0  0
   38.9100   32.4020   43.7480 N   0  0  0  0  0  0  0  0  0  0  0  0
   40.0490   31.7740   43.5960 C   0  0  0  0  0  0  0  0  0  0  0  0
   40.6080   31.1970   44.6580 N   0  0  0  0  0  0  0  0  0  0  0  0
   35.1400   30.0860   47.2190 C   0  0  0  0  0  0  0  0  0  0  0  0
   34.6510   30.6440   48.2800 O   0  0  0  0  0  0  0  0  0  0  0  0
   36.5470   30.2870   46.9180 N   0  0  0  0  0  0  0  0  0  0  0  0
   34.3220   29.3270   46.4230 O   0  0  0  0  0  0  0  0  0  0  0  0
   32.9340   29.4090   46.4140 C   0  0  0  0  0  0  0  0  0  0  0  0
   32.2990   30.4150   45.8540 O   0  0  0  0  0  0  0  0  0  0  0  0
   32.0340   28.3950   46.9910 C   0  0  0  0  0  0  0  0  0  0  0  0
   32.0870   27.7460   48.1540 C   0  0  0  0  0  0  0  0  0  0  0  0
   31.1240   26.8310   48.4860 C   0  0  0  0  0  0  0  0  0  0  0  0
   30.0960   26.6490   47.5000 C   0  0  0  0  0  0  0  0  0  0  0  0
   30.6360   27.8580   46.1400 S   0  0  0  0  0  0  0  0  0  0  0  0
   39.6702   33.3908   47.9495 H   0  0  0  0  0  0  0  0  0  0  0  0
   38.9053   33.5467   50.3304 H   0  0  0  0  0  0  0  0  0  0  0  0
   36.9294   32.0330   51.0613 H   0  0  0  0  0  0  0  0  0  0  0  0
   35.9200   30.5616   49.4108 H   0  0  0  0  0  0  0  0  0  0  0  0
   40.5164   30.7622   46.7295 H   0  0  0  0  0  0  0  0  0  0  0  0
   37.3126   33.0382   44.9871 H   0  0  0  0  0  0  0  0  0  0  0  0
   40.5346   31.7241   42.6102 H   0  0  0  0  0  0  0  0  0  0  0  0
   37.0276   29.8529   46.1171 H   0  0  0  0  0  0  0  0  0  0  0  0
   32.9118   27.9473   48.8534 H   0  0  0  0  0  0  0  0  0  0  0  0
   31.1369   26.2771   49.4363 H   0  0  0  0  0  0  0  0  0  0  0  0
   29.2219   25.9817   47.5261 H   0  0  0  0  0  0  0  0  0  0  0  0
  1  6  1  0
  1  2  2  0
  2  3  1  0
  3  4  2  0
  5  4  1  0
  6  5  2  0
  7  8  2  0
  8  1  1  0
  9  8  1  0
 10  9  2  0
 11 10  1  0
 11 12  2  0
 12  7  1  0
 13 14  2  0
 15 13  1  0
 15  6  1  0
 16 13  1  0
 17 16  1  0
 17 19  1  0
 18 17  2  0
 19 20  2  0
 20 21  1  0
 22 21  2  0
 23 19  1  0
 23 22  1  0
  2 24  1  0
  3 25  1  0
  4 26  1  0
  5 27  1  0
  7 28  1  0
  9 29  1  0
 11 30  1  0
 15 31  1  0
 20 32  1  0
 21 33  1  0
 22 34  1  0
M  ISO  8  24  14  25  14  26  14  27  14  28  14  29  14  30  14  32  14
M  ISO  2  33  14  34  14
M  END
>  <minimizedAffinity>  (1) 
-5.85584021

>  <minimizedRMSD>  (1) 
1.37200916

$$$$
