
     RDKit          3D

 20 21  0  0  0  0  0  0  0  0999 V2000
   38.0130   33.1060   49.4760 C   0  0  0  0  0  0  0  0  0  0  0  0
   39.0130   33.1600   48.4820 C   0  0  0  0  0  0  0  0  0  0  0  0
   38.9700   32.1860   47.4860 C   0  0  0  0  0  0  0  0  0  0  0  0
   37.9890   31.2440   47.5130 N   0  0  0  0  0  0  0  0  0  0  0  0
   37.0440   31.2210   48.4810 C   0  0  0  0  0  0  0  0  0  0  0  0
   37.0650   32.1550   49.4570 N   0  0  0  0  0  0  0  0  0  0  0  0
   37.0840   29.1030   50.3780 F   0  0  0  0  0  0  0  0  0  0  0  0
   36.0660   29.2110   49.4870 C   0  0  0  0  0  0  0  0  0  0  0  0
   35.9820   30.2210   48.5310 C   0  0  0  0  0  0  0  0  0  0  0  0
   34.9040   30.2370   47.6730 C   0  0  0  0  0  0  0  0  0  0  0  0
   33.8960   29.2940   47.7140 C   0  0  0  0  0  0  0  0  0  0  0  0
   33.9950   28.2870   48.6800 C   0  0  0  0  0  0  0  0  0  0  0  0
   35.0660   28.2440   49.5560 C   0  0  0  0  0  0  0  0  0  0  0  0
   38.0099   33.8561   50.2806 H   0  0  0  0  0  0  0  0  0  0  0  0
   39.7921   33.9365   48.4927 H   0  0  0  0  0  0  0  0  0  0  0  0
   39.7233   32.1791   46.6845 H   0  0  0  0  0  0  0  0  0  0  0  0
   34.8436   31.0375   46.9210 H   0  0  0  0  0  0  0  0  0  0  0  0
   33.0482   29.3331   47.0143 H   0  0  0  0  0  0  0  0  0  0  0  0
   33.2107   27.5184   48.7444 H   0  0  0  0  0  0  0  0  0  0  0  0
   35.1274   27.4440   50.3085 H   0  0  0  0  0  0  0  0  0  0  0  0
  2  1  2  0
  3  4  2  0
  3  2  1  0
  4  5  1  0
  5  9  1  0
  5  6  2  0
  6  1  1  0
  8 13  2  0
  8  7  1  0
  9  8  1  0
 10 11  1  0
 10  9  2  0
 11 12  2  0
 12 13  1  0
  1 14  1  0
  2 15  1  0
  3 16  1  0
 10 17  1  0
 11 18  1  0
 12 19  1  0
 13 20  1  0
M  ISO  7  14  14  15  14  16  14  17  14  18  14  19  14  20  14
M  END
>  <minimizedAffinity>  (1) 
-5.17723465

>  <minimizedRMSD>  (1) 
3.13814116

$$$$
