
     RDKit          3D

 26 27  0  0  0  0  0  0  0  0999 V2000
   38.9090   31.7100   48.9390 F   0  0  0  0  0  0  0  0  0  0  0  0
   37.7680   31.1730   48.4440 C   0  0  0  0  0  0  0  0  0  0  0  0
   37.5200   31.0170   47.0900 C   0  0  0  0  0  0  0  0  0  0  0  0
   36.3250   30.4470   46.6800 C   0  0  0  0  0  0  0  0  0  0  0  0
   35.3600   30.0200   47.5560 C   0  0  0  0  0  0  0  0  0  0  0  0
   35.6270   30.1860   48.9260 C   0  0  0  0  0  0  0  0  0  0  0  0
   36.8220   30.7570   49.3640 C   0  0  0  0  0  0  0  0  0  0  0  0
   39.0850   32.9190   44.3900 C   0  0  0  0  0  0  0  0  0  0  0  0
   40.3750   32.3950   44.2990 C   0  0  0  0  0  0  0  0  0  0  0  0
   40.7010   31.3750   45.1800 C   0  0  0  0  0  0  0  0  0  0  0  0
   39.7750   30.9450   46.0670 N   0  0  0  0  0  0  0  0  0  0  0  0
   38.5410   31.4680   46.1330 C   0  0  0  0  0  0  0  0  0  0  0  0
   38.1950   32.4600   45.2900 N   0  0  0  0  0  0  0  0  0  0  0  0
   36.9890   30.8840   50.8460 C   0  0  0  0  0  0  0  0  0  0  0  0
   37.2690   29.5520   51.5110 C   0  0  0  0  0  0  0  0  0  0  0  0
   36.1420   30.3317   45.6015 H   0  0  0  0  0  0  0  0  0  0  0  0
   34.4210   29.5687   47.2030 H   0  0  0  0  0  0  0  0  0  0  0  0
   34.8808   29.8600   49.6655 H   0  0  0  0  0  0  0  0  0  0  0  0
   38.7871   33.7290   43.7080 H   0  0  0  0  0  0  0  0  0  0  0  0
   41.0995   32.7734   43.5628 H   0  0  0  0  0  0  0  0  0  0  0  0
   41.7024   30.9203   45.1577 H   0  0  0  0  0  0  0  0  0  0  0  0
   37.8290   31.5643   51.0500 H   0  0  0  0  0  0  0  0  0  0  0  0
   36.0463   31.2734   51.2580 H   0  0  0  0  0  0  0  0  0  0  0  0
   37.2431   29.6751   52.6038 H   0  0  0  0  0  0  0  0  0  0  0  0
   36.5047   28.8221   51.2060 H   0  0  0  0  0  0  0  0  0  0  0  0
   38.2625   29.1916   51.2060 H   0  0  0  0  0  0  0  0  0  0  0  0
  2  1  1  0
  2  7  2  0
  3  2  1  0
  4  3  2  0
  4  5  1  0
  5  6  2  0
  6  7  1  0
  7 14  1  0
  8 13  2  0
  9  8  1  0
  9 10  2  0
 10 11  1  0
 11 12  2  0
 12  3  1  0
 13 12  1  0
 14 15  1  0
  4 16  1  0
  5 17  1  0
  6 18  1  0
  8 19  1  0
  9 20  1  0
 10 21  1  0
 14 22  1  0
 14 23  1  0
 15 24  1  0
 15 25  1  0
 15 26  1  0
M  ISO  8  16  14  17  14  18  14  19  14  20  14  21  14  22   8  23   8
M  ISO  3  24   8  25   8  26   8
M  END
>  <minimizedAffinity>  (1) 
-5.66909456

>  <minimizedRMSD>  (1) 
3.26493025

$$$$
