
     RDKit          3D

 22 23  0  0  0  0  0  0  0  0999 V2000
   38.9480   31.1770   49.6970 F   0  0  0  0  0  0  0  0  0  0  0  0
   37.8010   30.8110   49.0850 C   0  0  0  0  0  0  0  0  0  0  0  0
   37.6110   30.8960   47.6990 C   0  0  0  0  0  0  0  0  0  0  0  0
   36.3960   30.4940   47.1710 C   0  0  0  0  0  0  0  0  0  0  0  0
   35.3550   30.0120   47.9400 C   0  0  0  0  0  0  0  0  0  0  0  0
   35.5650   29.9350   49.3130 C   0  0  0  0  0  0  0  0  0  0  0  0
   36.7590   30.3240   49.8740 C   0  0  0  0  0  0  0  0  0  0  0  0
   40.0110   33.2550   46.2880 C   0  0  0  0  0  0  0  0  0  0  0  0
   40.7440   32.4790   45.3730 C   0  0  0  0  0  0  0  0  0  0  0  0
   40.3990   31.1320   45.2480 C   0  0  0  0  0  0  0  0  0  0  0  0
   39.3820   30.6400   46.0120 N   0  0  0  0  0  0  0  0  0  0  0  0
   38.6950   31.4010   46.8810 C   0  0  0  0  0  0  0  0  0  0  0  0
   39.0190   32.7130   47.0120 N   0  0  0  0  0  0  0  0  0  0  0  0
   36.9580   30.2370   51.3120 C   0  0  0  0  0  0  0  0  0  0  0  0
   37.5380   29.2340   51.8290 O   0  0  0  0  0  0  0  0  0  0  0  0
   36.2523   30.5620   46.0825 H   0  0  0  0  0  0  0  0  0  0  0  0
   34.4017   29.7026   47.4867 H   0  0  0  0  0  0  0  0  0  0  0  0
   34.7615   29.5561   49.9618 H   0  0  0  0  0  0  0  0  0  0  0  0
   40.2537   34.3207   46.4123 H   0  0  0  0  0  0  0  0  0  0  0  0
   41.5589   32.9168   44.7778 H   0  0  0  0  0  0  0  0  0  0  0  0
   40.9379   30.4790   44.5457 H   0  0  0  0  0  0  0  0  0  0  0  0
   36.6011   31.0513   51.9597 H   0  0  0  0  0  0  0  0  0  0  0  0
  2  1  1  0
  2  7  2  0
  3  2  1  0
  4  3  2  0
  4  5  1  0
  5  6  2  0
  6  7  1  0
  7 14  1  0
  8 13  2  0
  9  8  1  0
 10  9  2  0
 10 11  1  0
 11 12  2  0
 12 13  1  0
 12  3  1  0
 14 15  2  0
  4 16  1  0
  5 17  1  0
  6 18  1  0
  8 19  1  0
  9 20  1  0
 10 21  1  0
 14 22  1  0
M  ISO  7  16  14  17  14  18  14  19  14  20  14  21  14  22   6
M  END
>  <minimizedAffinity>  (1) 
-5.43767071

>  <minimizedRMSD>  (1) 
2.80367565

$$$$
