
     RDKit          3D

 28 29  0  0  0  0  0  0  0  0999 V2000
   38.3100   30.2310   48.3280 F   0  0  0  0  0  0  0  0  0  0  0  0
   37.2690   30.2080   47.4720 C   0  0  0  0  0  0  0  0  0  0  0  0
   37.3010   30.7350   46.1960 C   0  0  0  0  0  0  0  0  0  0  0  0
   36.1880   30.6730   45.3740 C   0  0  0  0  0  0  0  0  0  0  0  0
   35.0090   30.0880   45.7890 C   0  0  0  0  0  0  0  0  0  0  0  0
   34.9720   29.5560   47.0760 C   0  0  0  0  0  0  0  0  0  0  0  0
   36.0710   29.6130   47.8960 C   0  0  0  0  0  0  0  0  0  0  0  0
   39.5660   33.2570   44.8120 C   0  0  0  0  0  0  0  0  0  0  0  0
   40.8300   32.6440   44.8530 C   0  0  0  0  0  0  0  0  0  0  0  0
   40.8870   31.3580   45.3620 C   0  0  0  0  0  0  0  0  0  0  0  0
   39.7570   30.7500   45.7920 N   0  0  0  0  0  0  0  0  0  0  0  0
   38.5510   31.3600   45.7420 C   0  0  0  0  0  0  0  0  0  0  0  0
   38.4720   32.6160   45.2480 N   0  0  0  0  0  0  0  0  0  0  0  0
   36.0310   29.0740   49.2020 N   0  0  0  0  0  0  0  0  0  0  0  0
   36.5070   29.7400   50.7060 S   0  0  0  0  0  0  0  0  0  0  0  0
   36.6960   31.2050   50.7100 O   0  0  0  0  0  0  0  0  0  0  0  0
   35.4760   29.3140   51.7440 O   0  0  0  0  0  0  0  0  0  0  0  0
   37.9230   28.9220   51.1610 O   0  0  0  0  0  0  0  0  0  0  0  0
   36.2454   31.1018   44.3626 H   0  0  0  0  0  0  0  0  0  0  0  0
   34.1309   30.0434   45.1280 H   0  0  0  0  0  0  0  0  0  0  0  0
   34.0481   29.0832   47.4404 H   0  0  0  0  0  0  0  0  0  0  0  0
   39.4727   34.2790   44.4159 H   0  0  0  0  0  0  0  0  0  0  0  0
   41.7325   33.1623   44.4970 H   0  0  0  0  0  0  0  0  0  0  0  0
   41.8506   30.8303   45.4170 H   0  0  0  0  0  0  0  0  0  0  0  0
   35.6510   28.1183   49.2587 H   0  0  0  0  0  0  0  0  0  0  0  0
   36.7379   31.5298   51.6443 H   0  0  0  0  0  0  0  0  0  0  0  0
   35.8404   29.4645   52.6521 H   0  0  0  0  0  0  0  0  0  0  0  0
   37.9816   28.8881   52.1487 H   0  0  0  0  0  0  0  0  0  0  0  0
  2  7  2  0
  2  1  1  0
  3  2  1  0
  4  5  1  0
  4  3  2  0
  5  6  2  0
  6  7  1  0
  7 14  1  0
  8  9  2  0
  8 13  1  0
  9 10  1  0
 10 11  2  0
 12 11  1  0
 12  3  1  0
 13 12  2  0
 14 15  1  0
 15 16  1  0
 15 18  1  0
 15 17  1  0
  4 19  1  0
  5 20  1  0
  6 21  1  0
  8 22  1  0
  9 23  1  0
 10 24  1  0
 14 25  1  0
 16 26  1  0
 17 27  1  0
 18 28  1  0
M  ISO  8  19  14  20  14  21  14  22  14  23  14  24  14  26   3  27   3
M  ISO  1  28   3
M  END
>  <minimizedAffinity>  (1) 
-5.02884626

>  <minimizedRMSD>  (1) 
3.25814676

$$$$
