
     RDKit          3D

 22 23  0  0  1  0  0  0  0  0999 V2000
   37.1410   29.8660   51.5910 C   0  0  0  0  0  0  0  0  0  0  0  0
   37.6760   30.7110   50.5920 C   0  0  0  0  0  0  0  0  0  0  0  0
   36.9020   30.9470   49.4410 C   0  0  0  0  0  0  0  0  0  0  0  0
   35.6710   30.3360   49.3650 N   0  0  0  0  0  0  0  0  0  0  0  0
   35.1990   29.5390   50.3380 C   0  0  0  0  0  0  0  0  0  0  0  0
   35.9270   29.2990   51.4540 N   0  0  0  0  0  0  0  0  0  0  0  0
   37.5060   31.0600   47.0250 C   0  0  2  0  0  0  0  0  0  0  0  0
   37.3670   31.8000   48.3600 C   0  0  2  0  0  0  0  0  0  0  0  0
   38.7670   32.3070   48.4880 C   0  0  0  0  0  0  0  0  0  0  0  0
   39.1450   32.7150   47.2210 O   0  0  0  0  0  0  0  0  0  0  0  0
   38.3540   32.0900   46.2930 C   0  0  0  0  0  0  0  0  0  0  0  0
   36.2760   30.8760   46.4150 O   0  0  0  0  0  0  0  0  0  0  0  0
   37.7286   29.6673   52.4995 H   0  0  0  0  0  0  0  0  0  0  0  0
   38.6683   31.1705   50.7110 H   0  0  0  0  0  0  0  0  0  0  0  0
   34.2078   29.0752   50.2265 H   0  0  0  0  0  0  0  0  0  0  0  0
   37.9232   30.0434   47.0749 H   0  0  0  0  0  0  0  0  0  0  0  0
   36.6023   32.5895   48.4050 H   0  0  0  0  0  0  0  0  0  0  0  0
   38.8036   33.1542   49.1886 H   0  0  0  0  0  0  0  0  0  0  0  0
   39.4414   31.5304   48.8779 H   0  0  0  0  0  0  0  0  0  0  0  0
   38.9824   31.5911   45.5405 H   0  0  0  0  0  0  0  0  0  0  0  0
   37.7128   32.8211   45.7788 H   0  0  0  0  0  0  0  0  0  0  0  0
   35.5765   30.7714   47.1077 H   0  0  0  0  0  0  0  0  0  0  0  0
  2  1  2  0
  3  2  1  0
  4  3  2  0
  4  5  1  0
  5  6  2  0
  6  1  1  0
  7 12  1  0
  7  8  1  0
  8  9  1  0
  8  3  1  0
 10  9  1  0
 11  7  1  0
 11 10  1  0
  1 13  1  0
  2 14  1  0
  5 15  1  0
  7 16  1  1
  8 17  1  6
  9 18  1  0
  9 19  1  0
 11 20  1  0
 11 21  1  0
 12 22  1  0
M  ISO  8  13  14  14  14  15  14  16  13  17  13  18  13  19  13  20  13
M  ISO  2  21  13  22   3
M  END
>  <minimizedAffinity>  (1) 
-4.58088255

>  <minimizedRMSD>  (1) 
1.42950892

$$$$
