
     RDKit          3D

 35 38  0  0  1  0  0  0  0  0999 V2000
   36.4800   30.3050   46.9560 C   0  0  2  0  0  0  0  0  0  0  0  0
   37.0120   31.2260   48.0900 C   0  0  2  0  0  0  0  0  0  0  0  0
   38.3890   31.4230   47.6080 C   0  0  0  0  0  0  0  0  0  0  0  0
   38.3130   31.5740   46.2300 O   0  0  0  0  0  0  0  0  0  0  0  0
   37.1420   31.0180   45.7820 C   0  0  0  0  0  0  0  0  0  0  0  0
   37.6600   30.0870   51.6340 C   0  0  0  0  0  0  0  0  0  0  0  0
   37.8690   30.7050   50.3730 C   0  0  0  0  0  0  0  0  0  0  0  0
   36.8510   30.6300   49.3920 C   0  0  0  0  0  0  0  0  0  0  0  0
   35.7030   29.9490   49.7280 N   0  0  0  0  0  0  0  0  0  0  0  0
   35.5380   29.3790   50.9220 C   0  0  0  0  0  0  0  0  0  0  0  0
   36.5080   29.4410   51.8820 N   0  0  0  0  0  0  0  0  0  0  0  0
   35.0900   30.3870   46.8780 O   0  0  0  0  0  0  0  0  0  0  0  0
   33.3970   29.3060   48.0060 N   0  0  0  0  0  0  0  0  0  0  0  0
   34.2350   29.3080   46.9420 C   0  0  0  0  0  0  0  0  0  0  0  0
   33.9740   28.1920   46.2200 N   0  0  0  0  0  0  0  0  0  0  0  0
   32.9780   27.4970   46.8280 C   0  0  0  0  0  0  0  0  0  0  0  0
   32.3740   26.2970   46.4590 C   0  0  0  0  0  0  0  0  0  0  0  0
   31.3810   25.8020   47.2520 N   0  0  0  0  0  0  0  0  0  0  0  0
   31.0250   26.5030   48.3680 C   0  0  0  0  0  0  0  0  0  0  0  0
   31.6340   27.6570   48.6850 N   0  0  0  0  0  0  0  0  0  0  0  0
   32.6200   28.2080   47.9540 C   0  0  0  0  0  0  0  0  0  0  0  0
   32.8190   25.6470   45.2780 N   0  0  0  0  0  0  0  0  0  0  0  0
   36.6918   29.2296   47.0488 H   0  0  0  0  0  0  0  0  0  0  0  0
   36.4866   32.1778   48.2572 H   0  0  0  0  0  0  0  0  0  0  0  0
   38.8249   32.3240   48.0644 H   0  0  0  0  0  0  0  0  0  0  0  0
   39.0278   30.5689   47.8772 H   0  0  0  0  0  0  0  0  0  0  0  0
   36.4764   31.8063   45.4005 H   0  0  0  0  0  0  0  0  0  0  0  0
   37.3436   30.3069   44.9673 H   0  0  0  0  0  0  0  0  0  0  0  0
   38.4405   30.1369   52.4075 H   0  0  0  0  0  0  0  0  0  0  0  0
   38.8093   31.2350   50.1611 H   0  0  0  0  0  0  0  0  0  0  0  0
   34.6000   28.8470   51.1389 H   0  0  0  0  0  0  0  0  0  0  0  0
   33.3601   30.0294   48.7383 H   0  0  0  0  0  0  0  0  0  0  0  0
   30.2264   26.1163   49.0181 H   0  0  0  0  0  0  0  0  0  0  0  0
   32.3874   24.7588   44.9852 H   0  0  0  0  0  0  0  0  0  0  0  0
   33.5734   26.0636   44.7139 H   0  0  0  0  0  0  0  0  0  0  0  0
  1  2  1  0
  2  8  1  0
  3  2  1  0
  4  3  1  0
  5  4  1  0
  5  1  1  0
  6 11  2  0
  7  6  1  0
  8  9  1  0
  8  7  2  0
  9 10  2  0
 10 11  1  0
 12 14  1  0
 12  1  1  0
 14 13  1  0
 15 16  1  0
 15 14  2  0
 16 21  2  0
 17 16  1  0
 17 18  2  0
 18 19  1  0
 19 20  2  0
 21 13  1  0
 21 20  1  0
 22 17  1  0
  1 23  1  1
  2 24  1  1
  3 25  1  0
  3 26  1  0
  5 27  1  0
  5 28  1  0
  6 29  1  0
  7 30  1  0
 10 31  1  0
 13 32  1  0
 19 33  1  0
 22 34  1  0
 22 35  1  0
M  ISO  8  23  13  24  13  25  13  26  13  27  13  28  13  29  14  30  14
M  ISO  3  31  14  32   9  33  14
M  END
>  <minimizedAffinity>  (1) 
-5.06880665

>  <minimizedRMSD>  (1) 
2.12718248

$$$$
