
     RDKit          3D

 32 34  0  0  1  0  0  0  0  0999 V2000
   37.4690   31.0710   47.0130 C   0  0  2  0  0  0  0  0  0  0  0  0
   37.4130   31.7980   48.3860 C   0  0  2  0  0  0  0  0  0  0  0  0
   38.8220   32.2190   48.4680 C   0  0  0  0  0  0  0  0  0  0  0  0
   39.1580   32.6770   47.1970 O   0  0  0  0  0  0  0  0  0  0  0  0
   38.3350   32.0910   46.2810 C   0  0  0  0  0  0  0  0  0  0  0  0
   37.1540   29.8180   51.5840 C   0  0  0  0  0  0  0  0  0  0  0  0
   37.6830   30.6660   50.5780 C   0  0  0  0  0  0  0  0  0  0  0  0
   36.9090   30.9540   49.4340 C   0  0  0  0  0  0  0  0  0  0  0  0
   35.6610   30.3830   49.3620 N   0  0  0  0  0  0  0  0  0  0  0  0
   35.1860   29.5870   50.3230 C   0  0  0  0  0  0  0  0  0  0  0  0
   35.9140   29.2950   51.4370 N   0  0  0  0  0  0  0  0  0  0  0  0
   36.1980   31.0000   46.4440 O   0  0  0  0  0  0  0  0  0  0  0  0
   35.8030   30.0750   45.5060 C   0  0  0  0  0  0  0  0  0  0  0  0
   34.6840   29.3610   45.9150 C   0  0  0  0  0  0  0  0  0  0  0  0
   34.1230   28.3730   45.1020 C   0  0  0  0  0  0  0  0  0  0  0  0
   34.7180   28.1260   43.8740 C   0  0  0  0  0  0  0  0  0  0  0  0
   35.8350   28.8280   43.4500 C   0  0  0  0  0  0  0  0  0  0  0  0
   36.3540   29.7950   44.2850 C   0  0  0  0  0  0  0  0  0  0  0  0
   37.8322   30.0327   47.0176 H   0  0  0  0  0  0  0  0  0  0  0  0
   36.7115   32.6385   48.4933 H   0  0  0  0  0  0  0  0  0  0  0  0
   38.9382   33.0245   49.2081 H   0  0  0  0  0  0  0  0  0  0  0  0
   39.4732   31.3907   48.7840 H   0  0  0  0  0  0  0  0  0  0  0  0
   38.9344   31.5866   45.5088 H   0  0  0  0  0  0  0  0  0  0  0  0
   37.7044   32.8486   45.7927 H   0  0  0  0  0  0  0  0  0  0  0  0
   37.7486   29.5862   52.4799 H   0  0  0  0  0  0  0  0  0  0  0  0
   38.6894   31.0961   50.6887 H   0  0  0  0  0  0  0  0  0  0  0  0
   34.1802   29.1555   50.2124 H   0  0  0  0  0  0  0  0  0  0  0  0
   34.2324   29.5769   46.8945 H   0  0  0  0  0  0  0  0  0  0  0  0
   33.2364   27.8083   45.4261 H   0  0  0  0  0  0  0  0  0  0  0  0
   34.2918   27.3520   43.2188 H   0  0  0  0  0  0  0  0  0  0  0  0
   36.2956   28.6194   42.4731 H   0  0  0  0  0  0  0  0  0  0  0  0
   37.2399   30.3598   43.9590 H   0  0  0  0  0  0  0  0  0  0  0  0
  1  2  1  0
  2  3  1  0
  2  8  1  0
  4  3  1  0
  5  1  1  0
  5  4  1  0
  7  6  2  0
  8  7  1  0
  9  8  2  0
  9 10  1  0
 10 11  2  0
 11  6  1  0
 12  1  1  0
 13 14  2  0
 13 12  1  0
 15 14  1  0
 16 15  2  0
 17 16  1  0
 17 18  2  0
 18 13  1  0
  1 19  1  1
  2 20  1  6
  3 21  1  0
  3 22  1  0
  5 23  1  0
  5 24  1  0
  6 25  1  0
  7 26  1  0
 10 27  1  0
 14 28  1  0
 15 29  1  0
 16 30  1  0
 17 31  1  0
 18 32  1  0
M  ISO  8  19  13  20  13  21  13  22  13  23  13  24  13  25  14  26  14
M  ISO  6  27  14  28  14  29  14  30  14  31  14  32  14
M  END
>  <minimizedAffinity>  (1) 
-4.55288792

>  <minimizedRMSD>  (1) 
0.854377687

$$$$
