
     RDKit          3D

 38 40  0  0  1  0  0  0  0  0999 V2000
   37.4640   31.1200   47.0430 C   0  0  2  0  0  0  0  0  0  0  0  0
   37.4350   31.8220   48.4020 C   0  0  2  0  0  0  0  0  0  0  0  0
   38.8380   32.2590   48.5180 C   0  0  0  0  0  0  0  0  0  0  0  0
   39.2210   32.6690   47.2450 O   0  0  0  0  0  0  0  0  0  0  0  0
   38.3530   32.1540   46.3250 C   0  0  0  0  0  0  0  0  0  0  0  0
   37.1400   29.7910   51.5770 C   0  0  0  0  0  0  0  0  0  0  0  0
   37.7160   30.6470   50.6050 C   0  0  0  0  0  0  0  0  0  0  0  0
   36.9330   30.9710   49.4650 C   0  0  0  0  0  0  0  0  0  0  0  0
   35.6660   30.4340   49.3750 N   0  0  0  0  0  0  0  0  0  0  0  0
   35.1650   29.6330   50.3110 C   0  0  0  0  0  0  0  0  0  0  0  0
   35.8900   29.3030   51.4170 N   0  0  0  0  0  0  0  0  0  0  0  0
   36.2280   31.0620   46.4490 O   0  0  0  0  0  0  0  0  0  0  0  0
   35.9630   29.9450   45.6990 C   0  0  0  0  0  0  0  0  0  0  0  0
   34.5910   29.4280   46.0220 C   0  0  0  0  0  0  0  0  0  0  0  0
   33.8820   28.8690   44.7830 C   0  0  0  0  0  0  0  0  0  0  0  0
   34.8880   28.1130   43.9570 C   0  0  0  0  0  0  0  0  0  0  0  0
   35.8700   29.1040   43.3810 C   0  0  0  0  0  0  0  0  0  0  0  0
   35.8950   30.3580   44.2100 C   0  0  0  0  0  0  0  0  0  0  0  0
   37.7945   30.0709   47.0530 H   0  0  0  0  0  0  0  0  0  0  0  0
   36.7324   32.6639   48.4887 H   0  0  0  0  0  0  0  0  0  0  0  0
   38.9201   33.0944   49.2289 H   0  0  0  0  0  0  0  0  0  0  0  0
   39.4819   31.4483   48.8898 H   0  0  0  0  0  0  0  0  0  0  0  0
   38.9135   31.6664   45.5137 H   0  0  0  0  0  0  0  0  0  0  0  0
   37.7364   32.9537   45.8888 H   0  0  0  0  0  0  0  0  0  0  0  0
   37.7179   29.5205   52.4730 H   0  0  0  0  0  0  0  0  0  0  0  0
   38.7334   31.0463   50.7292 H   0  0  0  0  0  0  0  0  0  0  0  0
   34.1486   29.2301   50.1906 H   0  0  0  0  0  0  0  0  0  0  0  0
   36.7411   29.1947   45.9032 H   0  0  0  0  0  0  0  0  0  0  0  0
   34.6803   28.6278   46.7715 H   0  0  0  0  0  0  0  0  0  0  0  0
   33.9930   30.2676   46.4060 H   0  0  0  0  0  0  0  0  0  0  0  0
   33.0724   28.1918   45.0928 H   0  0  0  0  0  0  0  0  0  0  0  0
   33.4512   29.6910   44.1925 H   0  0  0  0  0  0  0  0  0  0  0  0
   35.4198   27.3880   44.5907 H   0  0  0  0  0  0  0  0  0  0  0  0
   34.3805   27.5685   43.1471 H   0  0  0  0  0  0  0  0  0  0  0  0
   36.8744   28.6555   43.3715 H   0  0  0  0  0  0  0  0  0  0  0  0
   35.5607   29.3591   42.3567 H   0  0  0  0  0  0  0  0  0  0  0  0
   36.7775   30.9606   43.9490 H   0  0  0  0  0  0  0  0  0  0  0  0
   34.9935   30.9593   44.0209 H   0  0  0  0  0  0  0  0  0  0  0  0
  1  2  1  0
  2  3  1  0
  2  8  1  0
  4  3  1  0
  5  1  1  0
  5  4  1  0
  7  6  2  0
  8  7  1  0
  9  8  2  0
  9 10  1  0
 10 11  2  0
 11  6  1  0
 12  1  1  0
 13 14  1  0
 13 12  1  0
 15 14  1  0
 16 15  1  0
 17 16  1  0
 17 18  1  0
 18 13  1  0
  1 19  1  1
  2 20  1  6
  3 21  1  0
  3 22  1  0
  5 23  1  0
  5 24  1  0
  6 25  1  0
  7 26  1  0
 10 27  1  0
 13 28  1  0
 14 29  1  0
 14 30  1  0
 15 31  1  0
 15 32  1  0
 16 33  1  0
 16 34  1  0
 17 35  1  0
 17 36  1  0
 18 37  1  0
 18 38  1  0
M  ISO  8  19  13  20  13  21  13  22  13  23  13  24  13  25  14  26  14
M  ISO  8  27  14  28  13  29  13  30  13  31  13  32  13  33  13  34  13
M  ISO  4  35  13  36  13  37  13  38  13
M  END
>  <minimizedAffinity>  (1) 
-4.4128685

>  <minimizedRMSD>  (1) 
1.10654473

$$$$
