
     RDKit          3D

 45 49  0  0  1  0  0  0  0  0999 V2000
   40.6760   32.0320   44.5350 Cl  0  0  0  0  0  0  0  0  0  0  0  0
   39.1450   31.1950   44.4120 C   0  0  0  0  0  0  0  0  0  0  0  0
   38.2340   31.5300   45.4060 C   0  0  0  0  0  0  0  0  0  0  0  0
   37.0180   30.8790   45.3160 C   0  0  0  0  0  0  0  0  0  0  0  0
   36.7390   29.9680   44.3140 C   0  0  0  0  0  0  0  0  0  0  0  0
   37.6800   29.6810   43.3630 C   0  0  0  0  0  0  0  0  0  0  0  0
   38.8970   30.3010   43.4120 C   0  0  0  0  0  0  0  0  0  0  0  0
   41.0160   29.1700   42.4710 C   0  0  0  0  0  0  0  0  0  0  0  0
   39.9450   30.0370   42.4280 C   0  0  0  0  0  0  0  0  0  0  0  0
   39.7570   30.8330   41.2940 C   0  0  0  0  0  0  0  0  0  0  0  0
   40.6210   30.7700   40.2130 C   0  0  0  0  0  0  0  0  0  0  0  0
   40.7350   31.3660   39.0110 N   0  0  0  0  0  0  0  0  0  0  0  0
   41.8230   30.8880   38.3490 C   0  0  0  0  0  0  0  0  0  0  0  0
   42.4060   29.9840   39.1310 N   0  0  0  0  0  0  0  0  0  0  0  0
   41.6930   29.8880   40.2790 C   0  0  0  0  0  0  0  0  0  0  0  0
   41.8730   29.1090   41.3950 C   0  0  0  0  0  0  0  0  0  0  0  0
   38.2900   32.3730   46.4580 O   0  0  0  0  0  0  0  0  0  0  0  0
   38.9430   32.4480   47.6410 C   0  0  2  0  0  0  0  0  0  0  0  0
   37.9640   32.6230   48.8480 C   0  0  2  0  0  0  0  0  0  0  0  0
   38.8220   33.3140   49.7960 C   0  0  0  0  0  0  0  0  0  0  0  0
   39.6600   34.1670   49.0890 O   0  0  0  0  0  0  0  0  0  0  0  0
   39.5770   33.8630   47.7650 C   0  0  0  0  0  0  0  0  0  0  0  0
   37.3410   29.3090   50.5120 C   0  0  0  0  0  0  0  0  0  0  0  0
   37.9920   30.5280   50.1800 C   0  0  0  0  0  0  0  0  0  0  0  0
   37.3490   31.3820   49.2350 C   0  0  0  0  0  0  0  0  0  0  0  0
   36.1450   30.9920   48.6940 N   0  0  0  0  0  0  0  0  0  0  0  0
   35.5740   29.8340   49.0410 C   0  0  0  0  0  0  0  0  0  0  0  0
   36.1490   28.9880   49.9380 N   0  0  0  0  0  0  0  0  0  0  0  0
   36.2447   31.0933   46.0684 H   0  0  0  0  0  0  0  0  0  0  0  0
   35.7575   29.4724   44.2813 H   0  0  0  0  0  0  0  0  0  0  0  0
   37.4587   28.9568   42.5651 H   0  0  0  0  0  0  0  0  0  0  0  0
   41.1838   28.5351   43.3535 H   0  0  0  0  0  0  0  0  0  0  0  0
   38.9030   31.5255   41.2594 H   0  0  0  0  0  0  0  0  0  0  0  0
   40.0906   32.0814   38.6451 H   0  0  0  0  0  0  0  0  0  0  0  0
   42.1598   31.1940   37.3475 H   0  0  0  0  0  0  0  0  0  0  0  0
   42.7265   28.4160   41.4306 H   0  0  0  0  0  0  0  0  0  0  0  0
   39.5888   31.5578   47.6619 H   0  0  0  0  0  0  0  0  0  0  0  0
   37.0464   33.2041   48.6739 H   0  0  0  0  0  0  0  0  0  0  0  0
   38.2067   33.8957   50.4982 H   0  0  0  0  0  0  0  0  0  0  0  0
   39.4179   32.5861   50.3662 H   0  0  0  0  0  0  0  0  0  0  0  0
   40.5817   33.8634   47.3172 H   0  0  0  0  0  0  0  0  0  0  0  0
   38.9621   34.6072   47.2377 H   0  0  0  0  0  0  0  0  0  0  0  0
   37.8025   28.6216   51.2362 H   0  0  0  0  0  0  0  0  0  0  0  0
   38.9553   30.8027   50.6345 H   0  0  0  0  0  0  0  0  0  0  0  0
   34.6107   29.5570   48.5878 H   0  0  0  0  0  0  0  0  0  0  0  0
  2  1  1  0
  2  3  2  0
  3 17  1  0
  4  3  1  0
  5  4  2  0
  6  7  2  0
  6  5  1  0
  7  2  1  0
  9  8  2  0
  9  7  1  0
 10  9  1  0
 11 15  1  0
 11 10  2  0
 12 11  1  0
 13 12  1  0
 13 14  2  0
 14 15  1  0
 15 16  2  0
 16  8  1  0
 17 18  1  0
 18 22  1  0
 18 19  1  0
 19 25  1  0
 19 20  1  0
 21 20  1  0
 22 21  1  0
 24 23  2  0
 25 24  1  0
 26 27  1  0
 26 25  2  0
 27 28  2  0
 28 23  1  0
  4 29  1  0
  5 30  1  0
  6 31  1  0
  8 32  1  0
 10 33  1  0
 12 34  1  0
 13 35  1  0
 16 36  1  0
 18 37  1  1
 19 38  1  6
 20 39  1  0
 20 40  1  0
 22 41  1  0
 22 42  1  0
 23 43  1  0
 24 44  1  0
 27 45  1  0
M  ISO  8  29  14  30  14  31  14  32  14  33  14  34   9  35  14  36  14
M  ISO  8  37  13  38  13  39  13  40  13  41  13  42  13  43  14  44  14
M  ISO  1  45  14
M  END
>  <minimizedAffinity>  (1) 
-6.54841614

>  <minimizedRMSD>  (1) 
1.42816603

$$$$
