
     RDKit          3D

 45 49  0  0  1  0  0  0  0  0999 V2000
   40.7390   31.9240   44.5990 Cl  0  0  0  0  0  0  0  0  0  0  0  0
   39.1950   31.1380   44.4190 C   0  0  0  0  0  0  0  0  0  0  0  0
   38.2600   31.5080   45.3750 C   0  0  0  0  0  0  0  0  0  0  0  0
   37.0270   30.8860   45.2370 C   0  0  0  0  0  0  0  0  0  0  0  0
   36.7490   29.9780   44.2410 C   0  0  0  0  0  0  0  0  0  0  0  0
   37.7310   29.6600   43.3250 C   0  0  0  0  0  0  0  0  0  0  0  0
   38.9660   30.2390   43.4080 C   0  0  0  0  0  0  0  0  0  0  0  0
   40.0260   29.9670   42.5100 N   0  0  0  0  0  0  0  0  0  0  0  0
   41.0310   29.1120   42.7400 C   0  0  0  0  0  0  0  0  0  0  0  0
   41.8740   29.0790   41.6930 N   0  0  0  0  0  0  0  0  0  0  0  0
   41.4300   29.9260   40.7410 C   0  0  0  0  0  0  0  0  0  0  0  0
   41.8350   30.3250   39.4840 C   0  0  0  0  0  0  0  0  0  0  0  0
   41.1080   31.2350   38.7880 N   0  0  0  0  0  0  0  0  0  0  0  0
   39.9740   31.7650   39.3160 C   0  0  0  0  0  0  0  0  0  0  0  0
   39.5830   31.3690   40.5470 N   0  0  0  0  0  0  0  0  0  0  0  0
   40.2730   30.4690   41.2740 C   0  0  0  0  0  0  0  0  0  0  0  0
   43.0280   29.7480   38.9650 N   0  0  0  0  0  0  0  0  0  0  0  0
   38.2910   32.3540   46.4230 O   0  0  0  0  0  0  0  0  0  0  0  0
   38.9460   32.4410   47.6030 C   0  0  2  0  0  0  0  0  0  0  0  0
   37.9610   32.6210   48.8080 C   0  0  2  0  0  0  0  0  0  0  0  0
   38.8180   33.3190   49.7550 C   0  0  0  0  0  0  0  0  0  0  0  0
   39.6440   34.1750   49.0430 O   0  0  0  0  0  0  0  0  0  0  0  0
   39.5710   33.8570   47.7320 C   0  0  0  0  0  0  0  0  0  0  0  0
   37.3470   29.3160   50.5030 C   0  0  0  0  0  0  0  0  0  0  0  0
   37.9970   30.5380   50.1620 C   0  0  0  0  0  0  0  0  0  0  0  0
   37.3550   31.3770   49.2030 C   0  0  0  0  0  0  0  0  0  0  0  0
   36.1530   30.9800   48.6500 N   0  0  0  0  0  0  0  0  0  0  0  0
   35.5900   29.8180   49.0100 C   0  0  0  0  0  0  0  0  0  0  0  0
   36.1650   28.9840   49.9220 N   0  0  0  0  0  0  0  0  0  0  0  0
   36.2336   31.1306   45.9586 H   0  0  0  0  0  0  0  0  0  0  0  0
   35.7552   29.5109   44.1757 H   0  0  0  0  0  0  0  0  0  0  0  0
   37.5185   28.9367   42.5239 H   0  0  0  0  0  0  0  0  0  0  0  0
   41.1503   28.5187   43.6586 H   0  0  0  0  0  0  0  0  0  0  0  0
   39.3850   32.5030   38.7516 H   0  0  0  0  0  0  0  0  0  0  0  0
   43.3663   30.0179   38.0303 H   0  0  0  0  0  0  0  0  0  0  0  0
   43.5531   29.0606   39.5241 H   0  0  0  0  0  0  0  0  0  0  0  0
   39.5994   31.5563   47.6217 H   0  0  0  0  0  0  0  0  0  0  0  0
   37.0419   33.1978   48.6279 H   0  0  0  0  0  0  0  0  0  0  0  0
   38.2014   33.8968   50.4593 H   0  0  0  0  0  0  0  0  0  0  0  0
   39.4206   32.5970   50.3255 H   0  0  0  0  0  0  0  0  0  0  0  0
   40.5796   33.8589   47.2929 H   0  0  0  0  0  0  0  0  0  0  0  0
   38.9507   34.5929   47.1994 H   0  0  0  0  0  0  0  0  0  0  0  0
   37.8045   28.6392   51.2396 H   0  0  0  0  0  0  0  0  0  0  0  0
   38.9556   30.8229   50.6201 H   0  0  0  0  0  0  0  0  0  0  0  0
   34.6319   29.5278   48.5542 H   0  0  0  0  0  0  0  0  0  0  0  0
  2  1  1  0
  2  3  2  0
  3 18  1  0
  4  3  1  0
  5  4  2  0
  6  7  2  0
  6  5  1  0
  7  2  1  0
  8  9  1  0
  8  7  1  0
 10  9  2  0
 11 16  2  0
 11 10  1  0
 12 11  1  0
 13 14  1  0
 13 12  2  0
 14 15  2  0
 15 16  1  0
 16  8  1  0
 17 12  1  0
 18 19  1  0
 19 23  1  0
 19 20  1  0
 20 26  1  0
 20 21  1  0
 22 21  1  0
 23 22  1  0
 25 24  2  0
 26 25  1  0
 27 28  1  0
 27 26  2  0
 28 29  2  0
 29 24  1  0
  4 30  1  0
  5 31  1  0
  6 32  1  0
  9 33  1  0
 14 34  1  0
 17 35  1  0
 17 36  1  0
 19 37  1  1
 20 38  1  6
 21 39  1  0
 21 40  1  0
 23 41  1  0
 23 42  1  0
 24 43  1  0
 25 44  1  0
 28 45  1  0
M  ISO  8  30  14  31  14  32  14  33  14  34  14  37  13  38  13  39  13
M  ISO  6  40  13  41  13  42  13  43  14  44  14  45  14
M  END
>  <minimizedAffinity>  (1) 
-6.52534962

>  <minimizedRMSD>  (1) 
1.05700898

$$$$
