
     RDKit          3D

 42 45  0  0  1  0  0  0  0  0999 V2000
   38.9050   32.4860   47.6690 C   0  0  2  0  0  0  0  0  0  0  0  0
   38.0520   32.7680   48.9490 C   0  0  2  0  0  0  0  0  0  0  0  0
   39.0220   33.4600   49.7750 C   0  0  0  0  0  0  0  0  0  0  0  0
   39.8330   34.2300   48.9540 O   0  0  0  0  0  0  0  0  0  0  0  0
   39.6250   33.8590   47.6660 C   0  0  0  0  0  0  0  0  0  0  0  0
   37.3790   29.6330   50.9150 C   0  0  0  0  0  0  0  0  0  0  0  0
   38.0540   30.8010   50.4650 C   0  0  0  0  0  0  0  0  0  0  0  0
   37.4160   31.5810   49.4560 C   0  0  0  0  0  0  0  0  0  0  0  0
   36.1840   31.1820   48.9590 N   0  0  0  0  0  0  0  0  0  0  0  0
   35.6000   30.0700   49.4270 C   0  0  0  0  0  0  0  0  0  0  0  0
   36.1700   29.2940   50.3870 N   0  0  0  0  0  0  0  0  0  0  0  0
   38.1410   32.3870   46.5560 O   0  0  0  0  0  0  0  0  0  0  0  0
   40.3920   32.2590   44.4480 Cl  0  0  0  0  0  0  0  0  0  0  0  0
   38.9190   31.3300   44.4050 C   0  0  0  0  0  0  0  0  0  0  0  0
   38.0700   31.5760   45.4750 C   0  0  0  0  0  0  0  0  0  0  0  0
   36.8880   30.8500   45.4610 C   0  0  0  0  0  0  0  0  0  0  0  0
   36.5860   29.9510   44.4530 C   0  0  0  0  0  0  0  0  0  0  0  0
   37.4660   29.7530   43.4260 C   0  0  0  0  0  0  0  0  0  0  0  0
   38.6440   30.4480   43.4010 C   0  0  0  0  0  0  0  0  0  0  0  0
   38.6920   32.4110   41.0650 Cl  0  0  0  0  0  0  0  0  0  0  0  0
   39.8460   31.1060   41.2430 C   0  0  0  0  0  0  0  0  0  0  0  0
   39.6630   30.3260   42.3610 C   0  0  0  0  0  0  0  0  0  0  0  0
   40.5210   29.2530   42.6120 C   0  0  0  0  0  0  0  0  0  0  0  0
   41.5670   28.9590   41.7430 C   0  0  0  0  0  0  0  0  0  0  0  0
   41.7350   29.7620   40.6140 C   0  0  0  0  0  0  0  0  0  0  0  0
   40.8780   30.8180   40.3800 C   0  0  0  0  0  0  0  0  0  0  0  0
   39.5046   31.5638   47.6743 H   0  0  0  0  0  0  0  0  0  0  0  0
   37.1493   33.3849   48.8280 H   0  0  0  0  0  0  0  0  0  0  0  0
   38.5007   34.1085   50.4945 H   0  0  0  0  0  0  0  0  0  0  0  0
   39.6318   32.7313   50.3292 H   0  0  0  0  0  0  0  0  0  0  0  0
   40.5887   33.7732   47.1427 H   0  0  0  0  0  0  0  0  0  0  0  0
   39.0101   34.6099   47.1483 H   0  0  0  0  0  0  0  0  0  0  0  0
   37.8346   29.0014   51.6918 H   0  0  0  0  0  0  0  0  0  0  0  0
   39.0307   31.0916   50.8793 H   0  0  0  0  0  0  0  0  0  0  0  0
   34.6224   29.7740   49.0189 H   0  0  0  0  0  0  0  0  0  0  0  0
   36.1664   30.9937   46.2787 H   0  0  0  0  0  0  0  0  0  0  0  0
   35.6370   29.3954   44.4784 H   0  0  0  0  0  0  0  0  0  0  0  0
   37.2282   29.0387   42.6240 H   0  0  0  0  0  0  0  0  0  0  0  0
   40.3679   28.6329   43.5075 H   0  0  0  0  0  0  0  0  0  0  0  0
   42.2443   28.1151   41.9408 H   0  0  0  0  0  0  0  0  0  0  0  0
   42.5528   29.5526   39.9087 H   0  0  0  0  0  0  0  0  0  0  0  0
   41.0229   31.4419   39.4857 H   0  0  0  0  0  0  0  0  0  0  0  0
  1  2  1  0
  2  8  1  0
  2  3  1  0
  4  3  1  0
  5  1  1  0
  5  4  1  0
  7  6  2  0
  8  7  1  0
  9 10  1  0
  9  8  2  0
 10 11  2  0
 11  6  1  0
 12  1  1  0
 14 13  1  0
 14 15  2  0
 15 12  1  0
 16 15  1  0
 17 16  2  0
 18 17  1  0
 19 18  2  0
 19 14  1  0
 20 21  1  0
 21 22  2  0
 22 23  1  0
 22 19  1  0
 24 23  2  0
 25 24  1  0
 26 25  2  0
 26 21  1  0
  1 27  1  1
  2 28  1  6
  3 29  1  0
  3 30  1  0
  5 31  1  0
  5 32  1  0
  6 33  1  0
  7 34  1  0
 10 35  1  0
 16 36  1  0
 17 37  1  0
 18 38  1  0
 23 39  1  0
 24 40  1  0
 25 41  1  0
 26 42  1  0
M  ISO  8  27  13  28  13  29  13  30  13  31  13  32  13  33  14  34  14
M  ISO  8  35  14  36  14  37  14  38  14  39  14  40  14  41  14  42  14
M  END
>  <minimizedAffinity>  (1) 
-6.36874771

>  <minimizedRMSD>  (1) 
1.26089025

$$$$
