
     RDKit          3D

 38 41  0  0  1  0  0  0  0  0999 V2000
   38.9640   32.4930   47.6510 C   0  0  2  0  0  0  0  0  0  0  0  0
   38.0790   32.7920   48.9050 C   0  0  2  0  0  0  0  0  0  0  0  0
   39.0340   33.4940   49.7470 C   0  0  0  0  0  0  0  0  0  0  0  0
   39.8280   34.2780   48.9240 O   0  0  0  0  0  0  0  0  0  0  0  0
   39.6830   33.8640   47.6420 C   0  0  0  0  0  0  0  0  0  0  0  0
   37.3860   29.6700   50.8870 C   0  0  0  0  0  0  0  0  0  0  0  0
   38.0640   30.8320   50.4280 C   0  0  0  0  0  0  0  0  0  0  0  0
   37.4350   31.6040   49.4180 C   0  0  0  0  0  0  0  0  0  0  0  0
   36.2160   31.2020   48.9330 N   0  0  0  0  0  0  0  0  0  0  0  0
   35.6140   30.1010   49.3950 C   0  0  0  0  0  0  0  0  0  0  0  0
   36.1870   29.3300   50.3670 N   0  0  0  0  0  0  0  0  0  0  0  0
   38.2160   32.3710   46.5200 O   0  0  0  0  0  0  0  0  0  0  0  0
   40.5790   31.9590   44.5650 Cl  0  0  0  0  0  0  0  0  0  0  0  0
   39.0510   31.1390   44.4780 C   0  0  0  0  0  0  0  0  0  0  0  0
   38.1630   31.5100   45.4780 C   0  0  0  0  0  0  0  0  0  0  0  0
   36.9340   30.8700   45.4240 C   0  0  0  0  0  0  0  0  0  0  0  0
   36.6100   29.9310   44.4520 C   0  0  0  0  0  0  0  0  0  0  0  0
   37.5370   29.6170   43.5000 C   0  0  0  0  0  0  0  0  0  0  0  0
   38.7550   30.2230   43.5190 C   0  0  0  0  0  0  0  0  0  0  0  0
   39.8360   29.9830   42.5630 C   0  0  0  0  0  0  0  0  0  0  0  0
   39.7930   30.7810   41.3580 C   0  0  0  0  0  0  0  0  0  0  0  0
   41.2920   30.2480   40.3470 S   0  0  0  0  0  0  0  0  0  0  0  0
   41.7050   29.0370   41.7460 C   0  0  0  0  0  0  0  0  0  0  0  0
   40.8900   29.2030   42.4920 N   0  0  0  0  0  0  0  0  0  0  0  0
   39.5693   31.5751   47.6832 H   0  0  0  0  0  0  0  0  0  0  0  0
   37.1791   33.4059   48.7521 H   0  0  0  0  0  0  0  0  0  0  0  0
   38.5002   34.1301   50.4684 H   0  0  0  0  0  0  0  0  0  0  0  0
   39.6518   32.7771   50.3077 H   0  0  0  0  0  0  0  0  0  0  0  0
   40.6714   33.7623   47.1702 H   0  0  0  0  0  0  0  0  0  0  0  0
   39.0932   34.5970   47.0720 H   0  0  0  0  0  0  0  0  0  0  0  0
   37.8403   29.0446   51.6697 H   0  0  0  0  0  0  0  0  0  0  0  0
   39.0413   31.1220   50.8412 H   0  0  0  0  0  0  0  0  0  0  0  0
   34.6363   29.8095   48.9837 H   0  0  0  0  0  0  0  0  0  0  0  0
   36.1803   31.1171   46.1861 H   0  0  0  0  0  0  0  0  0  0  0  0
   35.6217   29.4481   44.4497 H   0  0  0  0  0  0  0  0  0  0  0  0
   37.3001   28.8773   42.7211 H   0  0  0  0  0  0  0  0  0  0  0  0
   39.0434   31.5394   41.0881 H   0  0  0  0  0  0  0  0  0  0  0  0
   42.5496   28.3350   41.8086 H   0  0  0  0  0  0  0  0  0  0  0  0
  1  2  1  0
  2  8  1  0
  2  3  1  0
  4  3  1  0
  5  1  1  0
  5  4  1  0
  7  6  2  0
  8  7  1  0
  9 10  1  0
  9  8  2  0
 10 11  2  0
 11  6  1  0
 12  1  1  0
 14 13  1  0
 14 15  2  0
 15 12  1  0
 16 15  1  0
 17 16  2  0
 18 19  2  0
 18 17  1  0
 19 14  1  0
 20 19  1  0
 21 20  2  0
 22 21  1  0
 22 23  1  0
 23 24  2  0
 24 20  1  0
  1 25  1  1
  2 26  1  6
  3 27  1  0
  3 28  1  0
  5 29  1  0
  5 30  1  0
  6 31  1  0
  7 32  1  0
 10 33  1  0
 16 34  1  0
 17 35  1  0
 18 36  1  0
 21 37  1  0
 23 38  1  0
M  ISO  8  25  13  26  13  27  13  28  13  29  13  30  13  31  14  32  14
M  ISO  6  33  14  34  14  35  14  36  14  37  14  38  14
M  END
>  <minimizedAffinity>  (1) 
-6.09093809

>  <minimizedRMSD>  (1) 
0.871154606

$$$$
