
     RDKit          3D

 36 38  0  0  1  0  0  0  0  0999 V2000
   38.9400   32.3580   47.7950 C   0  0  2  0  0  0  0  0  0  0  0  0
   37.9760   32.7130   48.9740 C   0  0  2  0  0  0  0  0  0  0  0  0
   38.8690   33.4910   49.8230 C   0  0  0  0  0  0  0  0  0  0  0  0
   39.7010   34.2360   49.0000 O   0  0  0  0  0  0  0  0  0  0  0  0
   39.5990   33.7630   47.7290 C   0  0  0  0  0  0  0  0  0  0  0  0
   37.2800   29.6620   51.0650 C   0  0  0  0  0  0  0  0  0  0  0  0
   37.9530   30.8070   50.5640 C   0  0  0  0  0  0  0  0  0  0  0  0
   37.3330   31.5510   49.5240 C   0  0  0  0  0  0  0  0  0  0  0  0
   36.1140   31.1300   49.0530 N   0  0  0  0  0  0  0  0  0  0  0  0
   35.5130   30.0460   49.5510 C   0  0  0  0  0  0  0  0  0  0  0  0
   36.0770   29.3070   50.5500 N   0  0  0  0  0  0  0  0  0  0  0  0
   38.2690   32.1360   46.6370 O   0  0  0  0  0  0  0  0  0  0  0  0
   40.9520   31.2560   45.3830 Cl  0  0  0  0  0  0  0  0  0  0  0  0
   39.3820   30.6950   44.8930 C   0  0  0  0  0  0  0  0  0  0  0  0
   38.3360   31.2470   45.6190 C   0  0  0  0  0  0  0  0  0  0  0  0
   37.0740   30.8110   45.2430 C   0  0  0  0  0  0  0  0  0  0  0  0
   36.8750   29.8960   44.2230 C   0  0  0  0  0  0  0  0  0  0  0  0
   37.9500   29.3900   43.5460 C   0  0  0  0  0  0  0  0  0  0  0  0
   39.2120   29.7920   43.8850 C   0  0  0  0  0  0  0  0  0  0  0  0
   41.0780   29.7840   42.1040 C   0  0  0  0  0  0  0  0  0  0  0  0
   40.5660   30.7950   41.5180 O   0  0  0  0  0  0  0  0  0  0  0  0
   40.3970   29.3250   43.2460 N   0  0  0  0  0  0  0  0  0  0  0  0
   39.5720   31.4673   47.9258 H   0  0  0  0  0  0  0  0  0  0  0  0
   37.0731   33.2921   48.7300 H   0  0  0  0  0  0  0  0  0  0  0  0
   38.2816   34.1625   50.4664 H   0  0  0  0  0  0  0  0  0  0  0  0
   39.4634   32.8243   50.4650 H   0  0  0  0  0  0  0  0  0  0  0  0
   40.5990   33.6861   47.2773 H   0  0  0  0  0  0  0  0  0  0  0  0
   38.9913   34.4432   47.1142 H   0  0  0  0  0  0  0  0  0  0  0  0
   37.7334   29.0640   51.8693 H   0  0  0  0  0  0  0  0  0  0  0  0
   38.9291   31.1105   50.9702 H   0  0  0  0  0  0  0  0  0  0  0  0
   34.5373   29.7408   49.1449 H   0  0  0  0  0  0  0  0  0  0  0  0
   36.1972   31.2076   45.7759 H   0  0  0  0  0  0  0  0  0  0  0  0
   35.8560   29.5773   43.9583 H   0  0  0  0  0  0  0  0  0  0  0  0
   37.8002   28.6638   42.7335 H   0  0  0  0  0  0  0  0  0  0  0  0
   41.9961   29.3007   41.7385 H   0  0  0  0  0  0  0  0  0  0  0  0
   40.8308   28.5084   43.6998 H   0  0  0  0  0  0  0  0  0  0  0  0
  1  2  1  0
  2  8  1  0
  2  3  1  0
  4  3  1  0
  5  1  1  0
  5  4  1  0
  7  6  2  0
  8  7  1  0
  9  8  2  0
  9 10  1  0
 10 11  2  0
 11  6  1  0
 12  1  1  0
 14 13  1  0
 14 15  2  0
 15 12  1  0
 16 15  1  0
 17 16  2  0
 18 19  2  0
 18 17  1  0
 19 14  1  0
 20 22  1  0
 21 20  2  0
 22 19  1  0
  1 23  1  1
  2 24  1  6
  3 25  1  0
  3 26  1  0
  5 27  1  0
  5 28  1  0
  6 29  1  0
  7 30  1  0
 10 31  1  0
 16 32  1  0
 17 33  1  0
 18 34  1  0
 20 35  1  0
 22 36  1  0
M  ISO  8  23  13  24  13  25  13  26  13  27  13  28  13  29  14  30  14
M  ISO  5  31  14  32  14  33  14  34  14  35   6
M  END
>  <minimizedAffinity>  (1) 
-6.0660615

>  <minimizedRMSD>  (1) 
0.135270178

$$$$
