
     RDKit          3D

 30 32  0  0  1  0  0  0  0  0999 V2000
   35.9910   30.4180   49.5990 C   0  0  1  0  0  0  0  0  0  0  0  0
   36.0170   28.9880   49.3240 C   0  0  1  0  0  0  0  0  0  0  0  0
   36.4880   29.4580   50.6700 C   0  0  0  0  0  0  0  0  0  0  0  0
   37.1000   31.2970   49.0680 C   0  0  0  0  0  0  0  0  0  0  0  0
   37.2800   32.5440   49.7450 C   0  0  0  0  0  0  0  0  0  0  0  0
   38.2900   33.3470   49.2440 C   0  0  0  0  0  0  0  0  0  0  0  0
   39.0240   32.9380   48.1890 N   0  0  0  0  0  0  0  0  0  0  0  0
   38.8270   31.7530   47.5740 C   0  0  0  0  0  0  0  0  0  0  0  0
   37.8620   30.9330   48.0160 N   0  0  0  0  0  0  0  0  0  0  0  0
   34.8100   28.1200   49.3230 C   0  0  0  0  0  0  0  0  0  0  0  0
   34.4010   27.8690   47.8870 C   0  0  0  0  0  0  0  0  0  0  0  0
   32.8940   27.7930   47.8890 C   0  0  0  0  0  0  0  0  0  0  0  0
   32.4140   28.3060   49.2050 C   0  0  0  0  0  0  0  0  0  0  0  0
   33.6300   28.9160   49.8310 C   0  0  0  0  0  0  0  0  0  0  0  0
   35.2008   31.1738   49.4790 H   0  0  0  0  0  0  0  0  0  0  0  0
   36.4237   28.4276   48.4692 H   0  0  0  0  0  0  0  0  0  0  0  0
   37.5560   29.4194   50.9306 H   0  0  0  0  0  0  0  0  0  0  0  0
   36.2339   29.2406   51.7179 H   0  0  0  0  0  0  0  0  0  0  0  0
   36.6599   32.8436   50.6028 H   0  0  0  0  0  0  0  0  0  0  0  0
   38.4949   34.3229   49.7083 H   0  0  0  0  0  0  0  0  0  0  0  0
   39.4527   31.4620   46.7173 H   0  0  0  0  0  0  0  0  0  0  0  0
   35.0385   27.2168   49.9078 H   0  0  0  0  0  0  0  0  0  0  0  0
   34.8306   26.9223   47.5275 H   0  0  0  0  0  0  0  0  0  0  0  0
   34.7626   28.6661   47.2207 H   0  0  0  0  0  0  0  0  0  0  0  0
   32.4869   28.4111   47.0752 H   0  0  0  0  0  0  0  0  0  0  0  0
   32.5611   26.7558   47.7360 H   0  0  0  0  0  0  0  0  0  0  0  0
   31.6272   29.0619   49.0649 H   0  0  0  0  0  0  0  0  0  0  0  0
   31.9727   27.5146   49.8286 H   0  0  0  0  0  0  0  0  0  0  0  0
   33.5687   28.8494   50.9273 H   0  0  0  0  0  0  0  0  0  0  0  0
   33.7231   29.9809   49.5714 H   0  0  0  0  0  0  0  0  0  0  0  0
  1  3  1  0
  2  1  1  0
  2  3  1  0
  4  1  1  0
  4  5  2  0
  6  5  1  0
  7  6  2  0
  8  9  2  0
  8  7  1  0
  9  4  1  0
 10  2  1  0
 10 14  1  0
 11 12  1  0
 11 10  1  0
 12 13  1  0
 13 14  1  0
  1 15  1  1
  2 16  1  6
  3 17  1  0
  3 18  1  0
  5 19  1  0
  6 20  1  0
  8 21  1  0
 10 22  1  0
 11 23  1  0
 11 24  1  0
 12 25  1  0
 12 26  1  0
 13 27  1  0
 13 28  1  0
 14 29  1  0
 14 30  1  0
M  ISO  8  15  13  16  13  17  13  18  13  19  14  20  14  21  14  22  13
M  ISO  8  23  13  24  13  25  13  26  13  27  13  28  13  29  13  30  13
M  END
>  <minimizedAffinity>  (1) 
-5.05768156

>  <minimizedRMSD>  (1) 
0.591533363

$$$$
