
     RDKit          3D

 25 27  0  0  1  0  0  0  0  0999 V2000
   35.2200   30.0640   49.2470 C   0  0  1  0  0  0  0  0  0  0  0  0
   35.1330   28.6430   48.9340 C   0  0  1  0  0  0  0  0  0  0  0  0
   35.4060   29.0470   50.3620 C   0  0  0  0  0  0  0  0  0  0  0  0
   36.4850   30.8270   48.9460 C   0  0  0  0  0  0  0  0  0  0  0  0
   36.7940   31.9030   49.8260 C   0  0  0  0  0  0  0  0  0  0  0  0
   37.9510   32.6010   49.5290 C   0  0  0  0  0  0  0  0  0  0  0  0
   38.7080   32.2450   48.4600 N   0  0  0  0  0  0  0  0  0  0  0  0
   38.3780   31.2100   47.6420 C   0  0  0  0  0  0  0  0  0  0  0  0
   37.2630   30.5020   47.8900 N   0  0  0  0  0  0  0  0  0  0  0  0
   33.8750   27.9520   48.6520 C   0  0  0  0  0  0  0  0  0  0  0  0
   33.9270   26.8720   47.7970 C   0  0  0  0  0  0  0  0  0  0  0  0
   32.7380   26.2130   47.5250 C   0  0  0  0  0  0  0  0  0  0  0  0
   31.5370   26.5610   48.0430 N   0  0  0  0  0  0  0  0  0  0  0  0
   31.5310   27.6340   48.8830 C   0  0  0  0  0  0  0  0  0  0  0  0
   32.6590   28.2820   49.1580 N   0  0  0  0  0  0  0  0  0  0  0  0
   34.5526   30.9060   49.0110 H   0  0  0  0  0  0  0  0  0  0  0  0
   35.6255   28.0307   48.1642 H   0  0  0  0  0  0  0  0  0  0  0  0
   36.3988   28.8837   50.8067 H   0  0  0  0  0  0  0  0  0  0  0  0
   34.9455   28.8529   51.3419 H   0  0  0  0  0  0  0  0  0  0  0  0
   36.1560   32.1617   50.6839 H   0  0  0  0  0  0  0  0  0  0  0  0
   38.2584   33.4471   50.1611 H   0  0  0  0  0  0  0  0  0  0  0  0
   39.0182   30.9545   46.7847 H   0  0  0  0  0  0  0  0  0  0  0  0
   34.8763   26.5453   47.3474 H   0  0  0  0  0  0  0  0  0  0  0  0
   32.7730   25.3504   46.8433 H   0  0  0  0  0  0  0  0  0  0  0  0
   30.5858   27.9666   49.3370 H   0  0  0  0  0  0  0  0  0  0  0  0
  1  3  1  0
  2  1  1  0
  2  3  1  0
  4  1  1  0
  4  5  2  0
  6  5  1  0
  7  6  2  0
  8  9  2  0
  8  7  1  0
  9  4  1  0
 10  2  1  0
 10 15  1  0
 11 10  2  0
 12 11  1  0
 12 13  2  0
 13 14  1  0
 14 15  2  0
  1 16  1  1
  2 17  1  6
  3 18  1  0
  3 19  1  0
  5 20  1  0
  6 21  1  0
  8 22  1  0
 11 23  1  0
 12 24  1  0
 14 25  1  0
M  ISO  8  16  13  17  13  18  13  19  13  20  14  21  14  22  14  23  14
M  ISO  2  24  14  25  14
M  END
>  <minimizedAffinity>  (1) 
-4.94756413

>  <minimizedRMSD>  (1) 
1.42600155

$$$$
