
     RDKit          3D

 21 22  0  0  1  0  0  0  0  0999 V2000
   36.6320   31.0220   50.1570 C   0  0  1  0  0  0  0  0  0  0  0  0
   36.4000   29.5810   50.2400 C   0  0  1  0  0  0  0  0  0  0  0  0
   37.3030   30.2140   51.2560 C   0  0  0  0  0  0  0  0  0  0  0  0
   37.6040   31.5710   49.1510 C   0  0  0  0  0  0  0  0  0  0  0  0
   38.1360   32.8470   49.4030 C   0  0  0  0  0  0  0  0  0  0  0  0
   39.0190   33.3500   48.4430 C   0  0  0  0  0  0  0  0  0  0  0  0
   39.3080   32.5910   47.3410 N   0  0  0  0  0  0  0  0  0  0  0  0
   38.7720   31.3630   47.1340 C   0  0  0  0  0  0  0  0  0  0  0  0
   37.9130   30.8530   48.0520 N   0  0  0  0  0  0  0  0  0  0  0  0
   34.3600   28.3700   49.5800 C   0  0  0  0  0  0  0  0  0  0  0  0
   34.7000   28.2160   48.3780 O   0  0  0  0  0  0  0  0  0  0  0  0
   35.1200   29.0290   50.5920 N   0  0  0  0  0  0  0  0  0  0  0  0
   35.9431   31.8757   50.0753 H   0  0  0  0  0  0  0  0  0  0  0  0
   36.5057   28.7449   49.5331 H   0  0  0  0  0  0  0  0  0  0  0  0
   38.3871   30.0298   51.2274 H   0  0  0  0  0  0  0  0  0  0  0  0
   37.3477   30.2587   52.3542 H   0  0  0  0  0  0  0  0  0  0  0  0
   37.8723   33.4182   50.3053 H   0  0  0  0  0  0  0  0  0  0  0  0
   39.4755   34.3425   48.5714 H   0  0  0  0  0  0  0  0  0  0  0  0
   39.0304   30.7873   46.2330 H   0  0  0  0  0  0  0  0  0  0  0  0
   33.3849   27.9576   49.8785 H   0  0  0  0  0  0  0  0  0  0  0  0
   34.7595   29.1075   51.5536 H   0  0  0  0  0  0  0  0  0  0  0  0
  1  2  1  0
  1  3  1  0
  2 12  1  0
  2  3  1  0
  4  5  2  0
  4  1  1  0
  6  5  1  0
  7  6  2  0
  8  7  1  0
  8  9  2  0
  9  4  1  0
 10 12  1  0
 11 10  2  0
  1 13  1  1
  2 14  1  6
  3 15  1  0
  3 16  1  0
  5 17  1  0
  6 18  1  0
  8 19  1  0
 10 20  1  0
 12 21  1  0
M  ISO  8  13  13  14  13  15  13  16  13  17  14  18  14  19  14  20   6
M  END
>  <minimizedAffinity>  (1) 
-4.55660772

>  <minimizedRMSD>  (1) 
1.20030475

$$$$
