
     RDKit          3D

 20 21  0  0  1  0  0  0  0  0999 V2000
   37.1400   31.2970   49.1850 C   0  0  0  0  0  0  0  0  0  0  0  0
   37.3200   32.5580   49.7830 C   0  0  0  0  0  0  0  0  0  0  0  0
   38.3160   33.3580   49.1960 C   0  0  0  0  0  0  0  0  0  0  0  0
   39.0280   32.8970   48.1230 N   0  0  0  0  0  0  0  0  0  0  0  0
   38.8040   31.6700   47.5950 C   0  0  0  0  0  0  0  0  0  0  0  0
   37.8460   30.8680   48.1400 N   0  0  0  0  0  0  0  0  0  0  0  0
   36.0580   30.4300   49.7810 C   0  0  1  0  0  0  0  0  0  0  0  0
   36.0660   28.9850   49.5650 C   0  0  1  0  0  0  0  0  0  0  0  0
   36.5650   29.5210   50.8780 C   0  0  0  0  0  0  0  0  0  0  0  0
   34.7000   28.3130   49.5210 C   0  0  0  0  0  0  0  0  0  0  0  0
   36.7255   32.8930   50.6458 H   0  0  0  0  0  0  0  0  0  0  0  0
   38.5236   34.3592   49.6015 H   0  0  0  0  0  0  0  0  0  0  0  0
   39.3913   31.3230   46.7321 H   0  0  0  0  0  0  0  0  0  0  0  0
   35.2707   31.1860   49.6450 H   0  0  0  0  0  0  0  0  0  0  0  0
   36.4962   28.3031   48.8167 H   0  0  0  0  0  0  0  0  0  0  0  0
   37.6375   29.4873   51.1203 H   0  0  0  0  0  0  0  0  0  0  0  0
   36.3280   29.3562   51.9395 H   0  0  0  0  0  0  0  0  0  0  0  0
   34.3442   28.1380   50.5471 H   0  0  0  0  0  0  0  0  0  0  0  0
   33.9881   28.9637   48.9921 H   0  0  0  0  0  0  0  0  0  0  0  0
   34.7810   27.3519   48.9921 H   0  0  0  0  0  0  0  0  0  0  0  0
  1  7  1  0
  1  2  2  0
  3  2  1  0
  4  3  2  0
  5  4  1  0
  5  6  2  0
  6  1  1  0
  7  9  1  0
  8  7  1  0
  8  9  1  0
 10  8  1  0
  2 11  1  0
  3 12  1  0
  5 13  1  0
  7 14  1  1
  8 15  1  6
  9 16  1  0
  9 17  1  0
 10 18  1  0
 10 19  1  0
 10 20  1  0
M  ISO  8  11  14  12  14  13  14  14  13  15  13  16  13  17  13  18   8
M  ISO  2  19   8  20   8
M  END
>  <minimizedAffinity>  (1) 
-4.58479786

>  <minimizedRMSD>  (1) 
0.343207687

$$$$
