
     RDKit          3D

 46 48  0  0  0  0  0  0  0  0999 V2000
   27.9870   28.1400   48.5800 C   0  0  0  0  0  0  0  0  0  0  0  0
   29.2890   27.9300   49.0510 C   0  0  0  0  0  0  0  0  0  0  0  0
   29.5250   27.4450   50.3290 C   0  0  0  0  0  0  0  0  0  0  0  0
   28.4540   27.1680   51.1350 C   0  0  0  0  0  0  0  0  0  0  0  0
   27.1920   27.3650   50.6940 C   0  0  0  0  0  0  0  0  0  0  0  0
   26.9080   27.8430   49.4400 C   0  0  0  0  0  0  0  0  0  0  0  0
   27.6070   28.7460   46.9900 S   0  0  0  0  0  0  0  0  0  0  0  0
   28.8030   28.6870   46.1000 O   0  0  0  0  0  0  0  0  0  0  0  0
   26.4690   27.8950   46.4210 O   0  0  0  0  0  0  0  0  0  0  0  0
   26.9650   30.3520   47.0700 C   0  0  0  0  0  0  0  0  0  0  0  0
   26.8450   31.1650   45.9510 C   0  0  0  0  0  0  0  0  0  0  0  0
   26.3300   32.4440   46.0320 C   0  0  0  0  0  0  0  0  0  0  0  0
   25.9220   32.9380   47.2510 C   0  0  0  0  0  0  0  0  0  0  0  0
   26.0530   32.1050   48.3550 C   0  0  0  0  0  0  0  0  0  0  0  0
   26.5620   30.8230   48.3160 C   0  0  0  0  0  0  0  0  0  0  0  0
   30.2430   28.2570   48.1170 O   0  0  0  0  0  0  0  0  0  0  0  0
   31.7330   26.0730   48.1680 O   0  0  0  0  0  0  0  0  0  0  0  0
   31.7720   27.5850   47.9540 P   0  0  1  0  0  0  0  0  0  0  0  0
   32.4500   27.9620   46.4350 O   0  0  0  0  0  0  0  0  0  0  0  0
   32.8360   28.1610   49.1550 O   0  0  0  0  0  0  0  0  0  0  0  0
   34.1510   27.8320   48.7820 C   0  0  0  0  0  0  0  0  0  0  0  0
   36.1470   29.1860   49.2970 C   0  0  0  0  0  0  0  0  0  0  0  0
   35.0120   29.0330   48.6670 C   0  0  0  0  0  0  0  0  0  0  0  0
   37.4520   32.5900   49.6200 C   0  0  0  0  0  0  0  0  0  0  0  0
   38.3930   32.6440   48.5760 C   0  0  0  0  0  0  0  0  0  0  0  0
   38.5570   31.5060   47.7860 C   0  0  0  0  0  0  0  0  0  0  0  0
   37.7690   30.4340   48.1120 N   0  0  0  0  0  0  0  0  0  0  0  0
   36.8940   30.4100   49.0970 C   0  0  0  0  0  0  0  0  0  0  0  0
   36.7480   31.5010   49.8410 N   0  0  0  0  0  0  0  0  0  0  0  0
   30.5527   27.2861   50.6876 H   0  0  0  0  0  0  0  0  0  0  0  0
   28.6221   26.7815   52.1510 H   0  0  0  0  0  0  0  0  0  0  0  0
   26.3561   27.1319   51.3700 H   0  0  0  0  0  0  0  0  0  0  0  0
   25.8680   27.9908   49.1137 H   0  0  0  0  0  0  0  0  0  0  0  0
   27.1690   30.7799   44.9729 H   0  0  0  0  0  0  0  0  0  0  0  0
   26.2462   33.0647   45.1277 H   0  0  0  0  0  0  0  0  0  0  0  0
   25.5084   33.9528   47.3468 H   0  0  0  0  0  0  0  0  0  0  0  0
   25.7275   32.4955   49.3305 H   0  0  0  0  0  0  0  0  0  0  0  0
   26.6449   30.2055   49.2225 H   0  0  0  0  0  0  0  0  0  0  0  0
   33.3077   28.4389   46.5656 H   0  0  0  0  0  0  0  0  0  0  0  0
   34.5780   27.1602   49.5411 H   0  0  0  0  0  0  0  0  0  0  0  0
   34.1131   27.3452   47.7963 H   0  0  0  0  0  0  0  0  0  0  0  0
   36.5272   28.4001   49.9661 H   0  0  0  0  0  0  0  0  0  0  0  0
   34.6742   29.8476   48.0095 H   0  0  0  0  0  0  0  0  0  0  0  0
   37.3026   33.4713   50.2611 H   0  0  0  0  0  0  0  0  0  0  0  0
   38.9809   33.5546   48.3884 H   0  0  0  0  0  0  0  0  0  0  0  0
   39.2746   31.4716   46.9530 H   0  0  0  0  0  0  0  0  0  0  0  0
  1  2  1  0
  1  6  2  0
  2  3  2  0
  3  4  1  0
  5  4  2  0
  6  5  1  0
  7 10  1  0
  7  1  1  0
  8  7  2  0
  9  7  2  0
 10 15  2  0
 11 12  2  0
 11 10  1  0
 12 13  1  0
 13 14  2  0
 15 14  1  0
 16  2  1  0
 18 16  1  0
 18 17  2  0
 18 20  1  0
 19 18  1  0
 21 20  1  0
 23 21  1  0
 23 22  2  0
 24 29  2  0
 25 24  1  0
 26 27  1  0
 26 25  2  0
 27 28  2  0
 28 22  1  0
 28 29  1  0
  3 30  1  0
  4 31  1  0
  5 32  1  0
  6 33  1  0
 11 34  1  0
 12 35  1  0
 13 36  1  0
 14 37  1  0
 15 38  1  0
 19 39  1  0
 21 40  1  0
 21 41  1  0
 22 42  1  0
 23 43  1  0
 24 44  1  0
 25 45  1  0
 26 46  1  0
M  ISO  8  30  14  31  14  32  14  33  14  34  14  35  14  36  14  37  14
M  ISO  7  38  14  39   3  40   8  41   8  44  14  45  14  46  14
M  END
>  <minimizedAffinity>  (1) 
-6.98294067

>  <minimizedRMSD>  (1) 
2.46673346

$$$$
