
     RDKit          3D

 36 38  0  0  1  0  0  0  0  0999 V2000
   36.3340   30.5490   49.9490 C   0  0  1  0  0  0  0  0  0  0  0  0
   36.2050   29.1230   49.7510 C   0  0  1  0  0  0  0  0  0  0  0  0
   37.0040   29.5960   50.9400 C   0  0  0  0  0  0  0  0  0  0  0  0
   37.3480   31.3690   49.1790 C   0  0  0  0  0  0  0  0  0  0  0  0
   37.5940   32.6540   49.6620 C   0  0  0  0  0  0  0  0  0  0  0  0
   38.5150   33.3930   48.9200 C   0  0  0  0  0  0  0  0  0  0  0  0
   39.1090   32.8520   47.8060 N   0  0  0  0  0  0  0  0  0  0  0  0
   38.8310   31.5950   47.3830 C   0  0  0  0  0  0  0  0  0  0  0  0
   37.9330   30.8470   48.0890 N   0  0  0  0  0  0  0  0  0  0  0  0
   34.8480   28.5080   49.9240 C   0  0  0  0  0  0  0  0  0  0  0  0
   34.1790   28.0690   48.6570 C   0  0  0  0  0  0  0  0  0  0  0  0
   32.6850   28.0280   48.7400 C   0  0  0  0  0  0  0  0  0  0  0  0
   32.1880   27.8480   47.3000 C   0  0  0  0  0  0  0  0  0  0  0  0
   32.3900   29.0840   46.4680 C   0  0  0  0  0  0  0  0  0  0  0  0
   33.5820   29.8440   47.0490 C   0  0  0  0  0  0  0  0  0  0  0  0
   34.6080   28.7850   47.4240 C   0  0  0  0  0  0  0  0  0  0  0  0
   35.5750   31.3452   49.9471 H   0  0  0  0  0  0  0  0  0  0  0  0
   36.4298   28.4231   48.9328 H   0  0  0  0  0  0  0  0  0  0  0  0
   38.0984   29.4865   50.9569 H   0  0  0  0  0  0  0  0  0  0  0  0
   36.9832   29.4352   52.0280 H   0  0  0  0  0  0  0  0  0  0  0  0
   37.0995   33.0540   50.5595 H   0  0  0  0  0  0  0  0  0  0  0  0
   38.7679   34.4178   49.2295 H   0  0  0  0  0  0  0  0  0  0  0  0
   39.3199   31.1847   46.4871 H   0  0  0  0  0  0  0  0  0  0  0  0
   34.9540   27.6278   50.5752 H   0  0  0  0  0  0  0  0  0  0  0  0
   34.2085   29.2955   50.3492 H   0  0  0  0  0  0  0  0  0  0  0  0
   34.5437   27.0361   48.5562 H   0  0  0  0  0  0  0  0  0  0  0  0
   32.3597   27.1835   49.3653 H   0  0  0  0  0  0  0  0  0  0  0  0
   32.2808   28.9443   49.1949 H   0  0  0  0  0  0  0  0  0  0  0  0
   32.7389   27.0160   46.8370 H   0  0  0  0  0  0  0  0  0  0  0  0
   31.1082   27.6419   47.3399 H   0  0  0  0  0  0  0  0  0  0  0  0
   31.4889   29.7136   46.5071 H   0  0  0  0  0  0  0  0  0  0  0  0
   32.5782   28.8157   45.4179 H   0  0  0  0  0  0  0  0  0  0  0  0
   33.9991   30.5326   46.2994 H   0  0  0  0  0  0  0  0  0  0  0  0
   33.2898   30.4498   47.9194 H   0  0  0  0  0  0  0  0  0  0  0  0
   34.7038   28.0634   46.5993 H   0  0  0  0  0  0  0  0  0  0  0  0
   35.5763   29.2726   47.6100 H   0  0  0  0  0  0  0  0  0  0  0  0
  1  3  1  0
  2 10  1  0
  2  1  1  0
  2  3  1  0
  4  5  2  0
  4  1  1  0
  6  5  1  0
  7  6  2  0
  8  7  1  0
  8  9  2  0
  9  4  1  0
 11 12  1  0
 11 10  1  0
 13 12  1  0
 14 15  1  0
 14 13  1  0
 15 16  1  0
 16 11  1  0
  1 17  1  1
  2 18  1  6
  3 19  1  0
  3 20  1  0
  5 21  1  0
  6 22  1  0
  8 23  1  0
 10 24  1  0
 10 25  1  0
 11 26  1  0
 12 27  1  0
 12 28  1  0
 13 29  1  0
 13 30  1  0
 14 31  1  0
 14 32  1  0
 15 33  1  0
 15 34  1  0
 16 35  1  0
 16 36  1  0
M  ISO  8  17  13  18  13  19  13  20  13  21  14  22  14  23  14  24   8
M  ISO  8  25   8  26  13  27  13  28  13  29  13  30  13  31  13  32  13
M  ISO  4  33  13  34  13  35  13  36  13
M  END
>  <minimizedAffinity>  (1) 
-5.54353666

>  <minimizedRMSD>  (1) 
2.04349279

$$$$
