
     RDKit          3D

 43 45  0  0  0  0  0  0  0  0999 V2000
   27.8800   28.4510   48.7860 C   0  0  0  0  0  0  0  0  0  0  0  0
   29.1570   28.0010   49.1460 C   0  0  0  0  0  0  0  0  0  0  0  0
   29.3960   27.4130   50.3690 C   0  0  0  0  0  0  0  0  0  0  0  0
   28.3800   27.2510   51.2740 C   0  0  0  0  0  0  0  0  0  0  0  0
   27.1280   27.6890   50.9280 C   0  0  0  0  0  0  0  0  0  0  0  0
   26.8480   28.2780   49.7240 C   0  0  0  0  0  0  0  0  0  0  0  0
   27.4890   29.1970   47.2850 S   0  0  0  0  0  0  0  0  0  0  0  0
   28.7150   29.3150   46.4110 O   0  0  0  0  0  0  0  0  0  0  0  0
   26.4430   28.3040   46.5680 O   0  0  0  0  0  0  0  0  0  0  0  0
   26.7110   30.7240   47.3970 C   0  0  0  0  0  0  0  0  0  0  0  0
   26.0150   31.5940   48.1690 C   0  0  0  0  0  0  0  0  0  0  0  0
   25.6620   32.7680   47.5620 C   0  0  0  0  0  0  0  0  0  0  0  0
   26.2080   32.5520   46.3200 C   0  0  0  0  0  0  0  0  0  0  0  0
   26.7970   31.3950   46.2400 O   0  0  0  0  0  0  0  0  0  0  0  0
   30.0880   28.2130   48.1660 O   0  0  0  0  0  0  0  0  0  0  0  0
   31.5140   25.9780   48.3210 O   0  0  0  0  0  0  0  0  0  0  0  0
   31.6010   27.4710   48.0000 P   0  0  1  0  0  0  0  0  0  0  0  0
   32.2210   27.7260   46.4500 O   0  0  0  0  0  0  0  0  0  0  0  0
   32.7150   28.0830   49.1270 O   0  0  0  0  0  0  0  0  0  0  0  0
   34.0060   27.7320   48.7110 C   0  0  0  0  0  0  0  0  0  0  0  0
   35.9860   29.0710   49.3430 C   0  0  0  0  0  0  0  0  0  0  0  0
   34.8980   28.9130   48.6350 C   0  0  0  0  0  0  0  0  0  0  0  0
   37.3120   32.4610   49.7040 C   0  0  0  0  0  0  0  0  0  0  0  0
   38.2610   32.5280   48.6780 C   0  0  0  0  0  0  0  0  0  0  0  0
   38.4290   31.3980   47.8720 C   0  0  0  0  0  0  0  0  0  0  0  0
   37.6350   30.3180   48.1720 N   0  0  0  0  0  0  0  0  0  0  0  0
   36.7510   30.2940   49.1490 C   0  0  0  0  0  0  0  0  0  0  0  0
   36.5980   31.3730   49.9100 N   0  0  0  0  0  0  0  0  0  0  0  0
   30.4106   27.0709   50.6209 H   0  0  0  0  0  0  0  0  0  0  0  0
   28.5641   26.7821   52.2519 H   0  0  0  0  0  0  0  0  0  0  0  0
   26.3096   27.5613   51.6518 H   0  0  0  0  0  0  0  0  0  0  0  0
   25.8257   28.6123   49.4934 H   0  0  0  0  0  0  0  0  0  0  0  0
   25.7517   31.3710   49.2135 H   0  0  0  0  0  0  0  0  0  0  0  0
   25.1045   33.6317   47.9535 H   0  0  0  0  0  0  0  0  0  0  0  0
   26.1535   33.2727   45.4908 H   0  0  0  0  0  0  0  0  0  0  0  0
   33.1344   28.1017   46.5176 H   0  0  0  0  0  0  0  0  0  0  0  0
   34.4280   27.0122   49.4278 H   0  0  0  0  0  0  0  0  0  0  0  0
   33.9342   27.2916   47.7056 H   0  0  0  0  0  0  0  0  0  0  0  0
   36.3124   28.3048   50.0616 H   0  0  0  0  0  0  0  0  0  0  0  0
   34.6253   29.7143   47.9325 H   0  0  0  0  0  0  0  0  0  0  0  0
   37.1587   33.3359   50.3529 H   0  0  0  0  0  0  0  0  0  0  0  0
   38.8548   33.4388   48.5112 H   0  0  0  0  0  0  0  0  0  0  0  0
   39.1548   31.3752   47.0457 H   0  0  0  0  0  0  0  0  0  0  0  0
  1  2  1  0
  1  6  2  0
  2  3  2  0
  3  4  1  0
  5  4  2  0
  6  5  1  0
  7 10  1  0
  7  1  1  0
  8  7  2  0
  9  7  2  0
 10 11  2  0
 12 11  1  0
 13 12  2  0
 14 13  1  0
 14 10  1  0
 15  2  1  0
 17 15  1  0
 17 16  2  0
 17 19  1  0
 18 17  1  0
 20 19  1  0
 22 20  1  0
 22 21  2  0
 23 28  2  0
 24 23  1  0
 25 26  1  0
 25 24  2  0
 26 27  2  0
 27 21  1  0
 27 28  1  0
  3 29  1  0
  4 30  1  0
  5 31  1  0
  6 32  1  0
 11 33  1  0
 12 34  1  0
 13 35  1  0
 18 36  1  0
 20 37  1  0
 20 38  1  0
 21 39  1  0
 22 40  1  0
 23 41  1  0
 24 42  1  0
 25 43  1  0
M  ISO  8  29  14  30  14  31  14  32  14  33  14  34  14  35  14  36   3
M  ISO  5  37   8  38   8  41  14  42  14  43  14
M  END
>  <minimizedAffinity>  (1) 
-6.97547054

>  <minimizedRMSD>  (1) 
1.95906484

$$$$
