
     RDKit          3D

 35 37  0  0  1  0  0  0  0  0999 V2000
   36.2290   30.5210   49.9150 C   0  0  1  0  0  0  0  0  0  0  0  0
   36.0850   29.1190   49.5970 C   0  0  1  0  0  0  0  0  0  0  0  0
   36.8740   29.4810   50.8340 C   0  0  0  0  0  0  0  0  0  0  0  0
   37.2760   31.3620   49.2020 C   0  0  0  0  0  0  0  0  0  0  0  0
   37.5080   32.6290   49.7480 C   0  0  0  0  0  0  0  0  0  0  0  0
   38.4690   33.4160   49.0690 C   0  0  0  0  0  0  0  0  0  0  0  0
   39.0970   32.9050   47.9520 N   0  0  0  0  0  0  0  0  0  0  0  0
   38.8150   31.6760   47.4930 C   0  0  0  0  0  0  0  0  0  0  0  0
   37.8970   30.8880   48.1180 N   0  0  0  0  0  0  0  0  0  0  0  0
   34.7250   28.5020   49.7530 C   0  0  0  0  0  0  0  0  0  0  0  0
   34.0710   28.1310   48.5500 N   0  0  0  0  0  0  0  0  0  0  0  0
   32.6740   27.9470   48.7900 C   0  0  0  0  0  0  0  0  0  0  0  0
   31.9710   27.6070   47.4920 C   0  0  0  0  0  0  0  0  0  0  0  0
   32.0400   28.8230   46.6080 C   0  0  0  0  0  0  0  0  0  0  0  0
   33.3120   29.5930   46.6980 C   0  0  0  0  0  0  0  0  0  0  0  0
   34.4330   28.9030   47.4140 C   0  0  0  0  0  0  0  0  0  0  0  0
   35.4850   31.3286   49.9802 H   0  0  0  0  0  0  0  0  0  0  0  0
   36.3045   28.5013   48.7137 H   0  0  0  0  0  0  0  0  0  0  0  0
   37.9666   29.3560   50.8564 H   0  0  0  0  0  0  0  0  0  0  0  0
   36.8359   29.2312   51.9046 H   0  0  0  0  0  0  0  0  0  0  0  0
   36.9800   32.9889   50.6434 H   0  0  0  0  0  0  0  0  0  0  0  0
   38.7129   34.4264   49.4290 H   0  0  0  0  0  0  0  0  0  0  0  0
   39.3331   31.2995   46.5986 H   0  0  0  0  0  0  0  0  0  0  0  0
   34.8339   27.5979   50.3700 H   0  0  0  0  0  0  0  0  0  0  0  0
   34.0948   29.2815   50.2061 H   0  0  0  0  0  0  0  0  0  0  0  0
   32.5318   27.1261   49.5082 H   0  0  0  0  0  0  0  0  0  0  0  0
   32.2504   28.8757   49.2001 H   0  0  0  0  0  0  0  0  0  0  0  0
   32.4733   26.7588   47.0038 H   0  0  0  0  0  0  0  0  0  0  0  0
   30.9249   27.3241   47.6806 H   0  0  0  0  0  0  0  0  0  0  0  0
   31.2139   29.4943   46.8854 H   0  0  0  0  0  0  0  0  0  0  0  0
   31.9744   28.4560   45.5731 H   0  0  0  0  0  0  0  0  0  0  0  0
   33.6483   29.8133   45.6741 H   0  0  0  0  0  0  0  0  0  0  0  0
   33.0812   30.4903   47.2909 H   0  0  0  0  0  0  0  0  0  0  0  0
   34.9271   28.2320   46.6959 H   0  0  0  0  0  0  0  0  0  0  0  0
   35.0764   29.7082   47.7984 H   0  0  0  0  0  0  0  0  0  0  0  0
  1  3  1  0
  2 10  1  0
  2  1  1  0
  2  3  1  0
  4  5  2  0
  4  1  1  0
  6  5  1  0
  7  6  2  0
  8  7  1  0
  8  9  2  0
  9  4  1  0
 11 12  1  0
 11 10  1  0
 13 12  1  0
 14 15  1  0
 14 13  1  0
 15 16  1  0
 16 11  1  0
  1 17  1  1
  2 18  1  6
  3 19  1  0
  3 20  1  0
  5 21  1  0
  6 22  1  0
  8 23  1  0
 10 24  1  0
 10 25  1  0
 12 26  1  0
 12 27  1  0
 13 28  1  0
 13 29  1  0
 14 30  1  0
 14 31  1  0
 15 32  1  0
 15 33  1  0
 16 34  1  0
 16 35  1  0
M  ISO  8  17  13  18  13  19  13  20  13  21  14  22  14  23  14  24   8
M  ISO  8  25   8  26  13  27  13  28  13  29  13  30  13  31  13  32  13
M  ISO  3  33  13  34  13  35  13
M  END
>  <minimizedAffinity>  (1) 
-5.12543249

>  <minimizedRMSD>  (1) 
1.0024761

$$$$
