
     RDKit          3D

 32 34  0  0  1  0  0  0  0  0999 V2000
   36.3030   30.4200   49.9420 C   0  0  1  0  0  0  0  0  0  0  0  0
   36.1520   29.0010   49.7200 C   0  0  1  0  0  0  0  0  0  0  0  0
   37.0130   29.4230   50.8610 C   0  0  0  0  0  0  0  0  0  0  0  0
   37.2910   31.2550   49.1600 C   0  0  0  0  0  0  0  0  0  0  0  0
   37.5550   32.5450   49.6670 C   0  0  0  0  0  0  0  0  0  0  0  0
   38.4510   33.2910   48.9090 C   0  0  0  0  0  0  0  0  0  0  0  0
   39.0080   32.7730   47.7690 N   0  0  0  0  0  0  0  0  0  0  0  0
   38.7140   31.5290   47.3380 C   0  0  0  0  0  0  0  0  0  0  0  0
   37.8360   30.7430   48.0430 N   0  0  0  0  0  0  0  0  0  0  0  0
   34.7710   28.4220   49.9440 C   0  0  0  0  0  0  0  0  0  0  0  0
   33.9130   28.9110   48.8510 N   0  0  0  0  0  0  0  0  0  0  0  0
   34.3960   28.3550   47.5830 C   0  0  0  0  0  0  0  0  0  0  0  0
   33.9280   26.9370   47.6370 C   0  0  0  0  0  0  0  0  0  0  0  0
   32.5170   27.0960   48.1160 C   0  0  0  0  0  0  0  0  0  0  0  0
   32.5770   28.3180   48.9950 C   0  0  0  0  0  0  0  0  0  0  0  0
   35.5519   31.2220   49.9944 H   0  0  0  0  0  0  0  0  0  0  0  0
   36.3320   28.3091   48.8840 H   0  0  0  0  0  0  0  0  0  0  0  0
   38.1048   29.2987   50.8118 H   0  0  0  0  0  0  0  0  0  0  0  0
   37.0506   29.2273   51.9428 H   0  0  0  0  0  0  0  0  0  0  0  0
   37.0900   32.9293   50.5868 H   0  0  0  0  0  0  0  0  0  0  0  0
   38.7160   34.3097   49.2285 H   0  0  0  0  0  0  0  0  0  0  0  0
   39.1790   31.1430   46.4189 H   0  0  0  0  0  0  0  0  0  0  0  0
   34.8153   27.3230   49.9259 H   0  0  0  0  0  0  0  0  0  0  0  0
   34.3719   28.7292   50.9219 H   0  0  0  0  0  0  0  0  0  0  0  0
   35.4930   28.4071   47.5210 H   0  0  0  0  0  0  0  0  0  0  0  0
   34.0260   28.9001   46.7021 H   0  0  0  0  0  0  0  0  0  0  0  0
   33.9627   26.4660   46.6436 H   0  0  0  0  0  0  0  0  0  0  0  0
   34.5447   26.2892   48.2773 H   0  0  0  0  0  0  0  0  0  0  0  0
   31.8307   27.2534   47.2709 H   0  0  0  0  0  0  0  0  0  0  0  0
   32.1423   26.2071   48.6447 H   0  0  0  0  0  0  0  0  0  0  0  0
   32.4053   28.0332   50.0435 H   0  0  0  0  0  0  0  0  0  0  0  0
   31.8024   29.0412   48.7001 H   0  0  0  0  0  0  0  0  0  0  0  0
  1  3  1  0
  2  1  1  0
  2 10  1  0
  2  3  1  0
  4  5  2  0
  4  1  1  0
  6  5  1  0
  7  6  2  0
  8  7  1  0
  8  9  2  0
  9  4  1  0
 11 15  1  0
 11 10  1  0
 12 13  1  0
 12 11  1  0
 13 14  1  0
 14 15  1  0
  1 16  1  1
  2 17  1  6
  3 18  1  0
  3 19  1  0
  5 20  1  0
  6 21  1  0
  8 22  1  0
 10 23  1  0
 10 24  1  0
 12 25  1  0
 12 26  1  0
 13 27  1  0
 13 28  1  0
 14 29  1  0
 14 30  1  0
 15 31  1  0
 15 32  1  0
M  ISO  8  16  13  17  13  18  13  19  13  20  14  21  14  22  14  23   8
M  ISO  8  24   8  25  13  26  13  27  13  28  13  29  13  30  13  31  13
M  ISO  1  32  13
M  END
>  <minimizedAffinity>  (1) 
-4.87670374

>  <minimizedRMSD>  (1) 
1.94777262

$$$$
