
     RDKit          3D

 35 38  0  0  0  0  0  0  0  0999 V2000
   39.0400   32.0220   47.3920 C   0  0  0  0  0  0  0  0  0  0  0  0
   38.3130   32.0060   48.5730 C   0  0  0  0  0  0  0  0  0  0  0  0
   38.4750   33.1350   49.3780 C   0  0  0  0  0  0  0  0  0  0  0  0
   39.3120   34.1880   49.0030 C   0  0  0  0  0  0  0  0  0  0  0  0
   40.0040   34.1210   47.8000 C   0  0  0  0  0  0  0  0  0  0  0  0
   39.8670   33.0170   46.9760 C   0  0  0  0  0  0  0  0  0  0  0  0
   36.2190   30.7520   48.3350 C   0  0  0  0  0  0  0  0  0  0  0  0
   37.4590   30.9310   48.9560 C   0  0  0  0  0  0  0  0  0  0  0  0
   37.8150   30.0120   49.9620 C   0  0  0  0  0  0  0  0  0  0  0  0
   36.9380   29.0120   50.2660 N   0  0  0  0  0  0  0  0  0  0  0  0
   35.7550   28.8810   49.6390 C   0  0  0  0  0  0  0  0  0  0  0  0
   35.3920   29.7490   48.6730 N   0  0  0  0  0  0  0  0  0  0  0  0
   38.9390   30.9290   46.5210 O   0  0  0  0  0  0  0  0  0  0  0  0
   40.5740   32.9950   45.7950 O   0  0  0  0  0  0  0  0  0  0  0  0
   39.1260   32.3730   43.8660 N   0  0  0  0  0  0  0  0  0  0  0  0
   40.1910   32.2730   44.6820 C   0  0  0  0  0  0  0  0  0  0  0  0
   40.9340   31.2540   44.2290 N   0  0  0  0  0  0  0  0  0  0  0  0
   40.3390   30.7210   43.1350 C   0  0  0  0  0  0  0  0  0  0  0  0
   40.5970   29.6930   42.2500 C   0  0  0  0  0  0  0  0  0  0  0  0
   39.7820   29.4150   41.2420 N   0  0  0  0  0  0  0  0  0  0  0  0
   38.6590   30.1410   41.0490 C   0  0  0  0  0  0  0  0  0  0  0  0
   38.3800   31.1380   41.8820 N   0  0  0  0  0  0  0  0  0  0  0  0
   39.1870   31.4360   42.9070 C   0  0  0  0  0  0  0  0  0  0  0  0
   41.7990   28.9480   42.4900 N   0  0  0  0  0  0  0  0  0  0  0  0
   37.9298   33.1966   50.3314 H   0  0  0  0  0  0  0  0  0  0  0  0
   39.4229   35.0658   49.6565 H   0  0  0  0  0  0  0  0  0  0  0  0
   40.6637   34.9489   47.5010 H   0  0  0  0  0  0  0  0  0  0  0  0
   35.9115   31.4538   47.5458 H   0  0  0  0  0  0  0  0  0  0  0  0
   38.7763   30.0983   50.4896 H   0  0  0  0  0  0  0  0  0  0  0  0
   35.0784   28.0593   49.9165 H   0  0  0  0  0  0  0  0  0  0  0  0
   39.4505   30.9226   45.6734 H   0  0  0  0  0  0  0  0  0  0  0  0
   38.3724   33.0684   43.9632 H   0  0  0  0  0  0  0  0  0  0  0  0
   37.9836   29.9095   40.2122 H   0  0  0  0  0  0  0  0  0  0  0  0
   42.0536   28.1670   41.8686 H   0  0  0  0  0  0  0  0  0  0  0  0
   42.4075   29.1940   43.2838 H   0  0  0  0  0  0  0  0  0  0  0  0
  1  2  2  0
  2  8  1  0
  2  3  1  0
  4  3  2  0
  5  4  1  0
  6  1  1  0
  6  5  2  0
  7 12  2  0
  7  8  1  0
  8  9  2  0
  9 10  1  0
 11 10  2  0
 12 11  1  0
 13  1  1  0
 14  6  1  0
 15 16  1  0
 16 14  1  0
 17 16  2  0
 18 17  1  0
 19 24  1  0
 19 18  2  0
 20 19  1  0
 21 20  2  0
 21 22  1  0
 22 23  2  0
 23 18  1  0
 23 15  1  0
  3 25  1  0
  4 26  1  0
  5 27  1  0
  7 28  1  0
  9 29  1  0
 11 30  1  0
 13 31  1  0
 15 32  1  0
 21 33  1  0
 24 34  1  0
 24 35  1  0
M  ISO  8  25  14  26  14  27  14  28  14  29  14  30  14  31   3  32   9
M  ISO  1  33  14
M  END
>  <minimizedAffinity>  (1) 
-7.20313454

>  <minimizedRMSD>  (1) 
3.01881289

$$$$
