
     RDKit          3D

 40 43  0  0  0  0  0  0  0  0999 V2000
   38.3360   32.2290   47.4150 C   0  0  0  0  0  0  0  0  0  0  0  0
   38.1570   32.1030   48.7860 C   0  0  0  0  0  0  0  0  0  0  0  0
   38.8560   33.0300   49.5540 C   0  0  0  0  0  0  0  0  0  0  0  0
   39.6700   34.0030   48.9550 C   0  0  0  0  0  0  0  0  0  0  0  0
   39.7990   34.0650   47.5760 C   0  0  0  0  0  0  0  0  0  0  0  0
   39.1140   33.1560   46.8010 C   0  0  0  0  0  0  0  0  0  0  0  0
   35.9390   31.2120   49.3270 C   0  0  0  0  0  0  0  0  0  0  0  0
   37.3280   31.1090   49.3830 C   0  0  0  0  0  0  0  0  0  0  0  0
   37.8640   29.9930   50.0460 C   0  0  0  0  0  0  0  0  0  0  0  0
   37.0070   29.0840   50.5910 N   0  0  0  0  0  0  0  0  0  0  0  0
   35.6680   29.2350   50.5060 C   0  0  0  0  0  0  0  0  0  0  0  0
   35.1330   30.2960   49.8770 N   0  0  0  0  0  0  0  0  0  0  0  0
   37.6770   31.3450   46.5560 O   0  0  0  0  0  0  0  0  0  0  0  0
   39.2540   33.2330   45.4060 O   0  0  0  0  0  0  0  0  0  0  0  0
   36.9950   32.5260   43.5460 Cl  0  0  0  0  0  0  0  0  0  0  0  0
   38.5140   31.6510   43.6530 C   0  0  0  0  0  0  0  0  0  0  0  0
   39.4230   32.1450   44.5790 C   0  0  0  0  0  0  0  0  0  0  0  0
   40.6160   31.4760   44.6790 C   0  0  0  0  0  0  0  0  0  0  0  0
   40.9410   30.3780   43.9300 C   0  0  0  0  0  0  0  0  0  0  0  0
   40.0280   29.9040   43.0180 C   0  0  0  0  0  0  0  0  0  0  0  0
   38.8190   30.5370   42.8790 C   0  0  0  0  0  0  0  0  0  0  0  0
   37.7840   30.1130   41.9420 C   0  0  0  0  0  0  0  0  0  0  0  0
   36.8370   29.1530   42.2330 C   0  0  0  0  0  0  0  0  0  0  0  0
   35.8500   28.7340   41.3660 C   0  0  0  0  0  0  0  0  0  0  0  0
   35.7860   29.2900   40.1430 N   0  0  0  0  0  0  0  0  0  0  0  0
   36.6980   30.2290   39.8340 C   0  0  0  0  0  0  0  0  0  0  0  0
   37.6530   30.6210   40.6940 N   0  0  0  0  0  0  0  0  0  0  0  0
   38.7686   32.9991   50.6501 H   0  0  0  0  0  0  0  0  0  0  0  0
   40.2112   34.7238   49.5856 H   0  0  0  0  0  0  0  0  0  0  0  0
   40.4384   34.8282   47.1084 H   0  0  0  0  0  0  0  0  0  0  0  0
   35.4903   32.0751   48.8135 H   0  0  0  0  0  0  0  0  0  0  0  0
   38.9526   29.8554   50.1238 H   0  0  0  0  0  0  0  0  0  0  0  0
   35.0066   28.4806   50.9570 H   0  0  0  0  0  0  0  0  0  0  0  0
   37.7967   31.4249   45.5765 H   0  0  0  0  0  0  0  0  0  0  0  0
   41.3560   31.8442   45.4049 H   0  0  0  0  0  0  0  0  0  0  0  0
   41.9155   29.8834   44.0554 H   0  0  0  0  0  0  0  0  0  0  0  0
   40.2654   29.0229   42.4038 H   0  0  0  0  0  0  0  0  0  0  0  0
   36.8718   28.6879   43.2292 H   0  0  0  0  0  0  0  0  0  0  0  0
   35.1291   27.9602   41.6687 H   0  0  0  0  0  0  0  0  0  0  0  0
   36.6606   30.6944   38.8380 H   0  0  0  0  0  0  0  0  0  0  0  0
  1  2  2  0
  2  8  1  0
  2  3  1  0
  4  3  2  0
  5  4  1  0
  6  1  1  0
  6  5  2  0
  7  8  2  0
  7 12  1  0
  8  9  1  0
  9 10  2  0
 11 10  1  0
 12 11  2  0
 13  1  1  0
 14  6  1  0
 15 16  1  0
 16 17  2  0
 17 18  1  0
 17 14  1  0
 19 18  2  0
 20 19  1  0
 21 20  2  0
 21 16  1  0
 22 23  2  0
 22 21  1  0
 24 23  1  0
 25 24  2  0
 26 25  1  0
 26 27  2  0
 27 22  1  0
  3 28  1  0
  4 29  1  0
  5 30  1  0
  7 31  1  0
  9 32  1  0
 11 33  1  0
 13 34  1  0
 18 35  1  0
 19 36  1  0
 20 37  1  0
 23 38  1  0
 24 39  1  0
 26 40  1  0
M  ISO  8  28  14  29  14  30  14  31  14  32  14  33  14  34   3  35  14
M  ISO  5  36  14  37  14  38  14  39  14  40  14
M  END
>  <minimizedAffinity>  (1) 
-5.43306303

>  <minimizedRMSD>  (1) 
0.0616716817

$$$$
