
     RDKit          3D

 35 37  0  0  0  0  0  0  0  0999 V2000
   38.3190   32.2270   47.3990 C   0  0  0  0  0  0  0  0  0  0  0  0
   38.1530   32.1050   48.7730 C   0  0  0  0  0  0  0  0  0  0  0  0
   38.8620   33.0200   49.5340 C   0  0  0  0  0  0  0  0  0  0  0  0
   39.6760   33.9790   48.9310 C   0  0  0  0  0  0  0  0  0  0  0  0
   39.7960   34.0430   47.5480 C   0  0  0  0  0  0  0  0  0  0  0  0
   39.1040   33.1500   46.7850 C   0  0  0  0  0  0  0  0  0  0  0  0
   35.9320   31.2060   49.3240 C   0  0  0  0  0  0  0  0  0  0  0  0
   37.3120   31.1110   49.3680 C   0  0  0  0  0  0  0  0  0  0  0  0
   37.8610   29.9860   50.0280 C   0  0  0  0  0  0  0  0  0  0  0  0
   36.9940   29.0750   50.5730 N   0  0  0  0  0  0  0  0  0  0  0  0
   35.6580   29.2260   50.4960 C   0  0  0  0  0  0  0  0  0  0  0  0
   35.1160   30.2960   49.8690 N   0  0  0  0  0  0  0  0  0  0  0  0
   37.6400   31.3450   46.5450 O   0  0  0  0  0  0  0  0  0  0  0  0
   39.2310   33.2230   45.3940 O   0  0  0  0  0  0  0  0  0  0  0  0
   36.9920   32.5360   43.4710 Cl  0  0  0  0  0  0  0  0  0  0  0  0
   38.4920   31.6640   43.5960 C   0  0  0  0  0  0  0  0  0  0  0  0
   39.3950   32.1470   44.5520 C   0  0  0  0  0  0  0  0  0  0  0  0
   40.5940   31.4800   44.6780 C   0  0  0  0  0  0  0  0  0  0  0  0
   40.9320   30.3840   43.9220 C   0  0  0  0  0  0  0  0  0  0  0  0
   40.0370   29.9120   42.9800 C   0  0  0  0  0  0  0  0  0  0  0  0
   38.8230   30.5680   42.8360 C   0  0  0  0  0  0  0  0  0  0  0  0
   37.8360   30.0860   41.8330 C   0  0  0  0  0  0  0  0  0  0  0  0
   38.7819   32.9899   50.6307 H   0  0  0  0  0  0  0  0  0  0  0  0
   40.2297   34.6934   49.5579 H   0  0  0  0  0  0  0  0  0  0  0  0
   40.4385   34.8014   47.0769 H   0  0  0  0  0  0  0  0  0  0  0  0
   35.4836   32.0725   48.8159 H   0  0  0  0  0  0  0  0  0  0  0  0
   38.9497   29.8470   50.1014 H   0  0  0  0  0  0  0  0  0  0  0  0
   34.9990   28.4703   50.9483 H   0  0  0  0  0  0  0  0  0  0  0  0
   37.7505   31.4222   45.5642 H   0  0  0  0  0  0  0  0  0  0  0  0
   41.3178   31.8438   45.4222 H   0  0  0  0  0  0  0  0  0  0  0  0
   41.9033   29.8878   44.0645 H   0  0  0  0  0  0  0  0  0  0  0  0
   40.2815   29.0373   42.3595 H   0  0  0  0  0  0  0  0  0  0  0  0
   36.9643   29.6603   42.3516 H   0  0  0  0  0  0  0  0  0  0  0  0
   37.5128   30.9277   41.2028 H   0  0  0  0  0  0  0  0  0  0  0  0
   38.3010   29.3136   41.2028 H   0  0  0  0  0  0  0  0  0  0  0  0
  1  2  2  0
  2  8  1  0
  2  3  1  0
  4  3  2  0
  5  4  1  0
  6  1  1  0
  6  5  2  0
  7  8  2  0
  7 12  1  0
  8  9  1  0
  9 10  2  0
 11 10  1  0
 12 11  2  0
 13  1  1  0
 14  6  1  0
 15 16  1  0
 16 17  2  0
 17 18  1  0
 17 14  1  0
 19 18  2  0
 20 19  1  0
 21 20  2  0
 21 16  1  0
 22 21  1  0
  3 23  1  0
  4 24  1  0
  5 25  1  0
  7 26  1  0
  9 27  1  0
 11 28  1  0
 13 29  1  0
 18 30  1  0
 19 31  1  0
 20 32  1  0
 22 33  1  0
 22 34  1  0
 22 35  1  0
M  ISO  8  23  14  24  14  25  14  26  14  27  14  28  14  29   3  30  14
M  ISO  5  31  14  32  14  33   8  34   8  35   8
M  END
>  <minimizedAffinity>  (1) 
-5.40089703

>  <minimizedRMSD>  (1) 
0.0114808716

$$$$
