
     RDKit          3D

 38 40  0  0  0  0  0  0  0  0999 V2000
   38.3190   32.2210   47.3980 C   0  0  0  0  0  0  0  0  0  0  0  0
   38.1590   32.1060   48.7820 C   0  0  0  0  0  0  0  0  0  0  0  0
   38.8610   33.0210   49.5370 C   0  0  0  0  0  0  0  0  0  0  0  0
   39.6750   33.9900   48.9350 C   0  0  0  0  0  0  0  0  0  0  0  0
   39.7920   34.0510   47.5680 C   0  0  0  0  0  0  0  0  0  0  0  0
   39.1070   33.1570   46.7870 C   0  0  0  0  0  0  0  0  0  0  0  0
   35.9360   31.2000   49.3280 C   0  0  0  0  0  0  0  0  0  0  0  0
   37.3210   31.1040   49.3790 C   0  0  0  0  0  0  0  0  0  0  0  0
   37.8540   29.9960   50.0350 C   0  0  0  0  0  0  0  0  0  0  0  0
   37.0000   29.0730   50.5870 N   0  0  0  0  0  0  0  0  0  0  0  0
   35.6680   29.2290   50.5010 C   0  0  0  0  0  0  0  0  0  0  0  0
   35.1210   30.3010   49.8660 N   0  0  0  0  0  0  0  0  0  0  0  0
   37.6490   31.3420   46.5430 O   0  0  0  0  0  0  0  0  0  0  0  0
   39.2380   33.2320   45.4050 O   0  0  0  0  0  0  0  0  0  0  0  0
   36.9950   32.5450   43.4870 Cl  0  0  0  0  0  0  0  0  0  0  0  0
   38.5060   31.6640   43.6070 C   0  0  0  0  0  0  0  0  0  0  0  0
   39.4050   32.1550   44.5630 C   0  0  0  0  0  0  0  0  0  0  0  0
   40.6080   31.4860   44.6850 C   0  0  0  0  0  0  0  0  0  0  0  0
   40.9520   30.3970   43.9360 C   0  0  0  0  0  0  0  0  0  0  0  0
   40.0530   29.9180   42.9920 C   0  0  0  0  0  0  0  0  0  0  0  0
   38.8420   30.5600   42.8410 C   0  0  0  0  0  0  0  0  0  0  0  0
   37.7630   30.1910   41.8860 C   0  0  0  0  0  0  0  0  0  0  0  0
   36.9780   28.9910   42.3110 C   0  0  0  0  0  0  0  0  0  0  0  0
   38.7807   32.9900   50.6336 H   0  0  0  0  0  0  0  0  0  0  0  0
   40.2245   34.7073   49.5623 H   0  0  0  0  0  0  0  0  0  0  0  0
   40.4327   34.8141   47.1019 H   0  0  0  0  0  0  0  0  0  0  0  0
   35.4918   32.0659   48.8152 H   0  0  0  0  0  0  0  0  0  0  0  0
   38.9433   29.8626   50.1096 H   0  0  0  0  0  0  0  0  0  0  0  0
   35.0067   28.4751   50.9529 H   0  0  0  0  0  0  0  0  0  0  0  0
   37.7617   31.4227   45.5628 H   0  0  0  0  0  0  0  0  0  0  0  0
   41.3309   31.8520   45.4290 H   0  0  0  0  0  0  0  0  0  0  0  0
   41.9264   29.9067   44.0783 H   0  0  0  0  0  0  0  0  0  0  0  0
   40.3026   29.0418   42.3756 H   0  0  0  0  0  0  0  0  0  0  0  0
   38.2202   29.9801   40.9080 H   0  0  0  0  0  0  0  0  0  0  0  0
   37.0630   31.0385   41.8438 H   0  0  0  0  0  0  0  0  0  0  0  0
   36.9469   28.9434   43.4095 H   0  0  0  0  0  0  0  0  0  0  0  0
   35.9533   29.0652   41.9180 H   0  0  0  0  0  0  0  0  0  0  0  0
   37.4565   28.0818   41.9180 H   0  0  0  0  0  0  0  0  0  0  0  0
  1  2  2  0
  2  8  1  0
  2  3  1  0
  4  3  2  0
  5  4  1  0
  6  1  1  0
  6  5  2  0
  7  8  2  0
  7 12  1  0
  8  9  1  0
  9 10  2  0
 11 10  1  0
 12 11  2  0
 13  1  1  0
 14  6  1  0
 15 16  1  0
 16 17  2  0
 17 18  1  0
 17 14  1  0
 19 18  2  0
 20 19  1  0
 21 20  2  0
 21 16  1  0
 22 23  1  0
 22 21  1  0
  3 24  1  0
  4 25  1  0
  5 26  1  0
  7 27  1  0
  9 28  1  0
 11 29  1  0
 13 30  1  0
 18 31  1  0
 19 32  1  0
 20 33  1  0
 22 34  1  0
 22 35  1  0
 23 36  1  0
 23 37  1  0
 23 38  1  0
M  ISO  8  24  14  25  14  26  14  27  14  28  14  29  14  30   3  31  14
M  ISO  7  32  14  33  14  34   8  35   8  36   8  37   8  38   8
M  END
>  <minimizedAffinity>  (1) 
-5.25533772

>  <minimizedRMSD>  (1) 
0.14486751

$$$$
