
     RDKit          3D

 38 40  0  0  0  0  0  0  0  0999 V2000
   38.3370   32.2270   47.4090 C   0  0  0  0  0  0  0  0  0  0  0  0
   38.1630   32.1070   48.7860 C   0  0  0  0  0  0  0  0  0  0  0  0
   38.8620   33.0340   49.5510 C   0  0  0  0  0  0  0  0  0  0  0  0
   39.6680   34.0020   48.9470 C   0  0  0  0  0  0  0  0  0  0  0  0
   39.7920   34.0590   47.5710 C   0  0  0  0  0  0  0  0  0  0  0  0
   39.1190   33.1620   46.7940 C   0  0  0  0  0  0  0  0  0  0  0  0
   35.9390   31.2110   49.3310 C   0  0  0  0  0  0  0  0  0  0  0  0
   37.3340   31.1100   49.3820 C   0  0  0  0  0  0  0  0  0  0  0  0
   37.8680   29.9960   50.0400 C   0  0  0  0  0  0  0  0  0  0  0  0
   36.9990   29.0830   50.5860 N   0  0  0  0  0  0  0  0  0  0  0  0
   35.6640   29.2370   50.5020 C   0  0  0  0  0  0  0  0  0  0  0  0
   35.1240   30.2980   49.8770 N   0  0  0  0  0  0  0  0  0  0  0  0
   37.6670   31.3270   46.5520 O   0  0  0  0  0  0  0  0  0  0  0  0
   39.2510   33.2280   45.4050 O   0  0  0  0  0  0  0  0  0  0  0  0
   36.9780   32.5130   43.5480 Cl  0  0  0  0  0  0  0  0  0  0  0  0
   38.4980   31.6420   43.6420 C   0  0  0  0  0  0  0  0  0  0  0  0
   39.4070   32.1460   44.5700 C   0  0  0  0  0  0  0  0  0  0  0  0
   40.6150   31.4920   44.6790 C   0  0  0  0  0  0  0  0  0  0  0  0
   40.9540   30.3930   43.9280 C   0  0  0  0  0  0  0  0  0  0  0  0
   40.0450   29.9050   43.0140 C   0  0  0  0  0  0  0  0  0  0  0  0
   38.8310   30.5310   42.8800 C   0  0  0  0  0  0  0  0  0  0  0  0
   37.8000   30.1830   42.0180 O   0  0  0  0  0  0  0  0  0  0  0  0
   35.7220   28.7550   41.2290 O   0  0  0  0  0  0  0  0  0  0  0  0
   36.6860   28.9270   42.3750 P   0  0  0  0  0  0  0  0  0  0  0  0
   37.4930   27.4310   42.5770 O   0  0  0  0  0  0  0  0  0  0  0  0
   35.8060   29.2040   43.7710 O   0  0  0  0  0  0  0  0  0  0  0  0
   38.7792   33.0047   50.6475 H   0  0  0  0  0  0  0  0  0  0  0  0
   40.2098   34.7266   49.5727 H   0  0  0  0  0  0  0  0  0  0  0  0
   40.4303   34.8241   47.1050 H   0  0  0  0  0  0  0  0  0  0  0  0
   35.4923   32.0771   48.8208 H   0  0  0  0  0  0  0  0  0  0  0  0
   38.9562   29.8552   50.1179 H   0  0  0  0  0  0  0  0  0  0  0  0
   35.0035   28.4815   50.9526 H   0  0  0  0  0  0  0  0  0  0  0  0
   37.7807   31.3997   45.5712 H   0  0  0  0  0  0  0  0  0  0  0  0
   41.3476   31.8706   45.4070 H   0  0  0  0  0  0  0  0  0  0  0  0
   41.9345   29.9104   44.0539 H   0  0  0  0  0  0  0  0  0  0  0  0
   40.2893   29.0255   42.4001 H   0  0  0  0  0  0  0  0  0  0  0  0
   37.5963   27.2395   43.5428 H   0  0  0  0  0  0  0  0  0  0  0  0
   36.3752   29.0248   44.5609 H   0  0  0  0  0  0  0  0  0  0  0  0
  1  2  2  0
  2  8  1  0
  2  3  1  0
  4  3  2  0
  5  4  1  0
  6  1  1  0
  6  5  2  0
  7  8  2  0
  7 12  1  0
  8  9  1  0
  9 10  2  0
 11 10  1  0
 12 11  2  0
 13  1  1  0
 14  6  1  0
 15 16  1  0
 16 17  2  0
 17 18  1  0
 17 14  1  0
 19 18  2  0
 20 19  1  0
 21 20  2  0
 21 16  1  0
 22 24  1  0
 22 21  1  0
 23 24  2  0
 24 25  1  0
 24 26  1  0
  3 27  1  0
  4 28  1  0
  5 29  1  0
  7 30  1  0
  9 31  1  0
 11 32  1  0
 13 33  1  0
 18 34  1  0
 19 35  1  0
 20 36  1  0
 25 37  1  0
 26 38  1  0
M  ISO  8  27  14  28  14  29  14  30  14  31  14  32  14  33   3  34  14
M  ISO  4  35  14  36  14  37   3  38   3
M  END
>  <minimizedAffinity>  (1) 
-5.21614838

>  <minimizedRMSD>  (1) 
0.236258253

$$$$
