
     RDKit          3D

 45 49  0  0  1  0  0  0  0  0999 V2000
   35.2990   29.9850   46.3370 C   0  0  0  0  0  0  0  0  0  0  0  0
   35.5930   29.9170   44.9630 C   0  0  0  0  0  0  0  0  0  0  0  0
   36.8360   30.5290   44.7700 C   0  0  0  0  0  0  0  0  0  0  0  0
   37.2360   30.9330   45.9930 N   0  0  0  0  0  0  0  0  0  0  0  0
   36.3190   30.6040   46.9010 N   0  0  0  0  0  0  0  0  0  0  0  0
   38.7850   32.6870   45.4380 N   0  0  0  0  0  0  0  0  0  0  0  0
   39.7600   33.4850   46.1800 C   0  0  0  0  0  0  0  0  0  0  0  0
   39.6340   33.1160   47.6410 C   0  0  0  0  0  0  0  0  0  0  0  0
   38.3240   32.3310   47.6500 C   0  0  0  0  0  0  0  0  0  0  0  0
   38.4360   31.6100   46.3360 C   0  0  1  0  0  0  0  0  0  0  0  0
   39.5020   30.6370   46.4430 N   0  0  0  0  0  0  0  0  0  0  0  0
   34.0290   28.7460   48.0950 C   0  0  0  0  0  0  0  0  0  0  0  0
   34.0760   29.4380   46.8740 C   0  0  0  0  0  0  0  0  0  0  0  0
   32.8820   29.5860   46.1770 C   0  0  0  0  0  0  0  0  0  0  0  0
   31.7480   29.0550   46.7170 N   0  0  0  0  0  0  0  0  0  0  0  0
   31.7470   28.3980   47.8920 C   0  0  0  0  0  0  0  0  0  0  0  0
   32.9070   28.2440   48.5880 N   0  0  0  0  0  0  0  0  0  0  0  0
   29.5530   27.3210   47.5670 C   0  0  0  0  0  0  0  0  0  0  0  0
   30.4980   27.8560   48.4090 C   0  0  0  0  0  0  0  0  0  0  0  0
   30.2840   27.8930   49.7670 C   0  0  0  0  0  0  0  0  0  0  0  0
   29.1430   27.4120   50.3740 C   0  0  0  0  0  0  0  0  0  0  0  0
   28.7460   27.3530   51.6490 N   0  0  0  0  0  0  0  0  0  0  0  0
   27.5230   26.7640   51.5920 C   0  0  0  0  0  0  0  0  0  0  0  0
   27.1470   26.4550   50.3030 C   0  0  0  0  0  0  0  0  0  0  0  0
   28.2020   26.8760   49.5230 C   0  0  0  0  0  0  0  0  0  0  0  0
   28.3970   26.8290   48.1450 C   0  0  0  0  0  0  0  0  0  0  0  0
   34.9615   29.4656   44.1836 H   0  0  0  0  0  0  0  0  0  0  0  0
   37.3747   30.6545   43.8192 H   0  0  0  0  0  0  0  0  0  0  0  0
   37.9547   33.2507   45.2064 H   0  0  0  0  0  0  0  0  0  0  0  0
   40.7764   33.2627   45.8231 H   0  0  0  0  0  0  0  0  0  0  0  0
   39.5717   34.5590   46.0347 H   0  0  0  0  0  0  0  0  0  0  0  0
   40.4776   32.4921   47.9712 H   0  0  0  0  0  0  0  0  0  0  0  0
   39.6417   33.9798   48.3221 H   0  0  0  0  0  0  0  0  0  0  0  0
   38.2751   31.6300   48.4963 H   0  0  0  0  0  0  0  0  0  0  0  0
   37.4188   32.9458   47.7629 H   0  0  0  0  0  0  0  0  0  0  0  0
   39.7019   30.4546   47.4368 H   0  0  0  0  0  0  0  0  0  0  0  0
   39.2144   29.7608   45.9842 H   0  0  0  0  0  0  0  0  0  0  0  0
   34.9610   28.6157   48.6645 H   0  0  0  0  0  0  0  0  0  0  0  0
   32.8529   30.1178   45.2146 H   0  0  0  0  0  0  0  0  0  0  0  0
   29.7095   27.2856   46.4788 H   0  0  0  0  0  0  0  0  0  0  0  0
   31.0664   28.3306   50.4044 H   0  0  0  0  0  0  0  0  0  0  0  0
   29.2521   27.6797   52.4845 H   0  0  0  0  0  0  0  0  0  0  0  0
   26.9023   26.5569   52.4762 H   0  0  0  0  0  0  0  0  0  0  0  0
   26.2129   25.9785   49.9707 H   0  0  0  0  0  0  0  0  0  0  0  0
   27.6169   26.3923   47.5042 H   0  0  0  0  0  0  0  0  0  0  0  0
  1 13  1  0
  1  5  2  0
  2  1  1  0
  3  2  2  0
  3  4  1  0
  4 10  1  0
  4  5  1  0
  6  7  1  0
  6 10  1  0
  7  8  1  0
  8  9  1  0
 10 11  1  1
 10  9  1  0
 12 17  2  0
 13 12  1  0
 14 15  1  0
 14 13  2  0
 15 16  2  0
 16 19  1  0
 16 17  1  0
 18 26  2  0
 18 19  1  0
 19 20  2  0
 20 21  1  0
 21 22  1  0
 23 22  1  0
 24 23  2  0
 25 24  1  0
 25 21  2  0
 26 25  1  0
  2 27  1  0
  3 28  1  0
  6 29  1  0
  7 30  1  0
  7 31  1  0
  8 32  1  0
  8 33  1  0
  9 34  1  0
  9 35  1  0
 11 36  1  0
 11 37  1  0
 12 38  1  0
 14 39  1  0
 18 40  1  0
 20 41  1  0
 22 42  1  0
 23 43  1  0
 24 44  1  0
 26 45  1  0
M  ISO  8  27  14  28  14  29   5  30  13  31  13  32  13  33  13  34  13
M  ISO  8  35  13  36   5  37   5  38  14  39  14  40  14  41  14  42   9
M  ISO  3  43  14  44  14  45  14
M  END
>  <minimizedAffinity>  (1) 
-6.13011599

>  <minimizedRMSD>  (1) 
1.61787057

$$$$
