
     RDKit          3D

 22 23  0  0  0  0  0  0  0  0999 V2000
   38.1010   32.4110   48.6840 C   0  0  0  0  0  0  0  0  0  0  0  0
   38.1580   33.6230   48.9680 O   0  0  0  0  0  0  0  0  0  0  0  0
   37.3690   29.8470   51.2990 C   0  0  0  0  0  0  0  0  0  0  0  0
   38.0490   30.8050   50.5430 C   0  0  0  0  0  0  0  0  0  0  0  0
   37.4120   31.4190   49.4740 C   0  0  0  0  0  0  0  0  0  0  0  0
   36.1380   31.0510   49.2130 N   0  0  0  0  0  0  0  0  0  0  0  0
   35.4950   30.1200   49.9590 C   0  0  0  0  0  0  0  0  0  0  0  0
   36.1000   29.5240   50.9880 N   0  0  0  0  0  0  0  0  0  0  0  0
   40.1400   34.3540   47.8130 Cl  0  0  0  0  0  0  0  0  0  0  0  0
   39.7810   32.8840   46.9390 C   0  0  0  0  0  0  0  0  0  0  0  0
   38.8040   32.0580   47.4530 C   0  0  0  0  0  0  0  0  0  0  0  0
   38.5400   30.8960   46.7370 C   0  0  0  0  0  0  0  0  0  0  0  0
   39.2370   30.6170   45.5810 C   0  0  0  0  0  0  0  0  0  0  0  0
   40.2100   31.4600   45.0890 C   0  0  0  0  0  0  0  0  0  0  0  0
   40.4940   32.6280   45.7850 C   0  0  0  0  0  0  0  0  0  0  0  0
   37.8700   29.3574   52.1471 H   0  0  0  0  0  0  0  0  0  0  0  0
   39.0861   31.0718   50.7944 H   0  0  0  0  0  0  0  0  0  0  0  0
   34.4573   29.8513   49.7121 H   0  0  0  0  0  0  0  0  0  0  0  0
   37.7709   30.1956   47.0948 H   0  0  0  0  0  0  0  0  0  0  0  0
   39.0091   29.6908   45.0330 H   0  0  0  0  0  0  0  0  0  0  0  0
   40.7509   31.2128   44.1636 H   0  0  0  0  0  0  0  0  0  0  0  0
   41.2637   33.3278   45.4275 H   0  0  0  0  0  0  0  0  0  0  0  0
  1  2  2  0
  1  5  1  0
  4  3  2  0
  5  4  1  0
  6  5  2  0
  6  7  1  0
  7  8  2  0
  8  3  1  0
 10 11  2  0
 10  9  1  0
 11  1  1  0
 12 11  1  0
 13 12  2  0
 14 13  1  0
 14 15  2  0
 15 10  1  0
  3 16  1  0
  4 17  1  0
  7 18  1  0
 12 19  1  0
 13 20  1  0
 14 21  1  0
 15 22  1  0
M  ISO  7  16  14  17  14  18  14  19  14  20  14  21  14  22  14
M  END
>  <minimizedAffinity>  (1) 
-5.62165022

>  <minimizedRMSD>  (1) 
2.19996285

$$$$
