
     RDKit          3D

 21 22  0  0  0  0  0  0  0  0999 V2000
   38.7260   32.5860   48.3900 C   0  0  0  0  0  0  0  0  0  0  0  0
   39.0810   33.7220   48.8220 O   0  0  0  0  0  0  0  0  0  0  0  0
   37.4580   30.2380   50.9920 C   0  0  0  0  0  0  0  0  0  0  0  0
   38.3120   31.1100   50.2990 C   0  0  0  0  0  0  0  0  0  0  0  0
   37.8630   31.6870   49.1190 C   0  0  0  0  0  0  0  0  0  0  0  0
   36.6010   31.3730   48.6910 N   0  0  0  0  0  0  0  0  0  0  0  0
   35.8110   30.5350   49.3820 C   0  0  0  0  0  0  0  0  0  0  0  0
   36.2280   29.9710   50.5170 N   0  0  0  0  0  0  0  0  0  0  0  0
   39.2560   32.2270   47.0780 C   0  0  0  0  0  0  0  0  0  0  0  0
   39.9160   33.1690   46.3150 C   0  0  0  0  0  0  0  0  0  0  0  0
   40.4470   32.8970   45.0560 C   0  0  0  0  0  0  0  0  0  0  0  0
   40.3090   31.6090   44.5290 C   0  0  0  0  0  0  0  0  0  0  0  0
   39.6380   30.6900   45.3280 C   0  0  0  0  0  0  0  0  0  0  0  0
   39.1320   30.9890   46.5530 N   0  0  0  0  0  0  0  0  0  0  0  0
   37.7962   29.7704   51.9285 H   0  0  0  0  0  0  0  0  0  0  0  0
   39.3183   31.3320   50.6838 H   0  0  0  0  0  0  0  0  0  0  0  0
   34.8023   30.3096   49.0055 H   0  0  0  0  0  0  0  0  0  0  0  0
   40.0283   34.1851   46.7212 H   0  0  0  0  0  0  0  0  0  0  0  0
   40.9659   33.6819   44.4862 H   0  0  0  0  0  0  0  0  0  0  0  0
   40.7080   31.3388   43.5402 H   0  0  0  0  0  0  0  0  0  0  0  0
   39.5099   29.6657   44.9479 H   0  0  0  0  0  0  0  0  0  0  0  0
  1  2  2  0
  1  5  1  0
  4  3  2  0
  5  4  1  0
  6  5  2  0
  6  7  1  0
  7  8  2  0
  8  3  1  0
  9  1  1  0
 10  9  2  0
 11 10  1  0
 12 11  2  0
 12 13  1  0
 13 14  2  0
 14  9  1  0
  3 15  1  0
  4 16  1  0
  7 17  1  0
 10 18  1  0
 11 19  1  0
 12 20  1  0
 13 21  1  0
M  ISO  7  15  14  16  14  17  14  18  14  19  14  20  14  21  14
M  END
>  <minimizedAffinity>  (1) 
-5.2635932

>  <minimizedRMSD>  (1) 
2.24982262

$$$$
