
     RDKit          3D

 25 26  0  0  1  0  0  0  0  0999 V2000
   38.2920   32.3940   47.3540 C   0  0  2  0  0  0  0  0  0  0  0  0
   39.2010   31.2120   46.8580 C   0  0  0  0  0  0  0  0  0  0  0  0
   39.5180   32.6730   46.6290 C   0  0  1  0  0  0  0  0  0  0  0  0
   38.2900   32.3980   48.8560 C   0  0  0  0  0  0  0  0  0  0  0  0
   39.0050   33.2700   49.4690 O   0  0  0  0  0  0  0  0  0  0  0  0
   37.2450   29.8030   51.3470 C   0  0  0  0  0  0  0  0  0  0  0  0
   37.9920   30.7610   50.6800 C   0  0  0  0  0  0  0  0  0  0  0  0
   37.4920   31.4190   49.5670 C   0  0  0  0  0  0  0  0  0  0  0  0
   36.2620   31.0890   49.1710 N   0  0  0  0  0  0  0  0  0  0  0  0
   35.5390   30.1460   49.8380 C   0  0  0  0  0  0  0  0  0  0  0  0
   36.0040   29.5080   50.9040 N   0  0  0  0  0  0  0  0  0  0  0  0
   39.6160   33.2240   45.3900 O   0  0  0  0  0  0  0  0  0  0  0  0
   39.1370   33.1290   42.7850 O   0  0  0  0  0  0  0  0  0  0  0  0
   38.8370   32.5130   44.1340 P   0  0  0  0  0  0  0  0  0  0  0  0
   39.0990   30.8540   43.9770 O   0  0  0  0  0  0  0  0  0  0  0  0
   37.1660   32.6860   44.3840 O   0  0  0  0  0  0  0  0  0  0  0  0
   37.2753   32.7925   47.2218 H   0  0  0  0  0  0  0  0  0  0  0  0
   39.7868   30.6169   47.5740 H   0  0  0  0  0  0  0  0  0  0  0  0
   39.0760   30.3135   46.2358 H   0  0  0  0  0  0  0  0  0  0  0  0
   40.3723   33.3279   46.8555 H   0  0  0  0  0  0  0  0  0  0  0  0
   37.6583   29.2888   52.2272 H   0  0  0  0  0  0  0  0  0  0  0  0
   39.0022   31.0042   51.0411 H   0  0  0  0  0  0  0  0  0  0  0  0
   34.5283   29.9039   49.4777 H   0  0  0  0  0  0  0  0  0  0  0  0
   39.1638   30.4437   44.8756 H   0  0  0  0  0  0  0  0  0  0  0  0
   36.9780   32.7055   45.3558 H   0  0  0  0  0  0  0  0  0  0  0  0
  1  4  1  0
  2  1  1  0
  3  2  1  0
  3  1  1  0
  4  5  2  0
  4  8  1  0
  7  6  2  0
  8  7  1  0
  9  8  2  0
  9 10  1  0
 10 11  2  0
 11  6  1  0
 12  3  1  0
 13 14  2  0
 14 16  1  0
 14 12  1  0
 15 14  1  0
  1 17  1  6
  2 18  1  0
  2 19  1  0
  3 20  1  1
  6 21  1  0
  7 22  1  0
 10 23  1  0
 15 24  1  0
 16 25  1  0
M  ISO  8  17  13  18  13  19  13  20  13  21  14  22  14  23  14  24   3
M  ISO  1  25   3
M  END
>  <minimizedAffinity>  (1) 
-5.30487633

>  <minimizedRMSD>  (1) 
0.418142021

$$$$
