
     RDKit          3D

 26 28  0  0  1  0  0  0  0  0999 V2000
   38.0760   32.0110   47.0570 C   0  0  2  0  0  0  0  0  0  0  0  0
   39.3210   31.1220   46.6660 C   0  0  0  0  0  0  0  0  0  0  0  0
   39.0980   32.5470   46.1780 C   0  0  1  0  0  0  0  0  0  0  0  0
   38.8670   32.6970   44.7190 C   0  0  0  0  0  0  0  0  0  0  0  0
   37.7030   32.4510   44.0190 C   0  0  0  0  0  0  0  0  0  0  0  0
   37.9870   32.7340   42.7150 N   0  0  0  0  0  0  0  0  0  0  0  0
   39.2610   33.1390   42.5920 C   0  0  0  0  0  0  0  0  0  0  0  0
   39.7890   33.1110   43.8290 N   0  0  0  0  0  0  0  0  0  0  0  0
   38.1190   32.2670   48.5310 C   0  0  0  0  0  0  0  0  0  0  0  0
   38.7790   33.2810   48.9520 O   0  0  0  0  0  0  0  0  0  0  0  0
   37.4110   29.9890   51.4150 C   0  0  0  0  0  0  0  0  0  0  0  0
   38.0490   30.8860   50.5710 C   0  0  0  0  0  0  0  0  0  0  0  0
   37.4300   31.3650   49.4270 C   0  0  0  0  0  0  0  0  0  0  0  0
   36.2000   30.9130   49.1980 N   0  0  0  0  0  0  0  0  0  0  0  0
   35.5790   30.0420   50.0180 C   0  0  0  0  0  0  0  0  0  0  0  0
   36.1620   29.5720   51.1220 N   0  0  0  0  0  0  0  0  0  0  0  0
   36.9802   32.0272   46.9625 H   0  0  0  0  0  0  0  0  0  0  0  0
   40.1048   30.8976   47.4045 H   0  0  0  0  0  0  0  0  0  0  0  0
   39.4905   30.1354   46.2100 H   0  0  0  0  0  0  0  0  0  0  0  0
   39.6583   33.4926   46.2221 H   0  0  0  0  0  0  0  0  0  0  0  0
   36.7444   32.0994   44.4281 H   0  0  0  0  0  0  0  0  0  0  0  0
   37.3189   32.6490   41.9357 H   0  0  0  0  0  0  0  0  0  0  0  0
   39.7718   33.4350   41.6639 H   0  0  0  0  0  0  0  0  0  0  0  0
   37.9203   29.6200   52.3175 H   0  0  0  0  0  0  0  0  0  0  0  0
   39.0670   31.2241   50.8145 H   0  0  0  0  0  0  0  0  0  0  0  0
   34.5606   29.7086   49.7694 H   0  0  0  0  0  0  0  0  0  0  0  0
  1  9  1  0
  2  1  1  0
  3  2  1  0
  3  1  1  0
  4  3  1  0
  5  4  2  0
  6  5  1  0
  7  6  1  0
  7  8  2  0
  8  4  1  0
  9 10  2  0
  9 13  1  0
 12 11  2  0
 13 12  1  0
 14 13  2  0
 14 15  1  0
 15 16  2  0
 16 11  1  0
  1 17  1  6
  2 18  1  0
  2 19  1  0
  3 20  1  1
  5 21  1  0
  6 22  1  0
  7 23  1  0
 11 24  1  0
 12 25  1  0
 15 26  1  0
M  ISO  8  17  13  18  13  19  13  20  13  21  14  22   9  23  14  24  14
M  ISO  2  25  14  26  14
M  END
>  <minimizedAffinity>  (1) 
-5.28014231

>  <minimizedRMSD>  (1) 
0.581564128

$$$$
