
     RDKit          3D

 21 22  0  0  1  0  0  0  0  0999 V2000
   38.2840   32.3910   48.8810 C   0  0  0  0  0  0  0  0  0  0  0  0
   39.0030   33.2650   49.4780 O   0  0  0  0  0  0  0  0  0  0  0  0
   37.2400   29.7920   51.3560 C   0  0  0  0  0  0  0  0  0  0  0  0
   38.0070   30.7520   50.7070 C   0  0  0  0  0  0  0  0  0  0  0  0
   37.4830   31.4150   49.5920 C   0  0  0  0  0  0  0  0  0  0  0  0
   36.2520   31.0850   49.2050 N   0  0  0  0  0  0  0  0  0  0  0  0
   35.5240   30.1430   49.8560 C   0  0  0  0  0  0  0  0  0  0  0  0
   35.9970   29.4950   50.9220 N   0  0  0  0  0  0  0  0  0  0  0  0
   38.2870   32.3820   47.3840 C   0  0  2  0  0  0  0  0  0  0  0  0
   39.2350   31.2240   46.8930 C   0  0  0  0  0  0  0  0  0  0  0  0
   39.4740   32.7000   46.6160 C   0  0  1  0  0  0  0  0  0  0  0  0
   39.2390   33.1730   45.2470 N   0  0  0  0  0  0  0  0  0  0  0  0
   37.6501   29.2688   52.2324 H   0  0  0  0  0  0  0  0  0  0  0  0
   39.0189   30.9889   51.0674 H   0  0  0  0  0  0  0  0  0  0  0  0
   34.5127   29.9063   49.4937 H   0  0  0  0  0  0  0  0  0  0  0  0
   37.2574   32.7519   47.2692 H   0  0  0  0  0  0  0  0  0  0  0  0
   39.8689   30.6770   47.6064 H   0  0  0  0  0  0  0  0  0  0  0  0
   39.1348   30.3030   46.3000 H   0  0  0  0  0  0  0  0  0  0  0  0
   40.3380   33.3597   46.7839 H   0  0  0  0  0  0  0  0  0  0  0  0
   38.7809   34.0951   45.2762 H   0  0  0  0  0  0  0  0  0  0  0  0
   40.1387   33.2522   44.7519 H   0  0  0  0  0  0  0  0  0  0  0  0
  1  2  2  0
  1  5  1  0
  4  3  2  0
  5  4  1  0
  6  5  2  0
  6  7  1  0
  7  8  2  0
  8  3  1  0
  9  1  1  0
 10  9  1  0
 11 10  1  0
 11  9  1  0
 12 11  1  0
  3 13  1  0
  4 14  1  0
  7 15  1  0
  9 16  1  6
 10 17  1  0
 10 18  1  0
 11 19  1  1
 12 20  1  0
 12 21  1  0
M  ISO  8  13  14  14  14  15  14  16  13  17  13  18  13  19  13  20   5
M  ISO  1  21   5
M  END
>  <minimizedAffinity>  (1) 
-4.6685853

>  <minimizedRMSD>  (1) 
0.274200618

$$$$
