
     RDKit          3D

 28 30  0  0  1  0  0  0  0  0999 V2000
   37.8760   31.9680   47.4070 C   0  0  2  0  0  0  0  0  0  0  0  0
   38.3370   30.4680   47.2090 C   0  0  0  0  0  0  0  0  0  0  0  0
   39.1710   31.6770   46.8190 C   0  0  1  0  0  0  0  0  0  0  0  0
   39.4550   31.7940   45.3840 C   0  0  0  0  0  0  0  0  0  0  0  0
   39.2450   32.9980   44.7370 C   0  0  0  0  0  0  0  0  0  0  0  0
   39.5270   33.0600   43.3950 C   0  0  0  0  0  0  0  0  0  0  0  0
   40.0020   31.9800   42.6870 C   0  0  0  0  0  0  0  0  0  0  0  0
   40.2000   30.7930   43.3610 C   0  0  0  0  0  0  0  0  0  0  0  0
   39.9250   30.7280   44.6760 N   0  0  0  0  0  0  0  0  0  0  0  0
   37.7390   32.2290   48.8710 C   0  0  0  0  0  0  0  0  0  0  0  0
   38.2440   33.3130   49.3350 O   0  0  0  0  0  0  0  0  0  0  0  0
   37.0770   29.7600   51.5980 C   0  0  0  0  0  0  0  0  0  0  0  0
   37.7110   30.7050   50.8060 C   0  0  0  0  0  0  0  0  0  0  0  0
   37.0600   31.2610   49.7010 C   0  0  0  0  0  0  0  0  0  0  0  0
   35.8220   30.8480   49.4470 N   0  0  0  0  0  0  0  0  0  0  0  0
   35.2170   29.9130   50.2450 C   0  0  0  0  0  0  0  0  0  0  0  0
   35.8210   29.3720   51.3020 N   0  0  0  0  0  0  0  0  0  0  0  0
   37.0915   32.6679   47.0836 H   0  0  0  0  0  0  0  0  0  0  0  0
   38.6171   29.8481   48.0734 H   0  0  0  0  0  0  0  0  0  0  0  0
   37.9469   29.5685   46.7103 H   0  0  0  0  0  0  0  0  0  0  0  0
   40.1608   32.0860   47.0699 H   0  0  0  0  0  0  0  0  0  0  0  0
   38.8649   33.8763   45.2794 H   0  0  0  0  0  0  0  0  0  0  0  0
   39.3670   34.0104   42.8648 H   0  0  0  0  0  0  0  0  0  0  0  0
   40.2182   32.0611   41.6115 H   0  0  0  0  0  0  0  0  0  0  0  0
   40.5790   29.9083   42.8284 H   0  0  0  0  0  0  0  0  0  0  0  0
   37.5978   29.3283   52.4654 H   0  0  0  0  0  0  0  0  0  0  0  0
   38.7363   31.0203   51.0496 H   0  0  0  0  0  0  0  0  0  0  0  0
   34.1917   29.5964   50.0033 H   0  0  0  0  0  0  0  0  0  0  0  0
  1 10  1  0
  2  1  1  0
  3  2  1  0
  3  1  1  0
  4  3  1  0
  5  4  2  0
  6  5  1  0
  7  8  1  0
  7  6  2  0
  8  9  2  0
  9  4  1  0
 10 11  2  0
 10 14  1  0
 13 12  2  0
 14 13  1  0
 15 14  2  0
 15 16  1  0
 16 17  2  0
 17 12  1  0
  1 18  1  6
  2 19  1  0
  2 20  1  0
  3 21  1  1
  5 22  1  0
  6 23  1  0
  7 24  1  0
  8 25  1  0
 12 26  1  0
 13 27  1  0
 16 28  1  0
M  ISO  8  18  13  19  13  20  13  21  13  22  14  23  14  24  14  25  14
M  ISO  3  26  14  27  14  28  14
M  END
>  <minimizedAffinity>  (1) 
-5.46325064

>  <minimizedRMSD>  (1) 
1.08267474

$$$$
