
     RDKit          3D

 43 46  0  0  1  0  0  0  0  0999 V2000
   38.5650   32.4850   48.0660 C   0  0  0  0  0  0  0  0  0  0  0  0
   39.3440   33.4490   48.4220 O   0  0  0  0  0  0  0  0  0  0  0  0
   37.7270   30.4450   51.0710 C   0  0  0  0  0  0  0  0  0  0  0  0
   38.3970   31.2220   50.1530 C   0  0  0  0  0  0  0  0  0  0  0  0
   37.7830   31.7050   48.9790 C   0  0  0  0  0  0  0  0  0  0  0  0
   36.5300   31.3740   48.8060 N   0  0  0  0  0  0  0  0  0  0  0  0
   35.8720   30.5990   49.7280 C   0  0  0  0  0  0  0  0  0  0  0  0
   36.4350   30.1360   50.8350 N   0  0  0  0  0  0  0  0  0  0  0  0
   34.3100   30.0260   47.9130 C   0  0  2  0  0  0  0  0  0  0  0  0
   34.4450   30.3090   49.3820 C   0  0  1  0  0  0  0  0  0  0  0  0
   33.9360   29.2490   50.0770 O   0  0  0  0  0  0  0  0  0  0  0  0
   33.6690   28.2020   49.2340 C   0  0  0  0  0  0  0  0  0  0  0  0
   33.4340   28.8110   47.8690 C   0  0  2  0  0  0  0  0  0  0  0  0
   35.5370   29.7790   47.2970 O   0  0  0  0  0  0  0  0  0  0  0  0
   33.8300   27.9150   46.8770 O   0  0  0  0  0  0  0  0  0  0  0  0
   38.4720   32.1440   46.6010 C   0  0  2  0  0  0  0  0  0  0  0  0
   38.8870   30.6170   46.4360 C   0  0  0  0  0  0  0  0  0  0  0  0
   39.6330   31.7940   45.8520 C   0  0  1  0  0  0  0  0  0  0  0  0
   39.7560   31.7980   44.3930 C   0  0  0  0  0  0  0  0  0  0  0  0
   39.1850   32.8580   43.6960 C   0  0  0  0  0  0  0  0  0  0  0  0
   39.3050   32.8490   42.3310 C   0  0  0  0  0  0  0  0  0  0  0  0
   39.9630   31.8340   41.6520 C   0  0  0  0  0  0  0  0  0  0  0  0
   40.5110   30.8080   42.3780 C   0  0  0  0  0  0  0  0  0  0  0  0
   40.4000   30.8100   43.7200 N   0  0  0  0  0  0  0  0  0  0  0  0
   39.3974   31.7736   48.1711 H   0  0  0  0  0  0  0  0  0  0  0  0
   39.3814   33.4953   49.4102 H   0  0  0  0  0  0  0  0  0  0  0  0
   38.2343   30.0837   51.9777 H   0  0  0  0  0  0  0  0  0  0  0  0
   39.4505   31.4755   50.3423 H   0  0  0  0  0  0  0  0  0  0  0  0
   33.8957   30.8865   47.3672 H   0  0  0  0  0  0  0  0  0  0  0  0
   33.8731   31.2068   49.6592 H   0  0  0  0  0  0  0  0  0  0  0  0
   34.5240   27.5106   49.2014 H   0  0  0  0  0  0  0  0  0  0  0  0
   32.7950   27.6263   49.5728 H   0  0  0  0  0  0  0  0  0  0  0  0
   32.3845   29.0512   47.6435 H   0  0  0  0  0  0  0  0  0  0  0  0
   36.2313   29.6392   47.9887 H   0  0  0  0  0  0  0  0  0  0  0  0
   34.1922   27.0955   47.2980 H   0  0  0  0  0  0  0  0  0  0  0  0
   37.6594   32.8437   46.3560 H   0  0  0  0  0  0  0  0  0  0  0  0
   39.3013   30.0502   47.2828 H   0  0  0  0  0  0  0  0  0  0  0  0
   38.4249   29.6895   46.0668 H   0  0  0  0  0  0  0  0  0  0  0  0
   40.6402   32.2306   45.9215 H   0  0  0  0  0  0  0  0  0  0  0  0
   38.6588   33.6700   44.2192 H   0  0  0  0  0  0  0  0  0  0  0  0
   38.8643   33.6752   41.7537 H   0  0  0  0  0  0  0  0  0  0  0  0
   40.0434   31.8518   40.5551 H   0  0  0  0  0  0  0  0  0  0  0  0
   41.0380   29.9885   41.8674 H   0  0  0  0  0  0  0  0  0  0  0  0
  1  2  1  0
  1  5  1  0
  4  3  2  0
  5  4  1  0
  6  5  2  0
  6  7  1  0
  7  8  2  0
  8  3  1  0
  9 14  1  0
  9 10  1  0
 10  7  1  0
 10 11  1  0
 12 11  1  0
 13 15  1  0
 13  9  1  0
 13 12  1  0
 16  1  1  0
 17 16  1  0
 18 17  1  0
 18 16  1  0
 19 18  1  0
 20 19  2  0
 21 20  1  0
 22 21  2  0
 22 23  1  0
 23 24  2  0
 24 19  1  0
  1 25  1  0
  2 26  1  0
  3 27  1  0
  4 28  1  0
  9 29  1  6
 10 30  1  6
 12 31  1  0
 12 32  1  0
 13 33  1  6
 14 34  1  0
 15 35  1  0
 16 36  1  6
 17 37  1  0
 17 38  1  0
 18 39  1  1
 20 40  1  0
 21 41  1  0
 22 42  1  0
 23 43  1  0
M  ISO  8  25   8  26   3  27  14  28  14  29  13  30  13  31  13  32  13
M  ISO  8  33  13  34   3  35   3  36  13  37  13  38  13  39  13  40  14
M  ISO  3  41  14  42  14  43  14
M  END
>  <minimizedAffinity>  (1) 
-6.41041946

>  <minimizedRMSD>  (1) 
1.14586627

$$$$
