
     RDKit          3D

 42 45  0  0  1  0  0  0  0  0999 V2000
   38.8580   31.6500   46.1270 C   0  0  2  0  0  0  0  0  0  0  0  0
   40.3320   31.0750   45.9380 C   0  0  0  0  0  0  0  0  0  0  0  0
   39.7520   32.2440   45.1860 C   0  0  1  0  0  0  0  0  0  0  0  0
   39.7020   32.0880   43.7310 C   0  0  0  0  0  0  0  0  0  0  0  0
   38.9840   33.0340   43.0050 C   0  0  0  0  0  0  0  0  0  0  0  0
   38.9430   32.8770   41.6470 C   0  0  0  0  0  0  0  0  0  0  0  0
   39.5720   31.8410   40.9930 C   0  0  0  0  0  0  0  0  0  0  0  0
   40.2770   30.9180   41.7500 C   0  0  0  0  0  0  0  0  0  0  0  0
   40.3190   31.0700   43.0860 N   0  0  0  0  0  0  0  0  0  0  0  0
   38.7690   32.1810   47.5380 C   0  0  0  0  0  0  0  0  0  0  0  0
   39.4240   33.2560   47.8350 O   0  0  0  0  0  0  0  0  0  0  0  0
   37.6620   30.7190   50.7840 C   0  0  0  0  0  0  0  0  0  0  0  0
   38.3580   31.4150   49.8240 C   0  0  0  0  0  0  0  0  0  0  0  0
   37.9640   31.4520   48.4710 C   0  0  0  0  0  0  0  0  0  0  0  0
   36.8840   30.7810   48.1680 N   0  0  0  0  0  0  0  0  0  0  0  0
   36.1940   30.0870   49.1370 C   0  0  0  0  0  0  0  0  0  0  0  0
   36.5640   30.0500   50.4130 N   0  0  0  0  0  0  0  0  0  0  0  0
   35.0170   29.3730   48.7310 N   0  0  0  0  0  0  0  0  0  0  0  0
   34.4890   28.1710   49.3150 C   0  0  0  0  0  0  0  0  0  0  0  0
   34.0210   27.3870   48.1220 C   0  0  0  0  0  0  0  0  0  0  0  0
   33.4230   28.4630   47.2440 C   0  0  0  0  0  0  0  0  0  0  0  0
   34.1150   29.7230   47.6400 C   0  0  0  0  0  0  0  0  0  0  0  0
   37.8021   31.3621   46.0163 H   0  0  0  0  0  0  0  0  0  0  0  0
   41.0999   31.2266   46.7109 H   0  0  0  0  0  0  0  0  0  0  0  0
   40.7962   30.1081   45.6938 H   0  0  0  0  0  0  0  0  0  0  0  0
   39.9784   33.3119   45.0505 H   0  0  0  0  0  0  0  0  0  0  0  0
   38.4720   33.8713   43.5018 H   0  0  0  0  0  0  0  0  0  0  0  0
   38.3823   33.6114   41.0502 H   0  0  0  0  0  0  0  0  0  0  0  0
   39.5165   31.7483   39.8983 H   0  0  0  0  0  0  0  0  0  0  0  0
   40.7933   30.0756   41.2664 H   0  0  0  0  0  0  0  0  0  0  0  0
   39.6398   31.5719   47.8221 H   0  0  0  0  0  0  0  0  0  0  0  0
   39.4796   33.3472   48.8192 H   0  0  0  0  0  0  0  0  0  0  0  0
   37.9993   30.7123   51.8310 H   0  0  0  0  0  0  0  0  0  0  0  0
   39.2610   31.9666   50.1246 H   0  0  0  0  0  0  0  0  0  0  0  0
   35.2689   27.6242   49.8652 H   0  0  0  0  0  0  0  0  0  0  0  0
   33.6900   28.3616   50.0466 H   0  0  0  0  0  0  0  0  0  0  0  0
   34.8615   26.8850   47.6205 H   0  0  0  0  0  0  0  0  0  0  0  0
   33.3157   26.5812   48.3735 H   0  0  0  0  0  0  0  0  0  0  0  0
   32.3403   28.5463   47.4198 H   0  0  0  0  0  0  0  0  0  0  0  0
   33.5555   28.2408   46.1749 H   0  0  0  0  0  0  0  0  0  0  0  0
   34.6848   30.1271   46.7903 H   0  0  0  0  0  0  0  0  0  0  0  0
   33.3936   30.4929   47.9510 H   0  0  0  0  0  0  0  0  0  0  0  0
  1 10  1  0
  2  1  1  0
  3  2  1  0
  3  1  1  0
  4  3  1  0
  5  4  2  0
  6  5  1  0
  7  6  2  0
  7  8  1  0
  8  9  2  0
  9  4  1  0
 10 11  1  0
 10 14  1  0
 13 12  2  0
 14 13  1  0
 15 14  2  0
 15 16  1  0
 16 17  2  0
 17 12  1  0
 18 16  1  0
 18 19  1  0
 20 19  1  0
 21 22  1  0
 21 20  1  0
 22 18  1  0
  1 23  1  6
  2 24  1  0
  2 25  1  0
  3 26  1  6
  5 27  1  0
  6 28  1  0
  7 29  1  0
  8 30  1  0
 10 31  1  0
 11 32  1  0
 12 33  1  0
 13 34  1  0
 19 35  1  0
 19 36  1  0
 20 37  1  0
 20 38  1  0
 21 39  1  0
 21 40  1  0
 22 41  1  0
 22 42  1  0
M  ISO  8  23  13  24  13  25  13  26  13  27  14  28  14  29  14  30  14
M  ISO  8  31   8  32   3  33  14  34  14  35  13  36  13  37  13  38  13
M  ISO  4  39  13  40  13  41  13  42  13
M  END
>  <minimizedAffinity>  (1) 
-6.32056713

>  <minimizedRMSD>  (1) 
1.74336505

$$$$
