
     RDKit          3D

 30 32  0  0  1  0  0  0  0  0999 V2000
   37.8850   31.9770   47.4230 C   0  0  2  0  0  0  0  0  0  0  0  0
   38.1370   30.5010   47.1400 C   0  0  0  0  0  0  0  0  0  0  0  0
   39.1830   31.5800   46.8270 C   0  0  1  0  0  0  0  0  0  0  0  0
   39.4410   31.7500   45.3940 C   0  0  0  0  0  0  0  0  0  0  0  0
   38.9270   32.8330   44.6820 C   0  0  0  0  0  0  0  0  0  0  0  0
   39.2080   32.9280   43.3420 C   0  0  0  0  0  0  0  0  0  0  0  0
   39.9740   31.9990   42.6880 C   0  0  0  0  0  0  0  0  0  0  0  0
   40.4750   30.9280   43.4180 C   0  0  0  0  0  0  0  0  0  0  0  0
   40.1960   30.8360   44.7390 N   0  0  0  0  0  0  0  0  0  0  0  0
   37.7940   32.2470   48.8940 C   0  0  0  0  0  0  0  0  0  0  0  0
   38.2720   33.3290   49.3360 O   0  0  0  0  0  0  0  0  0  0  0  0
   37.1690   29.7060   51.5650 C   0  0  0  0  0  0  0  0  0  0  0  0
   37.8380   30.6430   50.7740 C   0  0  0  0  0  0  0  0  0  0  0  0
   37.1500   31.2520   49.7460 C   0  0  0  0  0  0  0  0  0  0  0  0
   35.8590   30.9080   49.5560 N   0  0  0  0  0  0  0  0  0  0  0  0
   35.2460   29.9910   50.3460 C   0  0  0  0  0  0  0  0  0  0  0  0
   35.8820   29.3900   51.3440 N   0  0  0  0  0  0  0  0  0  0  0  0
   33.8920   29.7790   49.9730 N   0  0  0  0  0  0  0  0  0  0  0  0
   37.1632   32.7547   47.1329 H   0  0  0  0  0  0  0  0  0  0  0  0
   38.2972   29.7959   47.9689 H   0  0  0  0  0  0  0  0  0  0  0  0
   37.6275   29.7075   46.5737 H   0  0  0  0  0  0  0  0  0  0  0  0
   40.2197   31.8196   47.1060 H   0  0  0  0  0  0  0  0  0  0  0  0
   38.3104   33.5939   45.1828 H   0  0  0  0  0  0  0  0  0  0  0  0
   38.8045   33.7790   42.7736 H   0  0  0  0  0  0  0  0  0  0  0  0
   40.1867   32.0984   41.6134 H   0  0  0  0  0  0  0  0  0  0  0  0
   41.0928   30.1619   42.9266 H   0  0  0  0  0  0  0  0  0  0  0  0
   37.7087   29.2152   52.3883 H   0  0  0  0  0  0  0  0  0  0  0  0
   38.8923   30.8900   50.9673 H   0  0  0  0  0  0  0  0  0  0  0  0
   33.3135   29.1052   50.4948 H   0  0  0  0  0  0  0  0  0  0  0  0
   33.4886   30.2991   49.1807 H   0  0  0  0  0  0  0  0  0  0  0  0
  1 10  1  0
  2  1  1  0
  3  2  1  0
  3  1  1  0
  4  3  1  0
  5  4  2  0
  6  5  1  0
  7  6  2  0
  7  8  1  0
  8  9  2  0
  9  4  1  0
 10 11  2  0
 10 14  1  0
 13 12  2  0
 14 13  1  0
 15 14  2  0
 15 16  1  0
 16 17  2  0
 17 12  1  0
 18 16  1  0
  1 19  1  6
  2 20  1  0
  2 21  1  0
  3 22  1  1
  5 23  1  0
  6 24  1  0
  7 25  1  0
  8 26  1  0
 12 27  1  0
 13 28  1  0
 18 29  1  0
 18 30  1  0
M  ISO  8  19  13  20  13  21  13  22  13  23  14  24  14  25  14  26  14
M  ISO  2  27  14  28  14
M  END
>  <minimizedAffinity>  (1) 
-5.95390224

>  <minimizedRMSD>  (1) 
0.179364711

$$$$
