
     RDKit          3D

 44 47  0  0  1  0  0  0  0  0999 V2000
   39.0250   32.2930   46.9910 C   0  0  0  0  0  0  0  0  0  0  0  0
   39.7740   33.3140   47.2350 O   0  0  0  0  0  0  0  0  0  0  0  0
   36.8630   32.0520   50.0180 C   0  0  0  0  0  0  0  0  0  0  0  0
   37.8510   32.4100   49.1310 C   0  0  0  0  0  0  0  0  0  0  0  0
   37.9390   31.8770   47.8290 C   0  0  0  0  0  0  0  0  0  0  0  0
   37.0160   31.0100   47.5020 N   0  0  0  0  0  0  0  0  0  0  0  0
   36.0320   30.6570   48.3930 C   0  0  0  0  0  0  0  0  0  0  0  0
   35.9460   31.1540   49.6160 N   0  0  0  0  0  0  0  0  0  0  0  0
   35.0780   29.7060   47.9370 N   0  0  0  0  0  0  0  0  0  0  0  0
   34.9270   28.4340   48.6380 C   0  0  0  0  0  0  0  0  0  0  0  0
   34.0860   27.4620   47.8880 C   0  0  0  0  0  0  0  0  0  0  0  0
   32.8290   28.0140   47.4330 N   0  0  0  0  0  0  0  0  0  0  0  0
   32.8610   29.4110   47.1340 C   0  0  0  0  0  0  0  0  0  0  0  0
   34.2250   29.9350   46.7870 C   0  0  0  0  0  0  0  0  0  0  0  0
   39.3030   31.4740   45.7560 C   0  0  2  0  0  0  0  0  0  0  0  0
   40.8640   31.1650   45.7300 C   0  0  0  0  0  0  0  0  0  0  0  0
   40.1200   31.9860   44.7070 C   0  0  1  0  0  0  0  0  0  0  0  0
   40.1800   31.4830   43.3320 C   0  0  0  0  0  0  0  0  0  0  0  0
   39.5360   32.2260   42.3460 C   0  0  0  0  0  0  0  0  0  0  0  0
   39.5910   31.7480   41.0620 C   0  0  0  0  0  0  0  0  0  0  0  0
   40.2540   30.5750   40.7370 C   0  0  0  0  0  0  0  0  0  0  0  0
   40.8770   29.8690   41.7450 C   0  0  0  0  0  0  0  0  0  0  0  0
   40.8240   30.3360   43.0040 N   0  0  0  0  0  0  0  0  0  0  0  0
   39.7120   31.6523   47.5632 H   0  0  0  0  0  0  0  0  0  0  0  0
   39.8612   33.4329   48.2140 H   0  0  0  0  0  0  0  0  0  0  0  0
   36.8238   32.4876   51.0273 H   0  0  0  0  0  0  0  0  0  0  0  0
   38.6051   33.1439   49.4513 H   0  0  0  0  0  0  0  0  0  0  0  0
   35.9241   27.9943   48.7883 H   0  0  0  0  0  0  0  0  0  0  0  0
   34.4249   28.6392   49.5949 H   0  0  0  0  0  0  0  0  0  0  0  0
   34.6522   27.1169   47.0103 H   0  0  0  0  0  0  0  0  0  0  0  0
   33.8462   26.6415   48.5803 H   0  0  0  0  0  0  0  0  0  0  0  0
   32.5479   27.5101   46.5798 H   0  0  0  0  0  0  0  0  0  0  0  0
   32.1927   29.5965   46.2802 H   0  0  0  0  0  0  0  0  0  0  0  0
   32.5429   29.9370   48.0462 H   0  0  0  0  0  0  0  0  0  0  0  0
   34.6221   29.4012   45.9110 H   0  0  0  0  0  0  0  0  0  0  0  0
   34.1807   31.0062   46.5410 H   0  0  0  0  0  0  0  0  0  0  0  0
   38.3268   30.9692   45.7086 H   0  0  0  0  0  0  0  0  0  0  0  0
   41.5457   31.6425   46.4491 H   0  0  0  0  0  0  0  0  0  0  0  0
   41.5117   30.2760   45.7363 H   0  0  0  0  0  0  0  0  0  0  0  0
   40.1522   33.0132   44.3147 H   0  0  0  0  0  0  0  0  0  0  0  0
   39.0047   33.1585   42.5873 H   0  0  0  0  0  0  0  0  0  0  0  0
   39.0918   32.3149   40.2624 H   0  0  0  0  0  0  0  0  0  0  0  0
   40.2827   30.2150   39.6980 H   0  0  0  0  0  0  0  0  0  0  0  0
   41.4113   28.9340   41.5208 H   0  0  0  0  0  0  0  0  0  0  0  0
  1  2  1  0
  1  5  1  0
  4  3  2  0
  5  4  1  0
  6  5  2  0
  6  7  1  0
  7  8  2  0
  8  3  1  0
  9  7  1  0
  9 10  1  0
 11 10  1  0
 12 11  1  0
 13 12  1  0
 14 13  1  0
 14  9  1  0
 15  1  1  0
 16 15  1  0
 17 16  1  0
 17 15  1  0
 18 17  1  0
 19 18  2  0
 20 19  1  0
 21 20  2  0
 21 22  1  0
 22 23  2  0
 23 18  1  0
  1 24  1  0
  2 25  1  0
  3 26  1  0
  4 27  1  0
 10 28  1  0
 10 29  1  0
 11 30  1  0
 11 31  1  0
 12 32  1  0
 13 33  1  0
 13 34  1  0
 14 35  1  0
 14 36  1  0
 15 37  1  6
 16 38  1  0
 16 39  1  0
 17 40  1  6
 19 41  1  0
 20 42  1  0
 21 43  1  0
 22 44  1  0
M  ISO  8  24   8  25   3  26  14  27  14  28  13  29  13  30  13  31  13
M  ISO  8  32   5  33  13  34  13  35  13  36  13  37  13  38  13  39  13
M  ISO  5  40  13  41  14  42  14  43  14  44  14
M  END
>  <minimizedAffinity>  (1) 
-5.95382166

>  <minimizedRMSD>  (1) 
2.48638511

$$$$
