
     RDKit          3D

 47 51  0  0  1  0  0  0  0  0999 V2000
   37.7400   30.8930   50.6670 C   0  0  0  0  0  0  0  0  0  0  0  0
   38.4640   31.5420   49.6920 C   0  0  0  0  0  0  0  0  0  0  0  0
   38.1220   31.4860   48.3360 C   0  0  0  0  0  0  0  0  0  0  0  0
   37.0670   30.7850   48.0160 N   0  0  0  0  0  0  0  0  0  0  0  0
   36.3520   30.1410   48.9960 C   0  0  0  0  0  0  0  0  0  0  0  0
   36.6780   30.1930   50.2830 N   0  0  0  0  0  0  0  0  0  0  0  0
   35.1680   29.3570   48.6560 C   0  0  0  0  0  0  0  0  0  0  0  0
   34.6840   28.1710   49.1900 C   0  0  0  0  0  0  0  0  0  0  0  0
   33.5410   27.6480   48.6950 C   0  0  0  0  0  0  0  0  0  0  0  0
   32.9220   28.3510   47.6700 C   0  0  0  0  0  0  0  0  0  0  0  0
   34.0100   29.8040   47.4050 S   0  0  0  0  0  0  0  0  0  0  0  0
   30.3940   28.1060   48.7840 F   0  0  0  0  0  0  0  0  0  0  0  0
   30.4970   28.0520   47.4370 C   0  0  0  0  0  0  0  0  0  0  0  0
   31.7490   28.1730   46.8850 C   0  0  0  0  0  0  0  0  0  0  0  0
   31.7810   28.1080   45.5110 C   0  0  0  0  0  0  0  0  0  0  0  0
   30.6430   27.9370   44.7630 C   0  0  0  0  0  0  0  0  0  0  0  0
   29.4050   27.8200   45.3700 C   0  0  0  0  0  0  0  0  0  0  0  0
   29.3360   27.8790   46.7310 C   0  0  0  0  0  0  0  0  0  0  0  0
   39.0350   32.1340   47.4410 C   0  0  1  0  0  0  0  0  0  0  0  0
   39.1240   31.5840   46.0370 C   0  0  2  0  0  0  0  0  0  0  0  0
   40.5900   31.2160   45.8010 C   0  0  0  0  0  0  0  0  0  0  0  0
   39.8860   32.2740   45.0250 C   0  0  1  0  0  0  0  0  0  0  0  0
   39.8260   32.0050   43.5830 C   0  0  0  0  0  0  0  0  0  0  0  0
   39.1310   32.8860   42.7960 C   0  0  0  0  0  0  0  0  0  0  0  0
   39.1160   32.6230   41.4480 C   0  0  0  0  0  0  0  0  0  0  0  0
   39.7540   31.5400   40.8740 C   0  0  0  0  0  0  0  0  0  0  0  0
   40.4410   30.6820   41.6990 C   0  0  0  0  0  0  0  0  0  0  0  0
   40.4680   30.9230   43.0230 N   0  0  0  0  0  0  0  0  0  0  0  0
   39.2800   33.4210   47.5150 O   0  0  0  0  0  0  0  0  0  0  0  0
   38.0306   30.9520   51.7263 H   0  0  0  0  0  0  0  0  0  0  0  0
   39.3460   32.1276   49.9906 H   0  0  0  0  0  0  0  0  0  0  0  0
   35.2230   27.6644   50.0041 H   0  0  0  0  0  0  0  0  0  0  0  0
   33.1205   26.7095   49.0855 H   0  0  0  0  0  0  0  0  0  0  0  0
   32.7490   28.1958   44.9959 H   0  0  0  0  0  0  0  0  0  0  0  0
   30.7161   27.8924   43.6663 H   0  0  0  0  0  0  0  0  0  0  0  0
   28.4952   27.6822   44.7673 H   0  0  0  0  0  0  0  0  0  0  0  0
   28.3701   27.7897   47.2497 H   0  0  0  0  0  0  0  0  0  0  0  0
   39.9099   31.7660   47.9970 H   0  0  0  0  0  0  0  0  0  0  0  0
   38.1115   31.1571   45.9848 H   0  0  0  0  0  0  0  0  0  0  0  0
   41.3587   31.4847   46.5405 H   0  0  0  0  0  0  0  0  0  0  0  0
   41.1514   30.2995   45.5668 H   0  0  0  0  0  0  0  0  0  0  0  0
   39.9619   33.3549   44.8356 H   0  0  0  0  0  0  0  0  0  0  0  0
   38.6125   33.7578   43.2216 H   0  0  0  0  0  0  0  0  0  0  0  0
   38.5663   33.3118   40.7897 H   0  0  0  0  0  0  0  0  0  0  0  0
   39.7132   31.3695   39.7881 H   0  0  0  0  0  0  0  0  0  0  0  0
   40.9630   29.8081   41.2820 H   0  0  0  0  0  0  0  0  0  0  0  0
   39.3318   33.6930   48.4655 H   0  0  0  0  0  0  0  0  0  0  0  0
  2  1  2  0
  3  2  1  0
  4  3  2  0
  4  5  1  0
  5  6  2  0
  6  1  1  0
  7  5  1  0
  7  8  2  0
  9  8  1  0
 10  9  2  0
 11 10  1  0
 11  7  1  0
 13 12  1  0
 14 13  2  0
 14 10  1  0
 15 14  1  0
 16 17  1  0
 16 15  2  0
 17 18  2  0
 18 13  1  0
 19 29  1  0
 19  3  1  0
 20 19  1  0
 21 20  1  0
 22 21  1  0
 22 20  1  0
 23 22  1  0
 24 23  2  0
 25 24  1  0
 26 25  2  0
 26 27  1  0
 27 28  2  0
 28 23  1  0
  1 30  1  0
  2 31  1  0
  8 32  1  0
  9 33  1  0
 15 34  1  0
 16 35  1  0
 17 36  1  0
 18 37  1  0
 19 38  1  1
 20 39  1  6
 21 40  1  0
 21 41  1  0
 22 42  1  6
 24 43  1  0
 25 44  1  0
 26 45  1  0
 27 46  1  0
 29 47  1  0
M  ISO  8  30  14  31  14  32  14  33  14  34  14  35  14  36  14  37  14
M  ISO  8  38   8  39  13  40  13  41  13  42  13  43  14  44  14  45  14
M  ISO  2  46  14  47   3
M  END
>  <minimizedAffinity>  (1) 
-6.87601614

>  <minimizedRMSD>  (1) 
0.308230668

$$$$
