
     RDKit          3D

 41 44  0  0  1  0  0  0  0  0999 V2000
   39.0360   32.1450   47.4460 C   0  0  1  0  0  0  0  0  0  0  0  0
   37.7300   30.9230   50.6790 C   0  0  0  0  0  0  0  0  0  0  0  0
   38.4460   31.5730   49.7000 C   0  0  0  0  0  0  0  0  0  0  0  0
   38.1210   31.4890   48.3400 C   0  0  0  0  0  0  0  0  0  0  0  0
   37.0890   30.7570   48.0220 N   0  0  0  0  0  0  0  0  0  0  0  0
   36.3800   30.1120   49.0020 C   0  0  0  0  0  0  0  0  0  0  0  0
   36.6910   30.1910   50.2910 N   0  0  0  0  0  0  0  0  0  0  0  0
   35.2030   29.3190   48.6580 C   0  0  0  0  0  0  0  0  0  0  0  0
   34.7670   28.0950   49.1520 C   0  0  0  0  0  0  0  0  0  0  0  0
   33.6190   27.5710   48.6880 C   0  0  0  0  0  0  0  0  0  0  0  0
   32.9350   28.3170   47.7210 C   0  0  0  0  0  0  0  0  0  0  0  0
   33.9880   29.8070   47.4850 S   0  0  0  0  0  0  0  0  0  0  0  0
   30.5870   27.8540   47.8390 C   0  0  0  0  0  0  0  0  0  0  0  0
   30.6860   27.8570   49.0990 O   0  0  0  0  0  0  0  0  0  0  0  0
   31.7300   28.0890   47.0240 N   0  0  0  0  0  0  0  0  0  0  0  0
   39.1170   31.5900   46.0380 C   0  0  2  0  0  0  0  0  0  0  0  0
   40.5800   31.2160   45.8020 C   0  0  0  0  0  0  0  0  0  0  0  0
   39.8780   32.2760   45.0260 C   0  0  1  0  0  0  0  0  0  0  0  0
   39.8230   32.0020   43.5830 C   0  0  0  0  0  0  0  0  0  0  0  0
   39.1310   32.8870   42.7970 C   0  0  0  0  0  0  0  0  0  0  0  0
   39.1190   32.6240   41.4480 C   0  0  0  0  0  0  0  0  0  0  0  0
   39.7550   31.5380   40.8760 C   0  0  0  0  0  0  0  0  0  0  0  0
   40.4440   30.6680   41.7090 C   0  0  0  0  0  0  0  0  0  0  0  0
   40.4640   30.9150   43.0290 N   0  0  0  0  0  0  0  0  0  0  0  0
   39.2730   33.4240   47.5180 O   0  0  0  0  0  0  0  0  0  0  0  0
   39.9190   31.7944   48.0005 H   0  0  0  0  0  0  0  0  0  0  0  0
   38.0067   31.0060   51.7404 H   0  0  0  0  0  0  0  0  0  0  0  0
   39.3104   32.1846   49.9981 H   0  0  0  0  0  0  0  0  0  0  0  0
   35.3544   27.5613   49.9137 H   0  0  0  0  0  0  0  0  0  0  0  0
   33.2367   26.6051   49.0499 H   0  0  0  0  0  0  0  0  0  0  0  0
   29.6101   27.6684   47.3687 H   0  0  0  0  0  0  0  0  0  0  0  0
   31.6806   28.0923   45.9952 H   0  0  0  0  0  0  0  0  0  0  0  0
   38.1030   31.1667   45.9871 H   0  0  0  0  0  0  0  0  0  0  0  0
   41.3504   31.4826   46.5406 H   0  0  0  0  0  0  0  0  0  0  0  0
   41.1381   30.2973   45.5684 H   0  0  0  0  0  0  0  0  0  0  0  0
   39.9524   33.3569   44.8357 H   0  0  0  0  0  0  0  0  0  0  0  0
   38.6138   33.7596   43.2227 H   0  0  0  0  0  0  0  0  0  0  0  0
   38.5740   33.3149   40.7880 H   0  0  0  0  0  0  0  0  0  0  0  0
   39.7159   31.3681   39.7899 H   0  0  0  0  0  0  0  0  0  0  0  0
   40.9646   29.7916   41.2956 H   0  0  0  0  0  0  0  0  0  0  0  0
   39.3236   33.6973   48.4682 H   0  0  0  0  0  0  0  0  0  0  0  0
  1 25  1  0
  1  4  1  0
  3  2  2  0
  4  3  1  0
  5  4  2  0
  5  6  1  0
  6  7  2  0
  7  2  1  0
  8  6  1  0
  8  9  2  0
 10  9  1  0
 11 10  2  0
 12 11  1  0
 12  8  1  0
 13 14  2  0
 15 11  1  0
 15 13  1  0
 16  1  1  0
 17 16  1  0
 18 17  1  0
 18 16  1  0
 19 18  1  0
 20 19  2  0
 21 20  1  0
 22 21  2  0
 22 23  1  0
 23 24  2  0
 24 19  1  0
  1 26  1  1
  2 27  1  0
  3 28  1  0
  9 29  1  0
 10 30  1  0
 13 31  1  0
 15 32  1  0
 16 33  1  6
 17 34  1  0
 17 35  1  0
 18 36  1  6
 20 37  1  0
 21 38  1  0
 22 39  1  0
 23 40  1  0
 25 41  1  0
M  ISO  8  26   8  27  14  28  14  29  14  30  14  31   6  33  13  34  13
M  ISO  7  35  13  36  13  37  14  38  14  39  14  40  14  41   3
M  END
>  <minimizedAffinity>  (1) 
-6.50497818

>  <minimizedRMSD>  (1) 
0.408125341

$$$$
