
     RDKit          3D

 36 39  0  0  1  0  0  0  0  0999 V2000
   35.7140   29.3500   49.4250 C   0  0  0  0  0  0  0  0  0  0  0  0
   35.7260   30.2840   48.3720 C   0  0  0  0  0  0  0  0  0  0  0  0
   34.7640   30.1520   47.3880 C   0  0  0  0  0  0  0  0  0  0  0  0
   33.8720   29.1350   47.4970 N   0  0  0  0  0  0  0  0  0  0  0  0
   33.8790   28.2540   48.5120 C   0  0  0  0  0  0  0  0  0  0  0  0
   34.8080   28.3690   49.4760 N   0  0  0  0  0  0  0  0  0  0  0  0
   36.9690   31.9290   49.6820 C   0  0  0  0  0  0  0  0  0  0  0  0
   36.7790   31.2830   48.4740 C   0  0  0  0  0  0  0  0  0  0  0  0
   37.6220   31.6500   47.4420 C   0  0  0  0  0  0  0  0  0  0  0  0
   38.6020   32.6180   47.6340 C   0  0  0  0  0  0  0  0  0  0  0  0
   39.5380   33.1600   46.8390 N   0  0  0  0  0  0  0  0  0  0  0  0
   40.2340   34.0670   47.5340 C   0  0  0  0  0  0  0  0  0  0  0  0
   39.7520   34.1290   48.8160 N   0  0  0  0  0  0  0  0  0  0  0  0
   38.7510   33.2350   48.8670 C   0  0  0  0  0  0  0  0  0  0  0  0
   37.9300   32.8900   49.8980 C   0  0  0  0  0  0  0  0  0  0  0  0
   31.4980   27.7320   48.0830 C   0  0  1  0  0  0  0  0  0  0  0  0
   32.8470   27.1850   48.5140 C   0  0  1  0  0  0  0  0  0  0  0  0
   33.1170   26.1510   47.6450 O   0  0  0  0  0  0  0  0  0  0  0  0
   31.8800   25.4710   47.6420 C   0  0  0  0  0  0  0  0  0  0  0  0
   30.9560   26.5950   47.2190 C   0  0  2  0  0  0  0  0  0  0  0  0
   30.6710   27.8510   49.2050 O   0  0  0  0  0  0  0  0  0  0  0  0
   31.1480   26.8730   45.8600 O   0  0  0  0  0  0  0  0  0  0  0  0
   36.4667   29.4293   50.2232 H   0  0  0  0  0  0  0  0  0  0  0  0
   34.7227   30.8518   46.5403 H   0  0  0  0  0  0  0  0  0  0  0  0
   36.3118   31.6581   50.5214 H   0  0  0  0  0  0  0  0  0  0  0  0
   37.5166   31.1709   46.4574 H   0  0  0  0  0  0  0  0  0  0  0  0
   39.6954   32.9163   45.8507 H   0  0  0  0  0  0  0  0  0  0  0  0
   41.0646   34.6698   47.1380 H   0  0  0  0  0  0  0  0  0  0  0  0
   38.0331   33.3696   50.8826 H   0  0  0  0  0  0  0  0  0  0  0  0
   31.5531   28.7106   47.5837 H   0  0  0  0  0  0  0  0  0  0  0  0
   32.8448   26.8132   49.5492 H   0  0  0  0  0  0  0  0  0  0  0  0
   31.8722   24.6430   46.9178 H   0  0  0  0  0  0  0  0  0  0  0  0
   31.6155   24.9910   48.5957 H   0  0  0  0  0  0  0  0  0  0  0  0
   29.8806   26.3987   47.3416 H   0  0  0  0  0  0  0  0  0  0  0  0
   31.2169   27.7724   50.0271 H   0  0  0  0  0  0  0  0  0  0  0  0
   31.7080   27.6838   45.7649 H   0  0  0  0  0  0  0  0  0  0  0  0
  1  6  2  0
  2  8  1  0
  2  1  1  0
  3  4  1  0
  3  2  2  0
  4  5  2  0
  5  6  1  0
  7 15  2  0
  8  7  1  0
  9 10  1  0
  9  8  2  0
 10 14  2  0
 11 12  1  0
 11 10  1  0
 12 13  2  0
 13 14  1  0
 14 15  1  0
 16 17  1  0
 16 21  1  0
 17  5  1  0
 18 17  1  0
 19 18  1  0
 20 22  1  0
 20 19  1  0
 20 16  1  0
  1 23  1  0
  3 24  1  0
  7 25  1  0
  9 26  1  0
 11 27  1  0
 12 28  1  0
 15 29  1  0
 16 30  1  6
 17 31  1  1
 19 32  1  0
 19 33  1  0
 20 34  1  6
 21 35  1  0
 22 36  1  0
M  ISO  8  23  14  24  14  25  14  26  14  27   9  28  14  29  14  30  13
M  ISO  6  31  13  32  13  33  13  34  13  35   3  36   3
M  END
>  <minimizedAffinity>  (1) 
-6.04616642

>  <minimizedRMSD>  (1) 
1.92690718

$$$$
