
     RDKit          3D

 27 29  0  0  0  0  0  0  0  0999 V2000
   36.0730   31.0750   49.6880 C   0  0  0  0  0  0  0  0  0  0  0  0
   35.9420   30.5330   48.4200 C   0  0  0  0  0  0  0  0  0  0  0  0
   36.8310   30.9850   47.4780 C   0  0  0  0  0  0  0  0  0  0  0  0
   37.7970   31.9330   47.8040 C   0  0  0  0  0  0  0  0  0  0  0  0
   38.7660   32.5360   47.0970 N   0  0  0  0  0  0  0  0  0  0  0  0
   39.4330   33.3900   47.9060 C   0  0  0  0  0  0  0  0  0  0  0  0
   38.8890   33.3380   49.1530 N   0  0  0  0  0  0  0  0  0  0  0  0
   37.8870   32.4450   49.0830 C   0  0  0  0  0  0  0  0  0  0  0  0
   37.0160   32.0080   50.0280 C   0  0  0  0  0  0  0  0  0  0  0  0
   34.3340   29.0080   49.3700 C   0  0  0  0  0  0  0  0  0  0  0  0
   34.9020   29.5520   48.1890 C   0  0  0  0  0  0  0  0  0  0  0  0
   34.4130   29.0950   46.9740 C   0  0  0  0  0  0  0  0  0  0  0  0
   33.4290   28.1660   46.9810 N   0  0  0  0  0  0  0  0  0  0  0  0
   32.9000   27.6610   48.1120 C   0  0  0  0  0  0  0  0  0  0  0  0
   33.3600   28.0900   49.2940 N   0  0  0  0  0  0  0  0  0  0  0  0
   30.4650   26.8880   48.0910 C   0  0  0  0  0  0  0  0  0  0  0  0
   30.1450   28.1170   48.1020 O   0  0  0  0  0  0  0  0  0  0  0  0
   31.8710   26.6890   48.0970 N   0  0  0  0  0  0  0  0  0  0  0  0
   35.3772   30.7353   50.4694 H   0  0  0  0  0  0  0  0  0  0  0  0
   36.7799   30.5932   46.4514 H   0  0  0  0  0  0  0  0  0  0  0  0
   38.9685   32.3744   46.1001 H   0  0  0  0  0  0  0  0  0  0  0  0
   40.2793   34.0249   47.6049 H   0  0  0  0  0  0  0  0  0  0  0  0
   37.0671   32.3988   51.0550 H   0  0  0  0  0  0  0  0  0  0  0  0
   34.6951   29.3416   50.3540 H   0  0  0  0  0  0  0  0  0  0  0  0
   34.8163   29.4794   46.0255 H   0  0  0  0  0  0  0  0  0  0  0  0
   29.7328   26.0672   48.0782 H   0  0  0  0  0  0  0  0  0  0  0  0
   32.1834   25.7076   48.0894 H   0  0  0  0  0  0  0  0  0  0  0  0
  1  9  2  0
  2  1  1  0
  3  4  1  0
  3  2  2  0
  4  8  2  0
  5  4  1  0
  5  6  1  0
  6  7  2  0
  8  7  1  0
  8  9  1  0
 11  2  1  0
 11 10  2  0
 12 13  2  0
 12 11  1  0
 13 14  1  0
 14 15  2  0
 15 10  1  0
 16 18  1  0
 16 17  2  0
 18 14  1  0
  1 19  1  0
  3 20  1  0
  5 21  1  0
  6 22  1  0
  9 23  1  0
 10 24  1  0
 12 25  1  0
 16 26  1  0
 18 27  1  0
M  ISO  8  19  14  20  14  21   9  22  14  23  14  24  14  25  14  26   6
M  END
>  <minimizedAffinity>  (1) 
-5.75433159

>  <minimizedRMSD>  (1) 
2.42798352

$$$$
