
     RDKit          3D

 20 21  0  0  0  0  0  0  0  0999 V2000
   37.9820   33.1700   49.4340 C   0  0  0  0  0  0  0  0  0  0  0  0
   39.0200   33.1620   48.4640 C   0  0  0  0  0  0  0  0  0  0  0  0
   39.0140   32.1220   47.5340 C   0  0  0  0  0  0  0  0  0  0  0  0
   38.0280   31.1740   47.5960 N   0  0  0  0  0  0  0  0  0  0  0  0
   37.0540   31.2260   48.5460 C   0  0  0  0  0  0  0  0  0  0  0  0
   37.0360   32.2230   49.4590 N   0  0  0  0  0  0  0  0  0  0  0  0
   37.2690   29.3550   51.0540 Br  0  0  0  0  0  0  0  0  0  0  0  0
   35.9560   29.3160   49.6650 C   0  0  0  0  0  0  0  0  0  0  0  0
   36.0000   30.2180   48.6160 C   0  0  0  0  0  0  0  0  0  0  0  0
   35.0160   30.1250   47.6530 C   0  0  0  0  0  0  0  0  0  0  0  0
   34.0020   29.1840   47.6870 C   0  0  0  0  0  0  0  0  0  0  0  0
   33.9920   28.3010   48.7470 C   0  0  0  0  0  0  0  0  0  0  0  0
   34.9690   28.3750   49.7280 C   0  0  0  0  0  0  0  0  0  0  0  0
   37.9549   33.9747   50.1835 H   0  0  0  0  0  0  0  0  0  0  0  0
   39.7952   33.9423   48.4469 H   0  0  0  0  0  0  0  0  0  0  0  0
   39.7929   32.0643   46.7594 H   0  0  0  0  0  0  0  0  0  0  0  0
   35.0389   30.8363   46.8142 H   0  0  0  0  0  0  0  0  0  0  0  0
   33.2345   29.1417   46.9002 H   0  0  0  0  0  0  0  0  0  0  0  0
   33.2055   27.5349   48.8142 H   0  0  0  0  0  0  0  0  0  0  0  0
   34.9485   27.6658   50.5686 H   0  0  0  0  0  0  0  0  0  0  0  0
  1  6  2  0
  2  1  1  0
  3  4  1  0
  3  2  2  0
  4  5  2  0
  5  9  1  0
  5  6  1  0
  8 13  2  0
  8  7  1  0
  9  8  1  0
 10 11  1  0
 10  9  2  0
 11 12  2  0
 12 13  1  0
  1 14  1  0
  2 15  1  0
  3 16  1  0
 10 17  1  0
 11 18  1  0
 12 19  1  0
 13 20  1  0
M  ISO  7  14  14  15  14  16  14  17  14  18  14  19  14  20  14
M  END
>  <minimizedAffinity>  (1) 
-5.37830019

>  <minimizedRMSD>  (1) 
3.19048429

$$$$
