
     RDKit          3D

 26 28  0  0  0  0  0  0  0  0999 V2000
   38.9960   32.2900   46.8700 C   0  0  0  0  0  0  0  0  0  0  0  0
   37.8210   31.7130   46.4520 C   0  0  0  0  0  0  0  0  0  0  0  0
   37.5170   31.8270   45.1080 C   0  0  0  0  0  0  0  0  0  0  0  0
   38.3910   32.5030   44.2550 C   0  0  0  0  0  0  0  0  0  0  0  0
   38.3480   32.7620   42.9240 N   0  0  0  0  0  0  0  0  0  0  0  0
   39.4550   33.4580   42.5960 C   0  0  0  0  0  0  0  0  0  0  0  0
   40.2180   33.6510   43.7230 N   0  0  0  0  0  0  0  0  0  0  0  0
   39.5510   33.0620   44.7210 C   0  0  0  0  0  0  0  0  0  0  0  0
   39.8600   32.9570   46.0350 C   0  0  0  0  0  0  0  0  0  0  0  0
   37.4330   31.1790   48.7680 C   0  0  0  0  0  0  0  0  0  0  0  0
   36.9800   31.0240   47.4280 C   0  0  0  0  0  0  0  0  0  0  0  0
   35.8440   30.2680   47.2020 C   0  0  0  0  0  0  0  0  0  0  0  0
   35.2210   29.7160   48.2670 N   0  0  0  0  0  0  0  0  0  0  0  0
   35.6500   29.8630   49.5330 C   0  0  0  0  0  0  0  0  0  0  0  0
   36.7530   30.5960   49.7670 N   0  0  0  0  0  0  0  0  0  0  0  0
   34.8980   29.2180   50.6440 C   0  0  0  0  0  0  0  0  0  0  0  0
   35.5760   29.1850   51.8240 F   0  0  0  0  0  0  0  0  0  0  0  0
   33.6560   29.8530   50.7780 F   0  0  0  0  0  0  0  0  0  0  0  0
   34.5830   27.9140   50.2540 F   0  0  0  0  0  0  0  0  0  0  0  0
   39.2604   32.2135   47.9350 H   0  0  0  0  0  0  0  0  0  0  0  0
   36.5899   31.3866   44.7124 H   0  0  0  0  0  0  0  0  0  0  0  0
   37.5996   32.4765   42.2765 H   0  0  0  0  0  0  0  0  0  0  0  0
   39.7076   33.8149   41.5866 H   0  0  0  0  0  0  0  0  0  0  0  0
   40.7877   33.3985   46.4279 H   0  0  0  0  0  0  0  0  0  0  0  0
   38.3339   31.7723   48.9832 H   0  0  0  0  0  0  0  0  0  0  0  0
   35.4578   30.1199   46.1827 H   0  0  0  0  0  0  0  0  0  0  0  0
  2  1  2  0
  2 11  1  0
  3  2  1  0
  4  8  1  0
  4  3  2  0
  5  4  1  0
  6  5  1  0
  6  7  2  0
  7  8  1  0
  8  9  2  0
  9  1  1  0
 10 15  2  0
 11 10  1  0
 12 11  2  0
 12 13  1  0
 13 14  2  0
 14 15  1  0
 14 16  1  0
 16 18  1  0
 16 17  1  0
 19 16  1  0
  1 20  1  0
  3 21  1  0
  5 22  1  0
  6 23  1  0
  9 24  1  0
 10 25  1  0
 12 26  1  0
M  ISO  7  20  14  21  14  22   9  23  14  24  14  25  14  26  14
M  END
>  <minimizedAffinity>  (1) 
-5.68042088

>  <minimizedRMSD>  (1) 
2.13129306

$$$$
