
     RDKit          3D

 24 26  0  0  0  0  0  0  0  0999 V2000
   37.5910   31.4670   48.5090 C   0  0  0  0  0  0  0  0  0  0  0  0
   36.8660   30.9080   47.4680 C   0  0  0  0  0  0  0  0  0  0  0  0
   37.2990   31.1940   46.2000 C   0  0  0  0  0  0  0  0  0  0  0  0
   38.4110   32.0070   45.9990 C   0  0  0  0  0  0  0  0  0  0  0  0
   39.0390   32.4400   44.8790 N   0  0  0  0  0  0  0  0  0  0  0  0
   40.0790   33.2150   45.2530 C   0  0  0  0  0  0  0  0  0  0  0  0
   40.1330   33.2880   46.6090 N   0  0  0  0  0  0  0  0  0  0  0  0
   39.1040   32.5430   47.0690 C   0  0  0  0  0  0  0  0  0  0  0  0
   38.6930   32.2720   48.3270 C   0  0  0  0  0  0  0  0  0  0  0  0
   35.8850   29.2730   48.9490 C   0  0  0  0  0  0  0  0  0  0  0  0
   35.7250   30.0780   47.8110 C   0  0  0  0  0  0  0  0  0  0  0  0
   34.5010   30.0080   47.1280 C   0  0  0  0  0  0  0  0  0  0  0  0
   33.5590   29.1620   47.6240 N   0  0  0  0  0  0  0  0  0  0  0  0
   33.7430   28.4020   48.7190 C   0  0  0  0  0  0  0  0  0  0  0  0
   34.9090   28.4690   49.3670 N   0  0  0  0  0  0  0  0  0  0  0  0
   32.6110   27.6390   48.9860 O   0  0  0  0  0  0  0  0  0  0  0  0
   37.2675   31.2554   49.5388 H   0  0  0  0  0  0  0  0  0  0  0  0
   36.7637   30.7779   45.3338 H   0  0  0  0  0  0  0  0  0  0  0  0
   38.7695   32.2165   43.9103 H   0  0  0  0  0  0  0  0  0  0  0  0
   40.7775   33.7125   44.5641 H   0  0  0  0  0  0  0  0  0  0  0  0
   39.2302   32.6879   49.1921 H   0  0  0  0  0  0  0  0  0  0  0  0
   36.8332   29.3065   49.5057 H   0  0  0  0  0  0  0  0  0  0  0  0
   34.3115   30.6124   46.2287 H   0  0  0  0  0  0  0  0  0  0  0  0
   32.5983   27.0280   49.7648 H   0  0  0  0  0  0  0  0  0  0  0  0
  2 11  1  0
  2  1  2  0
  3  2  1  0
  4  3  2  0
  4  8  1  0
  5  6  1  0
  5  4  1  0
  6  7  2  0
  7  8  1  0
  8  9  2  0
  9  1  1  0
 10 15  2  0
 11 10  1  0
 12 13  1  0
 12 11  2  0
 13 14  2  0
 14 16  1  0
 14 15  1  0
  1 17  1  0
  3 18  1  0
  5 19  1  0
  6 20  1  0
  9 21  1  0
 10 22  1  0
 12 23  1  0
 16 24  1  0
M  ISO  8  17  14  18  14  19   9  20  14  21  14  22  14  23  14  24   3
M  END
>  <minimizedAffinity>  (1) 
-5.37853527

>  <minimizedRMSD>  (1) 
0.488550216

$$$$
