
     RDKit          3D

 39 42  0  0  0  0  0  0  0  0999 V2000
   33.7550   28.8710   49.3400 C   0  0  0  0  0  0  0  0  0  0  0  0
   34.3740   29.3270   48.1390 C   0  0  0  0  0  0  0  0  0  0  0  0
   33.8480   28.8740   46.9270 C   0  0  0  0  0  0  0  0  0  0  0  0
   32.7870   28.0380   46.9740 N   0  0  0  0  0  0  0  0  0  0  0  0
   32.2150   27.6180   48.1060 C   0  0  0  0  0  0  0  0  0  0  0  0
   32.7070   28.0430   49.2910 N   0  0  0  0  0  0  0  0  0  0  0  0
   35.6930   30.7440   49.6100 C   0  0  0  0  0  0  0  0  0  0  0  0
   35.4970   30.2160   48.3470 C   0  0  0  0  0  0  0  0  0  0  0  0
   36.4000   30.5800   47.3530 C   0  0  0  0  0  0  0  0  0  0  0  0
   37.4470   31.4450   47.6650 C   0  0  0  0  0  0  0  0  0  0  0  0
   38.4510   31.9650   46.9350 N   0  0  0  0  0  0  0  0  0  0  0  0
   39.2070   32.7530   47.6970 C   0  0  0  0  0  0  0  0  0  0  0  0
   38.6940   32.7520   48.9430 N   0  0  0  0  0  0  0  0  0  0  0  0
   37.6190   31.9550   48.9320 C   0  0  0  0  0  0  0  0  0  0  0  0
   36.7270   31.5960   49.9100 C   0  0  0  0  0  0  0  0  0  0  0  0
   31.0670   26.7010   48.0220 C   0  0  0  0  0  0  0  0  0  0  0  0
   28.9910   28.1550   48.1320 C   0  0  0  0  0  0  0  0  0  0  0  0
   29.9030   27.3060   48.7070 C   0  0  0  0  0  0  0  0  0  0  0  0
   29.6660   27.0000   50.0480 C   0  0  0  0  0  0  0  0  0  0  0  0
   28.6210   27.4720   50.8100 C   0  0  0  0  0  0  0  0  0  0  0  0
   27.7130   28.3190   50.2310 C   0  0  0  0  0  0  0  0  0  0  0  0
   27.9260   28.6350   48.9050 C   0  0  0  0  0  0  0  0  0  0  0  0
   29.0800   28.6960   46.4970 S   0  0  0  0  0  0  0  0  0  0  0  0
   27.7340   28.9900   45.9120 O   0  0  0  0  0  0  0  0  0  0  0  0
   30.0590   29.8330   46.2910 O   0  0  0  0  0  0  0  0  0  0  0  0
   34.1430   29.2033   50.3142 H   0  0  0  0  0  0  0  0  0  0  0  0
   34.2827   29.1872   45.9663 H   0  0  0  0  0  0  0  0  0  0  0  0
   34.9894   30.4692   50.4096 H   0  0  0  0  0  0  0  0  0  0  0  0
   36.2885   30.1888   46.3310 H   0  0  0  0  0  0  0  0  0  0  0  0
   38.6110   31.7806   45.9344 H   0  0  0  0  0  0  0  0  0  0  0  0
   40.0968   33.3089   47.3664 H   0  0  0  0  0  0  0  0  0  0  0  0
   36.8396   31.9893   50.9311 H   0  0  0  0  0  0  0  0  0  0  0  0
   30.8181   26.5204   46.9658 H   0  0  0  0  0  0  0  0  0  0  0  0
   31.3229   25.7469   48.5060 H   0  0  0  0  0  0  0  0  0  0  0  0
   30.3779   26.3209   50.5401 H   0  0  0  0  0  0  0  0  0  0  0  0
   28.5170   27.1747   51.8639 H   0  0  0  0  0  0  0  0  0  0  0  0
   26.8595   28.7255   50.7935 H   0  0  0  0  0  0  0  0  0  0  0  0
   27.2079   29.3126   48.4200 H   0  0  0  0  0  0  0  0  0  0  0  0
   29.5890   27.6369   45.7927 H   0  0  0  0  0  0  0  0  0  0  0  0
  2  8  1  0
  2  1  2  0
  3  4  2  0
  3  2  1  0
  4  5  1  0
  5  6  2  0
  6  1  1  0
  7 15  2  0
  8  7  1  0
  9 10  1  0
  9  8  2  0
 10 14  2  0
 11 10  1  0
 11 12  1  0
 12 13  2  0
 14 13  1  0
 14 15  1  0
 16  5  1  0
 16 18  1  0
 17 18  2  0
 17 22  1  0
 18 19  1  0
 19 20  2  0
 21 20  1  0
 22 21  2  0
 23 17  1  0
 24 23  2  0
 25 23  2  0
  1 26  1  0
  3 27  1  0
  7 28  1  0
  9 29  1  0
 11 30  1  0
 12 31  1  0
 15 32  1  0
 16 33  1  0
 16 34  1  0
 19 35  1  0
 20 36  1  0
 21 37  1  0
 22 38  1  0
 23 39  1  0
M  ISO  8  26  14  27  14  28  14  29  14  30   9  31  14  32  14  33   8
M  ISO  6  34   8  35  14  36  14  37  14  38  14  39  11
M  END
>  <minimizedAffinity>  (1) 
-6.66433287

>  <minimizedRMSD>  (1) 
3.98309517

$$$$
