
     RDKit          3D

 41 44  0  0  0  0  0  0  0  0999 V2000
   33.9820   28.9880   49.4060 C   0  0  0  0  0  0  0  0  0  0  0  0
   34.4090   29.4740   48.1560 C   0  0  0  0  0  0  0  0  0  0  0  0
   33.6520   29.1250   47.0260 C   0  0  0  0  0  0  0  0  0  0  0  0
   32.5600   28.3480   47.1940 N   0  0  0  0  0  0  0  0  0  0  0  0
   32.1730   27.8940   48.4160 C   0  0  0  0  0  0  0  0  0  0  0  0
   32.8870   28.2190   49.5060 N   0  0  0  0  0  0  0  0  0  0  0  0
   35.9480   30.8710   49.3860 C   0  0  0  0  0  0  0  0  0  0  0  0
   35.5940   30.2940   48.1700 C   0  0  0  0  0  0  0  0  0  0  0  0
   36.4160   30.5650   47.0910 C   0  0  0  0  0  0  0  0  0  0  0  0
   37.5340   31.3810   47.2520 C   0  0  0  0  0  0  0  0  0  0  0  0
   38.4860   31.8060   46.3980 N   0  0  0  0  0  0  0  0  0  0  0  0
   39.3480   32.5780   47.0420 C   0  0  0  0  0  0  0  0  0  0  0  0
   38.9690   32.6710   48.3330 N   0  0  0  0  0  0  0  0  0  0  0  0
   37.8560   31.9340   48.4580 C   0  0  0  0  0  0  0  0  0  0  0  0
   37.0550   31.6790   49.5440 C   0  0  0  0  0  0  0  0  0  0  0  0
   30.9590   27.0430   48.5340 C   0  0  0  0  0  0  0  0  0  0  0  0
   29.8710   27.6400   49.2070 N   0  0  0  0  0  0  0  0  0  0  0  0
   29.3150   26.9280   50.3000 C   0  0  0  0  0  0  0  0  0  0  0  0
   27.8050   27.1820   50.3710 C   0  0  0  0  0  0  0  0  0  0  0  0
   27.6390   28.6840   50.5670 C   0  0  0  0  0  0  0  0  0  0  0  0
   28.2100   29.3650   49.3610 C   0  0  0  0  0  0  0  0  0  0  0  0
   28.9550   28.4010   48.4340 C   0  0  0  0  0  0  0  0  0  0  0  0
   34.5527   29.2416   50.3116 H   0  0  0  0  0  0  0  0  0  0  0  0
   33.9422   29.4770   46.0250 H   0  0  0  0  0  0  0  0  0  0  0  0
   35.3147   30.6733   50.2634 H   0  0  0  0  0  0  0  0  0  0  0  0
   36.1868   30.1358   46.1045 H   0  0  0  0  0  0  0  0  0  0  0  0
   38.5356   31.5669   45.3974 H   0  0  0  0  0  0  0  0  0  0  0  0
   40.2288   33.0638   46.5969 H   0  0  0  0  0  0  0  0  0  0  0  0
   37.2928   32.1130   50.5264 H   0  0  0  0  0  0  0  0  0  0  0  0
   30.6281   26.7791   47.5187 H   0  0  0  0  0  0  0  0  0  0  0  0
   31.2530   26.1730   49.1395 H   0  0  0  0  0  0  0  0  0  0  0  0
   29.4984   25.8517   50.1659 H   0  0  0  0  0  0  0  0  0  0  0  0
   29.7852   27.2706   51.2336 H   0  0  0  0  0  0  0  0  0  0  0  0
   27.3196   26.8628   49.4369 H   0  0  0  0  0  0  0  0  0  0  0  0
   27.3399   26.6154   51.1911 H   0  0  0  0  0  0  0  0  0  0  0  0
   26.5724   28.9332   50.6685 H   0  0  0  0  0  0  0  0  0  0  0  0
   28.1586   29.0140   51.4787 H   0  0  0  0  0  0  0  0  0  0  0  0
   27.3877   29.8300   48.7974 H   0  0  0  0  0  0  0  0  0  0  0  0
   28.9354   30.1125   49.7145 H   0  0  0  0  0  0  0  0  0  0  0  0
   29.5017   28.9718   47.6690 H   0  0  0  0  0  0  0  0  0  0  0  0
   28.2381   27.7310   47.9369 H   0  0  0  0  0  0  0  0  0  0  0  0
  1  6  2  0
  2  8  1  0
  2  1  1  0
  3  4  1  0
  3  2  2  0
  4  5  2  0
  5 16  1  0
  5  6  1  0
  7 15  2  0
  8  7  1  0
  9 10  1  0
  9  8  2  0
 10 14  2  0
 11 12  1  0
 11 10  1  0
 12 13  2  0
 13 14  1  0
 14 15  1  0
 16 17  1  0
 17 18  1  0
 18 19  1  0
 19 20  1  0
 21 20  1  0
 22 17  1  0
 22 21  1  0
  1 23  1  0
  3 24  1  0
  7 25  1  0
  9 26  1  0
 11 27  1  0
 12 28  1  0
 15 29  1  0
 16 30  1  0
 16 31  1  0
 18 32  1  0
 18 33  1  0
 19 34  1  0
 19 35  1  0
 20 36  1  0
 20 37  1  0
 21 38  1  0
 21 39  1  0
 22 40  1  0
 22 41  1  0
M  ISO  8  23  14  24  14  25  14  26  14  27   9  28  14  29  14  30   8
M  ISO  8  31   8  32  13  33  13  34  13  35  13  36  13  37  13  38  13
M  ISO  3  39  13  40  13  41  13
M  END
>  <minimizedAffinity>  (1) 
-6.47210455

>  <minimizedRMSD>  (1) 
2.10545588

$$$$
