
     RDKit          3D

 33 36  0  0  0  0  0  0  0  0999 V2000
   36.2440   31.0390   49.2390 C   0  0  0  0  0  0  0  0  0  0  0  0
   35.8570   30.4340   48.0420 C   0  0  0  0  0  0  0  0  0  0  0  0
   36.6300   30.6830   46.9210 C   0  0  0  0  0  0  0  0  0  0  0  0
   37.7490   31.5160   47.0330 C   0  0  0  0  0  0  0  0  0  0  0  0
   38.6690   31.9360   46.1530 N   0  0  0  0  0  0  0  0  0  0  0  0
   39.5500   32.7290   46.7450 C   0  0  0  0  0  0  0  0  0  0  0  0
   39.2090   32.8380   48.0440 N   0  0  0  0  0  0  0  0  0  0  0  0
   38.1080   32.0970   48.2180 C   0  0  0  0  0  0  0  0  0  0  0  0
   37.3460   31.8570   49.3400 C   0  0  0  0  0  0  0  0  0  0  0  0
   34.2730   29.1850   49.3670 C   0  0  0  0  0  0  0  0  0  0  0  0
   34.6810   29.5980   48.0630 C   0  0  0  0  0  0  0  0  0  0  0  0
   33.9150   29.1670   46.9960 C   0  0  0  0  0  0  0  0  0  0  0  0
   32.8340   28.3850   47.2490 N   0  0  0  0  0  0  0  0  0  0  0  0
   32.4670   28.0080   48.4800 C   0  0  0  0  0  0  0  0  0  0  0  0
   33.1910   28.4130   49.5290 N   0  0  0  0  0  0  0  0  0  0  0  0
   31.2640   27.1520   48.6870 C   0  0  0  0  0  0  0  0  0  0  0  0
   30.3510   27.7990   49.6780 C   0  0  0  0  0  0  0  0  0  0  0  0
   28.9800   28.1540   49.2640 C   0  0  0  0  0  0  0  0  0  0  0  0
   29.1900   27.0180   50.2470 C   0  0  0  0  0  0  0  0  0  0  0  0
   35.6419   30.8538   50.1408 H   0  0  0  0  0  0  0  0  0  0  0  0
   36.3677   30.2312   45.9530 H   0  0  0  0  0  0  0  0  0  0  0  0
   38.6883   31.6782   45.1560 H   0  0  0  0  0  0  0  0  0  0  0  0
   40.4102   33.2140   46.2603 H   0  0  0  0  0  0  0  0  0  0  0  0
   37.6148   32.3132   50.3042 H   0  0  0  0  0  0  0  0  0  0  0  0
   34.8523   29.5036   50.2462 H   0  0  0  0  0  0  0  0  0  0  0  0
   34.1752   29.4510   45.9656 H   0  0  0  0  0  0  0  0  0  0  0  0
   30.7355   27.0262   47.7305 H   0  0  0  0  0  0  0  0  0  0  0  0
   31.5772   26.1686   49.0675 H   0  0  0  0  0  0  0  0  0  0  0  0
   31.1952   28.3499   50.1183 H   0  0  0  0  0  0  0  0  0  0  0  0
   28.5314   29.0986   49.6054 H   0  0  0  0  0  0  0  0  0  0  0  0
   28.4652   28.2561   48.2973 H   0  0  0  0  0  0  0  0  0  0  0  0
   29.0167   25.9770   49.9367 H   0  0  0  0  0  0  0  0  0  0  0  0
   28.8254   26.7715   51.2551 H   0  0  0  0  0  0  0  0  0  0  0  0
  1  9  2  0
  2 11  1  0
  2  1  1  0
  3  4  1  0
  3  2  2  0
  4  8  2  0
  5  6  1  0
  5  4  1  0
  6  7  2  0
  7  8  1  0
  8  9  1  0
 10 15  2  0
 11 10  1  0
 12 13  1  0
 12 11  2  0
 13 14  2  0
 14 16  1  0
 14 15  1  0
 16 17  1  0
 17 19  1  0
 18 17  1  0
 18 19  1  0
  1 20  1  0
  3 21  1  0
  5 22  1  0
  6 23  1  0
  9 24  1  0
 10 25  1  0
 12 26  1  0
 16 27  1  0
 16 28  1  0
 17 29  1  0
 18 30  1  0
 18 31  1  0
 19 32  1  0
 19 33  1  0
M  ISO  8  20  14  21  14  22   9  23  14  24  14  25  14  26  14  27   8
M  ISO  6  28   8  29  13  30  13  31  13  32  13  33  13
M  END
>  <minimizedAffinity>  (1) 
-5.67010593

>  <minimizedRMSD>  (1) 
1.93714678

$$$$
