
     RDKit          3D

 42 45  0  0  1  0  0  0  0  0999 V2000
   33.5760   28.6430   49.1380 C   0  0  0  0  0  0  0  0  0  0  0  0
   33.9690   29.3690   48.0140 C   0  0  0  0  0  0  0  0  0  0  0  0
   33.1300   29.3210   46.9050 C   0  0  0  0  0  0  0  0  0  0  0  0
   31.9890   28.5880   46.9580 N   0  0  0  0  0  0  0  0  0  0  0  0
   31.6400   27.8930   48.0740 C   0  0  0  0  0  0  0  0  0  0  0  0
   32.4410   27.9320   49.1480 N   0  0  0  0  0  0  0  0  0  0  0  0
   35.5720   30.5500   49.3740 C   0  0  0  0  0  0  0  0  0  0  0  0
   35.2070   30.0960   48.1130 C   0  0  0  0  0  0  0  0  0  0  0  0
   36.0730   30.3920   47.0830 C   0  0  0  0  0  0  0  0  0  0  0  0
   37.2430   31.1100   47.3310 C   0  0  0  0  0  0  0  0  0  0  0  0
   38.2300   31.5210   46.5310 N   0  0  0  0  0  0  0  0  0  0  0  0
   39.1400   32.1820   47.2600 C   0  0  0  0  0  0  0  0  0  0  0  0
   38.7350   32.2020   48.5570 N   0  0  0  0  0  0  0  0  0  0  0  0
   37.5640   31.5400   48.5980 C   0  0  0  0  0  0  0  0  0  0  0  0
   36.7230   31.2570   49.6260 C   0  0  0  0  0  0  0  0  0  0  0  0
   30.3710   27.1190   48.0390 C   0  0  0  0  0  0  0  0  0  0  0  0
   29.2340   27.8550   48.6650 C   0  0  1  0  0  0  0  0  0  0  0  0
   28.3360   28.3370   47.5310 C   0  0  0  0  0  0  0  0  0  0  0  0
   26.9790   27.7350   47.7490 C   0  0  0  0  0  0  0  0  0  0  0  0
   27.2500   26.5240   48.5760 C   0  0  0  0  0  0  0  0  0  0  0  0
   28.3370   27.0130   49.5130 C   0  0  2  0  0  0  0  0  0  0  0  0
   27.7670   27.8120   50.6450 C   0  0  0  0  0  0  0  0  0  0  0  0
   28.2170   29.1240   50.4620 F   0  0  0  0  0  0  0  0  0  0  0  0
   26.4020   27.8610   50.6360 F   0  0  0  0  0  0  0  0  0  0  0  0
   28.2630   27.3930   51.8610 F   0  0  0  0  0  0  0  0  0  0  0  0
   34.2118   28.6546   50.0356 H   0  0  0  0  0  0  0  0  0  0  0  0
   33.3901   29.8741   45.9904 H   0  0  0  0  0  0  0  0  0  0  0  0
   34.9019   30.3312   50.2184 H   0  0  0  0  0  0  0  0  0  0  0  0
   35.8406   30.0605   46.0602 H   0  0  0  0  0  0  0  0  0  0  0  0
   38.2835   31.3563   45.5157 H   0  0  0  0  0  0  0  0  0  0  0  0
   40.0643   32.6346   46.8716 H   0  0  0  0  0  0  0  0  0  0  0  0
   36.9601   31.5895   50.6474 H   0  0  0  0  0  0  0  0  0  0  0  0
   30.1175   26.9048   46.9903 H   0  0  0  0  0  0  0  0  0  0  0  0
   30.5277   26.1949   48.6147 H   0  0  0  0  0  0  0  0  0  0  0  0
   29.6850   28.6368   49.2939 H   0  0  0  0  0  0  0  0  0  0  0  0
   28.7426   28.0081   46.5633 H   0  0  0  0  0  0  0  0  0  0  0  0
   28.2774   29.4354   47.5210 H   0  0  0  0  0  0  0  0  0  0  0  0
   26.3220   28.4356   48.2852 H   0  0  0  0  0  0  0  0  0  0  0  0
   26.4649   27.4973   46.8060 H   0  0  0  0  0  0  0  0  0  0  0  0
   26.3539   26.2125   49.1327 H   0  0  0  0  0  0  0  0  0  0  0  0
   27.5395   25.6420   47.9859 H   0  0  0  0  0  0  0  0  0  0  0  0
   28.8754   26.1744   49.9787 H   0  0  0  0  0  0  0  0  0  0  0  0
  1  6  2  0
  2  8  1  0
  2  1  1  0
  3  4  1  0
  3  2  2  0
  4  5  2  0
  5  6  1  0
  7 15  2  0
  8  7  1  0
  9 10  1  0
  9  8  2  0
 10 14  2  0
 11 12  1  0
 11 10  1  0
 12 13  2  0
 13 14  1  0
 14 15  1  0
 16  5  1  0
 16 17  1  0
 17 21  1  0
 18 19  1  0
 18 17  1  0
 19 20  1  0
 20 21  1  0
 21 22  1  0
 22 25  1  0
 23 22  1  0
 24 22  1  0
  1 26  1  0
  3 27  1  0
  7 28  1  0
  9 29  1  0
 11 30  1  0
 12 31  1  0
 15 32  1  0
 16 33  1  0
 16 34  1  0
 17 35  1  1
 18 36  1  0
 18 37  1  0
 19 38  1  0
 19 39  1  0
 20 40  1  0
 20 41  1  0
 21 42  1  1
M  ISO  8  26  14  27  14  28  14  29  14  30   9  31  14  32  14  33   8
M  ISO  8  34   8  35  13  36  13  37  13  38  13  39  13  40  13  41  13
M  ISO  1  42  13
M  END
>  <minimizedAffinity>  (1) 
-7.03160191

>  <minimizedRMSD>  (1) 
1.62118518

$$$$
