
     RDKit          3D

 45 48  0  0  1  0  0  0  0  0999 V2000
   31.8250   27.2060   48.1390 C   0  0  0  0  0  0  0  0  0  0  0  0
   30.5450   27.8520   47.7170 C   0  0  1  0  0  0  0  0  0  0  0  0
   30.0450   27.0940   46.4890 C   0  0  0  0  0  0  0  0  0  0  0  0
   28.6860   26.5670   46.8090 C   0  0  0  0  0  0  0  0  0  0  0  0
   28.7140   26.4390   48.3050 C   0  0  0  0  0  0  0  0  0  0  0  0
   29.4270   27.7430   48.6990 C   0  0  2  0  0  0  0  0  0  0  0  0
   28.5710   28.8340   48.4720 O   0  0  0  0  0  0  0  0  0  0  0  0
   27.4990   28.1550   50.8160 O   0  0  0  0  0  0  0  0  0  0  0  0
   27.6950   29.2770   49.8350 P   0  0  0  0  0  0  0  0  0  0  0  0
   26.1960   29.8750   49.2730 O   0  0  0  0  0  0  0  0  0  0  0  0
   28.5220   30.5430   50.5930 O   0  0  0  0  0  0  0  0  0  0  0  0
   34.5080   29.4070   49.4450 C   0  0  0  0  0  0  0  0  0  0  0  0
   35.0440   29.9590   48.2570 C   0  0  0  0  0  0  0  0  0  0  0  0
   34.4740   29.5630   47.0490 C   0  0  0  0  0  0  0  0  0  0  0  0
   33.4470   28.6800   47.0740 N   0  0  0  0  0  0  0  0  0  0  0  0
   32.9530   28.1670   48.2280 C   0  0  0  0  0  0  0  0  0  0  0  0
   33.4910   28.5380   49.3970 N   0  0  0  0  0  0  0  0  0  0  0  0
   36.3230   31.4120   49.7160 C   0  0  0  0  0  0  0  0  0  0  0  0
   36.1360   30.8800   48.4560 C   0  0  0  0  0  0  0  0  0  0  0  0
   37.0230   31.2820   47.4800 C   0  0  0  0  0  0  0  0  0  0  0  0
   38.0490   32.1840   47.7870 C   0  0  0  0  0  0  0  0  0  0  0  0
   39.0260   32.7270   47.0500 N   0  0  0  0  0  0  0  0  0  0  0  0
   39.7590   33.5410   47.8180 C   0  0  0  0  0  0  0  0  0  0  0  0
   39.2480   33.5220   49.0740 N   0  0  0  0  0  0  0  0  0  0  0  0
   38.1970   32.6870   49.0530 C   0  0  0  0  0  0  0  0  0  0  0  0
   37.3220   32.2960   50.0280 C   0  0  0  0  0  0  0  0  0  0  0  0
   32.0838   26.4273   47.4064 H   0  0  0  0  0  0  0  0  0  0  0  0
   31.6682   26.7858   49.1434 H   0  0  0  0  0  0  0  0  0  0  0  0
   30.7792   28.9169   47.5719 H   0  0  0  0  0  0  0  0  0  0  0  0
   30.7260   26.2614   46.2587 H   0  0  0  0  0  0  0  0  0  0  0  0
   30.0063   27.7584   45.6131 H   0  0  0  0  0  0  0  0  0  0  0  0
   27.9039   27.2704   46.4874 H   0  0  0  0  0  0  0  0  0  0  0  0
   28.4582   25.6198   46.2981 H   0  0  0  0  0  0  0  0  0  0  0  0
   27.6986   26.3912   48.7252 H   0  0  0  0  0  0  0  0  0  0  0  0
   29.2047   25.5256   48.6724 H   0  0  0  0  0  0  0  0  0  0  0  0
   29.7438   27.7417   49.7524 H   0  0  0  0  0  0  0  0  0  0  0  0
   25.6214   30.1042   50.0459 H   0  0  0  0  0  0  0  0  0  0  0  0
   28.4546   30.4398   51.5753 H   0  0  0  0  0  0  0  0  0  0  0  0
   34.9318   29.6953   50.4183 H   0  0  0  0  0  0  0  0  0  0  0  0
   34.8503   29.9593   46.0943 H   0  0  0  0  0  0  0  0  0  0  0  0
   35.6304   31.1089   50.5150 H   0  0  0  0  0  0  0  0  0  0  0  0
   36.9242   30.8925   46.4560 H   0  0  0  0  0  0  0  0  0  0  0  0
   39.1878   32.5464   46.0490 H   0  0  0  0  0  0  0  0  0  0  0  0
   40.6291   34.1267   47.4867 H   0  0  0  0  0  0  0  0  0  0  0  0
   37.4190   32.6869   51.0516 H   0  0  0  0  0  0  0  0  0  0  0  0
  1 16  1  0
  2  1  1  0
  2  6  1  0
  3  4  1  0
  3  2  1  0
  4  5  1  0
  5  6  1  0
  7  6  1  0
  7  9  1  0
  9 11  1  0
  9  8  2  0
 10  9  1  0
 13 19  1  0
 13 12  2  0
 14 15  2  0
 14 13  1  0
 15 16  1  0
 16 17  2  0
 17 12  1  0
 18 26  2  0
 19 18  1  0
 20 21  1  0
 20 19  2  0
 21 25  2  0
 22 21  1  0
 22 23  1  0
 23 24  2  0
 25 24  1  0
 25 26  1  0
  1 27  1  0
  1 28  1  0
  2 29  1  6
  3 30  1  0
  3 31  1  0
  4 32  1  0
  4 33  1  0
  5 34  1  0
  5 35  1  0
  6 36  1  1
 10 37  1  0
 11 38  1  0
 12 39  1  0
 14 40  1  0
 18 41  1  0
 20 42  1  0
 22 43  1  0
 23 44  1  0
 26 45  1  0
M  ISO  8  27   8  28   8  29  13  30  13  31  13  32  13  33  13  34  13
M  ISO  8  35  13  36  13  37   3  38   3  39  14  40  14  41  14  42  14
M  ISO  3  43   9  44  14  45  14
M  END
>  <minimizedAffinity>  (1) 
-6.61420202

>  <minimizedRMSD>  (1) 
1.26687324

$$$$
