
     RDKit          3D

 40 43  0  0  1  0  0  0  0  0999 V2000
   33.7420   28.7220   49.1540 C   0  0  0  0  0  0  0  0  0  0  0  0
   34.1210   29.4630   48.0310 C   0  0  0  0  0  0  0  0  0  0  0  0
   33.2740   29.4010   46.9110 C   0  0  0  0  0  0  0  0  0  0  0  0
   32.1660   28.6420   46.9860 N   0  0  0  0  0  0  0  0  0  0  0  0
   31.8280   27.9360   48.0910 C   0  0  0  0  0  0  0  0  0  0  0  0
   32.6260   27.9890   49.1600 N   0  0  0  0  0  0  0  0  0  0  0  0
   35.6860   30.6930   49.3890 C   0  0  0  0  0  0  0  0  0  0  0  0
   35.3460   30.2150   48.1460 C   0  0  0  0  0  0  0  0  0  0  0  0
   36.2150   30.5010   47.1100 C   0  0  0  0  0  0  0  0  0  0  0  0
   37.3780   31.2480   47.3690 C   0  0  0  0  0  0  0  0  0  0  0  0
   38.3710   31.6620   46.5770 N   0  0  0  0  0  0  0  0  0  0  0  0
   39.2620   32.3460   47.2770 C   0  0  0  0  0  0  0  0  0  0  0  0
   38.8410   32.3790   48.5530 N   0  0  0  0  0  0  0  0  0  0  0  0
   37.6730   31.7000   48.6170 C   0  0  0  0  0  0  0  0  0  0  0  0
   36.8250   31.4280   49.6520 C   0  0  0  0  0  0  0  0  0  0  0  0
   30.5830   27.1300   48.0730 C   0  0  0  0  0  0  0  0  0  0  0  0
   29.3590   27.9700   47.8930 C   0  0  1  0  0  0  0  0  0  0  0  0
   28.7000   27.5240   46.5970 C   0  0  0  0  0  0  0  0  0  0  0  0
   27.3040   27.0990   46.9290 C   0  0  0  0  0  0  0  0  0  0  0  0
   27.4120   26.6590   48.3630 C   0  0  0  0  0  0  0  0  0  0  0  0
   28.3000   27.7430   48.9450 C   0  0  1  0  0  0  0  0  0  0  0  0
   29.0760   27.0940   50.4390 S   0  0  0  0  0  0  0  0  0  0  0  0
   34.3768   28.7432   50.0521 H   0  0  0  0  0  0  0  0  0  0  0  0
   33.5118   29.9603   45.9942 H   0  0  0  0  0  0  0  0  0  0  0  0
   35.0077   30.4763   50.2275 H   0  0  0  0  0  0  0  0  0  0  0  0
   35.9987   30.1472   46.0912 H   0  0  0  0  0  0  0  0  0  0  0  0
   38.4342   31.4755   45.5660 H   0  0  0  0  0  0  0  0  0  0  0  0
   40.1816   32.8049   46.8850 H   0  0  0  0  0  0  0  0  0  0  0  0
   37.0436   31.7852   50.6692 H   0  0  0  0  0  0  0  0  0  0  0  0
   30.6413   26.4095   47.2439 H   0  0  0  0  0  0  0  0  0  0  0  0
   30.4997   26.6223   49.0453 H   0  0  0  0  0  0  0  0  0  0  0  0
   29.6888   29.0187   47.9296 H   0  0  0  0  0  0  0  0  0  0  0  0
   29.2568   26.6805   46.1628 H   0  0  0  0  0  0  0  0  0  0  0  0
   28.6928   28.3429   45.8626 H   0  0  0  0  0  0  0  0  0  0  0  0
   26.6008   27.9385   46.8257 H   0  0  0  0  0  0  0  0  0  0  0  0
   26.9225   26.3110   46.2630 H   0  0  0  0  0  0  0  0  0  0  0  0
   26.4273   26.6400   48.8529 H   0  0  0  0  0  0  0  0  0  0  0  0
   27.8052   25.6397   48.4914 H   0  0  0  0  0  0  0  0  0  0  0  0
   27.7550   28.6647   49.1967 H   0  0  0  0  0  0  0  0  0  0  0  0
   28.4520   27.6159   51.5413 H   0  0  0  0  0  0  0  0  0  0  0  0
  1  6  2  0
  2  8  1  0
  2  1  1  0
  3  4  1  0
  3  2  2  0
  4  5  2  0
  5  6  1  0
  7 15  2  0
  8  7  1  0
  9 10  1  0
  9  8  2  0
 10 14  2  0
 11 12  1  0
 11 10  1  0
 12 13  2  0
 13 14  1  0
 14 15  1  0
 16  5  1  0
 17 16  1  0
 17 21  1  0
 18 19  1  0
 18 17  1  0
 19 20  1  0
 20 21  1  0
 21 22  1  0
  1 23  1  0
  3 24  1  0
  7 25  1  0
  9 26  1  0
 11 27  1  0
 12 28  1  0
 15 29  1  0
 16 30  1  0
 16 31  1  0
 17 32  1  6
 18 33  1  0
 18 34  1  0
 19 35  1  0
 19 36  1  0
 20 37  1  0
 20 38  1  0
 21 39  1  1
 22 40  1  0
M  ISO  8  23  14  24  14  25  14  26  14  27   9  28  14  29  14  30   8
M  ISO  8  31   8  32  13  33  13  34  13  35  13  36  13  37  13  38  13
M  ISO  2  39  13  40  11
M  END
>  <minimizedAffinity>  (1) 
-6.11008072

>  <minimizedRMSD>  (1) 
1.33504248

$$$$
