
     RDKit          3D

 26 28  0  0  0  0  0  0  0  0999 V2000
   38.3290   32.2940   48.8640 C   0  0  0  0  0  0  0  0  0  0  0  0
   38.6950   33.4610   49.4380 N   0  0  0  0  0  0  0  0  0  0  0  0
   39.5270   34.3520   48.8950 C   0  0  0  0  0  0  0  0  0  0  0  0
   40.0850   34.1470   47.6890 N   0  0  0  0  0  0  0  0  0  0  0  0
   39.7870   33.0050   47.0180 C   0  0  0  0  0  0  0  0  0  0  0  0
   40.3500   32.7800   45.7810 C   0  0  0  0  0  0  0  0  0  0  0  0
   40.0630   31.6250   45.0810 C   0  0  0  0  0  0  0  0  0  0  0  0
   39.1860   30.7220   45.6910 C   0  0  0  0  0  0  0  0  0  0  0  0
   38.6630   31.0000   46.9140 C   0  0  0  0  0  0  0  0  0  0  0  0
   38.9220   32.1230   47.6310 C   0  0  0  0  0  0  0  0  0  0  0  0
   37.2480   29.7310   51.2850 C   0  0  0  0  0  0  0  0  0  0  0  0
   38.0090   30.6540   50.5710 C   0  0  0  0  0  0  0  0  0  0  0  0
   37.4340   31.3880   49.5030 C   0  0  0  0  0  0  0  0  0  0  0  0
   36.1410   31.0710   49.3120 N   0  0  0  0  0  0  0  0  0  0  0  0
   35.4060   30.2050   49.9750 C   0  0  0  0  0  0  0  0  0  0  0  0
   35.9600   29.5140   50.9870 N   0  0  0  0  0  0  0  0  0  0  0  0
   34.0700   30.1000   49.5300 N   0  0  0  0  0  0  0  0  0  0  0  0
   39.7615   35.2746   49.4463 H   0  0  0  0  0  0  0  0  0  0  0  0
   41.0329   33.5257   45.3479 H   0  0  0  0  0  0  0  0  0  0  0  0
   40.5023   31.4249   44.0926 H   0  0  0  0  0  0  0  0  0  0  0  0
   38.9192   29.7852   45.1798 H   0  0  0  0  0  0  0  0  0  0  0  0
   37.9791   30.2602   47.3556 H   0  0  0  0  0  0  0  0  0  0  0  0
   37.7133   29.1699   52.1088 H   0  0  0  0  0  0  0  0  0  0  0  0
   39.0640   30.8145   50.8379 H   0  0  0  0  0  0  0  0  0  0  0  0
   33.4230   29.4455   49.9926 H   0  0  0  0  0  0  0  0  0  0  0  0
   33.7424   30.6779   48.7428 H   0  0  0  0  0  0  0  0  0  0  0  0
  1  2  2  0
  1 13  1  0
  3  2  1  0
  4  3  2  0
  5 10  2  0
  5  4  1  0
  6  5  1  0
  7  8  1  0
  7  6  2  0
  8  9  2  0
  9 10  1  0
 10  1  1  0
 12 11  2  0
 13 12  1  0
 14 13  2  0
 14 15  1  0
 15 16  2  0
 16 11  1  0
 17 15  1  0
  3 18  1  0
  6 19  1  0
  7 20  1  0
  8 21  1  0
  9 22  1  0
 11 23  1  0
 12 24  1  0
 17 25  1  0
 17 26  1  0
M  ISO  7  18  14  19  14  20  14  21  14  22  14  23  14  24  14
M  END
>  <minimizedAffinity>  (1) 
-6.51369619

>  <minimizedRMSD>  (1) 
1.84393692

$$$$
