
     RDKit          3D

 26 28  0  0  0  0  0  0  0  0999 V2000
   38.8160   32.5280   48.2840 C   0  0  0  0  0  0  0  0  0  0  0  0
   38.3540   31.2480   48.0770 C   0  0  0  0  0  0  0  0  0  0  0  0
   38.5600   30.6310   46.8630 C   0  0  0  0  0  0  0  0  0  0  0  0
   39.2220   31.2750   45.8530 C   0  0  0  0  0  0  0  0  0  0  0  0
   39.5530   30.9010   44.5830 N   0  0  0  0  0  0  0  0  0  0  0  0
   40.2220   31.9210   43.9670 C   0  0  0  0  0  0  0  0  0  0  0  0
   40.3360   32.9900   44.8490 C   0  0  0  0  0  0  0  0  0  0  0  0
   39.7100   32.5570   45.9950 C   0  0  0  0  0  0  0  0  0  0  0  0
   39.4840   33.1290   47.2110 C   0  0  0  0  0  0  0  0  0  0  0  0
   37.2020   30.1140   51.4850 C   0  0  0  0  0  0  0  0  0  0  0  0
   37.9670   30.8050   50.5350 C   0  0  0  0  0  0  0  0  0  0  0  0
   37.6570   30.6080   49.1820 C   0  0  0  0  0  0  0  0  0  0  0  0
   36.6310   29.7580   48.8810 N   0  0  0  0  0  0  0  0  0  0  0  0
   35.9200   29.1140   49.8430 C   0  0  0  0  0  0  0  0  0  0  0  0
   36.2000   29.2850   51.1520 N   0  0  0  0  0  0  0  0  0  0  0  0
   34.8930   28.2700   49.3570 N   0  0  0  0  0  0  0  0  0  0  0  0
   38.6682   33.0502   49.2408 H   0  0  0  0  0  0  0  0  0  0  0  0
   38.1879   29.6082   46.7033 H   0  0  0  0  0  0  0  0  0  0  0  0
   39.3326   29.9905   44.1549 H   0  0  0  0  0  0  0  0  0  0  0  0
   40.6087   31.8998   42.9374 H   0  0  0  0  0  0  0  0  0  0  0  0
   40.8180   33.9625   44.6706 H   0  0  0  0  0  0  0  0  0  0  0  0
   39.8592   34.1519   47.3624 H   0  0  0  0  0  0  0  0  0  0  0  0
   37.4331   30.2575   52.5508 H   0  0  0  0  0  0  0  0  0  0  0  0
   38.7817   31.4780   50.8404 H   0  0  0  0  0  0  0  0  0  0  0  0
   34.3040   27.7428   50.0173 H   0  0  0  0  0  0  0  0  0  0  0  0
   34.7346   28.1830   48.3430 H   0  0  0  0  0  0  0  0  0  0  0  0
  2  1  2  0
  2 12  1  0
  3  2  1  0
  4  8  1  0
  4  3  2  0
  5  4  1  0
  6  5  1  0
  6  7  2  0
  7  8  1  0
  8  9  2  0
  9  1  1  0
 11 10  2  0
 12 11  1  0
 13 12  2  0
 13 14  1  0
 14 15  2  0
 15 10  1  0
 16 14  1  0
  1 17  1  0
  3 18  1  0
  5 19  1  0
  6 20  1  0
  7 21  1  0
  9 22  1  0
 10 23  1  0
 11 24  1  0
 16 25  1  0
 16 26  1  0
M  ISO  8  17  14  18  14  19   9  20  14  21  14  22  14  23  14  24  14
M  END
>  <minimizedAffinity>  (1) 
-6.29896593

>  <minimizedRMSD>  (1) 
0.59428364

$$$$
