
     RDKit          3D

 18 18  0  0  0  0  0  0  0  0999 V2000
   37.1780   29.5960   51.2730 C   0  0  0  0  0  0  0  0  0  0  0  0
   37.8990   30.7030   50.7730 C   0  0  0  0  0  0  0  0  0  0  0  0
   37.2230   31.5500   49.8460 C   0  0  0  0  0  0  0  0  0  0  0  0
   35.9270   31.2360   49.5030 N   0  0  0  0  0  0  0  0  0  0  0  0
   35.3120   30.1660   50.0220 C   0  0  0  0  0  0  0  0  0  0  0  0
   35.9110   29.3400   50.9000 N   0  0  0  0  0  0  0  0  0  0  0  0
   33.9660   29.9730   49.5690 N   0  0  0  0  0  0  0  0  0  0  0  0
   37.9440   32.7150   49.3040 C   0  0  0  0  0  0  0  0  0  0  0  0
   38.7360   32.4200   48.0730 C   0  0  0  0  0  0  0  0  0  0  0  0
   37.6683   28.9215   51.9905 H   0  0  0  0  0  0  0  0  0  0  0  0
   38.9349   30.9027   51.0845 H   0  0  0  0  0  0  0  0  0  0  0  0
   33.4154   29.1745   49.9157 H   0  0  0  0  0  0  0  0  0  0  0  0
   33.5493   30.6328   48.8967 H   0  0  0  0  0  0  0  0  0  0  0  0
   37.2078   33.4959   49.0628 H   0  0  0  0  0  0  0  0  0  0  0  0
   38.6610   33.0327   50.0753 H   0  0  0  0  0  0  0  0  0  0  0  0
   39.7317   32.0491   48.3577 H   0  0  0  0  0  0  0  0  0  0  0  0
   38.2164   31.6551   47.4772 H   0  0  0  0  0  0  0  0  0  0  0  0
   38.8434   33.3384   47.4772 H   0  0  0  0  0  0  0  0  0  0  0  0
  2  1  2  0
  3  2  1  0
  4  3  2  0
  4  5  1  0
  5  6  2  0
  6  1  1  0
  7  5  1  0
  8  3  1  0
  9  8  1  0
  1 10  1  0
  2 11  1  0
  7 12  1  0
  7 13  1  0
  8 14  1  0
  8 15  1  0
  9 16  1  0
  9 17  1  0
  9 18  1  0
M  ISO  7  10  14  11  14  14   8  15   8  16   8  17   8  18   8
M  END
>  <minimizedAffinity>  (1) 
-4.00861454

>  <minimizedRMSD>  (1) 
1.5914011

$$$$
