
     RDKit          3D

 14 14  0  0  0  0  0  0  0  0999 V2000
   37.2930   30.2190   51.4440 C   0  0  0  0  0  0  0  0  0  0  0  0
   38.1140   30.7390   50.4320 C   0  0  0  0  0  0  0  0  0  0  0  0
   37.7980   30.4030   49.1040 C   0  0  0  0  0  0  0  0  0  0  0  0
   36.7150   29.5930   48.8690 N   0  0  0  0  0  0  0  0  0  0  0  0
   35.9660   29.1250   49.8840 C   0  0  0  0  0  0  0  0  0  0  0  0
   36.2330   29.4240   51.1820 N   0  0  0  0  0  0  0  0  0  0  0  0
   34.8800   28.3010   49.4990 N   0  0  0  0  0  0  0  0  0  0  0  0
   38.6080   30.9120   48.0440 N   0  0  0  0  0  0  0  0  0  0  0  0
   37.5213   30.4683   52.4908 H   0  0  0  0  0  0  0  0  0  0  0  0
   38.9723   31.3850   50.6687 H   0  0  0  0  0  0  0  0  0  0  0  0
   34.2571   27.9018   50.2156 H   0  0  0  0  0  0  0  0  0  0  0  0
   34.7133   28.1011   48.5024 H   0  0  0  0  0  0  0  0  0  0  0  0
   38.3870   30.6732   47.0667 H   0  0  0  0  0  0  0  0  0  0  0  0
   39.4133   31.5180   48.2566 H   0  0  0  0  0  0  0  0  0  0  0  0
  2  1  2  0
  3  2  1  0
  4  3  2  0
  4  5  1  0
  5  6  2  0
  6  1  1  0
  7  5  1  0
  8  3  1  0
  1  9  1  0
  2 10  1  0
  7 11  1  0
  7 12  1  0
  8 13  1  0
  8 14  1  0
M  ISO  2   9  14  10  14
M  END
>  <minimizedAffinity>  (1) 
-3.79138279

>  <minimizedRMSD>  (1) 
0.0609519035

$$$$
