
     RDKit          3D

 23 24  0  0  0  0  0  0  0  0999 V2000
   38.4070   32.1600   48.5620 C   0  0  0  0  0  0  0  0  0  0  0  0
   38.6480   33.2020   49.4390 C   0  0  0  0  0  0  0  0  0  0  0  0
   39.4900   34.2490   49.0370 C   0  0  0  0  0  0  0  0  0  0  0  0
   40.0750   34.2280   47.7580 C   0  0  0  0  0  0  0  0  0  0  0  0
   39.8310   33.1730   46.8730 C   0  0  0  0  0  0  0  0  0  0  0  0
   38.9980   32.1720   47.3180 C   0  0  0  0  0  0  0  0  0  0  0  0
   36.9350   29.1590   50.3150 C   0  0  0  0  0  0  0  0  0  0  0  0
   37.8960   30.1160   49.9480 C   0  0  0  0  0  0  0  0  0  0  0  0
   37.5220   31.1000   49.0390 C   0  0  0  0  0  0  0  0  0  0  0  0
   36.2400   31.0930   48.5440 N   0  0  0  0  0  0  0  0  0  0  0  0
   35.3490   30.1460   48.9300 C   0  0  0  0  0  0  0  0  0  0  0  0
   35.6950   29.1790   49.8160 N   0  0  0  0  0  0  0  0  0  0  0  0
   34.0720   30.2600   48.3430 N   0  0  0  0  0  0  0  0  0  0  0  0
   38.6020   30.7710   46.2920 S   0  0  0  0  0  0  0  0  0  0  0  0
   38.1860   33.2094   50.4372 H   0  0  0  0  0  0  0  0  0  0  0  0
   39.6928   35.0860   49.7214 H   0  0  0  0  0  0  0  0  0  0  0  0
   40.7338   35.0531   47.4495 H   0  0  0  0  0  0  0  0  0  0  0  0
   40.2827   33.1447   45.8704 H   0  0  0  0  0  0  0  0  0  0  0  0
   37.2105   28.3719   51.0324 H   0  0  0  0  0  0  0  0  0  0  0  0
   38.9128   30.0879   50.3667 H   0  0  0  0  0  0  0  0  0  0  0  0
   33.3338   29.5820   48.5802 H   0  0  0  0  0  0  0  0  0  0  0  0
   33.8774   31.0213   47.6770 H   0  0  0  0  0  0  0  0  0  0  0  0
   38.2981   29.6958   47.0848 H   0  0  0  0  0  0  0  0  0  0  0  0
  1  9  1  0
  1  2  2  0
  3  2  1  0
  4  3  2  0
  5  6  2  0
  5  4  1  0
  6  1  1  0
  8  7  2  0
  9  8  1  0
 10 11  1  0
 10  9  2  0
 11 12  2  0
 12  7  1  0
 13 11  1  0
 14  6  1  0
  2 15  1  0
  3 16  1  0
  4 17  1  0
  5 18  1  0
  7 19  1  0
  8 20  1  0
 13 21  1  0
 13 22  1  0
 14 23  1  0
M  ISO  7  15  14  16  14  17  14  18  14  19  14  20  14  23  11
M  END
>  <minimizedAffinity>  (1) 
-5.58842802

>  <minimizedRMSD>  (1) 
1.7126857

$$$$
