
     RDKit          3D

 40 43  0  0  1  0  0  0  0  0999 V2000
   36.4370   29.8120   48.7300 N   0  0  0  0  0  0  0  0  0  0  0  0
   36.9180   29.3840   50.0560 C   0  0  0  0  0  0  0  0  0  0  0  0
   37.5790   30.4450   50.8420 C   0  0  0  0  0  0  0  0  0  0  0  0
   38.1840   31.5310   50.1570 N   0  0  0  0  0  0  0  0  0  0  0  0
   37.4840   31.9080   48.9290 C   0  0  0  0  0  0  0  0  0  0  0  0
   37.3940   30.6270   48.1110 C   0  0  2  0  0  0  0  0  0  0  0  0
   37.3390   30.8740   46.6760 C   0  0  0  0  0  0  0  0  0  0  0  0
   36.4130   30.3390   45.7650 C   0  0  0  0  0  0  0  0  0  0  0  0
   36.4020   30.6330   44.4190 C   0  0  0  0  0  0  0  0  0  0  0  0
   37.3350   31.4980   43.8960 C   0  0  0  0  0  0  0  0  0  0  0  0
   38.2660   32.0500   44.7510 C   0  0  0  0  0  0  0  0  0  0  0  0
   39.1640   32.9070   44.1650 C   0  0  0  0  0  0  0  0  0  0  0  0
   40.1260   33.5080   44.9380 C   0  0  0  0  0  0  0  0  0  0  0  0
   40.1700   33.2420   46.2820 C   0  0  0  0  0  0  0  0  0  0  0  0
   39.2430   32.3740   46.8160 C   0  0  0  0  0  0  0  0  0  0  0  0
   38.2530   31.7380   46.0960 C   0  0  0  0  0  0  0  0  0  0  0  0
   35.1690   29.3910   48.2580 C   0  0  0  0  0  0  0  0  0  0  0  0
   34.2790   30.2630   47.6450 C   0  0  0  0  0  0  0  0  0  0  0  0
   33.0490   29.8300   47.1840 C   0  0  0  0  0  0  0  0  0  0  0  0
   32.7610   28.5000   47.3680 N   0  0  0  0  0  0  0  0  0  0  0  0
   33.6560   27.6600   47.9770 C   0  0  0  0  0  0  0  0  0  0  0  0
   34.8370   28.0950   48.4140 N   0  0  0  0  0  0  0  0  0  0  0  0
   36.0555   29.0172   50.6319 H   0  0  0  0  0  0  0  0  0  0  0  0
   37.6781   28.6093   49.8768 H   0  0  0  0  0  0  0  0  0  0  0  0
   36.8186   30.8704   51.5135 H   0  0  0  0  0  0  0  0  0  0  0  0
   38.4247   29.9308   51.3220 H   0  0  0  0  0  0  0  0  0  0  0  0
   38.1996   32.3459   50.7868 H   0  0  0  0  0  0  0  0  0  0  0  0
   36.4785   32.2896   49.1599 H   0  0  0  0  0  0  0  0  0  0  0  0
   38.0094   32.7068   48.3851 H   0  0  0  0  0  0  0  0  0  0  0  0
   38.3168   30.0284   48.1191 H   0  0  0  0  0  0  0  0  0  0  0  0
   35.6516   29.6442   46.1491 H   0  0  0  0  0  0  0  0  0  0  0  0
   35.6470   30.1759   43.7625 H   0  0  0  0  0  0  0  0  0  0  0  0
   37.3385   31.7431   42.8237 H   0  0  0  0  0  0  0  0  0  0  0  0
   39.1131   33.1104   43.0852 H   0  0  0  0  0  0  0  0  0  0  0  0
   40.8541   34.1960   44.4836 H   0  0  0  0  0  0  0  0  0  0  0  0
   40.9309   33.7126   46.9219 H   0  0  0  0  0  0  0  0  0  0  0  0
   39.2962   32.1733   47.8962 H   0  0  0  0  0  0  0  0  0  0  0  0
   34.5580   31.3201   47.5235 H   0  0  0  0  0  0  0  0  0  0  0  0
   32.3394   30.5144   46.6961 H   0  0  0  0  0  0  0  0  0  0  0  0
   33.3928   26.6001   48.1084 H   0  0  0  0  0  0  0  0  0  0  0  0
  1  2  1  0
  2  3  1  0
  4  3  1  0
  5  4  1  0
  6  1  1  0
  6  5  1  0
  7  6  1  0
  8  7  2  0
  9  8  1  0
 10  9  2  0
 10 11  1  0
 11 16  2  0
 12 11  1  0
 12 13  2  0
 13 14  1  0
 14 15  2  0
 16  7  1  0
 16 15  1  0
 17 22  1  0
 17  1  1  0
 18 17  2  0
 19 20  2  0
 19 18  1  0
 20 21  1  0
 21 22  2  0
  2 23  1  0
  2 24  1  0
  3 25  1  0
  3 26  1  0
  4 27  1  0
  5 28  1  0
  5 29  1  0
  6 30  1  6
  8 31  1  0
  9 32  1  0
 10 33  1  0
 12 34  1  0
 13 35  1  0
 14 36  1  0
 15 37  1  0
 18 38  1  0
 19 39  1  0
 21 40  1  0
M  ISO  8  23  13  24  13  25  13  26  13  27   5  28  13  29  13  30  13
M  ISO  8  31  14  32  14  33  14  34  14  35  14  36  14  37  14  38  14
M  ISO  2  39  14  40  14
M  END
>  <minimizedAffinity>  (1) 
-6.35589266

>  <minimizedRMSD>  (1) 
0.850164831

$$$$
