
     RDKit          3D

 38 40  0  0  1  0  0  0  0  0999 V2000
   36.7910   29.7420   48.8290 N   0  0  0  0  0  0  0  0  0  0  0  0
   37.1690   29.1850   50.1280 C   0  0  0  0  0  0  0  0  0  0  0  0
   37.8770   30.1240   51.0250 C   0  0  0  0  0  0  0  0  0  0  0  0
   38.6470   31.1520   50.4380 N   0  0  0  0  0  0  0  0  0  0  0  0
   38.0580   31.6880   49.1970 C   0  0  0  0  0  0  0  0  0  0  0  0
   37.8710   30.4900   48.3040 C   0  0  2  0  0  0  0  0  0  0  0  0
   35.5120   29.5190   48.2460 C   0  0  0  0  0  0  0  0  0  0  0  0
   34.9300   30.4180   47.3540 C   0  0  0  0  0  0  0  0  0  0  0  0
   33.6760   30.1200   46.8260 C   0  0  0  0  0  0  0  0  0  0  0  0
   33.0730   28.9610   47.2050 N   0  0  0  0  0  0  0  0  0  0  0  0
   33.6800   28.1050   48.0860 C   0  0  0  0  0  0  0  0  0  0  0  0
   34.8920   28.3620   48.6160 N   0  0  0  0  0  0  0  0  0  0  0  0
   37.7880   30.8160   46.8950 N   0  0  0  0  0  0  0  0  0  0  0  0
   37.9790   32.2270   46.6540 C   0  0  0  0  0  0  0  0  0  0  0  0
   38.1870   32.4240   45.1730 C   0  0  0  0  0  0  0  0  0  0  0  0
   39.5610   32.0620   44.8830 N   0  0  0  0  0  0  0  0  0  0  0  0
   40.0010   31.0340   45.8100 C   0  0  0  0  0  0  0  0  0  0  0  0
   38.8550   30.1150   46.1710 C   0  0  0  0  0  0  0  0  0  0  0  0
   36.2525   28.8515   50.6368 H   0  0  0  0  0  0  0  0  0  0  0  0
   37.8734   28.3662   49.9198 H   0  0  0  0  0  0  0  0  0  0  0  0
   37.1177   30.6058   51.6585 H   0  0  0  0  0  0  0  0  0  0  0  0
   38.6125   29.4977   51.5512 H   0  0  0  0  0  0  0  0  0  0  0  0
   38.7356   31.9218   51.1166 H   0  0  0  0  0  0  0  0  0  0  0  0
   37.0912   32.1698   49.4048 H   0  0  0  0  0  0  0  0  0  0  0  0
   38.6982   32.4528   48.7330 H   0  0  0  0  0  0  0  0  0  0  0  0
   38.7695   29.8555   48.3150 H   0  0  0  0  0  0  0  0  0  0  0  0
   35.4510   31.3450   47.0724 H   0  0  0  0  0  0  0  0  0  0  0  0
   33.1850   30.8054   46.1195 H   0  0  0  0  0  0  0  0  0  0  0  0
   33.1610   27.1776   48.3699 H   0  0  0  0  0  0  0  0  0  0  0  0
   37.0904   32.7854   46.9835 H   0  0  0  0  0  0  0  0  0  0  0  0
   38.8510   32.5953   47.2142 H   0  0  0  0  0  0  0  0  0  0  0  0
   37.4993   31.7790   44.6064 H   0  0  0  0  0  0  0  0  0  0  0  0
   37.9880   33.4669   44.8852 H   0  0  0  0  0  0  0  0  0  0  0  0
   39.6250   31.7044   43.9192 H   0  0  0  0  0  0  0  0  0  0  0  0
   40.8030   30.4446   45.3417 H   0  0  0  0  0  0  0  0  0  0  0  0
   40.3691   31.5179   46.7267 H   0  0  0  0  0  0  0  0  0  0  0  0
   39.2390   29.3027   46.8056 H   0  0  0  0  0  0  0  0  0  0  0  0
   38.4278   29.7249   45.2354 H   0  0  0  0  0  0  0  0  0  0  0  0
  1  2  1  0
  2  3  1  0
  4  3  1  0
  5  4  1  0
  6  1  1  0
  6  5  1  0
  7 12  1  0
  7  1  1  0
  8  7  2  0
  9 10  2  0
  9  8  1  0
 10 11  1  0
 11 12  2  0
 13 18  1  0
 13  6  1  0
 14 13  1  0
 15 14  1  0
 16 15  1  0
 16 17  1  0
 17 18  1  0
  2 19  1  0
  2 20  1  0
  3 21  1  0
  3 22  1  0
  4 23  1  0
  5 24  1  0
  5 25  1  0
  6 26  1  6
  8 27  1  0
  9 28  1  0
 11 29  1  0
 14 30  1  0
 14 31  1  0
 15 32  1  0
 15 33  1  0
 16 34  1  0
 17 35  1  0
 17 36  1  0
 18 37  1  0
 18 38  1  0
M  ISO  8  19  13  20  13  21  13  22  13  23   5  24  13  25  13  26  13
M  ISO  8  27  14  28  14  29  14  30  13  31  13  32  13  33  13  34   5
M  ISO  4  35  13  36  13  37  13  38  13
M  END
>  <minimizedAffinity>  (1) 
-4.9107008

>  <minimizedRMSD>  (1) 
0.477419078

$$$$
