
     RDKit          3D

 27 28  0  0  0  0  0  0  0  0999 V2000
   35.9730   29.2180   48.7280 C   0  0  0  0  0  0  0  0  0  0  0  0
   34.2230   29.1470   46.9730 C   0  0  0  0  0  0  0  0  0  0  0  0
   34.5870   28.8470   48.2700 C   0  0  0  0  0  0  0  0  0  0  0  0
   33.7230   28.2180   49.1650 C   0  0  0  0  0  0  0  0  0  0  0  0
   32.4610   27.8770   48.7580 C   0  0  0  0  0  0  0  0  0  0  0  0
   32.0900   28.1690   47.4740 C   0  0  0  0  0  0  0  0  0  0  0  0
   32.9500   28.7970   46.5770 C   0  0  0  0  0  0  0  0  0  0  0  0
   35.8500   30.3130   45.2960 N   0  0  0  0  0  0  0  0  0  0  0  0
   35.1090   29.7950   46.0470 C   0  0  0  0  0  0  0  0  0  0  0  0
   35.8490   30.4820   49.5390 C   0  0  0  0  0  0  0  0  0  0  0  0
   38.1210   33.4020   49.4000 C   0  0  0  0  0  0  0  0  0  0  0  0
   38.9810   33.0780   48.3520 C   0  0  0  0  0  0  0  0  0  0  0  0
   38.7860   31.8560   47.6880 C   0  0  0  0  0  0  0  0  0  0  0  0
   37.7710   31.0690   48.1090 N   0  0  0  0  0  0  0  0  0  0  0  0
   36.9590   31.4250   49.1350 C   0  0  0  0  0  0  0  0  0  0  0  0
   37.1190   32.5900   49.7940 N   0  0  0  0  0  0  0  0  0  0  0  0
   36.6242   29.3902   47.8583 H   0  0  0  0  0  0  0  0  0  0  0  0
   36.4160   28.4098   49.3285 H   0  0  0  0  0  0  0  0  0  0  0  0
   34.0528   27.9972   50.1909 H   0  0  0  0  0  0  0  0  0  0  0  0
   31.7621   27.3801   49.4470 H   0  0  0  0  0  0  0  0  0  0  0  0
   31.0778   27.8984   47.1389 H   0  0  0  0  0  0  0  0  0  0  0  0
   32.6135   29.0138   45.5524 H   0  0  0  0  0  0  0  0  0  0  0  0
   34.8739   30.9527   49.3449 H   0  0  0  0  0  0  0  0  0  0  0  0
   35.9252   30.2494   50.6114 H   0  0  0  0  0  0  0  0  0  0  0  0
   38.2652   34.3572   49.9261 H   0  0  0  0  0  0  0  0  0  0  0  0
   39.7901   33.7607   48.0533 H   0  0  0  0  0  0  0  0  0  0  0  0
   39.4361   31.5502   46.8550 H   0  0  0  0  0  0  0  0  0  0  0  0
  1 10  1  0
  2  3  2  0
  3  1  1  0
  3  4  1  0
  5  4  2  0
  6  5  1  0
  7  2  1  0
  7  6  2  0
  8  9  3  0
  9  2  1  0
 11 16  2  0
 12 11  1  0
 13 14  1  0
 13 12  2  0
 14 15  2  0
 15 10  1  0
 15 16  1  0
  1 17  1  0
  1 18  1  0
  4 19  1  0
  5 20  1  0
  6 21  1  0
  7 22  1  0
 10 23  1  0
 10 24  1  0
 11 25  1  0
 12 26  1  0
 13 27  1  0
M  ISO  8  17   8  18   8  19  14  20  14  21  14  22  14  23   8  24   8
M  ISO  3  25  14  26  14  27  14
M  END
>  <minimizedAffinity>  (1) 
-4.5678339

>  <minimizedRMSD>  (1) 
3.3510561

$$$$
