
     RDKit          3D

 20 20  0  0  0  0  0  0  0  0999 V2000
   34.8980   28.2530   49.5870 C   0  0  0  0  0  0  0  0  0  0  0  0
   37.3860   30.2970   51.4070 C   0  0  0  0  0  0  0  0  0  0  0  0
   38.1190   30.8340   50.3220 C   0  0  0  0  0  0  0  0  0  0  0  0
   37.7660   30.4990   48.9820 C   0  0  0  0  0  0  0  0  0  0  0  0
   36.7150   29.6620   48.8440 N   0  0  0  0  0  0  0  0  0  0  0  0
   36.0380   29.1680   49.9030 C   0  0  0  0  0  0  0  0  0  0  0  0
   36.3660   29.4800   51.1730 N   0  0  0  0  0  0  0  0  0  0  0  0
   34.1170   28.7650   48.4140 C   0  0  0  0  0  0  0  0  0  0  0  0
   31.8550   27.5870   48.4780 C   0  0  0  0  0  0  0  0  0  0  0  0
   32.3150   26.5200   47.9980 O   0  0  0  0  0  0  0  0  0  0  0  0
   32.7000   28.7070   48.6980 N   0  0  0  0  0  0  0  0  0  0  0  0
   35.2920   27.2537   49.3500 H   0  0  0  0  0  0  0  0  0  0  0  0
   34.2318   28.2032   50.4609 H   0  0  0  0  0  0  0  0  0  0  0  0
   37.6604   30.5556   52.4404 H   0  0  0  0  0  0  0  0  0  0  0  0
   38.9638   31.5120   50.5132 H   0  0  0  0  0  0  0  0  0  0  0  0
   38.3147   30.8969   48.1156 H   0  0  0  0  0  0  0  0  0  0  0  0
   34.3371   28.1458   47.5319 H   0  0  0  0  0  0  0  0  0  0  0  0
   34.4030   29.8090   48.2186 H   0  0  0  0  0  0  0  0  0  0  0  0
   30.7864   27.6538   48.7303 H   0  0  0  0  0  0  0  0  0  0  0  0
   32.2655   29.5524   49.0947 H   0  0  0  0  0  0  0  0  0  0  0  0
  1  6  1  0
  3  2  2  0
  4  3  1  0
  5  4  2  0
  5  6  1  0
  6  7  2  0
  7  2  1  0
  8 11  1  0
  8  1  1  0
  9 11  1  0
 10  9  2  0
  1 12  1  0
  1 13  1  0
  2 14  1  0
  3 15  1  0
  4 16  1  0
  8 17  1  0
  8 18  1  0
  9 19  1  0
 11 20  1  0
M  ISO  8  12   8  13   8  14  14  15  14  16  14  17   8  18   8  19   6
M  END
>  <minimizedAffinity>  (1) 
-3.86713481

>  <minimizedRMSD>  (1) 
0.915225804

$$$$
