
     RDKit          3D

 23 24  0  0  0  0  0  0  0  0999 V2000
   34.6630   28.2980   49.5740 C   0  0  0  0  0  0  0  0  0  0  0  0
   37.2840   30.1810   51.3930 C   0  0  0  0  0  0  0  0  0  0  0  0
   38.0710   30.6900   50.3430 C   0  0  0  0  0  0  0  0  0  0  0  0
   37.6920   30.3820   49.0240 C   0  0  0  0  0  0  0  0  0  0  0  0
   36.5900   29.6100   48.8230 N   0  0  0  0  0  0  0  0  0  0  0  0
   35.8640   29.1420   49.8730 C   0  0  0  0  0  0  0  0  0  0  0  0
   36.2170   29.4310   51.1240 N   0  0  0  0  0  0  0  0  0  0  0  0
   34.4460   28.2380   48.0900 C   0  0  0  0  0  0  0  0  0  0  0  0
   32.9590   28.2640   47.8820 C   0  0  0  0  0  0  0  0  0  0  0  0
   32.0140   27.6000   48.6300 C   0  0  0  0  0  0  0  0  0  0  0  0
   30.7410   27.8490   48.1600 C   0  0  0  0  0  0  0  0  0  0  0  0
   30.9550   28.6790   47.1080 N   0  0  0  0  0  0  0  0  0  0  0  0
   32.2520   28.9220   46.9450 N   0  0  0  0  0  0  0  0  0  0  0  0
   34.8244   27.2813   49.9617 H   0  0  0  0  0  0  0  0  0  0  0  0
   33.7776   28.7394   50.0549 H   0  0  0  0  0  0  0  0  0  0  0  0
   37.5506   30.4029   52.4369 H   0  0  0  0  0  0  0  0  0  0  0  0
   38.9561   31.3102   50.5478 H   0  0  0  0  0  0  0  0  0  0  0  0
   38.2757   30.7583   48.1709 H   0  0  0  0  0  0  0  0  0  0  0  0
   34.9146   29.1047   47.6009 H   0  0  0  0  0  0  0  0  0  0  0  0
   34.8955   27.3328   47.6557 H   0  0  0  0  0  0  0  0  0  0  0  0
   32.2436   26.9546   49.4907 H   0  0  0  0  0  0  0  0  0  0  0  0
   29.7840   27.4671   48.5450 H   0  0  0  0  0  0  0  0  0  0  0  0
   30.2101   29.0697   46.5135 H   0  0  0  0  0  0  0  0  0  0  0  0
  1  6  1  0
  3  2  2  0
  4  3  1  0
  5  4  2  0
  5  6  1  0
  6  7  2  0
  7  2  1  0
  8  1  1  0
  9  8  1  0
  9 10  1  0
 11 10  2  0
 12 11  1  0
 13 12  1  0
 13  9  2  0
  1 14  1  0
  1 15  1  0
  2 16  1  0
  3 17  1  0
  4 18  1  0
  8 19  1  0
  8 20  1  0
 10 21  1  0
 11 22  1  0
 12 23  1  0
M  ISO  8  14   8  15   8  16  14  17  14  18  14  19   8  20   8  21  14
M  ISO  2  22  14  23   9
M  END
>  <minimizedAffinity>  (1) 
-4.31541252

>  <minimizedRMSD>  (1) 
1.01625836

$$$$
