
     RDKit          3D

 39 42  0  0  0  0  0  0  0  0999 V2000
   32.7010   27.7870   48.6070 C   0  0  0  0  0  0  0  0  0  0  0  0
   32.1300   26.7360   47.9090 C   0  0  0  0  0  0  0  0  0  0  0  0
   30.7990   26.6030   48.2860 C   0  0  0  0  0  0  0  0  0  0  0  0
   30.6020   27.5860   49.2080 N   0  0  0  0  0  0  0  0  0  0  0  0
   31.7290   28.2720   49.3840 N   0  0  0  0  0  0  0  0  0  0  0  0
   29.3030   27.6990   49.7840 C   0  0  0  0  0  0  0  0  0  0  0  0
   29.0070   26.9980   50.9520 C   0  0  0  0  0  0  0  0  0  0  0  0
   27.7860   27.0440   51.5800 C   0  0  0  0  0  0  0  0  0  0  0  0
   26.7780   27.8230   51.0420 C   0  0  0  0  0  0  0  0  0  0  0  0
   27.0380   28.5350   49.8820 C   0  0  0  0  0  0  0  0  0  0  0  0
   26.0470   29.3240   49.3210 C   0  0  0  0  0  0  0  0  0  0  0  0
   26.2450   30.0530   48.1710 C   0  0  0  0  0  0  0  0  0  0  0  0
   27.5020   29.9540   47.5980 C   0  0  0  0  0  0  0  0  0  0  0  0
   28.5030   29.1740   48.1400 C   0  0  0  0  0  0  0  0  0  0  0  0
   28.2770   28.4590   49.2870 C   0  0  0  0  0  0  0  0  0  0  0  0
   34.1070   28.2770   48.5110 C   0  0  0  0  0  0  0  0  0  0  0  0
   34.5890   28.4220   49.9360 C   0  0  0  0  0  0  0  0  0  0  0  0
   37.4980   30.3770   51.1160 C   0  0  0  0  0  0  0  0  0  0  0  0
   38.1120   30.7770   49.9130 C   0  0  0  0  0  0  0  0  0  0  0  0
   37.5030   30.3580   48.7050 C   0  0  0  0  0  0  0  0  0  0  0  0
   36.3780   29.6070   48.7610 N   0  0  0  0  0  0  0  0  0  0  0  0
   35.8290   29.2500   49.9460 C   0  0  0  0  0  0  0  0  0  0  0  0
   36.3970   29.6410   51.0800 N   0  0  0  0  0  0  0  0  0  0  0  0
   32.6486   26.1054   47.1718 H   0  0  0  0  0  0  0  0  0  0  0  0
   30.0672   25.8673   47.9209 H   0  0  0  0  0  0  0  0  0  0  0  0
   29.7956   26.3727   51.3959 H   0  0  0  0  0  0  0  0  0  0  0  0
   27.6121   26.4676   52.5006 H   0  0  0  0  0  0  0  0  0  0  0  0
   25.7909   27.8763   51.5246 H   0  0  0  0  0  0  0  0  0  0  0  0
   25.0645   29.3694   49.8137 H   0  0  0  0  0  0  0  0  0  0  0  0
   25.4523   30.6772   47.7329 H   0  0  0  0  0  0  0  0  0  0  0  0
   27.7101   30.5180   46.6768 H   0  0  0  0  0  0  0  0  0  0  0  0
   29.4863   29.1260   47.6494 H   0  0  0  0  0  0  0  0  0  0  0  0
   34.7297   27.5510   47.9677 H   0  0  0  0  0  0  0  0  0  0  0  0
   34.1681   29.2290   47.9634 H   0  0  0  0  0  0  0  0  0  0  0  0
   33.8122   28.9136   50.5401 H   0  0  0  0  0  0  0  0  0  0  0  0
   34.8010   27.4294   50.3599 H   0  0  0  0  0  0  0  0  0  0  0  0
   37.9313   30.6748   52.0822 H   0  0  0  0  0  0  0  0  0  0  0  0
   39.0260   31.3890   49.9119 H   0  0  0  0  0  0  0  0  0  0  0  0
   37.9381   30.6389   47.7346 H   0  0  0  0  0  0  0  0  0  0  0  0
  1  5  2  0
  2  3  2  0
  2  1  1  0
  3  4  1  0
  4  5  1  0
  4  6  1  0
  6  7  2  0
  7  8  1  0
  9  8  2  0
 10  9  1  0
 11 10  2  0
 12 11  1  0
 13 14  1  0
 13 12  2  0
 14 15  2  0
 15  6  1  0
 15 10  1  0
 16  1  1  0
 16 17  1  0
 17 22  1  0
 19 18  2  0
 20 21  2  0
 20 19  1  0
 21 22  1  0
 22 23  2  0
 23 18  1  0
  2 24  1  0
  3 25  1  0
  7 26  1  0
  8 27  1  0
  9 28  1  0
 11 29  1  0
 12 30  1  0
 13 31  1  0
 14 32  1  0
 16 33  1  0
 16 34  1  0
 17 35  1  0
 17 36  1  0
 18 37  1  0
 19 38  1  0
 20 39  1  0
M  ISO  8  24  14  25  14  26  14  27  14  28  14  29  14  30  14  31  14
M  ISO  8  32  14  33   8  34   8  35   8  36   8  37  14  38  14  39  14
M  END
>  <minimizedAffinity>  (1) 
-7.16901064

>  <minimizedRMSD>  (1) 
3.77945924

$$$$
