
     RDKit          3D

 33 35  0  0  0  0  0  0  0  0999 V2000
   32.9190   27.9220   47.8810 C   0  0  0  0  0  0  0  0  0  0  0  0
   32.3110   26.7120   48.0820 C   0  0  0  0  0  0  0  0  0  0  0  0
   30.9500   26.7970   47.8330 C   0  0  0  0  0  0  0  0  0  0  0  0
   30.7750   28.0950   47.4790 N   0  0  0  0  0  0  0  0  0  0  0  0
   31.9190   28.7550   47.5050 N   0  0  0  0  0  0  0  0  0  0  0  0
   29.6480   28.8660   47.0990 C   0  0  0  0  0  0  0  0  0  0  0  0
   28.5570   28.9430   47.9670 C   0  0  0  0  0  0  0  0  0  0  0  0
   27.4590   29.6970   47.5910 C   0  0  0  0  0  0  0  0  0  0  0  0
   27.4990   30.3400   46.3640 C   0  0  0  0  0  0  0  0  0  0  0  0
   28.6000   30.2480   45.5150 C   0  0  0  0  0  0  0  0  0  0  0  0
   29.7050   29.4980   45.8770 C   0  0  0  0  0  0  0  0  0  0  0  0
   34.3890   28.2120   48.0540 C   0  0  0  0  0  0  0  0  0  0  0  0
   34.6320   28.2580   49.5260 C   0  0  0  0  0  0  0  0  0  0  0  0
   37.2300   30.1640   51.3570 C   0  0  0  0  0  0  0  0  0  0  0  0
   38.0150   30.6640   50.2870 C   0  0  0  0  0  0  0  0  0  0  0  0
   37.6480   30.3460   48.9550 C   0  0  0  0  0  0  0  0  0  0  0  0
   36.5560   29.5710   48.7730 N   0  0  0  0  0  0  0  0  0  0  0  0
   35.8340   29.1140   49.8180 C   0  0  0  0  0  0  0  0  0  0  0  0
   36.1640   29.4020   51.0660 N   0  0  0  0  0  0  0  0  0  0  0  0
   32.8320   25.7963   48.3983 H   0  0  0  0  0  0  0  0  0  0  0  0
   30.1930   26.0022   47.9052 H   0  0  0  0  0  0  0  0  0  0  0  0
   28.5699   28.4143   48.9315 H   0  0  0  0  0  0  0  0  0  0  0  0
   26.5802   29.7834   48.2469 H   0  0  0  0  0  0  0  0  0  0  0  0
   26.6337   30.9424   46.0502 H   0  0  0  0  0  0  0  0  0  0  0  0
   28.5907   30.7755   44.5498 H   0  0  0  0  0  0  0  0  0  0  0  0
   30.5843   29.4111   45.2218 H   0  0  0  0  0  0  0  0  0  0  0  0
   34.9919   27.4162   47.5923 H   0  0  0  0  0  0  0  0  0  0  0  0
   34.6712   29.1589   47.5706 H   0  0  0  0  0  0  0  0  0  0  0  0
   33.7505   28.6828   50.0285 H   0  0  0  0  0  0  0  0  0  0  0  0
   34.8141   27.2382   49.8959 H   0  0  0  0  0  0  0  0  0  0  0  0
   37.4886   30.3952   52.4009 H   0  0  0  0  0  0  0  0  0  0  0  0
   38.8968   31.2902   50.4878 H   0  0  0  0  0  0  0  0  0  0  0  0
   38.2317   30.7171   48.0997 H   0  0  0  0  0  0  0  0  0  0  0  0
  1 12  1  0
  1  2  1  0
  3  2  2  0
  4  5  1  0
  4  3  1  0
  5  1  2  0
  6  4  1  0
  6  7  2  0
  8  7  1  0
  9  8  2  0
 10 11  2  0
 10  9  1  0
 11  6  1  0
 12 13  1  0
 13 18  1  0
 15 14  2  0
 16 15  1  0
 17 16  2  0
 17 18  1  0
 18 19  2  0
 19 14  1  0
  2 20  1  0
  3 21  1  0
  7 22  1  0
  8 23  1  0
  9 24  1  0
 10 25  1  0
 11 26  1  0
 12 27  1  0
 12 28  1  0
 13 29  1  0
 13 30  1  0
 14 31  1  0
 15 32  1  0
 16 33  1  0
M  ISO  8  20  14  21  14  22  14  23  14  24  14  25  14  26  14  27   8
M  ISO  6  28   8  29   8  30   8  31  14  32  14  33  14
M  END
>  <minimizedAffinity>  (1) 
-4.91798592

>  <minimizedRMSD>  (1) 
1.22100663

$$$$
