
     RDKit          3D

 36 39  0  0  0  0  0  0  0  0999 V2000
   33.0380   28.2300   47.7710 C   0  0  0  0  0  0  0  0  0  0  0  0
   32.0350   27.4470   48.3210 C   0  0  0  0  0  0  0  0  0  0  0  0
   30.8110   27.8560   47.7920 C   0  0  0  0  0  0  0  0  0  0  0  0
   31.1270   28.8740   46.9390 N   0  0  0  0  0  0  0  0  0  0  0  0
   32.4340   29.0890   46.9310 N   0  0  0  0  0  0  0  0  0  0  0  0
   28.7450   29.3050   46.3340 N   0  0  0  0  0  0  0  0  0  0  0  0
   30.0630   29.5030   46.2380 C   0  0  0  0  0  0  0  0  0  0  0  0
   30.2350   30.4650   45.2960 N   0  0  0  0  0  0  0  0  0  0  0  0
   29.0550   30.8510   44.8220 C   0  0  0  0  0  0  0  0  0  0  0  0
   28.7170   31.7930   43.8610 C   0  0  0  0  0  0  0  0  0  0  0  0
   27.4170   31.9870   43.5670 N   0  0  0  0  0  0  0  0  0  0  0  0
   26.4730   31.2720   44.2060 C   0  0  0  0  0  0  0  0  0  0  0  0
   26.7950   30.3570   45.1400 N   0  0  0  0  0  0  0  0  0  0  0  0
   28.0860   30.1250   45.4700 C   0  0  0  0  0  0  0  0  0  0  0  0
   34.5170   28.1410   48.0540 C   0  0  0  0  0  0  0  0  0  0  0  0
   34.6370   28.3130   49.5600 C   0  0  0  0  0  0  0  0  0  0  0  0
   37.2340   30.1710   51.4110 C   0  0  0  0  0  0  0  0  0  0  0  0
   38.0560   30.6500   50.3580 C   0  0  0  0  0  0  0  0  0  0  0  0
   37.7020   30.3230   49.0170 C   0  0  0  0  0  0  0  0  0  0  0  0
   36.5950   29.5730   48.8560 N   0  0  0  0  0  0  0  0  0  0  0  0
   35.8350   29.1340   49.8790 C   0  0  0  0  0  0  0  0  0  0  0  0
   36.1650   29.4370   51.1130 N   0  0  0  0  0  0  0  0  0  0  0  0
   38.5060   30.7880   47.9380 N   0  0  0  0  0  0  0  0  0  0  0  0
   32.1802   26.6383   49.0524 H   0  0  0  0  0  0  0  0  0  0  0  0
   29.8132   27.4490   48.0129 H   0  0  0  0  0  0  0  0  0  0  0  0
   28.2938   28.6308   46.9687 H   0  0  0  0  0  0  0  0  0  0  0  0
   29.4984   32.3722   43.3473 H   0  0  0  0  0  0  0  0  0  0  0  0
   25.4140   31.4388   43.9597 H   0  0  0  0  0  0  0  0  0  0  0  0
   34.9125   27.1627   47.7433 H   0  0  0  0  0  0  0  0  0  0  0  0
   35.0910   28.9005   47.5030 H   0  0  0  0  0  0  0  0  0  0  0  0
   33.7369   28.8161   49.9430 H   0  0  0  0  0  0  0  0  0  0  0  0
   34.7379   27.3244   50.0317 H   0  0  0  0  0  0  0  0  0  0  0  0
   37.4771   30.4032   52.4584 H   0  0  0  0  0  0  0  0  0  0  0  0
   38.9461   31.2598   50.5721 H   0  0  0  0  0  0  0  0  0  0  0  0
   38.2520   30.5529   46.9679 H   0  0  0  0  0  0  0  0  0  0  0  0
   39.3417   31.3596   48.1275 H   0  0  0  0  0  0  0  0  0  0  0  0
  1 15  1  0
  1  2  1  0
  3  2  2  0
  4  3  1  0
  5  4  1  0
  5  1  2  0
  7  6  1  0
  7  4  1  0
  8  7  2  0
  9  8  1  0
  9 14  2  0
 10  9  1  0
 11 10  2  0
 11 12  1  0
 12 13  2  0
 13 14  1  0
 14  6  1  0
 15 16  1  0
 16 21  1  0
 18 17  2  0
 19 18  1  0
 20 19  2  0
 20 21  1  0
 21 22  2  0
 22 17  1  0
 23 19  1  0
  2 24  1  0
  3 25  1  0
  6 26  1  0
 10 27  1  0
 12 28  1  0
 15 29  1  0
 15 30  1  0
 16 31  1  0
 16 32  1  0
 17 33  1  0
 18 34  1  0
 23 35  1  0
 23 36  1  0
M  ISO  8  24  14  25  14  26   9  27  14  28  14  29   8  30   8  31   8
M  ISO  3  32   8  33  14  34  14
M  END
>  <minimizedAffinity>  (1) 
-5.95016003

>  <minimizedRMSD>  (1) 
0.0742023364

$$$$
