
     RDKit          3D

 30 32  0  0  0  0  0  0  0  0999 V2000
   36.4830   31.2310   48.7060 F   0  0  0  0  0  0  0  0  0  0  0  0
   36.7050   31.0080   47.3660 C   0  0  0  0  0  0  0  0  0  0  0  0
   35.9320   30.1160   46.6410 C   0  0  0  0  0  0  0  0  0  0  0  0
   36.1950   29.9240   45.2860 C   0  0  0  0  0  0  0  0  0  0  0  0
   37.2360   30.6280   44.6610 C   0  0  0  0  0  0  0  0  0  0  0  0
   37.9730   31.5060   45.4450 C   0  0  0  0  0  0  0  0  0  0  0  0
   37.7380   31.7140   46.7700 C   0  0  0  0  0  0  0  0  0  0  0  0
   35.2950   28.8710   48.5760 C   0  0  0  0  0  0  0  0  0  0  0  0
   34.8940   29.4410   47.3520 C   0  0  0  0  0  0  0  0  0  0  0  0
   33.5660   29.2850   46.9850 C   0  0  0  0  0  0  0  0  0  0  0  0
   32.7240   28.5980   47.8120 N   0  0  0  0  0  0  0  0  0  0  0  0
   33.1400   28.0720   48.9650 C   0  0  0  0  0  0  0  0  0  0  0  0
   34.4220   28.2010   49.3590 N   0  0  0  0  0  0  0  0  0  0  0  0
   40.0400   33.1560   45.2430 Br  0  0  0  0  0  0  0  0  0  0  0  0
   39.6140   33.4060   47.0970 C   0  0  0  0  0  0  0  0  0  0  0  0
   38.5410   32.6530   47.5640 C   0  0  0  0  0  0  0  0  0  0  0  0
   38.1590   32.7670   48.8950 C   0  0  0  0  0  0  0  0  0  0  0  0
   38.8330   33.6140   49.7400 C   0  0  0  0  0  0  0  0  0  0  0  0
   39.8990   34.3460   49.2300 C   0  0  0  0  0  0  0  0  0  0  0  0
   40.3010   34.2520   47.9080 C   0  0  0  0  0  0  0  0  0  0  0  0
   35.5844   29.2180   44.7040 H   0  0  0  0  0  0  0  0  0  0  0  0
   37.4592   30.4898   43.5928 H   0  0  0  0  0  0  0  0  0  0  0  0
   38.7924   32.0646   44.9690 H   0  0  0  0  0  0  0  0  0  0  0  0
   36.3409   28.9737   48.9009 H   0  0  0  0  0  0  0  0  0  0  0  0
   33.1956   29.7091   46.0401 H   0  0  0  0  0  0  0  0  0  0  0  0
   32.4280   27.5264   49.6017 H   0  0  0  0  0  0  0  0  0  0  0  0
   37.3123   32.1757   49.2738 H   0  0  0  0  0  0  0  0  0  0  0  0
   38.5365   33.7109   50.7949 H   0  0  0  0  0  0  0  0  0  0  0  0
   40.4439   35.0256   49.9018 H   0  0  0  0  0  0  0  0  0  0  0  0
   41.1477   34.8423   47.5277 H   0  0  0  0  0  0  0  0  0  0  0  0
  2  1  1  0
  3  9  1  0
  3  2  2  0
  4  3  1  0
  5  4  2  0
  5  6  1  0
  6  7  2  0
  7  2  1  0
  7 16  1  0
  8 13  2  0
  9  8  1  0
 10  9  2  0
 10 11  1  0
 11 12  2  0
 12 13  1  0
 14 15  1  0
 15 16  2  0
 15 20  1  0
 16 17  1  0
 17 18  2  0
 19 18  1  0
 20 19  2  0
  4 21  1  0
  5 22  1  0
  6 23  1  0
  8 24  1  0
 10 25  1  0
 12 26  1  0
 17 27  1  0
 18 28  1  0
 19 29  1  0
 20 30  1  0
M  ISO  8  21  14  22  14  23  14  24  14  25  14  26  14  27  14  28  14
M  ISO  2  29  14  30  14
M  END
>  <minimizedAffinity>  (1) 
-5.40287399

>  <minimizedRMSD>  (1) 
2.76681995

$$$$
