
     RDKit          3D

 36 38  0  0  0  0  0  0  0  0999 V2000
   33.8890   29.5030   48.7130 F   0  0  0  0  0  0  0  0  0  0  0  0
   34.1780   29.4150   47.3750 C   0  0  0  0  0  0  0  0  0  0  0  0
   33.3400   28.7460   46.5100 C   0  0  0  0  0  0  0  0  0  0  0  0
   33.7080   28.6340   45.1690 C   0  0  0  0  0  0  0  0  0  0  0  0
   34.9070   29.1940   44.7310 C   0  0  0  0  0  0  0  0  0  0  0  0
   35.6840   29.8480   45.6700 C   0  0  0  0  0  0  0  0  0  0  0  0
   35.3640   29.9800   46.9710 C   0  0  0  0  0  0  0  0  0  0  0  0
   37.6170   31.7500   45.7150 Br  0  0  0  0  0  0  0  0  0  0  0  0
   37.3250   31.4780   47.5670 C   0  0  0  0  0  0  0  0  0  0  0  0
   36.2300   30.6930   47.8790 C   0  0  0  0  0  0  0  0  0  0  0  0
   35.9320   30.5110   49.2200 C   0  0  0  0  0  0  0  0  0  0  0  0
   36.6810   31.0720   50.2020 C   0  0  0  0  0  0  0  0  0  0  0  0
   37.7570   31.8380   49.8390 C   0  0  0  0  0  0  0  0  0  0  0  0
   38.0960   32.0530   48.5030 C   0  0  0  0  0  0  0  0  0  0  0  0
   39.2600   32.8760   48.0480 C   0  0  0  0  0  0  0  0  0  0  0  0
   39.3740   34.0280   49.0510 C   0  0  0  0  0  0  0  0  0  0  0  0
   32.3100   27.0460   47.8010 C   0  0  0  0  0  0  0  0  0  0  0  0
   32.1310   28.2170   47.0620 C   0  0  0  0  0  0  0  0  0  0  0  0
   30.8440   28.7290   46.9420 C   0  0  0  0  0  0  0  0  0  0  0  0
   29.8110   28.0820   47.5420 N   0  0  0  0  0  0  0  0  0  0  0  0
   30.0130   26.9550   48.2490 C   0  0  0  0  0  0  0  0  0  0  0  0
   31.2590   26.4260   48.3870 N   0  0  0  0  0  0  0  0  0  0  0  0
   33.0542   28.1055   44.4596 H   0  0  0  0  0  0  0  0  0  0  0  0
   35.2228   29.1188   43.6800 H   0  0  0  0  0  0  0  0  0  0  0  0
   36.6310   30.2920   45.3294 H   0  0  0  0  0  0  0  0  0  0  0  0
   35.0638   29.8944   49.4959 H   0  0  0  0  0  0  0  0  0  0  0  0
   36.4309   30.9159   51.2618 H   0  0  0  0  0  0  0  0  0  0  0  0
   38.3731   32.2980   50.6256 H   0  0  0  0  0  0  0  0  0  0  0  0
   40.1800   32.2730   48.0511 H   0  0  0  0  0  0  0  0  0  0  0  0
   39.1181   33.2454   47.0216 H   0  0  0  0  0  0  0  0  0  0  0  0
   39.3344   33.6280   50.0749 H   0  0  0  0  0  0  0  0  0  0  0  0
   40.3285   34.5532   48.8992 H   0  0  0  0  0  0  0  0  0  0  0  0
   38.5409   34.7301   48.8992 H   0  0  0  0  0  0  0  0  0  0  0  0
   33.3190   26.6214   47.9085 H   0  0  0  0  0  0  0  0  0  0  0  0
   30.6638   29.6491   46.3668 H   0  0  0  0  0  0  0  0  0  0  0  0
   29.1567   26.4531   48.7232 H   0  0  0  0  0  0  0  0  0  0  0  0
  2  1  1  0
  3 18  1  0
  3  2  2  0
  4  3  1  0
  5  4  2  0
  5  6  1  0
  6  7  2  0
  7  2  1  0
  7 10  1  0
  8  9  1  0
  9 10  2  0
  9 14  1  0
 10 11  1  0
 11 12  2  0
 13 12  1  0
 14 13  2  0
 15 14  1  0
 15 16  1  0
 17 22  2  0
 18 17  1  0
 19 18  2  0
 19 20  1  0
 20 21  2  0
 21 22  1  0
  4 23  1  0
  5 24  1  0
  6 25  1  0
 11 26  1  0
 12 27  1  0
 13 28  1  0
 15 29  1  0
 15 30  1  0
 16 31  1  0
 16 32  1  0
 16 33  1  0
 17 34  1  0
 19 35  1  0
 21 36  1  0
M  ISO  8  23  14  24  14  25  14  26  14  27  14  28  14  29   8  30   8
M  ISO  6  31   8  32   8  33   8  34  14  35  14  36  14
M  END
>  <minimizedAffinity>  (1) 
-5.84697247

>  <minimizedRMSD>  (1) 
3.11657429

$$$$
