
     RDKit          3D

 38 40  0  0  0  0  0  0  0  0999 V2000
   34.4530   26.7830   48.1840 F   0  0  0  0  0  0  0  0  0  0  0  0
   33.8370   27.7620   47.4630 C   0  0  0  0  0  0  0  0  0  0  0  0
   32.9020   27.4730   46.4850 C   0  0  0  0  0  0  0  0  0  0  0  0
   32.2810   28.5170   45.8230 C   0  0  0  0  0  0  0  0  0  0  0  0
   32.5870   29.8440   46.1410 C   0  0  0  0  0  0  0  0  0  0  0  0
   33.5270   30.0580   47.1260 C   0  0  0  0  0  0  0  0  0  0  0  0
   34.1660   29.0640   47.7960 C   0  0  0  0  0  0  0  0  0  0  0  0
   36.6980   30.6200   46.8070 Br  0  0  0  0  0  0  0  0  0  0  0  0
   36.3540   30.0920   48.5990 C   0  0  0  0  0  0  0  0  0  0  0  0
   35.1880   29.3760   48.7780 C   0  0  0  0  0  0  0  0  0  0  0  0
   34.8920   28.8840   50.0490 C   0  0  0  0  0  0  0  0  0  0  0  0
   35.7350   29.1070   51.0900 C   0  0  0  0  0  0  0  0  0  0  0  0
   36.8950   29.8380   50.8610 C   0  0  0  0  0  0  0  0  0  0  0  0
   37.2250   30.3450   49.5980 C   0  0  0  0  0  0  0  0  0  0  0  0
   38.3570   31.0880   49.2590 N   0  0  0  0  0  0  0  0  0  0  0  0
   38.6110   32.7780   49.2060 S   0  0  0  0  0  0  0  0  0  0  0  0
   39.0040   33.2160   47.8220 O   0  0  0  0  0  0  0  0  0  0  0  0
   39.6780   33.1940   50.1610 O   0  0  0  0  0  0  0  0  0  0  0  0
   37.1470   33.5380   49.5530 O   0  0  0  0  0  0  0  0  0  0  0  0
   33.3720   25.4590   45.2790 C   0  0  0  0  0  0  0  0  0  0  0  0
   32.6310   26.0850   46.2730 C   0  0  0  0  0  0  0  0  0  0  0  0
   31.7210   25.3050   46.9750 C   0  0  0  0  0  0  0  0  0  0  0  0
   31.6030   23.9860   46.6580 N   0  0  0  0  0  0  0  0  0  0  0  0
   32.3220   23.4170   45.7060 C   0  0  0  0  0  0  0  0  0  0  0  0
   33.2060   24.1420   45.0150 N   0  0  0  0  0  0  0  0  0  0  0  0
   31.5398   28.3014   45.0394 H   0  0  0  0  0  0  0  0  0  0  0  0
   32.0971   30.6833   45.6257 H   0  0  0  0  0  0  0  0  0  0  0  0
   33.7751   31.0978   47.3856 H   0  0  0  0  0  0  0  0  0  0  0  0
   33.9674   28.3102   50.2096 H   0  0  0  0  0  0  0  0  0  0  0  0
   35.5049   28.7176   52.0927 H   0  0  0  0  0  0  0  0  0  0  0  0
   37.5785   30.0250   51.7024 H   0  0  0  0  0  0  0  0  0  0  0  0
   39.1774   30.5231   48.9966 H   0  0  0  0  0  0  0  0  0  0  0  0
   39.6639   33.9514   47.8835 H   0  0  0  0  0  0  0  0  0  0  0  0
   39.3572   33.0689   51.0892 H   0  0  0  0  0  0  0  0  0  0  0  0
   37.0309   33.5983   50.5343 H   0  0  0  0  0  0  0  0  0  0  0  0
   34.1032   26.0411   44.6989 H   0  0  0  0  0  0  0  0  0  0  0  0
   31.1060   25.7454   47.7736 H   0  0  0  0  0  0  0  0  0  0  0  0
   32.1926   22.3477   45.4830 H   0  0  0  0  0  0  0  0  0  0  0  0
  2  7  2  0
  2  1  1  0
  3  2  1  0
  4  5  1  0
  4  3  2  0
  5  6  2  0
  6  7  1  0
  7 10  1  0
  8  9  1  0
  9 10  2  0
  9 14  1  0
 10 11  1  0
 11 12  2  0
 13 12  1  0
 14 13  2  0
 15 14  1  0
 16 15  1  0
 16 19  1  0
 16 18  1  0
 17 16  1  0
 20 21  2  0
 21  3  1  0
 21 22  1  0
 23 22  2  0
 24 23  1  0
 25 20  1  0
 25 24  2  0
  4 26  1  0
  5 27  1  0
  6 28  1  0
 11 29  1  0
 12 30  1  0
 13 31  1  0
 15 32  1  0
 17 33  1  0
 18 34  1  0
 19 35  1  0
 20 36  1  0
 22 37  1  0
 24 38  1  0
M  ISO  8  26  14  27  14  28  14  29  14  30  14  31  14  33   3  34   3
M  ISO  4  35   3  36  14  37  14  38  14
M  END
>  <minimizedAffinity>  (1) 
-5.29216623

>  <minimizedRMSD>  (1) 
5.03516006

$$$$
