
     RDKit          3D

 32 34  0  0  0  0  0  0  0  0999 V2000
   34.3090   30.4620   47.5910 F   0  0  0  0  0  0  0  0  0  0  0  0
   34.7270   29.9730   46.3890 C   0  0  0  0  0  0  0  0  0  0  0  0
   33.8630   29.3370   45.5150 C   0  0  0  0  0  0  0  0  0  0  0  0
   34.3480   28.9080   44.2940 C   0  0  0  0  0  0  0  0  0  0  0  0
   35.6820   29.1150   43.9460 C   0  0  0  0  0  0  0  0  0  0  0  0
   36.4850   29.7560   44.8640 C   0  0  0  0  0  0  0  0  0  0  0  0
   36.0560   30.1900   46.0750 C   0  0  0  0  0  0  0  0  0  0  0  0
   37.9740   32.3920   44.9460 Br  0  0  0  0  0  0  0  0  0  0  0  0
   37.8680   31.8400   46.7580 C   0  0  0  0  0  0  0  0  0  0  0  0
   36.9790   30.8150   47.0040 C   0  0  0  0  0  0  0  0  0  0  0  0
   36.8950   30.3000   48.2970 C   0  0  0  0  0  0  0  0  0  0  0  0
   37.6690   30.7980   49.2920 C   0  0  0  0  0  0  0  0  0  0  0  0
   38.5450   31.8280   49.0000 C   0  0  0  0  0  0  0  0  0  0  0  0
   38.6570   32.3720   47.7100 C   0  0  0  0  0  0  0  0  0  0  0  0
   39.5370   33.4290   47.3480 N   0  0  0  0  0  0  0  0  0  0  0  0
   32.2230   28.2010   46.8390 C   0  0  0  0  0  0  0  0  0  0  0  0
   32.5050   29.2280   45.9510 C   0  0  0  0  0  0  0  0  0  0  0  0
   31.4560   30.0650   45.5940 C   0  0  0  0  0  0  0  0  0  0  0  0
   30.2220   29.8530   46.1160 N   0  0  0  0  0  0  0  0  0  0  0  0
   29.9830   28.8630   46.9620 C   0  0  0  0  0  0  0  0  0  0  0  0
   30.9700   28.0390   47.3260 N   0  0  0  0  0  0  0  0  0  0  0  0
   33.6745   28.3980   43.5895 H   0  0  0  0  0  0  0  0  0  0  0  0
   36.0781   28.7796   42.9762 H   0  0  0  0  0  0  0  0  0  0  0  0
   37.5388   29.9261   44.5983 H   0  0  0  0  0  0  0  0  0  0  0  0
   36.1931   29.4808   48.5119 H   0  0  0  0  0  0  0  0  0  0  0  0
   37.6019   30.3911   50.3118 H   0  0  0  0  0  0  0  0  0  0  0  0
   39.1749   32.2345   49.8050 H   0  0  0  0  0  0  0  0  0  0  0  0
   40.1513   33.8535   48.0575 H   0  0  0  0  0  0  0  0  0  0  0  0
   39.5600   33.7700   46.3764 H   0  0  0  0  0  0  0  0  0  0  0  0
   33.0229   27.5130   47.1500 H   0  0  0  0  0  0  0  0  0  0  0  0
   31.6247   30.8950   44.8921 H   0  0  0  0  0  0  0  0  0  0  0  0
   28.9701   28.7185   47.3660 H   0  0  0  0  0  0  0  0  0  0  0  0
  2  1  1  0
  3 17  1  0
  3  2  2  0
  4  3  1  0
  5  4  2  0
  5  6  1  0
  6  7  2  0
  7  2  1  0
  7 10  1  0
  8  9  1  0
  9 10  2  0
  9 14  1  0
 10 11  1  0
 11 12  2  0
 13 12  1  0
 14 13  2  0
 15 14  1  0
 16 21  2  0
 17 16  1  0
 18 17  2  0
 18 19  1  0
 19 20  2  0
 20 21  1  0
  4 22  1  0
  5 23  1  0
  6 24  1  0
 11 25  1  0
 12 26  1  0
 13 27  1  0
 15 28  1  0
 15 29  1  0
 16 30  1  0
 18 31  1  0
 20 32  1  0
M  ISO  8  22  14  23  14  24  14  25  14  26  14  27  14  30  14  31  14
M  ISO  1  32  14
M  END
>  <minimizedAffinity>  (1) 
-5.29094553

>  <minimizedRMSD>  (1) 
2.81196308

$$$$
