
     RDKit          3D

 33 35  0  0  0  0  0  0  0  0999 V2000
   34.0670   30.3670   47.7920 F   0  0  0  0  0  0  0  0  0  0  0  0
   34.5100   29.9300   46.5780 C   0  0  0  0  0  0  0  0  0  0  0  0
   33.6550   29.3720   45.6470 C   0  0  0  0  0  0  0  0  0  0  0  0
   34.1590   28.9940   44.4160 C   0  0  0  0  0  0  0  0  0  0  0  0
   35.5170   29.1800   44.1160 C   0  0  0  0  0  0  0  0  0  0  0  0
   36.3080   29.7450   45.0920 C   0  0  0  0  0  0  0  0  0  0  0  0
   35.8530   30.1230   46.3140 C   0  0  0  0  0  0  0  0  0  0  0  0
   37.9420   32.2460   45.3490 Br  0  0  0  0  0  0  0  0  0  0  0  0
   37.7190   31.6500   47.1350 C   0  0  0  0  0  0  0  0  0  0  0  0
   36.7650   30.6670   47.3030 C   0  0  0  0  0  0  0  0  0  0  0  0
   36.5930   30.1190   48.5720 C   0  0  0  0  0  0  0  0  0  0  0  0
   37.3470   30.5450   49.6180 C   0  0  0  0  0  0  0  0  0  0  0  0
   38.2860   31.5310   49.4040 C   0  0  0  0  0  0  0  0  0  0  0  0
   38.4880   32.1070   48.1390 C   0  0  0  0  0  0  0  0  0  0  0  0
   39.4730   33.1670   47.8310 C   0  0  0  0  0  0  0  0  0  0  0  0
   31.9730   28.2000   46.8800 C   0  0  0  0  0  0  0  0  0  0  0  0
   32.2830   29.2670   46.0410 C   0  0  0  0  0  0  0  0  0  0  0  0
   31.2530   30.1310   45.6860 C   0  0  0  0  0  0  0  0  0  0  0  0
   29.9990   29.9160   46.1570 N   0  0  0  0  0  0  0  0  0  0  0  0
   29.7350   28.8740   46.9650 C   0  0  0  0  0  0  0  0  0  0  0  0
   30.7050   28.0270   47.3230 N   0  0  0  0  0  0  0  0  0  0  0  0
   33.4907   28.5444   43.6668 H   0  0  0  0  0  0  0  0  0  0  0  0
   35.9331   28.8865   43.1409 H   0  0  0  0  0  0  0  0  0  0  0  0
   37.3737   29.8994   44.8675 H   0  0  0  0  0  0  0  0  0  0  0  0
   35.8390   29.3335   48.7284 H   0  0  0  0  0  0  0  0  0  0  0  0
   37.2106   30.1104   50.6193 H   0  0  0  0  0  0  0  0  0  0  0  0
   38.8965   31.8778   50.2507 H   0  0  0  0  0  0  0  0  0  0  0  0
   39.8641   33.5879   48.7690 H   0  0  0  0  0  0  0  0  0  0  0  0
   40.3016   32.7393   47.2475 H   0  0  0  0  0  0  0  0  0  0  0  0
   38.9857   33.9620   47.2475 H   0  0  0  0  0  0  0  0  0  0  0  0
   32.7608   27.4951   47.1841 H   0  0  0  0  0  0  0  0  0  0  0  0
   31.4544   30.9868   45.0249 H   0  0  0  0  0  0  0  0  0  0  0  0
   28.7110   28.7172   47.3348 H   0  0  0  0  0  0  0  0  0  0  0  0
  2  1  1  0
  3 17  1  0
  3  2  2  0
  4  3  1  0
  5  4  2  0
  5  6  1  0
  6  7  2  0
  7  2  1  0
  7 10  1  0
  8  9  1  0
  9 10  2  0
  9 14  1  0
 10 11  1  0
 11 12  2  0
 13 12  1  0
 14 13  2  0
 15 14  1  0
 16 21  2  0
 17 16  1  0
 18 17  2  0
 18 19  1  0
 19 20  2  0
 20 21  1  0
  4 22  1  0
  5 23  1  0
  6 24  1  0
 11 25  1  0
 12 26  1  0
 13 27  1  0
 15 28  1  0
 15 29  1  0
 15 30  1  0
 16 31  1  0
 18 32  1  0
 20 33  1  0
M  ISO  8  22  14  23  14  24  14  25  14  26  14  27  14  28   8  29   8
M  ISO  4  30   8  31  14  32  14  33  14
M  END
>  <minimizedAffinity>  (1) 
-5.19793463

>  <minimizedRMSD>  (1) 
2.99945807

$$$$
