
     RDKit          3D

 31 33  0  0  0  0  0  0  0  0999 V2000
   34.3220   30.4750   47.5940 F   0  0  0  0  0  0  0  0  0  0  0  0
   34.7450   29.9850   46.3950 C   0  0  0  0  0  0  0  0  0  0  0  0
   33.8840   29.3510   45.5180 C   0  0  0  0  0  0  0  0  0  0  0  0
   34.3700   28.9210   44.2970 C   0  0  0  0  0  0  0  0  0  0  0  0
   35.7100   29.1300   43.9520 C   0  0  0  0  0  0  0  0  0  0  0  0
   36.5100   29.7700   44.8740 C   0  0  0  0  0  0  0  0  0  0  0  0
   36.0760   30.2020   46.0860 C   0  0  0  0  0  0  0  0  0  0  0  0
   38.0010   32.4030   44.9670 Br  0  0  0  0  0  0  0  0  0  0  0  0
   37.8820   31.8540   46.7780 C   0  0  0  0  0  0  0  0  0  0  0  0
   36.9950   30.8250   47.0190 C   0  0  0  0  0  0  0  0  0  0  0  0
   36.9070   30.3070   48.3110 C   0  0  0  0  0  0  0  0  0  0  0  0
   37.6780   30.8080   49.3100 C   0  0  0  0  0  0  0  0  0  0  0  0
   38.5480   31.8410   49.0220 C   0  0  0  0  0  0  0  0  0  0  0  0
   38.6630   32.3850   47.7320 C   0  0  0  0  0  0  0  0  0  0  0  0
   39.4980   33.4070   47.3630 O   0  0  0  0  0  0  0  0  0  0  0  0
   32.2520   28.2010   46.8410 C   0  0  0  0  0  0  0  0  0  0  0  0
   32.5260   29.2350   45.9550 C   0  0  0  0  0  0  0  0  0  0  0  0
   31.4750   30.0700   45.5960 C   0  0  0  0  0  0  0  0  0  0  0  0
   30.2360   29.8570   46.1060 N   0  0  0  0  0  0  0  0  0  0  0  0
   30.0040   28.8510   46.9560 C   0  0  0  0  0  0  0  0  0  0  0  0
   30.9930   28.0340   47.3210 N   0  0  0  0  0  0  0  0  0  0  0  0
   33.6980   28.4106   43.5913 H   0  0  0  0  0  0  0  0  0  0  0  0
   36.1093   28.7965   42.9828 H   0  0  0  0  0  0  0  0  0  0  0  0
   37.5645   29.9413   44.6120 H   0  0  0  0  0  0  0  0  0  0  0  0
   36.2068   29.4854   48.5224 H   0  0  0  0  0  0  0  0  0  0  0  0
   37.6109   30.3990   50.3289 H   0  0  0  0  0  0  0  0  0  0  0  0
   39.1718   32.2516   49.8297 H   0  0  0  0  0  0  0  0  0  0  0  0
   40.0915   33.8281   48.0342 H   0  0  0  0  0  0  0  0  0  0  0  0
   33.0550   27.5174   47.1538 H   0  0  0  0  0  0  0  0  0  0  0  0
   31.6474   30.9032   44.8988 H   0  0  0  0  0  0  0  0  0  0  0  0
   28.9913   28.6964   47.3566 H   0  0  0  0  0  0  0  0  0  0  0  0
  2  1  1  0
  3 17  1  0
  3  2  2  0
  4  3  1  0
  5  4  2  0
  5  6  1  0
  6  7  2  0
  7  2  1  0
  7 10  1  0
  8  9  1  0
  9 10  2  0
  9 14  1  0
 10 11  1  0
 11 12  2  0
 13 12  1  0
 14 13  2  0
 15 14  1  0
 16 21  2  0
 17 16  1  0
 18 17  2  0
 18 19  1  0
 19 20  2  0
 20 21  1  0
  4 22  1  0
  5 23  1  0
  6 24  1  0
 11 25  1  0
 12 26  1  0
 13 27  1  0
 15 28  1  0
 16 29  1  0
 18 30  1  0
 20 31  1  0
M  ISO  8  22  14  23  14  24  14  25  14  26  14  27  14  28   3  29  14
M  ISO  2  30  14  31  14
M  END
>  <minimizedAffinity>  (1) 
-5.326437

>  <minimizedRMSD>  (1) 
2.79459405

$$$$
