
     RDKit          3D

 44 47  0  0  0  0  0  0  0  0999 V2000
   34.1860   30.4180   47.6960 F   0  0  0  0  0  0  0  0  0  0  0  0
   34.5910   29.9570   46.4680 C   0  0  0  0  0  0  0  0  0  0  0  0
   33.7160   29.3510   45.5810 C   0  0  0  0  0  0  0  0  0  0  0  0
   34.1920   28.9290   44.3600 C   0  0  0  0  0  0  0  0  0  0  0  0
   35.5370   29.1090   44.0180 C   0  0  0  0  0  0  0  0  0  0  0  0
   36.3550   29.7200   44.9490 C   0  0  0  0  0  0  0  0  0  0  0  0
   35.9340   30.1470   46.1510 C   0  0  0  0  0  0  0  0  0  0  0  0
   32.0950   28.2200   46.9550 C   0  0  0  0  0  0  0  0  0  0  0  0
   32.3650   29.2290   46.0560 C   0  0  0  0  0  0  0  0  0  0  0  0
   31.3150   30.0660   45.6770 C   0  0  0  0  0  0  0  0  0  0  0  0
   30.0770   29.8690   46.1940 N   0  0  0  0  0  0  0  0  0  0  0  0
   29.8570   28.8790   47.0640 C   0  0  0  0  0  0  0  0  0  0  0  0
   30.8350   28.0700   47.4410 N   0  0  0  0  0  0  0  0  0  0  0  0
   28.5430   28.7010   47.5880 N   0  0  0  0  0  0  0  0  0  0  0  0
   28.0060   29.5960   48.5980 C   0  0  0  0  0  0  0  0  0  0  0  0
   27.3930   28.7950   49.7030 C   0  0  0  0  0  0  0  0  0  0  0  0
   27.6120   27.4400   49.5250 O   0  0  0  0  0  0  0  0  0  0  0  0
   27.0730   26.9640   48.3280 C   0  0  0  0  0  0  0  0  0  0  0  0
   27.6850   27.6200   47.1370 C   0  0  0  0  0  0  0  0  0  0  0  0
   37.8910   32.3250   45.0390 Br  0  0  0  0  0  0  0  0  0  0  0  0
   37.7720   31.7580   46.8520 C   0  0  0  0  0  0  0  0  0  0  0  0
   36.8530   30.7700   47.0850 C   0  0  0  0  0  0  0  0  0  0  0  0
   36.7350   30.2760   48.3970 C   0  0  0  0  0  0  0  0  0  0  0  0
   37.5100   30.7690   49.3960 C   0  0  0  0  0  0  0  0  0  0  0  0
   38.4130   31.7650   49.0930 C   0  0  0  0  0  0  0  0  0  0  0  0
   38.5620   32.2820   47.8070 C   0  0  0  0  0  0  0  0  0  0  0  0
   39.4280   33.2630   47.4320 O   0  0  0  0  0  0  0  0  0  0  0  0
   33.5085   28.4457   43.6464 H   0  0  0  0  0  0  0  0  0  0  0  0
   35.9281   28.7767   43.0451 H   0  0  0  0  0  0  0  0  0  0  0  0
   37.4142   29.8654   44.6904 H   0  0  0  0  0  0  0  0  0  0  0  0
   32.8962   27.5389   47.2778 H   0  0  0  0  0  0  0  0  0  0  0  0
   31.4908   30.8827   44.9614 H   0  0  0  0  0  0  0  0  0  0  0  0
   28.8168   30.2190   49.0036 H   0  0  0  0  0  0  0  0  0  0  0  0
   27.2385   30.2404   48.1445 H   0  0  0  0  0  0  0  0  0  0  0  0
   27.8368   29.1067   50.6600 H   0  0  0  0  0  0  0  0  0  0  0  0
   26.3077   28.9740   49.6999 H   0  0  0  0  0  0  0  0  0  0  0  0
   27.2497   25.8801   48.2658 H   0  0  0  0  0  0  0  0  0  0  0  0
   25.9973   27.1939   48.3259 H   0  0  0  0  0  0  0  0  0  0  0  0
   26.8928   28.0226   46.4887 H   0  0  0  0  0  0  0  0  0  0  0  0
   28.2753   26.8865   46.5682 H   0  0  0  0  0  0  0  0  0  0  0  0
   36.0065   29.4813   48.6155 H   0  0  0  0  0  0  0  0  0  0  0  0
   37.4197   30.3832   50.4222 H   0  0  0  0  0  0  0  0  0  0  0  0
   39.0425   32.1689   49.8996 H   0  0  0  0  0  0  0  0  0  0  0  0
   40.0278   33.6766   48.1023 H   0  0  0  0  0  0  0  0  0  0  0  0
  2  1  1  0
  3  9  1  0
  3  2  2  0
  4  3  1  0
  5  4  2  0
  5  6  1  0
  6  7  2  0
  7  2  1  0
  7 22  1  0
  8 13  2  0
  9  8  1  0
 10  9  2  0
 10 11  1  0
 11 12  2  0
 12 13  1  0
 12 14  1  0
 14 15  1  0
 15 16  1  0
 17 16  1  0
 18 17  1  0
 19 14  1  0
 19 18  1  0
 20 21  1  0
 21 22  2  0
 21 26  1  0
 22 23  1  0
 23 24  2  0
 25 24  1  0
 26 25  2  0
 27 26  1  0
  4 28  1  0
  5 29  1  0
  6 30  1  0
  8 31  1  0
 10 32  1  0
 15 33  1  0
 15 34  1  0
 16 35  1  0
 16 36  1  0
 18 37  1  0
 18 38  1  0
 19 39  1  0
 19 40  1  0
 23 41  1  0
 24 42  1  0
 25 43  1  0
 27 44  1  0
M  ISO  8  28  14  29  14  30  14  31  14  32  14  33  13  34  13  35  13
M  ISO  8  36  13  37  13  38  13  39  13  40  13  41  14  42  14  43  14
M  ISO  1  44   3
M  END
>  <minimizedAffinity>  (1) 
-7.02630997

>  <minimizedRMSD>  (1) 
0.185559869

$$$$
