
     RDKit          3D

 38 40  0  0  0  0  0  0  0  0999 V2000
   34.3730   30.2800   47.7200 F   0  0  0  0  0  0  0  0  0  0  0  0
   34.7130   29.8740   46.4540 C   0  0  0  0  0  0  0  0  0  0  0  0
   33.8090   29.2360   45.6290 C   0  0  0  0  0  0  0  0  0  0  0  0
   34.2150   28.8700   44.3660 C   0  0  0  0  0  0  0  0  0  0  0  0
   35.5180   29.1390   43.9270 C   0  0  0  0  0  0  0  0  0  0  0  0
   36.3700   29.7800   44.8050 C   0  0  0  0  0  0  0  0  0  0  0  0
   36.0160   30.1530   46.0460 C   0  0  0  0  0  0  0  0  0  0  0  0
   32.3650   27.9350   47.0520 C   0  0  0  0  0  0  0  0  0  0  0  0
   32.5100   29.0190   46.1950 C   0  0  0  0  0  0  0  0  0  0  0  0
   31.3940   29.8100   45.9570 C   0  0  0  0  0  0  0  0  0  0  0  0
   30.2180   29.5100   46.5520 N   0  0  0  0  0  0  0  0  0  0  0  0
   30.1000   28.4640   47.3710 C   0  0  0  0  0  0  0  0  0  0  0  0
   31.1560   27.6930   47.6140 N   0  0  0  0  0  0  0  0  0  0  0  0
   29.4600   29.0200   50.0590 N   0  0  0  0  0  0  0  0  0  0  0  0
   28.5050   28.7510   49.2420 C   0  0  0  0  0  0  0  0  0  0  0  0
   28.8440   28.1820   47.9790 N   0  0  0  0  0  0  0  0  0  0  0  0
   27.1370   29.0050   49.5630 N   0  0  0  0  0  0  0  0  0  0  0  0
   29.2100   29.4360   50.9800 H   0  0  0  0  0  0  0  0  0  0  0  0
   37.8730   32.3470   44.8040 Br  0  0  0  0  0  0  0  0  0  0  0  0
   37.8440   31.8190   46.6350 C   0  0  0  0  0  0  0  0  0  0  0  0
   36.9620   30.8140   46.9280 C   0  0  0  0  0  0  0  0  0  0  0  0
   36.9130   30.3460   48.2530 C   0  0  0  0  0  0  0  0  0  0  0  0
   37.7180   30.8770   49.2080 C   0  0  0  0  0  0  0  0  0  0  0  0
   38.5900   31.8940   48.8460 C   0  0  0  0  0  0  0  0  0  0  0  0
   38.6620   32.3810   47.5420 C   0  0  0  0  0  0  0  0  0  0  0  0
   39.4860   33.3740   47.1100 O   0  0  0  0  0  0  0  0  0  0  0  0
   33.5088   28.3607   43.6938 H   0  0  0  0  0  0  0  0  0  0  0  0
   35.8506   28.8500   42.9191 H   0  0  0  0  0  0  0  0  0  0  0  0
   37.3949   29.9970   44.4696 H   0  0  0  0  0  0  0  0  0  0  0  0
   33.2217   27.2809   47.2717 H   0  0  0  0  0  0  0  0  0  0  0  0
   31.4667   30.6786   45.2860 H   0  0  0  0  0  0  0  0  0  0  0  0
   28.1741   27.5615   47.5024 H   0  0  0  0  0  0  0  0  0  0  0  0
   26.3975   28.7765   48.8834 H   0  0  0  0  0  0  0  0  0  0  0  0
   26.8897   29.4167   50.4742 H   0  0  0  0  0  0  0  0  0  0  0  0
   36.2136   29.5396   48.5188 H   0  0  0  0  0  0  0  0  0  0  0  0
   37.6801   30.5100   50.2443 H   0  0  0  0  0  0  0  0  0  0  0  0
   39.2461   32.3303   49.6136 H   0  0  0  0  0  0  0  0  0  0  0  0
   40.1045   33.8152   47.7447 H   0  0  0  0  0  0  0  0  0  0  0  0
  2  1  1  0
  3  9  1  0
  3  2  2  0
  4  3  1  0
  5  4  2  0
  5  6  1  0
  6  7  2  0
  7  2  1  0
  7 21  1  0
  8 13  2  0
  9  8  1  0
 10  9  2  0
 10 11  1  0
 11 12  2  0
 12 13  1  0
 12 16  1  0
 14 18  1  0
 15 17  1  0
 15 14  2  0
 16 15  1  0
 19 20  1  0
 20 21  2  0
 20 25  1  0
 21 22  1  0
 22 23  2  0
 24 23  1  0
 25 24  2  0
 26 25  1  0
  4 27  1  0
  5 28  1  0
  6 29  1  0
  8 30  1  0
 10 31  1  0
 16 32  1  0
 17 33  1  0
 17 34  1  0
 22 35  1  0
 23 36  1  0
 24 37  1  0
 26 38  1  0
M  ISO  8  27  14  28  14  29  14  30  14  31  14  35  14  36  14  37  14
M  ISO  1  38   3
M  END
>  <minimizedAffinity>  (1) 
-6.89351511

>  <minimizedRMSD>  (1) 
0.420024842

$$$$
