
     RDKit          3D

 38 40  0  0  0  0  0  0  0  0999 V2000
   34.4940   30.1180   47.8560 F   0  0  0  0  0  0  0  0  0  0  0  0
   34.9210   29.8530   46.5790 C   0  0  0  0  0  0  0  0  0  0  0  0
   34.1180   29.2040   45.6600 C   0  0  0  0  0  0  0  0  0  0  0  0
   34.6100   28.9850   44.3890 C   0  0  0  0  0  0  0  0  0  0  0  0
   35.8950   29.4120   44.0360 C   0  0  0  0  0  0  0  0  0  0  0  0
   36.6450   30.0560   45.0070 C   0  0  0  0  0  0  0  0  0  0  0  0
   36.2040   30.2880   46.2540 C   0  0  0  0  0  0  0  0  0  0  0  0
   38.1930   32.4690   45.2060 Br  0  0  0  0  0  0  0  0  0  0  0  0
   37.9630   31.9570   47.0270 C   0  0  0  0  0  0  0  0  0  0  0  0
   37.0500   30.9550   47.2250 C   0  0  0  0  0  0  0  0  0  0  0  0
   36.8550   30.4940   48.5390 C   0  0  0  0  0  0  0  0  0  0  0  0
   37.5540   31.0310   49.5740 C   0  0  0  0  0  0  0  0  0  0  0  0
   38.4540   32.0340   49.3050 C   0  0  0  0  0  0  0  0  0  0  0  0
   38.6770   32.5220   48.0050 C   0  0  0  0  0  0  0  0  0  0  0  0
   39.5470   33.5100   47.6670 O   0  0  0  0  0  0  0  0  0  0  0  0
   32.6950   27.5480   46.6720 C   0  0  0  0  0  0  0  0  0  0  0  0
   32.8250   28.8170   46.1420 C   0  0  0  0  0  0  0  0  0  0  0  0
   31.7020   29.6210   46.1230 C   0  0  0  0  0  0  0  0  0  0  0  0
   30.5260   29.1550   46.6150 N   0  0  0  0  0  0  0  0  0  0  0  0
   30.4360   27.9290   47.1170 C   0  0  0  0  0  0  0  0  0  0  0  0
   31.5000   27.1280   47.1520 N   0  0  0  0  0  0  0  0  0  0  0  0
   29.1500   27.4470   47.6450 C   0  0  0  0  0  0  0  0  0  0  0  0
   28.8840   27.4630   48.9430 C   0  0  0  0  0  0  0  0  0  0  0  0
   29.8550   27.9630   49.9260 C   0  0  0  0  0  0  0  0  0  0  0  0
   33.9849   28.4690   43.6453 H   0  0  0  0  0  0  0  0  0  0  0  0
   36.2948   29.2427   43.0253 H   0  0  0  0  0  0  0  0  0  0  0  0
   37.6570   30.3958   44.7418 H   0  0  0  0  0  0  0  0  0  0  0  0
   36.1291   29.6903   48.7316 H   0  0  0  0  0  0  0  0  0  0  0  0
   37.4027   30.6712   50.6024 H   0  0  0  0  0  0  0  0  0  0  0  0
   39.0221   32.4722   50.1388 H   0  0  0  0  0  0  0  0  0  0  0  0
   40.0919   33.9504   48.3664 H   0  0  0  0  0  0  0  0  0  0  0  0
   33.5652   26.8760   46.7044 H   0  0  0  0  0  0  0  0  0  0  0  0
   31.7607   30.6385   45.7093 H   0  0  0  0  0  0  0  0  0  0  0  0
   28.3917   27.0645   46.9459 H   0  0  0  0  0  0  0  0  0  0  0  0
   27.9099   27.0919   49.2942 H   0  0  0  0  0  0  0  0  0  0  0  0
   29.4805   27.7701   50.9421 H   0  0  0  0  0  0  0  0  0  0  0  0
   30.8169   27.4481   49.7859 H   0  0  0  0  0  0  0  0  0  0  0  0
   29.9945   29.0451   49.7859 H   0  0  0  0  0  0  0  0  0  0  0  0
  2  1  1  0
  3 17  1  0
  3  2  2  0
  4  3  1  0
  5  4  2  0
  5  6  1  0
  6  7  2  0
  7  2  1  0
  7 10  1  0
  8  9  1  0
  9 10  2  0
  9 14  1  0
 10 11  1  0
 11 12  2  0
 13 12  1  0
 14 13  2  0
 15 14  1  0
 16 21  2  0
 17 16  1  0
 18 17  2  0
 18 19  1  0
 19 20  2  0
 20 21  1  0
 20 22  1  0
 22 23  2  0
 23 24  1  0
  4 25  1  0
  5 26  1  0
  6 27  1  0
 11 28  1  0
 12 29  1  0
 13 30  1  0
 15 31  1  0
 16 32  1  0
 18 33  1  0
 22 34  1  0
 23 35  1  0
 24 36  1  0
 24 37  1  0
 24 38  1  0
M  ISO  8  25  14  26  14  27  14  28  14  29  14  30  14  31   3  32  14
M  ISO  4  33  14  36   8  37   8  38   8
M  END
>  <minimizedAffinity>  (1) 
-5.99539995

>  <minimizedRMSD>  (1) 
1.0337137

$$$$
