
     RDKit          3D

 33 35  0  0  0  0  0  0  0  0999 V2000
   34.4390   30.4840   47.5020 F   0  0  0  0  0  0  0  0  0  0  0  0
   34.8160   29.9950   46.2770 C   0  0  0  0  0  0  0  0  0  0  0  0
   33.9190   29.3640   45.4420 C   0  0  0  0  0  0  0  0  0  0  0  0
   34.3660   28.9100   44.2200 C   0  0  0  0  0  0  0  0  0  0  0  0
   35.6940   29.0850   43.8380 C   0  0  0  0  0  0  0  0  0  0  0  0
   36.5450   29.7260   44.7200 C   0  0  0  0  0  0  0  0  0  0  0  0
   36.1520   30.1840   45.9220 C   0  0  0  0  0  0  0  0  0  0  0  0
   37.9790   32.4250   44.7120 Br  0  0  0  0  0  0  0  0  0  0  0  0
   37.9480   31.8730   46.5340 C   0  0  0  0  0  0  0  0  0  0  0  0
   37.0840   30.8470   46.8170 C   0  0  0  0  0  0  0  0  0  0  0  0
   37.0420   30.3610   48.1330 C   0  0  0  0  0  0  0  0  0  0  0  0
   37.8370   30.8970   49.0960 C   0  0  0  0  0  0  0  0  0  0  0  0
   38.6890   31.9330   48.7520 C   0  0  0  0  0  0  0  0  0  0  0  0
   38.7570   32.4400   47.4530 C   0  0  0  0  0  0  0  0  0  0  0  0
   39.5590   33.4530   47.0340 O   0  0  0  0  0  0  0  0  0  0  0  0
   32.3450   28.2190   46.8680 C   0  0  0  0  0  0  0  0  0  0  0  0
   32.5850   29.2450   45.9480 C   0  0  0  0  0  0  0  0  0  0  0  0
   31.5270   30.0610   45.6070 C   0  0  0  0  0  0  0  0  0  0  0  0
   30.3030   29.8590   46.1560 N   0  0  0  0  0  0  0  0  0  0  0  0
   30.1050   28.8660   47.0360 C   0  0  0  0  0  0  0  0  0  0  0  0
   31.1000   28.0660   47.3830 N   0  0  0  0  0  0  0  0  0  0  0  0
   28.7650   28.7070   47.5860 C   0  0  0  0  0  0  0  0  0  0  0  0
   28.3770   29.3700   48.5700 O   0  0  0  0  0  0  0  0  0  0  0  0
   33.6663   28.4038   43.5387 H   0  0  0  0  0  0  0  0  0  0  0  0
   36.0553   28.7241   42.8637 H   0  0  0  0  0  0  0  0  0  0  0  0
   37.5948   29.8682   44.4239 H   0  0  0  0  0  0  0  0  0  0  0  0
   36.3584   29.5376   48.3876 H   0  0  0  0  0  0  0  0  0  0  0  0
   37.8044   30.5158   50.1273 H   0  0  0  0  0  0  0  0  0  0  0  0
   39.3337   32.3711   49.5281 H   0  0  0  0  0  0  0  0  0  0  0  0
   40.1690   33.8985   47.6740 H   0  0  0  0  0  0  0  0  0  0  0  0
   33.1582   27.5430   47.1707 H   0  0  0  0  0  0  0  0  0  0  0  0
   31.6761   30.8791   44.8869 H   0  0  0  0  0  0  0  0  0  0  0  0
   28.0777   27.9842   47.1222 H   0  0  0  0  0  0  0  0  0  0  0  0
  2  1  1  0
  3 17  1  0
  3  2  2  0
  4  3  1  0
  5  4  2  0
  5  6  1  0
  6  7  2  0
  7  2  1  0
  7 10  1  0
  8  9  1  0
  9 10  2  0
  9 14  1  0
 10 11  1  0
 11 12  2  0
 13 12  1  0
 14 13  2  0
 15 14  1  0
 16 21  2  0
 17 16  1  0
 18 17  2  0
 18 19  1  0
 19 20  2  0
 20 21  1  0
 20 22  1  0
 22 23  2  0
  4 24  1  0
  5 25  1  0
  6 26  1  0
 11 27  1  0
 12 28  1  0
 13 29  1  0
 15 30  1  0
 16 31  1  0
 18 32  1  0
 22 33  1  0
M  ISO  8  24  14  25  14  26  14  27  14  28  14  29  14  30   3  31  14
M  ISO  2  32  14  33   6
M  END
>  <minimizedAffinity>  (1) 
-5.5421586

>  <minimizedRMSD>  (1) 
0.200299472

$$$$
