
     RDKit          3D

 32 34  0  0  0  0  0  0  0  0999 V2000
   38.0760   32.0190   49.0780 C   0  0  0  0  0  0  0  0  0  0  0  0
   38.5690   33.1540   49.6850 C   0  0  0  0  0  0  0  0  0  0  0  0
   39.4070   34.0760   49.0520 C   0  0  0  0  0  0  0  0  0  0  0  0
   39.7420   33.8140   47.7570 N   0  0  0  0  0  0  0  0  0  0  0  0
   39.2630   32.7070   47.1630 C   0  0  0  0  0  0  0  0  0  0  0  0
   38.4560   31.8390   47.8040 N   0  0  0  0  0  0  0  0  0  0  0  0
   39.6070   32.4160   45.8000 N   0  0  0  0  0  0  0  0  0  0  0  0
   39.8830   33.4480   44.8480 C   0  0  0  0  0  0  0  0  0  0  0  0
   39.6010   33.0500   43.4280 C   0  0  0  0  0  0  0  0  0  0  0  0
   40.1230   31.7640   43.0690 N   0  0  0  0  0  0  0  0  0  0  0  0
   40.6060   30.9910   44.1800 C   0  0  0  0  0  0  0  0  0  0  0  0
   39.6790   31.0240   45.3670 C   0  0  0  0  0  0  0  0  0  0  0  0
   37.5250   30.4320   50.9470 C   0  0  0  0  0  0  0  0  0  0  0  0
   37.2120   31.0860   49.7590 C   0  0  0  0  0  0  0  0  0  0  0  0
   35.9630   30.8090   49.1940 C   0  0  0  0  0  0  0  0  0  0  0  0
   35.1360   29.9370   49.8170 N   0  0  0  0  0  0  0  0  0  0  0  0
   35.4850   29.3220   50.9770 C   0  0  0  0  0  0  0  0  0  0  0  0
   36.6820   29.5750   51.5360 N   0  0  0  0  0  0  0  0  0  0  0  0
   38.2858   33.3456   50.7305 H   0  0  0  0  0  0  0  0  0  0  0  0
   39.7784   34.9703   49.5738 H   0  0  0  0  0  0  0  0  0  0  0  0
   39.2621   34.3222   45.0935 H   0  0  0  0  0  0  0  0  0  0  0  0
   40.9592   33.6662   44.9132 H   0  0  0  0  0  0  0  0  0  0  0  0
   38.5107   33.0336   43.2832 H   0  0  0  0  0  0  0  0  0  0  0  0
   40.1022   33.7882   42.7847 H   0  0  0  0  0  0  0  0  0  0  0  0
   39.3742   31.2298   42.6055 H   0  0  0  0  0  0  0  0  0  0  0  0
   40.7233   29.9465   43.8557 H   0  0  0  0  0  0  0  0  0  0  0  0
   41.5625   31.4323   44.4970 H   0  0  0  0  0  0  0  0  0  0  0  0
   38.6803   30.6638   45.0790 H   0  0  0  0  0  0  0  0  0  0  0  0
   40.0461   30.3750   46.1757 H   0  0  0  0  0  0  0  0  0  0  0  0
   38.4996   30.6262   51.4187 H   0  0  0  0  0  0  0  0  0  0  0  0
   35.6565   31.2936   48.2552 H   0  0  0  0  0  0  0  0  0  0  0  0
   34.7899   28.6183   51.4583 H   0  0  0  0  0  0  0  0  0  0  0  0
  1  2  2  0
  1 14  1  0
  3  2  1  0
  4  3  2  0
  5  4  1  0
  5  6  2  0
  6  1  1  0
  7  5  1  0
  8  7  1  0
  9  8  1  0
 10  9  1  0
 10 11  1  0
 11 12  1  0
 12  7  1  0
 13 18  2  0
 14 13  1  0
 15 14  2  0
 15 16  1  0
 16 17  2  0
 17 18  1  0
  2 19  1  0
  3 20  1  0
  8 21  1  0
  8 22  1  0
  9 23  1  0
  9 24  1  0
 10 25  1  0
 11 26  1  0
 11 27  1  0
 12 28  1  0
 12 29  1  0
 13 30  1  0
 15 31  1  0
 17 32  1  0
M  ISO  8  19  14  20  14  21  13  22  13  23  13  24  13  25   5  26  13
M  ISO  6  27  13  28  13  29  13  30  14  31  14  32  14
M  END
>  <minimizedAffinity>  (1) 
-6.29086542

>  <minimizedRMSD>  (1) 
0.351240844

$$$$
