
     RDKit          3D

 34 36  0  0  0  0  0  0  0  0999 V2000
   38.1600   32.0970   49.0440 C   0  0  0  0  0  0  0  0  0  0  0  0
   38.5790   33.2560   49.6540 C   0  0  0  0  0  0  0  0  0  0  0  0
   39.4390   34.1850   49.0550 C   0  0  0  0  0  0  0  0  0  0  0  0
   39.8710   33.9060   47.8020 N   0  0  0  0  0  0  0  0  0  0  0  0
   39.4610   32.7650   47.1980 C   0  0  0  0  0  0  0  0  0  0  0  0
   38.6360   31.8910   47.7960 N   0  0  0  0  0  0  0  0  0  0  0  0
   37.5750   30.4930   50.8850 C   0  0  0  0  0  0  0  0  0  0  0  0
   37.2780   31.1570   49.6750 C   0  0  0  0  0  0  0  0  0  0  0  0
   36.0600   30.8710   49.0830 C   0  0  0  0  0  0  0  0  0  0  0  0
   35.2290   29.9880   49.6760 N   0  0  0  0  0  0  0  0  0  0  0  0
   35.5350   29.3630   50.8330 C   0  0  0  0  0  0  0  0  0  0  0  0
   36.7200   29.6200   51.4420 N   0  0  0  0  0  0  0  0  0  0  0  0
   39.9510   32.4970   45.8380 C   0  0  0  0  0  0  0  0  0  0  0  0
   40.2950   31.0680   45.5930 C   0  0  0  0  0  0  0  0  0  0  0  0
   40.7630   30.8660   44.1940 C   0  0  0  0  0  0  0  0  0  0  0  0
   39.9750   31.5630   43.1360 C   0  0  0  0  0  0  0  0  0  0  0  0
   39.4850   32.9300   43.5070 C   0  0  0  0  0  0  0  0  0  0  0  0
   38.8200   32.8730   44.8730 C   0  0  0  0  0  0  0  0  0  0  0  0
   38.2177   33.4657   50.6716 H   0  0  0  0  0  0  0  0  0  0  0  0
   39.7499   35.1008   49.5790 H   0  0  0  0  0  0  0  0  0  0  0  0
   38.5333   30.6964   51.3854 H   0  0  0  0  0  0  0  0  0  0  0  0
   35.7724   31.3580   48.1395 H   0  0  0  0  0  0  0  0  0  0  0  0
   34.8273   28.6491   51.2796 H   0  0  0  0  0  0  0  0  0  0  0  0
   40.8725   33.0801   45.6939 H   0  0  0  0  0  0  0  0  0  0  0  0
   41.0932   30.7657   46.2869 H   0  0  0  0  0  0  0  0  0  0  0  0
   39.3943   30.4574   45.7537 H   0  0  0  0  0  0  0  0  0  0  0  0
   41.8015   31.2233   44.1311 H   0  0  0  0  0  0  0  0  0  0  0  0
   40.6452   29.7909   43.9931 H   0  0  0  0  0  0  0  0  0  0  0  0
   39.1003   30.9405   42.8964 H   0  0  0  0  0  0  0  0  0  0  0  0
   40.6587   31.7022   42.2856 H   0  0  0  0  0  0  0  0  0  0  0  0
   40.3345   33.6280   43.5409 H   0  0  0  0  0  0  0  0  0  0  0  0
   38.7578   33.2762   42.7578 H   0  0  0  0  0  0  0  0  0  0  0  0
   38.3925   33.8513   45.1380 H   0  0  0  0  0  0  0  0  0  0  0  0
   37.9892   32.1527   44.9029 H   0  0  0  0  0  0  0  0  0  0  0  0
  1  2  2  0
  1  8  1  0
  3  2  1  0
  4  3  2  0
  5  6  2  0
  5  4  1  0
  6  1  1  0
  7 12  2  0
  8  7  1  0
  9  8  2  0
  9 10  1  0
 10 11  2  0
 11 12  1  0
 13  5  1  0
 14 13  1  0
 15 14  1  0
 16 17  1  0
 16 15  1  0
 17 18  1  0
 18 13  1  0
  2 19  1  0
  3 20  1  0
  7 21  1  0
  9 22  1  0
 11 23  1  0
 13 24  1  0
 14 25  1  0
 14 26  1  0
 15 27  1  0
 15 28  1  0
 16 29  1  0
 16 30  1  0
 17 31  1  0
 17 32  1  0
 18 33  1  0
 18 34  1  0
M  ISO  8  19  14  20  14  21  14  22  14  23  14  24  13  25  13  26  13
M  ISO  8  27  13  28  13  29  13  30  13  31  13  32  13  33  13  34  13
M  END
>  <minimizedAffinity>  (1) 
-6.20282221

>  <minimizedRMSD>  (1) 
0.802097619

$$$$
