
     RDKit          3D

 44 47  0  0  1  0  0  0  0  0999 V2000
   38.0580   32.1150   43.5110 C   0  0  2  0  0  0  0  0  0  0  0  0
   36.5720   32.3270   43.3520 C   0  0  0  0  0  0  0  0  0  0  0  0
   36.2100   31.3950   42.2090 C   0  0  0  0  0  0  0  0  0  0  0  0
   37.4110   30.5650   41.9260 C   0  0  0  0  0  0  0  0  0  0  0  0
   38.2050   30.6500   43.2430 C   0  0  1  0  0  0  0  0  0  0  0  0
   38.3690   32.0300   47.1860 C   0  0  0  0  0  0  0  0  0  0  0  0
   39.4560   32.8580   47.3360 C   0  0  0  0  0  0  0  0  0  0  0  0
   40.1070   33.4690   46.2450 C   0  0  0  0  0  0  0  0  0  0  0  0
   39.6180   33.2130   44.9960 N   0  0  0  0  0  0  0  0  0  0  0  0
   38.5620   32.4070   44.8650 C   0  0  0  0  0  0  0  0  0  0  0  0
   37.9420   31.8250   45.9060 N   0  0  0  0  0  0  0  0  0  0  0  0
   38.2410   31.3590   49.5980 C   0  0  0  0  0  0  0  0  0  0  0  0
   37.7150   31.3970   48.3040 C   0  0  0  0  0  0  0  0  0  0  0  0
   36.4960   30.7800   48.1070 C   0  0  0  0  0  0  0  0  0  0  0  0
   35.8950   30.1870   49.1610 N   0  0  0  0  0  0  0  0  0  0  0  0
   36.4260   30.1660   50.4030 C   0  0  0  0  0  0  0  0  0  0  0  0
   37.6070   30.7610   50.6050 N   0  0  0  0  0  0  0  0  0  0  0  0
   39.6010   30.3250   42.8100 C   0  0  0  0  0  0  0  0  0  0  0  0
   39.9130   28.9090   42.5020 C   0  0  0  0  0  0  0  0  0  0  0  0
   41.3750   29.0950   42.0510 C   0  0  0  0  0  0  0  0  0  0  0  0
   41.1500   30.1920   41.0030 C   0  0  0  0  0  0  0  0  0  0  0  0
   40.0420   31.0680   41.6010 C   0  0  0  0  0  0  0  0  0  0  0  0
   38.6267   32.7840   42.8484 H   0  0  0  0  0  0  0  0  0  0  0  0
   36.0336   32.0521   44.2710 H   0  0  0  0  0  0  0  0  0  0  0  0
   36.3040   33.3756   43.1556 H   0  0  0  0  0  0  0  0  0  0  0  0
   35.3663   30.7516   42.4992 H   0  0  0  0  0  0  0  0  0  0  0  0
   35.9091   31.9658   41.3181 H   0  0  0  0  0  0  0  0  0  0  0  0
   37.1298   29.5259   41.6996 H   0  0  0  0  0  0  0  0  0  0  0  0
   37.9817   30.9101   41.0513 H   0  0  0  0  0  0  0  0  0  0  0  0
   37.9219   30.0221   44.1007 H   0  0  0  0  0  0  0  0  0  0  0  0
   39.8340   33.0521   48.3506 H   0  0  0  0  0  0  0  0  0  0  0  0
   40.9758   34.1269   46.3942 H   0  0  0  0  0  0  0  0  0  0  0  0
   39.2115   31.8392   49.7914 H   0  0  0  0  0  0  0  0  0  0  0  0
   36.0245   30.7715   47.1132 H   0  0  0  0  0  0  0  0  0  0  0  0
   35.8983   29.6700   51.2309 H   0  0  0  0  0  0  0  0  0  0  0  0
   40.1327   30.6229   43.7257 H   0  0  0  0  0  0  0  0  0  0  0  0
   39.8310   28.2634   43.3888 H   0  0  0  0  0  0  0  0  0  0  0  0
   39.2466   28.4179   41.7776 H   0  0  0  0  0  0  0  0  0  0  0  0
   42.0228   29.4334   42.8731 H   0  0  0  0  0  0  0  0  0  0  0  0
   41.8840   28.1882   41.6925 H   0  0  0  0  0  0  0  0  0  0  0  0
   40.8278   29.7560   40.0459 H   0  0  0  0  0  0  0  0  0  0  0  0
   42.0661   30.7620   40.7888 H   0  0  0  0  0  0  0  0  0  0  0  0
   40.4331   32.0593   41.8736 H   0  0  0  0  0  0  0  0  0  0  0  0
   39.2190   31.2470   40.8935 H   0  0  0  0  0  0  0  0  0  0  0  0
  1 10  1  0
  2  1  1  0
  3  2  1  0
  4  3  1  0
  4  5  1  0
  5  1  1  0
  6  7  2  0
  6 13  1  0
  8  7  1  0
  9  8  2  0
 10  9  1  0
 10 11  2  0
 11  6  1  0
 12 17  2  0
 13 12  1  0
 14 13  2  0
 14 15  1  0
 15 16  2  0
 16 17  1  0
 18  5  1  0
 19 18  1  0
 20 19  1  0
 21 22  1  0
 21 20  1  0
 22 18  1  0
  1 23  1  6
  2 24  1  0
  2 25  1  0
  3 26  1  0
  3 27  1  0
  4 28  1  0
  4 29  1  0
  5 30  1  1
  7 31  1  0
  8 32  1  0
 12 33  1  0
 14 34  1  0
 16 35  1  0
 18 36  1  0
 19 37  1  0
 19 38  1  0
 20 39  1  0
 20 40  1  0
 21 41  1  0
 21 42  1  0
 22 43  1  0
 22 44  1  0
M  ISO  8  23  13  24  13  25  13  26  13  27  13  28  13  29  13  30  13
M  ISO  8  31  14  32  14  33  14  34  14  35  14  36  13  37  13  38  13
M  ISO  6  39  13  40  13  41  13  42  13  43  13  44  13
M  END
>  <minimizedAffinity>  (1) 
-5.61951208

>  <minimizedRMSD>  (1) 
3.40124345

$$$$
