
     RDKit          3D

 49 52  0  0  1  0  0  0  0  0999 V2000
   36.6680   30.8890   47.9720 C   0  0  0  0  0  0  0  0  0  0  0  0
   37.2850   31.3620   49.1050 C   0  0  0  0  0  0  0  0  0  0  0  0
   38.4120   32.2070   49.0800 C   0  0  0  0  0  0  0  0  0  0  0  0
   38.8960   32.5570   47.8400 N   0  0  0  0  0  0  0  0  0  0  0  0
   38.2920   32.0940   46.7510 C   0  0  0  0  0  0  0  0  0  0  0  0
   37.2140   31.2850   46.7890 N   0  0  0  0  0  0  0  0  0  0  0  0
   34.9450   29.5380   49.1910 C   0  0  0  0  0  0  0  0  0  0  0  0
   35.5260   30.0330   48.0190 C   0  0  0  0  0  0  0  0  0  0  0  0
   34.9310   29.6510   46.8230 C   0  0  0  0  0  0  0  0  0  0  0  0
   33.8370   28.8320   46.8630 N   0  0  0  0  0  0  0  0  0  0  0  0
   33.3200   28.3850   48.0170 C   0  0  0  0  0  0  0  0  0  0  0  0
   33.8760   28.7410   49.1700 N   0  0  0  0  0  0  0  0  0  0  0  0
   32.1800   27.5350   48.0080 N   0  0  0  0  0  0  0  0  0  0  0  0
   31.9130   26.6230   46.9130 C   0  0  0  0  0  0  0  0  0  0  0  0
   30.5330   26.9210   46.3730 C   0  0  0  0  0  0  0  0  0  0  0  0
   29.8260   28.0320   47.0810 C   0  0  0  0  0  0  0  0  0  0  0  0
   29.9070   28.0090   48.5670 C   0  0  0  0  0  0  0  0  0  0  0  0
   31.2410   27.5570   49.1130 C   0  0  0  0  0  0  0  0  0  0  0  0
   38.8270   32.4820   45.4320 C   0  0  2  0  0  0  0  0  0  0  0  0
   37.8020   32.5270   44.3280 C   0  0  0  0  0  0  0  0  0  0  0  0
   38.6640   32.2930   43.0720 C   0  0  0  0  0  0  0  0  0  0  0  0
   40.0360   31.8990   43.5600 C   0  0  0  0  0  0  0  0  0  0  0  0
   39.7070   31.3590   44.9400 C   0  0  1  0  0  0  0  0  0  0  0  0
   40.9100   31.0930   45.7830 C   0  0  0  0  0  0  0  0  0  0  0  0
   36.8776   31.0653   50.0828 H   0  0  0  0  0  0  0  0  0  0  0  0
   38.8821   32.5693   50.0061 H   0  0  0  0  0  0  0  0  0  0  0  0
   35.3838   29.8149   50.1609 H   0  0  0  0  0  0  0  0  0  0  0  0
   35.3330   30.0013   45.8609 H   0  0  0  0  0  0  0  0  0  0  0  0
   32.6616   26.7651   46.1196 H   0  0  0  0  0  0  0  0  0  0  0  0
   31.9656   25.5822   47.2652 H   0  0  0  0  0  0  0  0  0  0  0  0
   30.6291   27.1939   45.3117 H   0  0  0  0  0  0  0  0  0  0  0  0
   29.9303   26.0137   46.5261 H   0  0  0  0  0  0  0  0  0  0  0  0
   30.2583   28.9822   46.7342 H   0  0  0  0  0  0  0  0  0  0  0  0
   28.7601   27.9101   46.8382 H   0  0  0  0  0  0  0  0  0  0  0  0
   29.7102   29.0257   48.9379 H   0  0  0  0  0  0  0  0  0  0  0  0
   29.1628   27.2754   48.9103 H   0  0  0  0  0  0  0  0  0  0  0  0
   31.1477   26.5503   49.5465 H   0  0  0  0  0  0  0  0  0  0  0  0
   31.5879   28.2401   49.9024 H   0  0  0  0  0  0  0  0  0  0  0  0
   39.2898   33.4661   45.5976 H   0  0  0  0  0  0  0  0  0  0  0  0
   37.0504   31.7330   44.4493 H   0  0  0  0  0  0  0  0  0  0  0  0
   37.2256   33.4634   44.2992 H   0  0  0  0  0  0  0  0  0  0  0  0
   38.7235   33.2150   42.4750 H   0  0  0  0  0  0  0  0  0  0  0  0
   38.2299   31.5104   42.4324 H   0  0  0  0  0  0  0  0  0  0  0  0
   40.4860   31.1257   42.9201 H   0  0  0  0  0  0  0  0  0  0  0  0
   40.7715   32.7170   43.5560 H   0  0  0  0  0  0  0  0  0  0  0  0
   39.2336   30.3663   44.9598 H   0  0  0  0  0  0  0  0  0  0  0  0
   40.6336   31.1541   46.8460 H   0  0  0  0  0  0  0  0  0  0  0  0
   41.2975   30.0875   45.5621 H   0  0  0  0  0  0  0  0  0  0  0  0
   41.6853   31.8414   45.5621 H   0  0  0  0  0  0  0  0  0  0  0  0
  1  8  1  0
  1  2  2  0
  3  2  1  0
  4  3  2  0
  5  6  2  0
  5  4  1  0
  6  1  1  0
  8  7  2  0
  9 10  2  0
  9  8  1  0
 10 11  1  0
 11 12  2  0
 12  7  1  0
 13 11  1  0
 13 18  1  0
 14 13  1  0
 15 14  1  0
 15 16  1  0
 16 17  1  0
 17 18  1  0
 19  5  1  0
 20 19  1  0
 21 22  1  0
 21 20  1  0
 22 23  1  0
 23 19  1  0
 23 24  1  0
  2 25  1  0
  3 26  1  0
  7 27  1  0
  9 28  1  0
 14 29  1  0
 14 30  1  0
 15 31  1  0
 15 32  1  0
 16 33  1  0
 16 34  1  0
 17 35  1  0
 17 36  1  0
 18 37  1  0
 18 38  1  0
 19 39  1  1
 20 40  1  0
 20 41  1  0
 21 42  1  0
 21 43  1  0
 22 44  1  0
 22 45  1  0
 23 46  1  6
 24 47  1  0
 24 48  1  0
 24 49  1  0
M  ISO  8  25  14  26  14  27  14  28  14  29  13  30  13  31  13  32  13
M  ISO  8  33  13  34  13  35  13  36  13  37  13  38  13  39  13  40  13
M  ISO  8  41  13  42  13  43  13  44  13  45  13  46  13  47   8  48   8
M  ISO  1  49   8
M  END
>  <minimizedAffinity>  (1) 
-6.32576799

>  <minimizedRMSD>  (1) 
3.31862259

$$$$
