
     RDKit          3D

 46 49  0  0  1  0  0  0  0  0999 V2000
   36.8610   31.1850   48.1870 C   0  0  0  0  0  0  0  0  0  0  0  0
   37.1430   31.8540   49.3710 C   0  0  0  0  0  0  0  0  0  0  0  0
   38.2740   32.6700   49.5390 C   0  0  0  0  0  0  0  0  0  0  0  0
   39.1160   32.7920   48.4720 N   0  0  0  0  0  0  0  0  0  0  0  0
   38.8400   32.1470   47.3350 C   0  0  0  0  0  0  0  0  0  0  0  0
   37.7550   31.3740   47.1960 N   0  0  0  0  0  0  0  0  0  0  0  0
   39.7570   32.2890   46.1940 C   0  0  2  0  0  0  0  0  0  0  0  0
   39.8350   33.6740   45.6170 C   0  0  0  0  0  0  0  0  0  0  0  0
   40.2810   33.4170   44.1690 C   0  0  0  0  0  0  0  0  0  0  0  0
   40.1870   31.9160   43.9590 C   0  0  0  0  0  0  0  0  0  0  0  0
   39.1590   31.5420   45.0200 C   0  0  1  0  0  0  0  0  0  0  0  0
   39.0230   30.0720   45.2260 C   0  0  0  0  0  0  0  0  0  0  0  0
   34.9940   29.7820   49.0980 C   0  0  0  0  0  0  0  0  0  0  0  0
   35.7050   30.3590   48.0330 C   0  0  0  0  0  0  0  0  0  0  0  0
   35.2380   30.0950   46.7680 C   0  0  0  0  0  0  0  0  0  0  0  0
   34.1420   29.3130   46.5960 N   0  0  0  0  0  0  0  0  0  0  0  0
   33.4780   28.7710   47.6480 C   0  0  0  0  0  0  0  0  0  0  0  0
   33.9230   29.0210   48.8750 N   0  0  0  0  0  0  0  0  0  0  0  0
   31.7580   27.4170   48.7840 C   0  0  2  0  0  0  0  0  0  0  0  0
   32.2850   27.9220   47.4340 C   0  0  2  0  0  0  0  0  0  0  0  0
   32.5550   26.6110   46.7760 C   0  0  0  0  0  0  0  0  0  0  0  0
   31.6310   25.6910   47.2330 O   0  0  0  0  0  0  0  0  0  0  0  0
   30.8760   26.2990   48.2260 C   0  0  0  0  0  0  0  0  0  0  0  0
   31.0290   28.3700   49.4550 O   0  0  0  0  0  0  0  0  0  0  0  0
   36.4485   31.7396   50.2163 H   0  0  0  0  0  0  0  0  0  0  0  0
   38.4723   33.1879   50.4890 H   0  0  0  0  0  0  0  0  0  0  0  0
   40.7310   31.9543   46.5804 H   0  0  0  0  0  0  0  0  0  0  0  0
   38.8542   34.1711   45.6468 H   0  0  0  0  0  0  0  0  0  0  0  0
   40.5157   34.3378   46.1703 H   0  0  0  0  0  0  0  0  0  0  0  0
   39.6179   33.9430   43.4663 H   0  0  0  0  0  0  0  0  0  0  0  0
   41.3028   33.7841   43.9923 H   0  0  0  0  0  0  0  0  0  0  0  0
   39.8320   31.6704   42.9472 H   0  0  0  0  0  0  0  0  0  0  0  0
   41.1455   31.3834   44.0464 H   0  0  0  0  0  0  0  0  0  0  0  0
   38.1165   31.8058   44.7886 H   0  0  0  0  0  0  0  0  0  0  0  0
   39.0027   29.8531   46.3038 H   0  0  0  0  0  0  0  0  0  0  0  0
   38.0886   29.7218   44.7631 H   0  0  0  0  0  0  0  0  0  0  0  0
   39.8773   29.5563   44.7631 H   0  0  0  0  0  0  0  0  0  0  0  0
   35.3261   29.9609   50.1313 H   0  0  0  0  0  0  0  0  0  0  0  0
   35.7533   30.5182   45.8931 H   0  0  0  0  0  0  0  0  0  0  0  0
   32.5123   27.1292   49.5312 H   0  0  0  0  0  0  0  0  0  0  0  0
   31.6266   28.5707   46.8377 H   0  0  0  0  0  0  0  0  0  0  0  0
   33.5709   26.2723   47.0273 H   0  0  0  0  0  0  0  0  0  0  0  0
   32.4744   26.7145   45.6838 H   0  0  0  0  0  0  0  0  0  0  0  0
   29.9493   26.7150   47.8038 H   0  0  0  0  0  0  0  0  0  0  0  0
   30.5797   25.5845   49.0081 H   0  0  0  0  0  0  0  0  0  0  0  0
   31.1308   28.2369   50.4307 H   0  0  0  0  0  0  0  0  0  0  0  0
  1  2  2  0
  2  3  1  0
  4  3  2  0
  5  4  1  0
  6  5  2  0
  6  1  1  0
  7  5  1  0
  8  7  1  0
  9  8  1  0
 10  9  1  0
 10 11  1  0
 11 12  1  0
 11  7  1  0
 14  1  1  0
 14 13  2  0
 15 14  1  0
 16 15  2  0
 16 17  1  0
 17 18  2  0
 18 13  1  0
 19 24  1  0
 20 17  1  0
 20 19  1  0
 21 22  1  0
 21 20  1  0
 22 23  1  0
 23 19  1  0
  2 25  1  0
  3 26  1  0
  7 27  1  1
  8 28  1  0
  8 29  1  0
  9 30  1  0
  9 31  1  0
 10 32  1  0
 10 33  1  0
 11 34  1  6
 12 35  1  0
 12 36  1  0
 12 37  1  0
 13 38  1  0
 15 39  1  0
 19 40  1  1
 20 41  1  6
 21 42  1  0
 21 43  1  0
 23 44  1  0
 23 45  1  0
 24 46  1  0
M  ISO  8  25  14  26  14  27  13  28  13  29  13  30  13  31  13  32  13
M  ISO  8  33  13  34  13  35   8  36   8  37   8  38  14  39  14  40  13
M  ISO  6  41  13  42  13  43  13  44  13  45  13  46   3
M  END
>  <minimizedAffinity>  (1) 
-6.31599474

>  <minimizedRMSD>  (1) 
3.44287705

$$$$
