
     RDKit          3D

 36 38  0  0  1  0  0  0  0  0999 V2000
   38.2470   32.3210   48.3210 C   0  0  0  0  0  0  0  0  0  0  0  0
   38.8330   33.3240   49.0520 C   0  0  0  0  0  0  0  0  0  0  0  0
   39.7780   34.2170   48.5410 C   0  0  0  0  0  0  0  0  0  0  0  0
   40.1250   34.0570   47.2170 N   0  0  0  0  0  0  0  0  0  0  0  0
   39.5550   33.0820   46.5080 C   0  0  0  0  0  0  0  0  0  0  0  0
   38.6510   32.2400   47.0260 N   0  0  0  0  0  0  0  0  0  0  0  0
   39.9390   32.9260   45.0960 C   0  0  2  0  0  0  0  0  0  0  0  0
   38.8110   33.0600   44.1150 C   0  0  0  0  0  0  0  0  0  0  0  0
   39.3160   32.2520   42.9080 C   0  0  0  0  0  0  0  0  0  0  0  0
   40.5290   31.5030   43.3760 C   0  0  0  0  0  0  0  0  0  0  0  0
   40.3020   31.4650   44.8770 C   0  0  1  0  0  0  0  0  0  0  0  0
   41.4690   30.9860   45.6520 C   0  0  0  0  0  0  0  0  0  0  0  0
   37.2040   31.0580   50.2240 C   0  0  0  0  0  0  0  0  0  0  0  0
   37.2810   31.4180   48.8710 C   0  0  0  0  0  0  0  0  0  0  0  0
   36.3510   30.8500   48.0360 C   0  0  0  0  0  0  0  0  0  0  0  0
   35.4300   29.9930   48.5450 N   0  0  0  0  0  0  0  0  0  0  0  0
   35.3830   29.6660   49.8500 C   0  0  0  0  0  0  0  0  0  0  0  0
   36.2760   30.2070   50.6700 N   0  0  0  0  0  0  0  0  0  0  0  0
   34.3440   28.7340   50.2670 C   0  0  0  0  0  0  0  0  0  0  0  0
   33.5160   28.3440   49.4070 O   0  0  0  0  0  0  0  0  0  0  0  0
   38.5401   33.4315   50.1068 H   0  0  0  0  0  0  0  0  0  0  0  0
   40.2224   35.0075   49.1637 H   0  0  0  0  0  0  0  0  0  0  0  0
   40.7127   33.6909   44.9341 H   0  0  0  0  0  0  0  0  0  0  0  0
   37.8815   32.6318   44.5183 H   0  0  0  0  0  0  0  0  0  0  0  0
   38.5667   34.1042   43.8703 H   0  0  0  0  0  0  0  0  0  0  0  0
   39.5818   32.9282   42.0821 H   0  0  0  0  0  0  0  0  0  0  0  0
   38.5418   31.5644   42.5368 H   0  0  0  0  0  0  0  0  0  0  0  0
   40.5648   30.4897   42.9494 H   0  0  0  0  0  0  0  0  0  0  0  0
   41.4826   31.9636   43.0785 H   0  0  0  0  0  0  0  0  0  0  0  0
   39.5442   30.7476   45.2250 H   0  0  0  0  0  0  0  0  0  0  0  0
   41.2558   31.0735   46.7276 H   0  0  0  0  0  0  0  0  0  0  0  0
   41.6681   29.9334   45.4021 H   0  0  0  0  0  0  0  0  0  0  0  0
   42.3502   31.5952   45.4021 H   0  0  0  0  0  0  0  0  0  0  0  0
   37.9252   31.4867   50.9353 H   0  0  0  0  0  0  0  0  0  0  0  0
   36.3523   31.0878   46.9620 H   0  0  0  0  0  0  0  0  0  0  0  0
   34.2862   28.3813   51.3073 H   0  0  0  0  0  0  0  0  0  0  0  0
  1 14  1  0
  1  2  2  0
  3  2  1  0
  4  3  2  0
  5  6  2  0
  5  4  1  0
  6  1  1  0
  7  5  1  0
  8  7  1  0
  9 10  1  0
  9  8  1  0
 10 11  1  0
 11  7  1  0
 11 12  1  0
 13 18  2  0
 14 13  1  0
 15 16  1  0
 15 14  2  0
 16 17  2  0
 17 19  1  0
 17 18  1  0
 20 19  2  0
  2 21  1  0
  3 22  1  0
  7 23  1  6
  8 24  1  0
  8 25  1  0
  9 26  1  0
  9 27  1  0
 10 28  1  0
 10 29  1  0
 11 30  1  6
 12 31  1  0
 12 32  1  0
 12 33  1  0
 13 34  1  0
 15 35  1  0
 19 36  1  0
M  ISO  8  21  14  22  14  23  13  24  13  25  13  26  13  27  13  28  13
M  ISO  8  29  13  30  13  31   8  32   8  33   8  34  14  35  14  36   6
M  END
>  <minimizedAffinity>  (1) 
-5.31457472

>  <minimizedRMSD>  (1) 
0.907221615

$$$$
