
     RDKit          3D

 28 29  0  0  1  0  0  0  0  0999 V2000
   33.5610   28.5930   49.0320 N   0  0  0  0  0  0  0  0  0  0  0  0
   34.3700   29.8000   49.0190 C   0  0  2  0  0  0  0  0  0  0  0  0
   34.3520   30.3550   47.6240 C   0  0  0  0  0  0  0  0  0  0  0  0
   33.2800   29.8170   46.8680 O   0  0  0  0  0  0  0  0  0  0  0  0
   33.6750   28.4850   46.6370 C   0  0  0  0  0  0  0  0  0  0  0  0
   33.9680   27.7600   47.9310 C   0  0  2  0  0  0  0  0  0  0  0  0
   31.7350   26.6640   48.1930 C   0  0  0  0  0  0  0  0  0  0  0  0
   31.2610   27.8290   48.4210 O   0  0  0  0  0  0  0  0  0  0  0  0
   33.1300   26.5750   47.9340 N   0  0  0  0  0  0  0  0  0  0  0  0
   36.0890   29.4170   49.4810 S   0  0  0  0  0  0  0  0  0  0  0  0
   37.2040   30.6940   48.9410 C   0  0  0  0  0  0  0  0  0  0  0  0
   37.1480   31.8480   49.7420 C   0  0  0  0  0  0  0  0  0  0  0  0
   37.9830   32.9100   49.4030 C   0  0  0  0  0  0  0  0  0  0  0  0
   38.8030   32.7800   48.3280 N   0  0  0  0  0  0  0  0  0  0  0  0
   38.8340   31.6590   47.5780 C   0  0  0  0  0  0  0  0  0  0  0  0
   38.0250   30.6280   47.9060 N   0  0  0  0  0  0  0  0  0  0  0  0
   33.7019   28.0896   49.9195 H   0  0  0  0  0  0  0  0  0  0  0  0
   33.9643   30.5256   49.7393 H   0  0  0  0  0  0  0  0  0  0  0  0
   34.2410   31.4482   47.6750 H   0  0  0  0  0  0  0  0  0  0  0  0
   35.2960   30.0816   47.1300 H   0  0  0  0  0  0  0  0  0  0  0  0
   32.8663   27.9592   46.1082 H   0  0  0  0  0  0  0  0  0  0  0  0
   34.5947   28.4981   46.0336 H   0  0  0  0  0  0  0  0  0  0  0  0
   35.0365   27.5149   48.0211 H   0  0  0  0  0  0  0  0  0  0  0  0
   31.0928   25.7710   48.1970 H   0  0  0  0  0  0  0  0  0  0  0  0
   33.5527   25.6549   47.7455 H   0  0  0  0  0  0  0  0  0  0  0  0
   36.4692   31.9100   50.6054 H   0  0  0  0  0  0  0  0  0  0  0  0
   37.9785   33.8371   49.9950 H   0  0  0  0  0  0  0  0  0  0  0  0
   39.5082   31.5855   46.7120 H   0  0  0  0  0  0  0  0  0  0  0  0
  2  1  1  0
  2 10  1  0
  3  2  1  0
  4  3  1  0
  5  4  1  0
  5  6  1  0
  6  9  1  0
  6  1  1  0
  7  8  2  0
  9  7  1  0
 11 10  1  0
 11 12  2  0
 13 12  1  0
 14 13  2  0
 15 16  2  0
 15 14  1  0
 16 11  1  0
  1 17  1  0
  2 18  1  1
  3 19  1  0
  3 20  1  0
  5 21  1  0
  5 22  1  0
  6 23  1  1
  7 24  1  0
  9 25  1  0
 12 26  1  0
 13 27  1  0
 15 28  1  0
M  ISO  8  17   5  18  13  19  13  20  13  21  13  22  13  23  13  24   6
M  ISO  3  26  14  27  14  28  14
M  END
>  <minimizedAffinity>  (1) 
-4.46302271

>  <minimizedRMSD>  (1) 
0.863941729

$$$$
