
     RDKit          3D

 30 32  0  0  1  0  0  0  0  0999 V2000
   33.4730   29.5450   47.8770 N   0  0  0  0  0  0  0  0  0  0  0  0
   34.6050   30.3450   47.4720 C   0  0  2  0  0  0  0  0  0  0  0  0
   35.0340   29.9460   46.0820 C   0  0  0  0  0  0  0  0  0  0  0  0
   33.9940   29.2450   45.4280 O   0  0  0  0  0  0  0  0  0  0  0  0
   33.9380   28.0120   46.0960 C   0  0  0  0  0  0  0  0  0  0  0  0
   33.7470   28.1780   47.5760 C   0  0  2  0  0  0  0  0  0  0  0  0
   32.5300   27.3850   47.9470 C   0  0  0  0  0  0  0  0  0  0  0  0
   32.1720   26.1640   47.4580 N   0  0  0  0  0  0  0  0  0  0  0  0
   31.0020   25.8180   48.0670 C   0  0  0  0  0  0  0  0  0  0  0  0
   30.6370   26.7990   48.9170 N   0  0  0  0  0  0  0  0  0  0  0  0
   31.5670   27.7220   48.8250 N   0  0  0  0  0  0  0  0  0  0  0  0
   35.9970   30.0560   48.6230 S   0  0  0  0  0  0  0  0  0  0  0  0
   37.2620   31.2880   48.4440 C   0  0  0  0  0  0  0  0  0  0  0  0
   37.3150   32.1760   49.5350 C   0  0  0  0  0  0  0  0  0  0  0  0
   38.2800   33.1840   49.4880 C   0  0  0  0  0  0  0  0  0  0  0  0
   39.1120   33.2630   48.4080 N   0  0  0  0  0  0  0  0  0  0  0  0
   39.0210   32.3830   47.3810 C   0  0  0  0  0  0  0  0  0  0  0  0
   38.0990   31.4190   47.4260 N   0  0  0  0  0  0  0  0  0  0  0  0
   33.3174   29.6524   48.8895 H   0  0  0  0  0  0  0  0  0  0  0  0
   34.3205   31.4075   47.4848 H   0  0  0  0  0  0  0  0  0  0  0  0
   35.2808   30.8496   45.5053 H   0  0  0  0  0  0  0  0  0  0  0  0
   35.9153   29.2918   46.1542 H   0  0  0  0  0  0  0  0  0  0  0  0
   33.0969   27.4286   45.6933 H   0  0  0  0  0  0  0  0  0  0  0  0
   34.8960   27.4961   45.9345 H   0  0  0  0  0  0  0  0  0  0  0  0
   34.6470   27.8506   48.1172 H   0  0  0  0  0  0  0  0  0  0  0  0
   30.4442   24.8861   47.8925 H   0  0  0  0  0  0  0  0  0  0  0  0
   29.7996   26.8203   49.5163 H   0  0  0  0  0  0  0  0  0  0  0  0
   36.6263   32.0800   50.3873 H   0  0  0  0  0  0  0  0  0  0  0  0
   38.3691   33.9069   50.3123 H   0  0  0  0  0  0  0  0  0  0  0  0
   39.7001   32.4626   46.5193 H   0  0  0  0  0  0  0  0  0  0  0  0
  2  1  1  0
  2 12  1  0
  3  2  1  0
  4  3  1  0
  4  5  1  0
  5  6  1  0
  6  1  1  0
  6  7  1  0
  7 11  2  0
  8  7  1  0
  8  9  2  0
  9 10  1  0
 11 10  1  0
 13 12  1  0
 13 14  2  0
 15 14  1  0
 16 15  2  0
 17 18  2  0
 17 16  1  0
 18 13  1  0
  1 19  1  0
  2 20  1  6
  3 21  1  0
  3 22  1  0
  5 23  1  0
  5 24  1  0
  6 25  1  1
  9 26  1  0
 10 27  1  0
 14 28  1  0
 15 29  1  0
 17 30  1  0
M  ISO  8  19   5  20  13  21  13  22  13  23  13  24  13  25  13  26  14
M  ISO  4  27   9  28  14  29  14  30  14
M  END
>  <minimizedAffinity>  (1) 
-4.41505957

>  <minimizedRMSD>  (1) 
1.57729244

$$$$
