
     RDKit          3D

 27 28  0  0  1  0  0  0  0  0999 V2000
   33.5890   28.6340   48.9860 N   0  0  0  0  0  0  0  0  0  0  0  0
   34.3930   29.8450   48.9960 C   0  0  2  0  0  0  0  0  0  0  0  0
   34.3900   30.4240   47.5980 C   0  0  0  0  0  0  0  0  0  0  0  0
   33.3380   29.8880   46.8350 O   0  0  0  0  0  0  0  0  0  0  0  0
   33.7190   28.5510   46.5940 C   0  0  0  0  0  0  0  0  0  0  0  0
   34.0230   27.8230   47.8770 C   0  0  2  0  0  0  0  0  0  0  0  0
   33.1440   26.5790   47.8810 C   0  0  0  0  0  0  0  0  0  0  0  0
   36.1190   29.4640   49.4770 S   0  0  0  0  0  0  0  0  0  0  0  0
   37.2410   30.7260   48.9150 C   0  0  0  0  0  0  0  0  0  0  0  0
   37.2000   31.8740   49.7060 C   0  0  0  0  0  0  0  0  0  0  0  0
   38.0290   32.9410   49.3800 C   0  0  0  0  0  0  0  0  0  0  0  0
   38.8400   32.7970   48.2930 N   0  0  0  0  0  0  0  0  0  0  0  0
   38.8590   31.6840   47.5500 C   0  0  0  0  0  0  0  0  0  0  0  0
   38.0550   30.6550   47.8720 N   0  0  0  0  0  0  0  0  0  0  0  0
   33.7206   28.1193   49.8684 H   0  0  0  0  0  0  0  0  0  0  0  0
   33.9734   30.5587   49.7203 H   0  0  0  0  0  0  0  0  0  0  0  0
   34.2696   31.5156   47.6606 H   0  0  0  0  0  0  0  0  0  0  0  0
   35.3427   30.1697   47.1104 H   0  0  0  0  0  0  0  0  0  0  0  0
   32.8984   28.0336   46.0754 H   0  0  0  0  0  0  0  0  0  0  0  0
   34.6299   28.5579   45.9773 H   0  0  0  0  0  0  0  0  0  0  0  0
   35.0962   27.5949   47.9560 H   0  0  0  0  0  0  0  0  0  0  0  0
   32.9340   26.2818   48.9191 H   0  0  0  0  0  0  0  0  0  0  0  0
   32.1981   26.7967   47.3634 H   0  0  0  0  0  0  0  0  0  0  0  0
   33.6651   25.7601   47.3634 H   0  0  0  0  0  0  0  0  0  0  0  0
   36.5241   31.9339   50.5718 H   0  0  0  0  0  0  0  0  0  0  0  0
   38.0309   33.8658   49.9757 H   0  0  0  0  0  0  0  0  0  0  0  0
   39.5287   31.6112   46.6804 H   0  0  0  0  0  0  0  0  0  0  0  0
  1  2  1  0
  2  8  1  0
  3  2  1  0
  4  3  1  0
  5  4  1  0
  5  6  1  0
  6  7  1  0
  6  1  1  0
  9  8  1  0
  9 10  2  0
 11 10  1  0
 12 11  2  0
 13 14  2  0
 13 12  1  0
 14  9  1  0
  1 15  1  0
  2 16  1  1
  3 17  1  0
  3 18  1  0
  5 19  1  0
  5 20  1  0
  6 21  1  1
  7 22  1  0
  7 23  1  0
  7 24  1  0
 10 25  1  0
 11 26  1  0
 13 27  1  0
M  ISO  8  15   5  16  13  17  13  18  13  19  13  20  13  21  13  22   8
M  ISO  5  23   8  24   8  25  14  26  14  27  14
M  END
>  <minimizedAffinity>  (1) 
-4.31106567

>  <minimizedRMSD>  (1) 
0.843360543

$$$$
