
     RDKit          3D

 26 27  0  0  1  0  0  0  0  0999 V2000
   33.6410   29.6950   49.8120 N   0  0  0  0  0  0  0  0  0  0  0  0
   34.5920   30.5800   49.1640 C   0  0  2  0  0  0  0  0  0  0  0  0
   34.5410   30.3300   47.6730 C   0  0  0  0  0  0  0  0  0  0  0  0
   33.3570   29.6480   47.3150 O   0  0  0  0  0  0  0  0  0  0  0  0
   33.5260   28.3520   47.8340 C   0  0  0  0  0  0  0  0  0  0  0  0
   33.8580   28.3630   49.3110 C   0  0  1  0  0  0  0  0  0  0  0  0
   35.2700   28.0090   49.4350 N   0  0  0  0  0  0  0  0  0  0  0  0
   36.2770   30.2360   49.7510 S   0  0  0  0  0  0  0  0  0  0  0  0
   37.4760   31.2420   48.9190 C   0  0  0  0  0  0  0  0  0  0  0  0
   37.7110   32.4760   49.5540 C   0  0  0  0  0  0  0  0  0  0  0  0
   38.6230   33.3670   49.0140 C   0  0  0  0  0  0  0  0  0  0  0  0
   39.2580   32.9720   47.8590 N   0  0  0  0  0  0  0  0  0  0  0  0
   39.0220   31.7910   47.2670 C   0  0  0  0  0  0  0  0  0  0  0  0
   38.1340   30.9390   47.8000 N   0  0  0  0  0  0  0  0  0  0  0  0
   33.7861   29.7126   50.8316 H   0  0  0  0  0  0  0  0  0  0  0  0
   34.3339   31.6234   49.3980 H   0  0  0  0  0  0  0  0  0  0  0  0
   34.5744   31.2945   47.1451 H   0  0  0  0  0  0  0  0  0  0  0  0
   35.4031   29.7072   47.3921 H   0  0  0  0  0  0  0  0  0  0  0  0
   32.5939   27.7871   47.6852 H   0  0  0  0  0  0  0  0  0  0  0  0
   34.3684   27.8844   47.3033 H   0  0  0  0  0  0  0  0  0  0  0  0
   33.2344   27.6565   49.8784 H   0  0  0  0  0  0  0  0  0  0  0  0
   35.5219   27.9459   50.4317 H   0  0  0  0  0  0  0  0  0  0  0  0
   35.4373   27.1000   48.9803 H   0  0  0  0  0  0  0  0  0  0  0  0
   37.1711   32.7321   50.4776 H   0  0  0  0  0  0  0  0  0  0  0  0
   38.8291   34.3400   49.4839 H   0  0  0  0  0  0  0  0  0  0  0  0
   39.5570   31.5217   46.3444 H   0  0  0  0  0  0  0  0  0  0  0  0
  2  8  1  0
  2  1  1  0
  3  2  1  0
  4  3  1  0
  4  5  1  0
  5  6  1  0
  6  7  1  0
  6  1  1  0
  9 10  2  0
  9  8  1  0
 11 10  1  0
 12 11  2  0
 13 14  2  0
 13 12  1  0
 14  9  1  0
  1 15  1  0
  2 16  1  6
  3 17  1  0
  3 18  1  0
  5 19  1  0
  5 20  1  0
  6 21  1  1
  7 22  1  0
  7 23  1  0
 10 24  1  0
 11 25  1  0
 13 26  1  0
M  ISO  8  15   5  16  13  17  13  18  13  19  13  20  13  21  13  22   5
M  ISO  4  23   5  24  14  25  14  26  14
M  END
>  <minimizedAffinity>  (1) 
-4.3087678

>  <minimizedRMSD>  (1) 
0.268436015

$$$$
