
     RDKit          3D

 38 41  0  0  1  0  0  0  0  0999 V2000
   37.3190   30.4520   49.1090 C   0  0  0  0  0  0  0  0  0  0  0  0
   37.5980   31.5110   49.9920 C   0  0  0  0  0  0  0  0  0  0  0  0
   38.4220   32.5380   49.5120 C   0  0  0  0  0  0  0  0  0  0  0  0
   38.8960   32.4450   48.2310 N   0  0  0  0  0  0  0  0  0  0  0  0
   38.5990   31.4130   47.4290 C   0  0  0  0  0  0  0  0  0  0  0  0
   37.8180   30.4280   47.8670 N   0  0  0  0  0  0  0  0  0  0  0  0
   39.6100   32.5370   45.4770 C   0  0  0  0  0  0  0  0  0  0  0  0
   39.1380   31.3770   46.0750 C   0  0  0  0  0  0  0  0  0  0  0  0
   39.2110   30.2240   45.3210 C   0  0  0  0  0  0  0  0  0  0  0  0
   39.7290   30.2050   44.0260 C   0  0  0  0  0  0  0  0  0  0  0  0
   39.8760   29.1770   43.1490 N   0  0  0  0  0  0  0  0  0  0  0  0
   40.4360   29.7500   42.0450 C   0  0  0  0  0  0  0  0  0  0  0  0
   40.6270   31.0720   42.2280 N   0  0  0  0  0  0  0  0  0  0  0  0
   40.1870   31.3840   43.4740 C   0  0  0  0  0  0  0  0  0  0  0  0
   40.1260   32.5490   44.2040 C   0  0  0  0  0  0  0  0  0  0  0  0
   36.2650   29.2240   49.8500 S   0  0  0  0  0  0  0  0  0  0  0  0
   33.8160   28.2690   49.2360 N   0  0  0  0  0  0  0  0  0  0  0  0
   34.5090   29.5250   49.4280 C   0  0  2  0  0  0  0  0  0  0  0  0
   34.4450   30.3090   48.1470 C   0  0  0  0  0  0  0  0  0  0  0  0
   33.4280   29.8120   47.3040 O   0  0  0  0  0  0  0  0  0  0  0  0
   33.9090   28.5580   46.8750 C   0  0  0  0  0  0  0  0  0  0  0  0
   34.3170   27.6690   48.0160 C   0  0  2  0  0  0  0  0  0  0  0  0
   33.7080   26.4020   47.9010 O   0  0  0  0  0  0  0  0  0  0  0  0
   37.1881   31.5320   51.0126 H   0  0  0  0  0  0  0  0  0  0  0  0
   38.6813   33.3970   50.1483 H   0  0  0  0  0  0  0  0  0  0  0  0
   39.5695   33.4798   46.0422 H   0  0  0  0  0  0  0  0  0  0  0  0
   38.8464   29.2827   45.7582 H   0  0  0  0  0  0  0  0  0  0  0  0
   39.6219   28.1884   43.2869 H   0  0  0  0  0  0  0  0  0  0  0  0
   40.6974   29.2050   41.1260 H   0  0  0  0  0  0  0  0  0  0  0  0
   40.4908   33.4906   43.7677 H   0  0  0  0  0  0  0  0  0  0  0  0
   33.9968   27.6435   50.0341 H   0  0  0  0  0  0  0  0  0  0  0  0
   34.0326   30.0808   50.2490 H   0  0  0  0  0  0  0  0  0  0  0  0
   34.2366   31.3637   48.3800 H   0  0  0  0  0  0  0  0  0  0  0  0
   35.4101   30.2143   47.6278 H   0  0  0  0  0  0  0  0  0  0  0  0
   33.1157   28.0542   46.3033 H   0  0  0  0  0  0  0  0  0  0  0  0
   34.8031   28.7390   46.2603 H   0  0  0  0  0  0  0  0  0  0  0  0
   35.4113   27.5570   48.0147 H   0  0  0  0  0  0  0  0  0  0  0  0
   33.5325   26.0370   48.8044 H   0  0  0  0  0  0  0  0  0  0  0  0
  1 16  1  0
  1  2  2  0
  3  2  1  0
  4  3  2  0
  5  6  2  0
  5  4  1  0
  6  1  1  0
  7  8  2  0
  8  5  1  0
  9  8  1  0
 10  9  2  0
 11 10  1  0
 12 13  2  0
 12 11  1  0
 13 14  1  0
 14 10  1  0
 14 15  2  0
 15  7  1  0
 17 18  1  0
 18 16  1  0
 19 18  1  0
 20 19  1  0
 21 20  1  0
 21 22  1  0
 22 17  1  0
 23 22  1  0
  2 24  1  0
  3 25  1  0
  7 26  1  0
  9 27  1  0
 11 28  1  0
 12 29  1  0
 15 30  1  0
 17 31  1  0
 18 32  1  1
 19 33  1  0
 19 34  1  0
 21 35  1  0
 21 36  1  0
 22 37  1  1
 23 38  1  0
M  ISO  8  24  14  25  14  26  14  27  14  28   9  29  14  30  14  31   5
M  ISO  7  32  13  33  13  34  13  35  13  36  13  37  13  38   3
M  END
>  <minimizedAffinity>  (1) 
-6.46494198

>  <minimizedRMSD>  (1) 
1.01377618

$$$$
