
     RDKit          3D

 40 42  0  0  1  0  0  0  0  0999 V2000
   36.2640   29.1940   49.8380 S   0  0  0  0  0  0  0  0  0  0  0  0
   37.3130   30.4040   49.0800 C   0  0  0  0  0  0  0  0  0  0  0  0
   37.6350   31.4670   49.9470 C   0  0  0  0  0  0  0  0  0  0  0  0
   38.4520   32.4840   49.4770 C   0  0  0  0  0  0  0  0  0  0  0  0
   38.8980   32.3890   48.1860 N   0  0  0  0  0  0  0  0  0  0  0  0
   38.5810   31.3750   47.3830 C   0  0  0  0  0  0  0  0  0  0  0  0
   37.7970   30.3980   47.8330 N   0  0  0  0  0  0  0  0  0  0  0  0
   39.0670   31.3150   46.0440 N   0  0  0  0  0  0  0  0  0  0  0  0
   40.4870   31.2800   45.7300 C   0  0  0  0  0  0  0  0  0  0  0  0
   40.7660   32.5780   44.9810 C   0  0  0  0  0  0  0  0  0  0  0  0
   39.8200   32.7860   43.8310 C   0  0  0  0  0  0  0  0  0  0  0  0
   38.3860   32.6410   44.2210 C   0  0  0  0  0  0  0  0  0  0  0  0
   38.1620   31.2870   44.9060 C   0  0  0  0  0  0  0  0  0  0  0  0
   33.8130   28.2530   49.2300 N   0  0  0  0  0  0  0  0  0  0  0  0
   34.5070   29.4960   49.4320 C   0  0  2  0  0  0  0  0  0  0  0  0
   34.4350   30.2900   48.1560 C   0  0  0  0  0  0  0  0  0  0  0  0
   33.4130   29.8010   47.3130 O   0  0  0  0  0  0  0  0  0  0  0  0
   33.8940   28.5500   46.8700 C   0  0  0  0  0  0  0  0  0  0  0  0
   34.3060   27.6540   48.0030 C   0  0  2  0  0  0  0  0  0  0  0  0
   33.7020   26.3850   47.8730 O   0  0  0  0  0  0  0  0  0  0  0  0
   37.2462   31.4896   50.9757 H   0  0  0  0  0  0  0  0  0  0  0  0
   38.7310   33.3343   50.1167 H   0  0  0  0  0  0  0  0  0  0  0  0
   41.0844   31.2315   46.6524 H   0  0  0  0  0  0  0  0  0  0  0  0
   40.7528   30.3962   45.1315 H   0  0  0  0  0  0  0  0  0  0  0  0
   40.6627   33.4200   45.6812 H   0  0  0  0  0  0  0  0  0  0  0  0
   41.7856   32.5191   44.5725 H   0  0  0  0  0  0  0  0  0  0  0  0
   40.0478   32.0443   43.0513 H   0  0  0  0  0  0  0  0  0  0  0  0
   39.9605   33.8162   43.4718 H   0  0  0  0  0  0  0  0  0  0  0  0
   38.1139   33.4497   44.9152 H   0  0  0  0  0  0  0  0  0  0  0  0
   37.7594   32.6967   43.3186 H   0  0  0  0  0  0  0  0  0  0  0  0
   37.1185   31.1849   45.2386 H   0  0  0  0  0  0  0  0  0  0  0  0
   38.3516   30.4363   44.2349 H   0  0  0  0  0  0  0  0  0  0  0  0
   33.9917   27.6207   50.0232 H   0  0  0  0  0  0  0  0  0  0  0  0
   34.0393   30.0414   50.2649 H   0  0  0  0  0  0  0  0  0  0  0  0
   34.2283   31.3428   48.3986 H   0  0  0  0  0  0  0  0  0  0  0  0
   35.3970   30.1974   47.6307 H   0  0  0  0  0  0  0  0  0  0  0  0
   33.0992   28.0501   46.2969 H   0  0  0  0  0  0  0  0  0  0  0  0
   34.7849   28.7360   46.2522 H   0  0  0  0  0  0  0  0  0  0  0  0
   35.3999   27.5385   48.0042 H   0  0  0  0  0  0  0  0  0  0  0  0
   33.5238   26.0107   48.7720 H   0  0  0  0  0  0  0  0  0  0  0  0
  2  1  1  0
  2  3  2  0
  4  3  1  0
  5  4  2  0
  6  7  2  0
  6  5  1  0
  7  2  1  0
  8  6  1  0
  9  8  1  0
 10  9  1  0
 11 12  1  0
 11 10  1  0
 12 13  1  0
 13  8  1  0
 14 15  1  0
 15  1  1  0
 16 15  1  0
 17 16  1  0
 18 17  1  0
 18 19  1  0
 19 14  1  0
 20 19  1  0
  3 21  1  0
  4 22  1  0
  9 23  1  0
  9 24  1  0
 10 25  1  0
 10 26  1  0
 11 27  1  0
 11 28  1  0
 12 29  1  0
 12 30  1  0
 13 31  1  0
 13 32  1  0
 14 33  1  0
 15 34  1  1
 16 35  1  0
 16 36  1  0
 18 37  1  0
 18 38  1  0
 19 39  1  1
 20 40  1  0
M  ISO  8  21  14  22  14  23  13  24  13  25  13  26  13  27  13  28  13
M  ISO  8  29  13  30  13  31  13  32  13  33   5  34  13  35  13  36  13
M  ISO  4  37  13  38  13  39  13  40   3
M  END
>  <minimizedAffinity>  (1) 
-6.10979843

>  <minimizedRMSD>  (1) 
0.797959685

$$$$
