
     RDKit          3D

 39 41  0  0  1  0  0  0  0  0999 V2000
   37.1890   30.2800   49.1880 C   0  0  0  0  0  0  0  0  0  0  0  0
   37.6150   31.2080   50.1560 C   0  0  0  0  0  0  0  0  0  0  0  0
   38.4910   32.2170   49.7560 C   0  0  0  0  0  0  0  0  0  0  0  0
   38.8860   32.2400   48.4340 N   0  0  0  0  0  0  0  0  0  0  0  0
   38.4550   31.3380   47.5530 C   0  0  0  0  0  0  0  0  0  0  0  0
   37.6200   30.3710   47.9190 N   0  0  0  0  0  0  0  0  0  0  0  0
   38.9230   31.4500   46.2130 N   0  0  0  0  0  0  0  0  0  0  0  0
   39.5590   32.6710   45.7580 C   0  0  0  0  0  0  0  0  0  0  0  0
   40.9020   32.3870   45.1120 C   0  0  0  0  0  0  0  0  0  0  0  0
   41.0890   30.9670   44.8790 N   0  0  0  0  0  0  0  0  0  0  0  0
   39.9330   30.4640   44.2050 C   0  0  0  0  0  0  0  0  0  0  0  0
   38.8000   30.3860   45.2360 C   0  0  0  0  0  0  0  0  0  0  0  0
   36.0820   29.0640   49.8450 S   0  0  0  0  0  0  0  0  0  0  0  0
   33.6150   28.2040   49.1460 N   0  0  0  0  0  0  0  0  0  0  0  0
   34.3490   29.4190   49.3680 C   0  0  2  0  0  0  0  0  0  0  0  0
   34.3590   30.1960   48.0630 C   0  0  0  0  0  0  0  0  0  0  0  0
   33.3580   29.7290   47.1870 O   0  0  0  0  0  0  0  0  0  0  0  0
   33.8150   28.4560   46.7830 C   0  0  0  0  0  0  0  0  0  0  0  0
   34.1350   27.5710   47.9670 C   0  0  2  0  0  0  0  0  0  0  0  0
   33.4990   26.3220   47.8140 O   0  0  0  0  0  0  0  0  0  0  0  0
   37.2675   31.1398   51.1974 H   0  0  0  0  0  0  0  0  0  0  0  0
   38.8550   32.9697   50.4708 H   0  0  0  0  0  0  0  0  0  0  0  0
   38.9050   33.1630   45.0230 H   0  0  0  0  0  0  0  0  0  0  0  0
   39.7243   33.3213   46.6297 H   0  0  0  0  0  0  0  0  0  0  0  0
   40.9554   32.9174   44.1498 H   0  0  0  0  0  0  0  0  0  0  0  0
   41.6933   32.7327   45.7934 H   0  0  0  0  0  0  0  0  0  0  0  0
   41.9245   30.8173   44.2955 H   0  0  0  0  0  0  0  0  0  0  0  0
   39.6504   31.1418   43.3860 H   0  0  0  0  0  0  0  0  0  0  0  0
   40.1351   29.4725   43.7736 H   0  0  0  0  0  0  0  0  0  0  0  0
   37.8338   30.4805   44.7188 H   0  0  0  0  0  0  0  0  0  0  0  0
   38.8609   29.4188   45.7564 H   0  0  0  0  0  0  0  0  0  0  0  0
   33.7265   27.5771   49.9556 H   0  0  0  0  0  0  0  0  0  0  0  0
   33.8730   29.9880   50.1802 H   0  0  0  0  0  0  0  0  0  0  0  0
   34.1812   31.2602   48.2771 H   0  0  0  0  0  0  0  0  0  0  0  0
   35.3379   30.0571   47.5810 H   0  0  0  0  0  0  0  0  0  0  0  0
   33.0334   27.9727   46.1784 H   0  0  0  0  0  0  0  0  0  0  0  0
   34.7378   28.5936   46.2004 H   0  0  0  0  0  0  0  0  0  0  0  0
   35.2224   27.4223   48.0414 H   0  0  0  0  0  0  0  0  0  0  0  0
   33.3042   25.9394   48.7061 H   0  0  0  0  0  0  0  0  0  0  0  0
  1 13  1  0
  1  2  2  0
  3  2  1  0
  4  3  2  0
  5  6  2  0
  5  4  1  0
  6  1  1  0
  7  5  1  0
  8  7  1  0
  9  8  1  0
 10  9  1  0
 11 10  1  0
 11 12  1  0
 12  7  1  0
 14 15  1  0
 15 13  1  0
 16 15  1  0
 17 16  1  0
 18 17  1  0
 18 19  1  0
 19 14  1  0
 20 19  1  0
  2 21  1  0
  3 22  1  0
  8 23  1  0
  8 24  1  0
  9 25  1  0
  9 26  1  0
 10 27  1  0
 11 28  1  0
 11 29  1  0
 12 30  1  0
 12 31  1  0
 14 32  1  0
 15 33  1  1
 16 34  1  0
 16 35  1  0
 18 36  1  0
 18 37  1  0
 19 38  1  1
 20 39  1  0
M  ISO  8  21  14  22  14  23  13  24  13  25  13  26  13  27   5  28  13
M  ISO  8  29  13  30  13  31  13  32   5  33  13  34  13  35  13  36  13
M  ISO  3  37  13  38  13  39   3
M  END
>  <minimizedAffinity>  (1) 
-6.02022934

>  <minimizedRMSD>  (1) 
0.938167155

$$$$
