
     RDKit          3D

 32 33  0  0  1  0  0  0  0  0999 V2000
   33.4550   28.4930   48.9980 N   0  0  0  0  0  0  0  0  0  0  0  0
   34.1880   29.7460   49.0410 C   0  0  2  0  0  0  0  0  0  0  0  0
   34.2440   30.3130   47.6410 C   0  0  0  0  0  0  0  0  0  0  0  0
   33.2590   29.7240   46.8150 O   0  0  0  0  0  0  0  0  0  0  0  0
   33.6990   28.3950   46.6270 C   0  0  0  0  0  0  0  0  0  0  0  0
   33.9780   27.6980   47.9260 C   0  0  2  0  0  0  0  0  0  0  0  0
   33.3180   26.4440   47.9610 O   0  0  0  0  0  0  0  0  0  0  0  0
   35.9130   29.4330   49.6130 S   0  0  0  0  0  0  0  0  0  0  0  0
   36.9910   30.7440   49.1030 C   0  0  0  0  0  0  0  0  0  0  0  0
   36.9180   31.8730   49.9250 C   0  0  0  0  0  0  0  0  0  0  0  0
   37.7130   32.9720   49.6360 C   0  0  0  0  0  0  0  0  0  0  0  0
   38.5350   32.8830   48.5440 N   0  0  0  0  0  0  0  0  0  0  0  0
   38.5850   31.7860   47.7740 C   0  0  0  0  0  0  0  0  0  0  0  0
   37.8130   30.7190   48.0550 N   0  0  0  0  0  0  0  0  0  0  0  0
   39.4650   31.7000   46.6110 C   0  0  0  0  0  0  0  0  0  0  0  0
   39.8260   32.7580   45.9020 C   0  0  0  0  0  0  0  0  0  0  0  0
   40.7350   32.6060   44.7140 C   0  0  0  0  0  0  0  0  0  0  0  0
   33.5702   27.9920   49.8906 H   0  0  0  0  0  0  0  0  0  0  0  0
   33.6901   30.4458   49.7283 H   0  0  0  0  0  0  0  0  0  0  0  0
   34.0734   31.3988   47.6857 H   0  0  0  0  0  0  0  0  0  0  0  0
   35.2343   30.0953   47.2145 H   0  0  0  0  0  0  0  0  0  0  0  0
   32.9197   27.8375   46.0868 H   0  0  0  0  0  0  0  0  0  0  0  0
   34.6381   28.4293   46.0552 H   0  0  0  0  0  0  0  0  0  0  0  0
   35.0640   27.5543   48.0256 H   0  0  0  0  0  0  0  0  0  0  0  0
   33.1751   26.1725   48.9022 H   0  0  0  0  0  0  0  0  0  0  0  0
   36.2386   31.8892   50.7899 H   0  0  0  0  0  0  0  0  0  0  0  0
   37.6846   33.8784   50.2585 H   0  0  0  0  0  0  0  0  0  0  0  0
   39.8445   30.7121   46.3111 H   0  0  0  0  0  0  0  0  0  0  0  0
   39.4583   33.7556   46.1840 H   0  0  0  0  0  0  0  0  0  0  0  0
   41.7649   32.4338   45.0600 H   0  0  0  0  0  0  0  0  0  0  0  0
   40.4044   31.7507   44.1064 H   0  0  0  0  0  0  0  0  0  0  0  0
   40.7007   33.5224   44.1064 H   0  0  0  0  0  0  0  0  0  0  0  0
  1  2  1  0
  2  8  1  0
  3  2  1  0
  4  3  1  0
  5  4  1  0
  5  6  1  0
  6  7  1  0
  6  1  1  0
  9  8  1  0
  9 10  2  0
 11 10  1  0
 12 11  2  0
 13 14  2  0
 13 12  1  0
 14  9  1  0
 15 13  1  0
 16 15  2  0
 17 16  1  0
  1 18  1  0
  2 19  1  1
  3 20  1  0
  3 21  1  0
  5 22  1  0
  5 23  1  0
  6 24  1  1
  7 25  1  0
 10 26  1  0
 11 27  1  0
 15 28  1  0
 16 29  1  0
 17 30  1  0
 17 31  1  0
 17 32  1  0
M  ISO  8  18   5  19  13  20  13  21  13  22  13  23  13  24  13  25   3
M  ISO  5  26  14  27  14  30   8  31   8  32   8
M  END
>  <minimizedAffinity>  (1) 
-5.08001947

>  <minimizedRMSD>  (1) 
0.47684893

$$$$
