
     RDKit          3D

 28 29  0  0  1  0  0  0  0  0999 V2000
   33.5690   28.6550   49.0920 N   0  0  0  0  0  0  0  0  0  0  0  0
   34.4010   29.8370   49.0480 C   0  0  2  0  0  0  0  0  0  0  0  0
   34.3600   30.3780   47.6460 C   0  0  0  0  0  0  0  0  0  0  0  0
   33.2660   29.8560   46.9290 O   0  0  0  0  0  0  0  0  0  0  0  0
   33.5730   28.5090   46.7240 C   0  0  0  0  0  0  0  0  0  0  0  0
   33.9430   27.7920   48.0070 C   0  0  2  0  0  0  0  0  0  0  0  0
   33.2070   26.6010   48.1280 O   0  0  0  0  0  0  0  0  0  0  0  0
   36.1280   29.4190   49.4800 S   0  0  0  0  0  0  0  0  0  0  0  0
   37.2480   30.6510   48.8930 C   0  0  0  0  0  0  0  0  0  0  0  0
   37.2540   31.8130   49.6970 C   0  0  0  0  0  0  0  0  0  0  0  0
   38.0980   32.8550   49.3340 C   0  0  0  0  0  0  0  0  0  0  0  0
   38.8770   32.6980   48.2190 N   0  0  0  0  0  0  0  0  0  0  0  0
   38.8540   31.5780   47.4660 C   0  0  0  0  0  0  0  0  0  0  0  0
   38.0430   30.5840   47.8200 N   0  0  0  0  0  0  0  0  0  0  0  0
   39.7070   31.4450   46.2730 C   0  0  0  0  0  0  0  0  0  0  0  0
   33.7074   28.1662   49.9880 H   0  0  0  0  0  0  0  0  0  0  0  0
   34.0307   30.5802   49.7694 H   0  0  0  0  0  0  0  0  0  0  0  0
   34.2719   31.4737   47.6869 H   0  0  0  0  0  0  0  0  0  0  0  0
   35.2861   30.0816   47.1317 H   0  0  0  0  0  0  0  0  0  0  0  0
   32.6967   28.0115   46.2829 H   0  0  0  0  0  0  0  0  0  0  0  0
   34.4452   28.4649   46.0551 H   0  0  0  0  0  0  0  0  0  0  0  0
   35.0172   27.5553   48.0120 H   0  0  0  0  0  0  0  0  0  0  0  0
   33.0764   26.3897   49.0863 H   0  0  0  0  0  0  0  0  0  0  0  0
   36.6090   31.8903   50.5847 H   0  0  0  0  0  0  0  0  0  0  0  0
   38.1393   33.7810   49.9262 H   0  0  0  0  0  0  0  0  0  0  0  0
   40.7495   31.2824   46.5839 H   0  0  0  0  0  0  0  0  0  0  0  0
   39.3659   30.5892   45.6720 H   0  0  0  0  0  0  0  0  0  0  0  0
   39.6427   32.3640   45.6720 H   0  0  0  0  0  0  0  0  0  0  0  0
  2  1  1  0
  2  8  1  0
  3  2  1  0
  4  3  1  0
  5  4  1  0
  5  6  1  0
  6  7  1  0
  6  1  1  0
  9  8  1  0
  9 10  2  0
 11 10  1  0
 12 11  2  0
 13 14  2  0
 13 12  1  0
 14  9  1  0
 15 13  1  0
  1 16  1  0
  2 17  1  1
  3 18  1  0
  3 19  1  0
  5 20  1  0
  5 21  1  0
  6 22  1  6
  7 23  1  0
 10 24  1  0
 11 25  1  0
 15 26  1  0
 15 27  1  0
 15 28  1  0
M  ISO  8  16   5  17  13  18  13  19  13  20  13  21  13  22  13  23   3
M  ISO  5  24  14  25  14  26   8  27   8  28   8
M  END
>  <minimizedAffinity>  (1) 
-4.67046118

>  <minimizedRMSD>  (1) 
0.138842747

$$$$
