
     RDKit          3D

 26 27  0  0  0  0  0  0  0  0999 V2000
   38.4070   32.5640   48.4030 C   0  0  0  0  0  0  0  0  0  0  0  0
   39.2060   32.3630   47.2590 C   0  0  0  0  0  0  0  0  0  0  0  0
   38.8820   31.3020   46.4140 C   0  0  0  0  0  0  0  0  0  0  0  0
   37.8140   30.5100   46.7300 N   0  0  0  0  0  0  0  0  0  0  0  0
   37.0740   30.7410   47.8410 C   0  0  0  0  0  0  0  0  0  0  0  0
   37.3620   31.7670   48.6860 N   0  0  0  0  0  0  0  0  0  0  0  0
   37.3580   29.3260   50.6330 Br  0  0  0  0  0  0  0  0  0  0  0  0
   35.9020   29.2090   49.3850 C   0  0  0  0  0  0  0  0  0  0  0  0
   35.9260   29.8970   48.1880 C   0  0  0  0  0  0  0  0  0  0  0  0
   34.8410   29.7520   47.3600 C   0  0  0  0  0  0  0  0  0  0  0  0
   33.7460   28.9710   47.6500 C   0  0  0  0  0  0  0  0  0  0  0  0
   33.7630   28.2960   48.8650 C   0  0  0  0  0  0  0  0  0  0  0  0
   34.8360   28.4200   49.7190 C   0  0  0  0  0  0  0  0  0  0  0  0
   38.6660   33.6590   49.3630 C   0  0  0  0  0  0  0  0  0  0  0  0
   39.8050   34.5410   49.0050 C   0  0  0  0  0  0  0  0  0  0  0  0
   40.0585   33.0226   47.0397 H   0  0  0  0  0  0  0  0  0  0  0  0
   39.4757   31.1060   45.5089 H   0  0  0  0  0  0  0  0  0  0  0  0
   34.8473   30.2949   46.4033 H   0  0  0  0  0  0  0  0  0  0  0  0
   32.8984   28.8850   46.9542 H   0  0  0  0  0  0  0  0  0  0  0  0
   32.9125   27.6577   49.1465 H   0  0  0  0  0  0  0  0  0  0  0  0
   34.8358   27.8802   50.6774 H   0  0  0  0  0  0  0  0  0  0  0  0
   37.7598   34.2791   49.4282 H   0  0  0  0  0  0  0  0  0  0  0  0
   38.9319   33.1797   50.3167 H   0  0  0  0  0  0  0  0  0  0  0  0
   40.2841   34.9120   49.9230 H   0  0  0  0  0  0  0  0  0  0  0  0
   40.5374   33.9722   48.4133 H   0  0  0  0  0  0  0  0  0  0  0  0
   39.4376   35.3924   48.4133 H   0  0  0  0  0  0  0  0  0  0  0  0
  1  6  2  0
  1 14  1  0
  2  1  1  0
  3  4  1  0
  3  2  2  0
  4  5  2  0
  5  9  1  0
  5  6  1  0
  8 13  2  0
  8  7  1  0
  9  8  1  0
 10 11  1  0
 10  9  2  0
 11 12  2  0
 12 13  1  0
 15 14  1  0
  2 16  1  0
  3 17  1  0
 10 18  1  0
 11 19  1  0
 12 20  1  0
 13 21  1  0
 14 22  1  0
 14 23  1  0
 15 24  1  0
 15 25  1  0
 15 26  1  0
M  ISO  8  16  14  17  14  18  14  19  14  20  14  21  14  22   8  23   8
M  ISO  3  24   8  25   8  26   8
M  END
>  <minimizedAffinity>  (1) 
-5.76604271

>  <minimizedRMSD>  (1) 
1.05484033

$$$$
