
     RDKit          3D

 27 29  0  0  0  0  0  0  0  0999 V2000
   38.3490   32.6280   48.2550 C   0  0  0  0  0  0  0  0  0  0  0  0
   39.2630   32.3040   47.2130 C   0  0  0  0  0  0  0  0  0  0  0  0
   39.0300   31.1300   46.5150 C   0  0  0  0  0  0  0  0  0  0  0  0
   37.9570   30.3480   46.8450 N   0  0  0  0  0  0  0  0  0  0  0  0
   37.1060   30.7060   47.8590 C   0  0  0  0  0  0  0  0  0  0  0  0
   37.3110   31.8420   48.5540 N   0  0  0  0  0  0  0  0  0  0  0  0
   37.3710   29.3460   50.6650 Br  0  0  0  0  0  0  0  0  0  0  0  0
   35.9320   29.2050   49.4160 C   0  0  0  0  0  0  0  0  0  0  0  0
   35.9680   29.8750   48.2090 C   0  0  0  0  0  0  0  0  0  0  0  0
   34.8870   29.7140   47.3730 C   0  0  0  0  0  0  0  0  0  0  0  0
   33.7870   28.9350   47.6660 C   0  0  0  0  0  0  0  0  0  0  0  0
   33.7840   28.2820   48.8760 C   0  0  0  0  0  0  0  0  0  0  0  0
   34.8570   28.4240   49.7420 C   0  0  0  0  0  0  0  0  0  0  0  0
   38.5780   33.8810   49.0180 C   0  0  0  0  0  0  0  0  0  0  0  0
   39.8380   34.6510   48.8350 C   0  0  0  0  0  0  0  0  0  0  0  0
   39.6140   33.8630   50.0980 C   0  0  0  0  0  0  0  0  0  0  0  0
   40.1157   32.9561   46.9728 H   0  0  0  0  0  0  0  0  0  0  0  0
   39.7042   30.8283   45.6998 H   0  0  0  0  0  0  0  0  0  0  0  0
   34.9010   30.2411   46.4076 H   0  0  0  0  0  0  0  0  0  0  0  0
   32.9476   28.8402   46.9614 H   0  0  0  0  0  0  0  0  0  0  0  0
   32.9306   27.6472   49.1567 H   0  0  0  0  0  0  0  0  0  0  0  0
   34.8440   27.8993   50.7087 H   0  0  0  0  0  0  0  0  0  0  0  0
   37.5113   34.1417   48.9527 H   0  0  0  0  0  0  0  0  0  0  0  0
   40.5866   34.3148   48.1024 H   0  0  0  0  0  0  0  0  0  0  0  0
   40.0831   35.6983   48.6048 H   0  0  0  0  0  0  0  0  0  0  0  0
   39.4292   34.3851   51.0484 H   0  0  0  0  0  0  0  0  0  0  0  0
   40.1658   33.0796   50.6382 H   0  0  0  0  0  0  0  0  0  0  0  0
  1  6  1  0
  1 14  1  0
  2  1  2  0
  3  4  2  0
  3  2  1  0
  4  5  1  0
  5  9  1  0
  5  6  2  0
  8 13  2  0
  8  7  1  0
  9  8  1  0
 10 11  1  0
 10  9  2  0
 11 12  2  0
 12 13  1  0
 14 16  1  0
 15 14  1  0
 15 16  1  0
  2 17  1  0
  3 18  1  0
 10 19  1  0
 11 20  1  0
 12 21  1  0
 13 22  1  0
 14 23  1  0
 15 24  1  0
 15 25  1  0
 16 26  1  0
 16 27  1  0
M  ISO  8  17  14  18  14  19  14  20  14  21  14  22  14  23  13  24  13
M  ISO  3  25  13  26  13  27  13
M  END
>  <minimizedAffinity>  (1) 
-5.70962191

>  <minimizedRMSD>  (1) 
1.07105899

$$$$
