
     RDKit          3D

 30 32  0  0  0  0  0  0  0  0999 V2000
   35.8420   30.2720   46.9600 C   0  0  0  0  0  0  0  0  0  0  0  0
   36.4040   30.3400   45.6680 C   0  0  0  0  0  0  0  0  0  0  0  0
   35.5670   30.0310   44.5830 C   0  0  0  0  0  0  0  0  0  0  0  0
   34.2700   29.6850   44.8310 N   0  0  0  0  0  0  0  0  0  0  0  0
   33.7820   29.6350   46.0890 C   0  0  0  0  0  0  0  0  0  0  0  0
   34.5660   29.9270   47.1360 N   0  0  0  0  0  0  0  0  0  0  0  0
   33.4700   27.0570   47.8450 Br  0  0  0  0  0  0  0  0  0  0  0  0
   32.0810   28.1660   47.1270 C   0  0  0  0  0  0  0  0  0  0  0  0
   32.3950   29.2680   46.3690 C   0  0  0  0  0  0  0  0  0  0  0  0
   31.3330   30.0230   45.8810 C   0  0  0  0  0  0  0  0  0  0  0  0
   30.0060   29.7170   46.1210 C   0  0  0  0  0  0  0  0  0  0  0  0
   29.7500   28.5900   46.8940 C   0  0  0  0  0  0  0  0  0  0  0  0
   30.7930   27.8260   47.3890 C   0  0  0  0  0  0  0  0  0  0  0  0
   37.9710   32.2580   46.4490 Cl  0  0  0  0  0  0  0  0  0  0  0  0
   37.6970   31.4950   48.0040 C   0  0  0  0  0  0  0  0  0  0  0  0
   36.6700   30.5820   48.1160 C   0  0  0  0  0  0  0  0  0  0  0  0
   36.5340   30.0390   49.3720 C   0  0  0  0  0  0  0  0  0  0  0  0
   37.3300   30.3550   50.4340 C   0  0  0  0  0  0  0  0  0  0  0  0
   38.3460   31.2690   50.2930 C   0  0  0  0  0  0  0  0  0  0  0  0
   38.5250   31.8440   49.0510 C   0  0  0  0  0  0  0  0  0  0  0  0
   37.4559   30.6237   45.5161 H   0  0  0  0  0  0  0  0  0  0  0  0
   35.9497   30.0672   43.5524 H   0  0  0  0  0  0  0  0  0  0  0  0
   31.5611   30.9102   45.2721 H   0  0  0  0  0  0  0  0  0  0  0  0
   29.1907   30.3365   45.7190 H   0  0  0  0  0  0  0  0  0  0  0  0
   28.7110   28.3033   47.1139 H   0  0  0  0  0  0  0  0  0  0  0  0
   30.5765   26.9367   47.9992 H   0  0  0  0  0  0  0  0  0  0  0  0
   35.7322   29.3028   49.5306 H   0  0  0  0  0  0  0  0  0  0  0  0
   37.1573   29.8753   51.4087 H   0  0  0  0  0  0  0  0  0  0  0  0
   38.9947   31.5336   51.1410 H   0  0  0  0  0  0  0  0  0  0  0  0
   39.3275   32.5802   48.8960 H   0  0  0  0  0  0  0  0  0  0  0  0
  1  6  1  0
  1 16  1  0
  2  1  2  0
  3  4  2  0
  3  2  1  0
  4  5  1  0
  5  9  1  0
  5  6  2  0
  8 13  2  0
  8  7  1  0
  9  8  1  0
 10 11  1  0
 10  9  2  0
 11 12  2  0
 12 13  1  0
 14 15  1  0
 15 16  2  0
 15 20  1  0
 16 17  1  0
 17 18  2  0
 19 18  1  0
 20 19  2  0
  2 21  1  0
  3 22  1  0
 10 23  1  0
 11 24  1  0
 12 25  1  0
 13 26  1  0
 17 27  1  0
 18 28  1  0
 19 29  1  0
 20 30  1  0
M  ISO  8  21  14  22  14  23  14  24  14  25  14  26  14  27  14  28  14
M  ISO  2  29  14  30  14
M  END
>  <minimizedAffinity>  (1) 
-5.64690495

>  <minimizedRMSD>  (1) 
4.74631834

$$$$
