
     RDKit          3D

 25 27  0  0  0  0  0  0  0  0999 V2000
   36.4590   30.3020   47.6420 C   0  0  0  0  0  0  0  0  0  0  0  0
   35.3280   29.9080   46.9800 C   0  0  0  0  0  0  0  0  0  0  0  0
   35.1150   30.0410   45.6270 C   0  0  0  0  0  0  0  0  0  0  0  0
   36.1010   30.6070   44.8850 N   0  0  0  0  0  0  0  0  0  0  0  0
   37.2090   30.9950   45.5260 C   0  0  0  0  0  0  0  0  0  0  0  0
   37.4100   30.8620   46.8430 N   0  0  0  0  0  0  0  0  0  0  0  0
   37.8140   30.3810   51.1610 C   0  0  0  0  0  0  0  0  0  0  0  0
   37.7480   30.5930   49.7810 C   0  0  0  0  0  0  0  0  0  0  0  0
   36.6480   30.1440   49.0720 C   0  0  0  0  0  0  0  0  0  0  0  0
   35.6640   29.5040   49.7660 N   0  0  0  0  0  0  0  0  0  0  0  0
   35.7510   29.3100   51.1040 C   0  0  0  0  0  0  0  0  0  0  0  0
   36.8090   29.7410   51.7980 N   0  0  0  0  0  0  0  0  0  0  0  0
   38.2690   31.6080   44.6980 C   0  0  0  0  0  0  0  0  0  0  0  0
   38.8960   31.0520   43.5870 C   0  0  0  0  0  0  0  0  0  0  0  0
   39.8060   32.0000   43.1610 C   0  0  0  0  0  0  0  0  0  0  0  0
   39.7350   33.0620   43.9650 N   0  0  0  0  0  0  0  0  0  0  0  0
   38.8190   32.8300   44.8810 N   0  0  0  0  0  0  0  0  0  0  0  0
   34.5259   29.4488   47.5764 H   0  0  0  0  0  0  0  0  0  0  0  0
   34.1779   29.7004   45.1625 H   0  0  0  0  0  0  0  0  0  0  0  0
   38.6861   30.7360   51.7297 H   0  0  0  0  0  0  0  0  0  0  0  0
   38.5659   31.1138   49.2616 H   0  0  0  0  0  0  0  0  0  0  0  0
   34.9367   28.7886   51.6285 H   0  0  0  0  0  0  0  0  0  0  0  0
   38.7066   30.0643   43.1413 H   0  0  0  0  0  0  0  0  0  0  0  0
   40.4803   31.8959   42.2981 H   0  0  0  0  0  0  0  0  0  0  0  0
   40.3012   33.9185   43.8828 H   0  0  0  0  0  0  0  0  0  0  0  0
  1  9  1  0
  2  1  2  0
  3  2  1  0
  4  5  1  0
  4  3  2  0
  5  6  2  0
  6  1  1  0
  7 12  2  0
  8  7  1  0
  9 10  1  0
  9  8  2  0
 10 11  2  0
 11 12  1  0
 13 17  2  0
 13  5  1  0
 14 13  1  0
 15 14  2  0
 15 16  1  0
 16 17  1  0
  2 18  1  0
  3 19  1  0
  7 20  1  0
  8 21  1  0
 11 22  1  0
 14 23  1  0
 15 24  1  0
 16 25  1  0
M  ISO  8  18  14  19  14  20  14  21  14  22  14  23  14  24  14  25   9
M  END
>  <minimizedAffinity>  (1) 
-4.77195883

>  <minimizedRMSD>  (1) 
2.87194538

$$$$
