
     RDKit          3D

 28 30  0  0  0  0  0  0  0  0999 V2000
   37.7080   31.1260   47.2640 C   0  0  0  0  0  0  0  0  0  0  0  0
   37.0050   30.7950   46.1200 C   0  0  0  0  0  0  0  0  0  0  0  0
   37.3510   31.2650   44.8680 C   0  0  0  0  0  0  0  0  0  0  0  0
   38.4180   32.0830   44.7450 N   0  0  0  0  0  0  0  0  0  0  0  0
   39.0920   32.3970   45.8620 C   0  0  0  0  0  0  0  0  0  0  0  0
   38.7540   31.9400   47.0730 N   0  0  0  0  0  0  0  0  0  0  0  0
   37.5550   30.3140   50.9400 C   0  0  0  0  0  0  0  0  0  0  0  0
   38.0350   30.8650   49.7340 C   0  0  0  0  0  0  0  0  0  0  0  0
   37.3160   30.6130   48.5680 C   0  0  0  0  0  0  0  0  0  0  0  0
   36.2120   29.8600   48.6730 N   0  0  0  0  0  0  0  0  0  0  0  0
   35.7670   29.3410   49.8280 C   0  0  0  0  0  0  0  0  0  0  0  0
   36.4470   29.5710   50.9690 N   0  0  0  0  0  0  0  0  0  0  0  0
   34.5240   28.5120   49.8510 C   0  0  0  0  0  0  0  0  0  0  0  0
   34.4080   27.5070   48.6560 C   0  0  0  0  0  0  0  0  0  0  0  0
   33.4800   28.6410   48.8370 C   0  0  0  0  0  0  0  0  0  0  0  0
   40.2720   33.2950   45.7610 C   0  0  0  0  0  0  0  0  0  0  0  0
   40.3800   33.9980   46.9600 F   0  0  0  0  0  0  0  0  0  0  0  0
   41.4250   32.5720   45.5070 F   0  0  0  0  0  0  0  0  0  0  0  0
   40.1250   34.2290   44.7740 F   0  0  0  0  0  0  0  0  0  0  0  0
   36.1338   30.1296   46.2109 H   0  0  0  0  0  0  0  0  0  0  0  0
   36.7649   30.9766   43.9829 H   0  0  0  0  0  0  0  0  0  0  0  0
   38.1044   30.5002   51.8746 H   0  0  0  0  0  0  0  0  0  0  0  0
   38.9498   31.4755   49.7147 H   0  0  0  0  0  0  0  0  0  0  0  0
   34.4917   28.5111   50.9505 H   0  0  0  0  0  0  0  0  0  0  0  0
   34.0671   26.4752   48.8267 H   0  0  0  0  0  0  0  0  0  0  0  0
   35.0715   27.1447   47.8569 H   0  0  0  0  0  0  0  0  0  0  0  0
   33.5175   29.4840   48.1313 H   0  0  0  0  0  0  0  0  0  0  0  0
   32.3838   28.7126   48.8928 H   0  0  0  0  0  0  0  0  0  0  0  0
  1  9  1  0
  2  1  2  0
  3  2  1  0
  4  3  2  0
  4  5  1  0
  5  6  2  0
  6  1  1  0
  7 12  2  0
  8  7  1  0
  9 10  1  0
  9  8  2  0
 10 11  2  0
 11 13  1  0
 11 12  1  0
 14 15  1  0
 14 13  1  0
 15 13  1  0
 16  5  1  0
 16 17  1  0
 18 16  1  0
 19 16  1  0
  2 20  1  0
  3 21  1  0
  7 22  1  0
  8 23  1  0
 13 24  1  0
 14 25  1  0
 14 26  1  0
 15 27  1  0
 15 28  1  0
M  ISO  8  20  14  21  14  22  14  23  14  24  13  25  13  26  13  27  13
M  ISO  1  28  13
M  END
>  <minimizedAffinity>  (1) 
-6.3228693

>  <minimizedRMSD>  (1) 
0.767677248

$$$$
