
     RDKit          3D

 27 28  0  0  0  0  0  0  0  0999 V2000
   37.7040   31.1270   47.2750 C   0  0  0  0  0  0  0  0  0  0  0  0
   36.9990   30.7770   46.1490 C   0  0  0  0  0  0  0  0  0  0  0  0
   37.3480   31.2360   44.8870 C   0  0  0  0  0  0  0  0  0  0  0  0
   38.4100   32.0540   44.7510 N   0  0  0  0  0  0  0  0  0  0  0  0
   39.0850   32.3830   45.8620 C   0  0  0  0  0  0  0  0  0  0  0  0
   38.7590   31.9460   47.0850 N   0  0  0  0  0  0  0  0  0  0  0  0
   37.5640   30.3740   50.9730 C   0  0  0  0  0  0  0  0  0  0  0  0
   38.0350   30.9100   49.7570 C   0  0  0  0  0  0  0  0  0  0  0  0
   37.3190   30.6310   48.6030 C   0  0  0  0  0  0  0  0  0  0  0  0
   36.2150   29.8630   48.7110 N   0  0  0  0  0  0  0  0  0  0  0  0
   35.7850   29.3640   49.8800 C   0  0  0  0  0  0  0  0  0  0  0  0
   36.4620   29.6200   51.0170 N   0  0  0  0  0  0  0  0  0  0  0  0
   34.5620   28.5190   49.9730 C   0  0  0  0  0  0  0  0  0  0  0  0
   34.2880   27.8540   48.6350 C   0  0  0  0  0  0  0  0  0  0  0  0
   40.2640   33.2840   45.7460 C   0  0  0  0  0  0  0  0  0  0  0  0
   40.3830   33.9920   46.9400 F   0  0  0  0  0  0  0  0  0  0  0  0
   41.4220   32.5620   45.5020 F   0  0  0  0  0  0  0  0  0  0  0  0
   40.1160   34.2040   44.7550 F   0  0  0  0  0  0  0  0  0  0  0  0
   36.1294   30.1111   46.2513 H   0  0  0  0  0  0  0  0  0  0  0  0
   36.7630   30.9348   44.0055 H   0  0  0  0  0  0  0  0  0  0  0  0
   38.1142   30.5805   51.9029 H   0  0  0  0  0  0  0  0  0  0  0  0
   38.9427   31.5305   49.7248 H   0  0  0  0  0  0  0  0  0  0  0  0
   34.7111   27.7454   50.7407 H   0  0  0  0  0  0  0  0  0  0  0  0
   33.7046   29.1526   50.2440 H   0  0  0  0  0  0  0  0  0  0  0  0
   33.8739   26.8489   48.8031 H   0  0  0  0  0  0  0  0  0  0  0  0
   33.5654   28.4579   48.0665 H   0  0  0  0  0  0  0  0  0  0  0  0
   35.2263   27.7736   48.0665 H   0  0  0  0  0  0  0  0  0  0  0  0
  1  9  1  0
  2  1  2  0
  3  2  1  0
  4  3  2  0
  4  5  1  0
  5  6  2  0
  6  1  1  0
  7 12  2  0
  8  7  1  0
  9 10  1  0
  9  8  2  0
 10 11  2  0
 11 13  1  0
 11 12  1  0
 14 13  1  0
 15  5  1  0
 15 16  1  0
 17 15  1  0
 18 15  1  0
  2 19  1  0
  3 20  1  0
  7 21  1  0
  8 22  1  0
 13 23  1  0
 13 24  1  0
 14 25  1  0
 14 26  1  0
 14 27  1  0
M  ISO  8  19  14  20  14  21  14  22  14  23   8  24   8  25   8  26   8
M  ISO  1  27   8
M  END
>  <minimizedAffinity>  (1) 
-6.13327646

>  <minimizedRMSD>  (1) 
0.357925683

$$$$
