
     RDKit          3D

 23 24  0  0  0  0  0  0  0  0999 V2000
   37.7400   31.0980   47.3360 C   0  0  0  0  0  0  0  0  0  0  0  0
   37.0150   30.7680   46.2020 C   0  0  0  0  0  0  0  0  0  0  0  0
   37.3310   31.2440   44.9430 C   0  0  0  0  0  0  0  0  0  0  0  0
   38.3910   32.0690   44.8050 N   0  0  0  0  0  0  0  0  0  0  0  0
   39.0830   32.3800   45.9090 C   0  0  0  0  0  0  0  0  0  0  0  0
   38.7800   31.9200   47.1290 N   0  0  0  0  0  0  0  0  0  0  0  0
   37.6060   30.3450   51.0190 C   0  0  0  0  0  0  0  0  0  0  0  0
   38.0560   30.9110   49.8090 C   0  0  0  0  0  0  0  0  0  0  0  0
   37.3800   30.5800   48.6470 C   0  0  0  0  0  0  0  0  0  0  0  0
   36.3420   29.7410   48.7460 N   0  0  0  0  0  0  0  0  0  0  0  0
   35.9150   29.2000   49.9060 C   0  0  0  0  0  0  0  0  0  0  0  0
   36.5640   29.5130   51.0560 N   0  0  0  0  0  0  0  0  0  0  0  0
   34.8120   28.3290   49.8970 N   0  0  0  0  0  0  0  0  0  0  0  0
   40.2600   33.2880   45.7960 C   0  0  0  0  0  0  0  0  0  0  0  0
   40.3810   33.9960   46.9730 F   0  0  0  0  0  0  0  0  0  0  0  0
   41.4190   32.5480   45.5190 F   0  0  0  0  0  0  0  0  0  0  0  0
   40.1110   34.1960   44.7880 F   0  0  0  0  0  0  0  0  0  0  0  0
   36.1495   30.0974   46.3083 H   0  0  0  0  0  0  0  0  0  0  0  0
   36.7291   30.9555   44.0686 H   0  0  0  0  0  0  0  0  0  0  0  0
   38.1266   30.5954   51.9551 H   0  0  0  0  0  0  0  0  0  0  0  0
   38.9176   31.5945   49.7886 H   0  0  0  0  0  0  0  0  0  0  0  0
   34.4786   27.9111   50.7774 H   0  0  0  0  0  0  0  0  0  0  0  0
   34.3370   28.1086   49.0100 H   0  0  0  0  0  0  0  0  0  0  0  0
  1  9  1  0
  2  1  2  0
  3  2  1  0
  4  3  2  0
  4  5  1  0
  5  6  2  0
  6  1  1  0
  7 12  2  0
  8  7  1  0
  9 10  1  0
  9  8  2  0
 10 11  2  0
 11 12  1  0
 13 11  1  0
 14  5  1  0
 14 15  1  0
 16 14  1  0
 17 14  1  0
  2 18  1  0
  3 19  1  0
  7 20  1  0
  8 21  1  0
 13 22  1  0
 13 23  1  0
M  ISO  4  18  14  19  14  20  14  21  14
M  END
>  <minimizedAffinity>  (1) 
-6.00230551

>  <minimizedRMSD>  (1) 
0.171918407

$$$$
