
     RDKit          3D

 38 41  0  0  0  0  0  0  0  0999 V2000
   37.2540   29.8250   50.8880 C   0  0  0  0  0  0  0  0  0  0  0  0
   37.8220   30.3580   49.7210 C   0  0  0  0  0  0  0  0  0  0  0  0
   37.0080   30.4470   48.5970 C   0  0  0  0  0  0  0  0  0  0  0  0
   35.7510   30.0160   48.7270 N   0  0  0  0  0  0  0  0  0  0  0  0
   35.2060   29.5070   49.8390 C   0  0  0  0  0  0  0  0  0  0  0  0
   35.9770   29.4150   50.9320 N   0  0  0  0  0  0  0  0  0  0  0  0
   37.4560   30.9760   47.3270 C   0  0  0  0  0  0  0  0  0  0  0  0
   36.7930   30.6640   46.1480 C   0  0  0  0  0  0  0  0  0  0  0  0
   37.1900   31.1510   44.9150 C   0  0  0  0  0  0  0  0  0  0  0  0
   38.2730   31.9670   44.8470 N   0  0  0  0  0  0  0  0  0  0  0  0
   38.8950   32.2530   46.0010 C   0  0  0  0  0  0  0  0  0  0  0  0
   38.5280   31.7920   47.2070 N   0  0  0  0  0  0  0  0  0  0  0  0
   40.0870   33.1470   45.9550 C   0  0  0  0  0  0  0  0  0  0  0  0
   40.1640   33.8130   47.1900 F   0  0  0  0  0  0  0  0  0  0  0  0
   41.2330   32.4340   45.7050 F   0  0  0  0  0  0  0  0  0  0  0  0
   39.9480   34.1330   45.0050 F   0  0  0  0  0  0  0  0  0  0  0  0
   33.8890   29.1070   49.8070 O   0  0  0  0  0  0  0  0  0  0  0  0
   33.2990   28.1730   49.0200 C   0  0  0  0  0  0  0  0  0  0  0  0
   34.2390   27.5600   48.1810 C   0  0  0  0  0  0  0  0  0  0  0  0
   33.8700   26.5580   47.2740 C   0  0  0  0  0  0  0  0  0  0  0  0
   32.5390   26.2090   47.2510 C   0  0  0  0  0  0  0  0  0  0  0  0
   31.5880   26.7760   48.0460 C   0  0  0  0  0  0  0  0  0  0  0  0
   30.2440   26.4630   48.0510 C   0  0  0  0  0  0  0  0  0  0  0  0
   29.3430   27.1120   48.9030 C   0  0  0  0  0  0  0  0  0  0  0  0
   29.7940   28.0950   49.7700 C   0  0  0  0  0  0  0  0  0  0  0  0
   31.1420   28.4060   49.7620 C   0  0  0  0  0  0  0  0  0  0  0  0
   31.9910   27.7470   48.9150 C   0  0  0  0  0  0  0  0  0  0  0  0
   37.8734   29.7408   51.7931 H   0  0  0  0  0  0  0  0  0  0  0  0
   38.8697   30.6922   49.6961 H   0  0  0  0  0  0  0  0  0  0  0  0
   35.9157   30.0022   46.1958 H   0  0  0  0  0  0  0  0  0  0  0  0
   36.6364   30.8810   44.0036 H   0  0  0  0  0  0  0  0  0  0  0  0
   35.2921   27.8730   48.2358 H   0  0  0  0  0  0  0  0  0  0  0  0
   34.6061   26.0752   46.6144 H   0  0  0  0  0  0  0  0  0  0  0  0
   32.2232   25.4243   46.5478 H   0  0  0  0  0  0  0  0  0  0  0  0
   29.8718   25.6845   47.3688 H   0  0  0  0  0  0  0  0  0  0  0  0
   28.2768   26.8420   48.8846 H   0  0  0  0  0  0  0  0  0  0  0  0
   29.0987   28.6139   50.4463 H   0  0  0  0  0  0  0  0  0  0  0  0
   31.5313   29.1829   50.4364 H   0  0  0  0  0  0  0  0  0  0  0  0
  1  6  2  0
  2  1  1  0
  3  4  1  0
  3  2  2  0
  4  5  2  0
  5  6  1  0
  7  3  1  0
  8  7  2  0
  9  8  1  0
 10  9  2  0
 10 11  1  0
 11 12  2  0
 12  7  1  0
 13 11  1  0
 13 14  1  0
 15 13  1  0
 16 13  1  0
 17  5  1  0
 18 17  1  0
 19 18  2  0
 20 19  1  0
 21 20  2  0
 21 22  1  0
 22 23  1  0
 22 27  2  0
 23 24  2  0
 24 25  1  0
 26 25  2  0
 27 18  1  0
 27 26  1  0
  1 28  1  0
  2 29  1  0
  8 30  1  0
  9 31  1  0
 19 32  1  0
 20 33  1  0
 21 34  1  0
 23 35  1  0
 24 36  1  0
 25 37  1  0
 26 38  1  0
M  ISO  8  28  14  29  14  30  14  31  14  32  14  33  14  34  14  35  14
M  ISO  3  36  14  37  14  38  14
M  END
>  <minimizedAffinity>  (1) 
-7.1269269

>  <minimizedRMSD>  (1) 
0.98080194

$$$$
