
     RDKit          3D

 35 37  0  0  0  0  0  0  0  0999 V2000
   37.1200   29.6540   50.0170 C   0  0  0  0  0  0  0  0  0  0  0  0
   37.7120   30.3760   48.9550 C   0  0  0  0  0  0  0  0  0  0  0  0
   37.0370   30.4050   47.7350 C   0  0  0  0  0  0  0  0  0  0  0  0
   35.8750   29.7450   47.6640 N   0  0  0  0  0  0  0  0  0  0  0  0
   35.3280   29.0640   48.6880 C   0  0  0  0  0  0  0  0  0  0  0  0
   35.9620   29.0250   49.8670 N   0  0  0  0  0  0  0  0  0  0  0  0
   37.5510   31.1190   46.5840 C   0  0  0  0  0  0  0  0  0  0  0  0
   36.8940   31.0280   45.3580 C   0  0  0  0  0  0  0  0  0  0  0  0
   37.3390   31.6920   44.2300 C   0  0  0  0  0  0  0  0  0  0  0  0
   38.4540   32.4600   44.3120 N   0  0  0  0  0  0  0  0  0  0  0  0
   39.0650   32.5290   45.5030 C   0  0  0  0  0  0  0  0  0  0  0  0
   38.6500   31.8930   46.6110 N   0  0  0  0  0  0  0  0  0  0  0  0
   40.2900   33.3650   45.6230 C   0  0  0  0  0  0  0  0  0  0  0  0
   40.2930   33.9400   46.9040 F   0  0  0  0  0  0  0  0  0  0  0  0
   41.4230   32.6180   45.4220 F   0  0  0  0  0  0  0  0  0  0  0  0
   40.2780   34.4280   44.7500 F   0  0  0  0  0  0  0  0  0  0  0  0
   34.1230   28.4500   48.4100 O   0  0  0  0  0  0  0  0  0  0  0  0
   32.0570   28.2220   47.3760 C   0  0  0  0  0  0  0  0  0  0  0  0
   33.2040   28.9720   47.5140 C   0  0  0  0  0  0  0  0  0  0  0  0
   33.4040   30.1270   46.8240 C   0  0  0  0  0  0  0  0  0  0  0  0
   32.4460   30.5880   45.9490 C   0  0  0  0  0  0  0  0  0  0  0  0
   31.2750   29.8830   45.7660 C   0  0  0  0  0  0  0  0  0  0  0  0
   31.1020   28.7170   46.4800 C   0  0  0  0  0  0  0  0  0  0  0  0
   31.6080   26.7420   48.1660 S   0  0  0  0  0  0  0  0  0  0  0  0
   30.4600   26.9250   49.1410 O   0  0  0  0  0  0  0  0  0  0  0  0
   31.0330   25.8020   47.1100 O   0  0  0  0  0  0  0  0  0  0  0  0
   37.6317   29.6131   50.9899 H   0  0  0  0  0  0  0  0  0  0  0  0
   38.6719   30.8968   49.0866 H   0  0  0  0  0  0  0  0  0  0  0  0
   35.9897   30.4060   45.2855 H   0  0  0  0  0  0  0  0  0  0  0  0
   36.7957   31.5987   43.2781 H   0  0  0  0  0  0  0  0  0  0  0  0
   34.3351   30.6953   46.9656 H   0  0  0  0  0  0  0  0  0  0  0  0
   32.6154   31.5223   45.3937 H   0  0  0  0  0  0  0  0  0  0  0  0
   30.5016   30.2409   45.0704 H   0  0  0  0  0  0  0  0  0  0  0  0
   30.1705   28.1490   46.3394 H   0  0  0  0  0  0  0  0  0  0  0  0
   32.7271   26.2854   48.8110 H   0  0  0  0  0  0  0  0  0  0  0  0
  2  1  2  0
  3  2  1  0
  4  3  2  0
  4  5  1  0
  5  6  2  0
  6  1  1  0
  7 12  1  0
  7  3  1  0
  8  7  2  0
  9 10  2  0
  9  8  1  0
 10 11  1  0
 11 13  1  0
 11 12  2  0
 13 14  1  0
 15 13  1  0
 16 13  1  0
 17  5  1  0
 18 19  2  0
 18 24  1  0
 19 17  1  0
 20 19  1  0
 21 20  2  0
 22 21  1  0
 22 23  2  0
 23 18  1  0
 24 25  2  0
 26 24  2  0
  1 27  1  0
  2 28  1  0
  8 29  1  0
  9 30  1  0
 20 31  1  0
 21 32  1  0
 22 33  1  0
 23 34  1  0
 24 35  1  0
M  ISO  8  27  14  28  14  29  14  30  14  31  14  32  14  33  14  34  14
M  ISO  1  35  11
M  END
>  <minimizedAffinity>  (1) 
-6.10685778

>  <minimizedRMSD>  (1) 
1.77822959

$$$$
