
     RDKit          3D

 46 50  0  0  0  0  0  0  0  0999 V2000
   33.7550   26.5720   46.8230 N   0  0  0  0  0  0  0  0  0  0  0  0
   34.3240   26.7500   48.0230 C   0  0  0  0  0  0  0  0  0  0  0  0
   34.2340   27.9890   48.6440 C   0  0  0  0  0  0  0  0  0  0  0  0
   33.5560   29.0120   48.0020 C   0  0  0  0  0  0  0  0  0  0  0  0
   33.3560   30.1990   48.3820 O   0  0  0  0  0  0  0  0  0  0  0  0
   33.0000   28.7830   46.7900 N   0  0  0  0  0  0  0  0  0  0  0  0
   33.0980   27.5620   46.1990 C   0  0  0  0  0  0  0  0  0  0  0  0
   32.5920   27.3030   45.0650 O   0  0  0  0  0  0  0  0  0  0  0  0
   32.2830   29.7430   46.0350 C   0  0  0  0  0  0  0  0  0  0  0  0
   32.6000   31.0550   46.0250 N   0  0  0  0  0  0  0  0  0  0  0  0
   31.9170   31.9690   45.3040 C   0  0  0  0  0  0  0  0  0  0  0  0
   30.8560   31.5840   44.5410 N   0  0  0  0  0  0  0  0  0  0  0  0
   30.5090   30.2820   44.5240 C   0  0  0  0  0  0  0  0  0  0  0  0
   29.4310   29.8910   43.7490 C   0  0  0  0  0  0  0  0  0  0  0  0
   29.0390   28.5700   43.7000 C   0  0  0  0  0  0  0  0  0  0  0  0
   29.7230   27.6190   44.4290 C   0  0  0  0  0  0  0  0  0  0  0  0
   30.7960   28.0300   45.1960 C   0  0  0  0  0  0  0  0  0  0  0  0
   31.2070   29.3470   45.2610 C   0  0  0  0  0  0  0  0  0  0  0  0
   34.7440   28.3800   49.8680 O   0  0  0  0  0  0  0  0  0  0  0  0
   37.6610   30.1860   50.9940 C   0  0  0  0  0  0  0  0  0  0  0  0
   38.1230   30.7500   49.7960 C   0  0  0  0  0  0  0  0  0  0  0  0
   37.3990   30.4780   48.6460 C   0  0  0  0  0  0  0  0  0  0  0  0
   36.3140   29.6970   48.7640 N   0  0  0  0  0  0  0  0  0  0  0  0
   35.8860   29.1640   49.9230 C   0  0  0  0  0  0  0  0  0  0  0  0
   36.5740   29.4160   51.0550 N   0  0  0  0  0  0  0  0  0  0  0  0
   37.7540   31.0050   47.3470 C   0  0  0  0  0  0  0  0  0  0  0  0
   36.9980   30.6950   46.2220 C   0  0  0  0  0  0  0  0  0  0  0  0
   37.2830   31.1730   44.9710 C   0  0  0  0  0  0  0  0  0  0  0  0
   38.3530   31.9880   44.8100 N   0  0  0  0  0  0  0  0  0  0  0  0
   39.0720   32.2760   45.9060 C   0  0  0  0  0  0  0  0  0  0  0  0
   38.8120   31.8190   47.1500 N   0  0  0  0  0  0  0  0  0  0  0  0
   40.2540   33.1680   45.7620 C   0  0  0  0  0  0  0  0  0  0  0  0
   40.3480   33.9360   46.9440 F   0  0  0  0  0  0  0  0  0  0  0  0
   41.3950   32.4580   45.5340 F   0  0  0  0  0  0  0  0  0  0  0  0
   40.0700   34.0970   44.7520 F   0  0  0  0  0  0  0  0  0  0  0  0
   33.8237   25.6508   46.3673 H   0  0  0  0  0  0  0  0  0  0  0  0
   34.8578   25.9219   48.5121 H   0  0  0  0  0  0  0  0  0  0  0  0
   32.2176   33.0268   45.3325 H   0  0  0  0  0  0  0  0  0  0  0  0
   28.8803   30.6432   43.1651 H   0  0  0  0  0  0  0  0  0  0  0  0
   28.1804   28.2741   43.0793 H   0  0  0  0  0  0  0  0  0  0  0  0
   29.4219   26.5614   44.4002 H   0  0  0  0  0  0  0  0  0  0  0  0
   31.3460   27.2769   45.7793 H   0  0  0  0  0  0  0  0  0  0  0  0
   38.2179   30.3870   51.9211 H   0  0  0  0  0  0  0  0  0  0  0  0
   39.0228   31.3822   49.7702 H   0  0  0  0  0  0  0  0  0  0  0  0
   36.1279   30.0330   46.3430 H   0  0  0  0  0  0  0  0  0  0  0  0
   36.6537   30.8998   44.1112 H   0  0  0  0  0  0  0  0  0  0  0  0
  1  2  1  0
  2  3  2  0
  3 19  1  0
  4  5  2  0
  4  3  1  0
  6  4  1  0
  7  6  1  0
  7  1  1  0
  8  7  2  0
  9  6  1  0
 10  9  2  0
 11 10  1  0
 12 11  2  0
 13 12  1  0
 13 18  2  0
 14 13  1  0
 15 14  2  0
 15 16  1  0
 16 17  2  0
 17 18  1  0
 18  9  1  0
 19 24  1  0
 20 25  2  0
 21 20  1  0
 22 23  1  0
 22 21  2  0
 23 24  2  0
 24 25  1  0
 26 22  1  0
 27 26  2  0
 28 27  1  0
 29 28  2  0
 29 30  1  0
 30 31  2  0
 31 26  1  0
 32 30  1  0
 32 33  1  0
 34 32  1  0
 35 32  1  0
  1 36  1  0
  2 37  1  0
 11 38  1  0
 14 39  1  0
 15 40  1  0
 16 41  1  0
 17 42  1  0
 20 43  1  0
 21 44  1  0
 27 45  1  0
 28 46  1  0
M  ISO  8  36   9  37  14  38  14  39  14  40  14  41  14  42  14  43  14
M  ISO  3  44  14  45  14  46  14
M  END
>  <minimizedAffinity>  (1) 
-6.74489307

>  <minimizedRMSD>  (1) 
1.31739199

$$$$
