
     RDKit          3D

 42 45  0  0  0  0  0  0  0  0999 V2000
   37.5720   30.2820   50.9160 C   0  0  0  0  0  0  0  0  0  0  0  0
   38.1040   30.8130   49.7250 C   0  0  0  0  0  0  0  0  0  0  0  0
   37.3630   30.6550   48.5710 C   0  0  0  0  0  0  0  0  0  0  0  0
   36.1920   30.0070   48.6680 N   0  0  0  0  0  0  0  0  0  0  0  0
   35.6910   29.5050   49.8090 C   0  0  0  0  0  0  0  0  0  0  0  0
   36.3940   29.6470   50.9370 N   0  0  0  0  0  0  0  0  0  0  0  0
   37.7940   31.1540   47.2890 C   0  0  0  0  0  0  0  0  0  0  0  0
   37.1210   30.7920   46.1250 C   0  0  0  0  0  0  0  0  0  0  0  0
   37.4860   31.2410   44.8730 C   0  0  0  0  0  0  0  0  0  0  0  0
   38.5480   32.0730   44.7650 N   0  0  0  0  0  0  0  0  0  0  0  0
   39.1820   32.4100   45.8950 C   0  0  0  0  0  0  0  0  0  0  0  0
   38.8450   31.9860   47.1250 N   0  0  0  0  0  0  0  0  0  0  0  0
   40.3530   33.3230   45.8040 C   0  0  0  0  0  0  0  0  0  0  0  0
   40.4250   34.0370   47.0210 F   0  0  0  0  0  0  0  0  0  0  0  0
   41.5080   32.6360   45.5560 F   0  0  0  0  0  0  0  0  0  0  0  0
   40.1670   34.2980   44.8410 F   0  0  0  0  0  0  0  0  0  0  0  0
   34.4650   28.8650   49.7240 O   0  0  0  0  0  0  0  0  0  0  0  0
   33.6150   26.5750   46.9900 N   0  0  0  0  0  0  0  0  0  0  0  0
   34.0490   26.9450   48.2030 C   0  0  0  0  0  0  0  0  0  0  0  0
   34.0630   28.2730   48.5480 C   0  0  0  0  0  0  0  0  0  0  0  0
   33.6180   29.2120   47.6090 C   0  0  0  0  0  0  0  0  0  0  0  0
   33.5430   30.4760   47.7070 O   0  0  0  0  0  0  0  0  0  0  0  0
   33.1920   28.7720   46.3990 N   0  0  0  0  0  0  0  0  0  0  0  0
   33.1900   27.4660   46.0920 C   0  0  0  0  0  0  0  0  0  0  0  0
   32.7950   27.0320   44.9680 O   0  0  0  0  0  0  0  0  0  0  0  0
   30.1130   29.3340   46.2990 Br  0  0  0  0  0  0  0  0  0  0  0  0
   31.4250   30.0350   45.1030 C   0  0  0  0  0  0  0  0  0  0  0  0
   32.7180   29.6300   45.3670 C   0  0  0  0  0  0  0  0  0  0  0  0
   33.7770   30.0700   44.5700 C   0  0  0  0  0  0  0  0  0  0  0  0
   33.5360   30.9260   43.4910 C   0  0  0  0  0  0  0  0  0  0  0  0
   32.2290   31.3140   43.2530 C   0  0  0  0  0  0  0  0  0  0  0  0
   31.1800   30.8810   44.0410 C   0  0  0  0  0  0  0  0  0  0  0  0
   38.1388   30.3919   51.8523 H   0  0  0  0  0  0  0  0  0  0  0  0
   39.0729   31.3337   49.7147 H   0  0  0  0  0  0  0  0  0  0  0  0
   36.2573   30.1159   46.2079 H   0  0  0  0  0  0  0  0  0  0  0  0
   36.9249   30.9290   43.9798 H   0  0  0  0  0  0  0  0  0  0  0  0
   33.6094   25.5748   46.7441 H   0  0  0  0  0  0  0  0  0  0  0  0
   34.3933   26.1856   48.9205 H   0  0  0  0  0  0  0  0  0  0  0  0
   34.8034   29.7423   44.7917 H   0  0  0  0  0  0  0  0  0  0  0  0
   34.3586   31.2796   42.8520 H   0  0  0  0  0  0  0  0  0  0  0  0
   32.0187   31.9884   42.4098 H   0  0  0  0  0  0  0  0  0  0  0  0
   30.1532   31.2096   43.8225 H   0  0  0  0  0  0  0  0  0  0  0  0
  1  6  2  0
  2  1  1  0
  3  4  1  0
  3  2  2  0
  4  5  2  0
  5  6  1  0
  7  3  1  0
  8  7  2  0
  9  8  1  0
 10  9  2  0
 10 11  1  0
 11 12  2  0
 12  7  1  0
 13 11  1  0
 13 14  1  0
 15 13  1  0
 16 13  1  0
 17  5  1  0
 18 19  1  0
 19 20  2  0
 20 17  1  0
 21 22  2  0
 21 20  1  0
 23 21  1  0
 24 23  1  0
 24 18  1  0
 25 24  2  0
 27 28  2  0
 27 26  1  0
 28 23  1  0
 29 28  1  0
 30 29  2  0
 31 30  1  0
 31 32  2  0
 32 27  1  0
  1 33  1  0
  2 34  1  0
  8 35  1  0
  9 36  1  0
 18 37  1  0
 19 38  1  0
 29 39  1  0
 30 40  1  0
 31 41  1  0
 32 42  1  0
M  ISO  8  33  14  34  14  35  14  36  14  37   9  38  14  39  14  40  14
M  ISO  2  41  14  42  14
M  END
>  <minimizedAffinity>  (1) 
-6.6659193

>  <minimizedRMSD>  (1) 
1.62160492

$$$$
