
     RDKit          3D

 39 41  0  0  0  0  0  0  0  0999 V2000
   37.6840   30.3470   51.0490 C   0  0  0  0  0  0  0  0  0  0  0  0
   38.1660   30.8780   49.8390 C   0  0  0  0  0  0  0  0  0  0  0  0
   37.4290   30.6280   48.6900 C   0  0  0  0  0  0  0  0  0  0  0  0
   36.3180   29.9010   48.8210 N   0  0  0  0  0  0  0  0  0  0  0  0
   35.8570   29.3930   49.9790 C   0  0  0  0  0  0  0  0  0  0  0  0
   36.5530   29.6230   51.0970 N   0  0  0  0  0  0  0  0  0  0  0  0
   37.8160   31.1270   47.3950 C   0  0  0  0  0  0  0  0  0  0  0  0
   37.0950   30.7700   46.2540 C   0  0  0  0  0  0  0  0  0  0  0  0
   37.4160   31.2180   45.0020 C   0  0  0  0  0  0  0  0  0  0  0  0
   38.4790   32.0470   44.8510 N   0  0  0  0  0  0  0  0  0  0  0  0
   39.1570   32.3770   45.9510 C   0  0  0  0  0  0  0  0  0  0  0  0
   38.8640   31.9520   47.1900 N   0  0  0  0  0  0  0  0  0  0  0  0
   40.3240   33.2850   45.8080 C   0  0  0  0  0  0  0  0  0  0  0  0
   40.4230   34.0260   47.0080 F   0  0  0  0  0  0  0  0  0  0  0  0
   41.4710   32.5930   45.5510 F   0  0  0  0  0  0  0  0  0  0  0  0
   40.1200   34.2410   44.8330 F   0  0  0  0  0  0  0  0  0  0  0  0
   34.6820   28.6620   49.9240 O   0  0  0  0  0  0  0  0  0  0  0  0
   33.6550   26.6670   47.0210 N   0  0  0  0  0  0  0  0  0  0  0  0
   34.1520   26.9220   48.2300 C   0  0  0  0  0  0  0  0  0  0  0  0
   34.2050   28.2140   48.7100 C   0  0  0  0  0  0  0  0  0  0  0  0
   33.7220   29.2440   47.8910 C   0  0  0  0  0  0  0  0  0  0  0  0
   33.6870   30.4660   48.1490 O   0  0  0  0  0  0  0  0  0  0  0  0
   33.2310   28.9320   46.6780 N   0  0  0  0  0  0  0  0  0  0  0  0
   33.1970   27.6480   46.2470 C   0  0  0  0  0  0  0  0  0  0  0  0
   32.7330   27.3410   45.0980 O   0  0  0  0  0  0  0  0  0  0  0  0
   32.7210   29.8900   45.7800 C   0  0  0  0  0  0  0  0  0  0  0  0
   31.5060   30.4140   45.6780 C   0  0  0  0  0  0  0  0  0  0  0  0
   31.0980   31.4260   44.6740 C   0  0  0  0  0  0  0  0  0  0  0  0
   38.2457   30.5285   51.9772 H   0  0  0  0  0  0  0  0  0  0  0  0
   39.0928   31.4695   49.8047 H   0  0  0  0  0  0  0  0  0  0  0  0
   36.2307   30.0989   46.3668 H   0  0  0  0  0  0  0  0  0  0  0  0
   36.8204   30.9103   44.1299 H   0  0  0  0  0  0  0  0  0  0  0  0
   33.6246   25.6956   46.6798 H   0  0  0  0  0  0  0  0  0  0  0  0
   34.5238   26.0943   48.8518 H   0  0  0  0  0  0  0  0  0  0  0  0
   33.4476   30.2645   45.0440 H   0  0  0  0  0  0  0  0  0  0  0  0
   30.7434   30.0714   46.3929 H   0  0  0  0  0  0  0  0  0  0  0  0
   30.7345   32.3275   45.1889 H   0  0  0  0  0  0  0  0  0  0  0  0
   31.9614   31.6864   44.0441 H   0  0  0  0  0  0  0  0  0  0  0  0
   30.2954   31.0148   44.0441 H   0  0  0  0  0  0  0  0  0  0  0  0
  1  6  2  0
  2  1  1  0
  3  4  1  0
  3  2  2  0
  4  5  2  0
  5  6  1  0
  7  3  1  0
  8  7  2  0
  9  8  1  0
 10  9  2  0
 10 11  1  0
 11 12  2  0
 12  7  1  0
 13 11  1  0
 13 14  1  0
 15 13  1  0
 16 13  1  0
 17  5  1  0
 18 19  1  0
 19 20  2  0
 20 17  1  0
 21 22  2  0
 21 20  1  0
 23 21  1  0
 24 23  1  0
 24 18  1  0
 25 24  2  0
 26 23  1  0
 27 26  2  0
 28 27  1  0
  1 29  1  0
  2 30  1  0
  8 31  1  0
  9 32  1  0
 18 33  1  0
 19 34  1  0
 26 35  1  0
 27 36  1  0
 28 37  1  0
 28 38  1  0
 28 39  1  0
M  ISO  8  29  14  30  14  31  14  32  14  33   9  34  14  37   8  38   8
M  ISO  1  39   8
M  END
>  <minimizedAffinity>  (1) 
-6.37829447

>  <minimizedRMSD>  (1) 
0.790807366

$$$$
