
     RDKit          3D

 38 40  0  0  0  0  0  0  0  0999 V2000
   37.7090   30.2910   51.0360 C   0  0  0  0  0  0  0  0  0  0  0  0
   38.1620   30.8530   49.8320 C   0  0  0  0  0  0  0  0  0  0  0  0
   37.4650   30.5630   48.6770 C   0  0  0  0  0  0  0  0  0  0  0  0
   36.4000   29.7600   48.7910 N   0  0  0  0  0  0  0  0  0  0  0  0
   35.9660   29.2200   49.9450 C   0  0  0  0  0  0  0  0  0  0  0  0
   36.6300   29.4920   51.0690 N   0  0  0  0  0  0  0  0  0  0  0  0
   37.8300   31.0870   47.3860 C   0  0  0  0  0  0  0  0  0  0  0  0
   37.0860   30.7530   46.2540 C   0  0  0  0  0  0  0  0  0  0  0  0
   37.3880   31.2260   45.0000 C   0  0  0  0  0  0  0  0  0  0  0  0
   38.4500   32.0540   44.8440 N   0  0  0  0  0  0  0  0  0  0  0  0
   39.1490   32.3600   45.9440 C   0  0  0  0  0  0  0  0  0  0  0  0
   38.8760   31.9120   47.1750 N   0  0  0  0  0  0  0  0  0  0  0  0
   40.3200   33.2660   45.8040 C   0  0  0  0  0  0  0  0  0  0  0  0
   40.4150   34.0150   46.9980 F   0  0  0  0  0  0  0  0  0  0  0  0
   41.4640   32.5740   45.5530 F   0  0  0  0  0  0  0  0  0  0  0  0
   40.1160   34.2220   44.8210 F   0  0  0  0  0  0  0  0  0  0  0  0
   34.8480   28.4120   49.8870 O   0  0  0  0  0  0  0  0  0  0  0  0
   33.5200   26.8440   46.8290 N   0  0  0  0  0  0  0  0  0  0  0  0
   34.1190   26.9170   48.0160 C   0  0  0  0  0  0  0  0  0  0  0  0
   34.2630   28.1260   48.6640 C   0  0  0  0  0  0  0  0  0  0  0  0
   33.7630   29.2680   48.0360 C   0  0  0  0  0  0  0  0  0  0  0  0
   33.7800   30.4630   48.4350 O   0  0  0  0  0  0  0  0  0  0  0  0
   33.1640   29.1510   46.8330 N   0  0  0  0  0  0  0  0  0  0  0  0
   33.0380   27.9450   46.2240 C   0  0  0  0  0  0  0  0  0  0  0  0
   32.4820   27.7940   45.0930 O   0  0  0  0  0  0  0  0  0  0  0  0
   32.6080   30.2650   46.0860 C   0  0  0  0  0  0  0  0  0  0  0  0
   31.9890   29.8850   44.7820 C   0  0  0  0  0  0  0  0  0  0  0  0
   38.2478   30.5091   51.9698 H   0  0  0  0  0  0  0  0  0  0  0  0
   39.0471   31.5058   49.8100 H   0  0  0  0  0  0  0  0  0  0  0  0
   36.2214   30.0829   46.3704 H   0  0  0  0  0  0  0  0  0  0  0  0
   36.7757   30.9364   44.1333 H   0  0  0  0  0  0  0  0  0  0  0  0
   33.4240   25.9290   46.3660 H   0  0  0  0  0  0  0  0  0  0  0  0
   34.5043   26.0003   48.4863 H   0  0  0  0  0  0  0  0  0  0  0  0
   31.8365   30.7444   46.7064 H   0  0  0  0  0  0  0  0  0  0  0  0
   33.4475   30.9360   45.8514 H   0  0  0  0  0  0  0  0  0  0  0  0
   31.0648   29.3176   44.9663 H   0  0  0  0  0  0  0  0  0  0  0  0
   31.7531   30.7941   44.2093 H   0  0  0  0  0  0  0  0  0  0  0  0
   32.6929   29.2632   44.2093 H   0  0  0  0  0  0  0  0  0  0  0  0
  1  6  2  0
  2  1  1  0
  3  4  1  0
  3  2  2  0
  4  5  2  0
  5  6  1  0
  7  3  1  0
  8  7  2  0
  9  8  1  0
 10  9  2  0
 10 11  1  0
 11 12  2  0
 12  7  1  0
 13 11  1  0
 13 14  1  0
 15 13  1  0
 16 13  1  0
 17  5  1  0
 18 19  1  0
 19 20  2  0
 20 17  1  0
 21 22  2  0
 21 20  1  0
 23 21  1  0
 24 18  1  0
 24 23  1  0
 25 24  2  0
 26 23  1  0
 27 26  1  0
  1 28  1  0
  2 29  1  0
  8 30  1  0
  9 31  1  0
 18 32  1  0
 19 33  1  0
 26 34  1  0
 26 35  1  0
 27 36  1  0
 27 37  1  0
 27 38  1  0
M  ISO  8  28  14  29  14  30  14  31  14  32   9  33  14  34   8  35   8
M  ISO  3  36   8  37   8  38   8
M  END
>  <minimizedAffinity>  (1) 
-6.31372404

>  <minimizedRMSD>  (1) 
0.60970521

$$$$
