
     RDKit          3D

 17 17  0  0  0  0  0  0  0  0999 V2000
   37.3640   30.2340   51.3720 C   0  0  0  0  0  0  0  0  0  0  0  0
   38.0410   30.7520   50.2570 C   0  0  0  0  0  0  0  0  0  0  0  0
   37.5730   30.4000   48.9930 C   0  0  0  0  0  0  0  0  0  0  0  0
   36.4970   29.5810   48.8880 N   0  0  0  0  0  0  0  0  0  0  0  0
   35.8640   29.0970   49.9810 C   0  0  0  0  0  0  0  0  0  0  0  0
   36.2960   29.4220   51.2220 N   0  0  0  0  0  0  0  0  0  0  0  0
   38.2250   30.9000   47.8150 C   0  0  0  0  0  0  0  0  0  0  0  0
   38.8210   32.0600   47.7770 C   0  0  0  0  0  0  0  0  0  0  0  0
   39.5060   32.5940   46.5550 C   0  0  0  0  0  0  0  0  0  0  0  0
   37.7090   30.4937   52.3837 H   0  0  0  0  0  0  0  0  0  0  0  0
   38.9116   31.4135   50.3771 H   0  0  0  0  0  0  0  0  0  0  0  0
   34.9933   28.4356   49.8607 H   0  0  0  0  0  0  0  0  0  0  0  0
   38.2217   30.2791   46.9070 H   0  0  0  0  0  0  0  0  0  0  0  0
   38.8209   32.6773   48.6875 H   0  0  0  0  0  0  0  0  0  0  0  0
   40.3402   33.2443   46.8570 H   0  0  0  0  0  0  0  0  0  0  0  0
   39.8924   31.7564   45.9557 H   0  0  0  0  0  0  0  0  0  0  0  0
   38.7880   33.1731   45.9557 H   0  0  0  0  0  0  0  0  0  0  0  0
  2  1  2  0
  3  2  1  0
  4  3  2  0
  4  5  1  0
  5  6  2  0
  6  1  1  0
  7  3  1  0
  8  7  2  0
  9  8  1  0
  1 10  1  0
  2 11  1  0
  5 12  1  0
  7 13  1  0
  8 14  1  0
  9 15  1  0
  9 16  1  0
  9 17  1  0
M  ISO  6  10  14  11  14  12  14  15   8  16   8  17   8
M  END
>  <minimizedAffinity>  (1) 
-4.02611017

>  <minimizedRMSD>  (1) 
0.669299901

$$$$
