
     RDKit          3D

 25 26  0  0  0  0  0  0  0  0999 V2000
   38.2490   30.9900   47.8720 C   0  0  0  0  0  0  0  0  0  0  0  0
   38.7710   32.2030   47.9010 C   0  0  0  0  0  0  0  0  0  0  0  0
   37.3460   30.2230   51.4080 C   0  0  0  0  0  0  0  0  0  0  0  0
   37.9950   30.7530   50.2910 C   0  0  0  0  0  0  0  0  0  0  0  0
   37.5670   30.4340   49.0080 C   0  0  0  0  0  0  0  0  0  0  0  0
   36.5010   29.5930   48.8850 N   0  0  0  0  0  0  0  0  0  0  0  0
   35.9010   29.1030   49.9720 C   0  0  0  0  0  0  0  0  0  0  0  0
   36.3090   29.4060   51.2150 N   0  0  0  0  0  0  0  0  0  0  0  0
   39.4600   32.6750   46.6480 C   0  0  0  0  0  0  0  0  0  0  0  0
   38.4130   32.2180   45.2270 S   0  0  0  0  0  0  0  0  0  0  0  0
   39.1420   31.0840   44.1680 C   0  0  0  0  0  0  0  0  0  0  0  0
   40.3990   31.1460   43.4820 C   0  0  0  0  0  0  0  0  0  0  0  0
   40.7460   30.0850   42.6830 C   0  0  0  0  0  0  0  0  0  0  0  0
   39.8600   29.0050   42.5820 C   0  0  0  0  0  0  0  0  0  0  0  0
   38.4520   29.4590   43.6470 S   0  0  0  0  0  0  0  0  0  0  0  0
   38.3387   30.3899   46.9545 H   0  0  0  0  0  0  0  0  0  0  0  0
   38.7056   32.8376   48.7971 H   0  0  0  0  0  0  0  0  0  0  0  0
   37.6824   30.4736   52.4249 H   0  0  0  0  0  0  0  0  0  0  0  0
   38.8522   31.4287   50.4278 H   0  0  0  0  0  0  0  0  0  0  0  0
   35.0423   28.4273   49.8452 H   0  0  0  0  0  0  0  0  0  0  0  0
   39.5893   33.7669   46.6812 H   0  0  0  0  0  0  0  0  0  0  0  0
   40.4527   32.2097   46.5580 H   0  0  0  0  0  0  0  0  0  0  0  0
   41.0639   32.0154   43.5922 H   0  0  0  0  0  0  0  0  0  0  0  0
   41.6992   30.0831   42.1340 H   0  0  0  0  0  0  0  0  0  0  0  0
   39.9859   28.0860   41.9907 H   0  0  0  0  0  0  0  0  0  0  0  0
  1  2  2  0
  1  5  1  0
  4  3  2  0
  5  4  1  0
  6  5  2  0
  6  7  1  0
  7  8  2  0
  8  3  1  0
  9  2  1  0
 10  9  1  0
 11 10  1  0
 12 11  2  0
 13 12  1  0
 14 13  2  0
 14 15  1  0
 15 11  1  0
  1 16  1  0
  2 17  1  0
  3 18  1  0
  4 19  1  0
  7 20  1  0
  9 21  1  0
  9 22  1  0
 12 23  1  0
 13 24  1  0
 14 25  1  0
M  ISO  8  18  14  19  14  20  14  21   8  22   8  23  14  24  14  25  14
M  END
>  <minimizedAffinity>  (1) 
-4.77476788

>  <minimizedRMSD>  (1) 
1.93210423

$$$$
