
     RDKit          3D

 38 40  0  0  1  0  0  0  0  0999 V2000
   39.7420   30.1440   43.7160 C   0  0  0  0  0  0  0  0  0  0  0  0
   39.9400   29.7560   42.3130 C   0  0  0  0  0  0  0  0  0  0  0  0
   39.8680   28.5770   41.7530 C   0  0  0  0  0  0  0  0  0  0  0  0
   40.0820   28.4140   40.3340 N   0  0  0  0  0  0  0  0  0  0  0  0
   40.6650   27.6140   39.3130 C   0  0  0  0  0  0  0  0  0  0  0  0
   41.2660   26.4900   39.2380 O   0  0  0  0  0  0  0  0  0  0  0  0
   40.2990   28.6230   38.2900 C   0  0  0  0  0  0  0  0  0  0  0  0
   39.5540   29.3860   39.3630 C   0  0  2  0  0  0  0  0  0  0  0  0
   40.3030   30.9590   39.8430 S   0  0  0  0  0  0  0  0  0  0  0  0
   40.2590   31.0450   41.6370 C   0  0  0  0  0  0  0  0  0  0  0  0
   39.5400   27.3220   42.4740 C   0  0  0  0  0  0  0  0  0  0  0  0
   39.1410   26.6390   43.4470 O   0  0  0  0  0  0  0  0  0  0  0  0
   39.6750   26.0570   41.9890 O   0  0  0  0  0  0  0  0  0  0  0  0
   40.4820   31.6460   44.3050 S   0  0  0  0  0  0  0  0  0  0  0  0
   39.1140   32.8350   44.6840 C   0  0  0  0  0  0  0  0  0  0  0  0
   38.7560   32.2510   47.0360 C   0  0  0  0  0  0  0  0  0  0  0  0
   38.3140   32.2630   45.8070 C   0  0  0  0  0  0  0  0  0  0  0  0
   36.9260   29.8480   49.2120 C   0  0  0  0  0  0  0  0  0  0  0  0
   37.6770   30.3590   48.1350 C   0  0  0  0  0  0  0  0  0  0  0  0
   37.9980   31.7150   48.1250 C   0  0  0  0  0  0  0  0  0  0  0  0
   37.5880   32.5150   49.1450 N   0  0  0  0  0  0  0  0  0  0  0  0
   36.8690   31.9820   50.1600 C   0  0  0  0  0  0  0  0  0  0  0  0
   36.5360   30.6640   50.2020 N   0  0  0  0  0  0  0  0  0  0  0  0
   40.1366   29.3254   44.3358 H   0  0  0  0  0  0  0  0  0  0  0  0
   38.6613   30.3364   43.7869 H   0  0  0  0  0  0  0  0  0  0  0  0
   41.1542   29.1637   37.8585 H   0  0  0  0  0  0  0  0  0  0  0  0
   39.8039   28.3294   37.3526 H   0  0  0  0  0  0  0  0  0  0  0  0
   38.4971   29.6318   39.1826 H   0  0  0  0  0  0  0  0  0  0  0  0
   41.2455   31.3816   41.9885 H   0  0  0  0  0  0  0  0  0  0  0  0
   39.4476   31.7413   41.8955 H   0  0  0  0  0  0  0  0  0  0  0  0
   39.4270   25.2817   42.5525 H   0  0  0  0  0  0  0  0  0  0  0  0
   39.5341   33.8074   44.9805 H   0  0  0  0  0  0  0  0  0  0  0  0
   38.4801   32.9882   43.7982 H   0  0  0  0  0  0  0  0  0  0  0  0
   39.7518   32.6701   47.2424 H   0  0  0  0  0  0  0  0  0  0  0  0
   37.3220   31.8387   45.5930 H   0  0  0  0  0  0  0  0  0  0  0  0
   36.6599   28.7810   49.2407 H   0  0  0  0  0  0  0  0  0  0  0  0
   38.0039   29.6998   47.3173 H   0  0  0  0  0  0  0  0  0  0  0  0
   36.5423   32.6381   50.9803 H   0  0  0  0  0  0  0  0  0  0  0  0
  1 14  1  0
  2  1  1  0
  3  2  2  0
  3 11  1  0
  4  3  1  0
  5  4  1  0
  6  5  2  0
  7  5  1  0
  8  7  1  0
  8  9  1  0
  8  4  1  0
  9 10  1  0
 10  2  1  0
 11 12  2  0
 13 11  1  0
 14 15  1  0
 15 17  1  0
 16 20  1  0
 17 16  2  0
 18 23  2  0
 19 18  1  0
 20 19  2  0
 20 21  1  0
 21 22  2  0
 22 23  1  0
  1 24  1  0
  1 25  1  0
  7 26  1  0
  7 27  1  0
  8 28  1  6
 10 29  1  0
 10 30  1  0
 13 31  1  0
 15 32  1  0
 15 33  1  0
 16 34  1  0
 17 35  1  0
 18 36  1  0
 19 37  1  0
 22 38  1  0
M  ISO  8  24   8  25   8  26  13  27  13  28  13  29  13  30  13  31   3
M  ISO  5  32   8  33   8  36  14  37  14  38  14
M  END
>  <minimizedAffinity>  (1) 
-4.76836205

>  <minimizedRMSD>  (1) 
5.65753698

$$$$
