
     RDKit          3D

 31 32  0  0  1  0  0  0  0  0999 V2000
   37.6720   30.8800   48.6550 C   0  0  2  0  0  0  0  0  0  0  0  0
   39.2540   30.9510   45.9320 Cl  0  0  0  0  0  0  0  0  0  0  0  0
   39.3270   32.2140   47.1150 C   0  0  0  0  0  0  0  0  0  0  0  0
   38.5460   31.9250   48.2090 C   0  0  0  0  0  0  0  0  0  0  0  0
   38.5490   32.9070   49.2130 C   0  0  0  0  0  0  0  0  0  0  0  0
   39.2760   34.0990   49.1450 C   0  0  0  0  0  0  0  0  0  0  0  0
   40.0470   34.3140   47.9940 C   0  0  0  0  0  0  0  0  0  0  0  0
   40.0630   33.3750   46.9970 C   0  0  0  0  0  0  0  0  0  0  0  0
   35.4610   30.1690   48.0660 C   0  0  0  0  0  0  0  0  0  0  0  0
   36.6920   30.3920   47.6680 C   0  0  0  0  0  0  0  0  0  0  0  0
   33.5370   29.4850   44.9680 C   0  0  0  0  0  0  0  0  0  0  0  0
   34.5040   29.9510   45.8490 C   0  0  0  0  0  0  0  0  0  0  0  0
   34.4310   29.6720   47.2020 C   0  0  0  0  0  0  0  0  0  0  0  0
   33.3850   28.9260   47.6600 N   0  0  0  0  0  0  0  0  0  0  0  0
   32.4650   28.4890   46.7790 C   0  0  0  0  0  0  0  0  0  0  0  0
   32.5210   28.7510   45.4640 N   0  0  0  0  0  0  0  0  0  0  0  0
   36.7630   31.1810   50.2130 S   0  0  0  0  0  0  0  0  0  0  0  0
   36.8610   29.7560   51.2880 C   0  0  0  0  0  0  0  0  0  0  0  0
   37.6210   30.0040   52.4300 F   0  0  0  0  0  0  0  0  0  0  0  0
   35.6300   29.2170   51.5830 F   0  0  0  0  0  0  0  0  0  0  0  0
   37.5600   28.7520   50.5630 F   0  0  0  0  0  0  0  0  0  0  0  0
   38.4325   30.1053   48.8324 H   0  0  0  0  0  0  0  0  0  0  0  0
   37.9399   32.7265   50.1110 H   0  0  0  0  0  0  0  0  0  0  0  0
   39.2445   34.8370   49.9601 H   0  0  0  0  0  0  0  0  0  0  0  0
   40.6384   35.2358   47.8917 H   0  0  0  0  0  0  0  0  0  0  0  0
   40.6678   33.5480   46.0946 H   0  0  0  0  0  0  0  0  0  0  0  0
   35.2070   30.3741   49.1164 H   0  0  0  0  0  0  0  0  0  0  0  0
   36.9853   30.2187   46.6221 H   0  0  0  0  0  0  0  0  0  0  0  0
   33.5985   29.7091   43.8928 H   0  0  0  0  0  0  0  0  0  0  0  0
   35.3416   30.5517   45.4648 H   0  0  0  0  0  0  0  0  0  0  0  0
   31.6253   27.8869   47.1563 H   0  0  0  0  0  0  0  0  0  0  0  0
  1 17  1  0
  2  3  1  0
  3  4  2  0
  4  1  1  0
  4  5  1  0
  6  5  2  0
  7  6  1  0
  8  3  1  0
  8  7  2  0
 10  9  2  0
 10  1  1  0
 11 16  2  0
 11 12  1  0
 12 13  2  0
 13 14  1  0
 13  9  1  0
 15 14  2  0
 16 15  1  0
 17 18  1  0
 18 20  1  0
 18 19  1  0
 21 18  1  0
  1 22  1  1
  5 23  1  0
  6 24  1  0
  7 25  1  0
  8 26  1  0
  9 27  1  0
 10 28  1  0
 11 29  1  0
 12 30  1  0
 15 31  1  0
M  ISO  8  22   8  23  14  24  14  25  14  26  14  29  14  30  14  31  14
M  END
>  <minimizedAffinity>  (1) 
-6.28200865

>  <minimizedRMSD>  (1) 
4.84724665

$$$$
