
     RDKit          3D

 25 26  0  0  1  0  0  0  0  0999 V2000
   37.8110   31.7380   47.8330 C   0  0  0  0  0  0  0  0  0  0  0  0
   37.4500   30.2930   51.2890 C   0  0  0  0  0  0  0  0  0  0  0  0
   37.8690   31.1280   50.2090 C   0  0  0  0  0  0  0  0  0  0  0  0
   37.3710   30.8670   48.9410 C   0  0  0  0  0  0  0  0  0  0  0  0
   36.5100   29.8360   48.7780 N   0  0  0  0  0  0  0  0  0  0  0  0
   36.1220   29.0500   49.8220 C   0  0  0  0  0  0  0  0  0  0  0  0
   36.5920   29.2860   51.0530 N   0  0  0  0  0  0  0  0  0  0  0  0
   40.4170   31.2980   45.2560 C   0  0  2  0  0  0  0  0  0  0  0  0
   39.7610   32.1310   46.3520 C   0  0  0  0  0  0  0  0  0  0  0  0
   38.8240   31.0700   46.9380 C   0  0  2  0  0  0  0  0  0  0  0  0
   38.2880   30.4940   45.8180 O   0  0  0  0  0  0  0  0  0  0  0  0
   39.3290   30.2980   44.9460 C   0  0  0  0  0  0  0  0  0  0  0  0
   41.5400   30.7030   45.8130 O   0  0  0  0  0  0  0  0  0  0  0  0
   36.9329   32.0108   47.2292 H   0  0  0  0  0  0  0  0  0  0  0  0
   38.2900   32.6239   48.2755 H   0  0  0  0  0  0  0  0  0  0  0  0
   37.8268   30.4728   52.3067 H   0  0  0  0  0  0  0  0  0  0  0  0
   38.5701   31.9585   50.3786 H   0  0  0  0  0  0  0  0  0  0  0  0
   35.4208   28.2196   49.6524 H   0  0  0  0  0  0  0  0  0  0  0  0
   40.7529   31.8340   44.3561 H   0  0  0  0  0  0  0  0  0  0  0  0
   40.4928   32.4877   47.0917 H   0  0  0  0  0  0  0  0  0  0  0  0
   39.2718   33.0557   46.0120 H   0  0  0  0  0  0  0  0  0  0  0  0
   39.3014   30.3147   47.5796 H   0  0  0  0  0  0  0  0  0  0  0  0
   38.9784   30.4412   43.9133 H   0  0  0  0  0  0  0  0  0  0  0  0
   39.7193   29.2752   45.0532 H   0  0  0  0  0  0  0  0  0  0  0  0
   41.4760   30.7369   46.8003 H   0  0  0  0  0  0  0  0  0  0  0  0
  1  4  1  0
  3  2  2  0
  4  3  1  0
  5  4  2  0
  5  6  1  0
  6  7  2  0
  7  2  1  0
  8 13  1  0
  8  9  1  0
  9 10  1  0
 10  1  1  0
 11 10  1  0
 12  8  1  0
 12 11  1  0
  1 14  1  0
  1 15  1  0
  2 16  1  0
  3 17  1  0
  6 18  1  0
  8 19  1  6
  9 20  1  0
  9 21  1  0
 10 22  1  1
 12 23  1  0
 12 24  1  0
 13 25  1  0
M  ISO  8  14   8  15   8  16  14  17  14  18  14  19  13  20  13  21  13
M  ISO  4  22  13  23  13  24  13  25   3
M  END
>  <minimizedAffinity>  (1) 
-4.91295099

>  <minimizedRMSD>  (1) 
1.27635729

$$$$
