
     RDKit          3D

 36 37  0  0  1  0  0  0  0  0999 V2000
   35.3720   30.3120   47.7180 C   0  0  1  0  0  0  0  0  0  0  0  0
   35.4240   29.9220   49.0980 N   0  0  0  0  0  0  0  0  0  0  0  0
   36.6920   29.2100   49.3570 C   0  0  0  0  0  0  0  0  0  0  0  0
   37.0570   29.1960   50.8000 C   0  0  0  0  0  0  0  0  0  0  0  0
   37.5190   30.5850   51.1990 C   0  0  0  0  0  0  0  0  0  0  0  0
   36.9570   31.5380   50.1440 C   0  0  0  0  0  0  0  0  0  0  0  0
   35.4990   31.1460   49.9410 C   0  0  0  0  0  0  0  0  0  0  0  0
   36.9780   30.8830   46.0250 C   0  0  0  0  0  0  0  0  0  0  0  0
   36.7820   30.2720   47.1550 C   0  0  0  0  0  0  0  0  0  0  0  0
   40.6490   31.2550   45.5950 C   0  0  0  0  0  0  0  0  0  0  0  0
   39.3930   31.1920   46.1700 C   0  0  0  0  0  0  0  0  0  0  0  0
   38.2770   30.9380   45.3960 C   0  0  0  0  0  0  0  0  0  0  0  0
   38.4750   30.7590   44.0790 N   0  0  0  0  0  0  0  0  0  0  0  0
   39.6990   30.8230   43.5370 C   0  0  0  0  0  0  0  0  0  0  0  0
   40.7840   31.0680   44.2770 N   0  0  0  0  0  0  0  0  0  0  0  0
   34.3000   29.3180   46.6820 S   0  0  0  0  0  0  0  0  0  0  0  0
   33.4740   27.9940   47.6010 C   0  0  0  0  0  0  0  0  0  0  0  0
   32.7800   28.4650   48.6870 F   0  0  0  0  0  0  0  0  0  0  0  0
   32.6460   27.2690   46.7280 F   0  0  0  0  0  0  0  0  0  0  0  0
   34.4460   27.1040   48.0060 F   0  0  0  0  0  0  0  0  0  0  0  0
   34.9379   31.3226   47.7028 H   0  0  0  0  0  0  0  0  0  0  0  0
   36.5900   28.1713   49.0094 H   0  0  0  0  0  0  0  0  0  0  0  0
   37.4890   29.7424   48.8172 H   0  0  0  0  0  0  0  0  0  0  0  0
   36.1807   28.9107   51.4006 H   0  0  0  0  0  0  0  0  0  0  0  0
   37.8631   28.4684   50.9754 H   0  0  0  0  0  0  0  0  0  0  0  0
   37.1302   30.8454   52.1945 H   0  0  0  0  0  0  0  0  0  0  0  0
   38.6162   30.6443   51.2504 H   0  0  0  0  0  0  0  0  0  0  0  0
   37.0256   32.5779   50.4960 H   0  0  0  0  0  0  0  0  0  0  0  0
   37.5226   31.4686   49.2031 H   0  0  0  0  0  0  0  0  0  0  0  0
   34.9651   31.9678   49.4415 H   0  0  0  0  0  0  0  0  0  0  0  0
   35.0351   30.9457   50.9181 H   0  0  0  0  0  0  0  0  0  0  0  0
   36.1267   31.3744   45.5313 H   0  0  0  0  0  0  0  0  0  0  0  0
   37.5975   29.7512   47.6782 H   0  0  0  0  0  0  0  0  0  0  0  0
   41.5326   31.4578   46.2179 H   0  0  0  0  0  0  0  0  0  0  0  0
   39.2813   31.3455   47.2535 H   0  0  0  0  0  0  0  0  0  0  0  0
   39.8134   30.6697   42.4538 H   0  0  0  0  0  0  0  0  0  0  0  0
  1  2  1  0
  2  3  1  0
  2  7  1  0
  3  4  1  0
  4  5  1  0
  6  5  1  0
  7  6  1  0
  8  9  2  0
  9  1  1  0
 10 11  2  0
 12  8  1  0
 12 11  1  0
 13 12  2  0
 14 13  1  0
 14 15  2  0
 15 10  1  0
 16 17  1  0
 16  1  1  0
 17 20  1  0
 17 18  1  0
 19 17  1  0
  1 21  1  1
  3 22  1  0
  3 23  1  0
  4 24  1  0
  4 25  1  0
  5 26  1  0
  5 27  1  0
  6 28  1  0
  6 29  1  0
  7 30  1  0
  7 31  1  0
  8 32  1  0
  9 33  1  0
 10 34  1  0
 11 35  1  0
 14 36  1  0
M  ISO  8  21   8  22  13  23  13  24  13  25  13  26  13  27  13  28  13
M  ISO  6  29  13  30  13  31  13  34  14  35  14  36  14
M  END
>  <minimizedAffinity>  (1) 
-5.08136034

>  <minimizedRMSD>  (1) 
3.80671525

$$$$
