
     RDKit          3D

 28 29  0  0  1  0  0  0  0  0999 V2000
   36.3390   30.9430   48.7510 C   0  0  1  0  0  0  0  0  0  0  0  0
   36.9480   30.3570   50.0060 C   0  0  0  0  0  0  0  0  0  0  0  0
   37.4800   29.0590   49.9780 C   0  0  0  0  0  0  0  0  0  0  0  0
   37.9350   28.8210   51.2700 C   0  0  0  0  0  0  0  0  0  0  0  0
   37.6740   29.9320   52.0060 N   0  0  0  0  0  0  0  0  0  0  0  0
   37.0810   30.8570   51.2480 N   0  0  0  0  0  0  0  0  0  0  0  0
   37.4810   30.6960   46.6400 C   0  0  0  0  0  0  0  0  0  0  0  0
   37.5530   31.1250   47.8600 C   0  0  0  0  0  0  0  0  0  0  0  0
   40.8400   31.4430   45.2770 C   0  0  0  0  0  0  0  0  0  0  0  0
   39.7560   31.3670   46.1320 C   0  0  0  0  0  0  0  0  0  0  0  0
   38.5790   30.7740   45.7090 C   0  0  0  0  0  0  0  0  0  0  0  0
   38.5190   30.2800   44.4570 N   0  0  0  0  0  0  0  0  0  0  0  0
   39.5970   30.3720   43.6480 C   0  0  0  0  0  0  0  0  0  0  0  0
   40.7380   30.9380   44.0340 N   0  0  0  0  0  0  0  0  0  0  0  0
   35.2540   29.7770   47.9000 S   0  0  0  0  0  0  0  0  0  0  0  0
   34.1010   29.0020   49.0480 C   0  0  0  0  0  0  0  0  0  0  0  0
   33.8710   29.7900   50.1520 F   0  0  0  0  0  0  0  0  0  0  0  0
   32.9240   28.6460   48.4180 F   0  0  0  0  0  0  0  0  0  0  0  0
   34.6830   27.7970   49.4700 F   0  0  0  0  0  0  0  0  0  0  0  0
   35.7463   31.8418   48.9766 H   0  0  0  0  0  0  0  0  0  0  0  0
   37.5271   28.3755   49.1174 H   0  0  0  0  0  0  0  0  0  0  0  0
   38.4182   27.9008   51.6303 H   0  0  0  0  0  0  0  0  0  0  0  0
   37.9007   30.0446   53.0044 H   0  0  0  0  0  0  0  0  0  0  0  0
   36.5355   30.2502   46.2974 H   0  0  0  0  0  0  0  0  0  0  0  0
   38.4667   31.6066   48.2384 H   0  0  0  0  0  0  0  0  0  0  0  0
   41.7775   31.9122   45.6101 H   0  0  0  0  0  0  0  0  0  0  0  0
   39.8291   31.7783   47.1496 H   0  0  0  0  0  0  0  0  0  0  0  0
   39.5290   29.9626   42.6293 H   0  0  0  0  0  0  0  0  0  0  0  0
  1  2  1  0
  2  6  2  0
  3  2  1  0
  3  4  2  0
  4  5  1  0
  6  5  1  0
  7  8  2  0
  8  1  1  0
  9 10  2  0
 11 10  1  0
 11  7  1  0
 12 11  2  0
 13 14  2  0
 13 12  1  0
 14  9  1  0
 15  1  1  0
 15 16  1  0
 16 19  1  0
 16 17  1  0
 18 16  1  0
  1 20  1  1
  3 21  1  0
  4 22  1  0
  5 23  1  0
  7 24  1  0
  8 25  1  0
  9 26  1  0
 10 27  1  0
 13 28  1  0
M  ISO  7  20   8  21  14  22  14  23   9  26  14  27  14  28  14
M  END
>  <minimizedAffinity>  (1) 
-5.00505924

>  <minimizedRMSD>  (1) 
2.61441898

$$$$
