
     RDKit          3D

 20 21  0  0  0  0  0  0  0  0999 V2000
   38.0330   30.5630   47.9730 C   0  0  0  0  0  0  0  0  0  0  0  0
   35.9120   29.2230   50.7650 C   0  0  0  0  0  0  0  0  0  0  0  0
   37.0710   29.5170   49.9760 C   0  0  0  0  0  0  0  0  0  0  0  0
   36.8480   30.2410   48.8150 C   0  0  0  0  0  0  0  0  0  0  0  0
   35.6030   30.6340   48.4700 N   0  0  0  0  0  0  0  0  0  0  0  0
   34.5270   30.3310   49.2540 C   0  0  0  0  0  0  0  0  0  0  0  0
   34.6970   29.6350   50.3830 N   0  0  0  0  0  0  0  0  0  0  0  0
   38.5420   31.9400   48.2680 C   0  0  0  0  0  0  0  0  0  0  0  0
   38.4980   32.6430   49.4560 C   0  0  0  0  0  0  0  0  0  0  0  0
   39.1000   33.8550   49.1860 C   0  0  0  0  0  0  0  0  0  0  0  0
   39.4890   33.8850   47.8980 N   0  0  0  0  0  0  0  0  0  0  0  0
   39.1510   32.7240   47.3380 N   0  0  0  0  0  0  0  0  0  0  0  0
   37.7473   30.5045   46.9123 H   0  0  0  0  0  0  0  0  0  0  0  0
   38.8300   29.8389   48.1976 H   0  0  0  0  0  0  0  0  0  0  0  0
   36.0220   28.6506   51.6979 H   0  0  0  0  0  0  0  0  0  0  0  0
   38.0776   29.1880   50.2736 H   0  0  0  0  0  0  0  0  0  0  0  0
   33.5201   30.6595   48.9568 H   0  0  0  0  0  0  0  0  0  0  0  0
   38.0733   32.3080   50.4138 H   0  0  0  0  0  0  0  0  0  0  0  0
   39.2402   34.6702   49.9111 H   0  0  0  0  0  0  0  0  0  0  0  0
   39.9646   34.6681   47.4275 H   0  0  0  0  0  0  0  0  0  0  0  0
  1  8  1  0
  1  4  1  0
  3  2  2  0
  4  3  1  0
  5  4  2  0
  5  6  1  0
  6  7  2  0
  7  2  1  0
  8  9  1  0
 10  9  2  0
 11 10  1  0
 12 11  1  0
 12  8  2  0
  1 13  1  0
  1 14  1  0
  2 15  1  0
  3 16  1  0
  6 17  1  0
  9 18  1  0
 10 19  1  0
 11 20  1  0
M  ISO  8  13   8  14   8  15  14  16  14  17  14  18  14  19  14  20   9
M  END
>  <minimizedAffinity>  (1) 
-4.73574972

>  <minimizedRMSD>  (1) 
1.99901962

$$$$
