
     RDKit          3D

 45 47  0  0  1  0  0  0  0  0999 V2000
   37.6590   30.6450   48.7250 C   0  0  2  0  0  0  0  0  0  0  0  0
   38.4620   31.8130   48.3210 C   0  0  0  0  0  0  0  0  0  0  0  0
   38.5770   32.7940   49.3400 C   0  0  0  0  0  0  0  0  0  0  0  0
   39.2770   33.9670   49.1900 C   0  0  0  0  0  0  0  0  0  0  0  0
   39.9340   34.2570   47.9820 C   0  0  0  0  0  0  0  0  0  0  0  0
   39.7740   33.2480   47.0400 C   0  0  0  0  0  0  0  0  0  0  0  0
   39.0970   32.1020   47.1640 N   0  0  0  0  0  0  0  0  0  0  0  0
   35.5270   29.7300   48.1340 C   0  0  0  0  0  0  0  0  0  0  0  0
   36.5190   30.4710   47.7600 C   0  0  0  0  0  0  0  0  0  0  0  0
   33.2960   29.8000   45.1520 C   0  0  0  0  0  0  0  0  0  0  0  0
   34.3730   29.9710   46.0040 C   0  0  0  0  0  0  0  0  0  0  0  0
   34.3810   29.5100   47.2950 C   0  0  0  0  0  0  0  0  0  0  0  0
   33.2590   28.8620   47.7080 N   0  0  0  0  0  0  0  0  0  0  0  0
   32.2230   28.6980   46.8890 C   0  0  0  0  0  0  0  0  0  0  0  0
   32.2170   29.1510   45.6270 N   0  0  0  0  0  0  0  0  0  0  0  0
   31.0620   28.0170   47.3520 N   0  0  0  0  0  0  0  0  0  0  0  0
   29.7180   28.4750   47.1240 C   0  0  0  0  0  0  0  0  0  0  0  0
   28.9610   28.7000   48.4150 C   0  0  0  0  0  0  0  0  0  0  0  0
   29.8410   28.2440   49.5670 C   0  0  0  0  0  0  0  0  0  0  0  0
   30.2150   26.8030   49.2980 C   0  0  0  0  0  0  0  0  0  0  0  0
   31.1450   26.7810   48.1060 C   0  0  0  0  0  0  0  0  0  0  0  0
   36.9220   31.0780   50.3390 S   0  0  0  0  0  0  0  0  0  0  0  0
   36.9400   29.6800   51.4470 C   0  0  0  0  0  0  0  0  0  0  0  0
   37.6210   29.9240   52.6280 F   0  0  0  0  0  0  0  0  0  0  0  0
   35.6630   29.2050   51.6830 F   0  0  0  0  0  0  0  0  0  0  0  0
   37.6230   28.6470   50.7660 F   0  0  0  0  0  0  0  0  0  0  0  0
   38.2742   29.7336   48.7571 H   0  0  0  0  0  0  0  0  0  0  0  0
   38.0787   32.6052   50.3023 H   0  0  0  0  0  0  0  0  0  0  0  0
   39.3235   34.6848   50.0222 H   0  0  0  0  0  0  0  0  0  0  0  0
   40.5091   35.1774   47.8027 H   0  0  0  0  0  0  0  0  0  0  0  0
   40.2664   33.4131   46.0703 H   0  0  0  0  0  0  0  0  0  0  0  0
   35.5615   29.2535   49.1248 H   0  0  0  0  0  0  0  0  0  0  0  0
   36.5283   30.9559   46.7727 H   0  0  0  0  0  0  0  0  0  0  0  0
   33.3210   30.1819   44.1207 H   0  0  0  0  0  0  0  0  0  0  0  0
   35.2615   30.5000   45.6289 H   0  0  0  0  0  0  0  0  0  0  0  0
   29.7570   29.4228   46.5670 H   0  0  0  0  0  0  0  0  0  0  0  0
   29.1891   27.6961   46.5552 H   0  0  0  0  0  0  0  0  0  0  0  0
   28.7251   29.7686   48.5270 H   0  0  0  0  0  0  0  0  0  0  0  0
   28.0196   28.1310   48.4076 H   0  0  0  0  0  0  0  0  0  0  0  0
   30.7471   28.8656   49.6186 H   0  0  0  0  0  0  0  0  0  0  0  0
   29.3104   28.3382   50.5260 H   0  0  0  0  0  0  0  0  0  0  0  0
   30.7227   26.3780   50.1765 H   0  0  0  0  0  0  0  0  0  0  0  0
   29.3150   26.2044   49.0939 H   0  0  0  0  0  0  0  0  0  0  0  0
   30.8683   25.9419   47.4507 H   0  0  0  0  0  0  0  0  0  0  0  0
   32.1761   26.6649   48.4713 H   0  0  0  0  0  0  0  0  0  0  0  0
  1 22  1  0
  2  1  1  0
  2  3  2  0
  4  3  1  0
  5  4  2  0
  6  7  2  0
  6  5  1  0
  7  2  1  0
  9  8  2  0
  9  1  1  0
 10 15  2  0
 10 11  1  0
 11 12  2  0
 12 13  1  0
 12  8  1  0
 14 16  1  0
 14 13  2  0
 15 14  1  0
 16 21  1  0
 17 16  1  0
 17 18  1  0
 18 19  1  0
 20 19  1  0
 21 20  1  0
 22 23  1  0
 23 25  1  0
 23 24  1  0
 26 23  1  0
  1 27  1  1
  3 28  1  0
  4 29  1  0
  5 30  1  0
  6 31  1  0
  8 32  1  0
  9 33  1  0
 10 34  1  0
 11 35  1  0
 17 36  1  0
 17 37  1  0
 18 38  1  0
 18 39  1  0
 19 40  1  0
 19 41  1  0
 20 42  1  0
 20 43  1  0
 21 44  1  0
 21 45  1  0
M  ISO  8  27   8  28  14  29  14  30  14  31  14  34  14  35  14  36  13
M  ISO  8  37  13  38  13  39  13  40  13  41  13  42  13  43  13  44  13
M  ISO  1  45  13
M  END
>  <minimizedAffinity>  (1) 
-6.96697807

>  <minimizedRMSD>  (1) 
0.661832929

$$$$
