
     RDKit          3D

 19 19  0  0  0  0  0  0  0  0999 V2000
   37.9780   30.5640   47.6320 C   0  0  0  0  0  0  0  0  0  0  0  0
   37.3760   30.1960   51.3350 C   0  0  0  0  0  0  0  0  0  0  0  0
   37.9700   30.5690   50.1070 C   0  0  0  0  0  0  0  0  0  0  0  0
   37.3630   30.1770   48.9210 C   0  0  0  0  0  0  0  0  0  0  0  0
   36.2190   29.4480   48.9950 N   0  0  0  0  0  0  0  0  0  0  0  0
   35.6620   29.1000   50.1890 C   0  0  0  0  0  0  0  0  0  0  0  0
   36.2390   29.4720   51.3450 N   0  0  0  0  0  0  0  0  0  0  0  0
   38.7890   31.6860   47.7960 O   0  0  0  0  0  0  0  0  0  0  0  0
   40.1930   33.3200   46.2780 O   0  0  0  0  0  0  0  0  0  0  0  0
   39.4830   31.9940   46.2710 P   0  0  0  0  0  0  0  0  0  0  0  0
   38.2370   31.9190   45.1320 O   0  0  0  0  0  0  0  0  0  0  0  0
   40.6440   30.7950   45.9910 O   0  0  0  0  0  0  0  0  0  0  0  0
   37.1838   30.7942   46.9065 H   0  0  0  0  0  0  0  0  0  0  0  0
   38.5945   29.7294   47.2669 H   0  0  0  0  0  0  0  0  0  0  0  0
   37.8429   30.4974   52.2843 H   0  0  0  0  0  0  0  0  0  0  0  0
   38.8976   31.1600   50.0915 H   0  0  0  0  0  0  0  0  0  0  0  0
   34.7335   28.5104   50.2072 H   0  0  0  0  0  0  0  0  0  0  0  0
   37.3657   31.8666   45.5991 H   0  0  0  0  0  0  0  0  0  0  0  0
   40.9778   30.4503   46.8569 H   0  0  0  0  0  0  0  0  0  0  0  0
  1  8  1  0
  1  4  1  0
  2  7  2  0
  3  2  1  0
  4  5  1  0
  4  3  2  0
  5  6  2  0
  6  7  1  0
 10  9  2  0
 10  8  1  0
 11 10  1  0
 12 10  1  0
  1 13  1  0
  1 14  1  0
  2 15  1  0
  3 16  1  0
  6 17  1  0
 11 18  1  0
 12 19  1  0
M  ISO  7  13   8  14   8  15  14  16  14  17  14  18   3  19   3
M  END
>  <minimizedAffinity>  (1) 
-4.44199276

>  <minimizedRMSD>  (1) 
0.588585794

$$$$
