
     RDKit          3D

 39 41  0  0  1  0  0  0  0  0999 V2000
   35.6560   29.7980   48.1100 C   0  0  0  0  0  0  0  0  0  0  0  0
   36.6860   30.4740   47.7160 C   0  0  0  0  0  0  0  0  0  0  0  0
   33.5520   29.6370   45.0380 C   0  0  0  0  0  0  0  0  0  0  0  0
   34.6020   29.8610   45.9090 C   0  0  0  0  0  0  0  0  0  0  0  0
   34.5370   29.5330   47.2380 C   0  0  0  0  0  0  0  0  0  0  0  0
   33.3800   28.9720   47.6600 N   0  0  0  0  0  0  0  0  0  0  0  0
   32.3600   28.7470   46.8410 C   0  0  0  0  0  0  0  0  0  0  0  0
   32.4450   29.0820   45.5220 N   0  0  0  0  0  0  0  0  0  0  0  0
   31.1260   28.1390   47.3280 C   0  0  0  0  0  0  0  0  0  0  0  0
   31.0730   27.6570   48.6180 C   0  0  0  0  0  0  0  0  0  0  0  0
   29.9530   27.0680   49.1610 C   0  0  0  0  0  0  0  0  0  0  0  0
   28.8810   27.0070   48.2930 C   0  0  0  0  0  0  0  0  0  0  0  0
   28.8860   27.4750   46.9920 C   0  0  0  0  0  0  0  0  0  0  0  0
   30.0340   28.0460   46.5260 N   0  0  0  0  0  0  0  0  0  0  0  0
   37.7920   30.7040   48.7050 C   0  0  1  0  0  0  0  0  0  0  0  0
   38.5710   31.8870   48.3070 C   0  0  0  0  0  0  0  0  0  0  0  0
   38.6610   32.8660   49.3290 C   0  0  0  0  0  0  0  0  0  0  0  0
   39.3380   34.0550   49.1840 C   0  0  0  0  0  0  0  0  0  0  0  0
   39.9930   34.3650   47.9840 C   0  0  0  0  0  0  0  0  0  0  0  0
   39.8550   33.3540   47.0380 C   0  0  0  0  0  0  0  0  0  0  0  0
   39.2020   32.1900   47.1520 N   0  0  0  0  0  0  0  0  0  0  0  0
   37.0060   31.1280   50.2970 S   0  0  0  0  0  0  0  0  0  0  0  0
   36.9820   29.7220   51.3940 C   0  0  0  0  0  0  0  0  0  0  0  0
   37.6460   29.9500   52.5900 F   0  0  0  0  0  0  0  0  0  0  0  0
   35.6900   29.2700   51.6060 F   0  0  0  0  0  0  0  0  0  0  0  0
   37.6620   28.6840   50.7280 F   0  0  0  0  0  0  0  0  0  0  0  0
   35.6323   29.4137   49.1404 H   0  0  0  0  0  0  0  0  0  0  0  0
   36.7495   30.8672   46.6906 H   0  0  0  0  0  0  0  0  0  0  0  0
   33.6302   29.9100   43.9753 H   0  0  0  0  0  0  0  0  0  0  0  0
   35.5236   30.3194   45.5210 H   0  0  0  0  0  0  0  0  0  0  0  0
   31.9715   27.7474   49.2461 H   0  0  0  0  0  0  0  0  0  0  0  0
   29.9158   26.6820   50.1904 H   0  0  0  0  0  0  0  0  0  0  0  0
   27.9516   26.5511   48.6651 H   0  0  0  0  0  0  0  0  0  0  0  0
   27.9940   27.3898   46.3539 H   0  0  0  0  0  0  0  0  0  0  0  0
   38.4351   29.8134   48.7626 H   0  0  0  0  0  0  0  0  0  0  0  0
   38.1630   32.6640   50.2888 H   0  0  0  0  0  0  0  0  0  0  0  0
   39.3656   34.7704   50.0191 H   0  0  0  0  0  0  0  0  0  0  0  0
   40.5503   35.2974   47.8107 H   0  0  0  0  0  0  0  0  0  0  0  0
   40.3462   33.5341   46.0704 H   0  0  0  0  0  0  0  0  0  0  0  0
  2  1  2  0
  2 15  1  0
  3  8  2  0
  3  4  1  0
  4  5  2  0
  5  6  1  0
  5  1  1  0
  7  9  1  0
  7  6  2  0
  8  7  1  0
  9 10  2  0
 10 11  1  0
 12 11  2  0
 13 12  1  0
 14 13  2  0
 14  9  1  0
 15 22  1  0
 16 15  1  0
 16 17  2  0
 18 17  1  0
 19 18  2  0
 20 21  2  0
 20 19  1  0
 21 16  1  0
 22 23  1  0
 23 25  1  0
 23 24  1  0
 26 23  1  0
  1 27  1  0
  2 28  1  0
  3 29  1  0
  4 30  1  0
 10 31  1  0
 11 32  1  0
 12 33  1  0
 13 34  1  0
 15 35  1  1
 17 36  1  0
 18 37  1  0
 19 38  1  0
 20 39  1  0
M  ISO  8  29  14  30  14  31  14  32  14  33  14  34  14  35   8  36  14
M  ISO  3  37  14  38  14  39  14
M  END
>  <minimizedAffinity>  (1) 
-6.6843605

>  <minimizedRMSD>  (1) 
0.50087893

$$$$
