
     RDKit          3D

 37 39  0  0  1  0  0  0  0  0999 V2000
   35.6610   29.7840   48.1470 C   0  0  0  0  0  0  0  0  0  0  0  0
   36.6700   30.4840   47.7430 C   0  0  0  0  0  0  0  0  0  0  0  0
   33.4900   29.6730   45.1190 C   0  0  0  0  0  0  0  0  0  0  0  0
   34.5500   29.8930   45.9830 C   0  0  0  0  0  0  0  0  0  0  0  0
   34.5200   29.5110   47.2980 C   0  0  0  0  0  0  0  0  0  0  0  0
   33.4000   28.9030   47.7160 N   0  0  0  0  0  0  0  0  0  0  0  0
   32.3740   28.6820   46.9040 C   0  0  0  0  0  0  0  0  0  0  0  0
   32.4040   29.0590   45.6120 N   0  0  0  0  0  0  0  0  0  0  0  0
   31.1410   28.0180   47.3520 C   0  0  0  0  0  0  0  0  0  0  0  0
   29.9570   27.6700   46.7290 C   0  0  0  0  0  0  0  0  0  0  0  0
   29.2190   27.0820   47.6830 N   0  0  0  0  0  0  0  0  0  0  0  0
   29.9110   27.0600   48.8560 C   0  0  0  0  0  0  0  0  0  0  0  0
   31.1070   27.6410   48.6550 N   0  0  0  0  0  0  0  0  0  0  0  0
   37.7930   30.7090   48.7130 C   0  0  1  0  0  0  0  0  0  0  0  0
   38.5730   31.8870   48.3010 C   0  0  0  0  0  0  0  0  0  0  0  0
   38.6680   32.8750   49.3160 C   0  0  0  0  0  0  0  0  0  0  0  0
   39.3460   34.0610   49.1590 C   0  0  0  0  0  0  0  0  0  0  0  0
   39.9980   34.3590   47.9500 C   0  0  0  0  0  0  0  0  0  0  0  0
   39.8560   33.3410   47.0140 C   0  0  0  0  0  0  0  0  0  0  0  0
   39.2020   32.1800   47.1410 N   0  0  0  0  0  0  0  0  0  0  0  0
   37.0410   31.1390   50.3200 S   0  0  0  0  0  0  0  0  0  0  0  0
   36.9930   29.7250   51.4050 C   0  0  0  0  0  0  0  0  0  0  0  0
   37.6520   29.9340   52.6050 F   0  0  0  0  0  0  0  0  0  0  0  0
   35.7090   29.2670   51.6030 F   0  0  0  0  0  0  0  0  0  0  0  0
   37.6580   28.6820   50.7270 F   0  0  0  0  0  0  0  0  0  0  0  0
   35.6694   29.3819   49.1708 H   0  0  0  0  0  0  0  0  0  0  0  0
   36.7042   30.8997   46.7251 H   0  0  0  0  0  0  0  0  0  0  0  0
   33.5370   29.9903   44.0668 H   0  0  0  0  0  0  0  0  0  0  0  0
   35.4506   30.3938   45.5982 H   0  0  0  0  0  0  0  0  0  0  0  0
   29.6797   27.8387   45.6780 H   0  0  0  0  0  0  0  0  0  0  0  0
   28.2705   26.7036   47.5483 H   0  0  0  0  0  0  0  0  0  0  0  0
   29.5523   26.6384   49.8066 H   0  0  0  0  0  0  0  0  0  0  0  0
   38.4299   29.8134   48.7595 H   0  0  0  0  0  0  0  0  0  0  0  0
   38.1730   32.6816   50.2791 H   0  0  0  0  0  0  0  0  0  0  0  0
   39.3784   34.7836   49.9877 H   0  0  0  0  0  0  0  0  0  0  0  0
   40.5556   35.2892   47.7659 H   0  0  0  0  0  0  0  0  0  0  0  0
   40.3444   33.5117   46.0432 H   0  0  0  0  0  0  0  0  0  0  0  0
  2  1  2  0
  2 14  1  0
  3  8  2  0
  3  4  1  0
  4  5  2  0
  5  6  1  0
  5  1  1  0
  7  9  1  0
  7  6  2  0
  8  7  1  0
  9 13  1  0
 10  9  2  0
 10 11  1  0
 11 12  1  0
 13 12  2  0
 14 21  1  0
 15 14  1  0
 15 16  2  0
 17 16  1  0
 18 17  2  0
 19 20  2  0
 19 18  1  0
 20 15  1  0
 21 22  1  0
 22 24  1  0
 22 23  1  0
 25 22  1  0
  1 26  1  0
  2 27  1  0
  3 28  1  0
  4 29  1  0
 10 30  1  0
 11 31  1  0
 12 32  1  0
 14 33  1  1
 16 34  1  0
 17 35  1  0
 18 36  1  0
 19 37  1  0
M  ISO  8  28  14  29  14  30  14  31   9  32  14  33   8  34  14  35  14
M  ISO  2  36  14  37  14
M  END
>  <minimizedAffinity>  (1) 
-6.41361046

>  <minimizedRMSD>  (1) 
0.563464105

$$$$
