
     RDKit          3D

 31 32  0  0  1  0  0  0  0  0999 V2000
   37.7290   30.6820   48.6510 C   0  0  2  0  0  0  0  0  0  0  0  0
   38.5190   31.8790   48.3200 C   0  0  0  0  0  0  0  0  0  0  0  0
   38.5930   32.8090   49.3910 C   0  0  0  0  0  0  0  0  0  0  0  0
   39.2770   34.0040   49.3090 C   0  0  0  0  0  0  0  0  0  0  0  0
   39.9500   34.3620   48.1290 C   0  0  0  0  0  0  0  0  0  0  0  0
   39.8270   33.3970   47.1370 C   0  0  0  0  0  0  0  0  0  0  0  0
   39.1700   32.2330   47.1890 N   0  0  0  0  0  0  0  0  0  0  0  0
   35.5710   29.9240   47.9400 C   0  0  0  0  0  0  0  0  0  0  0  0
   36.6990   30.4510   47.5840 C   0  0  0  0  0  0  0  0  0  0  0  0
   33.7190   29.7300   44.7120 C   0  0  0  0  0  0  0  0  0  0  0  0
   34.6980   29.9400   45.6650 C   0  0  0  0  0  0  0  0  0  0  0  0
   34.5170   29.6760   46.9970 C   0  0  0  0  0  0  0  0  0  0  0  0
   33.2980   29.1880   47.3450 N   0  0  0  0  0  0  0  0  0  0  0  0
   32.3430   28.9790   46.4420 C   0  0  0  0  0  0  0  0  0  0  0  0
   32.5360   29.2430   45.1340 N   0  0  0  0  0  0  0  0  0  0  0  0
   30.7360   28.3340   46.9070 S   0  0  0  0  0  0  0  0  0  0  0  0
   36.8280   31.0830   50.1880 S   0  0  0  0  0  0  0  0  0  0  0  0
   36.8830   29.7190   51.3380 C   0  0  0  0  0  0  0  0  0  0  0  0
   37.5600   30.0210   52.5090 F   0  0  0  0  0  0  0  0  0  0  0  0
   35.6200   29.2140   51.5920 F   0  0  0  0  0  0  0  0  0  0  0  0
   37.5870   28.6820   50.6910 F   0  0  0  0  0  0  0  0  0  0  0  0
   38.3760   29.7975   48.7457 H   0  0  0  0  0  0  0  0  0  0  0  0
   38.0794   32.5641   50.3324 H   0  0  0  0  0  0  0  0  0  0  0  0
   39.2957   34.6823   50.1748 H   0  0  0  0  0  0  0  0  0  0  0  0
   40.5108   35.3001   48.0045 H   0  0  0  0  0  0  0  0  0  0  0  0
   40.3351   33.6187   46.1869 H   0  0  0  0  0  0  0  0  0  0  0  0
   35.4157   29.6585   48.9961 H   0  0  0  0  0  0  0  0  0  0  0  0
   36.8956   30.7201   46.5357 H   0  0  0  0  0  0  0  0  0  0  0  0
   33.8990   29.9520   43.6498 H   0  0  0  0  0  0  0  0  0  0  0  0
   35.6697   30.3385   45.3379 H   0  0  0  0  0  0  0  0  0  0  0  0
   30.6376   28.2945   48.2729 H   0  0  0  0  0  0  0  0  0  0  0  0
  1 17  1  0
  2  1  1  0
  2  3  2  0
  4  3  1  0
  5  4  2  0
  6  7  2  0
  6  5  1  0
  7  2  1  0
  9  8  2  0
  9  1  1  0
 10 15  2  0
 10 11  1  0
 11 12  2  0
 12 13  1  0
 12  8  1  0
 14 16  1  0
 14 13  2  0
 15 14  1  0
 17 18  1  0
 18 20  1  0
 18 19  1  0
 21 18  1  0
  1 22  1  1
  3 23  1  0
  4 24  1  0
  5 25  1  0
  6 26  1  0
  8 27  1  0
  9 28  1  0
 10 29  1  0
 11 30  1  0
 16 31  1  0
M  ISO  8  22   8  23  14  24  14  25  14  26  14  29  14  30  14  31  11
M  END
>  <minimizedAffinity>  (1) 
-6.03979158

>  <minimizedRMSD>  (1) 
0.0868213251

$$$$
