
     RDKit          3D

 33 34  0  0  1  0  0  0  0  0999 V2000
   37.7180   30.6770   48.6450 C   0  0  2  0  0  0  0  0  0  0  0  0
   38.5090   31.8760   48.3180 C   0  0  0  0  0  0  0  0  0  0  0  0
   38.5850   32.8060   49.3900 C   0  0  0  0  0  0  0  0  0  0  0  0
   39.2700   33.9950   49.3140 C   0  0  0  0  0  0  0  0  0  0  0  0
   39.9490   34.3610   48.1440 C   0  0  0  0  0  0  0  0  0  0  0  0
   39.8250   33.3980   47.1480 C   0  0  0  0  0  0  0  0  0  0  0  0
   39.1640   32.2310   47.1920 N   0  0  0  0  0  0  0  0  0  0  0  0
   35.5610   29.9270   47.9320 C   0  0  0  0  0  0  0  0  0  0  0  0
   36.6870   30.4520   47.5770 C   0  0  0  0  0  0  0  0  0  0  0  0
   33.7140   29.7240   44.7010 C   0  0  0  0  0  0  0  0  0  0  0  0
   34.6950   29.9370   45.6520 C   0  0  0  0  0  0  0  0  0  0  0  0
   34.4970   29.6730   46.9830 C   0  0  0  0  0  0  0  0  0  0  0  0
   33.2890   29.1900   47.3250 N   0  0  0  0  0  0  0  0  0  0  0  0
   32.3360   28.9800   46.4160 C   0  0  0  0  0  0  0  0  0  0  0  0
   32.5350   29.2410   45.1150 N   0  0  0  0  0  0  0  0  0  0  0  0
   31.0070   28.4420   46.8400 C   0  0  0  0  0  0  0  0  0  0  0  0
   36.8130   31.0780   50.1790 S   0  0  0  0  0  0  0  0  0  0  0  0
   36.8730   29.7200   51.3330 C   0  0  0  0  0  0  0  0  0  0  0  0
   37.5540   30.0230   52.5000 F   0  0  0  0  0  0  0  0  0  0  0  0
   35.6150   29.2120   51.5940 F   0  0  0  0  0  0  0  0  0  0  0  0
   37.5670   28.6790   50.6820 F   0  0  0  0  0  0  0  0  0  0  0  0
   38.3645   29.7919   48.7382 H   0  0  0  0  0  0  0  0  0  0  0  0
   38.0685   32.5613   50.3298 H   0  0  0  0  0  0  0  0  0  0  0  0
   39.2855   34.6686   50.1835 H   0  0  0  0  0  0  0  0  0  0  0  0
   40.5129   35.2982   48.0272 H   0  0  0  0  0  0  0  0  0  0  0  0
   40.3357   33.6225   46.2000 H   0  0  0  0  0  0  0  0  0  0  0  0
   35.4056   29.6646   48.9889 H   0  0  0  0  0  0  0  0  0  0  0  0
   36.8833   30.7244   46.5295 H   0  0  0  0  0  0  0  0  0  0  0  0
   33.8959   29.9441   43.6387 H   0  0  0  0  0  0  0  0  0  0  0  0
   35.6694   30.3325   45.3292 H   0  0  0  0  0  0  0  0  0  0  0  0
   30.9537   28.4204   47.9385 H   0  0  0  0  0  0  0  0  0  0  0  0
   30.2078   29.0874   46.4467 H   0  0  0  0  0  0  0  0  0  0  0  0
   30.8818   27.4224   46.4467 H   0  0  0  0  0  0  0  0  0  0  0  0
  1 17  1  0
  2  1  1  0
  2  3  2  0
  4  3  1  0
  5  4  2  0
  6  7  2  0
  6  5  1  0
  7  2  1  0
  9  8  2  0
  9  1  1  0
 10 15  2  0
 10 11  1  0
 11 12  2  0
 12 13  1  0
 12  8  1  0
 14 16  1  0
 14 13  2  0
 15 14  1  0
 17 18  1  0
 18 20  1  0
 18 19  1  0
 21 18  1  0
  1 22  1  1
  3 23  1  0
  4 24  1  0
  5 25  1  0
  6 26  1  0
  8 27  1  0
  9 28  1  0
 10 29  1  0
 11 30  1  0
 16 31  1  0
 16 32  1  0
 16 33  1  0
M  ISO  8  22   8  23  14  24  14  25  14  26  14  29  14  30  14  31   8
M  ISO  2  32   8  33   8
M  END
>  <minimizedAffinity>  (1) 
-6.03617573

>  <minimizedRMSD>  (1) 
0.0747964233

$$$$
