
     RDKit          3D

 35 37  0  0  1  0  0  0  0  0999 V2000
   33.7390   29.9400   46.5580 N   0  0  0  0  0  0  0  0  0  0  0  0
   34.9760   29.7340   45.8210 C   0  0  0  0  0  0  0  0  0  0  0  0
   36.0290   30.1580   46.8220 C   0  0  0  0  0  0  0  0  0  0  0  0
   35.2760   30.6110   48.0670 C   0  0  1  0  0  0  0  0  0  0  0  0
   34.0500   29.7550   47.9780 C   0  0  0  0  0  0  0  0  0  0  0  0
   32.4660   30.2570   46.0050 C   0  0  0  0  0  0  0  0  0  0  0  0
   32.3710   31.4010   45.2180 C   0  0  0  0  0  0  0  0  0  0  0  0
   31.1320   31.7240   44.6730 C   0  0  0  0  0  0  0  0  0  0  0  0
   30.0790   30.8840   44.9510 N   0  0  0  0  0  0  0  0  0  0  0  0
   30.2100   29.7870   45.7170 C   0  0  0  0  0  0  0  0  0  0  0  0
   31.4070   29.4650   46.2520 N   0  0  0  0  0  0  0  0  0  0  0  0
   37.1600   31.0990   49.5140 C   0  0  0  0  0  0  0  0  0  0  0  0
   35.9840   30.3620   49.3150 C   0  0  0  0  0  0  0  0  0  0  0  0
   35.6410   29.4890   50.3230 C   0  0  0  0  0  0  0  0  0  0  0  0
   36.3440   29.2820   51.4890 C   0  0  0  0  0  0  0  0  0  0  0  0
   37.5030   30.0020   51.6960 C   0  0  0  0  0  0  0  0  0  0  0  0
   37.8720   30.8850   50.7020 C   0  0  0  0  0  0  0  0  0  0  0  0
   37.7300   32.2560   48.3260 S   0  0  0  0  0  0  0  0  0  0  0  0
   38.1270   33.5660   48.9370 O   0  0  0  0  0  0  0  0  0  0  0  0
   39.0050   31.6870   47.7330 O   0  0  0  0  0  0  0  0  0  0  0  0
   35.0989   28.6781   45.5381 H   0  0  0  0  0  0  0  0  0  0  0  0
   35.0206   30.2930   44.8747 H   0  0  0  0  0  0  0  0  0  0  0  0
   36.6889   29.3114   47.0627 H   0  0  0  0  0  0  0  0  0  0  0  0
   36.6610   30.9641   46.4210 H   0  0  0  0  0  0  0  0  0  0  0  0
   35.1069   31.6977   48.0873 H   0  0  0  0  0  0  0  0  0  0  0  0
   33.2425   30.1234   48.6278 H   0  0  0  0  0  0  0  0  0  0  0  0
   34.1792   28.7113   48.3003 H   0  0  0  0  0  0  0  0  0  0  0  0
   33.2519   32.0330   45.0318 H   0  0  0  0  0  0  0  0  0  0  0  0
   30.9999   32.6167   44.0441 H   0  0  0  0  0  0  0  0  0  0  0  0
   29.3359   29.1474   45.9092 H   0  0  0  0  0  0  0  0  0  0  0  0
   34.7206   28.9028   50.1842 H   0  0  0  0  0  0  0  0  0  0  0  0
   35.9897   28.5590   52.2385 H   0  0  0  0  0  0  0  0  0  0  0  0
   38.1036   29.8780   52.6092 H   0  0  0  0  0  0  0  0  0  0  0  0
   38.7945   31.4646   50.8534 H   0  0  0  0  0  0  0  0  0  0  0  0
   36.7184   32.4647   47.4260 H   0  0  0  0  0  0  0  0  0  0  0  0
  1  5  1  0
  2  1  1  0
  2  3  1  0
  3  4  1  0
  4 13  1  0
  5  4  1  0
  6 11  1  0
  6  1  1  0
  7  6  2  0
  8  9  2  0
  8  7  1  0
  9 10  1  0
 10 11  2  0
 12 17  2  0
 13 12  1  0
 13 14  2  0
 14 15  1  0
 15 16  2  0
 17 16  1  0
 18 19  2  0
 18 12  1  0
 20 18  2  0
  2 21  1  0
  2 22  1  0
  3 23  1  0
  3 24  1  0
  4 25  1  6
  5 26  1  0
  5 27  1  0
  7 28  1  0
  8 29  1  0
 10 30  1  0
 14 31  1  0
 15 32  1  0
 16 33  1  0
 17 34  1  0
 18 35  1  0
M  ISO  8  21  13  22  13  23  13  24  13  25  13  26  13  27  13  28  14
M  ISO  7  29  14  30  14  31  14  32  14  33  14  34  14  35  11
M  END
>  <minimizedAffinity>  (1) 
-5.50763416

>  <minimizedRMSD>  (1) 
4.08989096

$$$$
