
     RDKit          3D

 31 33  0  0  1  0  0  0  0  0999 V2000
   32.9420   28.1640   48.3660 N   0  0  0  0  0  0  0  0  0  0  0  0
   33.6610   28.3240   47.1130 C   0  0  0  0  0  0  0  0  0  0  0  0
   34.7100   29.3530   47.4690 C   0  0  0  0  0  0  0  0  0  0  0  0
   34.4300   29.7780   48.9130 C   0  0  1  0  0  0  0  0  0  0  0  0
   33.8630   28.4820   49.4590 C   0  0  0  0  0  0  0  0  0  0  0  0
   31.5880   27.7730   48.5410 C   0  0  0  0  0  0  0  0  0  0  0  0
   30.9700   27.1570   47.4530 C   0  0  0  0  0  0  0  0  0  0  0  0
   29.6330   26.7430   47.5560 C   0  0  0  0  0  0  0  0  0  0  0  0
   29.0130   26.9870   48.7670 N   0  0  0  0  0  0  0  0  0  0  0  0
   29.6500   27.5880   49.8000 C   0  0  0  0  0  0  0  0  0  0  0  0
   30.9420   27.9800   49.6800 N   0  0  0  0  0  0  0  0  0  0  0  0
   35.7290   30.1390   49.5180 C   0  0  0  0  0  0  0  0  0  0  0  0
   36.1450   29.5520   50.7150 C   0  0  0  0  0  0  0  0  0  0  0  0
   37.3830   29.9320   51.2390 C   0  0  0  0  0  0  0  0  0  0  0  0
   38.1140   30.8680   50.5340 C   0  0  0  0  0  0  0  0  0  0  0  0
   37.6420   31.4180   49.3420 C   0  0  0  0  0  0  0  0  0  0  0  0
   36.4400   31.0460   48.8370 N   0  0  0  0  0  0  0  0  0  0  0  0
   32.9966   28.6920   46.3173 H   0  0  0  0  0  0  0  0  0  0  0  0
   34.0812   27.3845   46.7246 H   0  0  0  0  0  0  0  0  0  0  0  0
   35.7154   28.9136   47.3904 H   0  0  0  0  0  0  0  0  0  0  0  0
   34.6700   30.2144   46.7861 H   0  0  0  0  0  0  0  0  0  0  0  0
   33.7642   30.6374   49.0810 H   0  0  0  0  0  0  0  0  0  0  0  0
   33.3366   28.6306   50.4134 H   0  0  0  0  0  0  0  0  0  0  0  0
   34.6021   27.7037   49.6997 H   0  0  0  0  0  0  0  0  0  0  0  0
   31.5278   26.9964   46.5186 H   0  0  0  0  0  0  0  0  0  0  0  0
   29.1092   26.2531   46.7219 H   0  0  0  0  0  0  0  0  0  0  0  0
   29.1140   27.7596   50.7451 H   0  0  0  0  0  0  0  0  0  0  0  0
   35.5158   28.8115   51.2305 H   0  0  0  0  0  0  0  0  0  0  0  0
   37.7614   29.5018   52.1780 H   0  0  0  0  0  0  0  0  0  0  0  0
   39.0924   31.1877   50.9219 H   0  0  0  0  0  0  0  0  0  0  0  0
   38.2512   32.1610   48.8064 H   0  0  0  0  0  0  0  0  0  0  0  0
  1  6  1  0
  1  5  1  0
  2  3  1  0
  2  1  1  0
  3  4  1  0
  4  5  1  0
  4 12  1  0
  6 11  2  0
  7  8  2  0
  7  6  1  0
  8  9  1  0
  9 10  2  0
 11 10  1  0
 12 13  2  0
 13 14  1  0
 15 14  2  0
 16 15  1  0
 17 16  2  0
 17 12  1  0
  2 18  1  0
  2 19  1  0
  3 20  1  0
  3 21  1  0
  4 22  1  6
  5 23  1  0
  5 24  1  0
  7 25  1  0
  8 26  1  0
 10 27  1  0
 13 28  1  0
 14 29  1  0
 15 30  1  0
 16 31  1  0
M  ISO  8  18  13  19  13  20  13  21  13  22  13  23  13  24  13  25  14
M  ISO  6  26  14  27  14  28  14  29  14  30  14  31  14
M  END
>  <minimizedAffinity>  (1) 
-5.31674623

>  <minimizedRMSD>  (1) 
4.47224092

$$$$
