
     RDKit          3D

 20 20  0  0  0  0  0  0  0  0999 V2000
   37.5780   30.1070   50.7090 C   0  0  0  0  0  0  0  0  0  0  0  0
   38.2780   31.2070   50.1600 C   0  0  0  0  0  0  0  0  0  0  0  0
   38.0060   31.5670   48.8460 C   0  0  0  0  0  0  0  0  0  0  0  0
   37.0800   30.8500   48.1380 N   0  0  0  0  0  0  0  0  0  0  0  0
   36.4300   29.7960   48.7080 C   0  0  0  0  0  0  0  0  0  0  0  0
   36.6750   29.4330   49.9710 N   0  0  0  0  0  0  0  0  0  0  0  0
   38.7280   32.7170   48.2510 C   0  0  0  0  0  0  0  0  0  0  0  0
   39.2330   32.4510   46.8740 C   0  0  0  0  0  0  0  0  0  0  0  0
   40.0840   33.2200   46.2010 C   0  0  0  0  0  0  0  0  0  0  0  0
   40.4790   32.7830   44.8160 C   0  0  0  0  0  0  0  0  0  0  0  0
   37.7727   29.7996   51.7471 H   0  0  0  0  0  0  0  0  0  0  0  0
   39.0170   31.7617   50.7568 H   0  0  0  0  0  0  0  0  0  0  0  0
   35.6907   29.2342   48.1182 H   0  0  0  0  0  0  0  0  0  0  0  0
   38.0423   33.5762   48.2109 H   0  0  0  0  0  0  0  0  0  0  0  0
   39.6045   32.9136   48.8859 H   0  0  0  0  0  0  0  0  0  0  0  0
   38.8711   31.5416   46.3720 H   0  0  0  0  0  0  0  0  0  0  0  0
   40.4857   34.1443   46.6417 H   0  0  0  0  0  0  0  0  0  0  0  0
   41.2152   31.9685   44.8845 H   0  0  0  0  0  0  0  0  0  0  0  0
   39.5890   32.4283   44.2756 H   0  0  0  0  0  0  0  0  0  0  0  0
   40.9216   33.6328   44.2756 H   0  0  0  0  0  0  0  0  0  0  0  0
  2  1  2  0
  3  2  1  0
  4  5  1  0
  4  3  2  0
  5  6  2  0
  6  1  1  0
  7  3  1  0
  8  7  1  0
  9  8  2  0
 10  9  1  0
  1 11  1  0
  2 12  1  0
  5 13  1  0
  7 14  1  0
  7 15  1  0
  8 16  1  0
  9 17  1  0
 10 18  1  0
 10 19  1  0
 10 20  1  0
M  ISO  8  11  14  12  14  13  14  14   8  15   8  18   8  19   8  20   8
M  END
>  <minimizedAffinity>  (1) 
-4.09143734

>  <minimizedRMSD>  (1) 
1.80308974

$$$$
