
     RDKit          3D

 42 45  0  0  1  0  0  0  0  0999 V2000
   32.4770   27.9730   48.6890 N   0  0  0  0  0  0  0  0  0  0  0  0
   33.3180   27.4150   47.6480 C   0  0  0  0  0  0  0  0  0  0  0  0
   34.6160   28.1480   47.8280 C   0  0  0  0  0  0  0  0  0  0  0  0
   34.2960   29.2770   48.9110 C   0  0  1  0  0  0  0  0  0  0  0  0
   33.3430   28.5390   49.7440 C   0  0  0  0  0  0  0  0  0  0  0  0
   36.0520   31.1590   47.7110 F   0  0  0  0  0  0  0  0  0  0  0  0
   36.3040   30.6130   48.9210 C   0  0  0  0  0  0  0  0  0  0  0  0
   35.5590   29.6520   49.5560 C   0  0  0  0  0  0  0  0  0  0  0  0
   36.0010   29.1810   50.8090 C   0  0  0  0  0  0  0  0  0  0  0  0
   37.1540   29.6680   51.3950 C   0  0  0  0  0  0  0  0  0  0  0  0
   37.8930   30.6450   50.7290 C   0  0  0  0  0  0  0  0  0  0  0  0
   37.4540   31.1130   49.4820 C   0  0  0  0  0  0  0  0  0  0  0  0
   38.6730   30.5250   47.0990 F   0  0  0  0  0  0  0  0  0  0  0  0
   38.8660   31.7350   47.6770 C   0  0  0  0  0  0  0  0  0  0  0  0
   38.3000   32.1330   48.8740 C   0  0  0  0  0  0  0  0  0  0  0  0
   38.5410   33.3880   49.4040 C   0  0  0  0  0  0  0  0  0  0  0  0
   39.3710   34.2460   48.7040 C   0  0  0  0  0  0  0  0  0  0  0  0
   39.9330   33.8430   47.5090 C   0  0  0  0  0  0  0  0  0  0  0  0
   39.7050   32.5860   46.9570 C   0  0  0  0  0  0  0  0  0  0  0  0
   31.0630   27.9990   48.7240 C   0  0  0  0  0  0  0  0  0  0  0  0
   30.4220   28.1160   47.4810 C   0  0  0  0  0  0  0  0  0  0  0  0
   29.0220   28.1620   47.4560 C   0  0  0  0  0  0  0  0  0  0  0  0
   28.3720   28.0840   48.6750 N   0  0  0  0  0  0  0  0  0  0  0  0
   29.0200   27.9720   49.8340 C   0  0  0  0  0  0  0  0  0  0  0  0
   30.3800   27.9280   49.8720 N   0  0  0  0  0  0  0  0  0  0  0  0
   32.8920   27.6055   46.6519 H   0  0  0  0  0  0  0  0  0  0  0  0
   33.4254   26.3225   47.7187 H   0  0  0  0  0  0  0  0  0  0  0  0
   35.3981   27.4677   48.1961 H   0  0  0  0  0  0  0  0  0  0  0  0
   34.9902   28.5706   46.8838 H   0  0  0  0  0  0  0  0  0  0  0  0
   33.8816   30.2401   48.5782 H   0  0  0  0  0  0  0  0  0  0  0  0
   32.7852   29.2063   50.4175 H   0  0  0  0  0  0  0  0  0  0  0  0
   33.7924   27.8007   50.4244 H   0  0  0  0  0  0  0  0  0  0  0  0
   35.4159   28.4097   51.3313 H   0  0  0  0  0  0  0  0  0  0  0  0
   37.4843   29.2899   52.3738 H   0  0  0  0  0  0  0  0  0  0  0  0
   38.8136   31.0457   51.1784 H   0  0  0  0  0  0  0  0  0  0  0  0
   38.0850   33.6957   50.3566 H   0  0  0  0  0  0  0  0  0  0  0  0
   39.5832   35.2501   49.1000 H   0  0  0  0  0  0  0  0  0  0  0  0
   40.5879   34.5443   46.9711 H   0  0  0  0  0  0  0  0  0  0  0  0
   40.1617   32.2799   46.0043 H   0  0  0  0  0  0  0  0  0  0  0  0
   31.0044   28.1702   46.5494 H   0  0  0  0  0  0  0  0  0  0  0  0
   28.4657   28.2557   46.5117 H   0  0  0  0  0  0  0  0  0  0  0  0
   28.4485   27.9144   50.7721 H   0  0  0  0  0  0  0  0  0  0  0  0
  1 20  1  0
  1  5  1  0
  2  3  1  0
  2  1  1  0
  3  4  1  0
  4  8  1  0
  4  5  1  0
  6  7  1  0
  7 12  2  0
  7  8  1  0
  8  9  2  0
  9 10  1  0
 11 10  2  0
 12 11  1  0
 13 14  1  0
 14 15  2  0
 15 16  1  0
 15 12  1  0
 17 16  2  0
 18 17  1  0
 19 18  2  0
 19 14  1  0
 20 25  1  0
 21 20  2  0
 22 21  1  0
 22 23  2  0
 23 24  1  0
 24 25  2  0
  2 26  1  0
  2 27  1  0
  3 28  1  0
  3 29  1  0
  4 30  1  6
  5 31  1  0
  5 32  1  0
  9 33  1  0
 10 34  1  0
 11 35  1  0
 16 36  1  0
 17 37  1  0
 18 38  1  0
 19 39  1  0
 21 40  1  0
 22 41  1  0
 24 42  1  0
M  ISO  8  26  13  27  13  28  13  29  13  30  13  31  13  32  13  33  14
M  ISO  8  34  14  35  14  36  14  37  14  38  14  39  14  40  14  41  14
M  ISO  1  42  14
M  END
>  <minimizedAffinity>  (1) 
-7.68848467

>  <minimizedRMSD>  (1) 
2.94139791

$$$$
