
     RDKit          3D

 42 45  0  0  1  0  0  0  0  0999 V2000
   32.4070   27.9420   48.7990 N   0  0  0  0  0  0  0  0  0  0  0  0
   33.2610   27.2690   47.8310 C   0  0  0  0  0  0  0  0  0  0  0  0
   34.5650   27.9950   47.9700 C   0  0  0  0  0  0  0  0  0  0  0  0
   34.2470   29.2290   48.9230 C   0  0  1  0  0  0  0  0  0  0  0  0
   33.2600   28.6060   49.8090 C   0  0  0  0  0  0  0  0  0  0  0  0
   36.0640   30.9430   47.5740 F   0  0  0  0  0  0  0  0  0  0  0  0
   36.2770   30.5270   48.8400 C   0  0  0  0  0  0  0  0  0  0  0  0
   35.5020   29.6500   49.5570 C   0  0  0  0  0  0  0  0  0  0  0  0
   35.9140   29.3140   50.8560 C   0  0  0  0  0  0  0  0  0  0  0  0
   37.0530   29.8320   51.4210 C   0  0  0  0  0  0  0  0  0  0  0  0
   37.8260   30.7230   50.6710 C   0  0  0  0  0  0  0  0  0  0  0  0
   37.4220   31.0650   49.3690 C   0  0  0  0  0  0  0  0  0  0  0  0
   38.3020   32.0010   48.6750 C   0  0  0  0  0  0  0  0  0  0  0  0
   38.8500   31.8630   47.4170 C   0  0  0  0  0  0  0  0  0  0  0  0
   39.6670   32.8460   46.8970 C   0  0  0  0  0  0  0  0  0  0  0  0
   39.9840   34.0030   47.5840 C   0  0  0  0  0  0  0  0  0  0  0  0
   39.4490   34.1690   48.8450 C   0  0  0  0  0  0  0  0  0  0  0  0
   38.6230   33.1760   49.3680 C   0  0  0  0  0  0  0  0  0  0  0  0
   30.9960   27.9860   48.8050 C   0  0  0  0  0  0  0  0  0  0  0  0
   30.3850   28.0920   47.5450 C   0  0  0  0  0  0  0  0  0  0  0  0
   28.9850   28.1480   47.4780 C   0  0  0  0  0  0  0  0  0  0  0  0
   28.3040   28.0920   48.6800 N   0  0  0  0  0  0  0  0  0  0  0  0
   28.9320   27.9900   49.8650 C   0  0  0  0  0  0  0  0  0  0  0  0
   30.2880   27.9360   49.9330 N   0  0  0  0  0  0  0  0  0  0  0  0
   32.8592   27.3695   46.8120 H   0  0  0  0  0  0  0  0  0  0  0  0
   33.3465   26.1865   48.0069 H   0  0  0  0  0  0  0  0  0  0  0  0
   35.3252   27.3418   48.4232 H   0  0  0  0  0  0  0  0  0  0  0  0
   34.9662   28.3156   46.9972 H   0  0  0  0  0  0  0  0  0  0  0  0
   33.8595   30.1575   48.4783 H   0  0  0  0  0  0  0  0  0  0  0  0
   32.7007   29.3540   50.3901 H   0  0  0  0  0  0  0  0  0  0  0  0
   33.6773   27.9403   50.5789 H   0  0  0  0  0  0  0  0  0  0  0  0
   35.3031   28.6113   51.4417 H   0  0  0  0  0  0  0  0  0  0  0  0
   37.3509   29.5518   52.4421 H   0  0  0  0  0  0  0  0  0  0  0  0
   38.7443   31.1536   51.0969 H   0  0  0  0  0  0  0  0  0  0  0  0
   38.6342   30.9623   46.8235 H   0  0  0  0  0  0  0  0  0  0  0  0
   40.0852   32.7024   45.8898 H   0  0  0  0  0  0  0  0  0  0  0  0
   40.6407   34.7657   47.1402 H   0  0  0  0  0  0  0  0  0  0  0  0
   39.6717   35.0736   49.4299 H   0  0  0  0  0  0  0  0  0  0  0  0
   38.2024   33.3216   50.3739 H   0  0  0  0  0  0  0  0  0  0  0  0
   30.9923   28.1304   46.6286 H   0  0  0  0  0  0  0  0  0  0  0  0
   28.4556   28.2322   46.5175 H   0  0  0  0  0  0  0  0  0  0  0  0
   28.3401   27.9498   50.7913 H   0  0  0  0  0  0  0  0  0  0  0  0
  1 19  1  0
  1  5  1  0
  2  3  1  0
  2  1  1  0
  3  4  1  0
  4  8  1  0
  4  5  1  0
  6  7  1  0
  7 12  2  0
  7  8  1  0
  8  9  2  0
  9 10  1  0
 11 10  2  0
 12 11  1  0
 13 18  1  0
 13 12  1  0
 14 13  2  0
 15 14  1  0
 15 16  2  0
 16 17  1  0
 17 18  2  0
 19 24  1  0
 20 19  2  0
 21 20  1  0
 21 22  2  0
 22 23  1  0
 23 24  2  0
  2 25  1  0
  2 26  1  0
  3 27  1  0
  3 28  1  0
  4 29  1  6
  5 30  1  0
  5 31  1  0
  9 32  1  0
 10 33  1  0
 11 34  1  0
 14 35  1  0
 15 36  1  0
 16 37  1  0
 17 38  1  0
 18 39  1  0
 20 40  1  0
 21 41  1  0
 23 42  1  0
M  ISO  8  25  13  26  13  27  13  28  13  29  13  30  13  31  13  32  14
M  ISO  8  33  14  34  14  35  14  36  14  37  14  38  14  39  14  40  14
M  ISO  2  41  14  42  14
M  END
>  <minimizedAffinity>  (1) 
-7.67920494

>  <minimizedRMSD>  (1) 
3.06836271

$$$$
