
     RDKit          3D

 46 49  0  0  1  0  0  0  0  0999 V2000
   31.8220   27.5620   48.2090 N   0  0  0  0  0  0  0  0  0  0  0  0
   32.7670   26.7080   47.5170 C   0  0  0  0  0  0  0  0  0  0  0  0
   34.0890   27.3510   47.8090 C   0  0  0  0  0  0  0  0  0  0  0  0
   33.7240   28.7200   48.5400 C   0  0  1  0  0  0  0  0  0  0  0  0
   32.5350   28.2910   49.2820 C   0  0  0  0  0  0  0  0  0  0  0  0
   35.8580   30.2120   47.4110 F   0  0  0  0  0  0  0  0  0  0  0  0
   35.8280   29.8840   48.7170 C   0  0  0  0  0  0  0  0  0  0  0  0
   34.8790   29.1240   49.3480 C   0  0  0  0  0  0  0  0  0  0  0  0
   35.0360   28.8770   50.7230 C   0  0  0  0  0  0  0  0  0  0  0  0
   36.0970   29.3710   51.4390 C   0  0  0  0  0  0  0  0  0  0  0  0
   37.0510   30.1430   50.7700 C   0  0  0  0  0  0  0  0  0  0  0  0
   36.9040   30.3940   49.3940 C   0  0  0  0  0  0  0  0  0  0  0  0
   37.9330   31.1900   48.8160 N   0  0  0  0  0  0  0  0  0  0  0  0
   38.7880   32.2070   49.4010 C   0  0  0  0  0  0  0  0  0  0  0  0
   38.5720   33.4590   48.5560 C   0  0  0  0  0  0  0  0  0  0  0  0
   39.1040   33.2200   47.2270 N   0  0  0  0  0  0  0  0  0  0  0  0
   39.3290   31.8160   46.9590 C   0  0  0  0  0  0  0  0  0  0  0  0
   38.1810   30.9550   47.4050 C   0  0  0  0  0  0  0  0  0  0  0  0
   30.4450   27.7150   47.9360 C   0  0  0  0  0  0  0  0  0  0  0  0
   30.1170   28.6990   46.9930 C   0  0  0  0  0  0  0  0  0  0  0  0
   28.7630   28.9160   46.6870 C   0  0  0  0  0  0  0  0  0  0  0  0
   27.8510   28.1220   47.3570 N   0  0  0  0  0  0  0  0  0  0  0  0
   28.1990   27.1930   48.2490 C   0  0  0  0  0  0  0  0  0  0  0  0
   29.5010   27.0090   48.5210 N   0  0  0  0  0  0  0  0  0  0  0  0
   32.5662   26.6929   46.4356 H   0  0  0  0  0  0  0  0  0  0  0  0
   32.7173   25.6583   47.8419 H   0  0  0  0  0  0  0  0  0  0  0  0
   34.6947   26.7102   48.4666 H   0  0  0  0  0  0  0  0  0  0  0  0
   34.6822   27.5129   46.8969 H   0  0  0  0  0  0  0  0  0  0  0  0
   33.5149   29.6115   47.9305 H   0  0  0  0  0  0  0  0  0  0  0  0
   31.9523   29.1473   49.6525 H   0  0  0  0  0  0  0  0  0  0  0  0
   32.7382   27.7037   50.1896 H   0  0  0  0  0  0  0  0  0  0  0  0
   34.2825   28.2669   51.2426 H   0  0  0  0  0  0  0  0  0  0  0  0
   36.1946   29.1642   52.5150 H   0  0  0  0  0  0  0  0  0  0  0  0
   37.9129   30.5524   51.3173 H   0  0  0  0  0  0  0  0  0  0  0  0
   38.5015   32.3949   50.4463 H   0  0  0  0  0  0  0  0  0  0  0  0
   39.8435   31.8972   49.4079 H   0  0  0  0  0  0  0  0  0  0  0  0
   37.4965   33.6802   48.4901 H   0  0  0  0  0  0  0  0  0  0  0  0
   39.0852   34.3158   49.0170 H   0  0  0  0  0  0  0  0  0  0  0  0
   38.4349   33.5845   46.5339 H   0  0  0  0  0  0  0  0  0  0  0  0
   39.4713   31.6816   45.8765 H   0  0  0  0  0  0  0  0  0  0  0  0
   40.2197   31.5057   47.5250 H   0  0  0  0  0  0  0  0  0  0  0  0
   37.2818   31.2103   46.8252 H   0  0  0  0  0  0  0  0  0  0  0  0
   38.4269   29.8952   47.2428 H   0  0  0  0  0  0  0  0  0  0  0  0
   30.9044   29.2898   46.5021 H   0  0  0  0  0  0  0  0  0  0  0  0
   28.4466   29.6745   45.9559 H   0  0  0  0  0  0  0  0  0  0  0  0
   27.4317   26.5875   48.7535 H   0  0  0  0  0  0  0  0  0  0  0  0
  1  5  1  0
  2  3  1  0
  2  1  1  0
  3  4  1  0
  4  5  1  0
  4  8  1  0
  6  7  1  0
  7  8  2  0
  7 12  1  0
  8  9  1  0
  9 10  2  0
 11 10  1  0
 12 11  2  0
 13 12  1  0
 13 14  1  0
 15 14  1  0
 16 15  1  0
 17 16  1  0
 17 18  1  0
 18 13  1  0
 19  1  1  0
 19 24  1  0
 20 19  2  0
 21 20  1  0
 21 22  2  0
 22 23  1  0
 23 24  2  0
  2 25  1  0
  2 26  1  0
  3 27  1  0
  3 28  1  0
  4 29  1  6
  5 30  1  0
  5 31  1  0
  9 32  1  0
 10 33  1  0
 11 34  1  0
 14 35  1  0
 14 36  1  0
 15 37  1  0
 15 38  1  0
 16 39  1  0
 17 40  1  0
 17 41  1  0
 18 42  1  0
 18 43  1  0
 20 44  1  0
 21 45  1  0
 23 46  1  0
M  ISO  8  25  13  26  13  27  13  28  13  29  13  30  13  31  13  32  14
M  ISO  8  33  14  34  14  35  13  36  13  37  13  38  13  39   5  40  13
M  ISO  6  41  13  42  13  43  13  44  14  45  14  46  14
M  END
>  <minimizedAffinity>  (1) 
-6.3902626

>  <minimizedRMSD>  (1) 
3.00963688

$$$$
