
     RDKit          3D

 44 47  0  0  1  0  0  0  0  0999 V2000
   31.6940   28.3220   46.1440 N   0  0  0  0  0  0  0  0  0  0  0  0
   32.7310   27.9020   45.2140 C   0  0  0  0  0  0  0  0  0  0  0  0
   33.9940   28.3090   45.9120 C   0  0  0  0  0  0  0  0  0  0  0  0
   33.5140   29.1750   47.1590 C   0  0  1  0  0  0  0  0  0  0  0  0
   32.2920   28.4280   47.4900 C   0  0  0  0  0  0  0  0  0  0  0  0
   35.8850   30.7100   46.8810 F   0  0  0  0  0  0  0  0  0  0  0  0
   35.6510   29.9460   47.9650 C   0  0  0  0  0  0  0  0  0  0  0  0
   34.5730   29.1240   48.1810 C   0  0  0  0  0  0  0  0  0  0  0  0
   34.5180   28.3860   49.3770 C   0  0  0  0  0  0  0  0  0  0  0  0
   35.5170   28.4770   50.3270 C   0  0  0  0  0  0  0  0  0  0  0  0
   36.6030   29.3180   50.0860 C   0  0  0  0  0  0  0  0  0  0  0  0
   36.6610   30.0540   48.8910 C   0  0  0  0  0  0  0  0  0  0  0  0
   37.8110   30.8770   48.7490 N   0  0  0  0  0  0  0  0  0  0  0  0
   38.4720   31.8050   49.6400 C   0  0  0  0  0  0  0  0  0  0  0  0
   38.5070   33.0610   48.7600 C   0  0  0  0  0  0  0  0  0  0  0  0
   38.5700   32.4950   47.3380 C   0  0  0  0  0  0  0  0  0  0  0  0
   38.6720   30.9900   47.5620 C   0  0  0  0  0  0  0  0  0  0  0  0
   30.3430   28.5950   45.8510 C   0  0  0  0  0  0  0  0  0  0  0  0
   30.0320   29.9420   45.6140 C   0  0  0  0  0  0  0  0  0  0  0  0
   28.7040   30.2920   45.3250 C   0  0  0  0  0  0  0  0  0  0  0  0
   27.7920   29.2520   45.2950 N   0  0  0  0  0  0  0  0  0  0  0  0
   28.1260   27.9810   45.5250 C   0  0  0  0  0  0  0  0  0  0  0  0
   29.4070   27.6700   45.8010 N   0  0  0  0  0  0  0  0  0  0  0  0
   32.6289   28.4185   44.2482 H   0  0  0  0  0  0  0  0  0  0  0  0
   32.6927   26.8284   44.9776 H   0  0  0  0  0  0  0  0  0  0  0  0
   34.5527   27.4232   46.2484 H   0  0  0  0  0  0  0  0  0  0  0  0
   34.6680   28.8738   45.2512 H   0  0  0  0  0  0  0  0  0  0  0  0
   33.3267   30.2505   47.0244 H   0  0  0  0  0  0  0  0  0  0  0  0
   31.6454   28.9866   48.1827 H   0  0  0  0  0  0  0  0  0  0  0  0
   32.4559   27.4697   48.0045 H   0  0  0  0  0  0  0  0  0  0  0  0
   33.6606   27.7216   49.5601 H   0  0  0  0  0  0  0  0  0  0  0  0
   35.4567   27.8953   51.2587 H   0  0  0  0  0  0  0  0  0  0  0  0
   37.4103   29.4046   50.8281 H   0  0  0  0  0  0  0  0  0  0  0  0
   37.8907   31.9693   50.5593 H   0  0  0  0  0  0  0  0  0  0  0  0
   39.4558   31.4713   50.0017 H   0  0  0  0  0  0  0  0  0  0  0  0
   37.6003   33.6673   48.9027 H   0  0  0  0  0  0  0  0  0  0  0  0
   39.3500   33.7274   48.9952 H   0  0  0  0  0  0  0  0  0  0  0  0
   39.4526   32.8741   46.8020 H   0  0  0  0  0  0  0  0  0  0  0  0
   37.7038   32.7803   46.7230 H   0  0  0  0  0  0  0  0  0  0  0  0
   38.2768   30.4181   46.7095 H   0  0  0  0  0  0  0  0  0  0  0  0
   39.6926   30.5964   47.6778 H   0  0  0  0  0  0  0  0  0  0  0  0
   30.8166   30.7119   45.6540 H   0  0  0  0  0  0  0  0  0  0  0  0
   28.4054   31.3332   45.1334 H   0  0  0  0  0  0  0  0  0  0  0  0
   27.3601   27.1922   45.4894 H   0  0  0  0  0  0  0  0  0  0  0  0
  1  5  1  0
  2  3  1  0
  2  1  1  0
  3  4  1  0
  4  5  1  0
  4  8  1  0
  6  7  1  0
  7  8  2  0
  7 12  1  0
  8  9  1  0
  9 10  2  0
 11 10  1  0
 12 11  2  0
 13 12  1  0
 13 14  1  0
 15 14  1  0
 16 17  1  0
 16 15  1  0
 17 13  1  0
 18  1  1  0
 19 18  2  0
 20 19  1  0
 21 20  2  0
 21 22  1  0
 22 23  2  0
 23 18  1  0
  2 24  1  0
  2 25  1  0
  3 26  1  0
  3 27  1  0
  4 28  1  6
  5 29  1  0
  5 30  1  0
  9 31  1  0
 10 32  1  0
 11 33  1  0
 14 34  1  0
 14 35  1  0
 15 36  1  0
 15 37  1  0
 16 38  1  0
 16 39  1  0
 17 40  1  0
 17 41  1  0
 19 42  1  0
 20 43  1  0
 22 44  1  0
M  ISO  8  24  13  25  13  26  13  27  13  28  13  29  13  30  13  31  14
M  ISO  8  32  14  33  14  34  13  35  13  36  13  37  13  38  13  39  13
M  ISO  5  40  13  41  13  42  14  43  14  44  14
M  END
>  <minimizedAffinity>  (1) 
-5.54034376

>  <minimizedRMSD>  (1) 
2.48940182

$$$$
