
     RDKit          3D

 34 36  0  0  0  0  0  0  0  0999 V2000
   37.9730   33.0750   49.6450 C   0  0  0  0  0  0  0  0  0  0  0  0
   38.9080   33.2070   48.6220 C   0  0  0  0  0  0  0  0  0  0  0  0
   38.8180   32.3130   47.5440 C   0  0  0  0  0  0  0  0  0  0  0  0
   37.8340   31.3870   47.5690 N   0  0  0  0  0  0  0  0  0  0  0  0
   36.9450   31.2890   48.5810 C   0  0  0  0  0  0  0  0  0  0  0  0
   37.0180   32.1400   49.6220 N   0  0  0  0  0  0  0  0  0  0  0  0
   39.6580   32.2610   46.3970 N   0  0  0  0  0  0  0  0  0  0  0  0
   40.2170   31.0390   45.8330 C   0  0  0  0  0  0  0  0  0  0  0  0
   39.5810   30.9010   44.4620 C   0  0  0  0  0  0  0  0  0  0  0  0
   40.2580   31.8880   43.6320 N   0  0  0  0  0  0  0  0  0  0  0  0
   39.9670   33.2080   44.1280 C   0  0  0  0  0  0  0  0  0  0  0  0
   40.0940   33.3680   45.6120 C   0  0  0  0  0  0  0  0  0  0  0  0
   37.2470   29.1050   50.5520 Cl  0  0  0  0  0  0  0  0  0  0  0  0
   35.9570   29.1980   49.3910 C   0  0  0  0  0  0  0  0  0  0  0  0
   35.9120   30.2540   48.5230 C   0  0  0  0  0  0  0  0  0  0  0  0
   34.9040   30.3720   47.5790 C   0  0  0  0  0  0  0  0  0  0  0  0
   33.9120   29.4130   47.4950 C   0  0  0  0  0  0  0  0  0  0  0  0
   33.9320   28.3360   48.3570 C   0  0  0  0  0  0  0  0  0  0  0  0
   32.7540   27.0410   48.3810 Cl  0  0  0  0  0  0  0  0  0  0  0  0
   34.9630   28.2630   49.2860 C   0  0  0  0  0  0  0  0  0  0  0  0
   38.0218   33.7636   50.5014 H   0  0  0  0  0  0  0  0  0  0  0  0
   39.6875   33.9824   48.6573 H   0  0  0  0  0  0  0  0  0  0  0  0
   41.3103   31.1212   45.7437 H   0  0  0  0  0  0  0  0  0  0  0  0
   40.0136   30.1645   46.4685 H   0  0  0  0  0  0  0  0  0  0  0  0
   39.7374   29.8878   44.0633 H   0  0  0  0  0  0  0  0  0  0  0  0
   38.4934   31.0627   44.4926 H   0  0  0  0  0  0  0  0  0  0  0  0
   39.9272   31.8051   42.6601 H   0  0  0  0  0  0  0  0  0  0  0  0
   40.6609   33.9137   43.6479 H   0  0  0  0  0  0  0  0  0  0  0  0
   38.9114   33.4017   43.8867 H   0  0  0  0  0  0  0  0  0  0  0  0
   41.1546   33.5474   45.8421 H   0  0  0  0  0  0  0  0  0  0  0  0
   39.4294   34.2027   45.8794 H   0  0  0  0  0  0  0  0  0  0  0  0
   34.8934   31.2324   46.8938 H   0  0  0  0  0  0  0  0  0  0  0  0
   33.1121   29.5079   46.7459 H   0  0  0  0  0  0  0  0  0  0  0  0
   34.9812   27.4060   49.9754 H   0  0  0  0  0  0  0  0  0  0  0  0
  2  1  2  0
  3  4  2  0
  3  2  1  0
  4  5  1  0
  5  6  2  0
  6  1  1  0
  7  3  1  0
  8  7  1  0
  9  8  1  0
 10 11  1  0
 10  9  1  0
 11 12  1  0
 12  7  1  0
 14 13  1  0
 15  5  1  0
 15 14  2  0
 16 15  1  0
 17 16  2  0
 17 18  1  0
 18 19  1  0
 18 20  2  0
 20 14  1  0
  1 21  1  0
  2 22  1  0
  8 23  1  0
  8 24  1  0
  9 25  1  0
  9 26  1  0
 10 27  1  0
 11 28  1  0
 11 29  1  0
 12 30  1  0
 12 31  1  0
 16 32  1  0
 17 33  1  0
 20 34  1  0
M  ISO  8  21  14  22  14  23  13  24  13  25  13  26  13  27   5  28  13
M  ISO  6  29  13  30  13  31  13  32  14  33  14  34  14
M  END
>  <minimizedAffinity>  (1) 
-7.27944517

>  <minimizedRMSD>  (1) 
0.37773934

$$$$
