
     RDKit          3D

 30 32  0  0  0  0  0  0  0  0999 V2000
   37.5760   32.3560   49.6400 C   0  0  0  0  0  0  0  0  0  0  0  0
   38.4690   32.3910   48.5430 C   0  0  0  0  0  0  0  0  0  0  0  0
   38.1830   31.5670   47.4480 C   0  0  0  0  0  0  0  0  0  0  0  0
   37.0790   30.8010   47.5170 N   0  0  0  0  0  0  0  0  0  0  0  0
   36.2440   30.7850   48.5770 C   0  0  0  0  0  0  0  0  0  0  0  0
   36.4940   31.5660   49.6380 N   0  0  0  0  0  0  0  0  0  0  0  0
   35.7410   29.2910   51.0910 Cl  0  0  0  0  0  0  0  0  0  0  0  0
   34.7530   29.1700   49.6630 C   0  0  0  0  0  0  0  0  0  0  0  0
   35.0740   29.9110   48.5390 C   0  0  0  0  0  0  0  0  0  0  0  0
   34.3130   29.8320   47.4060 C   0  0  0  0  0  0  0  0  0  0  0  0
   33.2040   29.0070   47.3580 C   0  0  0  0  0  0  0  0  0  0  0  0
   32.8630   28.2590   48.4670 C   0  0  0  0  0  0  0  0  0  0  0  0
   31.4820   27.1760   48.5420 Cl  0  0  0  0  0  0  0  0  0  0  0  0
   33.6510   28.3630   49.5900 C   0  0  0  0  0  0  0  0  0  0  0  0
   39.9700   33.6170   46.9200 F   0  0  0  0  0  0  0  0  0  0  0  0
   39.9130   32.5650   46.0410 C   0  0  0  0  0  0  0  0  0  0  0  0
   39.0360   31.5290   46.2700 C   0  0  0  0  0  0  0  0  0  0  0  0
   39.0410   30.5180   45.3430 C   0  0  0  0  0  0  0  0  0  0  0  0
   39.8650   30.5160   44.2390 C   0  0  0  0  0  0  0  0  0  0  0  0
   40.7450   31.5740   44.0240 C   0  0  0  0  0  0  0  0  0  0  0  0
   40.7290   32.5730   44.9540 C   0  0  0  0  0  0  0  0  0  0  0  0
   37.7748   32.9923   50.5150 H   0  0  0  0  0  0  0  0  0  0  0  0
   39.3557   33.0420   48.5503 H   0  0  0  0  0  0  0  0  0  0  0  0
   34.5854   30.4304   46.5241 H   0  0  0  0  0  0  0  0  0  0  0  0
   32.5977   28.9473   46.4421 H   0  0  0  0  0  0  0  0  0  0  0  0
   33.3811   27.7668   50.4742 H   0  0  0  0  0  0  0  0  0  0  0  0
   38.3556   29.6699   45.4878 H   0  0  0  0  0  0  0  0  0  0  0  0
   39.8279   29.6784   43.5269 H   0  0  0  0  0  0  0  0  0  0  0  0
   41.4159   31.6029   43.1528 H   0  0  0  0  0  0  0  0  0  0  0  0
   41.4097   33.4262   44.8171 H   0  0  0  0  0  0  0  0  0  0  0  0
  2  1  2  0
  3  4  2  0
  3  2  1  0
  4  5  1  0
  5  6  2  0
  6  1  1  0
  8  7  1  0
  9  5  1  0
  9  8  2  0
 10  9  1  0
 11 10  2  0
 11 12  1  0
 12 13  1  0
 12 14  2  0
 14  8  1  0
 16 17  2  0
 16 15  1  0
 17  3  1  0
 18 17  1  0
 19 18  2  0
 20 19  1  0
 20 21  2  0
 21 16  1  0
  1 22  1  0
  2 23  1  0
 10 24  1  0
 11 25  1  0
 14 26  1  0
 18 27  1  0
 19 28  1  0
 20 29  1  0
 21 30  1  0
M  ISO  8  22  14  23  14  24  14  25  14  26  14  27  14  28  14  29  14
M  ISO  1  30  14
M  END
>  <minimizedAffinity>  (1) 
-6.92414951

>  <minimizedRMSD>  (1) 
1.12440991

$$$$
