
     RDKit          3D

 24 25  0  0  0  0  0  0  0  0999 V2000
   38.0940   32.8900   49.0240 C   0  0  0  0  0  0  0  0  0  0  0  0
   39.1470   32.6920   48.1290 C   0  0  0  0  0  0  0  0  0  0  0  0
   39.0750   31.5750   47.2760 C   0  0  0  0  0  0  0  0  0  0  0  0
   37.9920   30.7680   47.3830 N   0  0  0  0  0  0  0  0  0  0  0  0
   36.9870   30.9870   48.2630 C   0  0  0  0  0  0  0  0  0  0  0  0
   37.0540   32.0520   49.0770 N   0  0  0  0  0  0  0  0  0  0  0  0
   40.4720   32.3180   45.5240 C   0  0  0  0  0  0  0  0  0  0  0  0
   40.0580   33.4970   45.6840 O   0  0  0  0  0  0  0  0  0  0  0  0
   40.0370   31.1990   46.2980 N   0  0  0  0  0  0  0  0  0  0  0  0
   37.0990   29.0060   50.4570 Cl  0  0  0  0  0  0  0  0  0  0  0  0
   35.8230   29.0930   49.2870 C   0  0  0  0  0  0  0  0  0  0  0  0
   35.8690   30.0610   48.2990 C   0  0  0  0  0  0  0  0  0  0  0  0
   34.8810   30.1610   47.3580 C   0  0  0  0  0  0  0  0  0  0  0  0
   33.7980   29.2980   47.3580 C   0  0  0  0  0  0  0  0  0  0  0  0
   33.7250   28.3260   48.3270 C   0  0  0  0  0  0  0  0  0  0  0  0
   32.4320   27.1510   48.4840 Cl  0  0  0  0  0  0  0  0  0  0  0  0
   34.7450   28.2480   49.2730 C   0  0  0  0  0  0  0  0  0  0  0  0
   38.1208   33.7561   49.7016 H   0  0  0  0  0  0  0  0  0  0  0  0
   40.0015   33.3837   48.0919 H   0  0  0  0  0  0  0  0  0  0  0  0
   41.2180   32.1383   44.7359 H   0  0  0  0  0  0  0  0  0  0  0  0
   40.3785   30.2365   46.1641 H   0  0  0  0  0  0  0  0  0  0  0  0
   34.9482   30.9421   46.5864 H   0  0  0  0  0  0  0  0  0  0  0  0
   33.0100   29.3888   46.5959 H   0  0  0  0  0  0  0  0  0  0  0  0
   34.6814   27.4691   50.0471 H   0  0  0  0  0  0  0  0  0  0  0  0
  1  6  2  0
  2  1  1  0
  3  4  1  0
  3  2  2  0
  4  5  2  0
  5 12  1  0
  5  6  1  0
  7  8  2  0
  7  9  1  0
  9  3  1  0
 11 10  1  0
 12 11  2  0
 13 12  1  0
 14 13  2  0
 14 15  1  0
 15 16  1  0
 15 17  2  0
 17 11  1  0
  1 18  1  0
  2 19  1  0
  7 20  1  0
  9 21  1  0
 13 22  1  0
 14 23  1  0
 17 24  1  0
M  ISO  6  18  14  19  14  20   6  22  14  23  14  24  14
M  END
>  <minimizedAffinity>  (1) 
-6.31388712

>  <minimizedRMSD>  (1) 
0.517703652

$$$$
