
     RDKit          3D

 22 23  0  0  0  0  0  0  0  0999 V2000
   37.2200   29.0980   50.5140 Cl  0  0  0  0  0  0  0  0  0  0  0  0
   35.9320   29.1870   49.3610 C   0  0  0  0  0  0  0  0  0  0  0  0
   35.9050   30.2110   48.4450 C   0  0  0  0  0  0  0  0  0  0  0  0
   34.9000   30.3240   47.5080 C   0  0  0  0  0  0  0  0  0  0  0  0
   33.8740   29.3850   47.4690 C   0  0  0  0  0  0  0  0  0  0  0  0
   33.8780   28.3400   48.3850 C   0  0  0  0  0  0  0  0  0  0  0  0
   32.6380   27.1070   48.4260 Cl  0  0  0  0  0  0  0  0  0  0  0  0
   34.9060   28.2780   49.2990 C   0  0  0  0  0  0  0  0  0  0  0  0
   38.0210   33.0250   49.4640 C   0  0  0  0  0  0  0  0  0  0  0  0
   38.9870   33.0850   48.4360 C   0  0  0  0  0  0  0  0  0  0  0  0
   38.8790   32.1390   47.4060 C   0  0  0  0  0  0  0  0  0  0  0  0
   37.8720   31.2480   47.4660 N   0  0  0  0  0  0  0  0  0  0  0  0
   36.9570   31.2050   48.4580 C   0  0  0  0  0  0  0  0  0  0  0  0
   37.0550   32.1110   49.4500 N   0  0  0  0  0  0  0  0  0  0  0  0
   39.8160   32.1420   46.3400 N   0  0  0  0  0  0  0  0  0  0  0  0
   34.9093   31.1576   46.7903 H   0  0  0  0  0  0  0  0  0  0  0  0
   33.0702   29.4687   46.7228 H   0  0  0  0  0  0  0  0  0  0  0  0
   34.9046   27.4499   50.0231 H   0  0  0  0  0  0  0  0  0  0  0  0
   38.0683   33.7477   50.2919 H   0  0  0  0  0  0  0  0  0  0  0  0
   39.7877   33.8392   48.4426 H   0  0  0  0  0  0  0  0  0  0  0  0
   40.5754   32.8377   46.3238 H   0  0  0  0  0  0  0  0  0  0  0  0
   39.7366   31.4485   45.5826 H   0  0  0  0  0  0  0  0  0  0  0  0
  2  1  1  0
  3 13  1  0
  3  2  2  0
  4  3  1  0
  5  4  2  0
  5  6  1  0
  6  7  1  0
  6  8  2  0
  8  2  1  0
 10  9  2  0
 11 12  2  0
 11 10  1  0
 12 13  1  0
 13 14  2  0
 14  9  1  0
 15 11  1  0
  4 16  1  0
  5 17  1  0
  8 18  1  0
  9 19  1  0
 10 20  1  0
 15 21  1  0
 15 22  1  0
M  ISO  5  16  14  17  14  18  14  19  14  20  14
M  END
>  <minimizedAffinity>  (1) 
-5.65321207

>  <minimizedRMSD>  (1) 
0.119020365

$$$$
