
     RDKit          3D

 50 53  0  0  0  0  0  0  0  0999 V2000
   36.5480   30.6820   50.5400 C   0  0  0  0  0  0  0  0  0  0  0  0
   37.5670   31.3990   49.9060 C   0  0  0  0  0  0  0  0  0  0  0  0
   37.4590   31.5650   48.5260 C   0  0  0  0  0  0  0  0  0  0  0  0
   36.3940   31.0340   47.8780 N   0  0  0  0  0  0  0  0  0  0  0  0
   35.4320   30.3480   48.5270 C   0  0  0  0  0  0  0  0  0  0  0  0
   35.5270   30.1850   49.8500 N   0  0  0  0  0  0  0  0  0  0  0  0
   38.4620   32.2980   47.7420 C   0  0  0  0  0  0  0  0  0  0  0  0
   39.1650   33.3780   48.2210 C   0  0  0  0  0  0  0  0  0  0  0  0
   40.0220   33.8520   47.2740 N   0  0  0  0  0  0  0  0  0  0  0  0
   39.8500   33.0610   46.2000 C   0  0  0  0  0  0  0  0  0  0  0  0
   38.9170   32.1450   46.5060 N   0  0  0  0  0  0  0  0  0  0  0  0
   40.5990   31.8200   44.2550 C   0  0  0  0  0  0  0  0  0  0  0  0
   40.1810   30.7680   44.7910 O   0  0  0  0  0  0  0  0  0  0  0  0
   40.4640   33.0760   44.9330 N   0  0  0  0  0  0  0  0  0  0  0  0
   34.4770   27.6990   49.4430 Cl  0  0  0  0  0  0  0  0  0  0  0  0
   33.7840   28.5790   48.1130 C   0  0  0  0  0  0  0  0  0  0  0  0
   34.3050   29.7980   47.7730 C   0  0  0  0  0  0  0  0  0  0  0  0
   33.7770   30.5270   46.7170 C   0  0  0  0  0  0  0  0  0  0  0  0
   32.7180   30.0560   45.9760 C   0  0  0  0  0  0  0  0  0  0  0  0
   32.1900   28.8160   46.3200 C   0  0  0  0  0  0  0  0  0  0  0  0
   30.8340   28.1020   45.4520 Cl  0  0  0  0  0  0  0  0  0  0  0  0
   32.7420   28.1330   47.3690 C   0  0  0  0  0  0  0  0  0  0  0  0
   32.1160   30.7890   44.8410 C   0  0  0  0  0  0  0  0  0  0  0  0
   33.2160   31.1460   43.8750 C   0  0  0  0  0  0  0  0  0  0  0  0
   32.7520   32.0550   42.7690 C   0  0  0  0  0  0  0  0  0  0  0  0
   31.5780   32.9100   43.1200 C   0  0  0  0  0  0  0  0  0  0  0  0
   31.6840   33.2430   44.6150 C   0  0  0  0  0  0  0  0  0  0  0  0
   31.3040   31.9470   45.3140 C   0  0  0  0  0  0  0  0  0  0  0  0
   32.1590   26.8000   47.7270 C   0  0  0  0  0  0  0  0  0  0  0  0
   33.1860   25.8380   47.8040 F   0  0  0  0  0  0  0  0  0  0  0  0
   31.3430   26.3260   46.6870 F   0  0  0  0  0  0  0  0  0  0  0  0
   31.3880   26.8330   48.8510 F   0  0  0  0  0  0  0  0  0  0  0  0
   36.5922   30.5267   51.6281 H   0  0  0  0  0  0  0  0  0  0  0  0
   38.4154   31.8134   50.4703 H   0  0  0  0  0  0  0  0  0  0  0  0
   39.0512   33.8011   49.2300 H   0  0  0  0  0  0  0  0  0  0  0  0
   40.6673   34.6500   47.3622 H   0  0  0  0  0  0  0  0  0  0  0  0
   41.0706   31.7802   43.2620 H   0  0  0  0  0  0  0  0  0  0  0  0
   40.8020   33.9526   44.5109 H   0  0  0  0  0  0  0  0  0  0  0  0
   34.2154   31.5043   46.4666 H   0  0  0  0  0  0  0  0  0  0  0  0
   31.3944   30.1583   44.3010 H   0  0  0  0  0  0  0  0  0  0  0  0
   34.0204   31.6509   44.4301 H   0  0  0  0  0  0  0  0  0  0  0  0
   33.5634   30.2114   43.4103 H   0  0  0  0  0  0  0  0  0  0  0  0
   32.4771   31.4321   41.9051 H   0  0  0  0  0  0  0  0  0  0  0  0
   33.5858   32.7406   42.5576 H   0  0  0  0  0  0  0  0  0  0  0  0
   31.5961   33.8358   42.5263 H   0  0  0  0  0  0  0  0  0  0  0  0
   30.6361   32.3842   42.9048 H   0  0  0  0  0  0  0  0  0  0  0  0
   32.7101   33.5409   44.8765 H   0  0  0  0  0  0  0  0  0  0  0  0
   31.0374   34.0839   44.9061 H   0  0  0  0  0  0  0  0  0  0  0  0
   30.2420   31.7378   45.1181 H   0  0  0  0  0  0  0  0  0  0  0  0
   31.4967   32.0759   46.3893 H   0  0  0  0  0  0  0  0  0  0  0  0
  2  1  2  0
  3  2  1  0
  4  3  2  0
  4  5  1  0
  5  6  2  0
  6  1  1  0
  7  8  2  0
  7  3  1  0
  9  8  1  0
 10 11  2  0
 10  9  1  0
 11  7  1  0
 12 13  2  0
 12 14  1  0
 14 10  1  0
 16 15  1  0
 17 16  2  0
 17  5  1  0
 18 17  1  0
 19 20  1  0
 19 18  2  0
 20 22  2  0
 21 20  1  0
 22 29  1  0
 22 16  1  0
 23 28  1  0
 23 19  1  0
 24 23  1  0
 25 26  1  0
 25 24  1  0
 26 27  1  0
 27 28  1  0
 29 30  1  0
 29 32  1  0
 31 29  1  0
  1 33  1  0
  2 34  1  0
  8 35  1  0
  9 36  1  0
 12 37  1  0
 14 38  1  0
 18 39  1  0
 23 40  1  0
 24 41  1  0
 24 42  1  0
 25 43  1  0
 25 44  1  0
 26 45  1  0
 26 46  1  0
 27 47  1  0
 27 48  1  0
 28 49  1  0
 28 50  1  0
M  ISO  8  33  14  34  14  35  14  36   9  37   6  39  14  40  13  41  13
M  ISO  8  42  13  43  13  44  13  45  13  46  13  47  13  48  13  49  13
M  ISO  1  50  13
M  END
>  <minimizedAffinity>  (1) 
-6.92246342

>  <minimizedRMSD>  (1) 
0.876793027

$$$$
