
     RDKit          3D

 29 31  0  0  0  0  0  0  0  0999 V2000
   36.2790   30.5210   48.9970 C   0  0  0  0  0  0  0  0  0  0  0  0
   36.0680   30.0870   50.2860 C   0  0  0  0  0  0  0  0  0  0  0  0
   35.1080   29.1380   50.5850 C   0  0  0  0  0  0  0  0  0  0  0  0
   34.3790   28.6580   49.5000 C   0  0  0  0  0  0  0  0  0  0  0  0
   34.5760   29.0820   48.1970 C   0  0  0  0  0  0  0  0  0  0  0  0
   35.5390   30.0140   48.0110 N   0  0  0  0  0  0  0  0  0  0  0  0
   38.4530   33.4500   49.3310 C   0  0  0  0  0  0  0  0  0  0  0  0
   39.2450   33.3980   48.1790 C   0  0  0  0  0  0  0  0  0  0  0  0
   39.0180   32.3500   47.2980 C   0  0  0  0  0  0  0  0  0  0  0  0
   38.0390   31.4270   47.5970 N   0  0  0  0  0  0  0  0  0  0  0  0
   37.2970   31.5170   48.7230 C   0  0  0  0  0  0  0  0  0  0  0  0
   37.5210   32.5260   49.5660 N   0  0  0  0  0  0  0  0  0  0  0  0
   33.0050   30.7590   46.7130 F   0  0  0  0  0  0  0  0  0  0  0  0
   33.0280   29.4420   46.3470 C   0  0  0  0  0  0  0  0  0  0  0  0
   33.8100   28.5740   47.0760 C   0  0  0  0  0  0  0  0  0  0  0  0
   33.7950   27.2730   46.6670 C   0  0  0  0  0  0  0  0  0  0  0  0
   33.0610   26.8060   45.5990 C   0  0  0  0  0  0  0  0  0  0  0  0
   32.2750   27.6920   44.8700 C   0  0  0  0  0  0  0  0  0  0  0  0
   32.2880   29.0070   45.2820 C   0  0  0  0  0  0  0  0  0  0  0  0
   36.6789   30.5060   51.0992 H   0  0  0  0  0  0  0  0  0  0  0  0
   34.9318   28.7855   51.6120 H   0  0  0  0  0  0  0  0  0  0  0  0
   33.6041   27.9004   49.6886 H   0  0  0  0  0  0  0  0  0  0  0  0
   38.6014   34.2657   50.0540 H   0  0  0  0  0  0  0  0  0  0  0  0
   40.0161   34.1567   47.9796 H   0  0  0  0  0  0  0  0  0  0  0  0
   39.6101   32.2574   46.3756 H   0  0  0  0  0  0  0  0  0  0  0  0
   34.4082   26.5505   47.2256 H   0  0  0  0  0  0  0  0  0  0  0  0
   33.0962   25.7412   45.3250 H   0  0  0  0  0  0  0  0  0  0  0  0
   31.6746   27.3606   44.0099 H   0  0  0  0  0  0  0  0  0  0  0  0
   31.6775   29.7377   44.7312 H   0  0  0  0  0  0  0  0  0  0  0  0
  1  2  2  0
  2  3  1  0
  4  3  2  0
  5  4  1  0
  6  5  2  0
  6  1  1  0
  7 12  2  0
  8  7  1  0
  9 10  1  0
  9  8  2  0
 10 11  2  0
 11  1  1  0
 11 12  1  0
 14 13  1  0
 14 15  2  0
 15  5  1  0
 16 15  1  0
 17 16  2  0
 18 19  2  0
 18 17  1  0
 19 14  1  0
  2 20  1  0
  3 21  1  0
  4 22  1  0
  7 23  1  0
  8 24  1  0
  9 25  1  0
 16 26  1  0
 17 27  1  0
 18 28  1  0
 19 29  1  0
M  ISO  8  20  14  21  14  22  14  23  14  24  14  25  14  26  14  27  14
M  ISO  2  28  14  29  14
M  END
>  <minimizedAffinity>  (1) 
-5.54107285

>  <minimizedRMSD>  (1) 
1.21457827

$$$$
