
     RDKit          3D

 35 37  0  0  0  0  0  0  0  0999 V2000
   35.9370   30.2600   48.5450 C   0  0  0  0  0  0  0  0  0  0  0  0
   35.9000   29.3310   49.5750 C   0  0  0  0  0  0  0  0  0  0  0  0
   34.9300   28.3460   49.6530 C   0  0  0  0  0  0  0  0  0  0  0  0
   34.0080   28.3550   48.6360 C   0  0  0  0  0  0  0  0  0  0  0  0
   34.0150   29.2680   47.5920 C   0  0  0  0  0  0  0  0  0  0  0  0
   35.0070   30.2180   47.5800 N   0  0  0  0  0  0  0  0  0  0  0  0
   38.0730   33.0630   49.4980 C   0  0  0  0  0  0  0  0  0  0  0  0
   38.9820   33.1570   48.4470 C   0  0  0  0  0  0  0  0  0  0  0  0
   38.8450   32.2380   47.4020 C   0  0  0  0  0  0  0  0  0  0  0  0
   37.8370   31.3170   47.4860 N   0  0  0  0  0  0  0  0  0  0  0  0
   36.9830   31.2660   48.5250 C   0  0  0  0  0  0  0  0  0  0  0  0
   37.1030   32.1430   49.5340 N   0  0  0  0  0  0  0  0  0  0  0  0
   32.9930   29.2490   46.4990 C   0  0  0  0  0  0  0  0  0  0  0  0
   31.8100   28.4820   47.0250 C   0  0  0  0  0  0  0  0  0  0  0  0
   30.6200   28.5190   46.1110 C   0  0  0  0  0  0  0  0  0  0  0  0
   30.3780   29.8490   45.4750 C   0  0  0  0  0  0  0  0  0  0  0  0
   31.6070   30.5460   44.9820 C   0  0  0  0  0  0  0  0  0  0  0  0
   32.5770   30.6580   46.1350 C   0  0  0  0  0  0  0  0  0  0  0  0
   36.6701   29.3788   50.3590 H   0  0  0  0  0  0  0  0  0  0  0  0
   34.9004   27.6101   50.4701 H   0  0  0  0  0  0  0  0  0  0  0  0
   33.2158   27.5920   48.6499 H   0  0  0  0  0  0  0  0  0  0  0  0
   38.1563   33.7746   50.3327 H   0  0  0  0  0  0  0  0  0  0  0  0
   39.7734   33.9210   48.4393 H   0  0  0  0  0  0  0  0  0  0  0  0
   39.5268   32.2551   46.5390 H   0  0  0  0  0  0  0  0  0  0  0  0
   33.4016   28.7800   45.5918 H   0  0  0  0  0  0  0  0  0  0  0  0
   32.1093   27.4328   47.1651 H   0  0  0  0  0  0  0  0  0  0  0  0
   31.5084   28.9586   47.9694 H   0  0  0  0  0  0  0  0  0  0  0  0
   30.7747   27.7779   45.3130 H   0  0  0  0  0  0  0  0  0  0  0  0
   29.7381   28.2997   46.7309 H   0  0  0  0  0  0  0  0  0  0  0  0
   29.7031   29.7005   44.6191 H   0  0  0  0  0  0  0  0  0  0  0  0
   29.9527   30.4925   46.2592 H   0  0  0  0  0  0  0  0  0  0  0  0
   32.0629   29.9658   44.1662 H   0  0  0  0  0  0  0  0  0  0  0  0
   31.3513   31.5455   44.6004 H   0  0  0  0  0  0  0  0  0  0  0  0
   33.4564   31.2460   45.8335 H   0  0  0  0  0  0  0  0  0  0  0  0
   32.1113   31.1648   46.9931 H   0  0  0  0  0  0  0  0  0  0  0  0
  1  2  2  0
  2  3  1  0
  4  3  2  0
  5  4  1  0
  6  5  2  0
  6  1  1  0
  7 12  2  0
  8  7  1  0
  9 10  1  0
  9  8  2  0
 10 11  2  0
 11  1  1  0
 11 12  1  0
 13 14  1  0
 13  5  1  0
 15 14  1  0
 16 15  1  0
 17 16  1  0
 17 18  1  0
 18 13  1  0
  2 19  1  0
  3 20  1  0
  4 21  1  0
  7 22  1  0
  8 23  1  0
  9 24  1  0
 13 25  1  0
 14 26  1  0
 14 27  1  0
 15 28  1  0
 15 29  1  0
 16 30  1  0
 16 31  1  0
 17 32  1  0
 17 33  1  0
 18 34  1  0
 18 35  1  0
M  ISO  8  19  14  20  14  21  14  22  14  23  14  24  14  25  13  26  13
M  ISO  8  27  13  28  13  29  13  30  13  31  13  32  13  33  13  34  13
M  ISO  1  35  13
M  END
>  <minimizedAffinity>  (1) 
-5.42091274

>  <minimizedRMSD>  (1) 
0.153542206

$$$$
