
     RDKit          3D

 20 21  0  0  0  0  0  0  0  0999 V2000
   35.9260   30.2550   48.5730 C   0  0  0  0  0  0  0  0  0  0  0  0
   35.9250   29.3370   49.6150 C   0  0  0  0  0  0  0  0  0  0  0  0
   34.9420   28.3570   49.7010 C   0  0  0  0  0  0  0  0  0  0  0  0
   33.9950   28.3640   48.7060 C   0  0  0  0  0  0  0  0  0  0  0  0
   33.9780   29.2830   47.6460 C   0  0  0  0  0  0  0  0  0  0  0  0
   34.9780   30.2120   47.6350 N   0  0  0  0  0  0  0  0  0  0  0  0
   38.0660   33.0760   49.4940 C   0  0  0  0  0  0  0  0  0  0  0  0
   38.9690   33.1510   48.4250 C   0  0  0  0  0  0  0  0  0  0  0  0
   38.8370   32.2180   47.3780 C   0  0  0  0  0  0  0  0  0  0  0  0
   37.8250   31.2950   47.4780 N   0  0  0  0  0  0  0  0  0  0  0  0
   36.9780   31.2610   48.5290 C   0  0  0  0  0  0  0  0  0  0  0  0
   37.1130   32.1510   49.5160 N   0  0  0  0  0  0  0  0  0  0  0  0
   32.7270   29.2430   46.3850 S   0  0  0  0  0  0  0  0  0  0  0  0
   36.7118   29.3856   50.3822 H   0  0  0  0  0  0  0  0  0  0  0  0
   34.9239   27.6200   50.5174 H   0  0  0  0  0  0  0  0  0  0  0  0
   33.2017   27.6028   48.7425 H   0  0  0  0  0  0  0  0  0  0  0  0
   38.1474   33.7920   50.3251 H   0  0  0  0  0  0  0  0  0  0  0  0
   39.7585   33.9167   48.4041 H   0  0  0  0  0  0  0  0  0  0  0  0
   39.5178   32.2283   46.5141 H   0  0  0  0  0  0  0  0  0  0  0  0
   31.4892   29.2034   46.9708 H   0  0  0  0  0  0  0  0  0  0  0  0
  1  2  2  0
  2  3  1  0
  4  3  2  0
  5  4  1  0
  6  5  2  0
  6  1  1  0
  7 12  2  0
  8  7  1  0
  9 10  1  0
  9  8  2  0
 10 11  2  0
 11  1  1  0
 11 12  1  0
 13  5  1  0
  2 14  1  0
  3 15  1  0
  4 16  1  0
  7 17  1  0
  8 18  1  0
  9 19  1  0
 13 20  1  0
M  ISO  7  14  14  15  14  16  14  17  14  18  14  19  14  20  11
M  END
>  <minimizedAffinity>  (1) 
-4.8312645

>  <minimizedRMSD>  (1) 
0.0349294022

$$$$
