
     RDKit          3D

 43 46  0  0  0  0  0  0  0  0999 V2000
   36.9420   30.8740   49.3910 C   0  0  0  0  0  0  0  0  0  0  0  0
   37.0420   30.5340   50.7410 C   0  0  0  0  0  0  0  0  0  0  0  0
   36.1750   29.6150   51.2980 C   0  0  0  0  0  0  0  0  0  0  0  0
   35.2290   29.0690   50.4570 C   0  0  0  0  0  0  0  0  0  0  0  0
   35.1150   29.3950   49.1100 C   0  0  0  0  0  0  0  0  0  0  0  0
   35.9920   30.3030   48.6170 N   0  0  0  0  0  0  0  0  0  0  0  0
   34.1180   28.7820   48.3390 N   0  0  0  0  0  0  0  0  0  0  0  0
   33.0740   28.0560   49.0140 C   0  0  0  0  0  0  0  0  0  0  0  0
   32.2170   27.4050   47.9630 C   0  0  0  0  0  0  0  0  0  0  0  0
   31.6480   28.4680   47.0430 C   0  0  0  0  0  0  0  0  0  0  0  0
   32.7120   29.3470   46.4870 C   0  0  0  0  0  0  0  0  0  0  0  0
   34.0720   28.8360   46.8860 C   0  0  0  0  0  0  0  0  0  0  0  0
   39.1910   33.7400   49.0470 C   0  0  0  0  0  0  0  0  0  0  0  0
   39.6250   33.6310   47.7220 C   0  0  0  0  0  0  0  0  0  0  0  0
   39.1470   32.5860   46.9640 C   0  0  0  0  0  0  0  0  0  0  0  0
   38.2790   31.7270   47.5650 N   0  0  0  0  0  0  0  0  0  0  0  0
   37.8720   31.8460   48.8410 C   0  0  0  0  0  0  0  0  0  0  0  0
   38.3340   32.8500   49.5640 N   0  0  0  0  0  0  0  0  0  0  0  0
   39.4850   32.3130   45.5730 C   0  0  0  0  0  0  0  0  0  0  0  0
   40.2200   31.2110   45.1950 C   0  0  0  0  0  0  0  0  0  0  0  0
   40.5740   30.8960   43.8940 C   0  0  0  0  0  0  0  0  0  0  0  0
   40.1650   31.7430   42.8870 C   0  0  0  0  0  0  0  0  0  0  0  0
   39.4330   32.8370   43.2850 C   0  0  0  0  0  0  0  0  0  0  0  0
   39.1070   33.1120   44.5620 N   0  0  0  0  0  0  0  0  0  0  0  0
   37.8172   31.0016   51.3658 H   0  0  0  0  0  0  0  0  0  0  0  0
   36.2361   29.3328   52.3594 H   0  0  0  0  0  0  0  0  0  0  0  0
   34.5249   28.3343   50.8748 H   0  0  0  0  0  0  0  0  0  0  0  0
   33.5138   27.2881   49.6674 H   0  0  0  0  0  0  0  0  0  0  0  0
   32.4722   28.7352   49.6357 H   0  0  0  0  0  0  0  0  0  0  0  0
   32.8268   26.7015   47.3771 H   0  0  0  0  0  0  0  0  0  0  0  0
   31.3929   26.8612   48.4479 H   0  0  0  0  0  0  0  0  0  0  0  0
   31.1233   27.9749   46.2114 H   0  0  0  0  0  0  0  0  0  0  0  0
   30.9600   29.0944   47.6298 H   0  0  0  0  0  0  0  0  0  0  0  0
   32.5794   30.3677   46.8751 H   0  0  0  0  0  0  0  0  0  0  0  0
   32.6378   29.3493   45.3895 H   0  0  0  0  0  0  0  0  0  0  0  0
   34.2312   27.8306   46.4689 H   0  0  0  0  0  0  0  0  0  0  0  0
   34.8601   29.4999   46.5010 H   0  0  0  0  0  0  0  0  0  0  0  0
   39.5581   34.5671   49.6724 H   0  0  0  0  0  0  0  0  0  0  0  0
   40.3296   34.3609   47.2968 H   0  0  0  0  0  0  0  0  0  0  0  0
   40.5521   30.5269   45.9898 H   0  0  0  0  0  0  0  0  0  0  0  0
   41.1648   29.9954   43.6707 H   0  0  0  0  0  0  0  0  0  0  0  0
   40.4088   31.5558   41.8308 H   0  0  0  0  0  0  0  0  0  0  0  0
   39.0904   33.5350   42.5069 H   0  0  0  0  0  0  0  0  0  0  0  0
  1  2  2  0
  2  3  1  0
  4  3  2  0
  5  4  1  0
  6  5  2  0
  6  1  1  0
  7  8  1  0
  7  5  1  0
  9  8  1  0
 10  9  1  0
 11 12  1  0
 11 10  1  0
 12  7  1  0
 13 18  2  0
 14 13  1  0
 15 16  1  0
 15 14  2  0
 16 17  2  0
 17  1  1  0
 17 18  1  0
 19 15  1  0
 20 19  2  0
 21 20  1  0
 22 23  1  0
 22 21  2  0
 23 24  2  0
 24 19  1  0
  2 25  1  0
  3 26  1  0
  4 27  1  0
  8 28  1  0
  8 29  1  0
  9 30  1  0
  9 31  1  0
 10 32  1  0
 10 33  1  0
 11 34  1  0
 11 35  1  0
 12 36  1  0
 12 37  1  0
 13 38  1  0
 14 39  1  0
 20 40  1  0
 21 41  1  0
 22 42  1  0
 23 43  1  0
M  ISO  8  25  14  26  14  27  14  28  13  29  13  30  13  31  13  32  13
M  ISO  8  33  13  34  13  35  13  36  13  37  13  38  14  39  14  40  14
M  ISO  3  41  14  42  14  43  14
M  END
>  <minimizedAffinity>  (1) 
-7.33714294

>  <minimizedRMSD>  (1) 
1.67769229

$$$$
