
     RDKit          3D

 36 38  0  0  0  0  0  0  0  0999 V2000
   35.9610   30.2960   48.5960 C   0  0  0  0  0  0  0  0  0  0  0  0
   35.9790   29.3230   49.5720 C   0  0  0  0  0  0  0  0  0  0  0  0
   34.9980   28.3510   49.6220 C   0  0  0  0  0  0  0  0  0  0  0  0
   34.0220   28.4230   48.6440 C   0  0  0  0  0  0  0  0  0  0  0  0
   33.9930   29.3980   47.6540 C   0  0  0  0  0  0  0  0  0  0  0  0
   34.9780   30.3130   47.6660 N   0  0  0  0  0  0  0  0  0  0  0  0
   32.9490   29.3660   46.7130 N   0  0  0  0  0  0  0  0  0  0  0  0
   31.8240   28.4990   46.9500 C   0  0  0  0  0  0  0  0  0  0  0  0
   30.9160   28.5820   45.7500 C   0  0  0  0  0  0  0  0  0  0  0  0
   30.4950   30.0110   45.4990 C   0  0  0  0  0  0  0  0  0  0  0  0
   31.6540   30.9520   45.4790 C   0  0  0  0  0  0  0  0  0  0  0  0
   32.9320   30.1590   45.4980 C   0  0  0  0  0  0  0  0  0  0  0  0
   38.1190   33.0890   49.5800 C   0  0  0  0  0  0  0  0  0  0  0  0
   38.9840   33.2240   48.4970 C   0  0  0  0  0  0  0  0  0  0  0  0
   38.8180   32.3560   47.4430 C   0  0  0  0  0  0  0  0  0  0  0  0
   37.8220   31.4130   47.5080 N   0  0  0  0  0  0  0  0  0  0  0  0
   37.0070   31.3110   48.5680 C   0  0  0  0  0  0  0  0  0  0  0  0
   37.1590   32.1500   49.6000 N   0  0  0  0  0  0  0  0  0  0  0  0
   39.6730   32.4190   46.2650 C   0  0  0  0  0  0  0  0  0  0  0  0
   40.2360   33.4990   45.9870 O   0  0  0  0  0  0  0  0  0  0  0  0
   36.7847   29.3201   50.3209 H   0  0  0  0  0  0  0  0  0  0  0  0
   34.9934   27.5668   50.3934 H   0  0  0  0  0  0  0  0  0  0  0  0
   33.2240   27.6659   48.6504 H   0  0  0  0  0  0  0  0  0  0  0  0
   32.1714   27.4641   47.0852 H   0  0  0  0  0  0  0  0  0  0  0  0
   31.2872   28.8069   47.8594 H   0  0  0  0  0  0  0  0  0  0  0  0
   31.4493   28.2018   44.8662 H   0  0  0  0  0  0  0  0  0  0  0  0
   30.0180   27.9766   45.9425 H   0  0  0  0  0  0  0  0  0  0  0  0
   29.9818   30.0623   44.5274 H   0  0  0  0  0  0  0  0  0  0  0  0
   29.8317   30.3142   46.3225 H   0  0  0  0  0  0  0  0  0  0  0  0
   31.6130   31.6058   46.3627 H   0  0  0  0  0  0  0  0  0  0  0  0
   31.6144   31.5695   44.5695 H   0  0  0  0  0  0  0  0  0  0  0  0
   32.9742   29.4978   44.6199 H   0  0  0  0  0  0  0  0  0  0  0  0
   33.8007   30.8331   45.4692 H   0  0  0  0  0  0  0  0  0  0  0  0
   38.2245   33.7675   50.4394 H   0  0  0  0  0  0  0  0  0  0  0  0
   39.7691   33.9944   48.4849 H   0  0  0  0  0  0  0  0  0  0  0  0
   39.8201   31.5316   45.6318 H   0  0  0  0  0  0  0  0  0  0  0  0
  1  2  2  0
  2  3  1  0
  4  3  2  0
  5  6  2  0
  5  4  1  0
  6  1  1  0
  7  8  1  0
  7  5  1  0
  9  8  1  0
 10  9  1  0
 11 12  1  0
 11 10  1  0
 12  7  1  0
 13 18  2  0
 14 13  1  0
 15 16  1  0
 15 14  2  0
 16 17  2  0
 17  1  1  0
 17 18  1  0
 19 15  1  0
 20 19  2  0
  2 21  1  0
  3 22  1  0
  4 23  1  0
  8 24  1  0
  8 25  1  0
  9 26  1  0
  9 27  1  0
 10 28  1  0
 10 29  1  0
 11 30  1  0
 11 31  1  0
 12 32  1  0
 12 33  1  0
 13 34  1  0
 14 35  1  0
 19 36  1  0
M  ISO  8  21  14  22  14  23  14  24  13  25  13  26  13  27  13  28  13
M  ISO  8  29  13  30  13  31  13  32  13  33  13  34  14  35  14  36   6
M  END
>  <minimizedAffinity>  (1) 
-6.05121279

>  <minimizedRMSD>  (1) 
0.160466313

$$$$
