
     RDKit          3D

 36 38  0  0  1  0  0  0  0  0999 V2000
   38.7970   31.8450   48.5040 C   0  0  1  0  0  0  0  0  0  0  0  0
   38.5900   33.1970   49.1860 C   0  0  0  0  0  0  0  0  0  0  0  0
   37.4450   32.3130   48.8630 C   0  0  2  0  0  0  0  0  0  0  0  0
   36.6840   31.6630   49.9910 C   0  0  0  0  0  0  0  0  0  0  0  0
   35.4100   31.0790   49.4260 C   0  0  0  0  0  0  0  0  0  0  0  0
   35.7680   29.8340   48.6610 C   0  0  0  0  0  0  0  0  0  0  0  0
   36.1900   28.8330   49.7230 C   0  0  0  0  0  0  0  0  0  0  0  0
   37.4210   29.2740   50.4560 C   0  0  0  0  0  0  0  0  0  0  0  0
   37.4910   30.7080   50.7930 C   0  0  0  0  0  0  0  0  0  0  0  0
   39.3390   31.9690   47.1110 C   0  0  0  0  0  0  0  0  0  0  0  0
   37.2000   32.2640   44.0440 C   0  0  0  0  0  0  0  0  0  0  0  0
   38.1750   32.5460   45.0380 C   0  0  0  0  0  0  0  0  0  0  0  0
   38.3160   31.6440   46.0940 C   0  0  0  0  0  0  0  0  0  0  0  0
   37.5300   30.5610   46.1210 N   0  0  0  0  0  0  0  0  0  0  0  0
   36.6060   30.3120   45.1630 C   0  0  0  0  0  0  0  0  0  0  0  0
   36.4540   31.1760   44.1270 N   0  0  0  0  0  0  0  0  0  0  0  0
   39.3110   30.8889   48.6820 H   0  0  0  0  0  0  0  0  0  0  0  0
   38.8992   33.3429   50.2315 H   0  0  0  0  0  0  0  0  0  0  0  0
   38.8650   34.2388   48.9648 H   0  0  0  0  0  0  0  0  0  0  0  0
   36.5115   32.4327   48.2935 H   0  0  0  0  0  0  0  0  0  0  0  0
   36.4219   32.4288   50.7359 H   0  0  0  0  0  0  0  0  0  0  0  0
   34.7192   30.8284   50.2445 H   0  0  0  0  0  0  0  0  0  0  0  0
   34.9175   31.8060   48.7635 H   0  0  0  0  0  0  0  0  0  0  0  0
   34.8985   29.4604   48.1003 H   0  0  0  0  0  0  0  0  0  0  0  0
   36.5627   30.0150   47.9223 H   0  0  0  0  0  0  0  0  0  0  0  0
   35.3694   28.7159   50.4461 H   0  0  0  0  0  0  0  0  0  0  0  0
   36.4177   27.8815   49.2203 H   0  0  0  0  0  0  0  0  0  0  0  0
   37.4764   28.7040   51.3952 H   0  0  0  0  0  0  0  0  0  0  0  0
   38.2593   29.0886   49.7684 H   0  0  0  0  0  0  0  0  0  0  0  0
   38.5437   31.0130   50.6990 H   0  0  0  0  0  0  0  0  0  0  0  0
   37.0581   30.7697   51.8023 H   0  0  0  0  0  0  0  0  0  0  0  0
   39.6828   33.0019   46.9531 H   0  0  0  0  0  0  0  0  0  0  0  0
   40.1691   31.2556   47.0018 H   0  0  0  0  0  0  0  0  0  0  0  0
   37.0650   32.9558   43.1995 H   0  0  0  0  0  0  0  0  0  0  0  0
   38.8006   33.4488   44.9773 H   0  0  0  0  0  0  0  0  0  0  0  0
   35.9790   29.4103   45.2242 H   0  0  0  0  0  0  0  0  0  0  0  0
  1  3  1  0
  1  2  1  0
  3  2  1  0
  3  4  1  0
  4  9  1  0
  5  4  1  0
  6  5  1  0
  6  7  1  0
  7  8  1  0
  8  9  1  0
 10  1  1  0
 11 16  2  0
 11 12  1  0
 12 13  2  0
 13 14  1  0
 13 10  1  0
 15 14  2  0
 16 15  1  0
  1 17  1  1
  2 18  1  0
  2 19  1  0
  3 20  1  6
  4 21  1  0
  5 22  1  0
  5 23  1  0
  6 24  1  0
  6 25  1  0
  7 26  1  0
  7 27  1  0
  8 28  1  0
  8 29  1  0
  9 30  1  0
  9 31  1  0
 10 32  1  0
 10 33  1  0
 11 34  1  0
 12 35  1  0
 15 36  1  0
M  ISO  8  17  13  18  13  19  13  20  13  21  13  22  13  23  13  24  13
M  ISO  8  25  13  26  13  27  13  28  13  29  13  30  13  31  13  32   8
M  ISO  4  33   8  34  14  35  14  36  14
M  END
>  <minimizedAffinity>  (1) 
-5.58843803

>  <minimizedRMSD>  (1) 
5.73736525

$$$$
