
     RDKit          3D

 35 37  0  0  1  0  0  0  0  0999 V2000
   35.8590   29.7120   48.7220 N   0  0  0  0  0  0  0  0  0  0  0  0
   36.5190   28.8850   49.7090 C   0  0  0  0  0  0  0  0  0  0  0  0
   36.9910   29.5270   50.9310 C   0  0  0  0  0  0  0  0  0  0  0  0
   37.3570   30.9560   50.8780 C   0  0  0  0  0  0  0  0  0  0  0  0
   36.6550   31.7170   49.7840 C   0  0  0  0  0  0  0  0  0  0  0  0
   36.6720   30.8780   48.5040 C   0  0  1  0  0  0  0  0  0  0  0  0
   34.6220   29.4070   48.0890 C   0  0  0  0  0  0  0  0  0  0  0  0
   34.1200   30.0910   46.9800 C   0  0  0  0  0  0  0  0  0  0  0  0
   32.8990   29.6890   46.4620 C   0  0  0  0  0  0  0  0  0  0  0  0
   32.2510   28.6560   47.0500 N   0  0  0  0  0  0  0  0  0  0  0  0
   32.7720   28.0160   48.1260 C   0  0  0  0  0  0  0  0  0  0  0  0
   33.9500   28.3940   48.6380 N   0  0  0  0  0  0  0  0  0  0  0  0
   38.0300   30.5320   48.3170 O   0  0  0  0  0  0  0  0  0  0  0  0
   38.6380   31.0750   47.1910 C   0  0  0  0  0  0  0  0  0  0  0  0
   39.1880   32.3390   47.2480 C   0  0  0  0  0  0  0  0  0  0  0  0
   39.8240   33.0110   46.2170 C   0  0  0  0  0  0  0  0  0  0  0  0
   39.8830   32.2960   45.0350 C   0  0  0  0  0  0  0  0  0  0  0  0
   39.3430   31.0270   44.9380 C   0  0  0  0  0  0  0  0  0  0  0  0
   38.7420   30.4520   45.9980 N   0  0  0  0  0  0  0  0  0  0  0  0
   35.8092   28.0985   50.0051 H   0  0  0  0  0  0  0  0  0  0  0  0
   37.4345   28.5358   49.2091 H   0  0  0  0  0  0  0  0  0  0  0  0
   36.1935   29.4234   51.6815 H   0  0  0  0  0  0  0  0  0  0  0  0
   37.9375   29.0141   51.1571 H   0  0  0  0  0  0  0  0  0  0  0  0
   37.0997   31.4171   51.8430 H   0  0  0  0  0  0  0  0  0  0  0  0
   38.4351   31.0057   50.6655 H   0  0  0  0  0  0  0  0  0  0  0  0
   35.6147   31.9150   50.0815 H   0  0  0  0  0  0  0  0  0  0  0  0
   37.1684   32.6738   49.6082 H   0  0  0  0  0  0  0  0  0  0  0  0
   36.2758   31.4014   47.6214 H   0  0  0  0  0  0  0  0  0  0  0  0
   34.6780   30.9255   46.5301 H   0  0  0  0  0  0  0  0  0  0  0  0
   32.4647   30.1995   45.5898 H   0  0  0  0  0  0  0  0  0  0  0  0
   32.2223   27.1794   48.5820 H   0  0  0  0  0  0  0  0  0  0  0  0
   39.1140   32.8670   48.2102 H   0  0  0  0  0  0  0  0  0  0  0  0
   40.2439   34.0216   46.3285 H   0  0  0  0  0  0  0  0  0  0  0  0
   40.3684   32.7450   44.1559 H   0  0  0  0  0  0  0  0  0  0  0  0
   39.4047   30.4809   43.9851 H   0  0  0  0  0  0  0  0  0  0  0  0
  1  2  1  0
  2  3  1  0
  4  3  1  0
  5  4  1  0
  6  1  1  0
  6  5  1  0
  7 12  1  0
  7  1  1  0
  8  7  2  0
  9  8  1  0
  9 10  2  0
 10 11  1  0
 11 12  2  0
 13  6  1  0
 14 15  2  0
 14 13  1  0
 16 15  1  0
 17 16  2  0
 18 17  1  0
 18 19  2  0
 19 14  1  0
  2 20  1  0
  2 21  1  0
  3 22  1  0
  3 23  1  0
  4 24  1  0
  4 25  1  0
  5 26  1  0
  5 27  1  0
  6 28  1  6
  8 29  1  0
  9 30  1  0
 11 31  1  0
 15 32  1  0
 16 33  1  0
 17 34  1  0
 18 35  1  0
M  ISO  8  20  13  21  13  22  13  23  13  24  13  25  13  26  13  27  13
M  ISO  8  28  13  29  14  30  14  31  14  32  14  33  14  34  14  35  14
M  END
>  <minimizedAffinity>  (1) 
-5.8125248

>  <minimizedRMSD>  (1) 
0.32702893

$$$$
