
     RDKit          3D

 30 31  0  0  1  0  0  0  0  0999 V2000
   35.9420   29.7120   48.8330 N   0  0  0  0  0  0  0  0  0  0  0  0
   36.6590   28.8680   49.7660 C   0  0  0  0  0  0  0  0  0  0  0  0
   37.1120   29.4620   51.0180 C   0  0  0  0  0  0  0  0  0  0  0  0
   37.3720   30.9190   51.0450 C   0  0  0  0  0  0  0  0  0  0  0  0
   36.6590   31.6990   49.9750 C   0  0  0  0  0  0  0  0  0  0  0  0
   36.6980   30.9250   48.6740 C   0  0  1  0  0  0  0  0  0  0  0  0
   34.7040   29.3820   48.1950 C   0  0  0  0  0  0  0  0  0  0  0  0
   34.2090   30.0470   47.0750 C   0  0  0  0  0  0  0  0  0  0  0  0
   32.9870   29.6170   46.5560 C   0  0  0  0  0  0  0  0  0  0  0  0
   32.3520   28.5780   47.1710 N   0  0  0  0  0  0  0  0  0  0  0  0
   32.8760   27.9770   48.2440 C   0  0  0  0  0  0  0  0  0  0  0  0
   34.0510   28.3750   48.7620 N   0  0  0  0  0  0  0  0  0  0  0  0
   38.0660   30.6510   48.4360 O   0  0  0  0  0  0  0  0  0  0  0  0
   38.7920   31.4700   47.5670 C   0  0  0  0  0  0  0  0  0  0  0  0
   38.7110   32.7260   47.6290 O   0  0  0  0  0  0  0  0  0  0  0  0
   39.6850   31.0580   46.5330 N   0  0  0  0  0  0  0  0  0  0  0  0
   35.9965   28.0284   50.0232 H   0  0  0  0  0  0  0  0  0  0  0  0
   37.5860   28.6005   49.2378 H   0  0  0  0  0  0  0  0  0  0  0  0
   36.3422   29.2536   51.7757 H   0  0  0  0  0  0  0  0  0  0  0  0
   38.0965   29.0052   51.1969 H   0  0  0  0  0  0  0  0  0  0  0  0
   37.0529   31.3070   52.0236 H   0  0  0  0  0  0  0  0  0  0  0  0
   38.4489   31.0484   50.8618 H   0  0  0  0  0  0  0  0  0  0  0  0
   35.6129   31.8601   50.2744 H   0  0  0  0  0  0  0  0  0  0  0  0
   37.1555   32.6710   49.8379 H   0  0  0  0  0  0  0  0  0  0  0  0
   36.2609   31.4788   47.8300 H   0  0  0  0  0  0  0  0  0  0  0  0
   34.7613   30.8806   46.6166 H   0  0  0  0  0  0  0  0  0  0  0  0
   32.5469   30.1037   45.6731 H   0  0  0  0  0  0  0  0  0  0  0  0
   32.3355   27.1410   48.7119 H   0  0  0  0  0  0  0  0  0  0  0  0
   39.8509   30.0554   46.3650 H   0  0  0  0  0  0  0  0  0  0  0  0
   40.1636   31.7632   45.9546 H   0  0  0  0  0  0  0  0  0  0  0  0
  1  2  1  0
  2  3  1  0
  3  4  1  0
  5  4  1  0
  6  1  1  0
  6  5  1  0
  7 12  1  0
  7  1  1  0
  8  7  2  0
  9  8  1  0
  9 10  2  0
 10 11  1  0
 11 12  2  0
 13  6  1  0
 14 15  2  0
 14 13  1  0
 16 14  1  0
  2 17  1  0
  2 18  1  0
  3 19  1  0
  3 20  1  0
  4 21  1  0
  4 22  1  0
  5 23  1  0
  5 24  1  0
  6 25  1  6
  8 26  1  0
  9 27  1  0
 11 28  1  0
 16 29  1  0
 16 30  1  0
M  ISO  8  17  13  18  13  19  13  20  13  21  13  22  13  23  13  24  13
M  ISO  4  25  13  26  14  27  14  28  14
M  END
>  <minimizedAffinity>  (1) 
-4.99396133

>  <minimizedRMSD>  (1) 
0.489744097

$$$$
