
     RDKit          3D

 35 38  0  0  0  0  0  0  0  0999 V2000
   37.9760   30.5020   47.2790 F   0  0  0  0  0  0  0  0  0  0  0  0
   38.4310   31.6660   47.7960 C   0  0  0  0  0  0  0  0  0  0  0  0
   38.1190   32.0040   49.0750 C   0  0  0  0  0  0  0  0  0  0  0  0
   38.6160   33.1990   49.5300 C   0  0  0  0  0  0  0  0  0  0  0  0
   39.3930   34.0350   48.7570 C   0  0  0  0  0  0  0  0  0  0  0  0
   39.6940   33.6660   47.4670 C   0  0  0  0  0  0  0  0  0  0  0  0
   39.2040   32.4620   46.9770 C   0  0  0  0  0  0  0  0  0  0  0  0
   39.5450   32.1060   45.6030 C   0  0  0  0  0  0  0  0  0  0  0  0
   40.6000   31.2750   45.2720 C   0  0  0  0  0  0  0  0  0  0  0  0
   40.8100   31.0220   43.9330 C   0  0  0  0  0  0  0  0  0  0  0  0
   40.0110   31.5660   42.9480 C   0  0  0  0  0  0  0  0  0  0  0  0
   40.1890   31.3380   41.6200 N   0  0  0  0  0  0  0  0  0  0  0  0
   39.3810   31.8930   40.6950 C   0  0  0  0  0  0  0  0  0  0  0  0
   38.3230   32.7260   40.9990 C   0  0  0  0  0  0  0  0  0  0  0  0
   38.1110   32.9810   42.3590 C   0  0  0  0  0  0  0  0  0  0  0  0
   38.9590   32.3950   43.2790 C   0  0  0  0  0  0  0  0  0  0  0  0
   38.7300   32.6630   44.6360 C   0  0  0  0  0  0  0  0  0  0  0  0
   36.9430   29.5630   51.7200 C   0  0  0  0  0  0  0  0  0  0  0  0
   37.7620   30.4380   50.9910 C   0  0  0  0  0  0  0  0  0  0  0  0
   37.2910   31.0870   49.8560 C   0  0  0  0  0  0  0  0  0  0  0  0
   36.0090   30.8290   49.4980 N   0  0  0  0  0  0  0  0  0  0  0  0
   35.2370   29.9840   50.2110 C   0  0  0  0  0  0  0  0  0  0  0  0
   35.6920   29.3570   51.3060 N   0  0  0  0  0  0  0  0  0  0  0  0
   38.3834   33.5046   50.5608 H   0  0  0  0  0  0  0  0  0  0  0  0
   39.7673   34.9848   49.1667 H   0  0  0  0  0  0  0  0  0  0  0  0
   40.3143   34.3153   46.8317 H   0  0  0  0  0  0  0  0  0  0  0  0
   41.2454   30.8338   46.0458 H   0  0  0  0  0  0  0  0  0  0  0  0
   41.6420   30.3647   43.6401 H   0  0  0  0  0  0  0  0  0  0  0  0
   39.5760   31.6691   39.6358 H   0  0  0  0  0  0  0  0  0  0  0  0
   37.6838   33.1638   40.2181 H   0  0  0  0  0  0  0  0  0  0  0  0
   37.2882   33.6329   42.6877 H   0  0  0  0  0  0  0  0  0  0  0  0
   37.8983   33.3192   44.9321 H   0  0  0  0  0  0  0  0  0  0  0  0
   37.3260   29.0555   52.6177 H   0  0  0  0  0  0  0  0  0  0  0  0
   38.7957   30.6136   51.3237 H   0  0  0  0  0  0  0  0  0  0  0  0
   34.2022   29.8033   49.8846 H   0  0  0  0  0  0  0  0  0  0  0  0
  1  2  1  0
  2  3  2  0
  3  4  1  0
  3 20  1  0
  5  4  2  0
  6  5  1  0
  7  6  2  0
  7  2  1  0
  8  7  1  0
  9  8  2  0
 10  9  1  0
 11 16  1  0
 11 10  2  0
 12 11  1  0
 13 14  1  0
 13 12  2  0
 14 15  2  0
 15 16  1  0
 16 17  2  0
 17  8  1  0
 19 18  2  0
 20 19  1  0
 21 20  2  0
 21 22  1  0
 22 23  2  0
 23 18  1  0
  4 24  1  0
  5 25  1  0
  6 26  1  0
  9 27  1  0
 10 28  1  0
 13 29  1  0
 14 30  1  0
 15 31  1  0
 17 32  1  0
 18 33  1  0
 19 34  1  0
 22 35  1  0
M  ISO  8  24  14  25  14  26  14  27  14  28  14  29  14  30  14  31  14
M  ISO  4  32  14  33  14  34  14  35  14
M  END
>  <minimizedAffinity>  (1) 
-7.41770649

>  <minimizedRMSD>  (1) 
0.584264457

$$$$
