
     RDKit          3D

 33 35  0  0  1  0  0  0  0  0999 V2000
   37.8650   32.3110   48.2480 C   0  0  1  0  0  0  0  0  0  0  0  0
   39.1550   32.8840   47.6380 C   0  0  0  0  0  0  0  0  0  0  0  0
   38.5320   31.6190   47.1400 C   0  0  2  0  0  0  0  0  0  0  0  0
   38.6490   32.3300   44.7910 C   0  0  0  0  0  0  0  0  0  0  0  0
   37.9960   31.6180   45.7790 C   0  0  0  0  0  0  0  0  0  0  0  0
   36.8450   30.9080   45.4890 C   0  0  0  0  0  0  0  0  0  0  0  0
   36.3710   30.9370   44.1760 C   0  0  0  0  0  0  0  0  0  0  0  0
   37.0240   31.6490   43.1900 C   0  0  0  0  0  0  0  0  0  0  0  0
   38.1750   32.3530   43.4970 C   0  0  0  0  0  0  0  0  0  0  0  0
   40.1150   33.2180   45.2160 S   0  0  0  0  0  0  0  0  0  0  0  0
   40.2260   34.4280   44.3450 O   0  0  0  0  0  0  0  0  0  0  0  0
   41.2430   32.2310   44.9570 O   0  0  0  0  0  0  0  0  0  0  0  0
   38.0210   31.9100   49.6750 C   0  0  0  0  0  0  0  0  0  0  0  0
   36.3010   29.2870   51.7030 C   0  0  0  0  0  0  0  0  0  0  0  0
   37.2980   30.2020   51.2720 C   0  0  0  0  0  0  0  0  0  0  0  0
   36.9930   30.9550   50.1350 C   0  0  0  0  0  0  0  0  0  0  0  0
   35.8100   30.7970   49.5070 N   0  0  0  0  0  0  0  0  0  0  0  0
   34.8890   29.8990   49.9700 C   0  0  0  0  0  0  0  0  0  0  0  0
   35.1470   29.1530   51.0670 N   0  0  0  0  0  0  0  0  0  0  0  0
   36.8108   32.5886   48.3948 H   0  0  0  0  0  0  0  0  0  0  0  0
   39.1227   33.7979   47.0266 H   0  0  0  0  0  0  0  0  0  0  0  0
   40.1437   33.1824   48.0167 H   0  0  0  0  0  0  0  0  0  0  0  0
   38.8529   30.5743   47.0147 H   0  0  0  0  0  0  0  0  0  0  0  0
   36.3191   30.3379   46.2690 H   0  0  0  0  0  0  0  0  0  0  0  0
   35.4571   30.3802   43.9217 H   0  0  0  0  0  0  0  0  0  0  0  0
   36.6304   31.6567   42.1629 H   0  0  0  0  0  0  0  0  0  0  0  0
   38.7043   32.9230   42.7192 H   0  0  0  0  0  0  0  0  0  0  0  0
   40.1337   33.6643   46.5111 H   0  0  0  0  0  0  0  0  0  0  0  0
   39.0096   31.4439   49.7995 H   0  0  0  0  0  0  0  0  0  0  0  0
   37.9097   32.8214   50.2808 H   0  0  0  0  0  0  0  0  0  0  0  0
   36.4933   28.6701   52.5932 H   0  0  0  0  0  0  0  0  0  0  0  0
   38.2553   30.3117   51.8027 H   0  0  0  0  0  0  0  0  0  0  0  0
   33.9294   29.7826   49.4450 H   0  0  0  0  0  0  0  0  0  0  0  0
  1 13  1  0
  2  1  1  0
  3  2  1  0
  3  1  1  0
  4 10  1  0
  4  5  2  0
  5  3  1  0
  6  5  1  0
  7  6  2  0
  8  9  2  0
  8  7  1  0
  9  4  1  0
 11 10  2  0
 12 10  2  0
 13 16  1  0
 15 14  2  0
 16 15  1  0
 17 18  1  0
 17 16  2  0
 18 19  2  0
 19 14  1  0
  1 20  1  6
  2 21  1  0
  2 22  1  0
  3 23  1  1
  6 24  1  0
  7 25  1  0
  8 26  1  0
  9 27  1  0
 10 28  1  0
 13 29  1  0
 13 30  1  0
 14 31  1  0
 15 32  1  0
 18 33  1  0
M  ISO  8  20  13  21  13  22  13  23  13  24  14  25  14  26  14  27  14
M  ISO  6  28  11  29   8  30   8  31  14  32  14  33  14
M  END
>  <minimizedAffinity>  (1) 
-5.28813553

>  <minimizedRMSD>  (1) 
2.066082

$$$$
