
     RDKit          3D

 27 29  0  0  0  0  0  0  0  0999 V2000
   37.9960   30.6010   47.2680 F   0  0  0  0  0  0  0  0  0  0  0  0
   38.4480   31.7360   47.8270 C   0  0  0  0  0  0  0  0  0  0  0  0
   38.0850   32.0380   49.1170 C   0  0  0  0  0  0  0  0  0  0  0  0
   38.5630   33.2020   49.6580 C   0  0  0  0  0  0  0  0  0  0  0  0
   39.3820   34.0610   48.9570 C   0  0  0  0  0  0  0  0  0  0  0  0
   39.7390   33.7370   47.6540 C   0  0  0  0  0  0  0  0  0  0  0  0
   39.2590   32.5580   47.0960 C   0  0  0  0  0  0  0  0  0  0  0  0
   36.7610   29.5020   51.6040 C   0  0  0  0  0  0  0  0  0  0  0  0
   37.6160   30.3920   50.9420 C   0  0  0  0  0  0  0  0  0  0  0  0
   37.2160   31.1040   49.8260 C   0  0  0  0  0  0  0  0  0  0  0  0
   35.9330   30.8720   49.4220 N   0  0  0  0  0  0  0  0  0  0  0  0
   35.1180   30.0200   50.0550 C   0  0  0  0  0  0  0  0  0  0  0  0
   35.5190   29.3440   51.1270 N   0  0  0  0  0  0  0  0  0  0  0  0
   39.6770   32.2890   45.7270 C   0  0  0  0  0  0  0  0  0  0  0  0
   40.5650   31.3730   45.2150 C   0  0  0  0  0  0  0  0  0  0  0  0
   40.6610   31.4590   43.8820 N   0  0  0  0  0  0  0  0  0  0  0  0
   39.8240   32.4430   43.5310 C   0  0  0  0  0  0  0  0  0  0  0  0
   39.2320   32.9420   44.6420 N   0  0  0  0  0  0  0  0  0  0  0  0
   38.2830   33.4608   50.6898 H   0  0  0  0  0  0  0  0  0  0  0  0
   39.7472   34.9886   49.4220 H   0  0  0  0  0  0  0  0  0  0  0  0
   40.3922   34.4040   47.0723 H   0  0  0  0  0  0  0  0  0  0  0  0
   37.1000   28.9477   52.4916 H   0  0  0  0  0  0  0  0  0  0  0  0
   38.6391   30.5292   51.3221 H   0  0  0  0  0  0  0  0  0  0  0  0
   34.0940   29.8759   49.6801 H   0  0  0  0  0  0  0  0  0  0  0  0
   41.1297   30.6547   45.8275 H   0  0  0  0  0  0  0  0  0  0  0  0
   41.2524   30.8897   43.2599 H   0  0  0  0  0  0  0  0  0  0  0  0
   39.6454   32.7911   42.5029 H   0  0  0  0  0  0  0  0  0  0  0  0
  1  2  1  0
  2  3  2  0
  3  4  1  0
  3 10  1  0
  5  4  2  0
  6  5  1  0
  7  6  2  0
  7  2  1  0
  9  8  2  0
 10  9  1  0
 11 10  2  0
 11 12  1  0
 12 13  2  0
 13  8  1  0
 14  7  1  0
 15 14  2  0
 16 15  1  0
 17 16  1  0
 17 18  2  0
 18 14  1  0
  4 19  1  0
  5 20  1  0
  6 21  1  0
  8 22  1  0
  9 23  1  0
 12 24  1  0
 15 25  1  0
 16 26  1  0
 17 27  1  0
M  ISO  8  19  14  20  14  21  14  22  14  23  14  24  14  25  14  26   9
M  ISO  1  27  14
M  END
>  <minimizedAffinity>  (1) 
-6.47748804

>  <minimizedRMSD>  (1) 
0.666037858

$$$$
