
     RDKit          3D

 21 22  0  0  0  0  0  0  0  0999 V2000
   38.3960   30.7050   47.1790 F   0  0  0  0  0  0  0  0  0  0  0  0
   38.7580   31.8890   47.7450 C   0  0  0  0  0  0  0  0  0  0  0  0
   38.2960   32.1850   48.9850 C   0  0  0  0  0  0  0  0  0  0  0  0
   38.7000   33.4030   49.5060 C   0  0  0  0  0  0  0  0  0  0  0  0
   39.5230   34.2680   48.8060 C   0  0  0  0  0  0  0  0  0  0  0  0
   39.9660   33.9250   47.5530 C   0  0  0  0  0  0  0  0  0  0  0  0
   39.5730   32.7090   47.0140 C   0  0  0  0  0  0  0  0  0  0  0  0
   36.9930   29.6080   51.4140 C   0  0  0  0  0  0  0  0  0  0  0  0
   37.8630   30.5120   50.7830 C   0  0  0  0  0  0  0  0  0  0  0  0
   37.4340   31.2370   49.6720 C   0  0  0  0  0  0  0  0  0  0  0  0
   36.1690   31.0130   49.2650 N   0  0  0  0  0  0  0  0  0  0  0  0
   35.3480   30.1460   49.8770 C   0  0  0  0  0  0  0  0  0  0  0  0
   35.7620   29.4450   50.9510 N   0  0  0  0  0  0  0  0  0  0  0  0
   40.0450   32.4010   45.7400 O   0  0  0  0  0  0  0  0  0  0  0  0
   38.3553   33.6926   50.5096 H   0  0  0  0  0  0  0  0  0  0  0  0
   39.8213   35.2279   49.2527 H   0  0  0  0  0  0  0  0  0  0  0  0
   40.6213   34.6027   46.9862 H   0  0  0  0  0  0  0  0  0  0  0  0
   37.3325   29.0366   52.2905 H   0  0  0  0  0  0  0  0  0  0  0  0
   38.8851   30.6484   51.1661 H   0  0  0  0  0  0  0  0  0  0  0  0
   34.3250   30.0057   49.4977 H   0  0  0  0  0  0  0  0  0  0  0  0
   39.7925   31.5447   45.3122 H   0  0  0  0  0  0  0  0  0  0  0  0
  1  2  1  0
  2  3  2  0
  3  4  1  0
  3 10  1  0
  5  4  2  0
  6  5  1  0
  7  6  2  0
  7  2  1  0
  9  8  2  0
 10  9  1  0
 11 10  2  0
 11 12  1  0
 12 13  2  0
 13  8  1  0
 14  7  1  0
  4 15  1  0
  5 16  1  0
  6 17  1  0
  8 18  1  0
  9 19  1  0
 12 20  1  0
 14 21  1  0
M  ISO  7  15  14  16  14  17  14  18  14  19  14  20  14  21   3
M  END
>  <minimizedAffinity>  (1) 
-5.55620003

>  <minimizedRMSD>  (1) 
0.0295916572

$$$$
