
     RDKit          3D

 34 36  0  0  0  0  0  0  0  0999 V2000
   38.4280   30.4190   47.3200 F   0  0  0  0  0  0  0  0  0  0  0  0
   38.7170   31.6450   47.8130 C   0  0  0  0  0  0  0  0  0  0  0  0
   38.1670   32.0650   49.0070 C   0  0  0  0  0  0  0  0  0  0  0  0
   38.5050   33.3150   49.4430 C   0  0  0  0  0  0  0  0  0  0  0  0
   39.3500   34.1500   48.7530 C   0  0  0  0  0  0  0  0  0  0  0  0
   39.8930   33.7150   47.5590 C   0  0  0  0  0  0  0  0  0  0  0  0
   39.5690   32.4460   47.0880 C   0  0  0  0  0  0  0  0  0  0  0  0
   36.7750   29.5770   51.4930 C   0  0  0  0  0  0  0  0  0  0  0  0
   37.6600   30.4560   50.8500 C   0  0  0  0  0  0  0  0  0  0  0  0
   37.2760   31.1430   49.7010 C   0  0  0  0  0  0  0  0  0  0  0  0
   36.0160   30.9170   49.2440 N   0  0  0  0  0  0  0  0  0  0  0  0
   35.1730   30.0680   49.8680 C   0  0  0  0  0  0  0  0  0  0  0  0
   35.5480   29.4120   50.9730 N   0  0  0  0  0  0  0  0  0  0  0  0
   39.2660   32.1510   44.7230 C   0  0  0  0  0  0  0  0  0  0  0  0
   38.1540   32.6990   44.9830 O   0  0  0  0  0  0  0  0  0  0  0  0
   40.1160   31.9750   45.8590 N   0  0  0  0  0  0  0  0  0  0  0  0
   39.5760   31.7660   43.3560 C   0  0  0  0  0  0  0  0  0  0  0  0
   40.4150   30.6790   43.2240 C   0  0  0  0  0  0  0  0  0  0  0  0
   40.7470   30.2630   41.9300 C   0  0  0  0  0  0  0  0  0  0  0  0
   40.2230   30.9550   40.8410 C   0  0  0  0  0  0  0  0  0  0  0  0
   39.3730   32.0530   41.0180 C   0  0  0  0  0  0  0  0  0  0  0  0
   39.0460   32.4640   42.2940 C   0  0  0  0  0  0  0  0  0  0  0  0
   38.0796   33.6702   50.3932 H   0  0  0  0  0  0  0  0  0  0  0  0
   39.5906   35.1493   49.1448 H   0  0  0  0  0  0  0  0  0  0  0  0
   40.5731   34.3639   46.9877 H   0  0  0  0  0  0  0  0  0  0  0  0
   37.0791   29.0361   52.4013 H   0  0  0  0  0  0  0  0  0  0  0  0
   38.6703   30.6044   51.2589 H   0  0  0  0  0  0  0  0  0  0  0  0
   34.1623   29.9126   49.4625 H   0  0  0  0  0  0  0  0  0  0  0  0
   41.0486   31.5426   45.7945 H   0  0  0  0  0  0  0  0  0  0  0  0
   40.8102   30.1562   44.1074 H   0  0  0  0  0  0  0  0  0  0  0  0
   41.4128   29.4012   41.7750 H   0  0  0  0  0  0  0  0  0  0  0  0
   40.4821   30.6324   39.8218 H   0  0  0  0  0  0  0  0  0  0  0  0
   38.9680   32.5853   40.1447 H   0  0  0  0  0  0  0  0  0  0  0  0
   38.3809   33.3247   42.4581 H   0  0  0  0  0  0  0  0  0  0  0  0
  1  2  1  0
  2  3  2  0
  3  4  1  0
  3 10  1  0
  5  4  2  0
  6  5  1  0
  7  6  2  0
  7  2  1  0
  9  8  2  0
 10  9  1  0
 11 10  2  0
 11 12  1  0
 12 13  2  0
 13  8  1  0
 14 15  2  0
 14 16  1  0
 16  7  1  0
 17 14  1  0
 18 17  2  0
 19 18  1  0
 20 21  1  0
 20 19  2  0
 21 22  2  0
 22 17  1  0
  4 23  1  0
  5 24  1  0
  6 25  1  0
  8 26  1  0
  9 27  1  0
 12 28  1  0
 16 29  1  0
 18 30  1  0
 19 31  1  0
 20 32  1  0
 21 33  1  0
 22 34  1  0
M  ISO  8  23  14  24  14  25  14  26  14  27  14  28  14  30  14  31  14
M  ISO  3  32  14  33  14  34  14
M  END
>  <minimizedAffinity>  (1) 
-6.72641563

>  <minimizedRMSD>  (1) 
0.175146446

$$$$
