
     RDKit          3D

 27 29  0  0  1  0  0  0  0  0999 V2000
   38.5620   31.2300   48.5980 C   0  0  1  0  0  0  0  0  0  0  0  0
   37.8580   31.4150   49.9510 C   0  0  0  0  0  0  0  0  0  0  0  0
   37.5440   30.2720   49.0380 C   0  0  1  0  0  0  0  0  0  0  0  0
   36.1620   30.2550   48.4910 C   0  0  0  0  0  0  0  0  0  0  0  0
   35.0510   30.4180   49.3270 C   0  0  0  0  0  0  0  0  0  0  0  0
   33.9170   30.3680   48.5990 N   0  0  0  0  0  0  0  0  0  0  0  0
   34.2840   30.1780   47.3300 C   0  0  0  0  0  0  0  0  0  0  0  0
   35.6140   30.1130   47.2760 N   0  0  0  0  0  0  0  0  0  0  0  0
   38.2930   32.3220   47.6360 C   0  0  0  0  0  0  0  0  0  0  0  0
   38.8350   32.2540   43.9270 C   0  0  0  0  0  0  0  0  0  0  0  0
   38.2050   32.4630   45.1800 C   0  0  0  0  0  0  0  0  0  0  0  0
   38.9410   32.1090   46.3050 C   0  0  0  0  0  0  0  0  0  0  0  0
   40.1800   31.5990   46.1870 N   0  0  0  0  0  0  0  0  0  0  0  0
   40.7420   31.4160   44.9640 C   0  0  0  0  0  0  0  0  0  0  0  0
   40.0580   31.7490   43.8510 N   0  0  0  0  0  0  0  0  0  0  0  0
   39.5739   31.0749   48.1955 H   0  0  0  0  0  0  0  0  0  0  0  0
   38.4042   31.2427   50.8902 H   0  0  0  0  0  0  0  0  0  0  0  0
   37.2850   32.2159   50.4411 H   0  0  0  0  0  0  0  0  0  0  0  0
   37.5637   29.1731   49.0833 H   0  0  0  0  0  0  0  0  0  0  0  0
   35.0963   30.5651   50.4162 H   0  0  0  0  0  0  0  0  0  0  0  0
   32.9542   30.4588   48.9536 H   0  0  0  0  0  0  0  0  0  0  0  0
   33.6021   30.0897   46.4714 H   0  0  0  0  0  0  0  0  0  0  0  0
   37.2057   32.3967   47.4873 H   0  0  0  0  0  0  0  0  0  0  0  0
   38.7167   33.2436   48.0616 H   0  0  0  0  0  0  0  0  0  0  0  0
   38.2996   32.5154   43.0023 H   0  0  0  0  0  0  0  0  0  0  0  0
   37.1908   32.8818   45.2575 H   0  0  0  0  0  0  0  0  0  0  0  0
   41.7553   30.9960   44.8817 H   0  0  0  0  0  0  0  0  0  0  0  0
  1  3  1  0
  1  2  1  0
  3  2  1  0
  4  3  1  0
  4  5  2  0
  6  5  1  0
  7  6  1  0
  8  7  2  0
  8  4  1  0
  9  1  1  0
 10 11  2  0
 11 12  1  0
 12  9  1  0
 13 12  2  0
 14 13  1  0
 15 10  1  0
 15 14  2  0
  1 16  1  1
  2 17  1  0
  2 18  1  0
  3 19  1  1
  5 20  1  0
  6 21  1  0
  7 22  1  0
  9 23  1  0
  9 24  1  0
 10 25  1  0
 11 26  1  0
 14 27  1  0
M  ISO  8  16  13  17  13  18  13  19  13  20  14  21   9  22  14  23   8
M  ISO  4  24   8  25  14  26  14  27  14
M  END
>  <minimizedAffinity>  (1) 
-4.94599485

>  <minimizedRMSD>  (1) 
5.94800758

$$$$
