
     RDKit          3D

 37 39  0  0  0  0  0  0  0  0999 V2000
   38.4250   30.2950   47.2670 F   0  0  0  0  0  0  0  0  0  0  0  0
   38.7160   31.5410   47.6940 C   0  0  0  0  0  0  0  0  0  0  0  0
   38.1870   32.0240   48.8700 C   0  0  0  0  0  0  0  0  0  0  0  0
   38.5280   33.2950   49.2420 C   0  0  0  0  0  0  0  0  0  0  0  0
   39.3650   34.0940   48.4950 C   0  0  0  0  0  0  0  0  0  0  0  0
   39.8930   33.5970   47.3120 C   0  0  0  0  0  0  0  0  0  0  0  0
   39.5590   32.3170   46.9250 C   0  0  0  0  0  0  0  0  0  0  0  0
   36.8500   29.6460   51.5000 C   0  0  0  0  0  0  0  0  0  0  0  0
   37.7110   30.4950   50.7880 C   0  0  0  0  0  0  0  0  0  0  0  0
   37.3010   31.1310   49.6280 C   0  0  0  0  0  0  0  0  0  0  0  0
   36.0170   30.8970   49.2050 N   0  0  0  0  0  0  0  0  0  0  0  0
   35.2060   30.0790   49.9030 C   0  0  0  0  0  0  0  0  0  0  0  0
   35.6030   29.4740   51.0090 N   0  0  0  0  0  0  0  0  0  0  0  0
   39.2080   31.8990   44.5690 C   0  0  0  0  0  0  0  0  0  0  0  0
   38.0930   32.4700   44.8240 O   0  0  0  0  0  0  0  0  0  0  0  0
   40.0930   31.7800   45.7010 N   0  0  0  0  0  0  0  0  0  0  0  0
   39.3510   31.8980   42.1330 C   0  0  0  0  0  0  0  0  0  0  0  0
   39.7630   31.3390   43.3410 C   0  0  0  0  0  0  0  0  0  0  0  0
   40.6560   30.2950   43.4610 C   0  0  0  0  0  0  0  0  0  0  0  0
   41.1800   29.7690   42.2720 C   0  0  0  0  0  0  0  0  0  0  0  0
   40.7830   30.3110   41.0610 C   0  0  0  0  0  0  0  0  0  0  0  0
   39.8860   31.3580   40.9560 C   0  0  0  0  0  0  0  0  0  0  0  0
   38.2070   33.2250   42.1120 S   0  0  0  0  0  0  0  0  0  0  0  0
   38.6230   34.2600   41.1070 O   0  0  0  0  0  0  0  0  0  0  0  0
   36.8500   32.6400   41.7790 O   0  0  0  0  0  0  0  0  0  0  0  0
   38.1156   33.6970   50.1792 H   0  0  0  0  0  0  0  0  0  0  0  0
   39.6114   35.1119   48.8315 H   0  0  0  0  0  0  0  0  0  0  0  0
   40.5647   34.2122   46.6953 H   0  0  0  0  0  0  0  0  0  0  0  0
   37.1771   29.1408   52.4208 H   0  0  0  0  0  0  0  0  0  0  0  0
   38.7335   30.6589   51.1591 H   0  0  0  0  0  0  0  0  0  0  0  0
   34.1812   29.9091   49.5413 H   0  0  0  0  0  0  0  0  0  0  0  0
   41.0261   31.3483   45.6392 H   0  0  0  0  0  0  0  0  0  0  0  0
   40.9437   29.8937   44.4440 H   0  0  0  0  0  0  0  0  0  0  0  0
   41.8977   28.9359   42.3005 H   0  0  0  0  0  0  0  0  0  0  0  0
   41.2022   29.8874   40.1364 H   0  0  0  0  0  0  0  0  0  0  0  0
   39.5993   31.7574   39.9720 H   0  0  0  0  0  0  0  0  0  0  0  0
   38.1597   33.8545   43.3279 H   0  0  0  0  0  0  0  0  0  0  0  0
  1  2  1  0
  2  3  2  0
  3  4  1  0
  3 10  1  0
  5  4  2  0
  6  5  1  0
  7  6  2  0
  7  2  1  0
  9  8  2  0
 10  9  1  0
 11 10  2  0
 11 12  1  0
 12 13  2  0
 13  8  1  0
 14 15  2  0
 14 16  1  0
 16  7  1  0
 17 18  2  0
 18 19  1  0
 18 14  1  0
 20 19  2  0
 21 20  1  0
 22 21  2  0
 22 17  1  0
 23 17  1  0
 24 23  2  0
 25 23  2  0
  4 26  1  0
  5 27  1  0
  6 28  1  0
  8 29  1  0
  9 30  1  0
 12 31  1  0
 16 32  1  0
 19 33  1  0
 20 34  1  0
 21 35  1  0
 22 36  1  0
 23 37  1  0
M  ISO  8  26  14  27  14  28  14  29  14  30  14  31  14  33  14  34  14
M  ISO  3  35  14  36  14  37  11
M  END
>  <minimizedAffinity>  (1) 
-6.68446684

>  <minimizedRMSD>  (1) 
0.658695996

$$$$
