
     RDKit          3D

 51 55  0  0  0  0  0  0  0  0999 V2000
   39.2680   31.8940   44.9360 C   0  0  0  0  0  0  0  0  0  0  0  0
   38.1760   32.5390   45.0550 O   0  0  0  0  0  0  0  0  0  0  0  0
   39.9450   31.6470   46.1570 N   0  0  0  0  0  0  0  0  0  0  0  0
   39.1740   32.1630   42.5590 C   0  0  0  0  0  0  0  0  0  0  0  0
   39.7050   31.4870   43.6230 C   0  0  0  0  0  0  0  0  0  0  0  0
   40.6210   30.4570   43.4830 C   0  0  0  0  0  0  0  0  0  0  0  0
   41.0200   30.0900   42.2120 C   0  0  0  0  0  0  0  0  0  0  0  0
   41.8610   29.1650   41.7440 N   0  0  0  0  0  0  0  0  0  0  0  0
   41.8760   29.2390   40.4210 C   0  0  0  0  0  0  0  0  0  0  0  0
   41.0450   30.2080   40.0460 N   0  0  0  0  0  0  0  0  0  0  0  0
   40.4770   30.7800   41.1340 C   0  0  0  0  0  0  0  0  0  0  0  0
   39.5620   31.8100   41.2730 C   0  0  0  0  0  0  0  0  0  0  0  0
   39.0150   32.5040   40.1830 N   0  0  0  0  0  0  0  0  0  0  0  0
   38.3260   33.7740   40.3720 C   0  0  0  0  0  0  0  0  0  0  0  0
   37.6370   34.2460   39.1390 C   0  0  0  0  0  0  0  0  0  0  0  0
   36.8310   33.2470   38.4760 N   0  0  0  0  0  0  0  0  0  0  0  0
   37.5940   32.0510   38.2340 C   0  0  0  0  0  0  0  0  0  0  0  0
   39.0110   32.1670   38.8130 C   0  0  0  0  0  0  0  0  0  0  0  0
   38.0970   30.1530   47.5050 F   0  0  0  0  0  0  0  0  0  0  0  0
   38.3660   31.3920   47.9850 C   0  0  0  0  0  0  0  0  0  0  0  0
   37.7120   31.8330   49.1050 C   0  0  0  0  0  0  0  0  0  0  0  0
   38.0240   33.0860   49.5380 C   0  0  0  0  0  0  0  0  0  0  0  0
   38.9410   33.8970   48.9150 C   0  0  0  0  0  0  0  0  0  0  0  0
   39.5840   33.4230   47.7880 C   0  0  0  0  0  0  0  0  0  0  0  0
   39.3000   32.1680   47.3170 C   0  0  0  0  0  0  0  0  0  0  0  0
   36.0920   29.3580   51.4620 C   0  0  0  0  0  0  0  0  0  0  0  0
   37.0360   30.2110   50.8710 C   0  0  0  0  0  0  0  0  0  0  0  0
   36.7420   30.9380   49.7370 C   0  0  0  0  0  0  0  0  0  0  0  0
   35.4810   30.7870   49.2140 N   0  0  0  0  0  0  0  0  0  0  0  0
   34.5790   29.9720   49.7800 C   0  0  0  0  0  0  0  0  0  0  0  0
   34.8800   29.2730   50.8800 N   0  0  0  0  0  0  0  0  0  0  0  0
   40.8350   31.1305   46.2026 H   0  0  0  0  0  0  0  0  0  0  0  0
   38.4496   32.9751   42.7197 H   0  0  0  0  0  0  0  0  0  0  0  0
   41.0232   29.9409   44.3673 H   0  0  0  0  0  0  0  0  0  0  0  0
   42.4068   28.5044   42.3155 H   0  0  0  0  0  0  0  0  0  0  0  0
   42.4736   28.6070   39.7476 H   0  0  0  0  0  0  0  0  0  0  0  0
   37.5770   33.6524   41.1684 H   0  0  0  0  0  0  0  0  0  0  0  0
   39.0842   34.5259   40.6361 H   0  0  0  0  0  0  0  0  0  0  0  0
   36.9830   35.0869   39.4129 H   0  0  0  0  0  0  0  0  0  0  0  0
   38.4292   34.5262   38.4292 H   0  0  0  0  0  0  0  0  0  0  0  0
   36.0223   33.0167   39.0708 H   0  0  0  0  0  0  0  0  0  0  0  0
   37.0830   31.1984   38.7052 H   0  0  0  0  0  0  0  0  0  0  0  0
   37.6740   31.9041   37.1468 H   0  0  0  0  0  0  0  0  0  0  0  0
   39.5225   31.2014   38.6869 H   0  0  0  0  0  0  0  0  0  0  0  0
   39.5254   32.9745   38.2714 H   0  0  0  0  0  0  0  0  0  0  0  0
   37.5144   33.4690   50.4345 H   0  0  0  0  0  0  0  0  0  0  0  0
   39.1586   34.9022   49.3051 H   0  0  0  0  0  0  0  0  0  0  0  0
   40.3227   34.0519   47.2696 H   0  0  0  0  0  0  0  0  0  0  0  0
   36.3324   28.7802   52.3667 H   0  0  0  0  0  0  0  0  0  0  0  0
   38.0346   30.3020   51.3231 H   0  0  0  0  0  0  0  0  0  0  0  0
   33.5781   29.8770   49.3337 H   0  0  0  0  0  0  0  0  0  0  0  0
  1  2  2  0
  1  3  1  0
  3 25  1  0
  4  5  2  0
  5  1  1  0
  6  5  1  0
  7  6  2  0
  8  7  1  0
  9  8  1  0
 10  9  2  0
 10 11  1  0
 11 12  2  0
 11  7  1  0
 12  4  1  0
 13 14  1  0
 13 12  1  0
 15 14  1  0
 16 15  1  0
 17 16  1  0
 17 18  1  0
 18 13  1  0
 19 20  1  0
 20 21  2  0
 21 22  1  0
 21 28  1  0
 23 22  2  0
 24 23  1  0
 25 24  2  0
 25 20  1  0
 27 26  2  0
 28 27  1  0
 29 28  2  0
 29 30  1  0
 30 31  2  0
 31 26  1  0
  3 32  1  0
  4 33  1  0
  6 34  1  0
  8 35  1  0
  9 36  1  0
 14 37  1  0
 14 38  1  0
 15 39  1  0
 15 40  1  0
 16 41  1  0
 17 42  1  0
 17 43  1  0
 18 44  1  0
 18 45  1  0
 22 46  1  0
 23 47  1  0
 24 48  1  0
 26 49  1  0
 27 50  1  0
 30 51  1  0
M  ISO  8  33  14  34  14  35   9  36  14  37  13  38  13  39  13  40  13
M  ISO  8  41   5  42  13  43  13  44  13  45  13  46  14  47  14  48  14
M  ISO  3  49  14  50  14  51  14
M  END
>  <minimizedAffinity>  (1) 
-7.58252573

>  <minimizedRMSD>  (1) 
0.26790151

$$$$
