
     RDKit          3D

 40 43  0  0  0  0  0  0  0  0999 V2000
   38.1150   30.1460   47.4950 F   0  0  0  0  0  0  0  0  0  0  0  0
   38.3780   31.3860   47.9720 C   0  0  0  0  0  0  0  0  0  0  0  0
   37.7210   31.8300   49.0930 C   0  0  0  0  0  0  0  0  0  0  0  0
   38.0290   33.0840   49.5230 C   0  0  0  0  0  0  0  0  0  0  0  0
   38.9420   33.8980   48.9000 C   0  0  0  0  0  0  0  0  0  0  0  0
   39.5890   33.4270   47.7740 C   0  0  0  0  0  0  0  0  0  0  0  0
   39.2990   32.1590   47.3120 C   0  0  0  0  0  0  0  0  0  0  0  0
   36.0890   29.3660   51.4460 C   0  0  0  0  0  0  0  0  0  0  0  0
   37.0380   30.2160   50.8550 C   0  0  0  0  0  0  0  0  0  0  0  0
   36.7570   30.9400   49.7310 C   0  0  0  0  0  0  0  0  0  0  0  0
   35.5030   30.7930   49.2120 N   0  0  0  0  0  0  0  0  0  0  0  0
   34.5830   29.9830   49.7670 C   0  0  0  0  0  0  0  0  0  0  0  0
   34.8760   29.2840   50.8630 N   0  0  0  0  0  0  0  0  0  0  0  0
   39.2720   31.8940   44.9300 C   0  0  0  0  0  0  0  0  0  0  0  0
   38.1800   32.5410   45.0540 O   0  0  0  0  0  0  0  0  0  0  0  0
   39.9570   31.6460   46.1460 N   0  0  0  0  0  0  0  0  0  0  0  0
   39.1530   32.1670   42.5460 C   0  0  0  0  0  0  0  0  0  0  0  0
   39.7030   31.4850   43.6140 C   0  0  0  0  0  0  0  0  0  0  0  0
   40.6110   30.4700   43.4540 C   0  0  0  0  0  0  0  0  0  0  0  0
   41.0060   30.1000   42.1800 C   0  0  0  0  0  0  0  0  0  0  0  0
   41.8590   29.1650   41.7300 N   0  0  0  0  0  0  0  0  0  0  0  0
   41.8530   29.2490   40.3950 C   0  0  0  0  0  0  0  0  0  0  0  0
   41.0160   30.2130   40.0150 N   0  0  0  0  0  0  0  0  0  0  0  0
   40.4500   30.7870   41.1170 C   0  0  0  0  0  0  0  0  0  0  0  0
   39.5390   31.8060   41.2510 C   0  0  0  0  0  0  0  0  0  0  0  0
   38.9610   32.5250   40.1000 C   0  0  0  0  0  0  0  0  0  0  0  0
   37.5182   33.4663   50.4191 H   0  0  0  0  0  0  0  0  0  0  0  0
   39.1541   34.9047   49.2894 H   0  0  0  0  0  0  0  0  0  0  0  0
   40.3262   34.0547   47.2520 H   0  0  0  0  0  0  0  0  0  0  0  0
   36.3266   28.7883   52.3514 H   0  0  0  0  0  0  0  0  0  0  0  0
   38.0359   30.3012   51.3100 H   0  0  0  0  0  0  0  0  0  0  0  0
   33.5843   29.8974   49.3138 H   0  0  0  0  0  0  0  0  0  0  0  0
   40.8528   31.1395   46.1884 H   0  0  0  0  0  0  0  0  0  0  0  0
   38.4269   32.9768   42.7105 H   0  0  0  0  0  0  0  0  0  0  0  0
   41.0231   29.9528   44.3330 H   0  0  0  0  0  0  0  0  0  0  0  0
   42.4109   28.5101   42.3022 H   0  0  0  0  0  0  0  0  0  0  0  0
   42.4472   28.6196   39.7162 H   0  0  0  0  0  0  0  0  0  0  0  0
   38.3103   33.3344   40.4625 H   0  0  0  0  0  0  0  0  0  0  0  0
   39.7708   32.9511   39.4896 H   0  0  0  0  0  0  0  0  0  0  0  0
   38.3708   31.8256   39.4896 H   0  0  0  0  0  0  0  0  0  0  0  0
  1  2  1  0
  2  3  2  0
  3  4  1  0
  3 10  1  0
  5  4  2  0
  6  5  1  0
  7  6  2  0
  7  2  1  0
  9  8  2  0
 10  9  1  0
 11 10  2  0
 11 12  1  0
 12 13  2  0
 13  8  1  0
 14 15  2  0
 14 16  1  0
 16  7  1  0
 17 18  2  0
 18 14  1  0
 19 18  1  0
 20 19  2  0
 21 20  1  0
 22 21  1  0
 23 22  2  0
 23 24  1  0
 24 25  2  0
 24 20  1  0
 25 17  1  0
 26 25  1  0
  4 27  1  0
  5 28  1  0
  6 29  1  0
  8 30  1  0
  9 31  1  0
 12 32  1  0
 16 33  1  0
 17 34  1  0
 19 35  1  0
 21 36  1  0
 22 37  1  0
 26 38  1  0
 26 39  1  0
 26 40  1  0
M  ISO  8  27  14  28  14  29  14  30  14  31  14  32  14  34  14  35  14
M  ISO  5  36   9  37  14  38   8  39   8  40   8
M  END
>  <minimizedAffinity>  (1) 
-7.48272943

>  <minimizedRMSD>  (1) 
0.0316875763

$$$$
