
     RDKit          3D

 40 43  0  0  0  0  0  0  0  0999 V2000
   39.2590   31.8900   44.9060 C   0  0  0  0  0  0  0  0  0  0  0  0
   38.1710   32.5430   45.0280 O   0  0  0  0  0  0  0  0  0  0  0  0
   39.9490   31.6310   46.1140 N   0  0  0  0  0  0  0  0  0  0  0  0
   39.1040   32.1410   42.5250 C   0  0  0  0  0  0  0  0  0  0  0  0
   39.6800   31.4820   43.5850 C   0  0  0  0  0  0  0  0  0  0  0  0
   40.6180   30.4770   43.4290 C   0  0  0  0  0  0  0  0  0  0  0  0
   40.9910   30.1190   42.1410 C   0  0  0  0  0  0  0  0  0  0  0  0
   41.8590   29.2000   41.6900 N   0  0  0  0  0  0  0  0  0  0  0  0
   41.8410   29.2660   40.3620 C   0  0  0  0  0  0  0  0  0  0  0  0
   40.9750   30.2110   39.9750 N   0  0  0  0  0  0  0  0  0  0  0  0
   40.4060   30.7860   41.0740 C   0  0  0  0  0  0  0  0  0  0  0  0
   39.4730   31.7870   41.2320 C   0  0  0  0  0  0  0  0  0  0  0  0
   38.8780   32.4680   40.0770 C   0  0  0  0  0  0  0  0  0  0  0  0
   39.7560   32.7930   39.0850 F   0  0  0  0  0  0  0  0  0  0  0  0
   37.8710   31.6250   39.5940 F   0  0  0  0  0  0  0  0  0  0  0  0
   38.2740   33.6450   40.4890 F   0  0  0  0  0  0  0  0  0  0  0  0
   38.1060   30.1430   47.4700 F   0  0  0  0  0  0  0  0  0  0  0  0
   38.3750   31.3900   47.9640 C   0  0  0  0  0  0  0  0  0  0  0  0
   37.7320   31.8350   49.0820 C   0  0  0  0  0  0  0  0  0  0  0  0
   38.0540   33.0900   49.5110 C   0  0  0  0  0  0  0  0  0  0  0  0
   38.9690   33.8970   48.8840 C   0  0  0  0  0  0  0  0  0  0  0  0
   39.6070   33.4210   47.7500 C   0  0  0  0  0  0  0  0  0  0  0  0
   39.3080   32.1600   47.2860 C   0  0  0  0  0  0  0  0  0  0  0  0
   36.1010   29.3740   51.4530 C   0  0  0  0  0  0  0  0  0  0  0  0
   37.0560   30.2210   50.8610 C   0  0  0  0  0  0  0  0  0  0  0  0
   36.7640   30.9450   49.7230 C   0  0  0  0  0  0  0  0  0  0  0  0
   35.5050   30.7940   49.2080 N   0  0  0  0  0  0  0  0  0  0  0  0
   34.5990   29.9830   49.7780 C   0  0  0  0  0  0  0  0  0  0  0  0
   34.8870   29.2920   50.8680 N   0  0  0  0  0  0  0  0  0  0  0  0
   40.8354   31.1077   46.1500 H   0  0  0  0  0  0  0  0  0  0  0  0
   38.3631   32.9356   42.6969 H   0  0  0  0  0  0  0  0  0  0  0  0
   41.0570   29.9745   44.3035 H   0  0  0  0  0  0  0  0  0  0  0  0
   42.4308   28.5640   42.2639 H   0  0  0  0  0  0  0  0  0  0  0  0
   42.4438   28.6414   39.6864 H   0  0  0  0  0  0  0  0  0  0  0  0
   37.5515   33.4761   50.4101 H   0  0  0  0  0  0  0  0  0  0  0  0
   39.1916   34.9014   49.2735 H   0  0  0  0  0  0  0  0  0  0  0  0
   40.3456   34.0449   47.2254 H   0  0  0  0  0  0  0  0  0  0  0  0
   36.3354   28.7987   52.3608 H   0  0  0  0  0  0  0  0  0  0  0  0
   38.0546   30.3077   51.3140 H   0  0  0  0  0  0  0  0  0  0  0  0
   33.5986   29.8918   49.3298 H   0  0  0  0  0  0  0  0  0  0  0  0
  1  2  2  0
  1  3  1  0
  3 23  1  0
  4  5  2  0
  5  1  1  0
  6  5  1  0
  7  6  2  0
  8  7  1  0
  9  8  1  0
 10  9  2  0
 10 11  1  0
 11 12  2  0
 11  7  1  0
 12  4  1  0
 13 16  1  0
 13 12  1  0
 14 13  1  0
 15 13  1  0
 17 18  1  0
 18 19  2  0
 19 20  1  0
 19 26  1  0
 21 20  2  0
 22 21  1  0
 23 22  2  0
 23 18  1  0
 25 24  2  0
 26 25  1  0
 27 26  2  0
 27 28  1  0
 28 29  2  0
 29 24  1  0
  3 30  1  0
  4 31  1  0
  6 32  1  0
  8 33  1  0
  9 34  1  0
 20 35  1  0
 21 36  1  0
 22 37  1  0
 24 38  1  0
 25 39  1  0
 28 40  1  0
M  ISO  8  31  14  32  14  33   9  34  14  35  14  36  14  37  14  38  14
M  ISO  2  39  14  40  14
M  END
>  <minimizedAffinity>  (1) 
-7.324821

>  <minimizedRMSD>  (1) 
0.330621779

$$$$
