
     RDKit          3D

 38 41  0  0  0  0  0  0  0  0999 V2000
   38.1240   30.1480   47.4890 F   0  0  0  0  0  0  0  0  0  0  0  0
   38.3770   31.3940   47.9780 C   0  0  0  0  0  0  0  0  0  0  0  0
   37.7170   31.8370   49.0850 C   0  0  0  0  0  0  0  0  0  0  0  0
   38.0190   33.1000   49.5230 C   0  0  0  0  0  0  0  0  0  0  0  0
   38.9370   33.9010   48.8980 C   0  0  0  0  0  0  0  0  0  0  0  0
   39.5960   33.4280   47.7700 C   0  0  0  0  0  0  0  0  0  0  0  0
   39.3050   32.1520   47.3110 C   0  0  0  0  0  0  0  0  0  0  0  0
   36.0820   29.3620   51.4440 C   0  0  0  0  0  0  0  0  0  0  0  0
   37.0430   30.2210   50.8570 C   0  0  0  0  0  0  0  0  0  0  0  0
   36.7450   30.9410   49.7170 C   0  0  0  0  0  0  0  0  0  0  0  0
   35.4910   30.7860   49.1910 N   0  0  0  0  0  0  0  0  0  0  0  0
   34.5810   29.9710   49.7500 C   0  0  0  0  0  0  0  0  0  0  0  0
   34.8700   29.2770   50.8500 N   0  0  0  0  0  0  0  0  0  0  0  0
   39.2790   31.9020   44.9340 C   0  0  0  0  0  0  0  0  0  0  0  0
   38.1900   32.5550   45.0500 O   0  0  0  0  0  0  0  0  0  0  0  0
   39.9690   31.6350   46.1500 N   0  0  0  0  0  0  0  0  0  0  0  0
   39.1900   32.2010   42.5550 C   0  0  0  0  0  0  0  0  0  0  0  0
   39.7200   31.4930   43.6120 C   0  0  0  0  0  0  0  0  0  0  0  0
   40.6090   30.4630   43.4600 C   0  0  0  0  0  0  0  0  0  0  0  0
   41.0100   30.0960   42.1820 C   0  0  0  0  0  0  0  0  0  0  0  0
   41.8440   29.1570   41.7230 N   0  0  0  0  0  0  0  0  0  0  0  0
   41.8600   29.2450   40.3950 C   0  0  0  0  0  0  0  0  0  0  0  0
   41.0360   30.2420   40.0090 N   0  0  0  0  0  0  0  0  0  0  0  0
   40.4890   30.7930   41.1180 C   0  0  0  0  0  0  0  0  0  0  0  0
   39.5860   31.8410   41.2550 C   0  0  0  0  0  0  0  0  0  0  0  0
   39.0590   32.5460   40.1850 O   0  0  0  0  0  0  0  0  0  0  0  0
   37.5023   33.4864   50.4139 H   0  0  0  0  0  0  0  0  0  0  0  0
   39.1505   34.9083   49.2849 H   0  0  0  0  0  0  0  0  0  0  0  0
   40.3356   34.0546   47.2501 H   0  0  0  0  0  0  0  0  0  0  0  0
   36.3133   28.7843   52.3511 H   0  0  0  0  0  0  0  0  0  0  0  0
   38.0387   30.3157   51.3147 H   0  0  0  0  0  0  0  0  0  0  0  0
   33.5847   29.8754   49.2938 H   0  0  0  0  0  0  0  0  0  0  0  0
   40.8599   31.1198   46.1919 H   0  0  0  0  0  0  0  0  0  0  0  0
   38.4786   33.0229   42.7234 H   0  0  0  0  0  0  0  0  0  0  0  0
   41.0012   29.9322   44.3400 H   0  0  0  0  0  0  0  0  0  0  0  0
   42.3778   28.4864   42.2942 H   0  0  0  0  0  0  0  0  0  0  0  0
   42.4501   28.6075   39.7202 H   0  0  0  0  0  0  0  0  0  0  0  0
   38.4188   33.2839   40.3455 H   0  0  0  0  0  0  0  0  0  0  0  0
  1  2  1  0
  2  3  2  0
  3  4  1  0
  3 10  1  0
  5  4  2  0
  6  5  1  0
  7  6  2  0
  7  2  1  0
  9  8  2  0
 10  9  1  0
 11 10  2  0
 11 12  1  0
 12 13  2  0
 13  8  1  0
 14 15  2  0
 14 16  1  0
 16  7  1  0
 17 18  2  0
 18 14  1  0
 19 18  1  0
 20 19  2  0
 21 20  1  0
 22 21  1  0
 23 22  2  0
 23 24  1  0
 24 25  2  0
 24 20  1  0
 25 17  1  0
 26 25  1  0
  4 27  1  0
  5 28  1  0
  6 29  1  0
  8 30  1  0
  9 31  1  0
 12 32  1  0
 16 33  1  0
 17 34  1  0
 19 35  1  0
 21 36  1  0
 22 37  1  0
 26 38  1  0
M  ISO  8  27  14  28  14  29  14  30  14  31  14  32  14  34  14  35  14
M  ISO  3  36   9  37  14  38   3
M  END
>  <minimizedAffinity>  (1) 
-7.45931149

>  <minimizedRMSD>  (1) 
0.0082604913

$$$$
