
     RDKit          3D

 24 26  0  0  0  0  0  0  0  0999 V2000
   37.8340   31.3210   48.2810 C   0  0  0  0  0  0  0  0  0  0  0  0
   38.8030   32.2370   48.2020 C   0  0  0  0  0  0  0  0  0  0  0  0
   39.1880   32.7510   47.0220 C   0  0  0  0  0  0  0  0  0  0  0  0
   38.5280   32.2810   45.8980 C   0  0  0  0  0  0  0  0  0  0  0  0
   37.3320   31.0700   46.6150 S   0  0  0  0  0  0  0  0  0  0  0  0
   37.2210   29.9500   51.7220 C   0  0  0  0  0  0  0  0  0  0  0  0
   37.8590   30.6450   50.6870 C   0  0  0  0  0  0  0  0  0  0  0  0
   37.2590   30.6350   49.4270 C   0  0  0  0  0  0  0  0  0  0  0  0
   36.1040   29.9640   49.2660 N   0  0  0  0  0  0  0  0  0  0  0  0
   35.5090   29.3050   50.2670 C   0  0  0  0  0  0  0  0  0  0  0  0
   36.0740   29.3050   51.4900 N   0  0  0  0  0  0  0  0  0  0  0  0
   38.6130   32.5460   44.4810 C   0  0  0  0  0  0  0  0  0  0  0  0
   39.7650   32.8300   43.7880 C   0  0  0  0  0  0  0  0  0  0  0  0
   39.2850   32.9970   42.4810 C   0  0  0  0  0  0  0  0  0  0  0  0
   37.9320   32.8100   42.4810 N   0  0  0  0  0  0  0  0  0  0  0  0
   37.5090   32.5290   43.7250 N   0  0  0  0  0  0  0  0  0  0  0  0
   39.2968   32.5781   49.1238 H   0  0  0  0  0  0  0  0  0  0  0  0
   39.9854   33.5055   46.9518 H   0  0  0  0  0  0  0  0  0  0  0  0
   37.6651   29.9351   52.7282 H   0  0  0  0  0  0  0  0  0  0  0  0
   38.8031   31.1818   50.8616 H   0  0  0  0  0  0  0  0  0  0  0  0
   34.5654   28.7672   50.0926 H   0  0  0  0  0  0  0  0  0  0  0  0
   40.7967   32.9065   44.1617 H   0  0  0  0  0  0  0  0  0  0  0  0
   39.8977   33.2390   41.6001 H   0  0  0  0  0  0  0  0  0  0  0  0
   37.3260   32.8748   41.6507 H   0  0  0  0  0  0  0  0  0  0  0  0
  1  8  1  0
  2  1  2  0
  3  2  1  0
  4  5  1  0
  4  3  2  0
  5  1  1  0
  7  6  2  0
  8  7  1  0
  9  8  2  0
  9 10  1  0
 10 11  2  0
 11  6  1  0
 12  4  1  0
 13 12  1  0
 14 13  2  0
 15 14  1  0
 15 16  1  0
 16 12  2  0
  2 17  1  0
  3 18  1  0
  6 19  1  0
  7 20  1  0
 10 21  1  0
 13 22  1  0
 14 23  1  0
 15 24  1  0
M  ISO  8  17  14  18  14  19  14  20  14  21  14  22  14  23  14  24   9
M  END
>  <minimizedAffinity>  (1) 
-5.29748201

>  <minimizedRMSD>  (1) 
0.597388148

$$$$
