
     RDKit          3D

 22 23  0  0  1  0  0  0  0  0999 V2000
   38.7330   32.2230   48.2870 C   0  0  0  0  0  0  0  0  0  0  0  0
   37.4190   30.0390   51.0240 C   0  0  0  0  0  0  0  0  0  0  0  0
   38.1600   31.0480   50.3780 C   0  0  0  0  0  0  0  0  0  0  0  0
   37.9710   31.1710   49.0170 C   0  0  0  0  0  0  0  0  0  0  0  0
   37.1170   30.3460   48.4060 N   0  0  0  0  0  0  0  0  0  0  0  0
   36.4160   29.3860   49.0370 C   0  0  0  0  0  0  0  0  0  0  0  0
   36.5850   29.2480   50.3670 N   0  0  0  0  0  0  0  0  0  0  0  0
   38.7970   31.9900   46.8260 C   0  0  1  0  0  0  0  0  0  0  0  0
   39.8310   32.8790   46.1140 C   0  0  0  0  0  0  0  0  0  0  0  0
   39.9540   31.3930   46.1560 C   0  0  2  0  0  0  0  0  0  0  0  0
   39.7420   30.7400   44.8130 C   0  0  0  0  0  0  0  0  0  0  0  0
   40.5940   30.8360   43.9170 O   0  0  0  0  0  0  0  0  0  0  0  0
   38.2470   33.1936   48.4651 H   0  0  0  0  0  0  0  0  0  0  0  0
   39.7652   32.2014   48.6667 H   0  0  0  0  0  0  0  0  0  0  0  0
   37.5371   29.9040   52.1093 H   0  0  0  0  0  0  0  0  0  0  0  0
   38.8517   31.7023   50.9289 H   0  0  0  0  0  0  0  0  0  0  0  0
   35.7252   28.7330   48.4834 H   0  0  0  0  0  0  0  0  0  0  0  0
   37.7263   31.7429   46.7761 H   0  0  0  0  0  0  0  0  0  0  0  0
   40.5171   33.5105   46.6975 H   0  0  0  0  0  0  0  0  0  0  0  0
   39.8048   33.6483   45.3282 H   0  0  0  0  0  0  0  0  0  0  0  0
   40.7085   30.6699   46.4993 H   0  0  0  0  0  0  0  0  0  0  0  0
   38.8194   30.1710   44.6258 H   0  0  0  0  0  0  0  0  0  0  0  0
  1  4  1  0
  3  2  2  0
  4  3  1  0
  5  4  2  0
  5  6  1  0
  6  7  2  0
  7  2  1  0
  8  1  1  0
  9 10  1  0
  9  8  1  0
 10  8  1  0
 11 10  1  0
 12 11  2  0
  1 13  1  0
  1 14  1  0
  2 15  1  0
  3 16  1  0
  6 17  1  0
  8 18  1  6
  9 19  1  0
  9 20  1  0
 10 21  1  1
 11 22  1  0
M  ISO  8  13   8  14   8  15  14  16  14  17  14  18  13  19  13  20  13
M  ISO  2  21  13  22   6
M  END
>  <minimizedAffinity>  (1) 
-4.37970161

>  <minimizedRMSD>  (1) 
0.291926831

$$$$
