
     RDKit          3D

 36 39  0  0  0  0  0  0  0  0999 V2000
   38.8890   32.5620   45.9400 C   0  0  0  0  0  0  0  0  0  0  0  0
   39.9900   33.1820   45.5130 C   0  0  0  0  0  0  0  0  0  0  0  0
   40.2390   33.2950   44.2040 C   0  0  0  0  0  0  0  0  0  0  0  0
   39.3190   32.7480   43.3330 C   0  0  0  0  0  0  0  0  0  0  0  0
   38.0750   32.0620   44.4720 S   0  0  0  0  0  0  0  0  0  0  0  0
   40.5940   30.2660   42.0740 Cl  0  0  0  0  0  0  0  0  0  0  0  0
   39.8030   31.5970   41.2560 C   0  0  0  0  0  0  0  0  0  0  0  0
   39.2530   32.6790   41.8900 C   0  0  0  0  0  0  0  0  0  0  0  0
   38.6300   33.7310   41.3050 C   0  0  0  0  0  0  0  0  0  0  0  0
   38.5250   33.7420   39.9120 C   0  0  0  0  0  0  0  0  0  0  0  0
   39.0540   32.6880   39.2060 C   0  0  0  0  0  0  0  0  0  0  0  0
   38.9690   32.6160   37.4580 Cl  0  0  0  0  0  0  0  0  0  0  0  0
   39.6820   31.6320   39.8570 C   0  0  0  0  0  0  0  0  0  0  0  0
   38.3100   32.6390   49.6540 C   0  0  0  0  0  0  0  0  0  0  0  0
   38.8790   32.9620   48.4010 C   0  0  0  0  0  0  0  0  0  0  0  0
   38.3570   32.2880   47.2790 C   0  0  0  0  0  0  0  0  0  0  0  0
   37.3750   31.3980   47.4360 N   0  0  0  0  0  0  0  0  0  0  0  0
   36.8590   31.1190   48.6450 C   0  0  0  0  0  0  0  0  0  0  0  0
   37.3180   31.7290   49.7400 N   0  0  0  0  0  0  0  0  0  0  0  0
   35.7850   30.1350   48.7520 C   0  0  0  0  0  0  0  0  0  0  0  0
   35.7070   29.2940   49.8460 C   0  0  0  0  0  0  0  0  0  0  0  0
   34.6800   28.3750   49.9190 C   0  0  0  0  0  0  0  0  0  0  0  0
   33.7270   28.2730   48.9280 C   0  0  0  0  0  0  0  0  0  0  0  0
   33.8440   29.1390   47.8440 C   0  0  0  0  0  0  0  0  0  0  0  0
   34.8550   30.0340   47.7870 N   0  0  0  0  0  0  0  0  0  0  0  0
   40.6977   33.6031   46.2423 H   0  0  0  0  0  0  0  0  0  0  0  0
   41.1419   33.8041   43.8359 H   0  0  0  0  0  0  0  0  0  0  0  0
   38.2188   34.5527   41.9098 H   0  0  0  0  0  0  0  0  0  0  0  0
   38.0301   34.5754   39.3919 H   0  0  0  0  0  0  0  0  0  0  0  0
   40.0941   30.8037   39.2619 H   0  0  0  0  0  0  0  0  0  0  0  0
   38.6786   33.1330   50.5651 H   0  0  0  0  0  0  0  0  0  0  0  0
   39.6878   33.7016   48.3066 H   0  0  0  0  0  0  0  0  0  0  0  0
   36.4554   29.3565   50.6498 H   0  0  0  0  0  0  0  0  0  0  0  0
   34.6202   27.7065   50.7905 H   0  0  0  0  0  0  0  0  0  0  0  0
   32.9098   27.5394   48.9909 H   0  0  0  0  0  0  0  0  0  0  0  0
   33.1079   29.0943   47.0278 H   0  0  0  0  0  0  0  0  0  0  0  0
  1 16  1  0
  2  1  2  0
  3  2  1  0
  4  3  2  0
  4  5  1  0
  5  1  1  0
  7  8  2  0
  7  6  1  0
  8  4  1  0
  9  8  1  0
 10  9  2  0
 11 13  2  0
 11 10  1  0
 12 11  1  0
 13  7  1  0
 14 19  2  0
 15 14  1  0
 16 17  1  0
 16 15  2  0
 17 18  2  0
 18 20  1  0
 18 19  1  0
 20 21  2  0
 21 22  1  0
 23 22  2  0
 24 23  1  0
 25 24  2  0
 25 20  1  0
  2 26  1  0
  3 27  1  0
  9 28  1  0
 10 29  1  0
 13 30  1  0
 14 31  1  0
 15 32  1  0
 21 33  1  0
 22 34  1  0
 23 35  1  0
 24 36  1  0
M  ISO  8  26  14  27  14  28  14  29  14  30  14  31  14  32  14  33  14
M  ISO  3  34  14  35  14  36  14
M  END
>  <minimizedAffinity>  (1) 
-6.71363163

>  <minimizedRMSD>  (1) 
3.15747094

$$$$
