
     RDKit          3D

 39 42  0  0  1  0  0  0  0  0999 V2000
   39.0000   32.4790   46.2550 C   0  0  0  0  0  0  0  0  0  0  0  0
   40.0750   33.1600   45.8070 C   0  0  0  0  0  0  0  0  0  0  0  0
   40.3230   33.2580   44.4990 C   0  0  0  0  0  0  0  0  0  0  0  0
   39.4380   32.6400   43.6380 C   0  0  0  0  0  0  0  0  0  0  0  0
   38.2150   31.8980   44.7940 S   0  0  0  0  0  0  0  0  0  0  0  0
   40.7510   30.1230   42.5050 Cl  0  0  0  0  0  0  0  0  0  0  0  0
   39.9310   31.4030   41.6230 C   0  0  0  0  0  0  0  0  0  0  0  0
   39.3620   32.5160   42.2090 C   0  0  0  0  0  0  0  0  0  0  0  0
   38.7310   33.5100   41.5640 C   0  0  0  0  0  0  0  0  0  0  0  0
   38.6190   33.4470   40.1710 C   0  0  0  0  0  0  0  0  0  0  0  0
   39.1630   32.3690   39.5200 C   0  0  0  0  0  0  0  0  0  0  0  0
   39.0590   32.2290   37.7770 Cl  0  0  0  0  0  0  0  0  0  0  0  0
   39.8080   31.3630   40.2280 C   0  0  0  0  0  0  0  0  0  0  0  0
   38.2510   32.7500   49.9250 C   0  0  0  0  0  0  0  0  0  0  0  0
   38.7880   33.0870   48.6580 C   0  0  0  0  0  0  0  0  0  0  0  0
   38.4910   32.2150   47.6030 C   0  0  0  0  0  0  0  0  0  0  0  0
   37.7380   31.1330   47.8190 N   0  0  0  0  0  0  0  0  0  0  0  0
   37.2480   30.8490   49.0410 C   0  0  0  0  0  0  0  0  0  0  0  0
   37.5030   31.6480   50.0760 N   0  0  0  0  0  0  0  0  0  0  0  0
   35.0500   29.9470   48.6230 C   0  0  2  0  0  0  0  0  0  0  0  0
   36.4120   29.6380   49.2550 C   0  0  2  0  0  0  0  0  0  0  0  0
   36.0160   29.4180   50.6780 C   0  0  0  0  0  0  0  0  0  0  0  0
   34.7040   28.9780   50.7140 O   0  0  0  0  0  0  0  0  0  0  0  0
   34.1710   29.0390   49.4380 C   0  0  0  0  0  0  0  0  0  0  0  0
   35.0290   29.5790   47.2750 O   0  0  0  0  0  0  0  0  0  0  0  0
   40.7543   33.6395   46.5271 H   0  0  0  0  0  0  0  0  0  0  0  0
   41.1973   33.8090   44.1222 H   0  0  0  0  0  0  0  0  0  0  0  0
   38.3093   34.3594   42.1213 H   0  0  0  0  0  0  0  0  0  0  0  0
   38.1068   34.2431   39.6108 H   0  0  0  0  0  0  0  0  0  0  0  0
   40.2342   30.5110   39.6780 H   0  0  0  0  0  0  0  0  0  0  0  0
   38.4495   33.3978   50.7916 H   0  0  0  0  0  0  0  0  0  0  0  0
   39.4052   33.9855   48.5107 H   0  0  0  0  0  0  0  0  0  0  0  0
   34.7629   31.0088   48.6333 H   0  0  0  0  0  0  0  0  0  0  0  0
   36.9912   28.7873   48.8665 H   0  0  0  0  0  0  0  0  0  0  0  0
   36.6723   28.6606   51.1313 H   0  0  0  0  0  0  0  0  0  0  0  0
   36.1100   30.3581   51.2413 H   0  0  0  0  0  0  0  0  0  0  0  0
   33.1484   29.4424   49.4772 H   0  0  0  0  0  0  0  0  0  0  0  0
   34.1278   28.0361   48.9882 H   0  0  0  0  0  0  0  0  0  0  0  0
   34.9727   28.5932   47.2029 H   0  0  0  0  0  0  0  0  0  0  0  0
  1 16  1  0
  2  1  2  0
  3  2  1  0
  4  3  2  0
  4  5  1  0
  5  1  1  0
  7  8  2  0
  7  6  1  0
  8  4  1  0
  9  8  1  0
 10  9  2  0
 11 10  1  0
 11 13  2  0
 12 11  1  0
 13  7  1  0
 14 19  2  0
 15 14  1  0
 16 17  1  0
 16 15  2  0
 17 18  2  0
 18 19  1  0
 20 25  1  0
 20 21  1  0
 20 24  1  0
 21 18  1  0
 21 22  1  0
 22 23  1  0
 24 23  1  0
  2 26  1  0
  3 27  1  0
  9 28  1  0
 10 29  1  0
 13 30  1  0
 14 31  1  0
 15 32  1  0
 20 33  1  6
 21 34  1  6
 22 35  1  0
 22 36  1  0
 24 37  1  0
 24 38  1  0
 25 39  1  0
M  ISO  8  26  14  27  14  28  14  29  14  30  14  31  14  32  14  33  13
M  ISO  6  34  13  35  13  36  13  37  13  38  13  39   3
M  END
>  <minimizedAffinity>  (1) 
-6.59762955

>  <minimizedRMSD>  (1) 
2.9044683

$$$$
