
     RDKit          3D

 35 38  0  0  0  0  0  0  0  0999 V2000
   37.1080   30.8960   47.3930 C   0  0  0  0  0  0  0  0  0  0  0  0
   38.0290   31.8580   47.4260 C   0  0  0  0  0  0  0  0  0  0  0  0
   38.5340   32.3630   46.2750 C   0  0  0  0  0  0  0  0  0  0  0  0
   38.0410   31.8310   45.0990 C   0  0  0  0  0  0  0  0  0  0  0  0
   36.8300   30.5780   45.6830 S   0  0  0  0  0  0  0  0  0  0  0  0
   40.7720   30.9320   44.1020 Cl  0  0  0  0  0  0  0  0  0  0  0  0
   39.5140   31.7250   43.1940 C   0  0  0  0  0  0  0  0  0  0  0  0
   38.3160   32.0970   43.7160 C   0  0  0  0  0  0  0  0  0  0  0  0
   37.3140   32.7200   43.0370 C   0  0  0  0  0  0  0  0  0  0  0  0
   37.4850   33.0220   41.6870 C   0  0  0  0  0  0  0  0  0  0  0  0
   38.6860   32.6680   41.0950 C   0  0  0  0  0  0  0  0  0  0  0  0
   38.9960   33.0050   39.4040 Cl  0  0  0  0  0  0  0  0  0  0  0  0
   39.6950   32.0240   41.8370 C   0  0  0  0  0  0  0  0  0  0  0  0
   36.0740   29.6140   50.7800 C   0  0  0  0  0  0  0  0  0  0  0  0
   36.8040   30.3320   49.8160 C   0  0  0  0  0  0  0  0  0  0  0  0
   36.4070   30.1820   48.4670 C   0  0  0  0  0  0  0  0  0  0  0  0
   35.3840   29.3880   48.1580 N   0  0  0  0  0  0  0  0  0  0  0  0
   34.7040   28.7110   49.1150 C   0  0  0  0  0  0  0  0  0  0  0  0
   35.0440   28.8230   50.4030 N   0  0  0  0  0  0  0  0  0  0  0  0
   33.5970   27.8630   48.6830 C   0  0  0  0  0  0  0  0  0  0  0  0
   33.8060   26.7900   47.8400 C   0  0  0  0  0  0  0  0  0  0  0  0
   32.6920   26.0310   47.4760 C   0  0  0  0  0  0  0  0  0  0  0  0
   31.4520   26.3230   47.9230 N   0  0  0  0  0  0  0  0  0  0  0  0
   31.2870   27.3760   48.7430 C   0  0  0  0  0  0  0  0  0  0  0  0
   32.3540   28.1380   49.1180 N   0  0  0  0  0  0  0  0  0  0  0  0
   38.3815   32.2445   48.3937 H   0  0  0  0  0  0  0  0  0  0  0  0
   39.2969   33.1554   46.2765 H   0  0  0  0  0  0  0  0  0  0  0  0
   36.3769   32.9830   43.5496 H   0  0  0  0  0  0  0  0  0  0  0  0
   36.6933   33.5242   41.1116 H   0  0  0  0  0  0  0  0  0  0  0  0
   40.6397   31.7515   41.3437 H   0  0  0  0  0  0  0  0  0  0  0  0
   36.3416   29.6961   51.8438 H   0  0  0  0  0  0  0  0  0  0  0  0
   37.6459   30.9811   50.0986 H   0  0  0  0  0  0  0  0  0  0  0  0
   34.8116   26.5424   47.4692 H   0  0  0  0  0  0  0  0  0  0  0  0
   32.8287   25.1699   46.8054 H   0  0  0  0  0  0  0  0  0  0  0  0
   30.2821   27.6250   49.1147 H   0  0  0  0  0  0  0  0  0  0  0  0
  1  2  2  0
  1 16  1  0
  3  2  1  0
  4  5  1  0
  4  3  2  0
  5  1  1  0
  7  8  2  0
  7  6  1  0
  8  4  1  0
  9  8  1  0
 10  9  2  0
 11 10  1  0
 11 13  2  0
 12 11  1  0
 13  7  1  0
 15 14  2  0
 16 15  1  0
 17 16  2  0
 17 18  1  0
 18 19  2  0
 19 14  1  0
 20 18  1  0
 20 25  1  0
 21 20  2  0
 22 21  1  0
 22 23  2  0
 23 24  1  0
 24 25  2  0
  2 26  1  0
  3 27  1  0
  9 28  1  0
 10 29  1  0
 13 30  1  0
 14 31  1  0
 15 32  1  0
 21 33  1  0
 22 34  1  0
 24 35  1  0
M  ISO  8  26  14  27  14  28  14  29  14  30  14  31  14  32  14  33  14
M  ISO  2  34  14  35  14
M  END
>  <minimizedAffinity>  (1) 
-6.00715828

>  <minimizedRMSD>  (1) 
1.52188265

$$$$
