
     RDKit          3D

 29 31  0  0  0  0  0  0  0  0999 V2000
   37.6740   31.2920   48.2060 C   0  0  0  0  0  0  0  0  0  0  0  0
   38.5290   32.3070   48.0860 C   0  0  0  0  0  0  0  0  0  0  0  0
   38.9270   32.7130   46.8660 C   0  0  0  0  0  0  0  0  0  0  0  0
   38.4120   32.0380   45.7760 C   0  0  0  0  0  0  0  0  0  0  0  0
   37.3260   30.7870   46.5690 S   0  0  0  0  0  0  0  0  0  0  0  0
   41.1530   31.2300   44.7170 Cl  0  0  0  0  0  0  0  0  0  0  0  0
   39.7830   31.8250   43.8020 C   0  0  0  0  0  0  0  0  0  0  0  0
   38.5860   32.1680   44.3550 C   0  0  0  0  0  0  0  0  0  0  0  0
   37.5080   32.6320   43.6890 C   0  0  0  0  0  0  0  0  0  0  0  0
   37.5980   32.7850   42.3000 C   0  0  0  0  0  0  0  0  0  0  0  0
   38.7740   32.4580   41.6830 C   0  0  0  0  0  0  0  0  0  0  0  0
   38.9720   32.6220   39.9480 Cl  0  0  0  0  0  0  0  0  0  0  0  0
   39.8530   31.9850   42.4200 C   0  0  0  0  0  0  0  0  0  0  0  0
   37.1580   29.9190   51.6780 C   0  0  0  0  0  0  0  0  0  0  0  0
   37.7940   30.5510   50.5960 C   0  0  0  0  0  0  0  0  0  0  0  0
   37.0820   30.6490   49.3860 C   0  0  0  0  0  0  0  0  0  0  0  0
   35.8510   30.1400   49.3280 N   0  0  0  0  0  0  0  0  0  0  0  0
   35.2650   29.5420   50.3730 C   0  0  0  0  0  0  0  0  0  0  0  0
   35.9130   29.4350   51.5320 N   0  0  0  0  0  0  0  0  0  0  0  0
   33.9120   29.0220   50.1950 C   0  0  0  0  0  0  0  0  0  0  0  0
   33.6730   28.2830   49.2020 O   0  0  0  0  0  0  0  0  0  0  0  0
   38.9100   32.8136   48.9850 H   0  0  0  0  0  0  0  0  0  0  0  0
   39.6329   33.5475   46.7419 H   0  0  0  0  0  0  0  0  0  0  0  0
   36.5807   32.8840   44.2244 H   0  0  0  0  0  0  0  0  0  0  0  0
   36.7426   33.1595   41.7185 H   0  0  0  0  0  0  0  0  0  0  0  0
   40.7872   31.7302   41.8982 H   0  0  0  0  0  0  0  0  0  0  0  0
   37.6781   29.8207   52.6423 H   0  0  0  0  0  0  0  0  0  0  0  0
   38.8127   30.9550   50.6914 H   0  0  0  0  0  0  0  0  0  0  0  0
   33.1169   29.2703   50.9134 H   0  0  0  0  0  0  0  0  0  0  0  0
  1 16  1  0
  2  1  2  0
  3  2  1  0
  4  5  1  0
  4  3  2  0
  5  1  1  0
  7  8  2  0
  7  6  1  0
  8  4  1  0
  9  8  1  0
 10  9  2  0
 11 10  1  0
 11 13  2  0
 12 11  1  0
 13  7  1  0
 15 14  2  0
 16 15  1  0
 17 16  2  0
 17 18  1  0
 18 19  2  0
 19 14  1  0
 20 18  1  0
 21 20  2  0
  2 22  1  0
  3 23  1  0
  9 24  1  0
 10 25  1  0
 13 26  1  0
 14 27  1  0
 15 28  1  0
 20 29  1  0
M  ISO  8  22  14  23  14  24  14  25  14  26  14  27  14  28  14  29   6
M  END
>  <minimizedAffinity>  (1) 
-5.7345109

>  <minimizedRMSD>  (1) 
0.411989808

$$$$
