
     RDKit          3D

 32 34  0  0  1  0  0  0  0  0999 V2000
   36.2960   29.7460   49.4920 N   0  0  0  0  0  0  0  0  0  0  0  0
   36.8680   31.0860   49.5440 C   0  0  1  0  0  0  0  0  0  0  0  0
   37.4470   31.1210   50.9350 C   0  0  0  0  0  0  0  0  0  0  0  0
   37.0910   29.7920   51.6050 C   0  0  0  0  0  0  0  0  0  0  0  0
   37.0330   28.8940   50.3970 C   0  0  0  0  0  0  0  0  0  0  0  0
   35.1820   29.3190   48.6940 C   0  0  0  0  0  0  0  0  0  0  0  0
   34.6420   30.2700   47.8100 C   0  0  0  0  0  0  0  0  0  0  0  0
   33.5550   29.8780   47.0360 C   0  0  0  0  0  0  0  0  0  0  0  0
   33.0930   28.5870   47.1970 N   0  0  0  0  0  0  0  0  0  0  0  0
   33.6400   27.7120   48.0510 C   0  0  0  0  0  0  0  0  0  0  0  0
   34.7000   28.0880   48.8100 N   0  0  0  0  0  0  0  0  0  0  0  0
   38.0370   33.5760   49.4200 F   0  0  0  0  0  0  0  0  0  0  0  0
   38.3560   32.6820   48.4350 C   0  0  0  0  0  0  0  0  0  0  0  0
   37.7840   31.4040   48.4620 C   0  0  0  0  0  0  0  0  0  0  0  0
   38.1880   30.6060   47.4130 C   0  0  0  0  0  0  0  0  0  0  0  0
   39.0630   30.9810   46.4170 C   0  0  0  0  0  0  0  0  0  0  0  0
   39.5890   32.2540   46.4500 C   0  0  0  0  0  0  0  0  0  0  0  0
   39.2360   33.1170   47.4660 C   0  0  0  0  0  0  0  0  0  0  0  0
   36.1324   31.8863   49.3755 H   0  0  0  0  0  0  0  0  0  0  0  0
   38.5397   31.2379   50.8859 H   0  0  0  0  0  0  0  0  0  0  0  0
   37.0407   31.9685   51.5066 H   0  0  0  0  0  0  0  0  0  0  0  0
   37.8685   29.4717   52.3142 H   0  0  0  0  0  0  0  0  0  0  0  0
   36.1733   29.8112   52.2111 H   0  0  0  0  0  0  0  0  0  0  0  0
   36.4942   27.9585   50.6082 H   0  0  0  0  0  0  0  0  0  0  0  0
   38.0099   28.5532   50.0234 H   0  0  0  0  0  0  0  0  0  0  0  0
   35.0626   31.2836   47.7337 H   0  0  0  0  0  0  0  0  0  0  0  0
   33.0818   30.5696   46.3234 H   0  0  0  0  0  0  0  0  0  0  0  0
   33.2320   26.6940   48.1366 H   0  0  0  0  0  0  0  0  0  0  0  0
   37.7782   29.5862   47.3674 H   0  0  0  0  0  0  0  0  0  0  0  0
   39.3353   30.2803   45.6140 H   0  0  0  0  0  0  0  0  0  0  0  0
   40.2892   32.5813   45.6674 H   0  0  0  0  0  0  0  0  0  0  0  0
   39.6495   34.1357   47.5031 H   0  0  0  0  0  0  0  0  0  0  0  0
  1  2  1  0
  1  5  1  0
  2  3  1  0
  3  4  1  0
  5  4  1  0
  6 11  1  0
  6  1  1  0
  7  6  2  0
  8  9  2  0
  8  7  1  0
  9 10  1  0
 10 11  2  0
 13 14  2  0
 13 12  1  0
 14  2  1  0
 15 14  1  0
 16 17  1  0
 16 15  2  0
 17 18  2  0
 18 13  1  0
  2 19  1  1
  3 20  1  0
  3 21  1  0
  4 22  1  0
  4 23  1  0
  5 24  1  0
  5 25  1  0
  7 26  1  0
  8 27  1  0
 10 28  1  0
 15 29  1  0
 16 30  1  0
 17 31  1  0
 18 32  1  0
M  ISO  8  19  13  20  13  21  13  22  13  23  13  24  13  25  13  26  14
M  ISO  6  27  14  28  14  29  14  30  14  31  14  32  14
M  END
>  <minimizedAffinity>  (1) 
-6.16899157

>  <minimizedRMSD>  (1) 
2.26701641

$$$$
