
     RDKit          3D

 28 29  0  0  1  0  0  0  0  0999 V2000
   36.5550   29.7240   49.3410 N   0  0  0  0  0  0  0  0  0  0  0  0
   37.3720   30.8620   48.9890 C   0  0  1  0  0  0  0  0  0  0  0  0
   37.9970   31.2500   50.3280 C   0  0  0  0  0  0  0  0  0  0  0  0
   37.4730   30.2550   51.3350 C   0  0  0  0  0  0  0  0  0  0  0  0
   37.1960   29.0500   50.4690 C   0  0  0  0  0  0  0  0  0  0  0  0
   35.3510   29.3100   48.7260 C   0  0  0  0  0  0  0  0  0  0  0  0
   34.8560   30.1030   47.6950 C   0  0  0  0  0  0  0  0  0  0  0  0
   33.6710   29.7530   47.0420 C   0  0  0  0  0  0  0  0  0  0  0  0
   33.0490   28.6090   47.4750 N   0  0  0  0  0  0  0  0  0  0  0  0
   33.5510   27.8540   48.4790 C   0  0  0  0  0  0  0  0  0  0  0  0
   34.7130   28.2110   49.1080 N   0  0  0  0  0  0  0  0  0  0  0  0
   38.3780   30.5140   48.0770 O   0  0  0  0  0  0  0  0  0  0  0  0
   39.8590   31.7640   46.2740 O   0  0  0  0  0  0  0  0  0  0  0  0
   38.5410   31.8270   47.0190 P   0  0  0  0  0  0  0  0  0  0  0  0
   38.5250   33.2440   47.9180 O   0  0  0  0  0  0  0  0  0  0  0  0
   37.2890   31.7990   45.8560 O   0  0  0  0  0  0  0  0  0  0  0  0
   36.7957   31.6653   48.5068 H   0  0  0  0  0  0  0  0  0  0  0  0
   39.0939   31.1925   50.2689 H   0  0  0  0  0  0  0  0  0  0  0  0
   37.7395   32.2818   50.6092 H   0  0  0  0  0  0  0  0  0  0  0  0
   38.2265   30.0299   52.1041 H   0  0  0  0  0  0  0  0  0  0  0  0
   36.5955   30.6104   51.8950 H   0  0  0  0  0  0  0  0  0  0  0  0
   36.5202   28.3348   50.9607 H   0  0  0  0  0  0  0  0  0  0  0  0
   38.0730   28.4355   50.2176 H   0  0  0  0  0  0  0  0  0  0  0  0
   35.4002   31.0098   47.3925 H   0  0  0  0  0  0  0  0  0  0  0  0
   33.2587   30.3623   46.2242 H   0  0  0  0  0  0  0  0  0  0  0  0
   33.0197   26.9435   48.7932 H   0  0  0  0  0  0  0  0  0  0  0  0
   38.5275   33.0227   48.8829 H   0  0  0  0  0  0  0  0  0  0  0  0
   36.4123   31.7794   46.3154 H   0  0  0  0  0  0  0  0  0  0  0  0
  1  5  1  0
  2  1  1  0
  2  3  1  0
  3  4  1  0
  5  4  1  0
  6 11  1  0
  6  1  1  0
  7  6  2  0
  8  9  2  0
  8  7  1  0
  9 10  1  0
 10 11  2  0
 12  2  1  0
 13 14  2  0
 14 15  1  0
 14 12  1  0
 16 14  1  0
  2 17  1  6
  3 18  1  0
  3 19  1  0
  4 20  1  0
  4 21  1  0
  5 22  1  0
  5 23  1  0
  7 24  1  0
  8 25  1  0
 10 26  1  0
 15 27  1  0
 16 28  1  0
M  ISO  8  17  13  18  13  19  13  20  13  21  13  22  13  23  13  24  14
M  ISO  4  25  14  26  14  27   3  28   3
M  END
>  <minimizedAffinity>  (1) 
-5.36709785

>  <minimizedRMSD>  (1) 
1.01654482

$$$$
