
     RDKit          3D

 28 29  0  0  1  0  0  0  0  0999 V2000
   36.2130   29.8630   49.1300 N   0  0  0  0  0  0  0  0  0  0  0  0
   36.8600   31.0970   48.7820 C   0  0  1  0  0  0  0  0  0  0  0  0
   37.4790   31.5340   50.1190 C   0  0  0  0  0  0  0  0  0  0  0  0
   37.2640   30.3790   51.0850 C   0  0  0  0  0  0  0  0  0  0  0  0
   37.0610   29.2260   50.1320 C   0  0  0  0  0  0  0  0  0  0  0  0
   34.9950   29.3410   48.6220 C   0  0  0  0  0  0  0  0  0  0  0  0
   34.5700   29.8040   47.3770 C   0  0  0  0  0  0  0  0  0  0  0  0
   33.3780   29.3080   46.8530 C   0  0  0  0  0  0  0  0  0  0  0  0
   32.6900   28.3880   47.5980 N   0  0  0  0  0  0  0  0  0  0  0  0
   33.1270   27.9600   48.7960 C   0  0  0  0  0  0  0  0  0  0  0  0
   34.2950   28.4410   49.3190 N   0  0  0  0  0  0  0  0  0  0  0  0
   38.0610   30.8710   47.8550 C   0  0  0  0  0  0  0  0  0  0  0  0
   38.8860   32.1200   47.7320 C   0  0  0  0  0  0  0  0  0  0  0  0
   36.1561   31.7884   48.2957 H   0  0  0  0  0  0  0  0  0  0  0  0
   38.5539   31.7319   49.9948 H   0  0  0  0  0  0  0  0  0  0  0  0
   37.0152   32.4592   50.4916 H   0  0  0  0  0  0  0  0  0  0  0  0
   38.1443   30.2212   51.7254 H   0  0  0  0  0  0  0  0  0  0  0  0
   36.4330   30.5313   51.7894 H   0  0  0  0  0  0  0  0  0  0  0  0
   36.5520   28.3807   50.6182 H   0  0  0  0  0  0  0  0  0  0  0  0
   37.9886   28.7854   49.7377 H   0  0  0  0  0  0  0  0  0  0  0  0
   35.1631   30.5448   46.8207 H   0  0  0  0  0  0  0  0  0  0  0  0
   33.0028   29.6438   45.8750 H   0  0  0  0  0  0  0  0  0  0  0  0
   32.5409   27.2183   49.3584 H   0  0  0  0  0  0  0  0  0  0  0  0
   38.6867   30.0652   48.2663 H   0  0  0  0  0  0  0  0  0  0  0  0
   37.6879   30.5967   46.8572 H   0  0  0  0  0  0  0  0  0  0  0  0
   39.1342   32.4958   48.7356 H   0  0  0  0  0  0  0  0  0  0  0  0
   39.8134   31.8945   47.1852 H   0  0  0  0  0  0  0  0  0  0  0  0
   38.3146   32.8845   47.1852 H   0  0  0  0  0  0  0  0  0  0  0  0
  1  5  1  0
  2  1  1  0
  2  3  1  0
  3  4  1  0
  5  4  1  0
  6  1  1  0
  6 11  1  0
  7  6  2  0
  8  7  1  0
  8  9  2  0
  9 10  1  0
 10 11  2  0
 12  2  1  0
 13 12  1  0
  2 14  1  6
  3 15  1  0
  3 16  1  0
  4 17  1  0
  4 18  1  0
  5 19  1  0
  5 20  1  0
  7 21  1  0
  8 22  1  0
 10 23  1  0
 12 24  1  0
 12 25  1  0
 13 26  1  0
 13 27  1  0
 13 28  1  0
M  ISO  8  14  13  15  13  16  13  17  13  18  13  19  13  20  13  21  14
M  ISO  7  22  14  23  14  24   8  25   8  26   8  27   8  28   8
M  END
>  <minimizedAffinity>  (1) 
-4.53423262

>  <minimizedRMSD>  (1) 
1.2124908

$$$$
