
     RDKit          3D

 23 24  0  0  1  0  0  0  0  0999 V2000
   36.3760   29.8620   49.2170 N   0  0  0  0  0  0  0  0  0  0  0  0
   36.9980   31.1230   48.9260 C   0  0  1  0  0  0  0  0  0  0  0  0
   37.7480   31.4280   50.2080 C   0  0  0  0  0  0  0  0  0  0  0  0
   37.4090   30.3190   51.1780 C   0  0  0  0  0  0  0  0  0  0  0  0
   37.2100   29.1780   50.2120 C   0  0  0  0  0  0  0  0  0  0  0  0
   35.1890   29.3400   48.6680 C   0  0  0  0  0  0  0  0  0  0  0  0
   34.5990   30.0550   47.6270 C   0  0  0  0  0  0  0  0  0  0  0  0
   33.4320   29.6140   47.0130 C   0  0  0  0  0  0  0  0  0  0  0  0
   32.9180   28.4320   47.5080 N   0  0  0  0  0  0  0  0  0  0  0  0
   33.4990   27.7590   48.5100 C   0  0  0  0  0  0  0  0  0  0  0  0
   34.6480   28.2110   49.1010 N   0  0  0  0  0  0  0  0  0  0  0  0
   38.1540   30.8100   47.5590 S   0  0  0  0  0  0  0  0  0  0  0  0
   36.3239   31.9438   48.6399 H   0  0  0  0  0  0  0  0  0  0  0  0
   38.8314   31.4492   50.0186 H   0  0  0  0  0  0  0  0  0  0  0  0
   37.4625   32.4106   50.6117 H   0  0  0  0  0  0  0  0  0  0  0  0
   38.2346   30.1222   51.8778 H   0  0  0  0  0  0  0  0  0  0  0  0
   36.5513   30.5245   51.8354 H   0  0  0  0  0  0  0  0  0  0  0  0
   36.6854   28.3304   50.6773 H   0  0  0  0  0  0  0  0  0  0  0  0
   38.1320   28.7215   49.8229 H   0  0  0  0  0  0  0  0  0  0  0  0
   35.0672   30.9892   47.2835 H   0  0  0  0  0  0  0  0  0  0  0  0
   32.9527   30.1671   46.1918 H   0  0  0  0  0  0  0  0  0  0  0  0
   33.0430   26.8232   48.8655 H   0  0  0  0  0  0  0  0  0  0  0  0
   39.3822   30.4774   48.0667 H   0  0  0  0  0  0  0  0  0  0  0  0
  1  5  1  0
  2  1  1  0
  2  3  1  0
  3  4  1  0
  5  4  1  0
  6 11  1  0
  6  1  1  0
  7  6  2  0
  8  9  2  0
  8  7  1  0
  9 10  1  0
 10 11  2  0
 12  2  1  0
  2 13  1  6
  3 14  1  0
  3 15  1  0
  4 16  1  0
  4 17  1  0
  5 18  1  0
  5 19  1  0
  7 20  1  0
  8 21  1  0
 10 22  1  0
 12 23  1  0
M  ISO  8  13  13  14  13  15  13  16  13  17  13  18  13  19  13  20  14
M  ISO  3  21  14  22  14  23  11
M  END
>  <minimizedAffinity>  (1) 
-4.19236231

>  <minimizedRMSD>  (1) 
0.617501497

$$$$
