
     RDKit          3D

 40 43  0  0  1  0  0  0  0  0999 V2000
   36.4900   29.6440   49.7470 N   0  0  0  0  0  0  0  0  0  0  0  0
   36.6790   30.7970   50.5440 C   0  0  1  0  0  0  0  0  0  0  0  0
   37.5200   30.3250   51.7240 C   0  0  0  0  0  0  0  0  0  0  0  0
   37.7640   28.8280   51.4300 C   0  0  0  0  0  0  0  0  0  0  0  0
   37.6890   28.8650   49.9190 C   0  0  0  0  0  0  0  0  0  0  0  0
   35.3440   29.3380   48.9580 C   0  0  0  0  0  0  0  0  0  0  0  0
   34.6200   28.1970   49.2330 C   0  0  0  0  0  0  0  0  0  0  0  0
   33.4680   27.9090   48.4970 C   0  0  0  0  0  0  0  0  0  0  0  0
   33.1300   28.8220   47.5120 N   0  0  0  0  0  0  0  0  0  0  0  0
   33.8600   29.9260   47.2690 C   0  0  0  0  0  0  0  0  0  0  0  0
   34.9780   30.1920   47.9960 N   0  0  0  0  0  0  0  0  0  0  0  0
   37.0360   32.0300   49.9140 C   0  0  0  0  0  0  0  0  0  0  0  0
   36.1500   32.9020   49.9740 O   0  0  0  0  0  0  0  0  0  0  0  0
   38.1440   32.6170   49.1720 C   0  0  0  0  0  0  0  0  0  0  0  0
   38.8290   33.7300   49.6050 C   0  0  0  0  0  0  0  0  0  0  0  0
   39.8070   34.4290   48.9340 C   0  0  0  0  0  0  0  0  0  0  0  0
   40.1480   33.9740   47.6840 C   0  0  0  0  0  0  0  0  0  0  0  0
   39.5150   32.8680   47.1750 C   0  0  0  0  0  0  0  0  0  0  0  0
   39.8890   32.4140   45.9320 C   0  0  0  0  0  0  0  0  0  0  0  0
   39.3370   31.3020   45.3390 C   0  0  0  0  0  0  0  0  0  0  0  0
   38.3580   30.6480   46.0880 C   0  0  0  0  0  0  0  0  0  0  0  0
   38.0060   31.1270   47.3290 C   0  0  0  0  0  0  0  0  0  0  0  0
   38.5520   32.2380   47.9230 C   0  0  0  0  0  0  0  0  0  0  0  0
   35.7041   31.1804   50.8795 H   0  0  0  0  0  0  0  0  0  0  0  0
   38.4715   30.8748   51.7714 H   0  0  0  0  0  0  0  0  0  0  0  0
   37.0251   30.4924   52.6920 H   0  0  0  0  0  0  0  0  0  0  0  0
   38.7498   28.4937   51.7855 H   0  0  0  0  0  0  0  0  0  0  0  0
   37.0680   28.1313   51.9201 H   0  0  0  0  0  0  0  0  0  0  0  0
   37.5859   27.8571   49.4906 H   0  0  0  0  0  0  0  0  0  0  0  0
   38.5813   29.2719   49.4207 H   0  0  0  0  0  0  0  0  0  0  0  0
   34.9490   27.5147   50.0306 H   0  0  0  0  0  0  0  0  0  0  0  0
   32.8646   27.0095   48.6887 H   0  0  0  0  0  0  0  0  0  0  0  0
   33.5493   30.6202   46.4743 H   0  0  0  0  0  0  0  0  0  0  0  0
   38.5637   34.1048   50.6046 H   0  0  0  0  0  0  0  0  0  0  0  0
   40.2924   35.3105   49.3782 H   0  0  0  0  0  0  0  0  0  0  0  0
   40.9210   34.4911   47.0965 H   0  0  0  0  0  0  0  0  0  0  0  0
   40.6672   32.9667   45.3853 H   0  0  0  0  0  0  0  0  0  0  0  0
   39.6462   30.9525   44.3429 H   0  0  0  0  0  0  0  0  0  0  0  0
   37.8674   29.7492   45.6862 H   0  0  0  0  0  0  0  0  0  0  0  0
   37.2308   30.5801   47.8857 H   0  0  0  0  0  0  0  0  0  0  0  0
  1  5  1  0
  1  2  1  0
  2  3  1  0
  4  3  1  0
  5  4  1  0
  6  7  2  0
  6  1  1  0
  8  7  1  0
  9  8  2  0
 10  9  1  0
 10 11  2  0
 11  6  1  0
 12 13  2  0
 12  2  1  0
 14 15  2  0
 14 12  1  0
 16 15  1  0
 17 16  2  0
 18 17  1  0
 18 23  2  0
 19 18  1  0
 20 19  2  0
 20 21  1  0
 21 22  2  0
 22 23  1  0
 23 14  1  0
  2 24  1  1
  3 25  1  0
  3 26  1  0
  4 27  1  0
  4 28  1  0
  5 29  1  0
  5 30  1  0
  7 31  1  0
  8 32  1  0
 10 33  1  0
 15 34  1  0
 16 35  1  0
 17 36  1  0
 19 37  1  0
 20 38  1  0
 21 39  1  0
 22 40  1  0
M  ISO  8  24  13  25  13  26  13  27  13  28  13  29  13  30  13  31  14
M  ISO  8  32  14  33  14  34  14  35  14  36  14  37  14  38  14  39  14
M  ISO  1  40  14
M  END
>  <minimizedAffinity>  (1) 
-6.36359358

>  <minimizedRMSD>  (1) 
3.91450667

$$$$
