
     RDKit          3D

 33 35  0  0  1  0  0  0  0  0999 V2000
   36.2160   29.8620   49.0870 N   0  0  0  0  0  0  0  0  0  0  0  0
   36.7260   31.1880   49.0960 C   0  0  1  0  0  0  0  0  0  0  0  0
   37.3340   31.3730   50.4630 C   0  0  0  0  0  0  0  0  0  0  0  0
   37.0670   30.0220   51.1710 C   0  0  0  0  0  0  0  0  0  0  0  0
   37.0560   29.1110   49.9760 C   0  0  0  0  0  0  0  0  0  0  0  0
   35.0920   29.3960   48.3470 C   0  0  0  0  0  0  0  0  0  0  0  0
   34.3430   30.3310   47.6140 C   0  0  0  0  0  0  0  0  0  0  0  0
   33.2400   29.8930   46.8800 C   0  0  0  0  0  0  0  0  0  0  0  0
   32.9620   28.5350   46.9330 N   0  0  0  0  0  0  0  0  0  0  0  0
   33.7080   27.6730   47.6510 C   0  0  0  0  0  0  0  0  0  0  0  0
   34.7920   28.0910   48.3730 N   0  0  0  0  0  0  0  0  0  0  0  0
   37.5350   31.6190   47.9810 C   0  0  0  0  0  0  0  0  0  0  0  0
   38.1500   32.6520   48.0580 O   0  0  0  0  0  0  0  0  0  0  0  0
   37.7710   31.0130   46.6490 C   0  0  0  0  0  0  0  0  0  0  0  0
   38.9950   30.5740   46.2060 C   0  0  0  0  0  0  0  0  0  0  0  0
   39.2080   30.0210   44.9660 C   0  0  0  0  0  0  0  0  0  0  0  0
   38.1640   29.8790   44.0830 C   0  0  0  0  0  0  0  0  0  0  0  0
   36.9370   30.3180   44.5220 C   0  0  0  0  0  0  0  0  0  0  0  0
   36.8050   30.8430   45.7360 N   0  0  0  0  0  0  0  0  0  0  0  0
   35.8972   31.8896   48.9206 H   0  0  0  0  0  0  0  0  0  0  0  0
   38.4137   31.5699   50.3885 H   0  0  0  0  0  0  0  0  0  0  0  0
   36.9081   32.2296   51.0060 H   0  0  0  0  0  0  0  0  0  0  0  0
   37.8703   29.7631   51.8765 H   0  0  0  0  0  0  0  0  0  0  0  0
   36.1588   29.9907   51.7909 H   0  0  0  0  0  0  0  0  0  0  0  0
   36.6198   28.1302   50.2163 H   0  0  0  0  0  0  0  0  0  0  0  0
   38.0506   28.8682   49.5736 H   0  0  0  0  0  0  0  0  0  0  0  0
   34.6223   31.3949   47.6184 H   0  0  0  0  0  0  0  0  0  0  0  0
   32.6236   30.5878   46.2906 H   0  0  0  0  0  0  0  0  0  0  0  0
   33.4387   26.6065   47.6568 H   0  0  0  0  0  0  0  0  0  0  0  0
   39.8557   30.6708   46.8840 H   0  0  0  0  0  0  0  0  0  0  0  0
   40.2173   29.6909   44.6791 H   0  0  0  0  0  0  0  0  0  0  0  0
   38.3020   29.4400   43.0839 H   0  0  0  0  0  0  0  0  0  0  0  0
   36.0592   30.2342   43.8644 H   0  0  0  0  0  0  0  0  0  0  0  0
  1  2  1  0
  1  5  1  0
  2  3  1  0
  3  4  1  0
  5  4  1  0
  6 11  1  0
  6  1  1  0
  7  6  2  0
  8  9  2  0
  8  7  1  0
  9 10  1  0
 10 11  2  0
 12 13  2  0
 12  2  1  0
 14 12  1  0
 15 14  2  0
 16 15  1  0
 17 18  1  0
 17 16  2  0
 18 19  2  0
 19 14  1  0
  2 20  1  1
  3 21  1  0
  3 22  1  0
  4 23  1  0
  4 24  1  0
  5 25  1  0
  5 26  1  0
  7 27  1  0
  8 28  1  0
 10 29  1  0
 15 30  1  0
 16 31  1  0
 17 32  1  0
 18 33  1  0
M  ISO  8  20  13  21  13  22  13  23  13  24  13  25  13  26  13  27  14
M  ISO  6  28  14  29  14  30  14  31  14  32  14  33  14
M  END
>  <minimizedAffinity>  (1) 
-5.15410089

>  <minimizedRMSD>  (1) 
1.08043122

$$$$
