
     RDKit          3D

 31 33  0  0  1  0  0  0  0  0999 V2000
   37.1600   31.0100   48.4930 N   0  0  0  0  0  0  0  0  0  0  0  0
   36.7330   29.8400   49.1720 C   0  0  1  0  0  0  0  0  0  0  0  0
   37.4850   29.8390   50.4770 C   0  0  0  0  0  0  0  0  0  0  0  0
   38.3940   31.0850   50.3750 C   0  0  0  0  0  0  0  0  0  0  0  0
   37.5240   31.9580   49.5160 C   0  0  0  0  0  0  0  0  0  0  0  0
   37.2280   31.1930   47.0850 C   0  0  0  0  0  0  0  0  0  0  0  0
   36.4120   30.3920   46.2730 C   0  0  0  0  0  0  0  0  0  0  0  0
   36.4580   30.5460   44.8870 C   0  0  0  0  0  0  0  0  0  0  0  0
   37.3290   31.5030   44.4070 N   0  0  0  0  0  0  0  0  0  0  0  0
   38.1010   32.2570   45.2190 C   0  0  0  0  0  0  0  0  0  0  0  0
   38.0610   32.1120   46.5800 N   0  0  0  0  0  0  0  0  0  0  0  0
   35.3100   29.5880   49.2710 C   0  0  0  0  0  0  0  0  0  0  0  0
   34.5120   30.4860   49.2760 O   0  0  0  0  0  0  0  0  0  0  0  0
   34.6230   28.2750   49.3900 C   0  0  0  0  0  0  0  0  0  0  0  0
   34.2110   27.6270   48.0630 C   0  0  0  0  0  0  0  0  0  0  0  0
   33.1670   28.1770   48.9610 C   0  0  0  0  0  0  0  0  0  0  0  0
   36.9788   28.9623   48.5562 H   0  0  0  0  0  0  0  0  0  0  0  0
   36.7939   29.9259   51.3284 H   0  0  0  0  0  0  0  0  0  0  0  0
   38.0506   28.9103   50.6431 H   0  0  0  0  0  0  0  0  0  0  0  0
   38.5830   31.5367   51.3600 H   0  0  0  0  0  0  0  0  0  0  0  0
   39.4032   30.8968   49.9799 H   0  0  0  0  0  0  0  0  0  0  0  0
   38.0816   32.8116   49.1031 H   0  0  0  0  0  0  0  0  0  0  0  0
   36.6772   32.4282   50.0374 H   0  0  0  0  0  0  0  0  0  0  0  0
   35.7404   29.6476   46.7256 H   0  0  0  0  0  0  0  0  0  0  0  0
   35.8348   29.9385   44.2143 H   0  0  0  0  0  0  0  0  0  0  0  0
   38.7768   33.0041   44.7773 H   0  0  0  0  0  0  0  0  0  0  0  0
   35.1835   27.9844   50.2908 H   0  0  0  0  0  0  0  0  0  0  0  0
   34.3039   26.5388   47.9318 H   0  0  0  0  0  0  0  0  0  0  0  0
   34.4846   27.7796   47.0086 H   0  0  0  0  0  0  0  0  0  0  0  0
   32.6207   29.0866   48.6707 H   0  0  0  0  0  0  0  0  0  0  0  0
   32.2548   27.7694   49.4211 H   0  0  0  0  0  0  0  0  0  0  0  0
  1  2  1  0
  1  5  1  0
  2 12  1  0
  2  3  1  0
  4  3  1  0
  5  4  1  0
  6  1  1  0
  7  6  2  0
  8  7  1  0
  9  8  2  0
  9 10  1  0
 10 11  2  0
 11  6  1  0
 12 13  2  0
 12 14  1  0
 15 16  1  0
 15 14  1  0
 16 14  1  0
  2 17  1  6
  3 18  1  0
  3 19  1  0
  4 20  1  0
  4 21  1  0
  5 22  1  0
  5 23  1  0
  7 24  1  0
  8 25  1  0
 10 26  1  0
 14 27  1  0
 15 28  1  0
 15 29  1  0
 16 30  1  0
 16 31  1  0
M  ISO  8  17  13  18  13  19  13  20  13  21  13  22  13  23  13  24  14
M  ISO  7  25  14  26  14  27  13  28  13  29  13  30  13  31  13
M  END
>  <minimizedAffinity>  (1) 
-5.15178823

>  <minimizedRMSD>  (1) 
4.12150955

$$$$
