
     RDKit          3D

 26 27  0  0  1  0  0  0  0  0999 V2000
   36.5010   29.8800   49.3340 N   0  0  0  0  0  0  0  0  0  0  0  0
   37.1220   31.1850   49.1750 C   0  0  1  0  0  0  0  0  0  0  0  0
   37.8470   31.3240   50.5070 C   0  0  0  0  0  0  0  0  0  0  0  0
   37.3500   30.1750   51.3900 C   0  0  0  0  0  0  0  0  0  0  0  0
   37.2030   29.0980   50.3270 C   0  0  0  0  0  0  0  0  0  0  0  0
   35.3560   29.4340   48.6130 C   0  0  0  0  0  0  0  0  0  0  0  0
   34.7270   30.3460   47.7520 C   0  0  0  0  0  0  0  0  0  0  0  0
   33.6000   29.9610   47.0220 C   0  0  0  0  0  0  0  0  0  0  0  0
   33.1750   28.6720   47.2060 N   0  0  0  0  0  0  0  0  0  0  0  0
   33.7960   27.8220   48.0340 C   0  0  0  0  0  0  0  0  0  0  0  0
   34.9020   28.1820   48.7600 N   0  0  0  0  0  0  0  0  0  0  0  0
   38.0760   31.2390   48.0570 C   0  0  0  0  0  0  0  0  0  0  0  0
   38.9950   32.0120   48.0160 O   0  0  0  0  0  0  0  0  0  0  0  0
   38.0070   30.3960   46.9150 N   0  0  0  0  0  0  0  0  0  0  0  0
   36.3998   31.9817   48.9433 H   0  0  0  0  0  0  0  0  0  0  0  0
   38.9342   31.2472   50.3585 H   0  0  0  0  0  0  0  0  0  0  0  0
   37.6456   32.3006   50.9714 H   0  0  0  0  0  0  0  0  0  0  0  0
   38.0870   29.8975   52.1580 H   0  0  0  0  0  0  0  0  0  0  0  0
   36.4423   30.3879   51.9738 H   0  0  0  0  0  0  0  0  0  0  0  0
   36.6069   28.2438   50.6806 H   0  0  0  0  0  0  0  0  0  0  0  0
   38.1371   28.6236   49.9919 H   0  0  0  0  0  0  0  0  0  0  0  0
   35.1226   31.3675   47.6515 H   0  0  0  0  0  0  0  0  0  0  0  0
   33.0841   30.6524   46.3395 H   0  0  0  0  0  0  0  0  0  0  0  0
   33.4049   26.7989   48.1352 H   0  0  0  0  0  0  0  0  0  0  0  0
   38.7081   30.4854   46.1658 H   0  0  0  0  0  0  0  0  0  0  0  0
   37.2559   29.6956   46.8365 H   0  0  0  0  0  0  0  0  0  0  0  0
  1  5  1  0
  2  1  1  0
  2  3  1  0
  3  4  1  0
  5  4  1  0
  6 11  1  0
  6  1  1  0
  7  6  2  0
  8  9  2  0
  8  7  1  0
  9 10  1  0
 10 11  2  0
 12  2  1  0
 13 12  2  0
 14 12  1  0
  2 15  1  6
  3 16  1  0
  3 17  1  0
  4 18  1  0
  4 19  1  0
  5 20  1  0
  5 21  1  0
  7 22  1  0
  8 23  1  0
 10 24  1  0
 14 25  1  0
 14 26  1  0
M  ISO  8  15  13  16  13  17  13  18  13  19  13  20  13  21  13  22  14
M  ISO  2  23  14  24  14
M  END
>  <minimizedAffinity>  (1) 
-4.41023922

>  <minimizedRMSD>  (1) 
0.459970564

$$$$
