
     RDKit          3D

 25 26  0  0  1  0  0  0  0  0999 V2000
   36.6280   29.5810   49.1490 N   0  0  0  0  0  0  0  0  0  0  0  0
   37.6290   30.3820   48.5030 C   0  0  0  0  0  0  0  0  0  0  0  0
   38.3310   31.0470   49.6760 C   0  0  2  0  0  0  0  0  0  0  0  0
   37.5510   30.6420   50.9240 C   0  0  0  0  0  0  0  0  0  0  0  0
   37.1430   29.2380   50.4680 C   0  0  0  0  0  0  0  0  0  0  0  0
   35.3550   29.1760   48.6310 C   0  0  0  0  0  0  0  0  0  0  0  0
   34.8760   29.9090   47.5270 C   0  0  0  0  0  0  0  0  0  0  0  0
   33.6360   29.5400   47.0010 C   0  0  0  0  0  0  0  0  0  0  0  0
   32.9840   28.4910   47.6040 N   0  0  0  0  0  0  0  0  0  0  0  0
   33.4770   27.8200   48.6540 C   0  0  0  0  0  0  0  0  0  0  0  0
   34.6720   28.1730   49.1640 N   0  0  0  0  0  0  0  0  0  0  0  0
   38.4150   32.5330   49.5230 C   0  0  0  0  0  0  0  0  0  0  0  0
   38.3261   29.7567   47.9259 H   0  0  0  0  0  0  0  0  0  0  0  0
   37.2149   31.0984   47.7783 H   0  0  0  0  0  0  0  0  0  0  0  0
   39.3778   30.7154   49.7403 H   0  0  0  0  0  0  0  0  0  0  0  0
   38.1839   30.6213   51.8234 H   0  0  0  0  0  0  0  0  0  0  0  0
   36.7311   31.3122   51.2217 H   0  0  0  0  0  0  0  0  0  0  0  0
   36.3680   28.8009   51.1148 H   0  0  0  0  0  0  0  0  0  0  0  0
   37.9390   28.4790   50.4877 H   0  0  0  0  0  0  0  0  0  0  0  0
   35.4557   30.7389   47.0966 H   0  0  0  0  0  0  0  0  0  0  0  0
   33.1993   30.0670   46.1399 H   0  0  0  0  0  0  0  0  0  0  0  0
   32.9098   26.9874   49.0957 H   0  0  0  0  0  0  0  0  0  0  0  0
   38.4416   33.0030   50.5172 H   0  0  0  0  0  0  0  0  0  0  0  0
   39.3293   32.7935   48.9697 H   0  0  0  0  0  0  0  0  0  0  0  0
   37.5359   32.8949   48.9697 H   0  0  0  0  0  0  0  0  0  0  0  0
  1  5  1  0
  2  1  1  0
  2  3  1  0
  3  4  1  0
  5  4  1  0
  6  1  1  0
  6 11  1  0
  7  6  2  0
  8  7  1  0
  8  9  2  0
  9 10  1  0
 10 11  2  0
 12  3  1  0
  2 13  1  0
  2 14  1  0
  3 15  1  1
  4 16  1  0
  4 17  1  0
  5 18  1  0
  5 19  1  0
  7 20  1  0
  8 21  1  0
 10 22  1  0
 12 23  1  0
 12 24  1  0
 12 25  1  0
M  ISO  8  13  13  14  13  15  13  16  13  17  13  18  13  19  13  20  14
M  ISO  5  21  14  22  14  23   8  24   8  25   8
M  END
>  <minimizedAffinity>  (1) 
-4.6430645

>  <minimizedRMSD>  (1) 
0.329081655

$$$$
