
     RDKit          3D

 26 27  0  0  1  0  0  0  0  0999 V2000
   35.7960   29.6700   49.0450 N   0  0  0  0  0  0  0  0  0  0  0  0
   36.1730   31.0520   48.9560 C   0  0  0  0  0  0  0  0  0  0  0  0
   36.8960   31.2920   50.2760 C   0  0  1  0  0  0  0  0  0  0  0  0
   36.7480   30.0090   51.0660 C   0  0  0  0  0  0  0  0  0  0  0  0
   36.7750   29.0330   49.8930 C   0  0  0  0  0  0  0  0  0  0  0  0
   34.6770   29.0220   48.4280 C   0  0  0  0  0  0  0  0  0  0  0  0
   34.0490   29.7400   47.4000 C   0  0  0  0  0  0  0  0  0  0  0  0
   32.9470   29.1340   46.7760 C   0  0  0  0  0  0  0  0  0  0  0  0
   32.5770   27.8830   47.2270 N   0  0  0  0  0  0  0  0  0  0  0  0
   33.2120   27.2390   48.2160 C   0  0  0  0  0  0  0  0  0  0  0  0
   34.2700   27.8200   48.8150 N   0  0  0  0  0  0  0  0  0  0  0  0
   38.8530   32.6460   49.4420 C   0  0  0  0  0  0  0  0  0  0  0  0
   38.1180   33.6720   49.2430 O   0  0  0  0  0  0  0  0  0  0  0  0
   38.3040   31.4380   49.9530 N   0  0  0  0  0  0  0  0  0  0  0  0
   36.8425   31.2255   48.1006 H   0  0  0  0  0  0  0  0  0  0  0  0
   35.3185   31.7267   48.7992 H   0  0  0  0  0  0  0  0  0  0  0  0
   36.5120   32.1654   50.8234 H   0  0  0  0  0  0  0  0  0  0  0  0
   37.5855   29.8486   51.7609 H   0  0  0  0  0  0  0  0  0  0  0  0
   35.8699   29.9468   51.7256 H   0  0  0  0  0  0  0  0  0  0  0  0
   36.4653   28.0207   50.1918 H   0  0  0  0  0  0  0  0  0  0  0  0
   37.7623   28.8709   49.4358 H   0  0  0  0  0  0  0  0  0  0  0  0
   34.4046   30.7354   47.0956 H   0  0  0  0  0  0  0  0  0  0  0  0
   32.4017   29.6347   45.9624 H   0  0  0  0  0  0  0  0  0  0  0  0
   32.8719   26.2432   48.5365 H   0  0  0  0  0  0  0  0  0  0  0  0
   39.9279   32.6981   49.2143 H   0  0  0  0  0  0  0  0  0  0  0  0
   38.9306   30.6338   50.1000 H   0  0  0  0  0  0  0  0  0  0  0  0
  1  5  1  0
  2  1  1  0
  2  3  1  0
  3  4  1  0
  5  4  1  0
  6 11  1  0
  6  1  1  0
  7  6  2  0
  8  9  2  0
  8  7  1  0
  9 10  1  0
 10 11  2  0
 12 14  1  0
 13 12  2  0
 14  3  1  0
  2 15  1  0
  2 16  1  0
  3 17  1  1
  4 18  1  0
  4 19  1  0
  5 20  1  0
  5 21  1  0
  7 22  1  0
  8 23  1  0
 10 24  1  0
 12 25  1  0
 14 26  1  0
M  ISO  8  15  13  16  13  17  13  18  13  19  13  20  13  21  13  22  14
M  ISO  3  23  14  24  14  25   6
M  END
>  <minimizedAffinity>  (1) 
-4.26549816

>  <minimizedRMSD>  (1) 
1.67692816

$$$$
