
     RDKit          3D

 27 28  0  0  1  0  0  0  0  0999 V2000
   36.5340   29.9380   48.7840 N   0  0  0  0  0  0  0  0  0  0  0  0
   37.5910   30.7370   48.2540 C   0  0  0  0  0  0  0  0  0  0  0  0
   38.2120   31.3560   49.4980 C   0  0  2  0  0  0  0  0  0  0  0  0
   37.3370   30.9210   50.6590 C   0  0  0  0  0  0  0  0  0  0  0  0
   36.9480   29.5450   50.1140 C   0  0  0  0  0  0  0  0  0  0  0  0
   35.3000   29.5780   48.1550 C   0  0  0  0  0  0  0  0  0  0  0  0
   35.1750   29.8980   46.8090 C   0  0  0  0  0  0  0  0  0  0  0  0
   33.9780   29.5580   46.1660 C   0  0  0  0  0  0  0  0  0  0  0  0
   33.0240   28.9350   46.9200 N   0  0  0  0  0  0  0  0  0  0  0  0
   33.1640   28.6390   48.2080 C   0  0  0  0  0  0  0  0  0  0  0  0
   34.3150   28.9650   48.8280 N   0  0  0  0  0  0  0  0  0  0  0  0
   32.2010   28.0020   49.0020 N   0  0  0  0  0  0  0  0  0  0  0  0
   38.3240   32.8560   49.3910 C   0  0  0  0  0  0  0  0  0  0  0  0
   37.1440   33.3740   49.8680 F   0  0  0  0  0  0  0  0  0  0  0  0
   38.3900   33.1650   48.0480 F   0  0  0  0  0  0  0  0  0  0  0  0
   39.4060   33.3680   50.0420 F   0  0  0  0  0  0  0  0  0  0  0  0
   38.3221   30.1172   47.7142 H   0  0  0  0  0  0  0  0  0  0  0  0
   37.2445   31.4849   47.5255 H   0  0  0  0  0  0  0  0  0  0  0  0
   39.2478   31.0132   49.6382 H   0  0  0  0  0  0  0  0  0  0  0  0
   37.8974   30.8539   51.6031 H   0  0  0  0  0  0  0  0  0  0  0  0
   36.5067   31.5932   50.9214 H   0  0  0  0  0  0  0  0  0  0  0  0
   36.1243   29.0926   50.6857 H   0  0  0  0  0  0  0  0  0  0  0  0
   37.7358   28.7786   50.1575 H   0  0  0  0  0  0  0  0  0  0  0  0
   35.9887   30.4015   46.2664 H   0  0  0  0  0  0  0  0  0  0  0  0
   33.8134   29.7825   45.1018 H   0  0  0  0  0  0  0  0  0  0  0  0
   32.3964   27.8116   49.9952 H   0  0  0  0  0  0  0  0  0  0  0  0
   31.2977   27.7241   48.5924 H   0  0  0  0  0  0  0  0  0  0  0  0
  1  5  1  0
  2  1  1  0
  2  3  1  0
  3  4  1  0
  5  4  1  0
  6  1  1  0
  6 11  1  0
  7  6  2  0
  8  7  1  0
  8  9  2  0
  9 10  1  0
 10 11  2  0
 10 12  1  0
 13  3  1  0
 13 14  1  0
 13 16  1  0
 15 13  1  0
  2 17  1  0
  2 18  1  0
  3 19  1  1
  4 20  1  0
  4 21  1  0
  5 22  1  0
  5 23  1  0
  7 24  1  0
  8 25  1  0
 12 26  1  0
 12 27  1  0
M  ISO  8  17  13  18  13  19  13  20  13  21  13  22  13  23  13  24  14
M  ISO  1  25  14
M  END
>  <minimizedAffinity>  (1) 
-5.59817123

>  <minimizedRMSD>  (1) 
0.684676528

$$$$
