
     RDKit          3D

 28 29  0  0  1  0  0  0  0  0999 V2000
   36.5470   29.9150   48.7320 N   0  0  0  0  0  0  0  0  0  0  0  0
   37.6280   30.7230   48.2200 C   0  0  0  0  0  0  0  0  0  0  0  0
   38.1990   31.3360   49.4960 C   0  0  2  0  0  0  0  0  0  0  0  0
   37.2710   30.9100   50.6230 C   0  0  0  0  0  0  0  0  0  0  0  0
   36.8920   29.5390   50.0900 C   0  0  0  0  0  0  0  0  0  0  0  0
   35.3560   29.5470   48.0420 C   0  0  0  0  0  0  0  0  0  0  0  0
   35.2090   30.0080   46.7410 C   0  0  0  0  0  0  0  0  0  0  0  0
   34.0520   29.6630   46.0410 C   0  0  0  0  0  0  0  0  0  0  0  0
   33.1380   28.8840   46.7040 N   0  0  0  0  0  0  0  0  0  0  0  0
   33.2980   28.4440   47.9680 C   0  0  0  0  0  0  0  0  0  0  0  0
   34.4300   28.7890   48.6370 N   0  0  0  0  0  0  0  0  0  0  0  0
   32.2490   27.6020   48.6020 C   0  0  0  0  0  0  0  0  0  0  0  0
   38.3190   32.8320   49.4010 C   0  0  0  0  0  0  0  0  0  0  0  0
   37.1300   33.3580   49.8790 F   0  0  0  0  0  0  0  0  0  0  0  0
   38.3630   33.1470   48.0480 F   0  0  0  0  0  0  0  0  0  0  0  0
   39.3960   33.3610   50.0340 F   0  0  0  0  0  0  0  0  0  0  0  0
   38.3777   30.1061   47.7029 H   0  0  0  0  0  0  0  0  0  0  0  0
   37.3106   31.4669   47.4744 H   0  0  0  0  0  0  0  0  0  0  0  0
   39.2246   30.9810   49.6752 H   0  0  0  0  0  0  0  0  0  0  0  0
   37.7922   30.8501   51.5898 H   0  0  0  0  0  0  0  0  0  0  0  0
   36.4330   31.5897   50.8369 H   0  0  0  0  0  0  0  0  0  0  0  0
   36.0357   29.1083   50.6296 H   0  0  0  0  0  0  0  0  0  0  0  0
   37.6652   28.7624   50.1855 H   0  0  0  0  0  0  0  0  0  0  0  0
   35.9859   30.6304   46.2729 H   0  0  0  0  0  0  0  0  0  0  0  0
   33.8812   29.9994   45.0077 H   0  0  0  0  0  0  0  0  0  0  0  0
   32.3352   27.6712   49.6964 H   0  0  0  0  0  0  0  0  0  0  0  0
   31.2557   27.9564   48.2893 H   0  0  0  0  0  0  0  0  0  0  0  0
   32.3801   26.5556   48.2893 H   0  0  0  0  0  0  0  0  0  0  0  0
  1  5  1  0
  2  1  1  0
  2  3  1  0
  3  4  1  0
  5  4  1  0
  6 11  1  0
  6  1  1  0
  7  6  2  0
  8  9  2  0
  8  7  1  0
  9 10  1  0
 10 12  1  0
 10 11  2  0
 13  3  1  0
 13 14  1  0
 13 16  1  0
 15 13  1  0
  2 17  1  0
  2 18  1  0
  3 19  1  1
  4 20  1  0
  4 21  1  0
  5 22  1  0
  5 23  1  0
  7 24  1  0
  8 25  1  0
 12 26  1  0
 12 27  1  0
 12 28  1  0
M  ISO  8  17  13  18  13  19  13  20  13  21  13  22  13  23  13  24  14
M  ISO  4  25  14  26   8  27   8  28   8
M  END
>  <minimizedAffinity>  (1) 
-5.54978275

>  <minimizedRMSD>  (1) 
0.685873568

$$$$
