
     RDKit          3D

 26 27  0  0  1  0  0  0  0  0999 V2000
   36.5600   29.8760   48.7990 N   0  0  0  0  0  0  0  0  0  0  0  0
   37.6120   30.6760   48.2630 C   0  0  0  0  0  0  0  0  0  0  0  0
   38.1960   31.3270   49.5130 C   0  0  2  0  0  0  0  0  0  0  0  0
   37.3290   30.8860   50.6750 C   0  0  0  0  0  0  0  0  0  0  0  0
   36.9490   29.5000   50.1450 C   0  0  0  0  0  0  0  0  0  0  0  0
   35.3440   29.4980   48.1550 C   0  0  0  0  0  0  0  0  0  0  0  0
   35.1570   29.9680   46.8430 C   0  0  0  0  0  0  0  0  0  0  0  0
   33.9540   29.5910   46.2170 C   0  0  0  0  0  0  0  0  0  0  0  0
   33.0690   28.8150   46.9040 N   0  0  0  0  0  0  0  0  0  0  0  0
   33.2860   28.3870   48.1620 C   0  0  0  0  0  0  0  0  0  0  0  0
   34.4290   28.7380   48.7710 N   0  0  0  0  0  0  0  0  0  0  0  0
   32.4030   27.6030   48.8690 O   0  0  0  0  0  0  0  0  0  0  0  0
   38.3180   32.8110   49.3930 C   0  0  0  0  0  0  0  0  0  0  0  0
   37.1310   33.3270   49.8830 F   0  0  0  0  0  0  0  0  0  0  0  0
   38.3770   33.1090   48.0420 F   0  0  0  0  0  0  0  0  0  0  0  0
   39.3980   33.3400   50.0400 F   0  0  0  0  0  0  0  0  0  0  0  0
   38.3617   30.0560   47.7496 H   0  0  0  0  0  0  0  0  0  0  0  0
   37.2731   31.3999   47.5073 H   0  0  0  0  0  0  0  0  0  0  0  0
   39.2341   30.9993   49.6710 H   0  0  0  0  0  0  0  0  0  0  0  0
   37.8928   30.8311   51.6179 H   0  0  0  0  0  0  0  0  0  0  0  0
   36.4909   31.5509   50.9310 H   0  0  0  0  0  0  0  0  0  0  0  0
   36.1143   29.0569   50.7079 H   0  0  0  0  0  0  0  0  0  0  0  0
   37.7341   28.7328   50.2157 H   0  0  0  0  0  0  0  0  0  0  0  0
   35.9065   30.5933   46.3359 H   0  0  0  0  0  0  0  0  0  0  0  0
   33.7318   29.9173   45.1903 H   0  0  0  0  0  0  0  0  0  0  0  0
   32.6214   27.3208   49.7924 H   0  0  0  0  0  0  0  0  0  0  0  0
  1  5  1  0
  2  1  1  0
  2  3  1  0
  3  4  1  0
  5  4  1  0
  6 11  1  0
  6  1  1  0
  7  6  2  0
  8  7  1  0
  8  9  2  0
  9 10  1  0
 10 11  2  0
 10 12  1  0
 13  3  1  0
 13 14  1  0
 13 16  1  0
 15 13  1  0
  2 17  1  0
  2 18  1  0
  3 19  1  1
  4 20  1  0
  4 21  1  0
  5 22  1  0
  5 23  1  0
  7 24  1  0
  8 25  1  0
 12 26  1  0
M  ISO  8  17  13  18  13  19  13  20  13  21  13  22  13  23  13  24  14
M  ISO  2  25  14  26   3
M  END
>  <minimizedAffinity>  (1) 
-5.53491449

>  <minimizedRMSD>  (1) 
0.576046348

$$$$
