
     RDKit          3D

 31 32  0  0  1  0  0  0  0  0999 V2000
   36.5440   29.8120   48.7900 N   0  0  0  0  0  0  0  0  0  0  0  0
   37.6630   30.5770   48.2960 C   0  0  0  0  0  0  0  0  0  0  0  0
   38.1860   31.2360   49.5700 C   0  0  2  0  0  0  0  0  0  0  0  0
   37.2350   30.8430   50.6810 C   0  0  0  0  0  0  0  0  0  0  0  0
   36.8510   29.4640   50.1500 C   0  0  0  0  0  0  0  0  0  0  0  0
   35.3470   29.4580   48.0760 C   0  0  0  0  0  0  0  0  0  0  0  0
   35.0520   30.2210   46.9400 C   0  0  0  0  0  0  0  0  0  0  0  0
   33.8820   29.8740   46.2430 C   0  0  0  0  0  0  0  0  0  0  0  0
   33.1400   28.8300   46.7300 N   0  0  0  0  0  0  0  0  0  0  0  0
   33.4630   28.1210   47.8300 C   0  0  0  0  0  0  0  0  0  0  0  0
   34.5770   28.4500   48.4960 N   0  0  0  0  0  0  0  0  0  0  0  0
   32.5900   27.0040   48.2760 C   0  0  0  0  0  0  0  0  0  0  0  0
   31.2550   27.5980   48.7210 C   0  0  0  0  0  0  0  0  0  0  0  0
   38.3340   32.7250   49.4370 C   0  0  0  0  0  0  0  0  0  0  0  0
   37.1500   33.2680   49.8760 F   0  0  0  0  0  0  0  0  0  0  0  0
   38.4470   32.9980   48.0920 F   0  0  0  0  0  0  0  0  0  0  0  0
   39.4110   33.2280   50.1050 F   0  0  0  0  0  0  0  0  0  0  0  0
   38.4238   29.9246   47.8425 H   0  0  0  0  0  0  0  0  0  0  0  0
   37.3954   31.2928   47.5048 H   0  0  0  0  0  0  0  0  0  0  0  0
   39.2049   30.8854   49.7912 H   0  0  0  0  0  0  0  0  0  0  0  0
   37.7357   30.7888   51.6590 H   0  0  0  0  0  0  0  0  0  0  0  0
   36.4029   31.5363   50.8735 H   0  0  0  0  0  0  0  0  0  0  0  0
   35.9774   29.0505   50.6752 H   0  0  0  0  0  0  0  0  0  0  0  0
   37.6173   28.6844   50.2728 H   0  0  0  0  0  0  0  0  0  0  0  0
   35.7002   31.0466   46.6110 H   0  0  0  0  0  0  0  0  0  0  0  0
   33.5732   30.4204   45.3396 H   0  0  0  0  0  0  0  0  0  0  0  0
   32.4278   26.3020   47.4448 H   0  0  0  0  0  0  0  0  0  0  0  0
   33.0616   26.4582   49.1065 H   0  0  0  0  0  0  0  0  0  0  0  0
   31.2106   27.6178   49.8199 H   0  0  0  0  0  0  0  0  0  0  0  0
   31.1616   28.6226   48.3318 H   0  0  0  0  0  0  0  0  0  0  0  0
   30.4314   26.9814   48.3318 H   0  0  0  0  0  0  0  0  0  0  0  0
  1  5  1  0
  2  1  1  0
  2  3  1  0
  3  4  1  0
  5  4  1  0
  6 11  1  0
  6  1  1  0
  7  6  2  0
  8  9  2  0
  8  7  1  0
  9 10  1  0
 10 12  1  0
 10 11  2  0
 12 13  1  0
 14  3  1  0
 14 15  1  0
 14 17  1  0
 16 14  1  0
  2 18  1  0
  2 19  1  0
  3 20  1  1
  4 21  1  0
  4 22  1  0
  5 23  1  0
  5 24  1  0
  7 25  1  0
  8 26  1  0
 12 27  1  0
 12 28  1  0
 13 29  1  0
 13 30  1  0
 13 31  1  0
M  ISO  8  18  13  19  13  20  13  21  13  22  13  23  13  24  13  25  14
M  ISO  6  26  14  27   8  28   8  29   8  30   8  31   8
M  END
>  <minimizedAffinity>  (1) 
-5.5259304

>  <minimizedRMSD>  (1) 
0.632604301

$$$$
