
     RDKit          3D

 26 27  0  0  1  0  0  0  0  0999 V2000
   36.4650   29.8880   48.6810 N   0  0  0  0  0  0  0  0  0  0  0  0
   37.5890   30.6520   48.2330 C   0  0  0  0  0  0  0  0  0  0  0  0
   38.0970   31.2940   49.5200 C   0  0  2  0  0  0  0  0  0  0  0  0
   37.1090   30.8980   50.5980 C   0  0  0  0  0  0  0  0  0  0  0  0
   36.7400   29.5230   50.0500 C   0  0  0  0  0  0  0  0  0  0  0  0
   35.2900   29.5410   47.9330 C   0  0  0  0  0  0  0  0  0  0  0  0
   35.2330   30.0030   46.6100 C   0  0  0  0  0  0  0  0  0  0  0  0
   34.0960   29.6720   45.8740 C   0  0  0  0  0  0  0  0  0  0  0  0
   33.1290   28.9270   46.5000 N   0  0  0  0  0  0  0  0  0  0  0  0
   33.2130   28.5020   47.7610 C   0  0  0  0  0  0  0  0  0  0  0  0
   34.3100   28.8160   48.4830 N   0  0  0  0  0  0  0  0  0  0  0  0
   31.9300   27.5390   48.5200 S   0  0  0  0  0  0  0  0  0  0  0  0
   38.2660   32.7770   49.4020 C   0  0  0  0  0  0  0  0  0  0  0  0
   37.0980   33.3430   49.8910 F   0  0  0  0  0  0  0  0  0  0  0  0
   38.3100   33.0820   48.0580 F   0  0  0  0  0  0  0  0  0  0  0  0
   39.3740   33.2570   50.0300 F   0  0  0  0  0  0  0  0  0  0  0  0
   38.3557   30.0030   47.7847 H   0  0  0  0  0  0  0  0  0  0  0  0
   37.3343   31.3842   47.4526 H   0  0  0  0  0  0  0  0  0  0  0  0
   39.1082   30.9368   49.7646 H   0  0  0  0  0  0  0  0  0  0  0  0
   37.5773   30.8390   51.5916 H   0  0  0  0  0  0  0  0  0  0  0  0
   36.2723   31.5922   50.7657 H   0  0  0  0  0  0  0  0  0  0  0  0
   35.8544   29.1043   50.5504 H   0  0  0  0  0  0  0  0  0  0  0  0
   37.5018   28.7411   50.1858 H   0  0  0  0  0  0  0  0  0  0  0  0
   36.0478   30.5990   46.1731 H   0  0  0  0  0  0  0  0  0  0  0  0
   33.9786   29.9964   44.8295 H   0  0  0  0  0  0  0  0  0  0  0  0
   32.0417   27.6228   49.8829 H   0  0  0  0  0  0  0  0  0  0  0  0
  1  5  1  0
  2  1  1  0
  2  3  1  0
  3  4  1  0
  5  4  1  0
  6 11  1  0
  6  1  1  0
  7  6  2  0
  8  9  2  0
  8  7  1  0
  9 10  1  0
 10 11  2  0
 10 12  1  0
 13  3  1  0
 13 14  1  0
 13 16  1  0
 15 13  1  0
  2 17  1  0
  2 18  1  0
  3 19  1  1
  4 20  1  0
  4 21  1  0
  5 22  1  0
  5 23  1  0
  7 24  1  0
  8 25  1  0
 12 26  1  0
M  ISO  8  17  13  18  13  19  13  20  13  21  13  22  13  23  13  24  14
M  ISO  2  25  14  26  11
M  END
>  <minimizedAffinity>  (1) 
-5.4187007

>  <minimizedRMSD>  (1) 
0.814353943

$$$$
