
     RDKit          3D

 40 43  0  0  1  0  0  0  0  0999 V2000
   34.8380   29.3650   47.9890 C   0  0  0  0  0  0  0  0  0  0  0  0
   34.6850   30.0100   46.7480 C   0  0  0  0  0  0  0  0  0  0  0  0
   33.5170   29.7450   46.0390 C   0  0  0  0  0  0  0  0  0  0  0  0
   32.6070   28.8800   46.5990 N   0  0  0  0  0  0  0  0  0  0  0  0
   32.7920   28.2920   47.7770 C   0  0  0  0  0  0  0  0  0  0  0  0
   33.9110   28.5350   48.4760 N   0  0  0  0  0  0  0  0  0  0  0  0
   36.0430   29.6410   48.7150 N   0  0  0  0  0  0  0  0  0  0  0  0
   37.1990   30.3460   48.2460 C   0  0  0  0  0  0  0  0  0  0  0  0
   37.7720   30.9360   49.5260 C   0  0  2  0  0  0  0  0  0  0  0  0
   36.7960   30.5840   50.6230 C   0  0  0  0  0  0  0  0  0  0  0  0
   36.3100   29.2500   50.0830 C   0  0  0  0  0  0  0  0  0  0  0  0
   38.0130   32.4160   49.4200 C   0  0  0  0  0  0  0  0  0  0  0  0
   36.9030   33.0370   49.9790 F   0  0  0  0  0  0  0  0  0  0  0  0
   37.9960   32.7410   48.0800 F   0  0  0  0  0  0  0  0  0  0  0  0
   39.1820   32.8160   49.9970 F   0  0  0  0  0  0  0  0  0  0  0  0
   31.5700   27.1770   48.4440 S   0  0  0  0  0  0  0  0  0  0  0  0
   29.9790   27.9850   48.3820 C   0  0  0  0  0  0  0  0  0  0  0  0
   29.7920   28.7200   47.2570 N   0  0  0  0  0  0  0  0  0  0  0  0
   28.6400   29.3960   47.0540 C   0  0  0  0  0  0  0  0  0  0  0  0
   27.6630   29.3440   47.9720 N   0  0  0  0  0  0  0  0  0  0  0  0
   27.8110   28.6160   49.1150 C   0  0  0  0  0  0  0  0  0  0  0  0
   26.8390   28.5230   50.1020 C   0  0  0  0  0  0  0  0  0  0  0  0
   27.0920   27.7530   51.2300 C   0  0  0  0  0  0  0  0  0  0  0  0
   28.2780   27.0750   51.4090 C   0  0  0  0  0  0  0  0  0  0  0  0
   29.2720   27.1500   50.4360 C   0  0  0  0  0  0  0  0  0  0  0  0
   28.9840   27.9230   49.3310 C   0  0  0  0  0  0  0  0  0  0  0  0
   35.4534   30.6926   46.3560 H   0  0  0  0  0  0  0  0  0  0  0  0
   33.3280   30.2129   45.0616 H   0  0  0  0  0  0  0  0  0  0  0  0
   37.9155   29.6607   47.7695 H   0  0  0  0  0  0  0  0  0  0  0  0
   36.9689   31.1023   47.4811 H   0  0  0  0  0  0  0  0  0  0  0  0
   38.7663   30.5169   49.7396 H   0  0  0  0  0  0  0  0  0  0  0  0
   37.2919   30.4787   51.5992 H   0  0  0  0  0  0  0  0  0  0  0  0
   36.0125   31.3308   50.8191 H   0  0  0  0  0  0  0  0  0  0  0  0
   35.4015   28.9035   50.5974 H   0  0  0  0  0  0  0  0  0  0  0  0
   37.0074   28.4083   50.2061 H   0  0  0  0  0  0  0  0  0  0  0  0
   28.5033   29.9883   46.1372 H   0  0  0  0  0  0  0  0  0  0  0  0
   25.8810   29.0522   49.9921 H   0  0  0  0  0  0  0  0  0  0  0  0
   26.3178   27.6820   52.0082 H   0  0  0  0  0  0  0  0  0  0  0  0
   28.4395   26.4763   52.3175 H   0  0  0  0  0  0  0  0  0  0  0  0
   30.2315   26.6229   50.5430 H   0  0  0  0  0  0  0  0  0  0  0  0
  1  6  1  0
  1  7  1  0
  2  1  2  0
  3  4  2  0
  3  2  1  0
  4  5  1  0
  5 16  1  0
  5  6  2  0
  7 11  1  0
  8  7  1  0
  8  9  1  0
  9 10  1  0
 11 10  1  0
 12  9  1  0
 12 13  1  0
 12 15  1  0
 14 12  1  0
 17 16  1  0
 17 26  1  0
 18 17  2  0
 19 18  1  0
 19 20  2  0
 20 21  1  0
 21 26  2  0
 21 22  1  0
 22 23  2  0
 23 24  1  0
 25 24  2  0
 26 25  1  0
  2 27  1  0
  3 28  1  0
  8 29  1  0
  8 30  1  0
  9 31  1  1
 10 32  1  0
 10 33  1  0
 11 34  1  0
 11 35  1  0
 19 36  1  0
 22 37  1  0
 23 38  1  0
 24 39  1  0
 25 40  1  0
M  ISO  8  27  14  28  14  29  13  30  13  31  13  32  13  33  13  34  13
M  ISO  6  35  13  36  14  37  14  38  14  39  14  40  14
M  END
>  <minimizedAffinity>  (1) 
-7.85898876

>  <minimizedRMSD>  (1) 
1.85001314

$$$$
