
     RDKit          3D

 39 41  0  0  1  0  0  0  0  0999 V2000
   35.1330   29.4650   47.9330 C   0  0  0  0  0  0  0  0  0  0  0  0
   35.0840   29.9170   46.5980 C   0  0  0  0  0  0  0  0  0  0  0  0
   33.9240   29.6170   45.8760 C   0  0  0  0  0  0  0  0  0  0  0  0
   32.9350   28.9130   46.5160 N   0  0  0  0  0  0  0  0  0  0  0  0
   33.0280   28.5090   47.7820 C   0  0  0  0  0  0  0  0  0  0  0  0
   34.1270   28.7830   48.4950 N   0  0  0  0  0  0  0  0  0  0  0  0
   36.3230   29.7780   48.6770 N   0  0  0  0  0  0  0  0  0  0  0  0
   37.4490   30.5500   48.2230 C   0  0  0  0  0  0  0  0  0  0  0  0
   37.9870   31.1500   49.5140 C   0  0  2  0  0  0  0  0  0  0  0  0
   37.0200   30.7390   50.5920 C   0  0  0  0  0  0  0  0  0  0  0  0
   36.6190   29.3800   50.0200 C   0  0  0  0  0  0  0  0  0  0  0  0
   38.1740   32.6260   49.4330 C   0  0  0  0  0  0  0  0  0  0  0  0
   37.0170   33.2090   49.9540 F   0  0  0  0  0  0  0  0  0  0  0  0
   38.1940   32.9680   48.0880 F   0  0  0  0  0  0  0  0  0  0  0  0
   39.3030   33.0810   50.0500 F   0  0  0  0  0  0  0  0  0  0  0  0
   31.7010   27.6010   48.5610 S   0  0  0  0  0  0  0  0  0  0  0  0
   29.5130   28.8030   47.6160 C   0  0  2  0  0  0  0  0  0  0  0  0
   30.3350   27.5300   47.3570 C   0  0  2  0  0  0  0  0  0  0  0  0
   29.4100   26.5810   47.7900 O   0  0  0  0  0  0  0  0  0  0  0  0
   29.0840   27.0140   49.0580 C   0  0  0  0  0  0  0  0  0  0  0  0
   29.1550   28.5260   49.0810 C   0  0  2  0  0  0  0  0  0  0  0  0
   28.3880   28.7810   46.7980 O   0  0  0  0  0  0  0  0  0  0  0  0
   27.9870   29.1330   49.4750 O   0  0  0  0  0  0  0  0  0  0  0  0
   35.9162   30.4774   46.1471 H   0  0  0  0  0  0  0  0  0  0  0  0
   33.8083   29.9350   44.8293 H   0  0  0  0  0  0  0  0  0  0  0  0
   38.2010   29.9084   47.7405 H   0  0  0  0  0  0  0  0  0  0  0  0
   37.1842   31.3052   47.4683 H   0  0  0  0  0  0  0  0  0  0  0  0
   38.9979   30.7745   49.7307 H   0  0  0  0  0  0  0  0  0  0  0  0
   37.5064   30.6493   51.5745 H   0  0  0  0  0  0  0  0  0  0  0  0
   36.1951   31.4393   50.7899 H   0  0  0  0  0  0  0  0  0  0  0  0
   35.7382   28.9622   50.5295 H   0  0  0  0  0  0  0  0  0  0  0  0
   37.3717   28.5843   50.1216 H   0  0  0  0  0  0  0  0  0  0  0  0
   29.9940   29.7741   47.4274 H   0  0  0  0  0  0  0  0  0  0  0  0
   30.7332   27.3646   46.3451 H   0  0  0  0  0  0  0  0  0  0  0  0
   28.0651   26.6863   49.3117 H   0  0  0  0  0  0  0  0  0  0  0  0
   29.7854   26.5920   49.7929 H   0  0  0  0  0  0  0  0  0  0  0  0
   29.8674   28.9301   49.8153 H   0  0  0  0  0  0  0  0  0  0  0  0
   27.5724   28.7651   47.3589 H   0  0  0  0  0  0  0  0  0  0  0  0
   27.9440   29.1554   50.4638 H   0  0  0  0  0  0  0  0  0  0  0  0
  1  6  1  0
  1  7  1  0
  2  1  2  0
  3  4  2  0
  3  2  1  0
  4  5  1  0
  5  6  2  0
  5 16  1  0
  7 11  1  0
  8  7  1  0
  8  9  1  0
  9 10  1  0
 11 10  1  0
 12  9  1  0
 12 13  1  0
 12 15  1  0
 14 12  1  0
 17 22  1  0
 17 21  1  0
 18 17  1  0
 18 19  1  0
 18 16  1  0
 19 20  1  0
 20 21  1  0
 21 23  1  0
  2 24  1  0
  3 25  1  0
  8 26  1  0
  8 27  1  0
  9 28  1  1
 10 29  1  0
 10 30  1  0
 11 31  1  0
 11 32  1  0
 17 33  1  1
 18 34  1  6
 20 35  1  0
 20 36  1  0
 21 37  1  1
 22 38  1  0
 23 39  1  0
M  ISO  8  24  14  25  14  26  13  27  13  28  13  29  13  30  13  31  13
M  ISO  8  32  13  33  13  34  13  35  13  36  13  37  13  38   3  39   3
M  END
>  <minimizedAffinity>  (1) 
-6.14818001

>  <minimizedRMSD>  (1) 
2.12949538

$$$$
