
     RDKit          3D

 36 38  0  0  1  0  0  0  0  0999 V2000
   35.2580   29.5320   47.9900 C   0  0  0  0  0  0  0  0  0  0  0  0
   35.1800   29.9500   46.6510 C   0  0  0  0  0  0  0  0  0  0  0  0
   34.0150   29.6100   45.9570 C   0  0  0  0  0  0  0  0  0  0  0  0
   33.0530   28.9080   46.6270 N   0  0  0  0  0  0  0  0  0  0  0  0
   33.1560   28.5240   47.9020 C   0  0  0  0  0  0  0  0  0  0  0  0
   34.2810   28.8470   48.5840 N   0  0  0  0  0  0  0  0  0  0  0  0
   36.4480   29.8800   48.6960 N   0  0  0  0  0  0  0  0  0  0  0  0
   37.5480   30.6620   48.2140 C   0  0  0  0  0  0  0  0  0  0  0  0
   38.1060   31.2740   49.4940 C   0  0  2  0  0  0  0  0  0  0  0  0
   37.1720   30.8550   50.6070 C   0  0  0  0  0  0  0  0  0  0  0  0
   36.7730   29.5030   50.0520 C   0  0  0  0  0  0  0  0  0  0  0  0
   38.2600   32.7620   49.3890 C   0  0  0  0  0  0  0  0  0  0  0  0
   37.0870   33.3150   49.8960 F   0  0  0  0  0  0  0  0  0  0  0  0
   38.2900   33.0820   48.0450 F   0  0  0  0  0  0  0  0  0  0  0  0
   39.3570   33.2570   50.0190 F   0  0  0  0  0  0  0  0  0  0  0  0
   31.8720   27.6110   48.7230 S   0  0  0  0  0  0  0  0  0  0  0  0
   28.9020   28.5720   48.1620 Cl  0  0  0  0  0  0  0  0  0  0  0  0
   29.4770   27.1610   47.3260 C   0  0  0  0  0  0  0  0  0  0  0  0
   30.7730   26.7820   47.6020 C   0  0  0  0  0  0  0  0  0  0  0  0
   31.3050   25.6590   46.9680 C   0  0  0  0  0  0  0  0  0  0  0  0
   30.5120   24.9590   46.0800 C   0  0  0  0  0  0  0  0  0  0  0  0
   29.2150   25.3600   45.8210 C   0  0  0  0  0  0  0  0  0  0  0  0
   28.1740   24.5110   44.7090 Cl  0  0  0  0  0  0  0  0  0  0  0  0
   28.6740   26.4670   46.4380 C   0  0  0  0  0  0  0  0  0  0  0  0
   35.9936   30.5156   46.1733 H   0  0  0  0  0  0  0  0  0  0  0  0
   33.8771   29.8986   44.9045 H   0  0  0  0  0  0  0  0  0  0  0  0
   38.2977   30.0290   47.7167 H   0  0  0  0  0  0  0  0  0  0  0  0
   37.2571   31.4100   47.4617 H   0  0  0  0  0  0  0  0  0  0  0  0
   39.1248   30.9112   49.6947 H   0  0  0  0  0  0  0  0  0  0  0  0
   37.6883   30.7719   51.5747 H   0  0  0  0  0  0  0  0  0  0  0  0
   36.3467   31.5472   50.8300 H   0  0  0  0  0  0  0  0  0  0  0  0
   35.9033   29.0846   50.5799 H   0  0  0  0  0  0  0  0  0  0  0  0
   37.5373   28.7175   50.1460 H   0  0  0  0  0  0  0  0  0  0  0  0
   32.3369   25.3370   47.1716 H   0  0  0  0  0  0  0  0  0  0  0  0
   30.9177   24.0713   45.5726 H   0  0  0  0  0  0  0  0  0  0  0  0
   27.6419   26.7872   46.2323 H   0  0  0  0  0  0  0  0  0  0  0  0
  1  6  1  0
  1  7  1  0
  2  1  2  0
  3  4  2  0
  3  2  1  0
  4  5  1  0
  5  6  2  0
  5 16  1  0
  7 11  1  0
  8  7  1  0
  8  9  1  0
  9 10  1  0
 11 10  1  0
 12  9  1  0
 12 13  1  0
 12 15  1  0
 14 12  1  0
 18 19  2  0
 18 17  1  0
 19 16  1  0
 20 19  1  0
 21 20  2  0
 22 21  1  0
 22 24  2  0
 23 22  1  0
 24 18  1  0
  2 25  1  0
  3 26  1  0
  8 27  1  0
  8 28  1  0
  9 29  1  1
 10 30  1  0
 10 31  1  0
 11 32  1  0
 11 33  1  0
 20 34  1  0
 21 35  1  0
 24 36  1  0
M  ISO  8  25  14  26  14  27  13  28  13  29  13  30  13  31  13  32  13
M  ISO  4  33  13  34  14  35  14  36  14
M  END
>  <minimizedAffinity>  (1) 
-6.12658262

>  <minimizedRMSD>  (1) 
2.35990858

$$$$
