
     RDKit          3D

 43 46  0  0  1  0  0  0  0  0999 V2000
   35.8420   29.8840   47.5490 C   0  0  0  0  0  0  0  0  0  0  0  0
   36.0260   30.4750   46.2960 C   0  0  0  0  0  0  0  0  0  0  0  0
   35.2220   30.0170   45.2500 C   0  0  0  0  0  0  0  0  0  0  0  0
   34.3160   29.0230   45.5370 N   0  0  0  0  0  0  0  0  0  0  0  0
   34.1760   28.4910   46.7370 C   0  0  0  0  0  0  0  0  0  0  0  0
   34.9420   28.9160   47.7650 N   0  0  0  0  0  0  0  0  0  0  0  0
   36.6720   30.3560   48.6270 N   0  0  0  0  0  0  0  0  0  0  0  0
   38.0350   30.7910   48.5340 C   0  0  0  0  0  0  0  0  0  0  0  0
   38.1350   31.7820   49.6920 C   0  0  2  0  0  0  0  0  0  0  0  0
   36.7270   31.9140   50.2630 C   0  0  0  0  0  0  0  0  0  0  0  0
   36.2720   30.4790   50.0240 C   0  0  0  0  0  0  0  0  0  0  0  0
   38.6900   33.1120   49.2480 C   0  0  0  0  0  0  0  0  0  0  0  0
   37.6090   33.9470   49.0450 F   0  0  0  0  0  0  0  0  0  0  0  0
   39.2720   32.9170   48.0110 F   0  0  0  0  0  0  0  0  0  0  0  0
   39.5880   33.6450   50.1320 F   0  0  0  0  0  0  0  0  0  0  0  0
   32.9820   27.2060   47.0310 S   0  0  0  0  0  0  0  0  0  0  0  0
   31.6320   27.5640   47.9600 C   0  0  0  0  0  0  0  0  0  0  0  0
   31.1800   27.5470   49.2480 C   0  0  0  0  0  0  0  0  0  0  0  0
   29.9480   27.9300   49.6620 C   0  0  0  0  0  0  0  0  0  0  0  0
   29.0880   28.3950   48.5410 C   0  0  0  0  0  0  0  0  0  0  0  0
   30.1310   28.2290   47.0530 S   0  0  0  0  0  0  0  0  0  0  0  0
   27.7730   28.8380   48.7410 N   0  0  0  0  0  0  0  0  0  0  0  0
   27.3840   30.1080   48.9620 C   0  0  0  0  0  0  0  0  0  0  0  0
   26.0410   30.3700   49.1400 C   0  0  0  0  0  0  0  0  0  0  0  0
   25.0850   29.3550   49.0970 C   0  0  0  0  0  0  0  0  0  0  0  0
   23.8610   29.5790   49.2570 O   0  0  0  0  0  0  0  0  0  0  0  0
   25.5440   28.0910   48.8690 N   0  0  0  0  0  0  0  0  0  0  0  0
   26.8600   27.8330   48.6940 C   0  0  0  0  0  0  0  0  0  0  0  0
   27.1460   26.6150   48.4910 O   0  0  0  0  0  0  0  0  0  0  0  0
   36.7727   31.2676   46.1402 H   0  0  0  0  0  0  0  0  0  0  0  0
   35.3099   30.4349   44.2363 H   0  0  0  0  0  0  0  0  0  0  0  0
   38.7322   29.9505   48.6665 H   0  0  0  0  0  0  0  0  0  0  0  0
   38.2953   31.2245   47.5571 H   0  0  0  0  0  0  0  0  0  0  0  0
   38.8364   31.4207   50.4584 H   0  0  0  0  0  0  0  0  0  0  0  0
   36.7325   32.1779   51.3308 H   0  0  0  0  0  0  0  0  0  0  0  0
   36.0975   32.7018   49.8236 H   0  0  0  0  0  0  0  0  0  0  0  0
   35.1864   30.3608   50.1564 H   0  0  0  0  0  0  0  0  0  0  0  0
   36.6884   29.7253   50.7085 H   0  0  0  0  0  0  0  0  0  0  0  0
   31.8788   27.1903   50.0191 H   0  0  0  0  0  0  0  0  0  0  0  0
   29.6199   27.9003   50.7115 H   0  0  0  0  0  0  0  0  0  0  0  0
   28.1232   30.9217   48.9999 H   0  0  0  0  0  0  0  0  0  0  0  0
   25.7160   31.4053   49.3204 H   0  0  0  0  0  0  0  0  0  0  0  0
   24.8707   27.3126   48.8291 H   0  0  0  0  0  0  0  0  0  0  0  0
  1  6  1  0
  1  7  1  0
  2  1  2  0
  3  4  2  0
  3  2  1  0
  4  5  1  0
  5 16  1  0
  5  6  2  0
  7 11  1  0
  8  7  1  0
  8  9  1  0
  9 10  1  0
 11 10  1  0
 12  9  1  0
 12 15  1  0
 13 12  1  0
 14 12  1  0
 16 17  1  0
 17 18  2  0
 18 19  1  0
 20 22  1  0
 20 19  2  0
 21 17  1  0
 21 20  1  0
 22 23  1  0
 23 24  2  0
 25 24  1  0
 25 26  2  0
 27 25  1  0
 28 22  1  0
 28 27  1  0
 29 28  2  0
  2 30  1  0
  3 31  1  0
  8 32  1  0
  8 33  1  0
  9 34  1  1
 10 35  1  0
 10 36  1  0
 11 37  1  0
 11 38  1  0
 18 39  1  0
 19 40  1  0
 23 41  1  0
 24 42  1  0
 27 43  1  0
M  ISO  8  30  14  31  14  32  13  33  13  34  13  35  13  36  13  37  13
M  ISO  6  38  13  39  14  40  14  41  14  42  14  43   9
M  END
>  <minimizedAffinity>  (1) 
-7.64798641

>  <minimizedRMSD>  (1) 
1.57592356

$$$$
