
     RDKit          3D

 40 43  0  0  1  0  0  0  0  0999 V2000
   34.5750   29.2880   48.0570 C   0  0  0  0  0  0  0  0  0  0  0  0
   34.2850   30.1340   46.9760 C   0  0  0  0  0  0  0  0  0  0  0  0
   33.0680   29.9360   46.3190 C   0  0  0  0  0  0  0  0  0  0  0  0
   32.2510   28.9300   46.7820 N   0  0  0  0  0  0  0  0  0  0  0  0
   32.5710   28.1510   47.8140 C   0  0  0  0  0  0  0  0  0  0  0  0
   33.7400   28.3320   48.4550 N   0  0  0  0  0  0  0  0  0  0  0  0
   35.8320   29.4970   48.7310 N   0  0  0  0  0  0  0  0  0  0  0  0
   36.9700   30.2050   48.2270 C   0  0  0  0  0  0  0  0  0  0  0  0
   37.6320   30.7030   49.5060 C   0  0  2  0  0  0  0  0  0  0  0  0
   36.6900   30.3220   50.6470 C   0  0  0  0  0  0  0  0  0  0  0  0
   36.1730   29.0190   50.0610 C   0  0  0  0  0  0  0  0  0  0  0  0
   37.9010   32.1780   49.4680 C   0  0  0  0  0  0  0  0  0  0  0  0
   36.8100   32.7920   50.0420 F   0  0  0  0  0  0  0  0  0  0  0  0
   37.9110   32.5490   48.1370 F   0  0  0  0  0  0  0  0  0  0  0  0
   39.0710   32.5330   50.0800 F   0  0  0  0  0  0  0  0  0  0  0  0
   31.4620   26.8740   48.3500 S   0  0  0  0  0  0  0  0  0  0  0  0
   30.0670   27.3200   49.1870 C   0  0  0  0  0  0  0  0  0  0  0  0
   29.4020   27.0960   50.3550 C   0  0  0  0  0  0  0  0  0  0  0  0
   28.2270   27.6580   50.7060 C   0  0  0  0  0  0  0  0  0  0  0  0
   27.6910   28.5850   49.6660 C   0  0  0  0  0  0  0  0  0  0  0  0
   28.9270   28.5310   48.3370 S   0  0  0  0  0  0  0  0  0  0  0  0
   26.4670   29.3410   49.7260 C   0  0  0  0  0  0  0  0  0  0  0  0
   25.2320   28.7440   49.0270 C   0  0  0  0  0  0  0  0  0  0  0  0
   25.9510   29.9270   48.4920 C   0  0  0  0  0  0  0  0  0  0  0  0
   34.9862   30.9200   46.6591 H   0  0  0  0  0  0  0  0  0  0  0  0
   32.7737   30.5612   45.4631 H   0  0  0  0  0  0  0  0  0  0  0  0
   37.6393   29.5363   47.6658 H   0  0  0  0  0  0  0  0  0  0  0  0
   36.7129   31.0086   47.5212 H   0  0  0  0  0  0  0  0  0  0  0  0
   38.6212   30.2408   49.6398 H   0  0  0  0  0  0  0  0  0  0  0  0
   37.2243   30.1699   51.5964 H   0  0  0  0  0  0  0  0  0  0  0  0
   35.9282   31.0684   50.9163 H   0  0  0  0  0  0  0  0  0  0  0  0
   35.2935   28.6415   50.6032 H   0  0  0  0  0  0  0  0  0  0  0  0
   36.8715   28.1700   50.0974 H   0  0  0  0  0  0  0  0  0  0  0  0
   29.8615   26.3989   51.0712 H   0  0  0  0  0  0  0  0  0  0  0  0
   27.7170   27.4544   51.6592 H   0  0  0  0  0  0  0  0  0  0  0  0
   26.6960   29.7245   50.7312 H   0  0  0  0  0  0  0  0  0  0  0  0
   25.2984   27.7735   48.5134 H   0  0  0  0  0  0  0  0  0  0  0  0
   24.1960   28.5112   49.3142 H   0  0  0  0  0  0  0  0  0  0  0  0
   26.5328   29.8326   47.5632 H   0  0  0  0  0  0  0  0  0  0  0  0
   25.6367   30.9418   48.2066 H   0  0  0  0  0  0  0  0  0  0  0  0
  1  6  1  0
  1  7  1  0
  2  1  2  0
  3  4  2  0
  3  2  1  0
  4  5  1  0
  5 16  1  0
  5  6  2  0
  7 11  1  0
  8  7  1  0
  8  9  1  0
  9 10  1  0
 11 10  1  0
 12  9  1  0
 12 13  1  0
 12 15  1  0
 14 12  1  0
 16 17  1  0
 17 18  2  0
 18 19  1  0
 20 22  1  0
 20 19  2  0
 21 17  1  0
 21 20  1  0
 23 22  1  0
 24 23  1  0
 24 22  1  0
  2 25  1  0
  3 26  1  0
  8 27  1  0
  8 28  1  0
  9 29  1  1
 10 30  1  0
 10 31  1  0
 11 32  1  0
 11 33  1  0
 18 34  1  0
 19 35  1  0
 22 36  1  0
 23 37  1  0
 23 38  1  0
 24 39  1  0
 24 40  1  0
M  ISO  8  25  14  26  14  27  13  28  13  29  13  30  13  31  13  32  13
M  ISO  8  33  13  34  14  35  14  36  13  37  13  38  13  39  13  40  13
M  END
>  <minimizedAffinity>  (1) 
-6.90332413

>  <minimizedRMSD>  (1) 
1.01886785

$$$$
