
     RDKit          3D

 36 38  0  0  1  0  0  0  0  0999 V2000
   35.1160   29.4540   47.9050 C   0  0  0  0  0  0  0  0  0  0  0  0
   34.9480   30.0990   46.6810 C   0  0  0  0  0  0  0  0  0  0  0  0
   33.7910   29.8040   45.9560 C   0  0  0  0  0  0  0  0  0  0  0  0
   32.9090   28.8990   46.5070 N   0  0  0  0  0  0  0  0  0  0  0  0
   33.1100   28.3040   47.6860 C   0  0  0  0  0  0  0  0  0  0  0  0
   34.2240   28.5830   48.3930 N   0  0  0  0  0  0  0  0  0  0  0  0
   36.3100   29.7630   48.6490 N   0  0  0  0  0  0  0  0  0  0  0  0
   37.4360   30.5200   48.2000 C   0  0  0  0  0  0  0  0  0  0  0  0
   37.9810   31.1000   49.4990 C   0  0  2  0  0  0  0  0  0  0  0  0
   36.9930   30.6990   50.5890 C   0  0  0  0  0  0  0  0  0  0  0  0
   36.5950   29.3520   50.0220 C   0  0  0  0  0  0  0  0  0  0  0  0
   38.1580   32.5950   49.4160 C   0  0  0  0  0  0  0  0  0  0  0  0
   37.0140   33.1570   49.9380 F   0  0  0  0  0  0  0  0  0  0  0  0
   38.1840   32.9290   48.0780 F   0  0  0  0  0  0  0  0  0  0  0  0
   39.2890   33.0350   50.0510 F   0  0  0  0  0  0  0  0  0  0  0  0
   31.9350   27.1500   48.3360 S   0  0  0  0  0  0  0  0  0  0  0  0
   30.4510   27.7490   48.8720 C   0  0  0  0  0  0  0  0  0  0  0  0
   29.7080   27.8690   50.0060 C   0  0  0  0  0  0  0  0  0  0  0  0
   28.4630   28.4410   50.0900 C   0  0  0  0  0  0  0  0  0  0  0  0
   27.9870   28.9360   48.7750 C   0  0  0  0  0  0  0  0  0  0  0  0
   29.3290   28.5410   47.6020 S   0  0  0  0  0  0  0  0  0  0  0  0
   26.7040   29.5720   48.6400 C   0  0  0  0  0  0  0  0  0  0  0  0
   35.6957   30.8110   46.3015 H   0  0  0  0  0  0  0  0  0  0  0  0
   33.5913   30.2758   44.9826 H   0  0  0  0  0  0  0  0  0  0  0  0
   38.1795   29.8742   47.7099 H   0  0  0  0  0  0  0  0  0  0  0  0
   37.1808   31.2842   47.4511 H   0  0  0  0  0  0  0  0  0  0  0  0
   38.9849   30.7069   49.7170 H   0  0  0  0  0  0  0  0  0  0  0  0
   37.4724   30.6115   51.5751 H   0  0  0  0  0  0  0  0  0  0  0  0
   36.1718   31.4050   50.7817 H   0  0  0  0  0  0  0  0  0  0  0  0
   35.7069   28.9389   50.5226 H   0  0  0  0  0  0  0  0  0  0  0  0
   37.3404   28.5508   50.1330 H   0  0  0  0  0  0  0  0  0  0  0  0
   30.1428   27.4733   50.9357 H   0  0  0  0  0  0  0  0  0  0  0  0
   27.8860   28.5227   51.0229 H   0  0  0  0  0  0  0  0  0  0  0  0
   26.2897   29.7774   49.6381 H   0  0  0  0  0  0  0  0  0  0  0  0
   26.8194   30.5172   48.0893 H   0  0  0  0  0  0  0  0  0  0  0  0
   26.0216   28.9078   48.0893 H   0  0  0  0  0  0  0  0  0  0  0  0
  1  6  1  0
  1  7  1  0
  2  1  2  0
  3  4  2  0
  3  2  1  0
  4  5  1  0
  5 16  1  0
  5  6  2  0
  7 11  1  0
  8  7  1  0
  8  9  1  0
  9 10  1  0
 11 10  1  0
 12  9  1  0
 12 13  1  0
 12 15  1  0
 14 12  1  0
 16 17  1  0
 17 18  2  0
 18 19  1  0
 20 19  2  0
 21 20  1  0
 21 17  1  0
 22 20  1  0
  2 23  1  0
  3 24  1  0
  8 25  1  0
  8 26  1  0
  9 27  1  1
 10 28  1  0
 10 29  1  0
 11 30  1  0
 11 31  1  0
 18 32  1  0
 19 33  1  0
 22 34  1  0
 22 35  1  0
 22 36  1  0
M  ISO  8  23  14  24  14  25  13  26  13  27  13  28  13  29  13  30  13
M  ISO  6  31  13  32  14  33  14  34   8  35   8  36   8
M  END
>  <minimizedAffinity>  (1) 
-6.52265263

>  <minimizedRMSD>  (1) 
0.145854264

$$$$
