
     RDKit          3D

 21 22  0  0  0  0  0  0  0  0999 V2000
   37.1800   29.9780   50.9290 C   0  0  0  0  0  0  0  0  0  0  0  0
   38.0910   30.4550   49.9700 C   0  0  0  0  0  0  0  0  0  0  0  0
   37.5680   30.8200   48.7440 C   0  0  0  0  0  0  0  0  0  0  0  0
   36.2260   30.7030   48.5280 N   0  0  0  0  0  0  0  0  0  0  0  0
   35.3750   30.2420   49.4690 C   0  0  0  0  0  0  0  0  0  0  0  0
   35.8540   29.8810   50.6650 N   0  0  0  0  0  0  0  0  0  0  0  0
   38.5800   33.6020   49.1090 Cl  0  0  0  0  0  0  0  0  0  0  0  0
   38.9260   32.5970   47.7300 C   0  0  0  0  0  0  0  0  0  0  0  0
   38.4070   31.3290   47.6640 C   0  0  0  0  0  0  0  0  0  0  0  0
   38.7420   30.6200   46.5310 C   0  0  0  0  0  0  0  0  0  0  0  0
   39.5370   31.1250   45.5260 C   0  0  0  0  0  0  0  0  0  0  0  0
   40.0420   32.4010   45.6210 C   0  0  0  0  0  0  0  0  0  0  0  0
   39.7250   33.1370   46.7430 C   0  0  0  0  0  0  0  0  0  0  0  0
   37.7780   29.6310   52.1360 O   0  0  0  0  0  0  0  0  0  0  0  0
   39.1669   30.5337   50.1850 H   0  0  0  0  0  0  0  0  0  0  0  0
   34.2989   30.1639   49.2547 H   0  0  0  0  0  0  0  0  0  0  0  0
   38.3539   29.5964   46.4234 H   0  0  0  0  0  0  0  0  0  0  0  0
   39.7685   30.5069   44.6460 H   0  0  0  0  0  0  0  0  0  0  0  0
   40.6780   32.8205   44.8276 H   0  0  0  0  0  0  0  0  0  0  0  0
   40.1115   34.1611   46.8520 H   0  0  0  0  0  0  0  0  0  0  0  0
   37.2255   29.2833   52.8802 H   0  0  0  0  0  0  0  0  0  0  0  0
  1 14  1  0
  2  1  2  0
  3  2  1  0
  4  3  2  0
  4  5  1  0
  5  6  2  0
  6  1  1  0
  8  7  1  0
  9  8  2  0
  9  3  1  0
 10  9  1  0
 11 12  1  0
 11 10  2  0
 12 13  2  0
 13  8  1  0
  2 15  1  0
  5 16  1  0
 10 17  1  0
 11 18  1  0
 12 19  1  0
 13 20  1  0
 14 21  1  0
M  ISO  7  15  14  16  14  17  14  18  14  19  14  20  14  21   3
M  END
>  <minimizedAffinity>  (1) 
-5.8316493

>  <minimizedRMSD>  (1) 
1.43868124

$$$$
