
     RDKit          3D

 21 22  0  0  0  0  0  0  0  0999 V2000
   37.1990   30.2180   50.7680 C   0  0  0  0  0  0  0  0  0  0  0  0
   38.1540   30.6830   49.8470 C   0  0  0  0  0  0  0  0  0  0  0  0
   37.6900   31.0150   48.5880 C   0  0  0  0  0  0  0  0  0  0  0  0
   36.3620   30.8790   48.3080 N   0  0  0  0  0  0  0  0  0  0  0  0
   35.4690   30.4300   49.2150 C   0  0  0  0  0  0  0  0  0  0  0  0
   35.9000   30.1010   50.4450 N   0  0  0  0  0  0  0  0  0  0  0  0
   38.7200   33.5630   48.6680 F   0  0  0  0  0  0  0  0  0  0  0  0
   39.0780   32.7830   47.6030 C   0  0  0  0  0  0  0  0  0  0  0  0
   38.5740   31.5070   47.5460 C   0  0  0  0  0  0  0  0  0  0  0  0
   38.9790   30.7850   46.4460 C   0  0  0  0  0  0  0  0  0  0  0  0
   39.8150   31.2580   45.4660 C   0  0  0  0  0  0  0  0  0  0  0  0
   40.3030   32.5430   45.5540 C   0  0  0  0  0  0  0  0  0  0  0  0
   39.9170   33.2950   46.6440 C   0  0  0  0  0  0  0  0  0  0  0  0
   37.7420   29.9030   52.0160 O   0  0  0  0  0  0  0  0  0  0  0  0
   39.2167   30.7778   50.1148 H   0  0  0  0  0  0  0  0  0  0  0  0
   34.4052   30.3348   48.9518 H   0  0  0  0  0  0  0  0  0  0  0  0
   38.6057   29.7552   46.3455 H   0  0  0  0  0  0  0  0  0  0  0  0
   40.0931   30.6162   44.6171 H   0  0  0  0  0  0  0  0  0  0  0  0
   40.9742   32.9534   44.7852 H   0  0  0  0  0  0  0  0  0  0  0  0
   40.2886   34.3252   46.7471 H   0  0  0  0  0  0  0  0  0  0  0  0
   37.1566   29.5659   52.7397 H   0  0  0  0  0  0  0  0  0  0  0  0
  1 14  1  0
  2  1  2  0
  3  2  1  0
  4  3  2  0
  4  5  1  0
  5  6  2  0
  6  1  1  0
  8  7  1  0
  9  8  2  0
  9  3  1  0
 10  9  1  0
 11 12  1  0
 11 10  2  0
 12 13  2  0
 13  8  1  0
  2 15  1  0
  5 16  1  0
 10 17  1  0
 11 18  1  0
 12 19  1  0
 13 20  1  0
 14 21  1  0
M  ISO  7  15  14  16  14  17  14  18  14  19  14  20  14  21   3
M  END
>  <minimizedAffinity>  (1) 
-5.72602701

>  <minimizedRMSD>  (1) 
1.50974333

$$$$
