
     RDKit          3D

 24 25  0  0  0  0  0  0  0  0999 V2000
   38.9400   32.1990   47.4820 C   0  0  0  0  0  0  0  0  0  0  0  0
   38.5450   32.4400   48.7850 C   0  0  0  0  0  0  0  0  0  0  0  0
   38.9460   33.5840   49.4170 C   0  0  0  0  0  0  0  0  0  0  0  0
   39.7400   34.5400   48.8190 C   0  0  0  0  0  0  0  0  0  0  0  0
   40.1650   34.3430   47.5050 C   0  0  0  0  0  0  0  0  0  0  0  0
   39.7360   33.1720   46.9070 C   0  0  0  0  0  0  0  0  0  0  0  0
   37.2870   29.7000   51.0250 C   0  0  0  0  0  0  0  0  0  0  0  0
   38.1800   30.6020   50.4360 C   0  0  0  0  0  0  0  0  0  0  0  0
   37.7040   31.4620   49.4640 C   0  0  0  0  0  0  0  0  0  0  0  0
   36.3850   31.3690   49.1450 N   0  0  0  0  0  0  0  0  0  0  0  0
   35.5200   30.4990   49.7140 C   0  0  0  0  0  0  0  0  0  0  0  0
   35.9990   29.6670   50.6590 N   0  0  0  0  0  0  0  0  0  0  0  0
   37.8770   28.8800   51.9950 O   0  0  0  0  0  0  0  0  0  0  0  0
   38.4890   30.7780   46.5860 S   0  0  0  0  0  0  0  0  0  0  0  0
   37.2390   30.9950   45.7580 O   0  0  0  0  0  0  0  0  0  0  0  0
   39.5810   30.5260   45.5540 O   0  0  0  0  0  0  0  0  0  0  0  0
   38.6191   33.7502   50.4541 H   0  0  0  0  0  0  0  0  0  0  0  0
   40.0341   35.4452   49.3705 H   0  0  0  0  0  0  0  0  0  0  0  0
   40.7997   35.0713   46.9789 H   0  0  0  0  0  0  0  0  0  0  0  0
   40.0605   32.9975   45.8706 H   0  0  0  0  0  0  0  0  0  0  0  0
   39.2370   30.6262   50.7396 H   0  0  0  0  0  0  0  0  0  0  0  0
   34.4616   30.4717   49.4154 H   0  0  0  0  0  0  0  0  0  0  0  0
   37.3308   28.2063   52.4724 H   0  0  0  0  0  0  0  0  0  0  0  0
   38.2967   29.7657   47.4888 H   0  0  0  0  0  0  0  0  0  0  0  0
  1  2  2  0
  2  3  1  0
  2  9  1  0
  4  3  2  0
  5  4  1  0
  6  1  1  0
  6  5  2  0
  7 13  1  0
  8  7  2  0
  9  8  1  0
 10  9  2  0
 10 11  1  0
 11 12  2  0
 12  7  1  0
 14  1  1  0
 15 14  2  0
 16 14  2  0
  3 17  1  0
  4 18  1  0
  5 19  1  0
  6 20  1  0
  8 21  1  0
 11 22  1  0
 13 23  1  0
 14 24  1  0
M  ISO  8  17  14  18  14  19  14  20  14  21  14  22  14  23   3  24  11
M  END
>  <minimizedAffinity>  (1) 
-5.69495344

>  <minimizedRMSD>  (1) 
0.936281741

$$$$
