
     RDKit          3D

 13 13  0  0  0  0  0  0  0  0999 V2000
   37.3240   29.9670   51.2230 C   0  0  0  0  0  0  0  0  0  0  0  0
   38.0160   30.8970   50.4280 C   0  0  0  0  0  0  0  0  0  0  0  0
   37.3680   31.4020   49.3100 C   0  0  0  0  0  0  0  0  0  0  0  0
   36.1060   30.9820   49.0320 N   0  0  0  0  0  0  0  0  0  0  0  0
   35.4590   30.0780   49.8220 C   0  0  0  0  0  0  0  0  0  0  0  0
   36.0780   29.5870   50.9030 N   0  0  0  0  0  0  0  0  0  0  0  0
   37.9550   32.3480   48.4220 N   0  0  0  0  0  0  0  0  0  0  0  0
   38.0890   29.5520   52.2990 O   0  0  0  0  0  0  0  0  0  0  0  0
   39.0378   31.2140   50.6839 H   0  0  0  0  0  0  0  0  0  0  0  0
   34.4373   29.7550   49.5732 H   0  0  0  0  0  0  0  0  0  0  0  0
   37.4245   32.6874   47.6070 H   0  0  0  0  0  0  0  0  0  0  0  0
   38.9101   32.6928   48.5948 H   0  0  0  0  0  0  0  0  0  0  0  0
   37.7227   28.8951   52.9428 H   0  0  0  0  0  0  0  0  0  0  0  0
  1  8  1  0
  2  1  2  0
  3  2  1  0
  4  3  2  0
  4  5  1  0
  5  6  2  0
  6  1  1  0
  7  3  1  0
  2  9  1  0
  5 10  1  0
  7 11  1  0
  7 12  1  0
  8 13  1  0
M  ISO  3   9  14  10  14  13   3
M  END
>  <minimizedAffinity>  (1) 
-3.62083268

>  <minimizedRMSD>  (1) 
0.0986435786

$$$$
