
     RDKit          3D

 36 38  0  0  1  0  0  0  0  0999 V2000
   38.5210   32.3170   47.0200 C   0  0  1  0  0  0  0  0  0  0  0  0
   39.7680   33.0570   46.5500 C   0  0  0  0  0  0  0  0  0  0  0  0
   39.7410   31.5860   46.6340 C   0  0  2  0  0  0  0  0  0  0  0  0
   38.1900   32.5180   48.4780 C   0  0  0  0  0  0  0  0  0  0  0  0
   37.3880   29.8140   50.9350 C   0  0  0  0  0  0  0  0  0  0  0  0
   37.9650   30.9690   50.3330 C   0  0  0  0  0  0  0  0  0  0  0  0
   37.5660   31.3140   49.0620 C   0  0  0  0  0  0  0  0  0  0  0  0
   36.6480   30.5480   48.4390 N   0  0  0  0  0  0  0  0  0  0  0  0
   36.1140   29.4640   49.0180 C   0  0  0  0  0  0  0  0  0  0  0  0
   36.4910   29.1160   50.2520 N   0  0  0  0  0  0  0  0  0  0  0  0
   39.6060   30.7190   45.4060 C   0  0  0  0  0  0  0  0  0  0  0  0
   40.6940   30.9840   44.3920 C   0  0  0  0  0  0  0  0  0  0  0  0
   41.5390   29.2770   42.0820 Cl  0  0  0  0  0  0  0  0  0  0  0  0
   40.4930   30.6800   42.0000 C   0  0  0  0  0  0  0  0  0  0  0  0
   40.1290   31.4410   43.1110 C   0  0  0  0  0  0  0  0  0  0  0  0
   39.3030   32.5170   42.9140 C   0  0  0  0  0  0  0  0  0  0  0  0
   38.8240   32.8700   41.6740 C   0  0  0  0  0  0  0  0  0  0  0  0
   39.1870   32.1120   40.5860 C   0  0  0  0  0  0  0  0  0  0  0  0
   40.0200   31.0200   40.7540 C   0  0  0  0  0  0  0  0  0  0  0  0
   37.4647   32.2262   46.7266 H   0  0  0  0  0  0  0  0  0  0  0  0
   40.3669   33.6409   47.2644 H   0  0  0  0  0  0  0  0  0  0  0  0
   39.9938   33.7939   45.7652 H   0  0  0  0  0  0  0  0  0  0  0  0
   40.4360   30.8749   47.1046 H   0  0  0  0  0  0  0  0  0  0  0  0
   39.1162   32.7427   49.0272 H   0  0  0  0  0  0  0  0  0  0  0  0
   37.4755   33.3505   48.5582 H   0  0  0  0  0  0  0  0  0  0  0  0
   37.6817   29.5063   51.9494 H   0  0  0  0  0  0  0  0  0  0  0  0
   38.7119   31.5709   50.8714 H   0  0  0  0  0  0  0  0  0  0  0  0
   35.3674   28.8622   48.4791 H   0  0  0  0  0  0  0  0  0  0  0  0
   39.6571   29.6635   45.7114 H   0  0  0  0  0  0  0  0  0  0  0  0
   38.6415   30.9553   44.9328 H   0  0  0  0  0  0  0  0  0  0  0  0
   41.3683   31.7598   44.7838 H   0  0  0  0  0  0  0  0  0  0  0  0
   41.2418   30.0464   44.2161 H   0  0  0  0  0  0  0  0  0  0  0  0
   39.0110   33.1235   43.7840 H   0  0  0  0  0  0  0  0  0  0  0  0
   38.1635   33.7416   41.5551 H   0  0  0  0  0  0  0  0  0  0  0  0
   38.8160   32.3731   39.5839 H   0  0  0  0  0  0  0  0  0  0  0  0
   40.3074   30.4164   39.8804 H   0  0  0  0  0  0  0  0  0  0  0  0
  1  4  1  0
  2  3  1  0
  2  1  1  0
  3  1  1  0
  4  7  1  0
  6  5  2  0
  7  6  1  0
  8  9  1  0
  8  7  2  0
  9 10  2  0
 10  5  1  0
 11  3  1  0
 12 11  1  0
 14 13  1  0
 14 15  2  0
 15 12  1  0
 16 15  1  0
 17 16  2  0
 18 19  2  0
 18 17  1  0
 19 14  1  0
  1 20  1  6
  2 21  1  0
  2 22  1  0
  3 23  1  1
  4 24  1  0
  4 25  1  0
  5 26  1  0
  6 27  1  0
  9 28  1  0
 11 29  1  0
 11 30  1  0
 12 31  1  0
 12 32  1  0
 16 33  1  0
 17 34  1  0
 18 35  1  0
 19 36  1  0
M  ISO  8  20  13  21  13  22  13  23  13  24   8  25   8  26  14  27  14
M  ISO  8  28  14  29   8  30   8  31   8  32   8  33  14  34  14  35  14
M  ISO  1  36  14
M  END
>  <minimizedAffinity>  (1) 
-5.36523628

>  <minimizedRMSD>  (1) 
1.66688073

$$$$
