
     RDKit          3D

 47 51  0  0  1  0  0  0  0  0999 V2000
   39.7950   30.6950   41.8670 C   0  0  2  0  0  0  0  0  0  0  0  0
   39.9730   31.8910   42.7900 C   0  0  1  0  0  0  0  0  0  0  0  0
   38.9880   32.8340   42.1330 C   0  0  0  0  0  0  0  0  0  0  0  0
   39.0340   32.6040   40.7780 O   0  0  0  0  0  0  0  0  0  0  0  0
   39.7270   31.4570   40.5300 C   0  0  0  0  0  0  0  0  0  0  0  0
   38.5280   31.0900   45.9730 C   0  0  0  0  0  0  0  0  0  0  0  0
   39.8460   31.0920   46.3080 C   0  0  0  0  0  0  0  0  0  0  0  0
   40.5060   31.4000   45.1160 C   0  0  0  0  0  0  0  0  0  0  0  0
   39.6170   31.5660   44.1410 N   0  0  0  0  0  0  0  0  0  0  0  0
   38.3900   31.3760   44.6620 N   0  0  0  0  0  0  0  0  0  0  0  0
   36.4600   30.6430   49.0760 C   0  0  0  0  0  0  0  0  0  0  0  0
   37.5360   30.9090   48.2510 C   0  0  0  0  0  0  0  0  0  0  0  0
   37.4170   30.8190   46.8830 C   0  0  0  0  0  0  0  0  0  0  0  0
   36.2120   30.4640   46.3820 N   0  0  0  0  0  0  0  0  0  0  0  0
   35.1590   30.2060   47.2120 C   0  0  0  0  0  0  0  0  0  0  0  0
   35.2670   30.2900   48.5220 N   0  0  0  0  0  0  0  0  0  0  0  0
   36.7470   30.7790   50.4300 O   0  0  0  0  0  0  0  0  0  0  0  0
   36.8140   29.6900   51.3260 C   0  0  0  0  0  0  0  0  0  0  0  0
   35.5430   29.2100   51.6240 F   0  0  0  0  0  0  0  0  0  0  0  0
   37.4660   30.1000   52.4600 F   0  0  0  0  0  0  0  0  0  0  0  0
   37.5620   28.6920   50.7410 F   0  0  0  0  0  0  0  0  0  0  0  0
   38.5390   30.1570   42.1380 O   0  0  0  0  0  0  0  0  0  0  0  0
   36.9130   28.5140   42.3300 C   0  0  0  0  0  0  0  0  0  0  0  0
   38.2740   28.8270   42.3950 C   0  0  0  0  0  0  0  0  0  0  0  0
   39.1670   27.8180   42.6950 C   0  0  0  0  0  0  0  0  0  0  0  0
   38.7320   26.5310   42.9250 C   0  0  0  0  0  0  0  0  0  0  0  0
   39.4470   25.4190   43.2300 N   0  0  0  0  0  0  0  0  0  0  0  0
   38.5590   24.4070   43.3590 C   0  0  0  0  0  0  0  0  0  0  0  0
   37.2700   24.8480   43.1410 C   0  0  0  0  0  0  0  0  0  0  0  0
   37.4040   26.1990   42.8680 C   0  0  0  0  0  0  0  0  0  0  0  0
   36.5070   27.1970   42.5710 C   0  0  0  0  0  0  0  0  0  0  0  0
   40.5414   29.8892   41.9270 H   0  0  0  0  0  0  0  0  0  0  0  0
   40.9958   32.2834   42.8896 H   0  0  0  0  0  0  0  0  0  0  0  0
   37.9736   32.6410   42.5122 H   0  0  0  0  0  0  0  0  0  0  0  0
   39.2457   33.8797   42.3567 H   0  0  0  0  0  0  0  0  0  0  0  0
   39.2051   30.8527   39.7734 H   0  0  0  0  0  0  0  0  0  0  0  0
   40.7332   31.6739   40.1419 H   0  0  0  0  0  0  0  0  0  0  0  0
   40.2915   30.8955   47.2944 H   0  0  0  0  0  0  0  0  0  0  0  0
   41.5962   31.4914   45.0012 H   0  0  0  0  0  0  0  0  0  0  0  0
   38.5010   31.1967   48.6938 H   0  0  0  0  0  0  0  0  0  0  0  0
   34.1917   29.9195   46.7736 H   0  0  0  0  0  0  0  0  0  0  0  0
   36.1722   29.2918   42.0928 H   0  0  0  0  0  0  0  0  0  0  0  0
   40.2419   28.0448   42.7513 H   0  0  0  0  0  0  0  0  0  0  0  0
   40.4691   25.3574   43.3418 H   0  0  0  0  0  0  0  0  0  0  0  0
   38.8288   23.3694   43.6052 H   0  0  0  0  0  0  0  0  0  0  0  0
   36.3424   24.2578   43.1762 H   0  0  0  0  0  0  0  0  0  0  0  0
   35.4357   26.9525   42.5212 H   0  0  0  0  0  0  0  0  0  0  0  0
  1 22  1  0
  1  2  1  0
  2  9  1  0
  3  2  1  0
  4  3  1  0
  5  4  1  0
  5  1  1  0
  6  7  1  0
  6 13  1  0
  8  7  2  0
  9 10  1  0
  9  8  1  0
 10  6  2  0
 11 17  1  0
 12 11  2  0
 13 12  1  0
 14 13  2  0
 14 15  1  0
 15 16  2  0
 16 11  1  0
 17 18  1  0
 18 19  1  0
 18 20  1  0
 21 18  1  0
 22 24  1  0
 23 24  2  0
 23 31  1  0
 24 25  1  0
 25 26  2  0
 26 27  1  0
 27 28  1  0
 29 28  2  0
 30 26  1  0
 30 29  1  0
 31 30  2  0
  1 32  1  6
  2 33  1  1
  3 34  1  0
  3 35  1  0
  5 36  1  0
  5 37  1  0
  7 38  1  0
  8 39  1  0
 12 40  1  0
 15 41  1  0
 23 42  1  0
 25 43  1  0
 27 44  1  0
 28 45  1  0
 29 46  1  0
 31 47  1  0
M  ISO  8  32  13  33  13  34  13  35  13  36  13  37  13  38  14  39  14
M  ISO  8  40  14  41  14  42  14  43  14  44   9  45  14  46  14  47  14
M  END
>  <minimizedAffinity>  (1) 
-6.73187065

>  <minimizedRMSD>  (1) 
0.374009341

$$$$
