
     RDKit          3D

 47 50  0  0  1  0  0  0  0  0999 V2000
   38.5200   31.0490   45.9840 C   0  0  0  0  0  0  0  0  0  0  0  0
   39.8060   31.3150   46.3560 C   0  0  0  0  0  0  0  0  0  0  0  0
   40.4870   31.5110   45.1540 C   0  0  0  0  0  0  0  0  0  0  0  0
   39.6460   31.3680   44.1430 N   0  0  0  0  0  0  0  0  0  0  0  0
   38.4410   31.0850   44.6400 N   0  0  0  0  0  0  0  0  0  0  0  0
   36.4200   30.6230   49.0530 C   0  0  0  0  0  0  0  0  0  0  0  0
   37.4900   30.8850   48.2390 C   0  0  0  0  0  0  0  0  0  0  0  0
   37.4270   30.7810   46.8790 C   0  0  0  0  0  0  0  0  0  0  0  0
   36.2370   30.4010   46.3710 N   0  0  0  0  0  0  0  0  0  0  0  0
   35.1640   30.1380   47.1810 C   0  0  0  0  0  0  0  0  0  0  0  0
   35.2560   30.2480   48.4930 N   0  0  0  0  0  0  0  0  0  0  0  0
   33.9670   29.7480   46.5200 N   0  0  0  0  0  0  0  0  0  0  0  0
   33.3890   30.3670   45.3410 C   0  0  0  0  0  0  0  0  0  0  0  0
   31.9530   30.5270   45.8330 C   0  0  0  0  0  0  0  0  0  0  0  0
   31.6960   29.0940   46.3110 C   0  0  0  0  0  0  0  0  0  0  0  0
   33.0370   28.6780   46.8240 C   0  0  0  0  0  0  0  0  0  0  0  0
   36.6720   30.7810   50.4090 O   0  0  0  0  0  0  0  0  0  0  0  0
   36.7660   29.7080   51.3120 C   0  0  0  0  0  0  0  0  0  0  0  0
   35.5100   29.1920   51.6360 F   0  0  0  0  0  0  0  0  0  0  0  0
   37.4430   30.1230   52.4270 F   0  0  0  0  0  0  0  0  0  0  0  0
   37.5090   28.6980   50.7200 F   0  0  0  0  0  0  0  0  0  0  0  0
   40.7040   30.3010   42.2730 C   0  0  2  0  0  0  0  0  0  0  0  0
   40.0870   31.5080   42.7810 C   0  0  1  0  0  0  0  0  0  0  0  0
   38.8760   31.5560   41.8230 C   0  0  0  0  0  0  0  0  0  0  0  0
   39.3000   31.0850   40.6070 O   0  0  0  0  0  0  0  0  0  0  0  0
   40.4780   30.5160   40.7170 C   0  0  0  0  0  0  0  0  0  0  0  0
   39.8780   29.1870   42.5770 O   0  0  0  0  0  0  0  0  0  0  0  0
   40.2300   27.9250   42.1010 C   0  0  0  0  0  0  0  0  0  0  0  0
   39.6630   26.9770   42.8130 O   0  0  0  0  0  0  0  0  0  0  0  0
   40.2146   31.3640   47.3761 H   0  0  0  0  0  0  0  0  0  0  0  0
   41.5572   31.7477   45.0615 H   0  0  0  0  0  0  0  0  0  0  0  0
   38.4401   31.1922   48.7004 H   0  0  0  0  0  0  0  0  0  0  0  0
   33.4520   29.7127   44.4590 H   0  0  0  0  0  0  0  0  0  0  0  0
   33.8792   31.2926   45.0049 H   0  0  0  0  0  0  0  0  0  0  0  0
   31.8782   31.2545   46.6547 H   0  0  0  0  0  0  0  0  0  0  0  0
   31.2399   30.9099   45.0881 H   0  0  0  0  0  0  0  0  0  0  0  0
   30.9403   29.0711   47.1100 H   0  0  0  0  0  0  0  0  0  0  0  0
   31.3035   28.4332   45.5240 H   0  0  0  0  0  0  0  0  0  0  0  0
   33.3574   27.7492   46.3295 H   0  0  0  0  0  0  0  0  0  0  0  0
   32.9985   28.4922   47.9075 H   0  0  0  0  0  0  0  0  0  0  0  0
   41.7270   30.1368   42.6424 H   0  0  0  0  0  0  0  0  0  0  0  0
   40.7400   32.3929   42.8048 H   0  0  0  0  0  0  0  0  0  0  0  0
   38.0643   30.9224   42.2100 H   0  0  0  0  0  0  0  0  0  0  0  0
   38.4923   32.5828   41.7310 H   0  0  0  0  0  0  0  0  0  0  0  0
   40.4887   29.5503   40.1903 H   0  0  0  0  0  0  0  0  0  0  0  0
   41.2718   31.1338   40.2718 H   0  0  0  0  0  0  0  0  0  0  0  0
   40.8945   27.7462   41.2428 H   0  0  0  0  0  0  0  0  0  0  0  0
  1  2  1  0
  1  8  1  0
  3  2  2  0
  4  5  1  0
  4  3  1  0
  5  1  2  0
  6 17  1  0
  7  6  2  0
  8  7  1  0
  9  8  2  0
  9 10  1  0
 10 11  2  0
 11  6  1  0
 12 16  1  0
 12 10  1  0
 13 14  1  0
 13 12  1  0
 14 15  1  0
 15 16  1  0
 17 18  1  0
 18 19  1  0
 18 20  1  0
 21 18  1  0
 22 27  1  0
 22 23  1  0
 23  4  1  0
 24 23  1  0
 25 26  1  0
 25 24  1  0
 26 22  1  0
 28 27  1  0
 28 29  2  0
  2 30  1  0
  3 31  1  0
  7 32  1  0
 13 33  1  0
 13 34  1  0
 14 35  1  0
 14 36  1  0
 15 37  1  0
 15 38  1  0
 16 39  1  0
 16 40  1  0
 22 41  1  6
 23 42  1  1
 24 43  1  0
 24 44  1  0
 26 45  1  0
 26 46  1  0
 28 47  1  0
M  ISO  8  30  14  31  14  32  14  33  13  34  13  35  13  36  13  37  13
M  ISO  8  38  13  39  13  40  13  41  13  42  13  43  13  44  13  45  13
M  ISO  2  46  13  47   6
M  END
>  <minimizedAffinity>  (1) 
-6.70332718

>  <minimizedRMSD>  (1) 
0.105744675

$$$$
