
     RDKit          3D

 25 26  0  0  0  0  0  0  0  0999 V2000
   38.7420   32.3260   47.6050 C   0  0  0  0  0  0  0  0  0  0  0  0
   38.3750   32.4060   48.9320 C   0  0  0  0  0  0  0  0  0  0  0  0
   38.8230   33.4140   49.7610 C   0  0  0  0  0  0  0  0  0  0  0  0
   39.6670   34.3850   49.2650 C   0  0  0  0  0  0  0  0  0  0  0  0
   40.0400   34.3110   47.9330 C   0  0  0  0  0  0  0  0  0  0  0  0
   39.5950   33.3000   47.0920 C   0  0  0  0  0  0  0  0  0  0  0  0
   38.0760   30.2240   50.0150 C   0  0  0  0  0  0  0  0  0  0  0  0
   37.4940   31.3610   49.4380 C   0  0  0  0  0  0  0  0  0  0  0  0
   36.0880   31.4130   49.3810 C   0  0  0  0  0  0  0  0  0  0  0  0
   35.3790   30.3690   49.8810 N   0  0  0  0  0  0  0  0  0  0  0  0
   35.9930   29.2870   50.4330 C   0  0  0  0  0  0  0  0  0  0  0  0
   37.3340   29.2160   50.4980 N   0  0  0  0  0  0  0  0  0  0  0  0
   39.1260   30.3450   46.3050 N   0  0  0  0  0  0  0  0  0  0  0  0
   38.3230   31.3220   46.6360 C   0  0  0  0  0  0  0  0  0  0  0  0
   37.0850   31.2460   45.9380 N   0  0  0  0  0  0  0  0  0  0  0  0
   40.0680   30.2300   46.7040 H   0  0  0  0  0  0  0  0  0  0  0  0
   38.5077   33.4428   50.8145 H   0  0  0  0  0  0  0  0  0  0  0  0
   40.0344   35.1969   49.9099 H   0  0  0  0  0  0  0  0  0  0  0  0
   40.7128   35.0808   47.5271 H   0  0  0  0  0  0  0  0  0  0  0  0
   39.9107   33.2688   46.0387 H   0  0  0  0  0  0  0  0  0  0  0  0
   39.1723   30.1562   50.0735 H   0  0  0  0  0  0  0  0  0  0  0  0
   35.5752   32.2809   48.9408 H   0  0  0  0  0  0  0  0  0  0  0  0
   35.3850   28.4610   50.8306 H   0  0  0  0  0  0  0  0  0  0  0  0
   36.3564   31.9551   46.1029 H   0  0  0  0  0  0  0  0  0  0  0  0
   36.9176   30.4819   45.2679 H   0  0  0  0  0  0  0  0  0  0  0  0
  1  2  2  0
  2  8  1  0
  2  3  1  0
  4  3  2  0
  5  4  1  0
  6  1  1  0
  6  5  2  0
  7 12  2  0
  8  7  1  0
  9  8  2  0
  9 10  1  0
 10 11  2  0
 11 12  1  0
 13 14  2  0
 13 16  1  0
 14  1  1  0
 15 14  1  0
  3 17  1  0
  4 18  1  0
  5 19  1  0
  6 20  1  0
  7 21  1  0
  9 22  1  0
 11 23  1  0
 15 24  1  0
 15 25  1  0
M  ISO  7  17  14  18  14  19  14  20  14  21  14  22  14  23  14
M  END
>  <minimizedAffinity>  (1) 
-5.17946053

>  <minimizedRMSD>  (1) 
2.36058831

$$$$
