
     RDKit          3D

 27 28  0  0  0  0  0  0  0  0999 V2000
   39.0930   32.3190   47.1440 C   0  0  0  0  0  0  0  0  0  0  0  0
   38.3750   32.3040   48.3320 C   0  0  0  0  0  0  0  0  0  0  0  0
   38.5500   33.2590   49.3090 C   0  0  0  0  0  0  0  0  0  0  0  0
   39.4620   34.2710   49.1190 C   0  0  0  0  0  0  0  0  0  0  0  0
   40.1870   34.2990   47.9370 C   0  0  0  0  0  0  0  0  0  0  0  0
   40.0180   33.3460   46.9540 C   0  0  0  0  0  0  0  0  0  0  0  0
   37.6750   30.2760   49.5130 C   0  0  0  0  0  0  0  0  0  0  0  0
   37.4240   31.2240   48.4980 C   0  0  0  0  0  0  0  0  0  0  0  0
   36.2670   31.0380   47.7360 C   0  0  0  0  0  0  0  0  0  0  0  0
   35.4570   29.9880   47.9910 N   0  0  0  0  0  0  0  0  0  0  0  0
   35.7530   29.1000   48.9890 C   0  0  0  0  0  0  0  0  0  0  0  0
   36.8500   29.2430   49.7400 N   0  0  0  0  0  0  0  0  0  0  0  0
   34.8590   27.9740   49.2400 C   0  0  0  0  0  0  0  0  0  0  0  0
   33.6050   28.0330   49.1560 O   0  0  0  0  0  0  0  0  0  0  0  0
   39.7940   30.3370   45.9810 N   0  0  0  0  0  0  0  0  0  0  0  0
   39.0040   31.3790   46.0460 C   0  0  0  0  0  0  0  0  0  0  0  0
   38.1100   31.4240   44.9350 N   0  0  0  0  0  0  0  0  0  0  0  0
   40.5060   30.1350   46.7000 H   0  0  0  0  0  0  0  0  0  0  0  0
   37.9625   33.2125   50.2378 H   0  0  0  0  0  0  0  0  0  0  0  0
   39.6132   35.0422   49.8887 H   0  0  0  0  0  0  0  0  0  0  0  0
   40.9185   35.1051   47.7786 H   0  0  0  0  0  0  0  0  0  0  0  0
   40.6083   33.3955   46.0271 H   0  0  0  0  0  0  0  0  0  0  0  0
   38.5742   30.3876   50.1367 H   0  0  0  0  0  0  0  0  0  0  0  0
   36.0171   31.7448   46.9310 H   0  0  0  0  0  0  0  0  0  0  0  0
   35.3109   27.0112   49.5209 H   0  0  0  0  0  0  0  0  0  0  0  0
   37.4281   32.1916   44.8535 H   0  0  0  0  0  0  0  0  0  0  0  0
   38.1465   30.6889   44.2145 H   0  0  0  0  0  0  0  0  0  0  0  0
  1  2  2  0
  2  8  1  0
  2  3  1  0
  4  3  2  0
  5  4  1  0
  6  1  1  0
  6  5  2  0
  7 12  2  0
  8  7  1  0
  9 10  1  0
  9  8  2  0
 10 11  2  0
 11 13  1  0
 11 12  1  0
 14 13  2  0
 15 16  2  0
 15 18  1  0
 16  1  1  0
 17 16  1  0
  3 19  1  0
  4 20  1  0
  5 21  1  0
  6 22  1  0
  7 23  1  0
  9 24  1  0
 13 25  1  0
 17 26  1  0
 17 27  1  0
M  ISO  7  19  14  20  14  21  14  22  14  23  14  24  14  25   6
M  END
>  <minimizedAffinity>  (1) 
-5.32615852

>  <minimizedRMSD>  (1) 
1.34007323

$$$$
