
     RDKit          3D

 27 28  0  0  0  0  0  0  0  0999 V2000
   38.8440   32.4330   47.5120 C   0  0  0  0  0  0  0  0  0  0  0  0
   38.4910   32.6010   48.8370 C   0  0  0  0  0  0  0  0  0  0  0  0
   38.9930   33.6350   49.5990 C   0  0  0  0  0  0  0  0  0  0  0  0
   39.8720   34.5390   49.0480 C   0  0  0  0  0  0  0  0  0  0  0  0
   40.2320   34.3720   47.7110 C   0  0  0  0  0  0  0  0  0  0  0  0
   39.7330   33.3390   46.9420 C   0  0  0  0  0  0  0  0  0  0  0  0
   38.0900   30.6180   50.2150 C   0  0  0  0  0  0  0  0  0  0  0  0
   37.5630   31.6380   49.3960 C   0  0  0  0  0  0  0  0  0  0  0  0
   36.1810   31.6390   49.1890 C   0  0  0  0  0  0  0  0  0  0  0  0
   35.4280   30.6730   49.7760 N   0  0  0  0  0  0  0  0  0  0  0  0
   35.9840   29.7160   50.5540 C   0  0  0  0  0  0  0  0  0  0  0  0
   37.3180   29.6770   50.7820 N   0  0  0  0  0  0  0  0  0  0  0  0
   35.2390   28.6830   51.1910 N   0  0  0  0  0  0  0  0  0  0  0  0
   39.0970   30.3110   46.4150 N   0  0  0  0  0  0  0  0  0  0  0  0
   38.3840   31.3840   46.6030 C   0  0  0  0  0  0  0  0  0  0  0  0
   37.1700   31.3840   45.8420 N   0  0  0  0  0  0  0  0  0  0  0  0
   39.9870   30.1370   46.8840 H   0  0  0  0  0  0  0  0  0  0  0  0
   38.6896   33.7375   50.6513 H   0  0  0  0  0  0  0  0  0  0  0  0
   40.2787   35.3689   49.6445 H   0  0  0  0  0  0  0  0  0  0  0  0
   40.9348   35.0848   47.2550 H   0  0  0  0  0  0  0  0  0  0  0  0
   40.0353   33.2336   45.8896 H   0  0  0  0  0  0  0  0  0  0  0  0
   39.1747   30.5923   50.3962 H   0  0  0  0  0  0  0  0  0  0  0  0
   35.7106   32.4097   48.5608 H   0  0  0  0  0  0  0  0  0  0  0  0
   35.7221   27.9828   51.7717 H   0  0  0  0  0  0  0  0  0  0  0  0
   34.2171   28.6361   51.0710 H   0  0  0  0  0  0  0  0  0  0  0  0
   36.5213   32.1814   45.9072 H   0  0  0  0  0  0  0  0  0  0  0  0
   36.9460   30.5866   45.2297 H   0  0  0  0  0  0  0  0  0  0  0  0
  1  2  2  0
  2  8  1  0
  2  3  1  0
  4  3  2  0
  5  4  1  0
  6  1  1  0
  6  5  2  0
  7 12  2  0
  8  7  1  0
  9  8  2  0
  9 10  1  0
 10 11  2  0
 11 12  1  0
 11 13  1  0
 14 15  2  0
 14 17  1  0
 15  1  1  0
 16 15  1  0
  3 18  1  0
  4 19  1  0
  5 20  1  0
  6 21  1  0
  7 22  1  0
  9 23  1  0
 13 24  1  0
 13 25  1  0
 16 26  1  0
 16 27  1  0
M  ISO  6  18  14  19  14  20  14  21  14  22  14  23  14
M  END
>  <minimizedAffinity>  (1) 
-4.8781805

>  <minimizedRMSD>  (1) 
0.333945781

$$$$
