
     RDKit          3D

 33 35  0  0  1  0  0  0  0  0999 V2000
   38.7160   32.0590   46.9510 C   0  0  1  0  0  0  0  0  0  0  0  0
   39.8090   32.9260   46.2930 C   0  0  0  0  0  0  0  0  0  0  0  0
   39.8830   31.4650   46.2590 C   0  0  2  0  0  0  0  0  0  0  0  0
   38.6500   32.1920   48.4440 C   0  0  0  0  0  0  0  0  0  0  0  0
   37.3130   29.9040   51.0790 C   0  0  0  0  0  0  0  0  0  0  0  0
   38.0530   30.9500   50.4270 C   0  0  0  0  0  0  0  0  0  0  0  0
   37.8700   31.1100   49.0630 C   0  0  0  0  0  0  0  0  0  0  0  0
   37.0350   30.3070   48.4120 N   0  0  0  0  0  0  0  0  0  0  0  0
   36.3440   29.3280   49.0340 C   0  0  0  0  0  0  0  0  0  0  0  0
   36.4900   29.1380   50.3520 N   0  0  0  0  0  0  0  0  0  0  0  0
   39.5820   30.6160   45.0690 C   0  0  0  0  0  0  0  0  0  0  0  0
   40.4650   30.8970   43.8900 C   0  0  0  0  0  0  0  0  0  0  0  0
   39.9250   31.8370   42.8790 C   0  0  0  0  0  0  0  0  0  0  0  0
   38.6480   31.5470   42.1540 C   0  0  0  0  0  0  0  0  0  0  0  0
   39.9390   31.3430   41.4430 C   0  0  0  0  0  0  0  0  0  0  0  0
   37.6344   31.8731   46.8756 H   0  0  0  0  0  0  0  0  0  0  0  0
   39.5889   33.4899   45.3745 H   0  0  0  0  0  0  0  0  0  0  0  0
   40.4730   33.7369   46.6270 H   0  0  0  0  0  0  0  0  0  0  0  0
   40.7206   30.7961   46.5061 H   0  0  0  0  0  0  0  0  0  0  0  0
   39.6730   32.1672   48.8476 H   0  0  0  0  0  0  0  0  0  0  0  0
   38.1513   33.1444   48.6770 H   0  0  0  0  0  0  0  0  0  0  0  0
   37.4215   29.7353   52.1606 H   0  0  0  0  0  0  0  0  0  0  0  0
   38.7392   31.5994   50.9903 H   0  0  0  0  0  0  0  0  0  0  0  0
   35.6609   28.6862   48.4583 H   0  0  0  0  0  0  0  0  0  0  0  0
   39.7082   29.5611   45.3540 H   0  0  0  0  0  0  0  0  0  0  0  0
   38.5514   30.8468   44.7614 H   0  0  0  0  0  0  0  0  0  0  0  0
   41.4082   31.3171   44.2693 H   0  0  0  0  0  0  0  0  0  0  0  0
   40.5761   29.9348   43.3686 H   0  0  0  0  0  0  0  0  0  0  0  0
   40.2874   32.7084   43.4441 H   0  0  0  0  0  0  0  0  0  0  0  0
   38.0401   30.6773   42.4439 H   0  0  0  0  0  0  0  0  0  0  0  0
   37.7339   32.1213   41.9427 H   0  0  0  0  0  0  0  0  0  0  0  0
   40.2869   30.3249   41.2141 H   0  0  0  0  0  0  0  0  0  0  0  0
   40.3744   31.7027   40.4991 H   0  0  0  0  0  0  0  0  0  0  0  0
  1  4  1  0
  2  1  1  0
  3  2  1  0
  3  1  1  0
  4  7  1  0
  6  5  2  0
  7  6  1  0
  8  9  1  0
  8  7  2  0
  9 10  2  0
 10  5  1  0
 11  3  1  0
 12 11  1  0
 13 12  1  0
 14 13  1  0
 15 14  1  0
 15 13  1  0
  1 16  1  6
  2 17  1  0
  2 18  1  0
  3 19  1  1
  4 20  1  0
  4 21  1  0
  5 22  1  0
  6 23  1  0
  9 24  1  0
 11 25  1  0
 11 26  1  0
 12 27  1  0
 12 28  1  0
 13 29  1  0
 14 30  1  0
 14 31  1  0
 15 32  1  0
 15 33  1  0
M  ISO  8  16  13  17  13  18  13  19  13  20   8  21   8  22  14  23  14
M  ISO  8  24  14  25   8  26   8  27   8  28   8  29  13  30  13  31  13
M  ISO  2  32  13  33  13
M  END
>  <minimizedAffinity>  (1) 
-4.67958403

>  <minimizedRMSD>  (1) 
0.468928933

$$$$
