
     RDKit          3D

 22 22  0  0  0  0  0  0  0  0999 V2000
   35.6790   30.5810   49.7390 C   0  0  0  0  0  0  0  0  0  0  0  0
   36.1070   29.6110   50.6580 C   0  0  0  0  0  0  0  0  0  0  0  0
   37.4130   29.6660   51.1240 C   0  0  0  0  0  0  0  0  0  0  0  0
   38.2340   30.6570   50.6770 N   0  0  0  0  0  0  0  0  0  0  0  0
   37.7850   31.5900   49.7790 C   0  0  0  0  0  0  0  0  0  0  0  0
   36.5130   31.5520   49.3110 N   0  0  0  0  0  0  0  0  0  0  0  0
   34.4200   30.6630   49.1820 O   0  0  0  0  0  0  0  0  0  0  0  0
   35.2880   29.6770   46.8430 O   0  0  0  0  0  0  0  0  0  0  0  0
   34.0410   29.9690   47.6520 P   0  0  2  0  0  0  0  0  0  0  0  0
   33.1100   31.0560   46.7550 O   0  0  0  0  0  0  0  0  0  0  0  0
   33.1710   28.5510   47.9960 O   0  0  0  0  0  0  0  0  0  0  0  0
   34.1380   27.5600   48.2380 C   0  0  0  0  0  0  0  0  0  0  0  0
   33.7350   26.2940   47.5020 C   0  0  0  0  0  0  0  0  0  0  0  0
   35.4212   28.8228   51.0022 H   0  0  0  0  0  0  0  0  0  0  0  0
   37.7801   28.9199   51.8442 H   0  0  0  0  0  0  0  0  0  0  0  0
   38.4665   32.3811   49.4329 H   0  0  0  0  0  0  0  0  0  0  0  0
   32.6057   31.6448   47.3706 H   0  0  0  0  0  0  0  0  0  0  0  0
   35.1180   27.9030   47.8747 H   0  0  0  0  0  0  0  0  0  0  0  0
   34.2062   27.3596   49.3174 H   0  0  0  0  0  0  0  0  0  0  0  0
   33.4853   25.5095   48.2315 H   0  0  0  0  0  0  0  0  0  0  0  0
   32.8581   26.5002   46.8707 H   0  0  0  0  0  0  0  0  0  0  0  0
   34.5698   25.9554   46.8707 H   0  0  0  0  0  0  0  0  0  0  0  0
  1  2  2  0
  2  3  1  0
  4  3  2  0
  5  4  1  0
  6  1  1  0
  6  5  2  0
  7  1  1  0
  9  8  2  0
  9 11  1  0
  9  7  1  0
 10  9  1  0
 11 12  1  0
 13 12  1  0
  2 14  1  0
  3 15  1  0
  5 16  1  0
 10 17  1  0
 12 18  1  0
 12 19  1  0
 13 20  1  0
 13 21  1  0
 13 22  1  0
M  ISO  8  14  14  15  14  16  14  17   3  18   8  19   8  20   8  21   8
M  ISO  1  22   8
M  END
>  <minimizedAffinity>  (1) 
-3.83472562

>  <minimizedRMSD>  (1) 
0.865513682

$$$$
