
     RDKit          3D

 45 47  0  0  1  0  0  0  0  0999 V2000
   33.2460   27.2710   45.8590 C   0  0  1  0  0  0  0  0  0  0  0  0
   33.9000   27.4470   47.2480 C   0  0  2  0  0  0  0  0  0  0  0  0
   33.7110   26.2350   47.8340 O   0  0  0  0  0  0  0  0  0  0  0  0
   34.0600   25.3160   46.8600 C   0  0  0  0  0  0  0  0  0  0  0  0
   33.6380   25.8610   45.5310 C   0  0  2  0  0  0  0  0  0  0  0  0
   31.8850   27.4890   45.9390 O   0  0  0  0  0  0  0  0  0  0  0  0
   33.2550   28.5140   47.8020 O   0  0  0  0  0  0  0  0  0  0  0  0
   35.3340   29.7880   46.7890 O   0  0  0  0  0  0  0  0  0  0  0  0
   34.0700   29.9750   47.6150 P   0  0  1  0  0  0  0  0  0  0  0  0
   33.1210   31.0590   46.7240 O   0  0  0  0  0  0  0  0  0  0  0  0
   34.3630   30.5780   49.1840 O   0  0  0  0  0  0  0  0  0  0  0  0
   35.6050   30.4770   49.7880 C   0  0  0  0  0  0  0  0  0  0  0  0
   35.9620   29.4620   50.7020 C   0  0  0  0  0  0  0  0  0  0  0  0
   37.2460   29.4850   51.2300 C   0  0  0  0  0  0  0  0  0  0  0  0
   38.0960   30.4810   50.8430 N   0  0  0  0  0  0  0  0  0  0  0  0
   37.7280   31.4460   49.9610 C   0  0  0  0  0  0  0  0  0  0  0  0
   36.4700   31.4420   49.4310 N   0  0  0  0  0  0  0  0  0  0  0  0
   34.7130   25.8640   44.6410 O   0  0  0  0  0  0  0  0  0  0  0  0
   34.9600   24.6200   44.0970 C   0  0  0  0  0  0  0  0  0  0  0  0
   34.7630   24.6050   42.5940 C   0  0  0  0  0  0  0  0  0  0  0  0
   35.9620   25.2800   41.9480 C   0  0  0  0  0  0  0  0  0  0  0  0
   37.2190   24.4780   42.1050 C   0  0  0  0  0  0  0  0  0  0  0  0
   36.9640   23.4220   43.1670 C   0  0  0  0  0  0  0  0  0  0  0  0
   36.3890   24.1820   44.3550 C   0  0  0  0  0  0  0  0  0  0  0  0
   33.5645   27.9777   45.0785 H   0  0  0  0  0  0  0  0  0  0  0  0
   34.9734   27.6787   47.3120 H   0  0  0  0  0  0  0  0  0  0  0  0
   35.1486   25.1586   46.8694 H   0  0  0  0  0  0  0  0  0  0  0  0
   33.5642   24.3528   47.0508 H   0  0  0  0  0  0  0  0  0  0  0  0
   32.8370   25.2753   45.0563 H   0  0  0  0  0  0  0  0  0  0  0  0
   31.6131   27.5326   46.8899 H   0  0  0  0  0  0  0  0  0  0  0  0
   32.6127   31.6396   47.3443 H   0  0  0  0  0  0  0  0  0  0  0  0
   35.2454   28.6775   50.9869 H   0  0  0  0  0  0  0  0  0  0  0  0
   37.5720   28.7161   51.9459 H   0  0  0  0  0  0  0  0  0  0  0  0
   38.4435   32.2306   49.6738 H   0  0  0  0  0  0  0  0  0  0  0  0
   34.2441   23.9386   44.5799 H   0  0  0  0  0  0  0  0  0  0  0  0
   34.6852   23.5666   42.2395 H   0  0  0  0  0  0  0  0  0  0  0  0
   33.8389   25.1390   42.3278 H   0  0  0  0  0  0  0  0  0  0  0  0
   36.1093   26.2640   42.4170 H   0  0  0  0  0  0  0  0  0  0  0  0
   35.7555   25.3750   40.8717 H   0  0  0  0  0  0  0  0  0  0  0  0
   37.4768   23.9951   41.1509 H   0  0  0  0  0  0  0  0  0  0  0  0
   38.0559   25.1277   42.4010 H   0  0  0  0  0  0  0  0  0  0  0  0
   36.2444   22.6741   42.8025 H   0  0  0  0  0  0  0  0  0  0  0  0
   37.8812   22.8760   43.4328 H   0  0  0  0  0  0  0  0  0  0  0  0
   37.0072   25.0723   44.5427 H   0  0  0  0  0  0  0  0  0  0  0  0
   36.3919   23.5117   45.2272 H   0  0  0  0  0  0  0  0  0  0  0  0
  1  6  1  0
  1  2  1  0
  2  7  1  0
  2  3  1  0
  4  3  1  0
  5  1  1  0
  5  4  1  0
  9  8  2  0
  9  7  1  0
  9 11  1  0
 10  9  1  0
 11 12  1  0
 12 13  2  0
 13 14  1  0
 15 14  2  0
 16 15  1  0
 17 12  1  0
 17 16  2  0
 18  5  1  0
 19 24  1  0
 19 18  1  0
 20 19  1  0
 21 22  1  0
 21 20  1  0
 22 23  1  0
 23 24  1  0
  1 25  1  6
  2 26  1  6
  4 27  1  0
  4 28  1  0
  5 29  1  6
  6 30  1  0
 10 31  1  0
 13 32  1  0
 14 33  1  0
 16 34  1  0
 19 35  1  0
 20 36  1  0
 20 37  1  0
 21 38  1  0
 21 39  1  0
 22 40  1  0
 22 41  1  0
 23 42  1  0
 23 43  1  0
 24 44  1  0
 24 45  1  0
M  ISO  8  25  13  26  13  27  13  28  13  29  13  30   3  31   3  32  14
M  ISO  8  33  14  34  14  35  13  36  13  37  13  38  13  39  13  40  13
M  ISO  5  41  13  42  13  43  13  44  13  45  13
M  END
>  <minimizedAffinity>  (1) 
-4.18006611

>  <minimizedRMSD>  (1) 
0.966731548

$$$$
