
     RDKit          3D

 39 41  0  0  1  0  0  0  0  0999 V2000
   33.1780   27.2910   45.8480 C   0  0  1  0  0  0  0  0  0  0  0  0
   33.9290   27.4650   47.1890 C   0  0  2  0  0  0  0  0  0  0  0  0
   33.8050   26.2450   47.7750 O   0  0  0  0  0  0  0  0  0  0  0  0
   34.0920   25.3440   46.7660 C   0  0  0  0  0  0  0  0  0  0  0  0
   33.5810   25.8940   45.4740 C   0  0  2  0  0  0  0  0  0  0  0  0
   31.8210   27.4810   46.0290 O   0  0  0  0  0  0  0  0  0  0  0  0
   33.3030   28.5120   47.7990 O   0  0  0  0  0  0  0  0  0  0  0  0
   35.3500   29.8220   46.7710 O   0  0  0  0  0  0  0  0  0  0  0  0
   34.0860   29.9880   47.6060 P   0  0  1  0  0  0  0  0  0  0  0  0
   33.1110   31.0500   46.7190 O   0  0  0  0  0  0  0  0  0  0  0  0
   34.3770   30.6140   49.1680 O   0  0  0  0  0  0  0  0  0  0  0  0
   35.6150   30.4900   49.7820 C   0  0  0  0  0  0  0  0  0  0  0  0
   35.9650   29.4730   50.6970 C   0  0  0  0  0  0  0  0  0  0  0  0
   37.2490   29.4840   51.2290 C   0  0  0  0  0  0  0  0  0  0  0  0
   38.1030   30.4740   50.8420 N   0  0  0  0  0  0  0  0  0  0  0  0
   37.7480   31.4470   49.9600 C   0  0  0  0  0  0  0  0  0  0  0  0
   36.4890   31.4500   49.4280 N   0  0  0  0  0  0  0  0  0  0  0  0
   34.5790   25.9140   44.5230 O   0  0  0  0  0  0  0  0  0  0  0  0
   35.2310   24.8670   43.9240 C   0  0  0  0  0  0  0  0  0  0  0  0
   36.5580   25.0900   43.5360 C   0  0  0  0  0  0  0  0  0  0  0  0
   37.2620   24.0690   42.9270 C   0  0  0  0  0  0  0  0  0  0  0  0
   36.7000   22.8330   42.6870 C   0  0  0  0  0  0  0  0  0  0  0  0
   35.3890   22.5930   43.0630 C   0  0  0  0  0  0  0  0  0  0  0  0
   34.7210   23.6280   43.6640 C   0  0  0  0  0  0  0  0  0  0  0  0
   33.4197   28.0128   45.0539 H   0  0  0  0  0  0  0  0  0  0  0  0
   35.0000   27.7157   47.1772 H   0  0  0  0  0  0  0  0  0  0  0  0
   35.1800   25.1954   46.7007 H   0  0  0  0  0  0  0  0  0  0  0  0
   33.6117   24.3775   46.9784 H   0  0  0  0  0  0  0  0  0  0  0  0
   32.7625   25.3018   45.0388 H   0  0  0  0  0  0  0  0  0  0  0  0
   31.6181   27.5094   46.9976 H   0  0  0  0  0  0  0  0  0  0  0  0
   32.5901   31.6173   47.3410 H   0  0  0  0  0  0  0  0  0  0  0  0
   35.2419   28.6941   50.9807 H   0  0  0  0  0  0  0  0  0  0  0  0
   37.5686   28.7126   51.9451 H   0  0  0  0  0  0  0  0  0  0  0  0
   38.4701   32.2269   49.6766 H   0  0  0  0  0  0  0  0  0  0  0  0
   37.0338   26.0657   43.7138 H   0  0  0  0  0  0  0  0  0  0  0  0
   38.3042   24.2479   42.6239 H   0  0  0  0  0  0  0  0  0  0  0  0
   37.2895   22.0423   42.1998 H   0  0  0  0  0  0  0  0  0  0  0  0
   34.9074   21.6196   42.8880 H   0  0  0  0  0  0  0  0  0  0  0  0
   33.6790   23.4432   43.9641 H   0  0  0  0  0  0  0  0  0  0  0  0
  1  6  1  0
  1  2  1  0
  2  3  1  0
  2  7  1  0
  4  3  1  0
  5  1  1  0
  5  4  1  0
  9  8  2  0
  9  7  1  0
  9 11  1  0
 10  9  1  0
 11 12  1  0
 12 13  2  0
 13 14  1  0
 15 14  2  0
 16 15  1  0
 17 12  1  0
 17 16  2  0
 18  5  1  0
 19 18  1  0
 20 19  2  0
 21 20  1  0
 22 21  2  0
 22 23  1  0
 23 24  2  0
 24 19  1  0
  1 25  1  6
  2 26  1  6
  4 27  1  0
  4 28  1  0
  5 29  1  6
  6 30  1  0
 10 31  1  0
 13 32  1  0
 14 33  1  0
 16 34  1  0
 20 35  1  0
 21 36  1  0
 22 37  1  0
 23 38  1  0
 24 39  1  0
M  ISO  8  25  13  26  13  27  13  28  13  29  13  30   3  31   3  32  14
M  ISO  7  33  14  34  14  35  14  36  14  37  14  38  14  39  14
M  END
>  <minimizedAffinity>  (1) 
-4.13380814

>  <minimizedRMSD>  (1) 
1.39270902

$$$$
