
     RDKit          3D

 20 21  0  0  0  0  0  0  0  0999 V2000
   37.2250   30.1050   51.4990 C   0  0  0  0  0  0  0  0  0  0  0  0
   37.9740   30.8170   50.5220 C   0  0  0  0  0  0  0  0  0  0  0  0
   37.6460   30.6150   49.1840 C   0  0  0  0  0  0  0  0  0  0  0  0
   36.6420   29.7610   48.8680 N   0  0  0  0  0  0  0  0  0  0  0  0
   35.9490   29.0970   49.8370 C   0  0  0  0  0  0  0  0  0  0  0  0
   36.2430   29.2730   51.1350 N   0  0  0  0  0  0  0  0  0  0  0  0
   38.3420   31.2880   48.0940 C   0  0  0  0  0  0  0  0  0  0  0  0
   38.8380   32.5490   48.3500 C   0  0  0  0  0  0  0  0  0  0  0  0
   39.5200   33.2780   47.3730 C   0  0  0  0  0  0  0  0  0  0  0  0
   39.6790   32.6870   46.1370 C   0  0  0  0  0  0  0  0  0  0  0  0
   39.1990   31.4250   45.8330 C   0  0  0  0  0  0  0  0  0  0  0  0
   38.5310   30.7580   46.8560 C   0  0  0  0  0  0  0  0  0  0  0  0
   37.4558   30.2400   52.5660 H   0  0  0  0  0  0  0  0  0  0  0  0
   38.7834   31.5027   50.8129 H   0  0  0  0  0  0  0  0  0  0  0  0
   35.1395   28.4090   49.5516 H   0  0  0  0  0  0  0  0  0  0  0  0
   38.6932   32.9911   49.3468 H   0  0  0  0  0  0  0  0  0  0  0  0
   39.9146   34.2835   47.5811 H   0  0  0  0  0  0  0  0  0  0  0  0
   40.2134   33.2459   45.3547 H   0  0  0  0  0  0  0  0  0  0  0  0
   39.3376   30.9745   44.8391 H   0  0  0  0  0  0  0  0  0  0  0  0
   38.1362   29.7516   46.6528 H   0  0  0  0  0  0  0  0  0  0  0  0
  2  1  2  0
  3  2  1  0
  4  3  2  0
  4  5  1  0
  5  6  2  0
  6  1  1  0
  7  8  2  0
  7  3  1  0
  9  8  1  0
 10  9  2  0
 11 10  1  0
 11 12  2  0
 12  7  1  0
  1 13  1  0
  2 14  1  0
  5 15  1  0
  8 16  1  0
  9 17  1  0
 10 18  1  0
 11 19  1  0
 12 20  1  0
M  ISO  8  13  14  14  14  15  14  16  14  17  14  18  14  19  14  20  14
M  END
>  <minimizedAffinity>  (1) 
-4.93119049

>  <minimizedRMSD>  (1) 
0.678361118

$$$$
