
     RDKit          3D

 39 41  0  0  1  0  0  0  0  0999 V2000
   38.5010   31.3380   46.1820 C   0  0  1  0  0  0  0  0  0  0  0  0
   37.0190   31.4470   45.7260 C   0  0  0  0  0  0  0  0  0  0  0  0
   36.7600   30.1200   44.9970 C   0  0  0  0  0  0  0  0  0  0  0  0
   37.5300   30.1680   43.7210 C   0  0  0  0  0  0  0  0  0  0  0  0
   39.0030   30.3330   44.0060 C   0  0  0  0  0  0  0  0  0  0  0  0
   39.2940   31.4950   44.9240 C   0  0  2  0  0  0  0  0  0  0  0  0
   38.4310   32.2440   48.5270 C   0  0  0  0  0  0  0  0  0  0  0  0
   38.8400   33.2020   49.4450 C   0  0  0  0  0  0  0  0  0  0  0  0
   39.6370   34.2840   49.0470 C   0  0  0  0  0  0  0  0  0  0  0  0
   39.9910   34.3440   47.7060 C   0  0  0  0  0  0  0  0  0  0  0  0
   39.5950   33.4080   46.7980 C   0  0  0  0  0  0  0  0  0  0  0  0
   38.7980   32.3330   47.2180 C   0  0  0  0  0  0  0  0  0  0  0  0
   37.1550   29.1210   50.2140 C   0  0  0  0  0  0  0  0  0  0  0  0
   38.0790   30.0760   49.7360 C   0  0  0  0  0  0  0  0  0  0  0  0
   37.5910   31.1910   49.0590 C   0  0  0  0  0  0  0  0  0  0  0  0
   36.2570   31.2710   48.9120 N   0  0  0  0  0  0  0  0  0  0  0  0
   35.3810   30.3600   49.3690 C   0  0  0  0  0  0  0  0  0  0  0  0
   35.8290   29.2930   50.0140 N   0  0  0  0  0  0  0  0  0  0  0  0
   40.7830   31.4000   45.1300 C   0  0  0  0  0  0  0  0  0  0  0  0
   41.0590   30.6550   46.2580 F   0  0  0  0  0  0  0  0  0  0  0  0
   41.4590   32.5740   45.1950 F   0  0  0  0  0  0  0  0  0  0  0  0
   41.2760   30.6800   44.0550 F   0  0  0  0  0  0  0  0  0  0  0  0
   38.7486   30.3801   46.6628 H   0  0  0  0  0  0  0  0  0  0  0  0
   36.3497   31.5551   46.5922 H   0  0  0  0  0  0  0  0  0  0  0  0
   36.8338   32.3247   45.0893 H   0  0  0  0  0  0  0  0  0  0  0  0
   37.1030   29.2764   45.6141 H   0  0  0  0  0  0  0  0  0  0  0  0
   35.6862   29.9808   44.8033 H   0  0  0  0  0  0  0  0  0  0  0  0
   37.1795   31.0179   43.1170 H   0  0  0  0  0  0  0  0  0  0  0  0
   37.3741   29.2273   43.1725 H   0  0  0  0  0  0  0  0  0  0  0  0
   39.3754   29.4112   44.4768 H   0  0  0  0  0  0  0  0  0  0  0  0
   39.5054   30.5334   43.0482 H   0  0  0  0  0  0  0  0  0  0  0  0
   39.0139   32.4846   44.5339 H   0  0  0  0  0  0  0  0  0  0  0  0
   38.5347   33.1106   50.4978 H   0  0  0  0  0  0  0  0  0  0  0  0
   39.9668   35.0502   49.7640 H   0  0  0  0  0  0  0  0  0  0  0  0
   40.6165   35.1810   47.3623 H   0  0  0  0  0  0  0  0  0  0  0  0
   39.8980   33.4949   45.7441 H   0  0  0  0  0  0  0  0  0  0  0  0
   37.5162   28.2322   50.7521 H   0  0  0  0  0  0  0  0  0  0  0  0
   39.1592   29.9423   49.8947 H   0  0  0  0  0  0  0  0  0  0  0  0
   34.3016   30.4990   49.2089 H   0  0  0  0  0  0  0  0  0  0  0  0
  1 12  1  0
  2  1  1  0
  3  2  1  0
  4  5  1  0
  4  3  1  0
  5  6  1  0
  6 19  1  0
  6  1  1  0
  7 15  1  0
  7  8  2  0
  9  8  1  0
 10  9  2  0
 11 12  2  0
 11 10  1  0
 12  7  1  0
 14 13  2  0
 15 14  1  0
 16 15  2  0
 16 17  1  0
 17 18  2  0
 18 13  1  0
 19 21  1  0
 19 20  1  0
 22 19  1  0
  1 23  1  1
  2 24  1  0
  2 25  1  0
  3 26  1  0
  3 27  1  0
  4 28  1  0
  4 29  1  0
  5 30  1  0
  5 31  1  0
  6 32  1  6
  8 33  1  0
  9 34  1  0
 10 35  1  0
 11 36  1  0
 13 37  1  0
 14 38  1  0
 17 39  1  0
M  ISO  8  23  13  24  13  25  13  26  13  27  13  28  13  29  13  30  13
M  ISO  8  31  13  32  13  33  14  34  14  35  14  36  14  37  14  38  14
M  ISO  1  39  14
M  END
>  <minimizedAffinity>  (1) 
-6.32784271

>  <minimizedRMSD>  (1) 
0.885559976

$$$$
