
     RDKit          3D

 52 55  0  0  1  0  0  0  0  0999 V2000
   35.0790   29.7590   46.4480 C   0  0  1  0  0  0  0  0  0  0  0  0
   33.6170   30.1730   46.1420 C   0  0  0  0  0  0  0  0  0  0  0  0
   33.4100   29.7520   44.6840 C   0  0  0  0  0  0  0  0  0  0  0  0
   34.2070   30.6940   43.8660 C   0  0  0  0  0  0  0  0  0  0  0  0
   35.6740   30.5860   44.2110 C   0  0  0  0  0  0  0  0  0  0  0  0
   35.9180   30.7530   45.6940 C   0  0  2  0  0  0  0  0  0  0  0  0
   34.8040   28.8610   48.7790 C   0  0  0  0  0  0  0  0  0  0  0  0
   35.1600   28.8890   50.1210 C   0  0  0  0  0  0  0  0  0  0  0  0
   36.0950   29.8330   50.5900 C   0  0  0  0  0  0  0  0  0  0  0  0
   36.6250   30.7080   49.6660 C   0  0  0  0  0  0  0  0  0  0  0  0
   36.2810   30.6900   48.3400 C   0  0  0  0  0  0  0  0  0  0  0  0
   35.3470   29.7400   47.8900 C   0  0  0  0  0  0  0  0  0  0  0  0
   33.0690   25.7910   47.4250 C   0  0  0  0  0  0  0  0  0  0  0  0
   34.1090   26.6970   47.7070 C   0  0  0  0  0  0  0  0  0  0  0  0
   33.8220   27.8590   48.4230 C   0  0  0  0  0  0  0  0  0  0  0  0
   32.5390   28.0280   48.7980 N   0  0  0  0  0  0  0  0  0  0  0  0
   31.5470   27.1580   48.5270 C   0  0  0  0  0  0  0  0  0  0  0  0
   31.8190   26.0540   47.8470 N   0  0  0  0  0  0  0  0  0  0  0  0
   37.3930   30.6670   45.9580 C   0  0  0  0  0  0  0  0  0  0  0  0
   37.9540   32.0950   45.8960 C   0  0  0  0  0  0  0  0  0  0  0  0
   39.3180   31.9940   46.5920 C   0  0  0  0  0  0  0  0  0  0  0  0
   40.1960   31.0300   45.8700 C   0  0  0  0  0  0  0  0  0  0  0  0
   39.5130   30.4930   44.6370 C   0  0  0  0  0  0  0  0  0  0  0  0
   38.1600   29.8690   44.9800 C   0  0  0  0  0  0  0  0  0  0  0  0
   35.3064   28.7312   46.1289 H   0  0  0  0  0  0  0  0  0  0  0  0
   32.9146   29.6461   46.8046 H   0  0  0  0  0  0  0  0  0  0  0  0
   33.4387   31.2466   46.3020 H   0  0  0  0  0  0  0  0  0  0  0  0
   33.7624   28.7213   44.5308 H   0  0  0  0  0  0  0  0  0  0  0  0
   32.3462   29.7797   44.4055 H   0  0  0  0  0  0  0  0  0  0  0  0
   33.8644   31.7211   44.0602 H   0  0  0  0  0  0  0  0  0  0  0  0
   34.0726   30.4433   42.8034 H   0  0  0  0  0  0  0  0  0  0  0  0
   36.0408   29.5969   43.8994 H   0  0  0  0  0  0  0  0  0  0  0  0
   36.2082   31.3908   43.6847 H   0  0  0  0  0  0  0  0  0  0  0  0
   35.6035   31.7429   46.0562 H   0  0  0  0  0  0  0  0  0  0  0  0
   34.7097   28.1704   50.8216 H   0  0  0  0  0  0  0  0  0  0  0  0
   36.3897   29.8702   51.6491 H   0  0  0  0  0  0  0  0  0  0  0  0
   37.3570   31.4542   50.0087 H   0  0  0  0  0  0  0  0  0  0  0  0
   36.7289   31.4083   47.6375 H   0  0  0  0  0  0  0  0  0  0  0  0
   33.2780   24.8701   46.8609 H   0  0  0  0  0  0  0  0  0  0  0  0
   35.1347   26.4911   47.3670 H   0  0  0  0  0  0  0  0  0  0  0  0
   30.5210   27.3622   48.8670 H   0  0  0  0  0  0  0  0  0  0  0  0
   37.5019   30.1706   46.9335 H   0  0  0  0  0  0  0  0  0  0  0  0
   38.0717   32.4230   44.8527 H   0  0  0  0  0  0  0  0  0  0  0  0
   37.2900   32.8298   46.3748 H   0  0  0  0  0  0  0  0  0  0  0  0
   39.7959   32.9847   46.5997 H   0  0  0  0  0  0  0  0  0  0  0  0
   39.1689   31.6400   47.6227 H   0  0  0  0  0  0  0  0  0  0  0  0
   41.1235   31.5414   45.5731 H   0  0  0  0  0  0  0  0  0  0  0  0
   40.4174   30.1877   46.5420 H   0  0  0  0  0  0  0  0  0  0  0  0
   40.1546   29.7273   44.1765 H   0  0  0  0  0  0  0  0  0  0  0  0
   39.3443   31.3282   43.9414 H   0  0  0  0  0  0  0  0  0  0  0  0
   37.5688   29.7822   44.0565 H   0  0  0  0  0  0  0  0  0  0  0  0
   38.3542   28.8861   45.4342 H   0  0  0  0  0  0  0  0  0  0  0  0
  1 12  1  0
  2  1  1  0
  3  2  1  0
  4  5  1  0
  4  3  1  0
  5  6  1  0
  6 19  1  0
  6  1  1  0
  7  8  2  0
  8  9  1  0
 10  9  2  0
 11 10  1  0
 12 11  2  0
 12  7  1  0
 13 14  2  0
 13 18  1  0
 14 15  1  0
 15  7  1  0
 15 16  2  0
 17 16  1  0
 18 17  2  0
 20 19  1  0
 20 21  1  0
 22 21  1  0
 23 24  1  0
 23 22  1  0
 24 19  1  0
  1 25  1  6
  2 26  1  0
  2 27  1  0
  3 28  1  0
  3 29  1  0
  4 30  1  0
  4 31  1  0
  5 32  1  0
  5 33  1  0
  6 34  1  1
  8 35  1  0
  9 36  1  0
 10 37  1  0
 11 38  1  0
 13 39  1  0
 14 40  1  0
 17 41  1  0
 19 42  1  0
 20 43  1  0
 20 44  1  0
 21 45  1  0
 21 46  1  0
 22 47  1  0
 22 48  1  0
 23 49  1  0
 23 50  1  0
 24 51  1  0
 24 52  1  0
M  ISO  8  25  13  26  13  27  13  28  13  29  13  30  13  31  13  32  13
M  ISO  8  33  13  34  13  35  14  36  14  37  14  38  14  39  14  40  14
M  ISO  8  41  14  42  13  43  13  44  13  45  13  46  13  47  13  48  13
M  ISO  4  49  13  50  13  51  13  52  13
M  END
>  <minimizedAffinity>  (1) 
-6.18536568

>  <minimizedRMSD>  (1) 
4.65369654

$$$$
