
     RDKit          3D

 50 53  0  0  1  0  0  0  0  0999 V2000
   36.8860   30.6070   46.3280 C   0  0  1  0  0  0  0  0  0  0  0  0
   35.3420   30.5720   46.3670 C   0  0  0  0  0  0  0  0  0  0  0  0
   34.9760   29.4150   45.4270 C   0  0  0  0  0  0  0  0  0  0  0  0
   35.2800   29.8580   44.0400 C   0  0  0  0  0  0  0  0  0  0  0  0
   36.7410   30.2210   43.9040 C   0  0  0  0  0  0  0  0  0  0  0  0
   37.2030   31.1700   44.9730 C   0  0  2  0  0  0  0  0  0  0  0  0
   37.1130   31.2550   48.7420 C   0  0  0  0  0  0  0  0  0  0  0  0
   37.7340   32.0140   49.7290 C   0  0  0  0  0  0  0  0  0  0  0  0
   38.7220   32.9470   49.3770 C   0  0  0  0  0  0  0  0  0  0  0  0
   39.0400   33.0710   48.0460 C   0  0  0  0  0  0  0  0  0  0  0  0
   38.4360   32.3310   47.0640 C   0  0  0  0  0  0  0  0  0  0  0  0
   37.4430   31.3940   47.4260 C   0  0  0  0  0  0  0  0  0  0  0  0
   35.2020   28.1820   49.8190 C   0  0  0  0  0  0  0  0  0  0  0  0
   36.2680   28.9640   49.3360 C   0  0  0  0  0  0  0  0  0  0  0  0
   36.0940   30.3420   49.2180 C   0  0  0  0  0  0  0  0  0  0  0  0
   34.8920   30.8290   49.5840 N   0  0  0  0  0  0  0  0  0  0  0  0
   33.8780   30.0760   50.0450 C   0  0  0  0  0  0  0  0  0  0  0  0
   34.0360   28.7670   50.1600 N   0  0  0  0  0  0  0  0  0  0  0  0
   38.5700   31.4740   44.8330 N   0  0  0  0  0  0  0  0  0  0  0  0
   38.8820   32.7360   44.2440 C   0  0  0  0  0  0  0  0  0  0  0  0
   39.3850   32.6850   42.8550 C   0  0  0  0  0  0  0  0  0  0  0  0
   40.2530   31.6110   42.5710 N   0  0  0  0  0  0  0  0  0  0  0  0
   40.5560   30.6930   43.6000 C   0  0  0  0  0  0  0  0  0  0  0  0
   39.4980   30.4430   44.6190 C   0  0  0  0  0  0  0  0  0  0  0  0
   37.3394   29.6147   46.4683 H   0  0  0  0  0  0  0  0  0  0  0  0
   34.9805   30.3768   47.3874 H   0  0  0  0  0  0  0  0  0  0  0  0
   34.8879   31.5264   46.0624 H   0  0  0  0  0  0  0  0  0  0  0  0
   35.5716   28.5245   45.6767 H   0  0  0  0  0  0  0  0  0  0  0  0
   33.9123   29.1534   45.5276 H   0  0  0  0  0  0  0  0  0  0  0  0
   35.0437   29.0427   43.3404 H   0  0  0  0  0  0  0  0  0  0  0  0
   34.6719   30.7455   43.8106 H   0  0  0  0  0  0  0  0  0  0  0  0
   37.3400   29.3006   43.9673 H   0  0  0  0  0  0  0  0  0  0  0  0
   36.8703   30.7236   42.9341 H   0  0  0  0  0  0  0  0  0  0  0  0
   36.6593   32.1199   44.8630 H   0  0  0  0  0  0  0  0  0  0  0  0
   37.4511   31.8831   50.7839 H   0  0  0  0  0  0  0  0  0  0  0  0
   39.2247   33.5583   50.1410 H   0  0  0  0  0  0  0  0  0  0  0  0
   39.8141   33.7968   47.7561 H   0  0  0  0  0  0  0  0  0  0  0  0
   38.7200   32.4645   46.0097 H   0  0  0  0  0  0  0  0  0  0  0  0
   35.3202   27.0929   49.9183 H   0  0  0  0  0  0  0  0  0  0  0  0
   37.2230   28.4953   49.0562 H   0  0  0  0  0  0  0  0  0  0  0  0
   32.9231   30.5449   50.3248 H   0  0  0  0  0  0  0  0  0  0  0  0
   37.9680   33.3480   44.2508 H   0  0  0  0  0  0  0  0  0  0  0  0
   39.7018   33.1549   44.8460 H   0  0  0  0  0  0  0  0  0  0  0  0
   38.5185   32.6097   42.1816 H   0  0  0  0  0  0  0  0  0  0  0  0
   39.9753   33.6018   42.7098 H   0  0  0  0  0  0  0  0  0  0  0  0
   39.8289   31.0741   41.8011 H   0  0  0  0  0  0  0  0  0  0  0  0
   40.7934   29.7295   43.1253 H   0  0  0  0  0  0  0  0  0  0  0  0
   41.3852   31.1533   44.1573 H   0  0  0  0  0  0  0  0  0  0  0  0
   39.9995   30.2423   45.5772 H   0  0  0  0  0  0  0  0  0  0  0  0
   38.9089   29.6029   44.2225 H   0  0  0  0  0  0  0  0  0  0  0  0
  1  2  1  0
  1 12  1  0
  3  2  1  0
  4  3  1  0
  5  4  1  0
  5  6  1  0
  6  1  1  0
  7 15  1  0
  7  8  2  0
  9  8  1  0
 10  9  2  0
 11 12  2  0
 11 10  1  0
 12  7  1  0
 13 18  2  0
 14 13  1  0
 15 14  2  0
 15 16  1  0
 16 17  2  0
 17 18  1  0
 19 24  1  0
 19  6  1  0
 20 19  1  0
 21 20  1  0
 22 21  1  0
 22 23  1  0
 23 24  1  0
  1 25  1  6
  2 26  1  0
  2 27  1  0
  3 28  1  0
  3 29  1  0
  4 30  1  0
  4 31  1  0
  5 32  1  0
  5 33  1  0
  6 34  1  6
  8 35  1  0
  9 36  1  0
 10 37  1  0
 11 38  1  0
 13 39  1  0
 14 40  1  0
 17 41  1  0
 20 42  1  0
 20 43  1  0
 21 44  1  0
 21 45  1  0
 22 46  1  0
 23 47  1  0
 23 48  1  0
 24 49  1  0
 24 50  1  0
M  ISO  8  25  13  26  13  27  13  28  13  29  13  30  13  31  13  32  13
M  ISO  8  33  13  34  13  35  14  36  14  37  14  38  14  39  14  40  14
M  ISO  8  41  14  42  13  43  13  44  13  45  13  46   5  47  13  48  13
M  ISO  2  49  13  50  13
M  END
>  <minimizedAffinity>  (1) 
-5.97572565

>  <minimizedRMSD>  (1) 
2.61363816

$$$$
