
     RDKit          3D

 37 39  0  0  1  0  0  0  0  0999 V2000
   38.4130   32.1850   48.4910 C   0  0  0  0  0  0  0  0  0  0  0  0
   38.8020   33.1760   49.3830 C   0  0  0  0  0  0  0  0  0  0  0  0
   39.6150   34.2400   48.9530 C   0  0  0  0  0  0  0  0  0  0  0  0
   40.0000   34.2520   47.6310 C   0  0  0  0  0  0  0  0  0  0  0  0
   39.6250   33.2810   46.7380 C   0  0  0  0  0  0  0  0  0  0  0  0
   38.8090   32.2200   47.1850 C   0  0  0  0  0  0  0  0  0  0  0  0
   38.5080   31.1940   46.1830 C   0  0  1  0  0  0  0  0  0  0  0  0
   37.1820   31.5040   45.4380 C   0  0  0  0  0  0  0  0  0  0  0  0
   36.8270   30.1700   44.7620 C   0  0  0  0  0  0  0  0  0  0  0  0
   37.8310   29.9570   43.6660 C   0  0  0  0  0  0  0  0  0  0  0  0
   39.2240   29.9180   44.2120 C   0  0  0  0  0  0  0  0  0  0  0  0
   39.5210   31.1170   45.0770 C   0  0  2  0  0  0  0  0  0  0  0  0
   41.1860   31.0800   45.7230 S   0  0  0  0  0  0  0  0  0  0  0  0
   37.0890   29.1820   50.3530 C   0  0  0  0  0  0  0  0  0  0  0  0
   38.0190   30.1260   49.8700 C   0  0  0  0  0  0  0  0  0  0  0  0
   37.5600   31.1510   49.0450 C   0  0  0  0  0  0  0  0  0  0  0  0
   36.2440   31.1650   48.7630 N   0  0  0  0  0  0  0  0  0  0  0  0
   35.3630   30.2590   49.2290 C   0  0  0  0  0  0  0  0  0  0  0  0
   35.7850   29.2790   50.0140 N   0  0  0  0  0  0  0  0  0  0  0  0
   38.4724   33.1284   50.4314 H   0  0  0  0  0  0  0  0  0  0  0  0
   39.9314   35.0328   49.6467 H   0  0  0  0  0  0  0  0  0  0  0  0
   40.6360   35.0762   47.2757 H   0  0  0  0  0  0  0  0  0  0  0  0
   39.9551   33.3285   45.6898 H   0  0  0  0  0  0  0  0  0  0  0  0
   38.4798   30.2626   46.7676 H   0  0  0  0  0  0  0  0  0  0  0  0
   36.3959   31.8074   46.1451 H   0  0  0  0  0  0  0  0  0  0  0  0
   37.2777   32.3338   44.7222 H   0  0  0  0  0  0  0  0  0  0  0  0
   36.8836   29.3490   45.4919 H   0  0  0  0  0  0  0  0  0  0  0  0
   35.8033   30.1919   44.3601 H   0  0  0  0  0  0  0  0  0  0  0  0
   37.7520   30.7807   42.9413 H   0  0  0  0  0  0  0  0  0  0  0  0
   37.6189   28.9932   43.1801 H   0  0  0  0  0  0  0  0  0  0  0  0
   39.3447   29.0057   44.8146 H   0  0  0  0  0  0  0  0  0  0  0  0
   39.9239   29.9272   43.3634 H   0  0  0  0  0  0  0  0  0  0  0  0
   39.4493   32.0221   44.4561 H   0  0  0  0  0  0  0  0  0  0  0  0
   41.1447   31.0809   47.0924 H   0  0  0  0  0  0  0  0  0  0  0  0
   37.4264   28.3647   51.0074 H   0  0  0  0  0  0  0  0  0  0  0  0
   39.0833   30.0547   50.1386 H   0  0  0  0  0  0  0  0  0  0  0  0
   34.2991   30.3325   48.9592 H   0  0  0  0  0  0  0  0  0  0  0  0
  1 16  1  0
  1  2  2  0
  3  2  1  0
  4  3  2  0
  5  6  2  0
  5  4  1  0
  6  1  1  0
  7  6  1  0
  8  7  1  0
  9  8  1  0
 10 11  1  0
 10  9  1  0
 11 12  1  0
 12 13  1  0
 12  7  1  0
 15 14  2  0
 16 15  1  0
 17 16  2  0
 17 18  1  0
 18 19  2  0
 19 14  1  0
  2 20  1  0
  3 21  1  0
  4 22  1  0
  5 23  1  0
  7 24  1  1
  8 25  1  0
  8 26  1  0
  9 27  1  0
  9 28  1  0
 10 29  1  0
 10 30  1  0
 11 31  1  0
 11 32  1  0
 12 33  1  6
 13 34  1  0
 14 35  1  0
 15 36  1  0
 18 37  1  0
M  ISO  8  20  14  21  14  22  14  23  14  24  13  25  13  26  13  27  13
M  ISO  8  28  13  29  13  30  13  31  13  32  13  33  13  34  11  35  14
M  ISO  2  36  14  37  14
M  END
>  <minimizedAffinity>  (1) 
-5.71359777

>  <minimizedRMSD>  (1) 
0.382948607

$$$$
