
     RDKit          3D

 26 28  0  0  0  0  0  0  0  0999 V2000
   34.8510   29.4270   48.5420 C   0  0  0  0  0  0  0  0  0  0  0  0
   34.0290   28.7680   49.3820 N   0  0  0  0  0  0  0  0  0  0  0  0
   32.9560   28.1010   48.9540 C   0  0  0  0  0  0  0  0  0  0  0  0
   32.5890   28.0160   47.6670 N   0  0  0  0  0  0  0  0  0  0  0  0
   33.3630   28.6500   46.7720 C   0  0  0  0  0  0  0  0  0  0  0  0
   32.9920   28.5680   45.4470 C   0  0  0  0  0  0  0  0  0  0  0  0
   33.7460   29.1960   44.4790 C   0  0  0  0  0  0  0  0  0  0  0  0
   34.8590   29.8910   44.9110 C   0  0  0  0  0  0  0  0  0  0  0  0
   35.1970   29.9500   46.2430 C   0  0  0  0  0  0  0  0  0  0  0  0
   34.4640   29.3330   47.2260 C   0  0  0  0  0  0  0  0  0  0  0  0
   37.5660   30.2190   50.7740 C   0  0  0  0  0  0  0  0  0  0  0  0
   38.2810   31.2910   50.2140 C   0  0  0  0  0  0  0  0  0  0  0  0
   37.7950   31.7570   49.0060 C   0  0  0  0  0  0  0  0  0  0  0  0
   36.7160   31.1820   48.4650 N   0  0  0  0  0  0  0  0  0  0  0  0
   36.0370   30.1680   48.9920 C   0  0  0  0  0  0  0  0  0  0  0  0
   36.5120   29.7320   50.1460 N   0  0  0  0  0  0  0  0  0  0  0  0
   37.9550   29.6240   52.0390 N   0  0  0  0  0  0  0  0  0  0  0  0
   32.3339   27.5891   49.7030 H   0  0  0  0  0  0  0  0  0  0  0  0
   32.0936   28.0010   45.1619 H   0  0  0  0  0  0  0  0  0  0  0  0
   33.4746   29.1462   43.4142 H   0  0  0  0  0  0  0  0  0  0  0  0
   35.4892   30.4089   44.1730 H   0  0  0  0  0  0  0  0  0  0  0  0
   36.0941   30.5165   46.5333 H   0  0  0  0  0  0  0  0  0  0  0  0
   39.1646   31.7285   50.7017 H   0  0  0  0  0  0  0  0  0  0  0  0
   38.2923   32.5942   48.4943 H   0  0  0  0  0  0  0  0  0  0  0  0
   37.4130   28.8388   52.4271 H   0  0  0  0  0  0  0  0  0  0  0  0
   38.7731   29.9869   52.5489 H   0  0  0  0  0  0  0  0  0  0  0  0
  1 15  1  0
  1  2  2  0
  3  2  1  0
  4  3  2  0
  5 10  2  0
  5  4  1  0
  6  5  1  0
  7  8  1  0
  7  6  2  0
  8  9  2  0
  9 10  1  0
 10  1  1  0
 11 17  1  0
 12 11  2  0
 13 12  1  0
 14 15  1  0
 14 13  2  0
 15 16  2  0
 16 11  1  0
  3 18  1  0
  6 19  1  0
  7 20  1  0
  8 21  1  0
  9 22  1  0
 12 23  1  0
 13 24  1  0
 17 25  1  0
 17 26  1  0
M  ISO  7  18  14  19  14  20  14  21  14  22  14  23  14  24  14
M  END
>  <minimizedAffinity>  (1) 
-5.14825106

>  <minimizedRMSD>  (1) 
1.2961055

$$$$
