
     RDKit          3D

 33 36  0  0  0  0  0  0  0  0999 V2000
   37.5180   30.1250   50.9530 C   0  0  0  0  0  0  0  0  0  0  0  0
   38.3300   31.1230   50.4120 C   0  0  0  0  0  0  0  0  0  0  0  0
   37.9530   31.5750   49.1470 C   0  0  0  0  0  0  0  0  0  0  0  0
   36.8890   31.0400   48.5740 N   0  0  0  0  0  0  0  0  0  0  0  0
   36.1080   30.0990   49.0640 C   0  0  0  0  0  0  0  0  0  0  0  0
   36.4900   29.6890   50.2680 N   0  0  0  0  0  0  0  0  0  0  0  0
   34.9150   29.4200   48.5670 C   0  0  0  0  0  0  0  0  0  0  0  0
   34.0540   28.7490   49.3740 N   0  0  0  0  0  0  0  0  0  0  0  0
   32.9660   28.1390   48.9040 C   0  0  0  0  0  0  0  0  0  0  0  0
   32.6120   28.1220   47.6090 N   0  0  0  0  0  0  0  0  0  0  0  0
   33.4250   28.7680   46.7550 C   0  0  0  0  0  0  0  0  0  0  0  0
   33.0710   28.7560   45.4300 C   0  0  0  0  0  0  0  0  0  0  0  0
   33.8610   29.4010   44.5000 C   0  0  0  0  0  0  0  0  0  0  0  0
   35.0000   30.0420   44.9740 C   0  0  0  0  0  0  0  0  0  0  0  0
   35.3010   30.0180   46.3160 C   0  0  0  0  0  0  0  0  0  0  0  0
   34.5390   29.3900   47.2550 C   0  0  0  0  0  0  0  0  0  0  0  0
   38.7230   32.6140   48.4780 C   0  0  0  0  0  0  0  0  0  0  0  0
   39.1780   33.7750   49.0640 C   0  0  0  0  0  0  0  0  0  0  0  0
   39.8660   34.5010   48.1030 C   0  0  0  0  0  0  0  0  0  0  0  0
   39.8120   33.7720   46.9690 N   0  0  0  0  0  0  0  0  0  0  0  0
   39.1300   32.6450   47.1950 N   0  0  0  0  0  0  0  0  0  0  0  0
   37.7970   29.5700   52.2630 N   0  0  0  0  0  0  0  0  0  0  0  0
   39.2046   31.5245   50.9448 H   0  0  0  0  0  0  0  0  0  0  0  0
   32.3172   27.6166   49.6225 H   0  0  0  0  0  0  0  0  0  0  0  0
   32.1583   28.2328   45.1088 H   0  0  0  0  0  0  0  0  0  0  0  0
   33.6010   29.4076   43.4312 H   0  0  0  0  0  0  0  0  0  0  0  0
   35.6630   30.5704   44.2732 H   0  0  0  0  0  0  0  0  0  0  0  0
   36.2112   30.5368   46.6512 H   0  0  0  0  0  0  0  0  0  0  0  0
   39.0227   34.0740   50.1111 H   0  0  0  0  0  0  0  0  0  0  0  0
   40.3573   35.4759   48.2383 H   0  0  0  0  0  0  0  0  0  0  0  0
   40.2316   34.0423   46.0680 H   0  0  0  0  0  0  0  0  0  0  0  0
   37.1896   28.8339   52.6504 H   0  0  0  0  0  0  0  0  0  0  0  0
   38.6026   29.9119   52.8062 H   0  0  0  0  0  0  0  0  0  0  0  0
  1 22  1  0
  2  1  2  0
  3  2  1  0
  4  5  1  0
  4  3  2  0
  5  6  2  0
  6  1  1  0
  7  5  1  0
  7  8  2  0
  9  8  1  0
 10  9  2  0
 11 16  2  0
 11 10  1  0
 12 11  1  0
 13 14  1  0
 13 12  2  0
 14 15  2  0
 15 16  1  0
 16  7  1  0
 17 18  1  0
 17  3  1  0
 19 18  2  0
 20 21  1  0
 20 19  1  0
 21 17  2  0
  2 23  1  0
  9 24  1  0
 12 25  1  0
 13 26  1  0
 14 27  1  0
 15 28  1  0
 18 29  1  0
 19 30  1  0
 20 31  1  0
 22 32  1  0
 22 33  1  0
M  ISO  8  23  14  24  14  25  14  26  14  27  14  28  14  29  14  30  14
M  ISO  1  31   9
M  END
>  <minimizedAffinity>  (1) 
-6.73773384

>  <minimizedRMSD>  (1) 
0.301740855

$$$$
