
     RDKit          3D

 35 38  0  0  0  0  0  0  0  0999 V2000
   37.3560   30.1660   50.3930 C   0  0  0  0  0  0  0  0  0  0  0  0
   38.2960   30.7880   49.5660 C   0  0  0  0  0  0  0  0  0  0  0  0
   37.9610   30.8570   48.2250 C   0  0  0  0  0  0  0  0  0  0  0  0
   36.8040   30.3440   47.8240 N   0  0  0  0  0  0  0  0  0  0  0  0
   35.9030   29.7540   48.5810 C   0  0  0  0  0  0  0  0  0  0  0  0
   36.2520   29.7030   49.8620 N   0  0  0  0  0  0  0  0  0  0  0  0
   34.6000   29.1520   48.3120 C   0  0  0  0  0  0  0  0  0  0  0  0
   33.8910   28.4780   49.2410 N   0  0  0  0  0  0  0  0  0  0  0  0
   32.6970   27.9430   48.9780 C   0  0  0  0  0  0  0  0  0  0  0  0
   32.0850   28.0160   47.7840 N   0  0  0  0  0  0  0  0  0  0  0  0
   32.7350   28.6730   46.8140 C   0  0  0  0  0  0  0  0  0  0  0  0
   32.1240   28.7570   45.5910 C   0  0  0  0  0  0  0  0  0  0  0  0
   32.7330   29.4170   44.5510 C   0  0  0  0  0  0  0  0  0  0  0  0
   33.9760   29.9790   44.8080 C   0  0  0  0  0  0  0  0  0  0  0  0
   34.5480   29.8680   46.0480 C   0  0  0  0  0  0  0  0  0  0  0  0
   33.9650   29.2200   47.0980 C   0  0  0  0  0  0  0  0  0  0  0  0
   38.8440   31.4740   47.2610 C   0  0  0  0  0  0  0  0  0  0  0  0
   39.2380   32.7930   47.2890 C   0  0  0  0  0  0  0  0  0  0  0  0
   40.0730   33.3510   46.3650 C   0  0  0  0  0  0  0  0  0  0  0  0
   40.5840   32.6200   45.3300 C   0  0  0  0  0  0  0  0  0  0  0  0
   40.1780   31.2970   45.3190 C   0  0  0  0  0  0  0  0  0  0  0  0
   39.3560   30.7600   46.2320 N   0  0  0  0  0  0  0  0  0  0  0  0
   37.5800   30.0310   51.8130 N   0  0  0  0  0  0  0  0  0  0  0  0
   39.2403   31.1960   49.9557 H   0  0  0  0  0  0  0  0  0  0  0  0
   32.1815   27.4087   49.7897 H   0  0  0  0  0  0  0  0  0  0  0  0
   31.1383   28.2926   45.4402 H   0  0  0  0  0  0  0  0  0  0  0  0
   32.2582   29.4962   43.5619 H   0  0  0  0  0  0  0  0  0  0  0  0
   34.5063   30.5181   44.0092 H   0  0  0  0  0  0  0  0  0  0  0  0
   35.5346   30.3280   46.2064 H   0  0  0  0  0  0  0  0  0  0  0  0
   38.8591   33.4318   48.1004 H   0  0  0  0  0  0  0  0  0  0  0  0
   40.3409   34.4140   46.4556 H   0  0  0  0  0  0  0  0  0  0  0  0
   41.2585   33.0455   44.5724 H   0  0  0  0  0  0  0  0  0  0  0  0
   40.5518   30.6476   44.5136 H   0  0  0  0  0  0  0  0  0  0  0  0
   36.8742   29.5692   52.4041 H   0  0  0  0  0  0  0  0  0  0  0  0
   38.4456   30.3965   52.2349 H   0  0  0  0  0  0  0  0  0  0  0  0
  1 23  1  0
  2  1  2  0
  3  2  1  0
  4  3  2  0
  4  5  1  0
  5  6  2  0
  6  1  1  0
  7  5  1  0
  7  8  2  0
  9  8  1  0
 10  9  2  0
 11 16  2  0
 11 10  1  0
 12 11  1  0
 13 14  1  0
 13 12  2  0
 14 15  2  0
 15 16  1  0
 16  7  1  0
 17 18  2  0
 17  3  1  0
 19 18  1  0
 20 19  2  0
 21 20  1  0
 21 22  2  0
 22 17  1  0
  2 24  1  0
  9 25  1  0
 12 26  1  0
 13 27  1  0
 14 28  1  0
 15 29  1  0
 18 30  1  0
 19 31  1  0
 20 32  1  0
 21 33  1  0
 23 34  1  0
 23 35  1  0
M  ISO  8  24  14  25  14  26  14  27  14  28  14  29  14  30  14  31  14
M  ISO  2  32  14  33  14
M  END
>  <minimizedAffinity>  (1) 
-6.67763615

>  <minimizedRMSD>  (1) 
1.50779104

$$$$
