
     RDKit          3D

 32 34  0  0  0  0  0  0  0  0999 V2000
   34.9090   29.4160   48.5180 C   0  0  0  0  0  0  0  0  0  0  0  0
   34.0840   28.7510   49.3670 N   0  0  0  0  0  0  0  0  0  0  0  0
   32.9900   28.1100   48.9310 C   0  0  0  0  0  0  0  0  0  0  0  0
   32.6040   28.0600   47.6440 N   0  0  0  0  0  0  0  0  0  0  0  0
   33.3920   28.7070   46.7550 C   0  0  0  0  0  0  0  0  0  0  0  0
   33.0190   28.6680   45.4290 C   0  0  0  0  0  0  0  0  0  0  0  0
   33.7690   29.2970   44.4750 C   0  0  0  0  0  0  0  0  0  0  0  0
   34.8900   29.9540   44.9120 C   0  0  0  0  0  0  0  0  0  0  0  0
   35.2320   29.9720   46.2470 C   0  0  0  0  0  0  0  0  0  0  0  0
   34.5000   29.3520   47.2160 C   0  0  0  0  0  0  0  0  0  0  0  0
   37.5850   30.2010   50.7930 C   0  0  0  0  0  0  0  0  0  0  0  0
   38.3180   31.2550   50.2490 C   0  0  0  0  0  0  0  0  0  0  0  0
   37.8560   31.7000   49.0370 C   0  0  0  0  0  0  0  0  0  0  0  0
   36.7930   31.1310   48.4790 N   0  0  0  0  0  0  0  0  0  0  0  0
   36.0910   30.1350   48.9810 C   0  0  0  0  0  0  0  0  0  0  0  0
   36.5490   29.7180   50.1490 N   0  0  0  0  0  0  0  0  0  0  0  0
   37.9390   29.6120   52.0830 N   0  0  0  0  0  0  0  0  0  0  0  0
   38.5460   32.8200   48.3470 C   0  0  0  0  0  0  0  0  0  0  0  0
   39.1260   33.8150   49.3060 C   0  0  0  0  0  0  0  0  0  0  0  0
   32.3676   27.5911   49.6749 H   0  0  0  0  0  0  0  0  0  0  0  0
   32.1085   28.1252   45.1353 H   0  0  0  0  0  0  0  0  0  0  0  0
   33.4877   29.2771   43.4118 H   0  0  0  0  0  0  0  0  0  0  0  0
   35.5281   30.4763   44.1840 H   0  0  0  0  0  0  0  0  0  0  0  0
   36.1414   30.5139   46.5459 H   0  0  0  0  0  0  0  0  0  0  0  0
   39.1938   31.6930   50.7502 H   0  0  0  0  0  0  0  0  0  0  0  0
   37.3820   28.8339   52.4641 H   0  0  0  0  0  0  0  0  0  0  0  0
   38.7455   29.9750   52.6110 H   0  0  0  0  0  0  0  0  0  0  0  0
   39.3593   32.4077   47.7317 H   0  0  0  0  0  0  0  0  0  0  0  0
   37.7995   33.3443   47.7323 H   0  0  0  0  0  0  0  0  0  0  0  0
   38.9337   33.4851   50.3376 H   0  0  0  0  0  0  0  0  0  0  0  0
   40.2109   33.8928   49.1421 H   0  0  0  0  0  0  0  0  0  0  0  0
   38.6591   34.7974   49.1421 H   0  0  0  0  0  0  0  0  0  0  0  0
  1 15  1  0
  1  2  2  0
  3  2  1  0
  4  3  2  0
  5 10  2  0
  5  4  1  0
  6  5  1  0
  7  8  1  0
  7  6  2  0
  8  9  2  0
  9 10  1  0
 10  1  1  0
 11 17  1  0
 12 11  2  0
 13 12  1  0
 14 15  1  0
 14 13  2  0
 15 16  2  0
 16 11  1  0
 18 13  1  0
 18 19  1  0
  3 20  1  0
  6 21  1  0
  7 22  1  0
  8 23  1  0
  9 24  1  0
 12 25  1  0
 17 26  1  0
 17 27  1  0
 18 28  1  0
 18 29  1  0
 19 30  1  0
 19 31  1  0
 19 32  1  0
M  ISO  8  20  14  21  14  22  14  23  14  24  14  25  14  28   8  29   8
M  ISO  3  30   8  31   8  32   8
M  END
>  <minimizedAffinity>  (1) 
-6.04474068

>  <minimizedRMSD>  (1) 
0.19393602

$$$$
