
     RDKit          3D

 28 30  0  0  0  0  0  0  0  0999 V2000
   34.8870   29.4650   48.5150 C   0  0  0  0  0  0  0  0  0  0  0  0
   34.0630   28.7950   49.3600 N   0  0  0  0  0  0  0  0  0  0  0  0
   32.9940   28.1210   48.9270 C   0  0  0  0  0  0  0  0  0  0  0  0
   32.6310   28.0380   47.6390 N   0  0  0  0  0  0  0  0  0  0  0  0
   33.4020   28.6780   46.7420 C   0  0  0  0  0  0  0  0  0  0  0  0
   33.0470   28.6060   45.4180 C   0  0  0  0  0  0  0  0  0  0  0  0
   33.8040   29.2470   44.4550 C   0  0  0  0  0  0  0  0  0  0  0  0
   34.9100   29.9440   44.9010 C   0  0  0  0  0  0  0  0  0  0  0  0
   35.2250   29.9860   46.2340 C   0  0  0  0  0  0  0  0  0  0  0  0
   34.5010   29.3680   47.2100 C   0  0  0  0  0  0  0  0  0  0  0  0
   37.5720   30.2670   50.7740 C   0  0  0  0  0  0  0  0  0  0  0  0
   38.2520   31.3730   50.2310 C   0  0  0  0  0  0  0  0  0  0  0  0
   37.7580   31.8450   49.0420 C   0  0  0  0  0  0  0  0  0  0  0  0
   36.7030   31.2450   48.4980 N   0  0  0  0  0  0  0  0  0  0  0  0
   36.0460   30.2130   48.9790 C   0  0  0  0  0  0  0  0  0  0  0  0
   36.5420   29.7730   50.1310 N   0  0  0  0  0  0  0  0  0  0  0  0
   38.3520   32.9380   48.4100 N   0  0  0  0  0  0  0  0  0  0  0  0
   37.9800   29.6650   52.0290 N   0  0  0  0  0  0  0  0  0  0  0  0
   32.3736   27.6024   49.6728 H   0  0  0  0  0  0  0  0  0  0  0  0
   32.1549   28.0349   45.1214 H   0  0  0  0  0  0  0  0  0  0  0  0
   33.5391   29.2042   43.3882 H   0  0  0  0  0  0  0  0  0  0  0  0
   35.5466   30.4726   44.1762 H   0  0  0  0  0  0  0  0  0  0  0  0
   36.1177   30.5537   46.5353 H   0  0  0  0  0  0  0  0  0  0  0  0
   39.1217   31.8285   50.7272 H   0  0  0  0  0  0  0  0  0  0  0  0
   37.9734   33.2849   47.5171 H   0  0  0  0  0  0  0  0  0  0  0  0
   39.1691   33.3979   48.8363 H   0  0  0  0  0  0  0  0  0  0  0  0
   37.4644   28.8559   52.4038 H   0  0  0  0  0  0  0  0  0  0  0  0
   38.7854   30.0466   52.5454 H   0  0  0  0  0  0  0  0  0  0  0  0
  1 15  1  0
  1  2  2  0
  3  2  1  0
  4  3  2  0
  5 10  2  0
  5  4  1  0
  6  5  1  0
  7  8  1  0
  7  6  2  0
  8  9  2  0
  9 10  1  0
 10  1  1  0
 11 18  1  0
 12 11  2  0
 13 12  1  0
 14 15  1  0
 14 13  2  0
 15 16  2  0
 16 11  1  0
 17 13  1  0
  3 19  1  0
  6 20  1  0
  7 21  1  0
  8 22  1  0
  9 23  1  0
 12 24  1  0
 17 25  1  0
 17 26  1  0
 18 27  1  0
 18 28  1  0
M  ISO  6  19  14  20  14  21  14  22  14  23  14  24  14
M  END
>  <minimizedAffinity>  (1) 
-5.62629938

>  <minimizedRMSD>  (1) 
0.066726163

$$$$
