
     RDKit          3D

 28 29  0  0  0  0  0  0  0  0999 V2000
   37.4150   30.6980   46.5000 C   0  0  0  0  0  0  0  0  0  0  0  0
   38.6360   30.8160   45.6940 C   0  0  0  0  0  0  0  0  0  0  0  0
   39.8340   31.3810   46.1160 C   0  0  0  0  0  0  0  0  0  0  0  0
   40.9190   31.4430   45.2580 C   0  0  0  0  0  0  0  0  0  0  0  0
   40.7470   30.9300   44.0000 N   0  0  0  0  0  0  0  0  0  0  0  0
   39.5810   30.3820   43.5990 C   0  0  0  0  0  0  0  0  0  0  0  0
   38.5600   30.3380   44.4500 N   0  0  0  0  0  0  0  0  0  0  0  0
   37.5000   31.4150   47.7990 C   0  0  0  0  0  0  0  0  0  0  0  0
   36.7970   30.9180   48.8820 N   0  0  0  0  0  0  0  0  0  0  0  0
   36.5030   29.5590   49.0290 C   0  0  0  0  0  0  0  0  0  0  0  0
   36.9000   29.1970   50.4640 C   0  0  0  0  0  0  0  0  0  0  0  0
   37.4790   30.4710   51.0200 C   0  0  0  0  0  0  0  0  0  0  0  0
   36.8820   31.5490   50.1470 C   0  0  0  0  0  0  0  0  0  0  0  0
   37.2298   29.6324   46.7002 H   0  0  0  0  0  0  0  0  0  0  0  0
   36.5979   31.1583   45.9252 H   0  0  0  0  0  0  0  0  0  0  0  0
   39.9205   31.7810   47.1370 H   0  0  0  0  0  0  0  0  0  0  0  0
   41.8761   31.8845   45.5727 H   0  0  0  0  0  0  0  0  0  0  0  0
   39.4763   29.9770   42.5816 H   0  0  0  0  0  0  0  0  0  0  0  0
   38.5616   31.4390   48.0861 H   0  0  0  0  0  0  0  0  0  0  0  0
   37.0261   32.3870   47.5977 H   0  0  0  0  0  0  0  0  0  0  0  0
   35.4289   29.3807   48.8725 H   0  0  0  0  0  0  0  0  0  0  0  0
   37.0445   28.9464   48.2931 H   0  0  0  0  0  0  0  0  0  0  0  0
   36.0202   28.8824   51.0445 H   0  0  0  0  0  0  0  0  0  0  0  0
   37.6104   28.3582   50.5056 H   0  0  0  0  0  0  0  0  0  0  0  0
   37.1842   30.6096   52.0707 H   0  0  0  0  0  0  0  0  0  0  0  0
   38.5789   30.4775   51.0118 H   0  0  0  0  0  0  0  0  0  0  0  0
   37.5359   32.4326   50.1057 H   0  0  0  0  0  0  0  0  0  0  0  0
   35.9137   31.9199   50.5143 H   0  0  0  0  0  0  0  0  0  0  0  0
  1  8  1  0
  2  3  2  0
  2  1  1  0
  4  3  1  0
  5  4  2  0
  6  5  1  0
  6  7  2  0
  7  2  1  0
  8  9  1  0
  9 10  1  0
  9 13  1  0
 10 11  1  0
 11 12  1  0
 13 12  1  0
  1 14  1  0
  1 15  1  0
  3 16  1  0
  4 17  1  0
  6 18  1  0
  8 19  1  0
  8 20  1  0
 10 21  1  0
 10 22  1  0
 11 23  1  0
 11 24  1  0
 12 25  1  0
 12 26  1  0
 13 27  1  0
 13 28  1  0
M  ISO  8  14   8  15   8  16  14  17  14  18  14  19   8  20   8  21  13
M  ISO  7  22  13  23  13  24  13  25  13  26  13  27  13  28  13
M  END
>  <minimizedAffinity>  (1) 
-4.31317043

>  <minimizedRMSD>  (1) 
3.87839913

$$$$
