
     RDKit          3D

 37 39  0  0  0  0  0  0  0  0999 V2000
   36.0110   30.2770   45.1940 C   0  0  0  0  0  0  0  0  0  0  0  0
   34.7050   29.8500   45.3470 C   0  0  0  0  0  0  0  0  0  0  0  0
   34.3980   29.8510   46.6780 C   0  0  0  0  0  0  0  0  0  0  0  0
   35.4980   30.2690   47.3100 N   0  0  0  0  0  0  0  0  0  0  0  0
   36.4360   30.5170   46.4370 N   0  0  0  0  0  0  0  0  0  0  0  0
   35.8700   30.5030   48.7140 C   0  0  0  0  0  0  0  0  0  0  0  0
   36.0120   29.1980   49.4230 C   0  0  0  0  0  0  0  0  0  0  0  0
   36.9950   29.1840   50.5510 C   0  0  0  0  0  0  0  0  0  0  0  0
   38.1670   29.8670   50.1700 O   0  0  0  0  0  0  0  0  0  0  0  0
   37.7660   31.2230   50.1160 C   0  0  0  0  0  0  0  0  0  0  0  0
   37.0450   31.4230   48.8250 C   0  0  0  0  0  0  0  0  0  0  0  0
   36.6420   30.3760   43.8640 C   0  0  0  0  0  0  0  0  0  0  0  0
   37.2230   29.0950   43.3990 C   0  0  0  0  0  0  0  0  0  0  0  0
   38.5980   29.0850   42.9650 C   0  0  0  0  0  0  0  0  0  0  0  0
   39.4150   30.1660   43.1510 C   0  0  0  0  0  0  0  0  0  0  0  0
   40.7640   30.1280   42.7290 C   0  0  0  0  0  0  0  0  0  0  0  0
   41.1640   28.9420   42.1330 N   0  0  0  0  0  0  0  0  0  0  0  0
   40.3120   27.8910   41.9680 C   0  0  0  0  0  0  0  0  0  0  0  0
   39.0340   27.9770   42.3880 N   0  0  0  0  0  0  0  0  0  0  0  0
   34.0260   29.5580   44.5323 H   0  0  0  0  0  0  0  0  0  0  0  0
   33.4396   29.5656   47.1363 H   0  0  0  0  0  0  0  0  0  0  0  0
   35.0639   31.0412   49.2342 H   0  0  0  0  0  0  0  0  0  0  0  0
   35.0269   28.9228   49.8279 H   0  0  0  0  0  0  0  0  0  0  0  0
   36.3972   28.4879   48.6765 H   0  0  0  0  0  0  0  0  0  0  0  0
   36.5522   29.6792   51.4277 H   0  0  0  0  0  0  0  0  0  0  0  0
   37.2461   28.1428   50.8016 H   0  0  0  0  0  0  0  0  0  0  0  0
   37.0978   31.4515   50.9594 H   0  0  0  0  0  0  0  0  0  0  0  0
   38.6387   31.8894   50.1812 H   0  0  0  0  0  0  0  0  0  0  0  0
   37.7366   31.2239   47.9931 H   0  0  0  0  0  0  0  0  0  0  0  0
   36.6806   32.4602   48.7863 H   0  0  0  0  0  0  0  0  0  0  0  0
   35.8807   30.6988   43.1386 H   0  0  0  0  0  0  0  0  0  0  0  0
   37.4666   31.0995   43.9455 H   0  0  0  0  0  0  0  0  0  0  0  0
   37.1385   28.3787   44.2295 H   0  0  0  0  0  0  0  0  0  0  0  0
   36.6505   28.8510   42.4919 H   0  0  0  0  0  0  0  0  0  0  0  0
   39.0194   31.0723   43.6328 H   0  0  0  0  0  0  0  0  0  0  0  0
   41.4476   30.9792   42.8640 H   0  0  0  0  0  0  0  0  0  0  0  0
   40.6693   26.9673   41.4894 H   0  0  0  0  0  0  0  0  0  0  0  0
  1  2  1  0
  1  5  2  0
  2  3  2  0
  3  4  1  0
  4  6  1  0
  5  4  1  0
  6 11  1  0
  6  7  1  0
  7  8  1  0
  9  8  1  0
 10  9  1  0
 11 10  1  0
 12  1  1  0
 13 12  1  0
 14 15  2  0
 14 13  1  0
 16 15  1  0
 17 16  2  0
 18 17  1  0
 18 19  2  0
 19 14  1  0
  2 20  1  0
  3 21  1  0
  6 22  1  0
  7 23  1  0
  7 24  1  0
  8 25  1  0
  8 26  1  0
 10 27  1  0
 10 28  1  0
 11 29  1  0
 11 30  1  0
 12 31  1  0
 12 32  1  0
 13 33  1  0
 13 34  1  0
 15 35  1  0
 16 36  1  0
 18 37  1  0
M  ISO  8  20  14  21  14  22  13  23  13  24  13  25  13  26  13  27  13
M  ISO  8  28  13  29  13  30  13  31   8  32   8  33   8  34   8  35  14
M  ISO  2  36  14  37  14
M  END
>  <minimizedAffinity>  (1) 
-4.60477972

>  <minimizedRMSD>  (1) 
4.56997871

$$$$
