
     RDKit          3D

 41 43  0  0  0  0  0  0  0  0999 V2000
   34.6460   29.2770   50.4290 C   0  0  0  0  0  0  0  0  0  0  0  0
   35.9530   29.9570   50.3460 C   0  0  0  0  0  0  0  0  0  0  0  0
   36.9360   29.7890   51.3250 C   0  0  0  0  0  0  0  0  0  0  0  0
   38.0160   30.5420   50.9630 C   0  0  0  0  0  0  0  0  0  0  0  0
   37.7090   31.1420   49.8160 N   0  0  0  0  0  0  0  0  0  0  0  0
   36.4860   30.7790   49.4760 N   0  0  0  0  0  0  0  0  0  0  0  0
   38.4320   32.0350   48.9790 C   0  0  0  0  0  0  0  0  0  0  0  0
   38.8110   33.2310   49.5360 C   0  0  0  0  0  0  0  0  0  0  0  0
   39.5190   34.2130   48.8650 C   0  0  0  0  0  0  0  0  0  0  0  0
   39.8530   33.9420   47.5460 C   0  0  0  0  0  0  0  0  0  0  0  0
   39.4820   32.7480   46.9660 C   0  0  0  0  0  0  0  0  0  0  0  0
   38.7730   31.7800   47.6600 C   0  0  0  0  0  0  0  0  0  0  0  0
   34.4550   28.2290   49.4030 C   0  0  0  0  0  0  0  0  0  0  0  0
   33.6280   28.5250   48.2760 C   0  0  0  0  0  0  0  0  0  0  0  0
   32.3970   27.9460   48.1380 C   0  0  0  0  0  0  0  0  0  0  0  0
   31.5660   28.2240   47.0350 C   0  0  0  0  0  0  0  0  0  0  0  0
   32.0830   29.1200   46.1080 N   0  0  0  0  0  0  0  0  0  0  0  0
   33.3040   29.6650   46.2910 C   0  0  0  0  0  0  0  0  0  0  0  0
   34.0680   29.3710   47.3620 N   0  0  0  0  0  0  0  0  0  0  0  0
   33.7620   30.5740   45.2960 N   0  0  0  0  0  0  0  0  0  0  0  0
   35.2110   30.2230   44.4330 S   0  0  0  0  0  0  0  0  0  0  0  0
   36.4020   30.6250   45.2630 O   0  0  0  0  0  0  0  0  0  0  0  0
   35.3230   28.7920   44.0390 O   0  0  0  0  0  0  0  0  0  0  0  0
   35.2450   31.1560   43.0180 O   0  0  0  0  0  0  0  0  0  0  0  0
   34.5593   28.8111   51.4217 H   0  0  0  0  0  0  0  0  0  0  0  0
   33.8743   30.0414   50.2554 H   0  0  0  0  0  0  0  0  0  0  0  0
   36.8544   29.1626   52.2255 H   0  0  0  0  0  0  0  0  0  0  0  0
   38.9623   30.6350   51.5160 H   0  0  0  0  0  0  0  0  0  0  0  0
   38.5341   33.4213   50.5834 H   0  0  0  0  0  0  0  0  0  0  0  0
   39.8018   35.1581   49.3517 H   0  0  0  0  0  0  0  0  0  0  0  0
   40.4164   34.6834   46.9605 H   0  0  0  0  0  0  0  0  0  0  0  0
   39.7575   32.5571   45.9183 H   0  0  0  0  0  0  0  0  0  0  0  0
   38.4883   30.8339   47.1764 H   0  0  0  0  0  0  0  0  0  0  0  0
   35.4508   27.9672   49.0160 H   0  0  0  0  0  0  0  0  0  0  0  0
   33.9166   27.4282   49.9310 H   0  0  0  0  0  0  0  0  0  0  0  0
   32.0461   27.2443   48.9090 H   0  0  0  0  0  0  0  0  0  0  0  0
   30.5746   27.7626   46.9159 H   0  0  0  0  0  0  0  0  0  0  0  0
   33.2319   31.4337   45.0939 H   0  0  0  0  0  0  0  0  0  0  0  0
   36.1756   30.5486   46.2237 H   0  0  0  0  0  0  0  0  0  0  0  0
   35.3671   28.2284   44.8517 H   0  0  0  0  0  0  0  0  0  0  0  0
   35.2800   32.1162   43.2566 H   0  0  0  0  0  0  0  0  0  0  0  0
  2  1  1  0
  2  3  1  0
  4  3  2  0
  5  4  1  0
  6  5  1  0
  6  2  2  0
  7  8  2  0
  7  5  1  0
  9  8  1  0
 10  9  2  0
 11 10  1  0
 11 12  2  0
 12  7  1  0
 13  1  1  0
 14 13  1  0
 15 14  2  0
 16 15  1  0
 17 18  1  0
 17 16  2  0
 18 19  2  0
 19 14  1  0
 20 18  1  0
 21 22  1  0
 21 20  1  0
 23 21  1  0
 24 21  1  0
  1 25  1  0
  1 26  1  0
  3 27  1  0
  4 28  1  0
  8 29  1  0
  9 30  1  0
 10 31  1  0
 11 32  1  0
 12 33  1  0
 13 34  1  0
 13 35  1  0
 15 36  1  0
 16 37  1  0
 20 38  1  0
 22 39  1  0
 23 40  1  0
 24 41  1  0
M  ISO  8  25   8  26   8  27  14  28  14  29  14  30  14  31  14  32  14
M  ISO  8  33  14  34   8  35   8  36  14  37  14  39   3  40   3  41   3
M  END
>  <minimizedAffinity>  (1) 
-6.20436239

>  <minimizedRMSD>  (1) 
1.95945835

$$$$
