
     RDKit          3D

 40 43  0  0  0  0  0  0  0  0999 V2000
   34.3460   29.3850   49.4570 C   0  0  0  0  0  0  0  0  0  0  0  0
   35.7270   29.9190   49.5160 C   0  0  0  0  0  0  0  0  0  0  0  0
   36.6960   29.3840   50.3720 C   0  0  0  0  0  0  0  0  0  0  0  0
   37.8450   30.0890   50.1870 C   0  0  0  0  0  0  0  0  0  0  0  0
   37.5940   31.0170   49.2570 N   0  0  0  0  0  0  0  0  0  0  0  0
   36.3400   30.8910   48.8820 N   0  0  0  0  0  0  0  0  0  0  0  0
   38.4100   32.0230   48.6730 C   0  0  0  0  0  0  0  0  0  0  0  0
   38.6920   33.1160   49.4760 C   0  0  0  0  0  0  0  0  0  0  0  0
   39.4750   34.1920   49.0650 C   0  0  0  0  0  0  0  0  0  0  0  0
   39.9780   34.1190   47.7730 C   0  0  0  0  0  0  0  0  0  0  0  0
   39.7080   33.0420   46.9670 C   0  0  0  0  0  0  0  0  0  0  0  0
   38.9260   31.9860   47.4010 C   0  0  0  0  0  0  0  0  0  0  0  0
   34.0890   28.5480   48.2590 C   0  0  0  0  0  0  0  0  0  0  0  0
   33.8340   29.2120   47.0200 C   0  0  0  0  0  0  0  0  0  0  0  0
   32.5750   29.5860   46.6580 C   0  0  0  0  0  0  0  0  0  0  0  0
   32.2910   30.2400   45.4470 C   0  0  0  0  0  0  0  0  0  0  0  0
   33.3870   30.4780   44.6440 N   0  0  0  0  0  0  0  0  0  0  0  0
   34.6320   30.0930   45.0320 C   0  0  0  0  0  0  0  0  0  0  0  0
   34.8390   29.4700   46.2060 N   0  0  0  0  0  0  0  0  0  0  0  0
   35.7490   30.3790   44.1310 C   0  0  0  0  0  0  0  0  0  0  0  0
   37.0560   29.9950   43.9090 C   0  0  0  0  0  0  0  0  0  0  0  0
   37.4960   30.7340   42.8260 C   0  0  0  0  0  0  0  0  0  0  0  0
   36.4780   31.5360   42.4120 N   0  0  0  0  0  0  0  0  0  0  0  0
   35.4270   31.3220   43.1980 N   0  0  0  0  0  0  0  0  0  0  0  0
   34.1700   28.7733   50.3541 H   0  0  0  0  0  0  0  0  0  0  0  0
   33.6660   30.2479   49.4025 H   0  0  0  0  0  0  0  0  0  0  0  0
   36.5544   28.5448   51.0689 H   0  0  0  0  0  0  0  0  0  0  0  0
   38.8015   29.9262   50.7053 H   0  0  0  0  0  0  0  0  0  0  0  0
   38.2748   33.1351   50.4936 H   0  0  0  0  0  0  0  0  0  0  0  0
   39.6823   35.0479   49.7242 H   0  0  0  0  0  0  0  0  0  0  0  0
   40.6035   34.9384   47.3891 H   0  0  0  0  0  0  0  0  0  0  0  0
   40.1241   33.0173   45.9490 H   0  0  0  0  0  0  0  0  0  0  0  0
   38.7213   31.1319   46.7387 H   0  0  0  0  0  0  0  0  0  0  0  0
   34.9713   27.9078   48.1117 H   0  0  0  0  0  0  0  0  0  0  0  0
   33.1505   28.0217   48.4873 H   0  0  0  0  0  0  0  0  0  0  0  0
   31.7438   29.3663   47.3441 H   0  0  0  0  0  0  0  0  0  0  0  0
   31.2719   30.5394   45.1611 H   0  0  0  0  0  0  0  0  0  0  0  0
   37.6318   29.2509   44.4788 H   0  0  0  0  0  0  0  0  0  0  0  0
   38.4984   30.6822   42.3760 H   0  0  0  0  0  0  0  0  0  0  0  0
   36.5151   32.1972   41.6231 H   0  0  0  0  0  0  0  0  0  0  0  0
  1  2  1  0
  2  3  1  0
  4  3  2  0
  5  4  1  0
  6  5  1  0
  6  2  2  0
  7  5  1  0
  7  8  2  0
  9  8  1  0
 10  9  2  0
 11 12  2  0
 11 10  1  0
 12  7  1  0
 13  1  1  0
 14 13  1  0
 15 14  2  0
 16 15  1  0
 17 18  1  0
 17 16  2  0
 18 19  2  0
 19 14  1  0
 20 18  1  0
 21 20  1  0
 22 21  2  0
 23 22  1  0
 23 24  1  0
 24 20  2  0
  1 25  1  0
  1 26  1  0
  3 27  1  0
  4 28  1  0
  8 29  1  0
  9 30  1  0
 10 31  1  0
 11 32  1  0
 12 33  1  0
 13 34  1  0
 13 35  1  0
 15 36  1  0
 16 37  1  0
 21 38  1  0
 22 39  1  0
 23 40  1  0
M  ISO  8  25   8  26   8  27  14  28  14  29  14  30  14  31  14  32  14
M  ISO  8  33  14  34   8  35   8  36  14  37  14  38  14  39  14  40   9
M  END
>  <minimizedAffinity>  (1) 
-5.62095737

>  <minimizedRMSD>  (1) 
0.672731698

$$$$
