
     RDKit          3D

 22 23  0  0  0  0  0  0  0  0999 V2000
   38.3140   33.4970   49.4800 Cl  0  0  0  0  0  0  0  0  0  0  0  0
   38.7040   32.5510   48.0640 C   0  0  0  0  0  0  0  0  0  0  0  0
   38.0560   31.3420   48.0070 C   0  0  0  0  0  0  0  0  0  0  0  0
   38.3040   30.5080   46.9080 C   0  0  0  0  0  0  0  0  0  0  0  0
   39.1580   30.8640   45.9110 C   0  0  0  0  0  0  0  0  0  0  0  0
   39.7960   32.0820   45.9890 C   0  0  0  0  0  0  0  0  0  0  0  0
   40.8980   32.5700   44.7280 Cl  0  0  0  0  0  0  0  0  0  0  0  0
   39.5650   32.8990   47.0490 C   0  0  0  0  0  0  0  0  0  0  0  0
   37.6040   30.1220   50.1040 C   0  0  0  0  0  0  0  0  0  0  0  0
   37.1010   30.7500   48.9560 C   0  0  0  0  0  0  0  0  0  0  0  0
   35.7150   30.7770   48.7760 C   0  0  0  0  0  0  0  0  0  0  0  0
   34.9230   30.2000   49.7130 N   0  0  0  0  0  0  0  0  0  0  0  0
   35.4580   29.5990   50.8180 C   0  0  0  0  0  0  0  0  0  0  0  0
   36.7930   29.5640   51.0050 N   0  0  0  0  0  0  0  0  0  0  0  0
   34.5610   29.0130   51.7600 N   0  0  0  0  0  0  0  0  0  0  0  0
   37.7924   29.5360   46.8501 H   0  0  0  0  0  0  0  0  0  0  0  0
   39.3357   30.1918   45.0586 H   0  0  0  0  0  0  0  0  0  0  0  0
   40.0822   33.8686   47.0975 H   0  0  0  0  0  0  0  0  0  0  0  0
   38.6915   30.0884   50.2657 H   0  0  0  0  0  0  0  0  0  0  0  0
   35.2748   31.2578   47.8900 H   0  0  0  0  0  0  0  0  0  0  0  0
   34.9296   28.5518   52.6040 H   0  0  0  0  0  0  0  0  0  0  0  0
   33.5448   29.0512   51.5961 H   0  0  0  0  0  0  0  0  0  0  0  0
  2  1  1  0
  3  2  2  0
  3 10  1  0
  4  3  1  0
  5  6  1  0
  5  4  2  0
  6  8  2  0
  7  6  1  0
  8  2  1  0
  9 14  2  0
 10  9  1  0
 11 10  2  0
 11 12  1  0
 12 13  2  0
 13 14  1  0
 13 15  1  0
  4 16  1  0
  5 17  1  0
  8 18  1  0
  9 19  1  0
 11 20  1  0
 15 21  1  0
 15 22  1  0
M  ISO  5  16  14  17  14  18  14  19  14  20  14
M  END
>  <minimizedAffinity>  (1) 
-5.24042606

>  <minimizedRMSD>  (1) 
0.218345672

$$$$
