
     RDKit          3D

 28 29  0  0  0  0  0  0  0  0999 V2000
   37.8450   30.4360   50.1650 C   0  0  0  0  0  0  0  0  0  0  0  0
   37.3360   30.7330   48.9030 C   0  0  0  0  0  0  0  0  0  0  0  0
   36.0090   30.4210   48.6300 C   0  0  0  0  0  0  0  0  0  0  0  0
   35.2570   29.8430   49.5970 N   0  0  0  0  0  0  0  0  0  0  0  0
   35.7960   29.5680   50.8250 C   0  0  0  0  0  0  0  0  0  0  0  0
   37.0740   29.8650   51.0950 N   0  0  0  0  0  0  0  0  0  0  0  0
   34.9470   28.9580   51.7970 N   0  0  0  0  0  0  0  0  0  0  0  0
   38.3570   33.5690   49.2990 Cl  0  0  0  0  0  0  0  0  0  0  0  0
   38.8040   32.6100   47.9220 C   0  0  0  0  0  0  0  0  0  0  0  0
   38.2450   31.3640   47.9200 C   0  0  0  0  0  0  0  0  0  0  0  0
   38.5430   30.5030   46.8450 C   0  0  0  0  0  0  0  0  0  0  0  0
   39.3650   30.8870   45.8270 C   0  0  0  0  0  0  0  0  0  0  0  0
   39.9130   32.1500   45.8570 C   0  0  0  0  0  0  0  0  0  0  0  0
   40.9670   32.6700   44.5720 Cl  0  0  0  0  0  0  0  0  0  0  0  0
   39.6300   32.9840   46.8910 C   0  0  0  0  0  0  0  0  0  0  0  0
   35.5100   30.7210   47.3680 O   0  0  0  0  0  0  0  0  0  0  0  0
   33.9670   28.5600   47.1510 O   0  0  0  0  0  0  0  0  0  0  0  0
   34.2240   29.9280   46.6150 P   0  0  0  0  0  0  0  0  0  0  0  0
   32.8580   30.9440   46.7630 O   0  0  0  0  0  0  0  0  0  0  0  0
   34.5720   29.9040   44.9380 O   0  0  0  0  0  0  0  0  0  0  0  0
   38.8932   30.6741   50.3986 H   0  0  0  0  0  0  0  0  0  0  0  0
   35.3135   28.7347   52.7333 H   0  0  0  0  0  0  0  0  0  0  0  0
   33.9679   28.7412   51.5620 H   0  0  0  0  0  0  0  0  0  0  0  0
   38.1014   29.4957   46.8266 H   0  0  0  0  0  0  0  0  0  0  0  0
   39.5864   30.2002   44.9967 H   0  0  0  0  0  0  0  0  0  0  0  0
   40.0760   33.9894   46.9028 H   0  0  0  0  0  0  0  0  0  0  0  0
   32.6591   31.0920   47.7215 H   0  0  0  0  0  0  0  0  0  0  0  0
   35.5507   29.8365   44.8050 H   0  0  0  0  0  0  0  0  0  0  0  0
  1  6  2  0
  2  1  1  0
  3  2  2  0
  3  4  1  0
  4  5  2  0
  5  6  1  0
  5  7  1  0
  9  8  1  0
 10  9  2  0
 10  2  1  0
 11 10  1  0
 12 13  1  0
 12 11  2  0
 13 15  2  0
 14 13  1  0
 15  9  1  0
 16  3  1  0
 18 19  1  0
 18 17  2  0
 18 16  1  0
 20 18  1  0
  1 21  1  0
  7 22  1  0
  7 23  1  0
 11 24  1  0
 12 25  1  0
 15 26  1  0
 19 27  1  0
 20 28  1  0
M  ISO  6  21  14  24  14  25  14  26  14  27   3  28   3
M  END
>  <minimizedAffinity>  (1) 
-5.94093275

>  <minimizedRMSD>  (1) 
0.536045969

$$$$
