
     RDKit          3D

 26 27  0  0  0  0  0  0  0  0999 V2000
   37.8310   30.3790   50.0980 C   0  0  0  0  0  0  0  0  0  0  0  0
   37.3020   30.7020   48.8510 C   0  0  0  0  0  0  0  0  0  0  0  0
   35.9560   30.4220   48.6100 C   0  0  0  0  0  0  0  0  0  0  0  0
   35.2240   29.8510   49.5860 N   0  0  0  0  0  0  0  0  0  0  0  0
   35.7750   29.5460   50.8000 C   0  0  0  0  0  0  0  0  0  0  0  0
   37.0820   29.8120   51.0500 N   0  0  0  0  0  0  0  0  0  0  0  0
   34.9460   28.9450   51.7850 N   0  0  0  0  0  0  0  0  0  0  0  0
   38.3150   33.5450   49.2090 Cl  0  0  0  0  0  0  0  0  0  0  0  0
   38.7510   32.5720   47.8390 C   0  0  0  0  0  0  0  0  0  0  0  0
   38.1980   31.3270   47.8550 C   0  0  0  0  0  0  0  0  0  0  0  0
   38.4900   30.4560   46.7850 C   0  0  0  0  0  0  0  0  0  0  0  0
   39.2980   30.8280   45.7550 C   0  0  0  0  0  0  0  0  0  0  0  0
   39.8430   32.1010   45.7690 C   0  0  0  0  0  0  0  0  0  0  0  0
   40.8830   32.6180   44.4710 Cl  0  0  0  0  0  0  0  0  0  0  0  0
   39.5640   32.9500   46.8040 C   0  0  0  0  0  0  0  0  0  0  0  0
   34.6870   29.8530   46.5300 C   0  0  0  0  0  0  0  0  0  0  0  0
   34.2860   28.6770   46.5750 O   0  0  0  0  0  0  0  0  0  0  0  0
   35.4230   30.7570   47.3340 N   0  0  0  0  0  0  0  0  0  0  0  0
   38.8895   30.5952   50.3049 H   0  0  0  0  0  0  0  0  0  0  0  0
   35.3345   28.7046   52.7081 H   0  0  0  0  0  0  0  0  0  0  0  0
   33.9565   28.7497   51.5759 H   0  0  0  0  0  0  0  0  0  0  0  0
   38.0521   29.4469   46.7828 H   0  0  0  0  0  0  0  0  0  0  0  0
   39.5133   30.1331   44.9299 H   0  0  0  0  0  0  0  0  0  0  0  0
   40.0023   33.9589   46.8052 H   0  0  0  0  0  0  0  0  0  0  0  0
   34.3797   30.3322   45.5888 H   0  0  0  0  0  0  0  0  0  0  0  0
   35.5812   31.7095   46.9753 H   0  0  0  0  0  0  0  0  0  0  0  0
  1  6  2  0
  2  1  1  0
  3  2  2  0
  3  4  1  0
  4  5  2  0
  5  6  1  0
  5  7  1  0
  9 10  2  0
  9  8  1  0
 10  2  1  0
 11 10  1  0
 12 13  1  0
 12 11  2  0
 13 15  2  0
 14 13  1  0
 15  9  1  0
 16 17  2  0
 16 18  1  0
 18  3  1  0
  1 19  1  0
  7 20  1  0
  7 21  1  0
 11 22  1  0
 12 23  1  0
 15 24  1  0
 16 25  1  0
 18 26  1  0
M  ISO  5  19  14  22  14  23  14  24  14  25   6
M  END
>  <minimizedAffinity>  (1) 
-5.69850349

>  <minimizedRMSD>  (1) 
0.524234354

$$$$
