
     RDKit          3D

 28 29  0  0  0  0  0  0  0  0999 V2000
   37.8300   30.5180   50.1910 C   0  0  0  0  0  0  0  0  0  0  0  0
   37.3380   30.7110   48.8940 C   0  0  0  0  0  0  0  0  0  0  0  0
   36.0460   30.2960   48.6110 C   0  0  0  0  0  0  0  0  0  0  0  0
   35.3160   29.7220   49.5970 N   0  0  0  0  0  0  0  0  0  0  0  0
   35.8160   29.5450   50.8490 C   0  0  0  0  0  0  0  0  0  0  0  0
   37.0620   29.9460   51.1210 N   0  0  0  0  0  0  0  0  0  0  0  0
   34.9820   28.9340   51.8230 N   0  0  0  0  0  0  0  0  0  0  0  0
   38.2920   33.5850   49.2380 Cl  0  0  0  0  0  0  0  0  0  0  0  0
   38.7550   32.6060   47.8800 C   0  0  0  0  0  0  0  0  0  0  0  0
   38.2210   31.3430   47.9050 C   0  0  0  0  0  0  0  0  0  0  0  0
   38.5470   30.4780   46.8430 C   0  0  0  0  0  0  0  0  0  0  0  0
   39.3550   30.8540   45.8170 C   0  0  0  0  0  0  0  0  0  0  0  0
   39.8750   32.1320   45.8240 C   0  0  0  0  0  0  0  0  0  0  0  0
   40.9180   32.6480   44.5220 Cl  0  0  0  0  0  0  0  0  0  0  0  0
   39.5710   32.9760   46.8390 C   0  0  0  0  0  0  0  0  0  0  0  0
   35.4740   30.4760   47.2550 C   0  0  0  0  0  0  0  0  0  0  0  0
   34.0320   30.1340   47.1540 C   0  0  0  0  0  0  0  0  0  0  0  0
   38.8515   30.8385   50.4439 H   0  0  0  0  0  0  0  0  0  0  0  0
   35.3316   28.7859   52.7805 H   0  0  0  0  0  0  0  0  0  0  0  0
   34.0277   28.6390   51.5718 H   0  0  0  0  0  0  0  0  0  0  0  0
   38.1320   29.4593   46.8438 H   0  0  0  0  0  0  0  0  0  0  0  0
   39.5890   30.1557   44.9999 H   0  0  0  0  0  0  0  0  0  0  0  0
   39.9920   33.9922   46.8292 H   0  0  0  0  0  0  0  0  0  0  0  0
   35.6003   31.5293   46.9640 H   0  0  0  0  0  0  0  0  0  0  0  0
   36.0112   29.7837   46.5900 H   0  0  0  0  0  0  0  0  0  0  0  0
   33.6074   30.0333   48.1638 H   0  0  0  0  0  0  0  0  0  0  0  0
   33.5031   30.9316   46.6117 H   0  0  0  0  0  0  0  0  0  0  0  0
   33.9176   29.1838   46.6117 H   0  0  0  0  0  0  0  0  0  0  0  0
  1  6  2  0
  2  1  1  0
  3  2  2  0
  3  4  1  0
  4  5  2  0
  5  6  1  0
  5  7  1  0
  9 10  2  0
  9  8  1  0
 10  2  1  0
 11 10  1  0
 12 13  1  0
 12 11  2  0
 13 15  2  0
 14 13  1  0
 15  9  1  0
 16  3  1  0
 17 16  1  0
  1 18  1  0
  7 19  1  0
  7 20  1  0
 11 21  1  0
 12 22  1  0
 15 23  1  0
 16 24  1  0
 16 25  1  0
 17 26  1  0
 17 27  1  0
 17 28  1  0
M  ISO  8  18  14  21  14  22  14  23  14  24   8  25   8  26   8  27   8
M  ISO  1  28   8
M  END
>  <minimizedAffinity>  (1) 
-5.46882391

>  <minimizedRMSD>  (1) 
0.573376834

$$$$
