
     RDKit          3D

 36 39  0  0  0  0  0  0  0  0999 V2000
   37.8490   30.4840   50.1370 C   0  0  0  0  0  0  0  0  0  0  0  0
   37.3120   30.6570   48.8770 C   0  0  0  0  0  0  0  0  0  0  0  0
   35.9730   30.2820   48.6100 C   0  0  0  0  0  0  0  0  0  0  0  0
   35.2590   29.7530   49.6390 N   0  0  0  0  0  0  0  0  0  0  0  0
   35.8310   29.5970   50.8830 C   0  0  0  0  0  0  0  0  0  0  0  0
   37.1210   29.9620   51.1260 N   0  0  0  0  0  0  0  0  0  0  0  0
   34.9990   29.0310   51.9080 N   0  0  0  0  0  0  0  0  0  0  0  0
   38.3600   33.5020   49.0870 Cl  0  0  0  0  0  0  0  0  0  0  0  0
   38.7330   32.4860   47.7400 C   0  0  0  0  0  0  0  0  0  0  0  0
   38.1780   31.2410   47.8280 C   0  0  0  0  0  0  0  0  0  0  0  0
   38.4340   30.3340   46.7740 C   0  0  0  0  0  0  0  0  0  0  0  0
   39.1960   30.6640   45.7050 C   0  0  0  0  0  0  0  0  0  0  0  0
   39.7460   31.9430   45.6480 C   0  0  0  0  0  0  0  0  0  0  0  0
   40.7360   32.4160   44.2920 Cl  0  0  0  0  0  0  0  0  0  0  0  0
   39.5050   32.8190   46.6590 C   0  0  0  0  0  0  0  0  0  0  0  0
   35.4150   30.4830   47.2870 C   0  0  0  0  0  0  0  0  0  0  0  0
   34.2920   29.5540   47.0800 N   0  0  0  0  0  0  0  0  0  0  0  0
   34.2700   28.2580   47.4320 C   0  0  0  0  0  0  0  0  0  0  0  0
   33.0880   27.7150   47.0920 N   0  0  0  0  0  0  0  0  0  0  0  0
   32.3440   28.6670   46.5170 C   0  0  0  0  0  0  0  0  0  0  0  0
   31.0610   28.6180   45.9980 C   0  0  0  0  0  0  0  0  0  0  0  0
   30.6060   29.7770   45.4860 N   0  0  0  0  0  0  0  0  0  0  0  0
   31.3100   30.9210   45.4610 C   0  0  0  0  0  0  0  0  0  0  0  0
   32.5760   30.9680   45.9730 N   0  0  0  0  0  0  0  0  0  0  0  0
   33.1100   29.8410   46.5090 C   0  0  0  0  0  0  0  0  0  0  0  0
   38.8909   30.7804   50.3282 H   0  0  0  0  0  0  0  0  0  0  0  0
   35.3741   28.8914   52.8571 H   0  0  0  0  0  0  0  0  0  0  0  0
   34.0273   28.7647   51.6939 H   0  0  0  0  0  0  0  0  0  0  0  0
   37.9988   29.3250   46.8245 H   0  0  0  0  0  0  0  0  0  0  0  0
   39.3771   29.9381   44.8986 H   0  0  0  0  0  0  0  0  0  0  0  0
   39.9436   33.8265   46.6073 H   0  0  0  0  0  0  0  0  0  0  0  0
   35.0557   31.5185   47.1944 H   0  0  0  0  0  0  0  0  0  0  0  0
   36.1905   30.2941   46.5301 H   0  0  0  0  0  0  0  0  0  0  0  0
   35.0947   27.7217   47.9242 H   0  0  0  0  0  0  0  0  0  0  0  0
   30.4573   27.6985   46.0037 H   0  0  0  0  0  0  0  0  0  0  0  0
   30.8637   31.8269   45.0249 H   0  0  0  0  0  0  0  0  0  0  0  0
  1  6  2  0
  2  1  1  0
  3  2  2  0
  3  4  1  0
  4  5  2  0
  5  6  1  0
  5  7  1  0
  9 10  2  0
  9  8  1  0
 10  2  1  0
 11 10  1  0
 12 11  2  0
 13 12  1  0
 13 15  2  0
 14 13  1  0
 15  9  1  0
 16  3  1  0
 17 16  1  0
 17 18  1  0
 19 18  2  0
 20 19  1  0
 21 20  2  0
 22 21  1  0
 23 22  2  0
 23 24  1  0
 24 25  2  0
 25 20  1  0
 25 17  1  0
  1 26  1  0
  7 27  1  0
  7 28  1  0
 11 29  1  0
 12 30  1  0
 15 31  1  0
 16 32  1  0
 16 33  1  0
 18 34  1  0
 21 35  1  0
 23 36  1  0
M  ISO  8  26  14  29  14  30  14  31  14  32   8  33   8  34  14  35  14
M  ISO  1  36  14
M  END
>  <minimizedAffinity>  (1) 
-6.13460588

>  <minimizedRMSD>  (1) 
0.717482626

$$$$
