
     RDKit          3D

 35 37  0  0  0  0  0  0  0  0999 V2000
   37.8490   30.3610   50.0950 C   0  0  0  0  0  0  0  0  0  0  0  0
   37.2840   30.6300   48.8500 C   0  0  0  0  0  0  0  0  0  0  0  0
   35.9180   30.3330   48.6130 C   0  0  0  0  0  0  0  0  0  0  0  0
   35.2160   29.7940   49.6280 N   0  0  0  0  0  0  0  0  0  0  0  0
   35.8050   29.5380   50.8550 C   0  0  0  0  0  0  0  0  0  0  0  0
   37.1150   29.8250   51.0740 N   0  0  0  0  0  0  0  0  0  0  0  0
   34.9950   28.9700   51.8810 N   0  0  0  0  0  0  0  0  0  0  0  0
   38.2910   33.4870   49.0820 Cl  0  0  0  0  0  0  0  0  0  0  0  0
   38.7010   32.4790   47.7420 C   0  0  0  0  0  0  0  0  0  0  0  0
   38.1660   31.2310   47.8150 C   0  0  0  0  0  0  0  0  0  0  0  0
   38.4480   30.3200   46.7700 C   0  0  0  0  0  0  0  0  0  0  0  0
   39.2210   30.6420   45.7120 C   0  0  0  0  0  0  0  0  0  0  0  0
   39.7600   31.9270   45.6550 C   0  0  0  0  0  0  0  0  0  0  0  0
   40.7730   32.4300   44.3370 Cl  0  0  0  0  0  0  0  0  0  0  0  0
   39.4890   32.8100   46.6660 C   0  0  0  0  0  0  0  0  0  0  0  0
   35.3590   30.6320   47.3090 C   0  0  0  0  0  0  0  0  0  0  0  0
   35.7780   30.6610   44.3950 Cl  0  0  0  0  0  0  0  0  0  0  0  0
   34.9150   29.3600   45.2270 C   0  0  0  0  0  0  0  0  0  0  0  0
   34.7860   29.4660   46.5920 C   0  0  0  0  0  0  0  0  0  0  0  0
   34.1170   28.4740   47.2740 C   0  0  0  0  0  0  0  0  0  0  0  0
   33.5800   27.3870   46.6030 C   0  0  0  0  0  0  0  0  0  0  0  0
   33.7330   27.3210   45.2290 C   0  0  0  0  0  0  0  0  0  0  0  0
   34.4020   28.2980   44.4870 C   0  0  0  0  0  0  0  0  0  0  0  0
   38.9095   30.5922   50.2734 H   0  0  0  0  0  0  0  0  0  0  0  0
   35.4018   28.7671   52.8053 H   0  0  0  0  0  0  0  0  0  0  0  0
   34.0028   28.7624   51.6982 H   0  0  0  0  0  0  0  0  0  0  0  0
   38.0197   29.3081   46.8221 H   0  0  0  0  0  0  0  0  0  0  0  0
   39.4208   29.9102   44.9154 H   0  0  0  0  0  0  0  0  0  0  0  0
   39.9180   33.8216   46.6149 H   0  0  0  0  0  0  0  0  0  0  0  0
   34.5608   31.3771   47.4422 H   0  0  0  0  0  0  0  0  0  0  0  0
   36.1941   30.9938   46.6912 H   0  0  0  0  0  0  0  0  0  0  0  0
   34.0075   28.5455   48.3662 H   0  0  0  0  0  0  0  0  0  0  0  0
   33.0452   26.5959   47.1490 H   0  0  0  0  0  0  0  0  0  0  0  0
   33.3076   26.4582   44.6956 H   0  0  0  0  0  0  0  0  0  0  0  0
   34.5154   28.2326   43.3948 H   0  0  0  0  0  0  0  0  0  0  0  0
  1  6  2  0
  2  1  1  0
  3  2  2  0
  3  4  1  0
  4  5  2  0
  5  6  1  0
  5  7  1  0
  9 10  2  0
  9  8  1  0
 10  2  1  0
 11 10  1  0
 12 11  2  0
 13 12  1  0
 13 15  2  0
 14 13  1  0
 15  9  1  0
 16  3  1  0
 17 18  1  0
 18 19  2  0
 19 20  1  0
 19 16  1  0
 21 20  2  0
 22 21  1  0
 23 18  1  0
 23 22  2  0
  1 24  1  0
  7 25  1  0
  7 26  1  0
 11 27  1  0
 12 28  1  0
 15 29  1  0
 16 30  1  0
 16 31  1  0
 20 32  1  0
 21 33  1  0
 22 34  1  0
 23 35  1  0
M  ISO  8  24  14  27  14  28  14  29  14  30   8  31   8  32  14  33  14
M  ISO  2  34  14  35  14
M  END
>  <minimizedAffinity>  (1) 
-5.81626415

>  <minimizedRMSD>  (1) 
1.6076386

$$$$
