
     RDKit          3D

 40 42  0  0  0  0  0  0  0  0999 V2000
   37.8420   30.4720   50.1650 C   0  0  0  0  0  0  0  0  0  0  0  0
   37.3420   30.7050   48.8830 C   0  0  0  0  0  0  0  0  0  0  0  0
   36.0250   30.3300   48.5800 C   0  0  0  0  0  0  0  0  0  0  0  0
   35.2720   29.7500   49.5540 N   0  0  0  0  0  0  0  0  0  0  0  0
   35.8060   29.5390   50.8080 C   0  0  0  0  0  0  0  0  0  0  0  0
   37.0770   29.8990   51.1040 N   0  0  0  0  0  0  0  0  0  0  0  0
   34.9710   28.9250   51.7830 N   0  0  0  0  0  0  0  0  0  0  0  0
   38.2950   33.5660   49.2380 Cl  0  0  0  0  0  0  0  0  0  0  0  0
   38.7640   32.5910   47.8800 C   0  0  0  0  0  0  0  0  0  0  0  0
   38.2330   31.3400   47.9030 C   0  0  0  0  0  0  0  0  0  0  0  0
   38.5630   30.4750   46.8320 C   0  0  0  0  0  0  0  0  0  0  0  0
   39.3720   30.8660   45.8190 C   0  0  0  0  0  0  0  0  0  0  0  0
   39.8930   32.1400   45.8250 C   0  0  0  0  0  0  0  0  0  0  0  0
   40.9370   32.6690   44.5410 Cl  0  0  0  0  0  0  0  0  0  0  0  0
   39.5800   32.9700   46.8480 C   0  0  0  0  0  0  0  0  0  0  0  0
   35.5150   30.5580   47.2290 C   0  0  0  0  0  0  0  0  0  0  0  0
   34.4340   29.6900   46.8230 N   0  0  0  0  0  0  0  0  0  0  0  0
   34.7840   29.2990   45.4460 C   0  0  0  0  0  0  0  0  0  0  0  0
   33.8470   28.2000   45.0380 C   0  0  0  0  0  0  0  0  0  0  0  0
   32.4920   28.8460   44.8200 C   0  0  0  0  0  0  0  0  0  0  0  0
   32.5140   30.2470   45.3640 C   0  0  0  0  0  0  0  0  0  0  0  0
   33.1580   30.3760   46.7170 C   0  0  0  0  0  0  0  0  0  0  0  0
   38.8751   30.7619   50.4071 H   0  0  0  0  0  0  0  0  0  0  0  0
   35.3307   28.7493   52.7320 H   0  0  0  0  0  0  0  0  0  0  0  0
   34.0069   28.6562   51.5397 H   0  0  0  0  0  0  0  0  0  0  0  0
   38.1501   29.4555   46.8225 H   0  0  0  0  0  0  0  0  0  0  0  0
   39.6105   30.1723   44.9993 H   0  0  0  0  0  0  0  0  0  0  0  0
   39.9973   33.9878   46.8500 H   0  0  0  0  0  0  0  0  0  0  0  0
   35.1569   31.5965   47.1716 H   0  0  0  0  0  0  0  0  0  0  0  0
   36.3511   30.3420   46.5476 H   0  0  0  0  0  0  0  0  0  0  0  0
   34.6703   30.1598   44.7706 H   0  0  0  0  0  0  0  0  0  0  0  0
   35.8284   28.9576   45.3934 H   0  0  0  0  0  0  0  0  0  0  0  0
   34.1969   27.7284   44.1079 H   0  0  0  0  0  0  0  0  0  0  0  0
   33.7942   27.4166   45.8084 H   0  0  0  0  0  0  0  0  0  0  0  0
   32.2675   28.8737   43.7435 H   0  0  0  0  0  0  0  0  0  0  0  0
   31.7184   28.2619   45.3399 H   0  0  0  0  0  0  0  0  0  0  0  0
   33.0677   30.8823   44.6570 H   0  0  0  0  0  0  0  0  0  0  0  0
   31.4647   30.5546   45.4842 H   0  0  0  0  0  0  0  0  0  0  0  0
   33.3194   31.4441   46.9246 H   0  0  0  0  0  0  0  0  0  0  0  0
   32.4785   29.9059   47.4431 H   0  0  0  0  0  0  0  0  0  0  0  0
  1  6  2  0
  2  1  1  0
  3  2  2  0
  3  4  1  0
  4  5  2  0
  5  6  1  0
  5  7  1  0
  9 10  2  0
  9  8  1  0
 10  2  1  0
 11 10  1  0
 12 13  1  0
 12 11  2  0
 13 15  2  0
 14 13  1  0
 15  9  1  0
 16  3  1  0
 17 16  1  0
 18 17  1  0
 19 18  1  0
 20 19  1  0
 20 21  1  0
 21 22  1  0
 22 17  1  0
  1 23  1  0
  7 24  1  0
  7 25  1  0
 11 26  1  0
 12 27  1  0
 15 28  1  0
 16 29  1  0
 16 30  1  0
 18 31  1  0
 18 32  1  0
 19 33  1  0
 19 34  1  0
 20 35  1  0
 20 36  1  0
 21 37  1  0
 21 38  1  0
 22 39  1  0
 22 40  1  0
M  ISO  8  23  14  26  14  27  14  28  14  29   8  30   8  31  13  32  13
M  ISO  8  33  13  34  13  35  13  36  13  37  13  38  13  39  13  40  13
M  END
>  <minimizedAffinity>  (1) 
-5.61717701

>  <minimizedRMSD>  (1) 
0.795061529

$$$$
