
     RDKit          3D

 32 34  0  0  0  0  0  0  0  0999 V2000
   37.8640   30.5320   50.1980 C   0  0  0  0  0  0  0  0  0  0  0  0
   37.3810   30.7310   48.9190 C   0  0  0  0  0  0  0  0  0  0  0  0
   36.0620   30.3160   48.6190 C   0  0  0  0  0  0  0  0  0  0  0  0
   35.3310   29.7450   49.5980 N   0  0  0  0  0  0  0  0  0  0  0  0
   35.8550   29.5660   50.8650 C   0  0  0  0  0  0  0  0  0  0  0  0
   37.1120   29.9630   51.1430 N   0  0  0  0  0  0  0  0  0  0  0  0
   35.0310   28.9630   51.8580 N   0  0  0  0  0  0  0  0  0  0  0  0
   38.3390   33.5810   49.2510 Cl  0  0  0  0  0  0  0  0  0  0  0  0
   38.7900   32.6060   47.8820 C   0  0  0  0  0  0  0  0  0  0  0  0
   38.2600   31.3570   47.9100 C   0  0  0  0  0  0  0  0  0  0  0  0
   38.5630   30.4850   46.8470 C   0  0  0  0  0  0  0  0  0  0  0  0
   39.3560   30.8560   45.8130 C   0  0  0  0  0  0  0  0  0  0  0  0
   39.8770   32.1340   45.8130 C   0  0  0  0  0  0  0  0  0  0  0  0
   40.8920   32.6570   44.4880 Cl  0  0  0  0  0  0  0  0  0  0  0  0
   39.5890   32.9810   46.8390 C   0  0  0  0  0  0  0  0  0  0  0  0
   35.5340   30.5320   47.2670 C   0  0  0  0  0  0  0  0  0  0  0  0
   34.1660   30.0070   47.0140 C   0  0  0  0  0  0  0  0  0  0  0  0
   33.5780   30.0220   45.6480 C   0  0  0  0  0  0  0  0  0  0  0  0
   33.8000   28.7340   46.4080 C   0  0  0  0  0  0  0  0  0  0  0  0
   38.8886   30.8487   50.4426 H   0  0  0  0  0  0  0  0  0  0  0  0
   35.3952   28.8173   52.8104 H   0  0  0  0  0  0  0  0  0  0  0  0
   34.0710   28.6726   51.6237 H   0  0  0  0  0  0  0  0  0  0  0  0
   38.1420   29.4688   46.8563 H   0  0  0  0  0  0  0  0  0  0  0  0
   39.5790   30.1562   44.9941 H   0  0  0  0  0  0  0  0  0  0  0  0
   40.0117   33.9965   46.8281 H   0  0  0  0  0  0  0  0  0  0  0  0
   35.5193   31.6159   47.0798 H   0  0  0  0  0  0  0  0  0  0  0  0
   36.1984   29.9701   46.5940 H   0  0  0  0  0  0  0  0  0  0  0  0
   33.9348   30.4390   47.9988 H   0  0  0  0  0  0  0  0  0  0  0  0
   34.2034   30.2676   44.7770 H   0  0  0  0  0  0  0  0  0  0  0  0
   32.7221   30.5142   45.1630 H   0  0  0  0  0  0  0  0  0  0  0  0
   32.9393   28.1684   46.7945 H   0  0  0  0  0  0  0  0  0  0  0  0
   34.3276   27.7910   46.2020 H   0  0  0  0  0  0  0  0  0  0  0  0
  1  6  2  0
  2  1  1  0
  3  2  2  0
  3  4  1  0
  4  5  2  0
  5  6  1  0
  5  7  1  0
  9 10  2  0
  9  8  1  0
 10  2  1  0
 11 10  1  0
 12 11  2  0
 13 12  1  0
 13 15  2  0
 14 13  1  0
 15  9  1  0
 16  3  1  0
 17 16  1  0
 18 19  1  0
 18 17  1  0
 19 17  1  0
  1 20  1  0
  7 21  1  0
  7 22  1  0
 11 23  1  0
 12 24  1  0
 15 25  1  0
 16 26  1  0
 16 27  1  0
 17 28  1  0
 18 29  1  0
 18 30  1  0
 19 31  1  0
 19 32  1  0
M  ISO  8  20  14  23  14  24  14  25  14  26   8  27   8  28  13  29  13
M  ISO  3  30  13  31  13  32  13
M  END
>  <minimizedAffinity>  (1) 
-5.53258467

>  <minimizedRMSD>  (1) 
0.40365088

$$$$
