
     RDKit          3D

 23 24  0  0  0  0  0  0  0  0999 V2000
   36.6370   29.8470   49.6560 C   0  0  0  0  0  0  0  0  0  0  0  0
   37.7270   30.3720   48.9560 C   0  0  0  0  0  0  0  0  0  0  0  0
   37.5570   30.7080   47.6180 C   0  0  0  0  0  0  0  0  0  0  0  0
   36.3280   30.5060   47.0640 N   0  0  0  0  0  0  0  0  0  0  0  0
   35.3000   30.0020   47.7570 C   0  0  0  0  0  0  0  0  0  0  0  0
   35.4660   29.6760   49.0540 N   0  0  0  0  0  0  0  0  0  0  0  0
   38.5350   33.2850   48.0860 F   0  0  0  0  0  0  0  0  0  0  0  0
   39.0890   32.5340   47.0970 C   0  0  0  0  0  0  0  0  0  0  0  0
   38.6460   31.2580   46.8240 C   0  0  0  0  0  0  0  0  0  0  0  0
   39.2870   30.6020   45.7990 C   0  0  0  0  0  0  0  0  0  0  0  0
   40.3160   31.1600   45.0700 C   0  0  0  0  0  0  0  0  0  0  0  0
   40.7540   32.4460   45.3540 C   0  0  0  0  0  0  0  0  0  0  0  0
   40.1160   33.1130   46.3810 C   0  0  0  0  0  0  0  0  0  0  0  0
   36.8280   29.4820   51.1010 C   0  0  0  0  0  0  0  0  0  0  0  0
   35.6300   29.1060   51.6530 F   0  0  0  0  0  0  0  0  0  0  0  0
   37.7770   28.4810   51.1390 F   0  0  0  0  0  0  0  0  0  0  0  0
   37.2910   30.6070   51.7550 F   0  0  0  0  0  0  0  0  0  0  0  0
   38.6977   30.5161   49.4529 H   0  0  0  0  0  0  0  0  0  0  0  0
   34.3246   29.8546   47.2704 H   0  0  0  0  0  0  0  0  0  0  0  0
   38.9626   29.5813   45.5482 H   0  0  0  0  0  0  0  0  0  0  0  0
   40.7907   30.5846   44.2616 H   0  0  0  0  0  0  0  0  0  0  0  0
   41.5725   32.9129   44.7865 H   0  0  0  0  0  0  0  0  0  0  0  0
   40.4356   34.1344   46.6352 H   0  0  0  0  0  0  0  0  0  0  0  0
  1 14  1  0
  2  1  2  0
  3  2  1  0
  4  3  2  0
  4  5  1  0
  5  6  2  0
  6  1  1  0
  8  7  1  0
  9  8  2  0
  9  3  1  0
 10  9  1  0
 11 12  1  0
 11 10  2  0
 12 13  2  0
 13  8  1  0
 14 16  1  0
 14 15  1  0
 14 17  1  0
  2 18  1  0
  5 19  1  0
 10 20  1  0
 11 21  1  0
 12 22  1  0
 13 23  1  0
M  ISO  6  18  14  19  14  20  14  21  14  22  14  23  14
M  END
>  <minimizedAffinity>  (1) 
-6.57737207

>  <minimizedRMSD>  (1) 
2.58183336

$$$$
