
     RDKit          3D

 20 21  0  0  0  0  0  0  0  0999 V2000
   36.7260   29.8730   49.4760 C   0  0  0  0  0  0  0  0  0  0  0  0
   37.7810   30.4650   48.7850 C   0  0  0  0  0  0  0  0  0  0  0  0
   37.5770   30.8080   47.4480 C   0  0  0  0  0  0  0  0  0  0  0  0
   36.3670   30.5520   46.8880 N   0  0  0  0  0  0  0  0  0  0  0  0
   35.3640   29.9740   47.5950 C   0  0  0  0  0  0  0  0  0  0  0  0
   35.5630   29.6460   48.8750 N   0  0  0  0  0  0  0  0  0  0  0  0
   38.6340   31.4180   46.7040 C   0  0  0  0  0  0  0  0  0  0  0  0
   39.2860   32.5840   46.7950 C   0  0  0  0  0  0  0  0  0  0  0  0
   40.2790   32.8470   45.8800 C   0  0  0  0  0  0  0  0  0  0  0  0
   40.5640   31.9430   44.9400 C   0  0  0  0  0  0  0  0  0  0  0  0
   39.4060   30.5890   45.2780 S   0  0  0  0  0  0  0  0  0  0  0  0
   36.9540   29.5050   50.9160 C   0  0  0  0  0  0  0  0  0  0  0  0
   35.7340   29.1790   51.5040 F   0  0  0  0  0  0  0  0  0  0  0  0
   37.8570   28.4860   50.9590 F   0  0  0  0  0  0  0  0  0  0  0  0
   37.4310   30.6390   51.5620 F   0  0  0  0  0  0  0  0  0  0  0  0
   38.7454   30.6562   49.2784 H   0  0  0  0  0  0  0  0  0  0  0  0
   34.3929   29.7765   47.1176 H   0  0  0  0  0  0  0  0  0  0  0  0
   39.0344   33.3120   47.5803 H   0  0  0  0  0  0  0  0  0  0  0  0
   40.8343   33.7956   45.9226 H   0  0  0  0  0  0  0  0  0  0  0  0
   41.3233   32.0049   44.1465 H   0  0  0  0  0  0  0  0  0  0  0  0
  1 12  1  0
  2  1  2  0
  3  2  1  0
  4  3  2  0
  4  5  1  0
  5  6  2  0
  6  1  1  0
  7  8  2  0
  7  3  1  0
  9  8  1  0
 10 11  1  0
 10  9  2  0
 11  7  1  0
 12 14  1  0
 12 13  1  0
 12 15  1  0
  2 16  1  0
  5 17  1  0
  8 18  1  0
  9 19  1  0
 10 20  1  0
M  ISO  5  16  14  17  14  18  14  19  14  20  14
M  END
>  <minimizedAffinity>  (1) 
-5.59606838

>  <minimizedRMSD>  (1) 
2.62541556

$$$$
