
     RDKit          3D

 20 21  0  0  0  0  0  0  0  0999 V2000
   37.2770   30.2520   49.9900 C   0  0  0  0  0  0  0  0  0  0  0  0
   37.7340   31.5740   50.1630 C   0  0  0  0  0  0  0  0  0  0  0  0
   37.9010   32.3510   49.0070 C   0  0  0  0  0  0  0  0  0  0  0  0
   37.6160   31.7880   47.8030 N   0  0  0  0  0  0  0  0  0  0  0  0
   37.1770   30.5090   47.6920 C   0  0  0  0  0  0  0  0  0  0  0  0
   37.0110   29.7510   48.7810 N   0  0  0  0  0  0  0  0  0  0  0  0
   37.0980   29.4200   51.2290 C   0  0  0  0  0  0  0  0  0  0  0  0
   35.7500   29.1230   51.4030 F   0  0  0  0  0  0  0  0  0  0  0  0
   37.8670   28.3020   51.0930 F   0  0  0  0  0  0  0  0  0  0  0  0
   37.4740   30.1870   52.3140 F   0  0  0  0  0  0  0  0  0  0  0  0
   38.3740   33.7410   49.0820 C   0  0  0  0  0  0  0  0  0  0  0  0
   39.7120   33.9630   48.3400 C   0  0  0  0  0  0  0  0  0  0  0  0
   39.5860   34.1320   49.8070 C   0  0  0  0  0  0  0  0  0  0  0  0
   37.9506   31.9794   51.1624 H   0  0  0  0  0  0  0  0  0  0  0  0
   36.9559   30.0923   46.6983 H   0  0  0  0  0  0  0  0  0  0  0  0
   37.3496   34.1408   49.1091 H   0  0  0  0  0  0  0  0  0  0  0  0
   40.2657   33.1082   47.9244 H   0  0  0  0  0  0  0  0  0  0  0  0
   40.0561   34.5838   47.4996 H   0  0  0  0  0  0  0  0  0  0  0  0
   39.6539   35.1396   50.2430 H   0  0  0  0  0  0  0  0  0  0  0  0
   40.1242   33.7086   50.6679 H   0  0  0  0  0  0  0  0  0  0  0  0
  1  2  2  0
  1  7  1  0
  3 11  1  0
  3  2  1  0
  4  3  2  0
  5  4  1  0
  5  6  2  0
  6  1  1  0
  7  8  1  0
  7 10  1  0
  9  7  1  0
 11 13  1  0
 12 11  1  0
 12 13  1  0
  2 14  1  0
  5 15  1  0
 11 16  1  0
 12 17  1  0
 12 18  1  0
 13 19  1  0
 13 20  1  0
M  ISO  7  14  14  15  14  16  13  17  13  18  13  19  13  20  13
M  END
>  <minimizedAffinity>  (1) 
-5.12661409

>  <minimizedRMSD>  (1) 
0.794196665

$$$$
