
     RDKit          3D

 14 14  0  0  0  0  0  0  0  0999 V2000
   37.3670   30.2760   49.9700 C   0  0  0  0  0  0  0  0  0  0  0  0
   38.1440   31.4440   50.1190 C   0  0  0  0  0  0  0  0  0  0  0  0
   38.3570   32.2290   48.9710 C   0  0  0  0  0  0  0  0  0  0  0  0
   37.7990   31.8080   47.7900 N   0  0  0  0  0  0  0  0  0  0  0  0
   37.0660   30.6810   47.7080 C   0  0  0  0  0  0  0  0  0  0  0  0
   36.8490   29.9150   48.7960 N   0  0  0  0  0  0  0  0  0  0  0  0
   37.1400   29.4450   51.1860 C   0  0  0  0  0  0  0  0  0  0  0  0
   35.7860   29.1970   51.3380 F   0  0  0  0  0  0  0  0  0  0  0  0
   37.9060   28.3150   51.0790 F   0  0  0  0  0  0  0  0  0  0  0  0
   37.5230   30.1970   52.2960 F   0  0  0  0  0  0  0  0  0  0  0  0
   39.1060   33.3980   49.0050 O   0  0  0  0  0  0  0  0  0  0  0  0
   38.5664   31.7296   51.0937 H   0  0  0  0  0  0  0  0  0  0  0  0
   36.6384   30.3814   46.7398 H   0  0  0  0  0  0  0  0  0  0  0  0
   39.2362   33.9267   48.1782 H   0  0  0  0  0  0  0  0  0  0  0  0
  1  2  2  0
  1  7  1  0
  3 11  1  0
  3  2  1  0
  4  3  2  0
  5  4  1  0
  5  6  2  0
  6  1  1  0
  7  8  1  0
  7 10  1  0
  9  7  1  0
  2 12  1  0
  5 13  1  0
 11 14  1  0
M  ISO  3  12  14  13  14  14   3
M  END
>  <minimizedAffinity>  (1) 
-4.72990417

>  <minimizedRMSD>  (1) 
0.197333336

$$$$
