
     RDKit          3D

 46 50  0  0  1  0  0  0  0  0999 V2000
   40.2400   31.0560   43.8550 C   0  0  0  0  0  0  0  0  0  0  0  0
   39.4660   28.7610   43.3170 C   0  0  0  0  0  0  0  0  0  0  0  0
   40.2140   29.8650   42.9440 C   0  0  0  0  0  0  0  0  0  0  0  0
   40.9100   29.8330   41.7460 C   0  0  0  0  0  0  0  0  0  0  0  0
   40.8820   28.7470   40.9170 C   0  0  0  0  0  0  0  0  0  0  0  0
   41.4530   28.4830   39.7360 N   0  0  0  0  0  0  0  0  0  0  0  0
   41.0800   27.2510   39.3680 C   0  0  0  0  0  0  0  0  0  0  0  0
   40.2560   26.6690   40.2920 C   0  0  0  0  0  0  0  0  0  0  0  0
   40.1390   27.6520   41.2870 C   0  0  0  0  0  0  0  0  0  0  0  0
   39.4300   27.6470   42.4790 C   0  0  0  0  0  0  0  0  0  0  0  0
   38.6310   26.4520   42.8660 C   0  0  0  0  0  0  0  0  0  0  0  0
   37.2640   26.3540   42.5080 C   0  0  0  0  0  0  0  0  0  0  0  0
   36.7890   24.6990   43.2330 S   0  0  0  0  0  0  0  0  0  0  0  0
   38.5490   24.4480   43.8950 C   0  0  0  0  0  0  0  0  0  0  0  0
   39.1290   25.4520   43.5410 N   0  0  0  0  0  0  0  0  0  0  0  0
   39.4610   30.6930   45.0970 C   0  0  0  0  0  0  0  0  0  0  0  0
   38.7310   32.2450   46.9490 C   0  0  1  0  0  0  0  0  0  0  0  0
   39.8600   32.9830   46.2680 C   0  0  0  0  0  0  0  0  0  0  0  0
   39.8210   31.5080   46.2850 C   0  0  2  0  0  0  0  0  0  0  0  0
   38.6770   32.3840   48.4410 C   0  0  0  0  0  0  0  0  0  0  0  0
   37.4310   30.0040   51.0380 C   0  0  0  0  0  0  0  0  0  0  0  0
   38.1370   31.0680   50.4060 C   0  0  0  0  0  0  0  0  0  0  0  0
   37.9360   31.2770   49.0730 C   0  0  0  0  0  0  0  0  0  0  0  0
   37.0830   30.4710   48.4230 N   0  0  0  0  0  0  0  0  0  0  0  0
   36.4210   29.4740   49.0170 C   0  0  0  0  0  0  0  0  0  0  0  0
   36.6090   29.2560   50.3270 N   0  0  0  0  0  0  0  0  0  0  0  0
   39.7738   31.9195   43.3580 H   0  0  0  0  0  0  0  0  0  0  0  0
   41.2751   31.3259   44.1113 H   0  0  0  0  0  0  0  0  0  0  0  0
   38.9063   28.7627   44.2640 H   0  0  0  0  0  0  0  0  0  0  0  0
   41.5046   30.7108   41.4527 H   0  0  0  0  0  0  0  0  0  0  0  0
   42.0693   29.1147   39.2050 H   0  0  0  0  0  0  0  0  0  0  0  0
   41.3982   26.7647   38.4340 H   0  0  0  0  0  0  0  0  0  0  0  0
   39.7957   25.6704   40.2623 H   0  0  0  0  0  0  0  0  0  0  0  0
   36.6425   27.0680   41.9477 H   0  0  0  0  0  0  0  0  0  0  0  0
   38.9479   23.5953   44.4640 H   0  0  0  0  0  0  0  0  0  0  0  0
   38.3901   30.8351   44.8895 H   0  0  0  0  0  0  0  0  0  0  0  0
   39.7061   29.6479   45.3370 H   0  0  0  0  0  0  0  0  0  0  0  0
   37.6350   32.1838   46.8781 H   0  0  0  0  0  0  0  0  0  0  0  0
   40.6080   33.5228   46.8673 H   0  0  0  0  0  0  0  0  0  0  0  0
   39.9325   33.7553   45.4881 H   0  0  0  0  0  0  0  0  0  0  0  0
   40.5742   30.7585   46.5696 H   0  0  0  0  0  0  0  0  0  0  0  0
   39.7043   32.3936   48.8341 H   0  0  0  0  0  0  0  0  0  0  0  0
   38.1520   33.3217   48.6758 H   0  0  0  0  0  0  0  0  0  0  0  0
   37.5703   29.8075   52.1113 H   0  0  0  0  0  0  0  0  0  0  0  0
   38.8270   31.7051   50.9787 H   0  0  0  0  0  0  0  0  0  0  0  0
   35.7313   28.8407   48.4397 H   0  0  0  0  0  0  0  0  0  0  0  0
  1 16  1  0
  3  2  2  0
  3  1  1  0
  4  3  1  0
  5  9  1  0
  5  4  2  0
  6  5  1  0
  7  6  1  0
  7  8  2  0
  8  9  1  0
  9 10  2  0
 10 11  1  0
 10  2  1  0
 11 15  1  0
 12 11  2  0
 12 13  1  0
 13 14  1  0
 15 14  2  0
 16 19  1  0
 17 20  1  0
 18 19  1  0
 18 17  1  0
 19 17  1  0
 20 23  1  0
 22 21  2  0
 23 22  1  0
 24 25  1  0
 24 23  2  0
 25 26  2  0
 26 21  1  0
  1 27  1  0
  1 28  1  0
  2 29  1  0
  4 30  1  0
  6 31  1  0
  7 32  1  0
  8 33  1  0
 12 34  1  0
 14 35  1  0
 16 36  1  0
 16 37  1  0
 17 38  1  6
 18 39  1  0
 18 40  1  0
 19 41  1  1
 20 42  1  0
 20 43  1  0
 21 44  1  0
 22 45  1  0
 25 46  1  0
M  ISO  8  27   8  28   8  29  14  30  14  31   9  32  14  33  14  34  14
M  ISO  8  35  14  36   8  37   8  38  13  39  13  40  13  41  13  42   8
M  ISO  4  43   8  44  14  45  14  46  14
M  END
>  <minimizedAffinity>  (1) 
-6.00214481

>  <minimizedRMSD>  (1) 
0.363397479

$$$$
