
     RDKit          3D

 29 31  0  0  0  0  0  0  0  0999 V2000
   36.0970   30.1370   48.0680 C   0  0  0  0  0  0  0  0  0  0  0  0
   35.0470   29.3530   48.5550 C   0  0  0  0  0  0  0  0  0  0  0  0
   34.8880   29.2130   49.9200 C   0  0  0  0  0  0  0  0  0  0  0  0
   35.7700   29.8520   50.7440 N   0  0  0  0  0  0  0  0  0  0  0  0
   36.7800   30.6070   50.2540 C   0  0  0  0  0  0  0  0  0  0  0  0
   36.9530   30.7560   48.9140 N   0  0  0  0  0  0  0  0  0  0  0  0
   34.2270   28.7610   47.5980 N   0  0  0  0  0  0  0  0  0  0  0  0
   34.1480   27.4450   47.3240 C   0  0  0  0  0  0  0  0  0  0  0  0
   33.2410   27.2920   46.3390 N   0  0  0  0  0  0  0  0  0  0  0  0
   32.7540   28.5120   46.0020 C   0  0  0  0  0  0  0  0  0  0  0  0
   31.8160   28.9260   45.0690 C   0  0  0  0  0  0  0  0  0  0  0  0
   31.5340   30.2340   44.9620 N   0  0  0  0  0  0  0  0  0  0  0  0
   32.1370   31.1680   45.7370 C   0  0  0  0  0  0  0  0  0  0  0  0
   33.0490   30.7650   46.6440 N   0  0  0  0  0  0  0  0  0  0  0  0
   33.3750   29.4550   46.7980 C   0  0  0  0  0  0  0  0  0  0  0  0
   31.1970   27.9260   44.2660 N   0  0  0  0  0  0  0  0  0  0  0  0
   36.3890   30.3750   46.7300 O   0  0  0  0  0  0  0  0  0  0  0  0
   38.1350   32.3450   47.3240 O   0  0  0  0  0  0  0  0  0  0  0  0
   37.7160   31.3470   46.2560 P   0  0  0  0  0  0  0  0  0  0  0  0
   38.9810   30.2880   45.8940 O   0  0  0  0  0  0  0  0  0  0  0  0
   37.2960   32.2640   44.8930 O   0  0  0  0  0  0  0  0  0  0  0  0
   34.0716   28.6023   50.3329 H   0  0  0  0  0  0  0  0  0  0  0  0
   37.4704   31.1070   50.9492 H   0  0  0  0  0  0  0  0  0  0  0  0
   34.7188   26.6424   47.8140 H   0  0  0  0  0  0  0  0  0  0  0  0
   31.8872   32.2337   45.6280 H   0  0  0  0  0  0  0  0  0  0  0  0
   30.4949   28.1931   43.5613 H   0  0  0  0  0  0  0  0  0  0  0  0
   31.4514   26.9356   44.3899 H   0  0  0  0  0  0  0  0  0  0  0  0
   39.3815   29.9527   46.7350 H   0  0  0  0  0  0  0  0  0  0  0  0
   36.9018   33.1246   45.1829 H   0  0  0  0  0  0  0  0  0  0  0  0
  1  2  2  0
  1  6  1  0
  2  3  1  0
  3  4  2  0
  5  4  1  0
  6  5  2  0
  7  2  1  0
  8  7  1  0
  9  8  2  0
 10  9  1  0
 10 15  2  0
 11 10  1  0
 12 11  2  0
 12 13  1  0
 13 14  2  0
 14 15  1  0
 15  7  1  0
 16 11  1  0
 17  1  1  0
 19 17  1  0
 19 18  2  0
 20 19  1  0
 21 19  1  0
  3 22  1  0
  5 23  1  0
  8 24  1  0
 13 25  1  0
 16 26  1  0
 16 27  1  0
 20 28  1  0
 21 29  1  0
M  ISO  6  22  14  23  14  24  14  25  14  28   3  29   3
M  END
>  <minimizedAffinity>  (1) 
-4.38399839

>  <minimizedRMSD>  (1) 
4.13017082

$$$$
