
     RDKit          3D

 30 31  0  0  1  0  0  0  0  0999 V2000
   34.7060   30.7240   48.6330 O   0  0  0  0  0  0  0  0  0  0  0  0
   35.9040   30.7080   49.3410 C   0  0  0  0  0  0  0  0  0  0  0  0
   36.1680   29.9640   50.4820 C   0  0  0  0  0  0  0  0  0  0  0  0
   37.4150   30.0550   51.0760 C   0  0  0  0  0  0  0  0  0  0  0  0
   38.3540   30.8860   50.5080 N   0  0  0  0  0  0  0  0  0  0  0  0
   38.0560   31.6000   49.3890 C   0  0  0  0  0  0  0  0  0  0  0  0
   36.8350   31.5110   48.8070 N   0  0  0  0  0  0  0  0  0  0  0  0
   35.0890   29.1630   50.9300 N   0  0  0  0  0  0  0  0  0  0  0  0
   35.3740   29.8500   46.1950 O   0  0  0  0  0  0  0  0  0  0  0  0
   34.4030   29.6520   47.3230 P   0  0  1  0  0  0  0  0  0  0  0  0
   34.5000   28.0870   47.9730 O   0  0  0  0  0  0  0  0  0  0  0  0
   32.8570   29.9490   46.7020 O   0  0  0  0  0  0  0  0  0  0  0  0
   31.3360   28.3700   47.3060 N   0  0  0  0  0  0  0  0  0  0  0  0
   30.1270   29.0860   46.9850 C   0  0  0  0  0  0  0  0  0  0  0  0
   30.3720   29.8470   45.6990 C   0  0  0  0  0  0  0  0  0  0  0  0
   31.4710   28.9970   45.0800 C   0  0  0  0  0  0  0  0  0  0  0  0
   32.3190   28.7250   46.3060 C   0  0  1  0  0  0  0  0  0  0  0  0
   37.6503   29.4764   51.9814 H   0  0  0  0  0  0  0  0  0  0  0  0
   38.8182   32.2602   48.9494 H   0  0  0  0  0  0  0  0  0  0  0  0
   35.1965   28.5775   51.7706 H   0  0  0  0  0  0  0  0  0  0  0  0
   34.1969   29.1661   50.4152 H   0  0  0  0  0  0  0  0  0  0  0  0
   34.4967   28.1395   48.9616 H   0  0  0  0  0  0  0  0  0  0  0  0
   31.6698   28.6420   48.2417 H   0  0  0  0  0  0  0  0  0  0  0  0
   29.2966   28.3775   46.8490 H   0  0  0  0  0  0  0  0  0  0  0  0
   29.8608   29.7776   47.7979 H   0  0  0  0  0  0  0  0  0  0  0  0
   29.4733   29.8736   45.0652 H   0  0  0  0  0  0  0  0  0  0  0  0
   30.6337   30.9066   45.8358 H   0  0  0  0  0  0  0  0  0  0  0  0
   31.0724   28.0683   44.6456 H   0  0  0  0  0  0  0  0  0  0  0  0
   32.0060   29.4705   44.2436 H   0  0  0  0  0  0  0  0  0  0  0  0
   33.1081   27.9743   46.1523 H   0  0  0  0  0  0  0  0  0  0  0  0
  1  2  1  0
  2  3  2  0
  3  8  1  0
  3  4  1  0
  5  4  2  0
  6  5  1  0
  7  2  1  0
  7  6  2  0
 10  9  2  0
 10 11  1  0
 10  1  1  0
 12 10  1  0
 14 13  1  0
 15 14  1  0
 16 15  1  0
 16 17  1  0
 17 12  1  0
 17 13  1  0
  4 18  1  0
  6 19  1  0
  8 20  1  0
  8 21  1  0
 11 22  1  0
 13 23  1  0
 14 24  1  0
 14 25  1  0
 15 26  1  0
 15 27  1  0
 16 28  1  0
 16 29  1  0
 17 30  1  6
M  ISO  8  18  14  19  14  22   3  23   5  24  13  25  13  26  13  27  13
M  ISO  3  28  13  29  13  30  13
M  END
>  <minimizedAffinity>  (1) 
-3.94001055

>  <minimizedRMSD>  (1) 
2.11102152

$$$$
