
     RDKit          3D

 20 20  0  0  0  0  0  0  0  0999 V2000
   36.8300   29.8070   49.2650 C   0  0  0  0  0  0  0  0  0  0  0  0
   37.4960   30.2900   50.3840 C   0  0  0  0  0  0  0  0  0  0  0  0
   38.3940   31.3390   50.2320 C   0  0  0  0  0  0  0  0  0  0  0  0
   38.5840   31.8520   48.9820 N   0  0  0  0  0  0  0  0  0  0  0  0
   37.9260   31.3690   47.9040 C   0  0  0  0  0  0  0  0  0  0  0  0
   37.0440   30.3410   48.0450 N   0  0  0  0  0  0  0  0  0  0  0  0
   37.1720   29.6370   51.5800 N   0  0  0  0  0  0  0  0  0  0  0  0
   35.9050   28.7720   49.2330 O   0  0  0  0  0  0  0  0  0  0  0  0
   33.3160   28.0910   49.2620 O   0  0  0  0  0  0  0  0  0  0  0  0
   34.3150   28.9850   48.5900 P   0  0  1  0  0  0  0  0  0  0  0  0
   33.9420   30.6130   48.8010 O   0  0  0  0  0  0  0  0  0  0  0  0
   34.3180   28.5540   46.9530 O   0  0  0  0  0  0  0  0  0  0  0  0
   34.2270   29.4150   45.8830 C   0  0  0  0  0  0  0  0  0  0  0  0
   33.3560   30.3160   46.1000 O   0  0  0  0  0  0  0  0  0  0  0  0
   38.9380   31.7457   51.0973 H   0  0  0  0  0  0  0  0  0  0  0  0
   38.1035   31.8074   46.9109 H   0  0  0  0  0  0  0  0  0  0  0  0
   37.6171   29.9275   52.4623 H   0  0  0  0  0  0  0  0  0  0  0  0
   36.4887   28.8663   51.5772 H   0  0  0  0  0  0  0  0  0  0  0  0
   33.8950   30.8181   49.7684 H   0  0  0  0  0  0  0  0  0  0  0  0
   34.8266   29.3347   44.9643 H   0  0  0  0  0  0  0  0  0  0  0  0
  1  2  2  0
  2  7  1  0
  3  2  1  0
  4  3  2  0
  5  6  2  0
  5  4  1  0
  6  1  1  0
  8  1  1  0
 10 11  1  0
 10  8  1  0
 10  9  2  0
 12 10  1  0
 13 14  2  0
 13 12  1  0
  3 15  1  0
  5 16  1  0
  7 17  1  0
  7 18  1  0
 11 19  1  0
 13 20  1  0
M  ISO  4  15  14  16  14  19   3  20   6
M  END
>  <minimizedAffinity>  (1) 
-3.88211465

>  <minimizedRMSD>  (1) 
2.20622563

$$$$
