
     RDKit          3D

 26 27  0  0  0  0  0  0  0  0999 V2000
   34.6010   30.5220   48.7210 O   0  0  0  0  0  0  0  0  0  0  0  0
   35.8270   30.6020   49.3660 C   0  0  0  0  0  0  0  0  0  0  0  0
   36.1810   29.9600   50.5470 C   0  0  0  0  0  0  0  0  0  0  0  0
   37.4550   30.1500   51.0570 C   0  0  0  0  0  0  0  0  0  0  0  0
   38.3270   30.9610   50.3870 N   0  0  0  0  0  0  0  0  0  0  0  0
   37.9390   31.5730   49.2310 C   0  0  0  0  0  0  0  0  0  0  0  0
   36.6970   31.3940   48.7250 N   0  0  0  0  0  0  0  0  0  0  0  0
   35.1640   29.1560   51.1150 N   0  0  0  0  0  0  0  0  0  0  0  0
   35.1230   29.5260   46.2800 O   0  0  0  0  0  0  0  0  0  0  0  0
   34.2760   29.3210   47.5210 P   0  0  1  0  0  0  0  0  0  0  0  0
   34.5900   27.8320   48.2430 O   0  0  0  0  0  0  0  0  0  0  0  0
   32.6670   29.4490   47.0280 O   0  0  0  0  0  0  0  0  0  0  0  0
   32.2470   30.0530   45.8640 C   0  0  0  0  0  0  0  0  0  0  0  0
   31.9040   29.2540   44.7890 C   0  0  0  0  0  0  0  0  0  0  0  0
   31.4850   29.8920   43.6250 C   0  0  0  0  0  0  0  0  0  0  0  0
   31.4310   31.2440   43.5940 N   0  0  0  0  0  0  0  0  0  0  0  0
   31.7680   32.0030   44.6460 C   0  0  0  0  0  0  0  0  0  0  0  0
   32.1810   31.4110   45.7940 N   0  0  0  0  0  0  0  0  0  0  0  0
   37.7608   29.6540   51.9900 H   0  0  0  0  0  0  0  0  0  0  0  0
   38.6492   32.2242   48.7004 H   0  0  0  0  0  0  0  0  0  0  0  0
   35.3412   28.6441   51.9911 H   0  0  0  0  0  0  0  0  0  0  0  0
   34.2467   29.0828   50.6523 H   0  0  0  0  0  0  0  0  0  0  0  0
   34.5690   27.9318   49.2277 H   0  0  0  0  0  0  0  0  0  0  0  0
   31.9600   28.1572   44.8512 H   0  0  0  0  0  0  0  0  0  0  0  0
   31.2009   29.3038   42.7400 H   0  0  0  0  0  0  0  0  0  0  0  0
   31.7099   33.0994   44.5786 H   0  0  0  0  0  0  0  0  0  0  0  0
  1  2  1  0
  2  3  2  0
  3  4  1  0
  3  8  1  0
  5  4  2  0
  6  5  1  0
  7  6  2  0
  7  2  1  0
 10  9  2  0
 10 11  1  0
 10  1  1  0
 12 10  1  0
 13 12  1  0
 14 13  2  0
 15 14  1  0
 16 15  2  0
 16 17  1  0
 17 18  2  0
 18 13  1  0
  4 19  1  0
  6 20  1  0
  8 21  1  0
  8 22  1  0
 11 23  1  0
 14 24  1  0
 15 25  1  0
 17 26  1  0
M  ISO  6  19  14  20  14  23   3  24  14  25  14  26  14
M  END
>  <minimizedAffinity>  (1) 
-3.84786916

>  <minimizedRMSD>  (1) 
1.21900153

$$$$
