
     RDKit          3D

 19 19  0  0  0  0  0  0  0  0999 V2000
   36.0680   30.2950   50.0210 C   0  0  0  0  0  0  0  0  0  0  0  0
   35.1220   29.5960   49.1120 C   0  0  0  0  0  0  0  0  0  0  0  0
   34.6740   30.2870   47.9880 C   0  0  0  0  0  0  0  0  0  0  0  0
   33.7830   29.6450   47.1220 C   0  0  0  0  0  0  0  0  0  0  0  0
   33.4060   28.3700   47.4360 N   0  0  0  0  0  0  0  0  0  0  0  0
   33.8570   27.7260   48.5310 C   0  0  0  0  0  0  0  0  0  0  0  0
   34.7130   28.3420   49.3640 N   0  0  0  0  0  0  0  0  0  0  0  0
   36.3370   31.5860   49.6270 O   0  0  0  0  0  0  0  0  0  0  0  0
   38.4010   31.1710   48.0440 O   0  0  0  0  0  0  0  0  0  0  0  0
   38.0080   31.7120   49.3980 P   0  0  0  0  0  0  0  0  0  0  0  0
   38.8120   30.7590   50.5640 O   0  0  0  0  0  0  0  0  0  0  0  0
   38.5220   33.3180   49.5040 O   0  0  0  0  0  0  0  0  0  0  0  0
   35.6307   30.3203   51.0300 H   0  0  0  0  0  0  0  0  0  0  0  0
   37.0171   29.7395   49.9989 H   0  0  0  0  0  0  0  0  0  0  0  0
   35.0133   31.3138   47.7864 H   0  0  0  0  0  0  0  0  0  0  0  0
   33.4001   30.1479   46.2217 H   0  0  0  0  0  0  0  0  0  0  0  0
   33.5252   26.6987   48.7422 H   0  0  0  0  0  0  0  0  0  0  0  0
   38.5563   31.0621   51.4711 H   0  0  0  0  0  0  0  0  0  0  0  0
   38.6045   33.5759   50.4562 H   0  0  0  0  0  0  0  0  0  0  0  0
  2  7  2  0
  2  1  1  0
  3  2  1  0
  4  5  1  0
  4  3  2  0
  5  6  2  0
  6  7  1  0
  8  1  1  0
  9 10  2  0
 10 12  1  0
 10  8  1  0
 10 11  1  0
  1 13  1  0
  1 14  1  0
  3 15  1  0
  4 16  1  0
  6 17  1  0
 11 18  1  0
 12 19  1  0
M  ISO  7  13   8  14   8  15  14  16  14  17  14  18   3  19   3
M  END
>  <minimizedAffinity>  (1) 
-3.86462402

>  <minimizedRMSD>  (1) 
4.15178299

$$$$
