
     RDKit          3D

 29 30  0  0  0  0  0  0  0  0999 V2000
   39.6990   33.0590   46.2330 O   0  0  0  0  0  0  0  0  0  0  0  0
   38.5450   32.1540   45.8610 P   0  0  2  0  0  0  0  0  0  0  0  0
   37.5830   33.0100   44.7300 O   0  0  0  0  0  0  0  0  0  0  0  0
   37.6220   31.7930   47.2200 O   0  0  0  0  0  0  0  0  0  0  0  0
   38.4250   31.1270   48.1100 C   0  0  0  0  0  0  0  0  0  0  0  0
   37.6820   30.5430   49.2530 C   0  0  0  0  0  0  0  0  0  0  0  0
   36.5570   29.7900   48.9580 C   0  0  0  0  0  0  0  0  0  0  0  0
   35.8300   29.2210   50.0150 C   0  0  0  0  0  0  0  0  0  0  0  0
   36.2830   29.4510   51.2740 N   0  0  0  0  0  0  0  0  0  0  0  0
   37.3780   30.1860   51.5410 C   0  0  0  0  0  0  0  0  0  0  0  0
   38.0660   30.7240   50.5260 N   0  0  0  0  0  0  0  0  0  0  0  0
   39.1640   30.7700   45.1300 O   0  0  0  0  0  0  0  0  0  0  0  0
   40.7320   29.8940   42.7940 Cl  0  0  0  0  0  0  0  0  0  0  0  0
   39.0450   29.5980   43.1190 C   0  0  0  0  0  0  0  0  0  0  0  0
   38.3690   30.0460   44.2510 C   0  0  0  0  0  0  0  0  0  0  0  0
   37.0160   29.7610   44.4290 C   0  0  0  0  0  0  0  0  0  0  0  0
   36.3890   29.0250   43.4460 C   0  0  0  0  0  0  0  0  0  0  0  0
   37.0470   28.5760   42.3210 C   0  0  0  0  0  0  0  0  0  0  0  0
   38.3860   28.8620   42.1500 C   0  0  0  0  0  0  0  0  0  0  0  0
   36.9376   33.5843   45.2135 H   0  0  0  0  0  0  0  0  0  0  0  0
   38.9377   30.3136   47.5756 H   0  0  0  0  0  0  0  0  0  0  0  0
   39.1301   31.8629   48.5238 H   0  0  0  0  0  0  0  0  0  0  0  0
   36.2398   29.6410   47.9153 H   0  0  0  0  0  0  0  0  0  0  0  0
   34.9311   28.6143   49.8312 H   0  0  0  0  0  0  0  0  0  0  0  0
   37.7038   30.3429   52.5799 H   0  0  0  0  0  0  0  0  0  0  0  0
   36.4703   30.1094   45.3183 H   0  0  0  0  0  0  0  0  0  0  0  0
   35.3216   28.7867   43.5642 H   0  0  0  0  0  0  0  0  0  0  0  0
   36.5063   27.9916   41.5620 H   0  0  0  0  0  0  0  0  0  0  0  0
   38.9219   28.5100   41.2562 H   0  0  0  0  0  0  0  0  0  0  0  0
  2  1  2  0
  2  4  1  0
  3  2  1  0
  4  5  1  0
  5  6  1  0
  6 11  1  0
  7  6  2  0
  7  8  1  0
  8  9  2  0
  9 10  1  0
 11 10  2  0
 12  2  1  0
 13 14  1  0
 14 15  2  0
 15 16  1  0
 15 12  1  0
 17 16  2  0
 18 17  1  0
 19 18  2  0
 19 14  1  0
  3 20  1  0
  5 21  1  0
  5 22  1  0
  7 23  1  0
  8 24  1  0
 10 25  1  0
 16 26  1  0
 17 27  1  0
 18 28  1  0
 19 29  1  0
M  ISO  8  20   3  21   8  22   8  23  14  24  14  25  14  26  14  27  14
M  ISO  2  28  14  29  14
M  END
>  <minimizedAffinity>  (1) 
-4.73088551

>  <minimizedRMSD>  (1) 
6.98940325

$$$$
