
     RDKit          3D

 26 27  0  0  0  0  0  0  0  0999 V2000
   35.4050   29.7600   50.2370 C   0  0  0  0  0  0  0  0  0  0  0  0
   34.4890   29.3890   49.1310 C   0  0  0  0  0  0  0  0  0  0  0  0
   34.4520   30.1910   48.0000 C   0  0  0  0  0  0  0  0  0  0  0  0
   33.5960   29.8500   46.9600 C   0  0  0  0  0  0  0  0  0  0  0  0
   32.8290   28.7410   47.0980 N   0  0  0  0  0  0  0  0  0  0  0  0
   32.8760   27.9690   48.2090 C   0  0  0  0  0  0  0  0  0  0  0  0
   33.7050   28.2930   49.2260 N   0  0  0  0  0  0  0  0  0  0  0  0
   36.0860   30.9430   49.9890 O   0  0  0  0  0  0  0  0  0  0  0  0
   37.9510   30.1160   48.3320 O   0  0  0  0  0  0  0  0  0  0  0  0
   37.7130   30.5480   49.7500 P   0  0  2  0  0  0  0  0  0  0  0  0
   38.1150   29.2370   50.7620 O   0  0  0  0  0  0  0  0  0  0  0  0
   38.7040   31.8840   50.0910 O   0  0  0  0  0  0  0  0  0  0  0  0
   38.3660   32.9130   49.2310 C   0  0  0  0  0  0  0  0  0  0  0  0
   39.3610   34.0870   49.3130 C   0  0  0  0  0  0  0  0  0  0  0  0
   39.1660   33.2690   48.0420 C   0  0  0  0  0  0  0  0  0  0  0  0
   34.8157   29.8787   51.1582 H   0  0  0  0  0  0  0  0  0  0  0  0
   36.1521   28.9586   50.3351 H   0  0  0  0  0  0  0  0  0  0  0  0
   35.0907   31.0836   47.9274 H   0  0  0  0  0  0  0  0  0  0  0  0
   33.5422   30.4638   46.0488 H   0  0  0  0  0  0  0  0  0  0  0  0
   32.2381   27.0760   48.2842 H   0  0  0  0  0  0  0  0  0  0  0  0
   38.0304   29.5130   51.7090 H   0  0  0  0  0  0  0  0  0  0  0  0
   37.2879   32.7181   49.3290 H   0  0  0  0  0  0  0  0  0  0  0  0
   38.9959   35.1231   49.3695 H   0  0  0  0  0  0  0  0  0  0  0  0
   40.2108   34.3611   49.9554 H   0  0  0  0  0  0  0  0  0  0  0  0
   39.9646   32.5940   47.7004 H   0  0  0  0  0  0  0  0  0  0  0  0
   38.9210   33.5186   46.9991 H   0  0  0  0  0  0  0  0  0  0  0  0
  2  7  1  0
  2  1  1  0
  3  2  2  0
  4  5  2  0
  4  3  1  0
  5  6  1  0
  6  7  2  0
  8  1  1  0
 10  9  2  0
 10  8  1  0
 10 12  1  0
 10 11  1  0
 13 14  1  0
 13 12  1  0
 15 13  1  0
 15 14  1  0
  1 16  1  0
  1 17  1  0
  3 18  1  0
  4 19  1  0
  6 20  1  0
 11 21  1  0
 13 22  1  0
 14 23  1  0
 14 24  1  0
 15 25  1  0
 15 26  1  0
M  ISO  8  16   8  17   8  18  14  19  14  20  14  21   3  22  13  23  13
M  ISO  3  24  13  25  13  26  13
M  END
>  <minimizedAffinity>  (1) 
-4.46764565

>  <minimizedRMSD>  (1) 
1.27716601

$$$$
