
     RDKit          3D

 38 40  0  0  1  0  0  0  0  0999 V2000
   36.8340   31.5870   48.6820 O   0  0  0  0  0  0  0  0  0  0  0  0
   38.8520   32.4030   47.8460 C   0  0  2  0  0  0  0  0  0  0  0  0
   38.1950   31.3870   48.7550 C   0  0  1  0  0  0  0  0  0  0  0  0
   38.7210   31.9190   50.0900 C   0  0  0  0  0  0  0  0  0  0  0  0
   38.3880   33.2660   49.9840 O   0  0  0  0  0  0  0  0  0  0  0  0
   38.6550   33.6580   48.6950 C   0  0  0  0  0  0  0  0  0  0  0  0
   38.1290   32.4460   46.6590 O   0  0  0  0  0  0  0  0  0  0  0  0
   38.8580   32.1220   45.4890 C   0  0  0  0  0  0  0  0  0  0  0  0
   40.0510   31.3950   45.4380 C   0  0  0  0  0  0  0  0  0  0  0  0
   40.6350   31.1640   44.2280 C   0  0  0  0  0  0  0  0  0  0  0  0
   39.9970   31.6820   43.0410 C   0  0  0  0  0  0  0  0  0  0  0  0
   38.5560   32.5010   43.6510 S   0  0  0  0  0  0  0  0  0  0  0  0
   35.9170   29.8530   46.9760 O   0  0  0  0  0  0  0  0  0  0  0  0
   35.9690   30.1680   48.4520 P   0  0  1  0  0  0  0  0  0  0  0  0
   36.7530   28.8710   49.2390 O   0  0  0  0  0  0  0  0  0  0  0  0
   34.3950   30.3340   49.0730 O   0  0  0  0  0  0  0  0  0  0  0  0
   34.1270   29.1910   49.7990 C   0  0  0  0  0  0  0  0  0  0  0  0
   33.2660   28.2230   49.0850 C   0  0  0  0  0  0  0  0  0  0  0  0
   33.8970   27.3330   48.2490 C   0  0  0  0  0  0  0  0  0  0  0  0
   33.1410   26.3940   47.5450 C   0  0  0  0  0  0  0  0  0  0  0  0
   31.7910   26.4180   47.7350 N   0  0  0  0  0  0  0  0  0  0  0  0
   31.1960   27.3000   48.5600 C   0  0  0  0  0  0  0  0  0  0  0  0
   31.9300   28.2100   49.2410 N   0  0  0  0  0  0  0  0  0  0  0  0
   39.8980   32.2283   47.5537 H   0  0  0  0  0  0  0  0  0  0  0  0
   38.3871   30.3225   48.5550 H   0  0  0  0  0  0  0  0  0  0  0  0
   38.2152   31.4430   50.9429 H   0  0  0  0  0  0  0  0  0  0  0  0
   39.7895   31.7268   50.2674 H   0  0  0  0  0  0  0  0  0  0  0  0
   39.5691   34.2695   48.6734 H   0  0  0  0  0  0  0  0  0  0  0  0
   37.8218   34.2575   48.2996 H   0  0  0  0  0  0  0  0  0  0  0  0
   40.5121   31.0146   46.3614 H   0  0  0  0  0  0  0  0  0  0  0  0
   41.5734   30.5944   44.1575 H   0  0  0  0  0  0  0  0  0  0  0  0
   40.3313   31.5882   41.9972 H   0  0  0  0  0  0  0  0  0  0  0  0
   36.6820   28.9885   50.2194 H   0  0  0  0  0  0  0  0  0  0  0  0
   35.0814   28.6982   50.0363 H   0  0  0  0  0  0  0  0  0  0  0  0
   33.5810   29.5032   50.7015 H   0  0  0  0  0  0  0  0  0  0  0  0
   34.9908   27.3604   48.1354 H   0  0  0  0  0  0  0  0  0  0  0  0
   33.6132   25.6674   46.8674 H   0  0  0  0  0  0  0  0  0  0  0  0
   30.1029   27.2806   48.6815 H   0  0  0  0  0  0  0  0  0  0  0  0
  1  3  1  0
  2  6  1  0
  2  3  1  0
  3  4  1  0
  5  4  1  0
  6  5  1  0
  7  2  1  0
  8  7  1  0
  9  8  2  0
 10  9  1  0
 11 12  1  0
 11 10  2  0
 12  8  1  0
 14 13  2  0
 14  1  1  0
 14 16  1  0
 14 15  1  0
 16 17  1  0
 18 23  1  0
 18 17  1  0
 19 18  2  0
 20 21  2  0
 20 19  1  0
 21 22  1  0
 22 23  2  0
  2 24  1  6
  3 25  1  6
  4 26  1  0
  4 27  1  0
  6 28  1  0
  6 29  1  0
  9 30  1  0
 10 31  1  0
 11 32  1  0
 15 33  1  0
 17 34  1  0
 17 35  1  0
 19 36  1  0
 20 37  1  0
 22 38  1  0
M  ISO  8  24  13  25  13  26  13  27  13  28  13  29  13  30  14  31  14
M  ISO  7  32  14  33   3  34   8  35   8  36  14  37  14  38  14
M  END
>  <minimizedAffinity>  (1) 
-4.70051956

>  <minimizedRMSD>  (1) 
0.200116977

$$$$
