
     RDKit          3D

 41 44  0  0  0  0  0  0  0  0999 V2000
   35.5820   29.6300   48.4540 C   0  0  0  0  0  0  0  0  0  0  0  0
   35.3650   28.7230   49.4310 C   0  0  0  0  0  0  0  0  0  0  0  0
   34.5170   27.7020   49.2530 C   0  0  0  0  0  0  0  0  0  0  0  0
   33.8680   27.5840   48.0640 N   0  0  0  0  0  0  0  0  0  0  0  0
   34.0900   28.4820   47.1100 C   0  0  0  0  0  0  0  0  0  0  0  0
   34.9370   29.5070   47.2840 N   0  0  0  0  0  0  0  0  0  0  0  0
   31.9950   27.9920   45.9240 C   0  0  0  0  0  0  0  0  0  0  0  0
   33.3660   28.2480   45.8810 C   0  0  0  0  0  0  0  0  0  0  0  0
   34.1130   28.2720   44.7200 C   0  0  0  0  0  0  0  0  0  0  0  0
   33.4850   28.0270   43.5160 C   0  0  0  0  0  0  0  0  0  0  0  0
   32.1360   27.7640   43.4620 C   0  0  0  0  0  0  0  0  0  0  0  0
   31.4870   27.7630   44.6520 C   0  0  0  0  0  0  0  0  0  0  0  0
   31.0590   27.9770   47.3010 S   0  0  0  0  0  0  0  0  0  0  0  0
   30.2770   26.6590   46.9790 O   0  0  0  0  0  0  0  0  0  0  0  0
   30.1010   29.1360   47.2020 O   0  0  0  0  0  0  0  0  0  0  0  0
   30.8260   27.6690   48.8510 C   0  0  0  0  0  0  0  0  0  0  0  0
   30.3620   26.4430   49.3730 F   0  0  0  0  0  0  0  0  0  0  0  0
   29.5820   28.3170   49.3020 F   0  0  0  0  0  0  0  0  0  0  0  0
   31.4820   28.4180   49.8690 F   0  0  0  0  0  0  0  0  0  0  0  0
   37.3240   32.5850   49.7570 C   0  0  0  0  0  0  0  0  0  0  0  0
   38.3240   32.8050   48.7890 C   0  0  0  0  0  0  0  0  0  0  0  0
   38.3680   31.9220   47.7030 C   0  0  0  0  0  0  0  0  0  0  0  0
   37.4530   30.9240   47.6610 N   0  0  0  0  0  0  0  0  0  0  0  0
   36.5000   30.7420   48.6200 C   0  0  0  0  0  0  0  0  0  0  0  0
   36.4480   31.5780   49.6570 N   0  0  0  0  0  0  0  0  0  0  0  0
   39.3480   32.0320   46.6310 C   0  0  0  0  0  0  0  0  0  0  0  0
   39.8330   30.9690   45.8950 C   0  0  0  0  0  0  0  0  0  0  0  0
   40.7400   31.4410   44.9690 C   0  0  0  0  0  0  0  0  0  0  0  0
   40.7890   32.7860   45.1630 N   0  0  0  0  0  0  0  0  0  0  0  0
   39.9620   33.1110   46.1430 N   0  0  0  0  0  0  0  0  0  0  0  0
   35.8942   28.8248   50.3899 H   0  0  0  0  0  0  0  0  0  0  0  0
   34.3480   26.9699   50.0564 H   0  0  0  0  0  0  0  0  0  0  0  0
   35.1920   28.4832   44.7543 H   0  0  0  0  0  0  0  0  0  0  0  0
   34.0718   28.0422   42.5857 H   0  0  0  0  0  0  0  0  0  0  0  0
   31.6165   27.5669   42.5127 H   0  0  0  0  0  0  0  0  0  0  0  0
   30.4086   27.5515   44.6034 H   0  0  0  0  0  0  0  0  0  0  0  0
   37.2613   33.2619   50.6218 H   0  0  0  0  0  0  0  0  0  0  0  0
   39.0397   33.6351   48.8824 H   0  0  0  0  0  0  0  0  0  0  0  0
   39.5430   29.9160   46.0260 H   0  0  0  0  0  0  0  0  0  0  0  0
   41.3044   30.8535   44.2299 H   0  0  0  0  0  0  0  0  0  0  0  0
   41.3756   33.4456   44.6323 H   0  0  0  0  0  0  0  0  0  0  0  0
  1 24  1  0
  1  2  2  0
  3  2  1  0
  4  3  2  0
  5  6  2  0
  5  4  1  0
  6  1  1  0
  7 13  1  0
  8  7  2  0
  8  5  1  0
  9  8  1  0
 10  9  2  0
 11 10  1  0
 11 12  2  0
 12  7  1  0
 13 16  1  0
 14 13  2  0
 15 13  2  0
 16 18  1  0
 16 17  1  0
 16 19  1  0
 21 20  2  0
 22 21  1  0
 23 22  2  0
 23 24  1  0
 24 25  2  0
 25 20  1  0
 26 22  1  0
 27 26  1  0
 28 29  1  0
 28 27  2  0
 29 30  1  0
 30 26  2  0
  2 31  1  0
  3 32  1  0
  9 33  1  0
 10 34  1  0
 11 35  1  0
 12 36  1  0
 20 37  1  0
 21 38  1  0
 27 39  1  0
 28 40  1  0
 29 41  1  0
M  ISO  8  31  14  32  14  33  14  34  14  35  14  36  14  37  14  38  14
M  ISO  3  39  14  40  14  41   9
M  END
>  <minimizedAffinity>  (1) 
-6.53665113

>  <minimizedRMSD>  (1) 
0.398517579

$$$$
