
     RDKit          3D

 45 48  0  0  1  0  0  0  0  0999 V2000
   35.4840   29.5100   48.3190 C   0  0  0  0  0  0  0  0  0  0  0  0
   35.2670   28.7420   49.4090 C   0  0  0  0  0  0  0  0  0  0  0  0
   34.3860   27.7310   49.3790 C   0  0  0  0  0  0  0  0  0  0  0  0
   33.7060   27.4830   48.2280 N   0  0  0  0  0  0  0  0  0  0  0  0
   33.9290   28.2440   47.1650 C   0  0  0  0  0  0  0  0  0  0  0  0
   34.8090   29.2570   47.1890 N   0  0  0  0  0  0  0  0  0  0  0  0
   31.7950   27.6750   46.0920 C   0  0  0  0  0  0  0  0  0  0  0  0
   33.1720   27.8770   45.9900 C   0  0  0  0  0  0  0  0  0  0  0  0
   33.8920   27.7270   44.8220 C   0  0  0  0  0  0  0  0  0  0  0  0
   33.2280   27.3520   43.6740 C   0  0  0  0  0  0  0  0  0  0  0  0
   31.8720   27.1290   43.6770 C   0  0  0  0  0  0  0  0  0  0  0  0
   31.2490   27.3020   44.8700 C   0  0  0  0  0  0  0  0  0  0  0  0
   30.8890   27.8670   47.4760 S   0  0  0  0  0  0  0  0  0  0  0  0
   29.9360   26.6490   47.2470 O   0  0  0  0  0  0  0  0  0  0  0  0
   30.0900   29.1360   47.3170 O   0  0  0  0  0  0  0  0  0  0  0  0
   30.6490   27.6870   49.0460 C   0  0  0  0  0  0  0  0  0  0  0  0
   30.1050   26.5360   49.6540 F   0  0  0  0  0  0  0  0  0  0  0  0
   29.4560   28.4480   49.4530 F   0  0  0  0  0  0  0  0  0  0  0  0
   31.3610   28.4600   50.0050 F   0  0  0  0  0  0  0  0  0  0  0  0
   37.5380   32.3750   49.3410 C   0  0  0  0  0  0  0  0  0  0  0  0
   38.2880   32.6450   48.1800 C   0  0  0  0  0  0  0  0  0  0  0  0
   38.0640   31.8300   47.0700 C   0  0  0  0  0  0  0  0  0  0  0  0
   37.1420   30.8320   47.1780 N   0  0  0  0  0  0  0  0  0  0  0  0
   36.4350   30.6040   48.3240 C   0  0  0  0  0  0  0  0  0  0  0  0
   36.6410   31.3790   49.3970 N   0  0  0  0  0  0  0  0  0  0  0  0
   40.1710   33.8880   46.7470 O   0  0  0  0  0  0  0  0  0  0  0  0
   40.0600   32.8590   46.0190 C   0  0  0  0  0  0  0  0  0  0  0  0
   38.8280   32.0840   45.8400 C   0  0  1  0  0  0  0  0  0  0  0  0
   39.3850   30.7810   45.2520 C   0  0  0  0  0  0  0  0  0  0  0  0
   40.5120   31.3290   44.3760 C   0  0  0  0  0  0  0  0  0  0  0  0
   41.1560   32.3100   45.2580 N   0  0  0  0  0  0  0  0  0  0  0  0
   35.8217   28.9491   50.3360 H   0  0  0  0  0  0  0  0  0  0  0  0
   34.2162   27.1118   50.2722 H   0  0  0  0  0  0  0  0  0  0  0  0
   34.9776   27.9038   44.8077 H   0  0  0  0  0  0  0  0  0  0  0  0
   33.7936   27.2290   42.7386 H   0  0  0  0  0  0  0  0  0  0  0  0
   31.3264   26.8293   42.7701 H   0  0  0  0  0  0  0  0  0  0  0  0
   30.1638   27.1225   44.8696 H   0  0  0  0  0  0  0  0  0  0  0  0
   37.6929   33.0017   50.2317 H   0  0  0  0  0  0  0  0  0  0  0  0
   39.0205   33.4650   48.1496 H   0  0  0  0  0  0  0  0  0  0  0  0
   38.0915   32.6159   45.2198 H   0  0  0  0  0  0  0  0  0  0  0  0
   39.7692   30.1130   46.0370 H   0  0  0  0  0  0  0  0  0  0  0  0
   38.6457   30.1673   44.7165 H   0  0  0  0  0  0  0  0  0  0  0  0
   41.2142   30.5326   44.0883 H   0  0  0  0  0  0  0  0  0  0  0  0
   40.1585   31.7596   43.4275 H   0  0  0  0  0  0  0  0  0  0  0  0
   42.1558   32.5501   45.3192 H   0  0  0  0  0  0  0  0  0  0  0  0
  1 24  1  0
  1  2  2  0
  3  2  1  0
  4  3  2  0
  5  6  2  0
  5  4  1  0
  6  1  1  0
  7 13  1  0
  8  7  2  0
  8  5  1  0
  9  8  1  0
 10 11  1  0
 10  9  2  0
 11 12  2  0
 12  7  1  0
 13 16  1  0
 14 13  2  0
 15 13  2  0
 16 18  1  0
 16 17  1  0
 16 19  1  0
 20 25  2  0
 21 20  1  0
 22 23  1  0
 22 21  2  0
 23 24  2  0
 24 25  1  0
 27 26  2  0
 28 27  1  0
 28 22  1  0
 29 28  1  0
 30 29  1  0
 30 31  1  0
 31 27  1  0
  2 32  1  0
  3 33  1  0
  9 34  1  0
 10 35  1  0
 11 36  1  0
 12 37  1  0
 20 38  1  0
 21 39  1  0
 28 40  1  6
 29 41  1  0
 29 42  1  0
 30 43  1  0
 30 44  1  0
 31 45  1  0
M  ISO  8  32  14  33  14  34  14  35  14  36  14  37  14  38  14  39  14
M  ISO  6  40  13  41  13  42  13  43  13  44  13  45  10
M  END
>  <minimizedAffinity>  (1) 
-6.49295187

>  <minimizedRMSD>  (1) 
0.889297962

$$$$
