
     RDKit          3D

 45 48  0  0  1  0  0  0  0  0999 V2000
   35.3270   29.7540   48.5400 C   0  0  0  0  0  0  0  0  0  0  0  0
   34.8430   29.4610   49.7660 C   0  0  0  0  0  0  0  0  0  0  0  0
   33.8530   28.5760   49.9250 C   0  0  0  0  0  0  0  0  0  0  0  0
   33.3300   27.9630   48.8290 N   0  0  0  0  0  0  0  0  0  0  0  0
   33.8130   28.2580   47.6280 C   0  0  0  0  0  0  0  0  0  0  0  0
   34.8070   29.1450   47.4640 N   0  0  0  0  0  0  0  0  0  0  0  0
   31.8420   27.2350   46.5820 C   0  0  0  0  0  0  0  0  0  0  0  0
   33.2040   27.5370   46.5370 C   0  0  0  0  0  0  0  0  0  0  0  0
   34.0440   27.1690   45.5050 C   0  0  0  0  0  0  0  0  0  0  0  0
   33.5290   26.4560   44.4400 C   0  0  0  0  0  0  0  0  0  0  0  0
   32.1940   26.1130   44.4030 C   0  0  0  0  0  0  0  0  0  0  0  0
   31.4480   26.5190   45.4600 C   0  0  0  0  0  0  0  0  0  0  0  0
   30.7940   27.6810   47.7990 S   0  0  0  0  0  0  0  0  0  0  0  0
   29.6610   26.6620   47.4480 O   0  0  0  0  0  0  0  0  0  0  0  0
   30.2990   29.0670   47.4720 O   0  0  0  0  0  0  0  0  0  0  0  0
   30.2860   27.6410   49.3110 C   0  0  0  0  0  0  0  0  0  0  0  0
   29.7890   26.5030   49.9740 F   0  0  0  0  0  0  0  0  0  0  0  0
   28.9490   28.2570   49.3970 F   0  0  0  0  0  0  0  0  0  0  0  0
   30.6970   28.6280   50.2600 F   0  0  0  0  0  0  0  0  0  0  0  0
   37.7710   32.4450   49.0430 C   0  0  0  0  0  0  0  0  0  0  0  0
   38.4710   32.4530   47.8200 C   0  0  0  0  0  0  0  0  0  0  0  0
   38.0830   31.5300   46.8480 C   0  0  0  0  0  0  0  0  0  0  0  0
   37.0580   30.6860   47.1440 N   0  0  0  0  0  0  0  0  0  0  0  0
   36.4040   30.7070   48.3420 C   0  0  0  0  0  0  0  0  0  0  0  0
   36.7710   31.5870   49.2730 N   0  0  0  0  0  0  0  0  0  0  0  0
   38.7820   31.4960   45.5480 C   0  0  1  0  0  0  0  0  0  0  0  0
   38.6330   32.7340   44.7290 C   0  0  0  0  0  0  0  0  0  0  0  0
   40.0150   33.3360   44.7210 C   0  0  0  0  0  0  0  0  0  0  0  0
   40.9190   32.3560   45.0830 O   0  0  0  0  0  0  0  0  0  0  0  0
   40.2560   31.4170   45.8450 C   0  0  0  0  0  0  0  0  0  0  0  0
   35.2703   29.9587   50.6490 H   0  0  0  0  0  0  0  0  0  0  0  0
   33.4666   28.3467   50.9291 H   0  0  0  0  0  0  0  0  0  0  0  0
   35.1098   27.4401   45.5306 H   0  0  0  0  0  0  0  0  0  0  0  0
   34.1906   26.1588   43.6130 H   0  0  0  0  0  0  0  0  0  0  0  0
   31.7606   25.5446   43.5669 H   0  0  0  0  0  0  0  0  0  0  0  0
   30.3839   26.2429   45.4233 H   0  0  0  0  0  0  0  0  0  0  0  0
   38.0539   33.1620   49.8278 H   0  0  0  0  0  0  0  0  0  0  0  0
   39.2931   33.1609   47.6382 H   0  0  0  0  0  0  0  0  0  0  0  0
   38.3536   30.6507   44.9895 H   0  0  0  0  0  0  0  0  0  0  0  0
   38.3072   32.4897   43.7071 H   0  0  0  0  0  0  0  0  0  0  0  0
   37.8751   33.4205   45.1343 H   0  0  0  0  0  0  0  0  0  0  0  0
   40.2529   33.7070   43.7132 H   0  0  0  0  0  0  0  0  0  0  0  0
   40.0653   34.1769   45.4284 H   0  0  0  0  0  0  0  0  0  0  0  0
   40.4285   31.6198   46.9123 H   0  0  0  0  0  0  0  0  0  0  0  0
   40.6302   30.4112   45.6034 H   0  0  0  0  0  0  0  0  0  0  0  0
  1  2  2  0
  2  3  1  0
  4  3  2  0
  5  4  1  0
  6  5  2  0
  6  1  1  0
  7 13  1  0
  8  7  2  0
  8  5  1  0
  9  8  1  0
 10  9  2  0
 11 10  1  0
 11 12  2  0
 12  7  1  0
 13 16  1  0
 14 13  2  0
 15 13  2  0
 16 18  1  0
 16 17  1  0
 16 19  1  0
 20 25  2  0
 21 20  1  0
 22 23  1  0
 22 21  2  0
 23 24  2  0
 24  1  1  0
 24 25  1  0
 26 30  1  0
 26 22  1  0
 27 26  1  0
 28 27  1  0
 28 29  1  0
 29 30  1  0
  2 31  1  0
  3 32  1  0
  9 33  1  0
 10 34  1  0
 11 35  1  0
 12 36  1  0
 20 37  1  0
 21 38  1  0
 26 39  1  6
 27 40  1  0
 27 41  1  0
 28 42  1  0
 28 43  1  0
 30 44  1  0
 30 45  1  0
M  ISO  8  31  14  32  14  33  14  34  14  35  14  36  14  37  14  38  14
M  ISO  7  39  13  40  13  41  13  42  13  43  13  44  13  45  13
M  END
>  <minimizedAffinity>  (1) 
-6.33187675

>  <minimizedRMSD>  (1) 
1.3779099

$$$$
