
     RDKit          3D

 36 38  0  0  0  0  0  0  0  0999 V2000
   35.6000   29.7530   48.4650 C   0  0  0  0  0  0  0  0  0  0  0  0
   35.4540   28.7410   49.3480 C   0  0  0  0  0  0  0  0  0  0  0  0
   34.6800   27.6850   49.0650 C   0  0  0  0  0  0  0  0  0  0  0  0
   34.0350   27.6370   47.8690 N   0  0  0  0  0  0  0  0  0  0  0  0
   34.1890   28.6390   47.0130 C   0  0  0  0  0  0  0  0  0  0  0  0
   34.9610   29.7020   47.2860 N   0  0  0  0  0  0  0  0  0  0  0  0
   37.2050   32.6120   50.1130 C   0  0  0  0  0  0  0  0  0  0  0  0
   38.0890   33.0820   49.1210 C   0  0  0  0  0  0  0  0  0  0  0  0
   38.1070   32.3990   47.9050 C   0  0  0  0  0  0  0  0  0  0  0  0
   37.2780   31.3320   47.7580 N   0  0  0  0  0  0  0  0  0  0  0  0
   36.4360   30.9070   48.7430 C   0  0  0  0  0  0  0  0  0  0  0  0
   36.4070   31.5530   49.9160 N   0  0  0  0  0  0  0  0  0  0  0  0
   38.9420   32.7630   46.8290 N   0  0  0  0  0  0  0  0  0  0  0  0
   32.1160   28.1780   45.7750 C   0  0  0  0  0  0  0  0  0  0  0  0
   33.4790   28.4770   45.7620 C   0  0  0  0  0  0  0  0  0  0  0  0
   34.2310   28.6090   44.6110 C   0  0  0  0  0  0  0  0  0  0  0  0
   33.6160   28.4370   43.3900 C   0  0  0  0  0  0  0  0  0  0  0  0
   32.2780   28.1390   43.3040 C   0  0  0  0  0  0  0  0  0  0  0  0
   31.6220   28.0290   44.4870 C   0  0  0  0  0  0  0  0  0  0  0  0
   31.1730   28.0320   47.1410 S   0  0  0  0  0  0  0  0  0  0  0  0
   30.4910   26.6790   46.7520 O   0  0  0  0  0  0  0  0  0  0  0  0
   30.1370   29.1250   47.0840 O   0  0  0  0  0  0  0  0  0  0  0  0
   30.9520   27.6380   48.6720 C   0  0  0  0  0  0  0  0  0  0  0  0
   30.5120   26.3780   49.1290 F   0  0  0  0  0  0  0  0  0  0  0  0
   29.6970   28.2360   49.1600 F   0  0  0  0  0  0  0  0  0  0  0  0
   31.5970   28.3440   49.7280 F   0  0  0  0  0  0  0  0  0  0  0  0
   35.9786   28.7848   50.3139 H   0  0  0  0  0  0  0  0  0  0  0  0
   34.5676   26.8666   49.7913 H   0  0  0  0  0  0  0  0  0  0  0  0
   37.1686   33.1318   51.0818 H   0  0  0  0  0  0  0  0  0  0  0  0
   38.7383   33.9520   49.2985 H   0  0  0  0  0  0  0  0  0  0  0  0
   38.9159   32.2240   45.9517 H   0  0  0  0  0  0  0  0  0  0  0  0
   39.5781   33.5679   46.9202 H   0  0  0  0  0  0  0  0  0  0  0  0
   35.3033   28.8475   44.6681 H   0  0  0  0  0  0  0  0  0  0  0  0
   34.2070   28.5402   42.4680 H   0  0  0  0  0  0  0  0  0  0  0  0
   31.7706   27.9985   42.3382 H   0  0  0  0  0  0  0  0  0  0  0  0
   30.5510   27.7886   44.4148 H   0  0  0  0  0  0  0  0  0  0  0  0
  1 11  1  0
  1  2  2  0
  3  2  1  0
  4  3  2  0
  5  6  2  0
  5  4  1  0
  6  1  1  0
  8  7  2  0
  9  8  1  0
 10  9  2  0
 10 11  1  0
 11 12  2  0
 12  7  1  0
 13  9  1  0
 14 20  1  0
 15 14  2  0
 15  5  1  0
 16 15  1  0
 17 16  2  0
 18 17  1  0
 18 19  2  0
 19 14  1  0
 20 23  1  0
 21 20  2  0
 22 20  2  0
 23 24  1  0
 23 25  1  0
 23 26  1  0
  2 27  1  0
  3 28  1  0
  7 29  1  0
  8 30  1  0
 13 31  1  0
 13 32  1  0
 16 33  1  0
 17 34  1  0
 18 35  1  0
 19 36  1  0
M  ISO  8  27  14  28  14  29  14  30  14  33  14  34  14  35  14  36  14
M  END
>  <minimizedAffinity>  (1) 
-5.54172945

>  <minimizedRMSD>  (1) 
0.196779251

$$$$
