
     RDKit          3D

 37 39  0  0  0  0  0  0  0  0999 V2000
   35.6350   29.7520   48.4400 C   0  0  0  0  0  0  0  0  0  0  0  0
   35.4630   28.7710   49.3520 C   0  0  0  0  0  0  0  0  0  0  0  0
   34.6650   27.7250   49.0980 C   0  0  0  0  0  0  0  0  0  0  0  0
   34.0250   27.6600   47.9010 N   0  0  0  0  0  0  0  0  0  0  0  0
   34.2030   28.6320   47.0130 C   0  0  0  0  0  0  0  0  0  0  0  0
   34.9980   29.6840   47.2540 N   0  0  0  0  0  0  0  0  0  0  0  0
   32.1310   28.1480   45.7860 C   0  0  0  0  0  0  0  0  0  0  0  0
   33.4920   28.4470   45.7670 C   0  0  0  0  0  0  0  0  0  0  0  0
   34.2440   28.5590   44.6130 C   0  0  0  0  0  0  0  0  0  0  0  0
   33.6280   28.3650   43.3960 C   0  0  0  0  0  0  0  0  0  0  0  0
   32.2950   28.0660   43.3120 C   0  0  0  0  0  0  0  0  0  0  0  0
   31.6330   27.9760   44.5000 C   0  0  0  0  0  0  0  0  0  0  0  0
   31.1860   28.0280   47.1530 S   0  0  0  0  0  0  0  0  0  0  0  0
   30.4610   26.6980   46.7630 O   0  0  0  0  0  0  0  0  0  0  0  0
   30.1850   29.1550   47.1050 O   0  0  0  0  0  0  0  0  0  0  0  0
   30.9570   27.6380   48.6840 C   0  0  0  0  0  0  0  0  0  0  0  0
   30.5300   26.3710   49.1400 F   0  0  0  0  0  0  0  0  0  0  0  0
   29.6950   28.2280   49.1660 F   0  0  0  0  0  0  0  0  0  0  0  0
   31.5880   28.3580   49.7440 F   0  0  0  0  0  0  0  0  0  0  0  0
   37.2280   32.6980   49.9540 C   0  0  0  0  0  0  0  0  0  0  0  0
   38.2050   33.0320   49.0000 C   0  0  0  0  0  0  0  0  0  0  0  0
   38.2980   32.2440   47.8590 C   0  0  0  0  0  0  0  0  0  0  0  0
   37.4360   31.1960   47.7380 N   0  0  0  0  0  0  0  0  0  0  0  0
   36.4980   30.8970   48.6810 C   0  0  0  0  0  0  0  0  0  0  0  0
   36.4050   31.6550   49.7810 N   0  0  0  0  0  0  0  0  0  0  0  0
   39.3060   32.5330   46.8060 C   0  0  0  0  0  0  0  0  0  0  0  0
   35.9859   28.8315   50.3179 H   0  0  0  0  0  0  0  0  0  0  0  0
   34.5300   26.9309   49.8471 H   0  0  0  0  0  0  0  0  0  0  0  0
   35.3162   28.7990   44.6652 H   0  0  0  0  0  0  0  0  0  0  0  0
   34.2197   28.4522   42.4728 H   0  0  0  0  0  0  0  0  0  0  0  0
   31.7903   27.9084   42.3474 H   0  0  0  0  0  0  0  0  0  0  0  0
   30.5619   27.7351   44.4318 H   0  0  0  0  0  0  0  0  0  0  0  0
   37.1370   33.3079   50.8649 H   0  0  0  0  0  0  0  0  0  0  0  0
   38.8754   33.8908   49.1520 H   0  0  0  0  0  0  0  0  0  0  0  0
   40.2611   32.8068   47.2780 H   0  0  0  0  0  0  0  0  0  0  0  0
   39.4490   31.6397   46.1803 H   0  0  0  0  0  0  0  0  0  0  0  0
   38.9540   33.3664   46.1803 H   0  0  0  0  0  0  0  0  0  0  0  0
  1 24  1  0
  1  2  2  0
  3  2  1  0
  4  3  2  0
  5  6  2  0
  5  4  1  0
  6  1  1  0
  7 13  1  0
  8  7  2  0
  8  5  1  0
  9  8  1  0
 10  9  2  0
 11 10  1  0
 11 12  2  0
 12  7  1  0
 13 16  1  0
 14 13  2  0
 15 13  2  0
 16 17  1  0
 16 18  1  0
 16 19  1  0
 21 20  2  0
 22 21  1  0
 23 22  2  0
 23 24  1  0
 24 25  2  0
 25 20  1  0
 26 22  1  0
  2 27  1  0
  3 28  1  0
  9 29  1  0
 10 30  1  0
 11 31  1  0
 12 32  1  0
 20 33  1  0
 21 34  1  0
 26 35  1  0
 26 36  1  0
 26 37  1  0
M  ISO  8  27  14  28  14  29  14  30  14  31  14  32  14  33  14  34  14
M  ISO  3  35   8  36   8  37   8
M  END
>  <minimizedAffinity>  (1) 
-5.53936338

>  <minimizedRMSD>  (1) 
0.140019059

$$$$
