
     RDKit          3D

 31 33  0  0  0  0  0  0  0  0999 V2000
   35.1820   29.7050   47.6950 C   0  0  0  0  0  0  0  0  0  0  0  0
   35.1360   28.8560   48.7960 C   0  0  0  0  0  0  0  0  0  0  0  0
   36.0180   29.0740   49.8580 C   0  0  0  0  0  0  0  0  0  0  0  0
   36.8950   30.1230   49.7610 N   0  0  0  0  0  0  0  0  0  0  0  0
   36.9080   30.9230   48.6750 C   0  0  0  0  0  0  0  0  0  0  0  0
   36.0660   30.7200   47.6550 N   0  0  0  0  0  0  0  0  0  0  0  0
   34.3340   29.5700   46.5690 N   0  0  0  0  0  0  0  0  0  0  0  0
   34.8040   29.5000   45.2030 C   0  0  0  0  0  0  0  0  0  0  0  0
   34.0390   30.3250   44.2380 C   0  0  0  0  0  0  0  0  0  0  0  0
   32.6670   30.5210   44.4920 N   0  0  0  0  0  0  0  0  0  0  0  0
   32.3790   30.7320   45.9140 C   0  0  0  0  0  0  0  0  0  0  0  0
   32.9010   29.4840   46.6000 C   0  0  0  0  0  0  0  0  0  0  0  0
   37.8510   32.0330   48.5950 C   0  0  0  0  0  0  0  0  0  0  0  0
   38.6090   32.4130   47.5300 C   0  0  0  0  0  0  0  0  0  0  0  0
   39.3670   33.5030   47.8480 N   0  0  0  0  0  0  0  0  0  0  0  0
   39.0630   33.7810   49.1150 C   0  0  0  0  0  0  0  0  0  0  0  0
   38.1460   32.9090   49.6000 N   0  0  0  0  0  0  0  0  0  0  0  0
   34.4159   28.0252   48.8303 H   0  0  0  0  0  0  0  0  0  0  0  0
   36.0087   28.4234   50.7449 H   0  0  0  0  0  0  0  0  0  0  0  0
   35.8516   29.8351   45.1842 H   0  0  0  0  0  0  0  0  0  0  0  0
   34.6761   28.4546   44.8854 H   0  0  0  0  0  0  0  0  0  0  0  0
   34.1259   29.8443   43.2524 H   0  0  0  0  0  0  0  0  0  0  0  0
   34.4835   31.3283   44.3139 H   0  0  0  0  0  0  0  0  0  0  0  0
   32.3492   31.3472   43.9654 H   0  0  0  0  0  0  0  0  0  0  0  0
   32.8994   31.6265   46.2869 H   0  0  0  0  0  0  0  0  0  0  0  0
   31.3075   30.8943   46.1028 H   0  0  0  0  0  0  0  0  0  0  0  0
   32.5626   28.5856   46.0630 H   0  0  0  0  0  0  0  0  0  0  0  0
   32.5293   29.4132   47.6329 H   0  0  0  0  0  0  0  0  0  0  0  0
   38.6105   31.9121   46.5507 H   0  0  0  0  0  0  0  0  0  0  0  0
   40.0309   34.0028   47.2395 H   0  0  0  0  0  0  0  0  0  0  0  0
   39.4992   34.6098   49.6919 H   0  0  0  0  0  0  0  0  0  0  0  0
  1  2  2  0
  2  3  1  0
  4  3  2  0
  5  4  1  0
  6  1  1  0
  6  5  2  0
  7 12  1  0
  7  1  1  0
  8  7  1  0
  9 10  1  0
  9  8  1  0
 10 11  1  0
 11 12  1  0
 13  5  1  0
 13 17  1  0
 14 15  1  0
 14 13  2  0
 15 16  1  0
 16 17  2  0
  2 18  1  0
  3 19  1  0
  8 20  1  0
  8 21  1  0
  9 22  1  0
  9 23  1  0
 10 24  1  0
 11 25  1  0
 11 26  1  0
 12 27  1  0
 12 28  1  0
 14 29  1  0
 15 30  1  0
 16 31  1  0
M  ISO  8  18  14  19  14  20  13  21  13  22  13  23  13  24   5  25  13
M  ISO  6  26  13  27  13  28  13  29  14  30   9  31  14
M  END
>  <minimizedAffinity>  (1) 
-4.98101425

>  <minimizedRMSD>  (1) 
6.80696964

$$$$
