
     RDKit          3D

 26 27  0  0  0  0  0  0  0  0999 V2000
   36.5490   29.6100   48.9290 N   0  0  0  0  0  0  0  0  0  0  0  0
   36.7510   29.0400   50.2540 C   0  0  0  0  0  0  0  0  0  0  0  0
   37.4060   29.9580   51.2170 C   0  0  0  0  0  0  0  0  0  0  0  0
   38.3480   30.8780   50.6980 N   0  0  0  0  0  0  0  0  0  0  0  0
   37.9180   31.4660   49.4190 C   0  0  0  0  0  0  0  0  0  0  0  0
   37.7350   30.2910   48.4870 C   0  0  0  0  0  0  0  0  0  0  0  0
   35.3270   29.4910   48.1930 C   0  0  0  0  0  0  0  0  0  0  0  0
   35.0960   30.1690   46.9910 C   0  0  0  0  0  0  0  0  0  0  0  0
   33.8660   29.9790   46.3570 C   0  0  0  0  0  0  0  0  0  0  0  0
   32.9560   29.1440   46.9420 N   0  0  0  0  0  0  0  0  0  0  0  0
   33.2330   28.5040   48.1210 C   0  0  0  0  0  0  0  0  0  0  0  0
   34.3950   28.6690   48.7420 N   0  0  0  0  0  0  0  0  0  0  0  0
   32.2750   27.6350   48.7210 N   0  0  0  0  0  0  0  0  0  0  0  0
   35.7692   28.7564   50.6609 H   0  0  0  0  0  0  0  0  0  0  0  0
   37.4250   28.1797   50.1287 H   0  0  0  0  0  0  0  0  0  0  0  0
   36.6135   30.5395   51.7107 H   0  0  0  0  0  0  0  0  0  0  0  0
   37.9878   29.3024   51.8816 H   0  0  0  0  0  0  0  0  0  0  0  0
   38.4800   31.6365   51.3822 H   0  0  0  0  0  0  0  0  0  0  0  0
   36.9707   32.0111   49.5437 H   0  0  0  0  0  0  0  0  0  0  0  0
   38.6504   32.1893   49.0312 H   0  0  0  0  0  0  0  0  0  0  0  0
   38.6043   29.6194   48.5447 H   0  0  0  0  0  0  0  0  0  0  0  0
   37.6427   30.6193   47.4412 H   0  0  0  0  0  0  0  0  0  0  0  0
   35.8600   30.8317   46.5584 H   0  0  0  0  0  0  0  0  0  0  0  0
   33.6355   30.4890   45.4100 H   0  0  0  0  0  0  0  0  0  0  0  0
   32.4952   27.1595   49.6077 H   0  0  0  0  0  0  0  0  0  0  0  0
   31.3627   27.4827   48.2677 H   0  0  0  0  0  0  0  0  0  0  0  0
  1  2  1  0
  2  3  1  0
  4  3  1  0
  5  4  1  0
  6  1  1  0
  6  5  1  0
  7 12  1  0
  7  1  1  0
  8  7  2  0
  9 10  2  0
  9  8  1  0
 10 11  1  0
 11 13  1  0
 11 12  2  0
  2 14  1  0
  2 15  1  0
  3 16  1  0
  3 17  1  0
  4 18  1  0
  5 19  1  0
  5 20  1  0
  6 21  1  0
  6 22  1  0
  8 23  1  0
  9 24  1  0
 13 25  1  0
 13 26  1  0
M  ISO  8  14  13  15  13  16  13  17  13  18   5  19  13  20  13  21  13
M  ISO  3  22  13  23  14  24  14
M  END
>  <minimizedAffinity>  (1) 
-4.21187449

>  <minimizedRMSD>  (1) 
0.600456774

$$$$
