
     RDKit          3D

 37 39  0  0  0  0  0  0  0  0999 V2000
   34.9320   29.5360   47.4660 C   0  0  0  0  0  0  0  0  0  0  0  0
   35.2210   29.8050   46.1370 C   0  0  0  0  0  0  0  0  0  0  0  0
   34.2110   29.7000   45.1830 C   0  0  0  0  0  0  0  0  0  0  0  0
   32.9780   29.3330   45.6140 N   0  0  0  0  0  0  0  0  0  0  0  0
   32.7170   29.0730   46.9280 C   0  0  0  0  0  0  0  0  0  0  0  0
   33.6870   29.1730   47.8520 N   0  0  0  0  0  0  0  0  0  0  0  0
   35.9210   29.6230   48.5010 N   0  0  0  0  0  0  0  0  0  0  0  0
   35.8740   28.8040   49.6920 C   0  0  0  0  0  0  0  0  0  0  0  0
   36.1650   29.5200   50.9600 C   0  0  0  0  0  0  0  0  0  0  0  0
   37.0230   30.6390   50.8870 N   0  0  0  0  0  0  0  0  0  0  0  0
   36.8300   31.4400   49.6820 C   0  0  0  0  0  0  0  0  0  0  0  0
   37.0500   30.4790   48.5360 C   0  0  0  0  0  0  0  0  0  0  0  0
   31.3770   28.6850   47.3290 C   0  0  0  0  0  0  0  0  0  0  0  0
   31.1880   27.9690   48.4810 C   0  0  0  0  0  0  0  0  0  0  0  0
   29.9220   27.5770   48.9020 C   0  0  0  0  0  0  0  0  0  0  0  0
   28.8830   27.9480   48.0990 N   0  0  0  0  0  0  0  0  0  0  0  0
   29.0850   28.6440   46.9810 C   0  0  0  0  0  0  0  0  0  0  0  0
   30.3220   29.0180   46.5840 N   0  0  0  0  0  0  0  0  0  0  0  0
   29.6830   26.8350   50.0920 N   0  0  0  0  0  0  0  0  0  0  0  0
   27.9270   29.0230   46.1400 C   0  0  0  0  0  0  0  0  0  0  0  0
   27.5180   30.3230   46.4240 F   0  0  0  0  0  0  0  0  0  0  0  0
   26.8730   28.1540   46.4320 F   0  0  0  0  0  0  0  0  0  0  0  0
   28.2260   28.8330   44.8170 F   0  0  0  0  0  0  0  0  0  0  0  0
   36.2382   30.0986   45.8385 H   0  0  0  0  0  0  0  0  0  0  0  0
   34.4059   29.9069   44.1204 H   0  0  0  0  0  0  0  0  0  0  0  0
   34.8656   28.3713   49.7686 H   0  0  0  0  0  0  0  0  0  0  0  0
   36.6664   28.0498   49.5769 H   0  0  0  0  0  0  0  0  0  0  0  0
   35.2056   29.8650   51.3729 H   0  0  0  0  0  0  0  0  0  0  0  0
   36.7042   28.7894   51.5808 H   0  0  0  0  0  0  0  0  0  0  0  0
   36.8502   31.2370   51.7077 H   0  0  0  0  0  0  0  0  0  0  0  0
   35.8108   31.8525   49.6508 H   0  0  0  0  0  0  0  0  0  0  0  0
   37.5175   32.2977   49.6407 H   0  0  0  0  0  0  0  0  0  0  0  0
   37.9655   29.8926   48.7032 H   0  0  0  0  0  0  0  0  0  0  0  0
   37.1681   31.0179   47.5843 H   0  0  0  0  0  0  0  0  0  0  0  0
   32.0622   27.6963   49.0904 H   0  0  0  0  0  0  0  0  0  0  0  0
   28.7211   26.5735   50.3514 H   0  0  0  0  0  0  0  0  0  0  0  0
   30.4718   26.5593   50.6942 H   0  0  0  0  0  0  0  0  0  0  0  0
  1  6  1  0
  1  7  1  0
  2  1  2  0
  3  4  2  0
  3  2  1  0
  4  5  1  0
  5 13  1  0
  5  6  2  0
  7 12  1  0
  7  8  1  0
  8  9  1  0
 10  9  1  0
 11 10  1  0
 12 11  1  0
 13 14  2  0
 14 15  1  0
 15 19  1  0
 16 15  2  0
 17 16  1  0
 18 17  2  0
 18 13  1  0
 20 21  1  0
 20 22  1  0
 20 17  1  0
 23 20  1  0
  2 24  1  0
  3 25  1  0
  8 26  1  0
  8 27  1  0
  9 28  1  0
  9 29  1  0
 10 30  1  0
 11 31  1  0
 11 32  1  0
 12 33  1  0
 12 34  1  0
 14 35  1  0
 19 36  1  0
 19 37  1  0
M  ISO  8  24  14  25  14  26  13  27  13  28  13  29  13  30   5  31  13
M  ISO  4  32  13  33  13  34  13  35  14
M  END
>  <minimizedAffinity>  (1) 
-4.76277924

>  <minimizedRMSD>  (1) 
0.596969008

$$$$
