
     RDKit          3D

 29 31  0  0  1  0  0  0  0  0999 V2000
   38.7330   31.4580   48.4440 C   0  0  2  0  0  0  0  0  0  0  0  0
   38.5530   32.9190   48.2980 C   0  0  0  0  0  0  0  0  0  0  0  0
   38.1970   31.9780   47.1750 C   0  0  1  0  0  0  0  0  0  0  0  0
   36.0850   29.1230   49.6350 C   0  0  0  0  0  0  0  0  0  0  0  0
   36.2280   29.2220   51.0230 C   0  0  0  0  0  0  0  0  0  0  0  0
   37.2270   30.0920   51.5490 C   0  0  0  0  0  0  0  0  0  0  0  0
   37.9880   30.7820   50.6770 N   0  0  0  0  0  0  0  0  0  0  0  0
   37.8250   30.6650   49.3320 C   0  0  0  0  0  0  0  0  0  0  0  0
   36.8850   29.8460   48.8020 N   0  0  0  0  0  0  0  0  0  0  0  0
   39.9060   30.8560   45.6820 C   0  0  2  0  0  0  0  0  0  0  0  0
   38.9770   32.0110   45.9140 C   0  0  2  0  0  0  0  0  0  0  0  0
   40.0060   33.1440   45.9600 C   0  0  0  0  0  0  0  0  0  0  0  0
   40.8720   32.8410   44.9240 O   0  0  0  0  0  0  0  0  0  0  0  0
   40.9010   31.4810   44.7230 C   0  0  0  0  0  0  0  0  0  0  0  0
   39.2170   29.7910   45.1680 O   0  0  0  0  0  0  0  0  0  0  0  0
   39.5855   30.8248   48.7308 H   0  0  0  0  0  0  0  0  0  0  0  0
   37.7600   33.4367   48.8575 H   0  0  0  0  0  0  0  0  0  0  0  0
   39.1997   33.8024   48.4044 H   0  0  0  0  0  0  0  0  0  0  0  0
   37.3045   31.7456   46.5755 H   0  0  0  0  0  0  0  0  0  0  0  0
   35.3198   28.4554   49.2122 H   0  0  0  0  0  0  0  0  0  0  0  0
   35.5816   28.6394   51.6959 H   0  0  0  0  0  0  0  0  0  0  0  0
   37.3724   30.1970   52.6343 H   0  0  0  0  0  0  0  0  0  0  0  0
   40.3934   30.4342   46.5733 H   0  0  0  0  0  0  0  0  0  0  0  0
   38.1798   32.0653   45.1581 H   0  0  0  0  0  0  0  0  0  0  0  0
   39.5238   34.1190   45.7961 H   0  0  0  0  0  0  0  0  0  0  0  0
   40.5141   33.2200   46.9327 H   0  0  0  0  0  0  0  0  0  0  0  0
   40.6190   31.2488   43.6854 H   0  0  0  0  0  0  0  0  0  0  0  0
   41.9116   31.0849   44.9014 H   0  0  0  0  0  0  0  0  0  0  0  0
   38.8605   29.2399   45.9091 H   0  0  0  0  0  0  0  0  0  0  0  0
  1  8  1  0
  2  1  1  0
  3  2  1  0
  3  1  1  0
  4  5  2  0
  5  6  1  0
  7  6  2  0
  8  7  1  0
  9  8  2  0
  9  4  1  0
 10 15  1  0
 10 11  1  0
 11 12  1  0
 11  3  1  0
 13 12  1  0
 14 13  1  0
 14 10  1  0
  1 16  1  6
  2 17  1  0
  2 18  1  0
  3 19  1  6
  4 20  1  0
  5 21  1  0
  6 22  1  0
 10 23  1  1
 11 24  1  6
 12 25  1  0
 12 26  1  0
 14 27  1  0
 14 28  1  0
 15 29  1  0
M  ISO  8  16  13  17  13  18  13  19  13  20  14  21  14  22  14  23  13
M  ISO  6  24  13  25  13  26  13  27  13  28  13  29   3
M  END
>  <minimizedAffinity>  (1) 
-5.55744743

>  <minimizedRMSD>  (1) 
6.69201517

$$$$
