
     RDKit          3D

 26 27  0  0  0  0  0  0  0  0999 V2000
   37.1480   31.3100   48.8220 Cl  0  0  0  0  0  0  0  0  0  0  0  0
   36.1640   30.7060   47.4980 C   0  0  0  0  0  0  0  0  0  0  0  0
   36.6860   30.7200   46.2340 C   0  0  0  0  0  0  0  0  0  0  0  0
   35.9470   30.2490   45.1680 C   0  0  0  0  0  0  0  0  0  0  0  0
   34.6750   29.7680   45.4250 C   0  0  0  0  0  0  0  0  0  0  0  0
   34.1690   29.7630   46.7080 C   0  0  0  0  0  0  0  0  0  0  0  0
   34.9030   30.2340   47.7840 C   0  0  0  0  0  0  0  0  0  0  0  0
   39.7520   32.7750   46.3050 C   0  0  0  0  0  0  0  0  0  0  0  0
   40.5650   32.0820   45.3980 C   0  0  0  0  0  0  0  0  0  0  0  0
   40.0510   30.9390   44.7870 C   0  0  0  0  0  0  0  0  0  0  0  0
   38.7940   30.5470   45.0960 N   0  0  0  0  0  0  0  0  0  0  0  0
   38.0230   31.2310   45.9770 C   0  0  0  0  0  0  0  0  0  0  0  0
   38.5120   32.3300   46.5660 N   0  0  0  0  0  0  0  0  0  0  0  0
   40.8960   30.2600   43.8820 N   0  0  0  0  0  0  0  0  0  0  0  0
   34.3620   29.2310   50.0730 C   0  0  0  0  0  0  0  0  0  0  0  0
   34.7260   28.1010   49.7160 O   0  0  0  0  0  0  0  0  0  0  0  0
   34.4530   30.2610   49.1240 N   0  0  0  0  0  0  0  0  0  0  0  0
   36.3558   30.2556   44.1468 H   0  0  0  0  0  0  0  0  0  0  0  0
   34.0606   29.3854   44.5966 H   0  0  0  0  0  0  0  0  0  0  0  0
   33.1547   29.3743   46.8815 H   0  0  0  0  0  0  0  0  0  0  0  0
   40.1285   33.6812   46.8020 H   0  0  0  0  0  0  0  0  0  0  0  0
   41.5837   32.4312   45.1736 H   0  0  0  0  0  0  0  0  0  0  0  0
   41.8437   30.6176   43.6950 H   0  0  0  0  0  0  0  0  0  0  0  0
   40.5647   29.4072   43.4089 H   0  0  0  0  0  0  0  0  0  0  0  0
   33.9843   29.4182   51.0890 H   0  0  0  0  0  0  0  0  0  0  0  0
   34.1421   31.1847   49.4572 H   0  0  0  0  0  0  0  0  0  0  0  0
  2  7  2  0
  2  1  1  0
  3  2  1  0
  4  5  1  0
  4  3  2  0
  5  6  2  0
  6  7  1  0
  7 17  1  0
  8 13  2  0
  9  8  1  0
 10 11  1  0
 10  9  2  0
 11 12  2  0
 12  3  1  0
 12 13  1  0
 14 10  1  0
 16 15  2  0
 17 15  1  0
  4 18  1  0
  5 19  1  0
  6 20  1  0
  8 21  1  0
  9 22  1  0
 14 23  1  0
 14 24  1  0
 15 25  1  0
 17 26  1  0
M  ISO  6  18  14  19  14  20  14  21  14  22  14  25   6
M  END
>  <minimizedAffinity>  (1) 
-5.27257824

>  <minimizedRMSD>  (1) 
3.10494089

$$$$
