
     RDKit          3D

 28 29  0  0  0  0  0  0  0  0999 V2000
   38.5710   31.1500   49.1550 Cl  0  0  0  0  0  0  0  0  0  0  0  0
   37.2180   30.6630   48.1610 C   0  0  0  0  0  0  0  0  0  0  0  0
   37.2990   30.8110   46.8010 C   0  0  0  0  0  0  0  0  0  0  0  0
   36.2470   30.4340   46.0110 C   0  0  0  0  0  0  0  0  0  0  0  0
   35.1180   29.9110   46.6020 C   0  0  0  0  0  0  0  0  0  0  0  0
   35.0550   29.7700   47.9800 C   0  0  0  0  0  0  0  0  0  0  0  0
   36.1130   30.1460   48.8030 C   0  0  0  0  0  0  0  0  0  0  0  0
   40.0540   33.0750   45.8610 C   0  0  0  0  0  0  0  0  0  0  0  0
   40.7620   32.2780   44.9240 C   0  0  0  0  0  0  0  0  0  0  0  0
   40.2640   31.0020   44.6570 C   0  0  0  0  0  0  0  0  0  0  0  0
   39.1440   30.5930   45.2970 N   0  0  0  0  0  0  0  0  0  0  0  0
   38.4920   31.3660   46.1790 C   0  0  0  0  0  0  0  0  0  0  0  0
   38.9520   32.5910   46.4490 N   0  0  0  0  0  0  0  0  0  0  0  0
   40.9930   30.2330   43.7190 N   0  0  0  0  0  0  0  0  0  0  0  0
   36.0940   30.0180   50.2720 C   0  0  0  0  0  0  0  0  0  0  0  0
   35.0250   29.1740   50.8320 C   0  0  0  0  0  0  0  0  0  0  0  0
   36.3023   30.5472   44.9182 H   0  0  0  0  0  0  0  0  0  0  0  0
   34.2645   29.6045   45.9794 H   0  0  0  0  0  0  0  0  0  0  0  0
   34.1455   29.3502   48.4346 H   0  0  0  0  0  0  0  0  0  0  0  0
   40.4092   34.0874   46.1037 H   0  0  0  0  0  0  0  0  0  0  0  0
   41.6692   32.6521   44.4269 H   0  0  0  0  0  0  0  0  0  0  0  0
   40.6788   29.2824   43.4772 H   0  0  0  0  0  0  0  0  0  0  0  0
   41.8378   30.6239   43.2781 H   0  0  0  0  0  0  0  0  0  0  0  0
   37.0585   29.5918   50.5853 H   0  0  0  0  0  0  0  0  0  0  0  0
   35.9041   31.0312   50.6559 H   0  0  0  0  0  0  0  0  0  0  0  0
   35.0684   29.2082   51.9306 H   0  0  0  0  0  0  0  0  0  0  0  0
   34.0475   29.5466   50.4918 H   0  0  0  0  0  0  0  0  0  0  0  0
   35.1606   28.1367   50.4918 H   0  0  0  0  0  0  0  0  0  0  0  0
  2  7  2  0
  2  1  1  0
  3  2  1  0
  4  5  1  0
  4  3  2  0
  5  6  2  0
  6  7  1  0
  7 15  1  0
  8 13  2  0
  9  8  1  0
 10  9  2  0
 10 11  1  0
 11 12  2  0
 12 13  1  0
 12  3  1  0
 14 10  1  0
 15 16  1  0
  4 17  1  0
  5 18  1  0
  6 19  1  0
  8 20  1  0
  9 21  1  0
 14 22  1  0
 14 23  1  0
 15 24  1  0
 15 25  1  0
 16 26  1  0
 16 27  1  0
 16 28  1  0
M  ISO  8  17  14  18  14  19  14  20  14  21  14  24   8  25   8  26   8
M  ISO  2  27   8  28   8
M  END
>  <minimizedAffinity>  (1) 
-5.66837645

>  <minimizedRMSD>  (1) 
3.0228765

$$$$
