
     RDKit          3D

 31 33  0  0  1  0  0  0  0  0999 V2000
   38.5450   31.7050   48.7760 C   0  0  2  0  0  0  0  0  0  0  0  0
   38.6010   33.1800   48.7890 C   0  0  0  0  0  0  0  0  0  0  0  0
   38.6110   32.4250   47.4880 C   0  0  1  0  0  0  0  0  0  0  0  0
   39.8190   32.4010   46.6120 C   0  0  0  0  0  0  0  0  0  0  0  0
   39.8750   33.4460   45.5520 C   0  0  0  0  0  0  0  0  0  0  0  0
   39.2800   32.9730   44.2350 C   0  0  0  0  0  0  0  0  0  0  0  0
   39.9210   31.8780   43.7190 O   0  0  0  0  0  0  0  0  0  0  0  0
   40.6350   31.1180   44.6100 C   0  0  0  0  0  0  0  0  0  0  0  0
   39.9530   31.0430   45.9560 C   0  0  0  0  0  0  0  0  0  0  0  0
   35.1670   30.2020   48.5030 C   0  0  0  0  0  0  0  0  0  0  0  0
   35.0090   29.5620   49.7420 C   0  0  0  0  0  0  0  0  0  0  0  0
   36.0810   29.6640   50.6730 C   0  0  0  0  0  0  0  0  0  0  0  0
   37.1810   30.3640   50.3130 N   0  0  0  0  0  0  0  0  0  0  0  0
   37.2920   30.9650   49.1100 C   0  0  0  0  0  0  0  0  0  0  0  0
   36.3060   30.8950   48.2050 N   0  0  0  0  0  0  0  0  0  0  0  0
   39.1389   30.9270   49.2780 H   0  0  0  0  0  0  0  0  0  0  0  0
   37.7153   33.7631   49.0816 H   0  0  0  0  0  0  0  0  0  0  0  0
   39.2497   33.9331   49.2603 H   0  0  0  0  0  0  0  0  0  0  0  0
   38.0055   32.4263   46.5696 H   0  0  0  0  0  0  0  0  0  0  0  0
   40.6540   32.6201   47.2937 H   0  0  0  0  0  0  0  0  0  0  0  0
   39.3141   34.3276   45.8959 H   0  0  0  0  0  0  0  0  0  0  0  0
   40.9340   33.6842   45.3736 H   0  0  0  0  0  0  0  0  0  0  0  0
   38.2237   32.7147   44.4007 H   0  0  0  0  0  0  0  0  0  0  0  0
   39.3944   33.7923   43.5100 H   0  0  0  0  0  0  0  0  0  0  0  0
   40.7392   30.1000   44.2064 H   0  0  0  0  0  0  0  0  0  0  0  0
   41.6186   31.5900   44.7508 H   0  0  0  0  0  0  0  0  0  0  0  0
   38.9485   30.6160   45.8197 H   0  0  0  0  0  0  0  0  0  0  0  0
   40.5731   30.4138   46.6114 H   0  0  0  0  0  0  0  0  0  0  0  0
   34.3593   30.1446   47.7585 H   0  0  0  0  0  0  0  0  0  0  0  0
   34.0928   29.0035   49.9842 H   0  0  0  0  0  0  0  0  0  0  0  0
   36.0164   29.1852   51.6612 H   0  0  0  0  0  0  0  0  0  0  0  0
  1  2  1  0
  1 14  1  0
  3  1  1  0
  3  2  1  0
  4  3  1  0
  5  4  1  0
  6  5  1  0
  7  6  1  0
  7  8  1  0
  8  9  1  0
  9  4  1  0
 10 11  2  0
 11 12  1  0
 13 12  2  0
 14 13  1  0
 15 10  1  0
 15 14  2  0
  1 16  1  1
  2 17  1  0
  2 18  1  0
  3 19  1  6
  4 20  1  0
  5 21  1  0
  5 22  1  0
  6 23  1  0
  6 24  1  0
  8 25  1  0
  8 26  1  0
  9 27  1  0
  9 28  1  0
 10 29  1  0
 11 30  1  0
 12 31  1  0
M  ISO  8  16  13  17  13  18  13  19  13  20  13  21  13  22  13  23  13
M  ISO  8  24  13  25  13  26  13  27  13  28  13  29  14  30  14  31  14
M  END
>  <minimizedAffinity>  (1) 
-5.50353527

>  <minimizedRMSD>  (1) 
6.8194375

$$$$
