
     RDKit          3D

 34 35  0  0  0  0  0  0  0  0999 V2000
   37.6560   30.4490   48.5160 Cl  0  0  0  0  0  0  0  0  0  0  0  0
   36.4850   30.3000   47.2170 C   0  0  0  0  0  0  0  0  0  0  0  0
   36.8310   30.6910   45.9480 C   0  0  0  0  0  0  0  0  0  0  0  0
   35.9360   30.5770   44.9340 C   0  0  0  0  0  0  0  0  0  0  0  0
   34.6850   30.0670   45.2020 C   0  0  0  0  0  0  0  0  0  0  0  0
   34.3600   29.6790   46.4930 C   0  0  0  0  0  0  0  0  0  0  0  0
   35.2530   29.7850   47.5420 C   0  0  0  0  0  0  0  0  0  0  0  0
   39.8380   32.8440   45.9530 C   0  0  0  0  0  0  0  0  0  0  0  0
   40.6970   32.1110   45.0770 C   0  0  0  0  0  0  0  0  0  0  0  0
   40.2100   30.9220   44.5280 C   0  0  0  0  0  0  0  0  0  0  0  0
   38.9530   30.5180   44.8480 N   0  0  0  0  0  0  0  0  0  0  0  0
   38.1630   31.2320   45.6810 C   0  0  0  0  0  0  0  0  0  0  0  0
   38.6090   32.3800   46.2230 N   0  0  0  0  0  0  0  0  0  0  0  0
   41.0810   30.2290   43.6720 N   0  0  0  0  0  0  0  0  0  0  0  0
   34.9340   29.3830   48.9130 C   0  0  0  0  0  0  0  0  0  0  0  0
   34.1990   28.1430   49.1110 C   0  0  0  0  0  0  0  0  0  0  0  0
   32.8720   28.3570   49.4290 O   0  0  0  0  0  0  0  0  0  0  0  0
   32.6250   26.6070   47.4620 O   0  0  0  0  0  0  0  0  0  0  0  0
   31.8670   27.5700   48.3210 P   0  0  0  0  0  0  0  0  0  0  0  0
   31.1060   28.7950   47.4180 O   0  0  0  0  0  0  0  0  0  0  0  0
   30.6540   26.7100   49.1240 O   0  0  0  0  0  0  0  0  0  0  0  0
   36.2057   30.8872   43.9137 H   0  0  0  0  0  0  0  0  0  0  0  0
   33.9454   29.9677   44.3938 H   0  0  0  0  0  0  0  0  0  0  0  0
   33.3567   29.2728   46.6887 H   0  0  0  0  0  0  0  0  0  0  0  0
   40.1838   33.7857   46.4043 H   0  0  0  0  0  0  0  0  0  0  0  0
   41.7094   32.4715   44.8424 H   0  0  0  0  0  0  0  0  0  0  0  0
   42.0210   30.6039   43.4802 H   0  0  0  0  0  0  0  0  0  0  0  0
   40.7799   29.3458   43.2359 H   0  0  0  0  0  0  0  0  0  0  0  0
   35.8863   29.2882   49.4553 H   0  0  0  0  0  0  0  0  0  0  0  0
   34.2517   30.1659   49.2756 H   0  0  0  0  0  0  0  0  0  0  0  0
   34.2484   27.5524   48.1843 H   0  0  0  0  0  0  0  0  0  0  0  0
   34.6626   27.6122   49.9556 H   0  0  0  0  0  0  0  0  0  0  0  0
   30.6970   29.4533   48.0340 H   0  0  0  0  0  0  0  0  0  0  0  0
   30.7789   26.7986   50.1021 H   0  0  0  0  0  0  0  0  0  0  0  0
  2  7  2  0
  2  1  1  0
  3  2  1  0
  4  5  1  0
  4  3  2  0
  5  6  2  0
  6  7  1  0
  7 15  1  0
  8 13  2  0
  9  8  1  0
 10 11  1  0
 10  9  2  0
 11 12  2  0
 12  3  1  0
 12 13  1  0
 14 10  1  0
 15 16  1  0
 16 17  1  0
 18 19  2  0
 19 21  1  0
 19 17  1  0
 20 19  1  0
  4 22  1  0
  5 23  1  0
  6 24  1  0
  8 25  1  0
  9 26  1  0
 14 27  1  0
 14 28  1  0
 15 29  1  0
 15 30  1  0
 16 31  1  0
 16 32  1  0
 20 33  1  0
 21 34  1  0
M  ISO  8  22  14  23  14  24  14  25  14  26  14  29   8  30   8  31   8
M  ISO  3  32   8  33   3  34   3
M  END
>  <minimizedAffinity>  (1) 
-5.25955772

>  <minimizedRMSD>  (1) 
2.40333056

$$$$
