
     RDKit          3D

 23 24  0  0  1  0  0  0  0  0999 V2000
   37.0870   30.6020   50.8070 C   0  0  2  0  0  0  0  0  0  0  0  0
   37.4560   29.2470   51.2510 C   0  0  0  0  0  0  0  0  0  0  0  0
   36.0920   29.5160   50.6540 C   0  0  2  0  0  0  0  0  0  0  0  0
   38.5400   33.1060   48.5390 C   0  0  0  0  0  0  0  0  0  0  0  0
   38.8290   32.3750   47.3830 C   0  0  0  0  0  0  0  0  0  0  0  0
   38.5040   31.0110   47.3830 C   0  0  0  0  0  0  0  0  0  0  0  0
   37.9310   30.4760   48.5020 N   0  0  0  0  0  0  0  0  0  0  0  0
   37.6700   31.2240   49.5980 C   0  0  0  0  0  0  0  0  0  0  0  0
   37.9650   32.5330   49.6330 N   0  0  0  0  0  0  0  0  0  0  0  0
   35.9560   28.9990   49.3580 O   0  0  0  0  0  0  0  0  0  0  0  0
   33.4750   28.8630   50.0060 O   0  0  0  0  0  0  0  0  0  0  0  0
   34.3830   28.9560   48.8080 P   0  0  0  0  0  0  0  0  0  0  0  0
   34.0460   30.4310   48.0520 O   0  0  0  0  0  0  0  0  0  0  0  0
   34.2000   27.6650   47.7650 O   0  0  0  0  0  0  0  0  0  0  0  0
   37.1088   31.5848   51.3005 H   0  0  0  0  0  0  0  0  0  0  0  0
   38.1999   28.6653   50.6870 H   0  0  0  0  0  0  0  0  0  0  0  0
   37.8250   28.8057   52.1886 H   0  0  0  0  0  0  0  0  0  0  0  0
   35.0429   29.3833   50.9571 H   0  0  0  0  0  0  0  0  0  0  0  0
   38.7847   34.1781   48.5661 H   0  0  0  0  0  0  0  0  0  0  0  0
   39.2935   32.8515   46.5071 H   0  0  0  0  0  0  0  0  0  0  0  0
   38.7060   30.3852   46.5012 H   0  0  0  0  0  0  0  0  0  0  0  0
   33.8873   31.1255   48.7395 H   0  0  0  0  0  0  0  0  0  0  0  0
   34.0820   26.8326   48.2878 H   0  0  0  0  0  0  0  0  0  0  0  0
  1  2  1  0
  3  1  1  0
  3  2  1  0
  4  9  2  0
  5  6  2  0
  5  4  1  0
  6  7  1  0
  7  8  2  0
  8  9  1  0
  8  1  1  0
 10  3  1  0
 12 10  1  0
 12 11  2  0
 13 12  1  0
 14 12  1  0
  1 15  1  1
  2 16  1  0
  2 17  1  0
  3 18  1  1
  4 19  1  0
  5 20  1  0
  6 21  1  0
 13 22  1  0
 14 23  1  0
M  ISO  8  15  13  16  13  17  13  18  13  19  14  20  14  21  14  22   3
M  ISO  1  23   3
M  END
>  <minimizedAffinity>  (1) 
-4.78041506

>  <minimizedRMSD>  (1) 
2.08387375

$$$$
