
     RDKit          3D

 20 21  0  0  1  0  0  0  0  0999 V2000
   38.0190   33.1860   49.3860 C   0  0  0  0  0  0  0  0  0  0  0  0
   38.9930   33.1170   48.3860 C   0  0  0  0  0  0  0  0  0  0  0  0
   38.9810   32.0090   47.4880 C   0  0  0  0  0  0  0  0  0  0  0  0
   37.9970   31.0730   47.6750 N   0  0  0  0  0  0  0  0  0  0  0  0
   37.0730   31.1780   48.6550 C   0  0  0  0  0  0  0  0  0  0  0  0
   37.0730   32.2130   49.5030 N   0  0  0  0  0  0  0  0  0  0  0  0
   36.0840   30.0820   48.7890 C   0  0  2  0  0  0  0  0  0  0  0  0
   35.0910   30.0420   49.8710 C   0  0  0  0  0  0  0  0  0  0  0  0
   36.2600   29.0740   49.8470 C   0  0  2  0  0  0  0  0  0  0  0  0
   37.2280   29.2690   50.9780 C   0  0  0  0  0  0  0  0  0  0  0  0
   38.0164   34.0348   50.0857 H   0  0  0  0  0  0  0  0  0  0  0  0
   39.7559   33.9040   48.2931 H   0  0  0  0  0  0  0  0  0  0  0  0
   39.7254   31.9103   46.6842 H   0  0  0  0  0  0  0  0  0  0  0  0
   35.9950   30.0601   47.6928 H   0  0  0  0  0  0  0  0  0  0  0  0
   35.0559   30.8478   50.6190 H   0  0  0  0  0  0  0  0  0  0  0  0
   33.9965   29.9476   49.9269 H   0  0  0  0  0  0  0  0  0  0  0  0
   36.4428   27.9900   49.8095 H   0  0  0  0  0  0  0  0  0  0  0  0
   36.6985   29.1623   51.9363 H   0  0  0  0  0  0  0  0  0  0  0  0
   38.0247   28.5133   50.9132 H   0  0  0  0  0  0  0  0  0  0  0  0
   37.6700   30.2742   50.9132 H   0  0  0  0  0  0  0  0  0  0  0  0
  1  6  2  0
  2  1  1  0
  3  4  1  0
  3  2  2  0
  4  5  2  0
  5  7  1  0
  5  6  1  0
  7  9  1  0
  7  8  1  0
  9  8  1  0
  9 10  1  0
  1 11  1  0
  2 12  1  0
  3 13  1  0
  7 14  1  6
  8 15  1  0
  8 16  1  0
  9 17  1  6
 10 18  1  0
 10 19  1  0
 10 20  1  0
M  ISO  8  11  14  12  14  13  14  14  13  15  13  16  13  17  13  18   8
M  ISO  2  19   8  20   8
M  END
>  <minimizedAffinity>  (1) 
-4.40416241

>  <minimizedRMSD>  (1) 
1.28695893

$$$$
