
     RDKit          3D

 37 39  0  0  0  0  0  0  0  0999 V2000
   36.3930   29.2650   50.5730 C   0  0  0  0  0  0  0  0  0  0  0  0
   37.3110   29.9110   49.7570 C   0  0  0  0  0  0  0  0  0  0  0  0
   37.0610   30.2500   48.4420 C   0  0  0  0  0  0  0  0  0  0  0  0
   35.8340   29.8970   48.0000 N   0  0  0  0  0  0  0  0  0  0  0  0
   34.9330   29.2710   48.7760 C   0  0  0  0  0  0  0  0  0  0  0  0
   35.2040   28.9590   50.0380 N   0  0  0  0  0  0  0  0  0  0  0  0
   33.6640   28.9390   48.2210 N   0  0  0  0  0  0  0  0  0  0  0  0
   33.2220   29.5400   46.9770 C   0  0  0  0  0  0  0  0  0  0  0  0
   32.8110   28.4530   46.0230 C   0  0  0  0  0  0  0  0  0  0  0  0
   31.8060   27.5000   46.6610 C   0  0  0  0  0  0  0  0  0  0  0  0
   32.4570   26.9080   47.8710 C   0  0  0  0  0  0  0  0  0  0  0  0
   32.7830   28.0040   48.8690 C   0  0  0  0  0  0  0  0  0  0  0  0
   37.5830   33.0310   49.2490 Cl  0  0  0  0  0  0  0  0  0  0  0  0
   38.3260   32.2340   47.8990 C   0  0  0  0  0  0  0  0  0  0  0  0
   38.0270   30.9280   47.5890 C   0  0  0  0  0  0  0  0  0  0  0  0
   38.6590   30.3630   46.5000 C   0  0  0  0  0  0  0  0  0  0  0  0
   39.5650   31.0580   45.7300 C   0  0  0  0  0  0  0  0  0  0  0  0
   39.8450   32.3900   46.0790 C   0  0  0  0  0  0  0  0  0  0  0  0
   41.0020   33.2230   45.0680 Cl  0  0  0  0  0  0  0  0  0  0  0  0
   39.2320   32.9840   47.1580 C   0  0  0  0  0  0  0  0  0  0  0  0
   38.5750   30.2340   50.3300 N   0  0  0  0  0  0  0  0  0  0  0  0
   36.6323   29.0144   51.6170 H   0  0  0  0  0  0  0  0  0  0  0  0
   32.3654   30.2020   47.1719 H   0  0  0  0  0  0  0  0  0  0  0  0
   34.0419   30.1274   46.5379 H   0  0  0  0  0  0  0  0  0  0  0  0
   33.7034   27.8836   45.7240 H   0  0  0  0  0  0  0  0  0  0  0  0
   32.3350   28.9223   45.1494 H   0  0  0  0  0  0  0  0  0  0  0  0
   30.8993   28.0500   46.9530 H   0  0  0  0  0  0  0  0  0  0  0  0
   31.5142   26.7114   45.9518 H   0  0  0  0  0  0  0  0  0  0  0  0
   31.7726   26.1830   48.3357 H   0  0  0  0  0  0  0  0  0  0  0  0
   33.3866   26.4018   47.5716 H   0  0  0  0  0  0  0  0  0  0  0  0
   33.2785   27.5721   49.7510 H   0  0  0  0  0  0  0  0  0  0  0  0
   31.8635   28.5082   49.2010 H   0  0  0  0  0  0  0  0  0  0  0  0
   38.4308   29.3195   46.2374 H   0  0  0  0  0  0  0  0  0  0  0  0
   40.0552   30.5841   44.8668 H   0  0  0  0  0  0  0  0  0  0  0  0
   39.4534   34.0272   47.4278 H   0  0  0  0  0  0  0  0  0  0  0  0
   39.2895   30.7137   49.7641 H   0  0  0  0  0  0  0  0  0  0  0  0
   38.7742   29.9878   51.3101 H   0  0  0  0  0  0  0  0  0  0  0  0
  2 21  1  0
  2  1  2  0
  3  2  1  0
  4  3  2  0
  4  5  1  0
  5  6  2  0
  6  1  1  0
  7  5  1  0
  7 12  1  0
  8  7  1  0
  9 10  1  0
  9  8  1  0
 10 11  1  0
 11 12  1  0
 14 13  1  0
 15 14  2  0
 15  3  1  0
 16 15  1  0
 17 18  1  0
 17 16  2  0
 18 20  2  0
 19 18  1  0
 20 14  1  0
  1 22  1  0
  8 23  1  0
  8 24  1  0
  9 25  1  0
  9 26  1  0
 10 27  1  0
 10 28  1  0
 11 29  1  0
 11 30  1  0
 12 31  1  0
 12 32  1  0
 16 33  1  0
 17 34  1  0
 20 35  1  0
 21 36  1  0
 21 37  1  0
M  ISO  8  22  14  23  13  24  13  25  13  26  13  27  13  28  13  29  13
M  ISO  6  30  13  31  13  32  13  33  14  34  14  35  14
M  END
>  <minimizedAffinity>  (1) 
-6.61145401

>  <minimizedRMSD>  (1) 
1.25389743

$$$$
