
     RDKit          3D

 33 35  0  0  0  0  0  0  0  0999 V2000
   35.1920   28.2980   49.3840 C   0  0  0  0  0  0  0  0  0  0  0  0
   36.2020   29.2380   49.2450 C   0  0  0  0  0  0  0  0  0  0  0  0
   36.2390   30.2030   48.2510 C   0  0  0  0  0  0  0  0  0  0  0  0
   35.1850   30.1550   47.4080 N   0  0  0  0  0  0  0  0  0  0  0  0
   34.1940   29.2540   47.5210 C   0  0  0  0  0  0  0  0  0  0  0  0
   34.1870   28.3490   48.4770 N   0  0  0  0  0  0  0  0  0  0  0  0
   36.1330   32.3010   50.3260 Cl  0  0  0  0  0  0  0  0  0  0  0  0
   37.3290   32.2020   49.0550 C   0  0  0  0  0  0  0  0  0  0  0  0
   37.3010   31.1770   48.1200 C   0  0  0  0  0  0  0  0  0  0  0  0
   38.2750   31.1780   47.1610 C   0  0  0  0  0  0  0  0  0  0  0  0
   39.2630   32.1430   47.0950 C   0  0  0  0  0  0  0  0  0  0  0  0
   39.2520   33.1610   48.0630 C   0  0  0  0  0  0  0  0  0  0  0  0
   40.5130   34.3470   47.9350 Cl  0  0  0  0  0  0  0  0  0  0  0  0
   38.2890   33.1990   49.0460 C   0  0  0  0  0  0  0  0  0  0  0  0
   32.7700   28.1640   45.7980 C   0  0  0  0  0  0  0  0  0  0  0  0
   33.1010   29.2940   46.5510 C   0  0  0  0  0  0  0  0  0  0  0  0
   32.3540   30.4340   46.3360 C   0  0  0  0  0  0  0  0  0  0  0  0
   31.3340   30.4270   45.4130 C   0  0  0  0  0  0  0  0  0  0  0  0
   31.0310   29.3100   44.6900 C   0  0  0  0  0  0  0  0  0  0  0  0
   31.7440   28.1420   44.8630 C   0  0  0  0  0  0  0  0  0  0  0  0
   34.0900   25.9590   46.1290 N   0  0  0  0  0  0  0  0  0  0  0  0
   33.5010   26.9540   45.9710 C   0  0  0  0  0  0  0  0  0  0  0  0
   37.2690   29.1940   50.1980 N   0  0  0  0  0  0  0  0  0  0  0  0
   35.2061   27.5492   50.1896 H   0  0  0  0  0  0  0  0  0  0  0  0
   38.2727   30.3756   46.4085 H   0  0  0  0  0  0  0  0  0  0  0  0
   40.0328   32.1145   46.3098 H   0  0  0  0  0  0  0  0  0  0  0  0
   38.2827   33.9981   49.8019 H   0  0  0  0  0  0  0  0  0  0  0  0
   32.5745   31.3500   46.9037 H   0  0  0  0  0  0  0  0  0  0  0  0
   30.7482   31.3443   45.2538 H   0  0  0  0  0  0  0  0  0  0  0  0
   30.2083   29.3415   43.9605 H   0  0  0  0  0  0  0  0  0  0  0  0
   31.5104   27.2347   44.2866 H   0  0  0  0  0  0  0  0  0  0  0  0
   38.0425   29.8713   50.1367 H   0  0  0  0  0  0  0  0  0  0  0  0
   37.2633   28.4850   50.9451 H   0  0  0  0  0  0  0  0  0  0  0  0
  2  1  2  0
  2 23  1  0
  3  2  1  0
  4  5  1  0
  4  3  2  0
  5  6  2  0
  6  1  1  0
  8  7  1  0
  9  3  1  0
  9  8  2  0
 10  9  1  0
 11 10  2  0
 11 12  1  0
 12 14  2  0
 13 12  1  0
 14  8  1  0
 15 22  1  0
 15 16  2  0
 16  5  1  0
 17 16  1  0
 18 17  2  0
 19 20  2  0
 19 18  1  0
 20 15  1  0
 22 21  3  0
  1 24  1  0
 10 25  1  0
 11 26  1  0
 14 27  1  0
 17 28  1  0
 18 29  1  0
 19 30  1  0
 20 31  1  0
 23 32  1  0
 23 33  1  0
M  ISO  8  24  14  25  14  26  14  27  14  28  14  29  14  30  14  31  14
M  END
>  <minimizedAffinity>  (1) 
-5.35234261

>  <minimizedRMSD>  (1) 
2.63657045

$$$$
