
     RDKit          3D

 33 36  0  0  0  0  0  0  0  0999 V2000
   35.6170   29.0430   49.3480 C   0  0  0  0  0  0  0  0  0  0  0  0
   35.8450   30.0720   48.4030 C   0  0  0  0  0  0  0  0  0  0  0  0
   35.1820   29.9840   47.1870 C   0  0  0  0  0  0  0  0  0  0  0  0
   34.3540   28.9160   46.9720 N   0  0  0  0  0  0  0  0  0  0  0  0
   34.1650   27.9620   47.8940 C   0  0  0  0  0  0  0  0  0  0  0  0
   34.7920   28.0260   49.0730 N   0  0  0  0  0  0  0  0  0  0  0  0
   36.8200   31.8550   49.9090 C   0  0  0  0  0  0  0  0  0  0  0  0
   36.7560   31.1840   48.7280 C   0  0  0  0  0  0  0  0  0  0  0  0
   37.6120   31.5440   47.6920 C   0  0  0  0  0  0  0  0  0  0  0  0
   38.5450   32.5800   47.8210 C   0  0  0  0  0  0  0  0  0  0  0  0
   39.4720   33.1450   47.0440 N   0  0  0  0  0  0  0  0  0  0  0  0
   40.1010   34.1430   47.7160 C   0  0  0  0  0  0  0  0  0  0  0  0
   39.5560   34.2320   48.9990 C   0  0  0  0  0  0  0  0  0  0  0  0
   38.5920   33.2470   49.0320 C   0  0  0  0  0  0  0  0  0  0  0  0
   37.7360   32.8790   50.0500 C   0  0  0  0  0  0  0  0  0  0  0  0
   33.2630   26.8490   47.6140 C   0  0  0  0  0  0  0  0  0  0  0  0
   33.7560   25.6050   47.3240 C   0  0  0  0  0  0  0  0  0  0  0  0
   32.9410   24.5290   47.0590 C   0  0  0  0  0  0  0  0  0  0  0  0
   31.5850   24.7840   47.1020 C   0  0  0  0  0  0  0  0  0  0  0  0
   31.0340   26.0430   47.3930 C   0  0  0  0  0  0  0  0  0  0  0  0
   31.9310   27.0410   47.6420 N   0  0  0  0  0  0  0  0  0  0  0  0
   36.1255   29.0800   50.3227 H   0  0  0  0  0  0  0  0  0  0  0  0
   35.3189   30.7547   46.4141 H   0  0  0  0  0  0  0  0  0  0  0  0
   36.1517   31.5860   50.7403 H   0  0  0  0  0  0  0  0  0  0  0  0
   37.5539   30.9964   46.7397 H   0  0  0  0  0  0  0  0  0  0  0  0
   39.6799   32.8644   46.0750 H   0  0  0  0  0  0  0  0  0  0  0  0
   40.9065   34.7766   47.3163 H   0  0  0  0  0  0  0  0  0  0  0  0
   39.8335   34.9306   49.8021 H   0  0  0  0  0  0  0  0  0  0  0  0
   37.7849   33.4198   51.0066 H   0  0  0  0  0  0  0  0  0  0  0  0
   34.8462   25.4604   47.3021 H   0  0  0  0  0  0  0  0  0  0  0  0
   33.3431   23.5315   46.8281 H   0  0  0  0  0  0  0  0  0  0  0  0
   30.8952   23.9522   46.8962 H   0  0  0  0  0  0  0  0  0  0  0  0
   29.9476   26.2138   47.4186 H   0  0  0  0  0  0  0  0  0  0  0  0
  2  8  1  0
  2  1  2  0
  3  2  1  0
  4  3  2  0
  4  5  1  0
  5  6  2  0
  6  1  1  0
  7 15  2  0
  8  7  1  0
  9 10  1  0
  9  8  2  0
 10 14  2  0
 11 12  1  0
 11 10  1  0
 12 13  2  0
 13 14  1  0
 14 15  1  0
 16 21  1  0
 16  5  1  0
 17 16  2  0
 18 19  2  0
 18 17  1  0
 19 20  1  0
 20 21  2  0
  1 22  1  0
  3 23  1  0
  7 24  1  0
  9 25  1  0
 11 26  1  0
 12 27  1  0
 13 28  1  0
 15 29  1  0
 17 30  1  0
 18 31  1  0
 19 32  1  0
 20 33  1  0
M  ISO  8  22  14  23  14  24  14  25  14  26   9  27  14  28  14  29  14
M  ISO  4  30  14  31  14  32  14  33  14
M  END
>  <minimizedAffinity>  (1) 
-6.29498053

>  <minimizedRMSD>  (1) 
4.55197573

$$$$
