
     RDKit          3D

 29 31  0  0  0  0  0  0  0  0999 V2000
   36.1470   29.3960   49.1080 C   0  0  0  0  0  0  0  0  0  0  0  0
   36.2030   30.4140   48.1280 C   0  0  0  0  0  0  0  0  0  0  0  0
   35.2770   30.3500   47.0810 C   0  0  0  0  0  0  0  0  0  0  0  0
   34.3890   29.3070   47.0850 N   0  0  0  0  0  0  0  0  0  0  0  0
   34.3700   28.3660   48.0310 C   0  0  0  0  0  0  0  0  0  0  0  0
   35.2460   28.4050   49.0450 N   0  0  0  0  0  0  0  0  0  0  0  0
   33.3920   27.2850   47.9670 C   0  0  0  0  0  0  0  0  0  0  0  0
   33.7300   26.0660   47.4410 C   0  0  0  0  0  0  0  0  0  0  0  0
   32.8410   25.0200   47.3610 C   0  0  0  0  0  0  0  0  0  0  0  0
   31.5790   25.2690   47.8440 C   0  0  0  0  0  0  0  0  0  0  0  0
   31.1910   26.4980   48.3910 C   0  0  0  0  0  0  0  0  0  0  0  0
   32.1360   27.4850   48.4320 N   0  0  0  0  0  0  0  0  0  0  0  0
   37.1820   31.4430   48.2470 N   0  0  0  0  0  0  0  0  0  0  0  0
   37.1280   32.0380   49.4550 C   0  0  0  0  0  0  0  0  0  0  0  0
   37.9920   33.0690   49.7900 C   0  0  0  0  0  0  0  0  0  0  0  0
   38.9130   33.4540   48.8140 C   0  0  0  0  0  0  0  0  0  0  0  0
   39.7290   34.3890   49.0570 O   0  0  0  0  0  0  0  0  0  0  0  0
   38.9230   32.8250   47.6270 N   0  0  0  0  0  0  0  0  0  0  0  0
   38.0760   31.8310   47.3270 C   0  0  0  0  0  0  0  0  0  0  0  0
   38.0320   31.2000   46.2350 O   0  0  0  0  0  0  0  0  0  0  0  0
   36.8615   29.4177   49.9441 H   0  0  0  0  0  0  0  0  0  0  0  0
   35.2626   31.1087   46.2846 H   0  0  0  0  0  0  0  0  0  0  0  0
   34.7540   25.9180   47.0675 H   0  0  0  0  0  0  0  0  0  0  0  0
   33.1225   24.0449   46.9369 H   0  0  0  0  0  0  0  0  0  0  0  0
   30.8346   24.4604   47.7985 H   0  0  0  0  0  0  0  0  0  0  0  0
   30.1717   26.6620   48.7707 H   0  0  0  0  0  0  0  0  0  0  0  0
   36.3833   31.6987   50.1900 H   0  0  0  0  0  0  0  0  0  0  0  0
   37.9539   33.5586   50.7743 H   0  0  0  0  0  0  0  0  0  0  0  0
   39.6101   33.1190   46.9182 H   0  0  0  0  0  0  0  0  0  0  0  0
  2 13  1  0
  2  1  2  0
  3  4  2  0
  3  2  1  0
  4  5  1  0
  5  6  2  0
  6  1  1  0
  7  5  1  0
  7 12  1  0
  8  7  2  0
  9  8  1  0
  9 10  2  0
 10 11  1  0
 11 12  2  0
 13 14  1  0
 14 15  2  0
 16 17  2  0
 16 15  1  0
 18 16  1  0
 19 18  1  0
 19 13  1  0
 20 19  2  0
  1 21  1  0
  3 22  1  0
  8 23  1  0
  9 24  1  0
 10 25  1  0
 11 26  1  0
 14 27  1  0
 15 28  1  0
 18 29  1  0
M  ISO  8  21  14  22  14  23  14  24  14  25  14  26  14  27  14  28  14
M  ISO  1  29   9
M  END
>  <minimizedAffinity>  (1) 
-5.71928883

>  <minimizedRMSD>  (1) 
4.07488585

$$$$
