
     RDKit          3D

 27 29  0  0  1  0  0  0  0  0999 V2000
   35.4660   28.6170   49.0400 C   0  0  2  0  0  0  0  0  0  0  0  0
   35.1770   29.1170   50.3890 C   0  0  0  0  0  0  0  0  0  0  0  0
   36.5300   29.3140   49.7870 C   0  0  2  0  0  0  0  0  0  0  0  0
   35.0310   29.7990   45.5450 C   0  0  0  0  0  0  0  0  0  0  0  0
   33.8840   30.5880   45.6560 C   0  0  0  0  0  0  0  0  0  0  0  0
   33.2670   30.7250   46.9100 C   0  0  0  0  0  0  0  0  0  0  0  0
   33.8270   30.0740   47.9500 N   0  0  0  0  0  0  0  0  0  0  0  0
   34.9500   29.3090   47.8090 C   0  0  0  0  0  0  0  0  0  0  0  0
   35.5590   29.1670   46.5980 N   0  0  0  0  0  0  0  0  0  0  0  0
   38.2630   29.8800   47.5700 F   0  0  0  0  0  0  0  0  0  0  0  0
   37.8970   30.9030   48.3370 C   0  0  0  0  0  0  0  0  0  0  0  0
   37.0680   30.6080   49.3890 C   0  0  0  0  0  0  0  0  0  0  0  0
   36.6820   31.6880   50.1980 C   0  0  0  0  0  0  0  0  0  0  0  0
   37.0860   32.9700   49.9820 C   0  0  0  0  0  0  0  0  0  0  0  0
   37.9240   33.1900   48.8960 C   0  0  0  0  0  0  0  0  0  0  0  0
   38.3520   32.1720   48.0470 C   0  0  0  0  0  0  0  0  0  0  0  0
   35.3259   27.6321   48.5706 H   0  0  0  0  0  0  0  0  0  0  0  0
   34.5044   29.9767   50.5253 H   0  0  0  0  0  0  0  0  0  0  0  0
   34.7955   28.6722   51.3199 H   0  0  0  0  0  0  0  0  0  0  0  0
   37.5600   29.0815   50.0954 H   0  0  0  0  0  0  0  0  0  0  0  0
   35.5141   29.6945   44.5623 H   0  0  0  0  0  0  0  0  0  0  0  0
   33.4693   31.0955   44.7726 H   0  0  0  0  0  0  0  0  0  0  0  0
   32.3632   31.3386   47.0389 H   0  0  0  0  0  0  0  0  0  0  0  0
   36.0179   31.4880   51.0518 H   0  0  0  0  0  0  0  0  0  0  0  0
   36.7640   33.7932   50.6367 H   0  0  0  0  0  0  0  0  0  0  0  0
   38.2656   34.2165   48.6972 H   0  0  0  0  0  0  0  0  0  0  0  0
   39.0161   32.3694   47.1926 H   0  0  0  0  0  0  0  0  0  0  0  0
  1  3  1  0
  1  2  1  0
  3  2  1  0
  4  5  2  0
  4  9  1  0
  5  6  1  0
  6  7  2  0
  8  7  1  0
  8  1  1  0
  9  8  2  0
 10 11  1  0
 11 12  2  0
 12  3  1  0
 12 13  1  0
 14 13  2  0
 15 14  1  0
 16 11  1  0
 16 15  2  0
  1 17  1  1
  2 18  1  0
  2 19  1  0
  3 20  1  1
  4 21  1  0
  5 22  1  0
  6 23  1  0
 13 24  1  0
 14 25  1  0
 15 26  1  0
 16 27  1  0
M  ISO  8  17  13  18  13  19  13  20  13  21  14  22  14  23  14  24  14
M  ISO  3  25  14  26  14  27  14
M  END
>  <minimizedAffinity>  (1) 
-4.09203768

>  <minimizedRMSD>  (1) 
4.22144127

$$$$
