
     RDKit          3D

 26 28  0  0  0  0  0  0  0  0999 V2000
   36.1270   29.8980   49.4260 C   0  0  0  0  0  0  0  0  0  0  0  0
   36.4580   30.6910   48.3290 C   0  0  0  0  0  0  0  0  0  0  0  0
   35.7810   30.4570   47.1380 C   0  0  0  0  0  0  0  0  0  0  0  0
   34.8420   29.4650   47.1370 N   0  0  0  0  0  0  0  0  0  0  0  0
   34.5460   28.7200   48.2070 C   0  0  0  0  0  0  0  0  0  0  0  0
   35.1910   28.9380   49.3560 N   0  0  0  0  0  0  0  0  0  0  0  0
   33.5340   27.6850   48.1180 C   0  0  0  0  0  0  0  0  0  0  0  0
   33.8310   26.4780   47.5100 C   0  0  0  0  0  0  0  0  0  0  0  0
   32.9080   25.4650   47.4000 C   0  0  0  0  0  0  0  0  0  0  0  0
   31.6690   25.7290   47.9330 C   0  0  0  0  0  0  0  0  0  0  0  0
   31.3310   26.9250   48.5500 C   0  0  0  0  0  0  0  0  0  0  0  0
   32.2960   27.8920   48.6270 N   0  0  0  0  0  0  0  0  0  0  0  0
   37.4660   31.7180   48.4280 C   0  0  0  0  0  0  0  0  0  0  0  0
   38.2870   32.1290   47.4080 C   0  0  0  0  0  0  0  0  0  0  0  0
   39.0550   33.0920   47.9530 N   0  0  0  0  0  0  0  0  0  0  0  0
   38.7420   33.2910   49.2680 C   0  0  0  0  0  0  0  0  0  0  0  0
   37.7440   32.4180   49.5410 N   0  0  0  0  0  0  0  0  0  0  0  0
   36.6493   30.0638   50.3798 H   0  0  0  0  0  0  0  0  0  0  0  0
   35.9926   31.0463   46.2336 H   0  0  0  0  0  0  0  0  0  0  0  0
   34.8403   26.3237   47.1006 H   0  0  0  0  0  0  0  0  0  0  0  0
   33.1457   24.5058   46.9169 H   0  0  0  0  0  0  0  0  0  0  0  0
   30.8996   24.9457   47.8665 H   0  0  0  0  0  0  0  0  0  0  0  0
   30.3245   27.0897   48.9620 H   0  0  0  0  0  0  0  0  0  0  0  0
   38.3123   31.7547   46.3739 H   0  0  0  0  0  0  0  0  0  0  0  0
   39.7843   33.6115   47.4440 H   0  0  0  0  0  0  0  0  0  0  0  0
   39.2043   34.0102   49.9601 H   0  0  0  0  0  0  0  0  0  0  0  0
  2 13  1  0
  2  1  2  0
  3  2  1  0
  4  3  2  0
  4  5  1  0
  5  6  2  0
  6  1  1  0
  7  5  1  0
  7 12  1  0
  8  7  2  0
  9  8  1  0
  9 10  2  0
 10 11  1  0
 11 12  2  0
 13 17  1  0
 14 15  1  0
 14 13  2  0
 15 16  1  0
 16 17  2  0
  1 18  1  0
  3 19  1  0
  8 20  1  0
  9 21  1  0
 10 22  1  0
 11 23  1  0
 14 24  1  0
 15 25  1  0
 16 26  1  0
M  ISO  8  18  14  19  14  20  14  21  14  22  14  23  14  24  14  25   9
M  ISO  1  26  14
M  END
>  <minimizedAffinity>  (1) 
-5.09906006

>  <minimizedRMSD>  (1) 
3.66538024

$$$$
