
     RDKit          3D

 21 22  0  0  0  0  0  0  0  0999 V2000
   37.5550   32.7770   49.9190 C   0  0  0  0  0  0  0  0  0  0  0  0
   38.4990   33.1180   48.9320 C   0  0  0  0  0  0  0  0  0  0  0  0
   38.4780   32.3720   47.7610 C   0  0  0  0  0  0  0  0  0  0  0  0
   37.5630   31.3620   47.6190 N   0  0  0  0  0  0  0  0  0  0  0  0
   36.6790   31.0750   48.5980 C   0  0  0  0  0  0  0  0  0  0  0  0
   36.6850   31.7800   49.7280 N   0  0  0  0  0  0  0  0  0  0  0  0
   35.7220   29.9970   48.4190 C   0  0  0  0  0  0  0  0  0  0  0  0
   35.4880   29.0970   49.4290 C   0  0  0  0  0  0  0  0  0  0  0  0
   34.5850   28.0590   49.2940 C   0  0  0  0  0  0  0  0  0  0  0  0
   33.9360   27.9840   48.0840 C   0  0  0  0  0  0  0  0  0  0  0  0
   34.1430   28.8790   47.0270 C   0  0  0  0  0  0  0  0  0  0  0  0
   35.0500   29.8610   47.2640 N   0  0  0  0  0  0  0  0  0  0  0  0
   39.4640   34.1820   49.0770 C   0  0  0  0  0  0  0  0  0  0  0  0
   40.2050   34.5740   48.1280 O   0  0  0  0  0  0  0  0  0  0  0  0
   37.5328   33.3404   50.8635 H   0  0  0  0  0  0  0  0  0  0  0  0
   39.1913   32.5904   46.9526 H   0  0  0  0  0  0  0  0  0  0  0  0
   36.0367   29.2053   50.3762 H   0  0  0  0  0  0  0  0  0  0  0  0
   34.3974   27.3383   50.1036 H   0  0  0  0  0  0  0  0  0  0  0  0
   33.2096   27.1711   47.9373 H   0  0  0  0  0  0  0  0  0  0  0  0
   33.6073   28.7923   46.0702 H   0  0  0  0  0  0  0  0  0  0  0  0
   39.5598   34.6743   50.0560 H   0  0  0  0  0  0  0  0  0  0  0  0
  2 13  1  0
  2  1  2  0
  3  2  1  0
  4  3  2  0
  4  5  1  0
  5  6  2  0
  6  1  1  0
  7  5  1  0
  7  8  2  0
  9  8  1  0
 10  9  2  0
 11 12  2  0
 11 10  1  0
 12  7  1  0
 14 13  2  0
  1 15  1  0
  3 16  1  0
  8 17  1  0
  9 18  1  0
 10 19  1  0
 11 20  1  0
 13 21  1  0
M  ISO  7  15  14  16  14  17  14  18  14  19  14  20  14  21   6
M  END
>  <minimizedAffinity>  (1) 
-4.93908024

>  <minimizedRMSD>  (1) 
0.686710596

$$$$
