
     RDKit          3D

 33 35  0  0  0  0  0  0  0  0999 V2000
   35.2210   30.0810   49.0700 C   0  0  0  0  0  0  0  0  0  0  0  0
   35.9260   30.5460   47.9610 C   0  0  0  0  0  0  0  0  0  0  0  0
   35.4570   30.1380   46.7210 C   0  0  0  0  0  0  0  0  0  0  0  0
   34.3580   29.3240   46.6580 N   0  0  0  0  0  0  0  0  0  0  0  0
   33.7170   28.9060   47.7560 C   0  0  0  0  0  0  0  0  0  0  0  0
   34.1470   29.2830   48.9640 N   0  0  0  0  0  0  0  0  0  0  0  0
   32.5500   28.0380   47.6310 C   0  0  0  0  0  0  0  0  0  0  0  0
   31.8120   27.7170   48.7540 C   0  0  0  0  0  0  0  0  0  0  0  0
   30.7010   26.8980   48.6760 C   0  0  0  0  0  0  0  0  0  0  0  0
   30.3840   26.4310   47.4230 C   0  0  0  0  0  0  0  0  0  0  0  0
   31.1070   26.7350   46.2640 C   0  0  0  0  0  0  0  0  0  0  0  0
   32.1910   27.5500   46.4280 N   0  0  0  0  0  0  0  0  0  0  0  0
   37.0610   31.3920   48.1370 N   0  0  0  0  0  0  0  0  0  0  0  0
   37.1860   32.0240   49.4370 C   0  0  0  0  0  0  0  0  0  0  0  0
   38.5700   32.5900   49.5360 C   0  0  0  0  0  0  0  0  0  0  0  0
   38.9750   33.3100   48.3550 N   0  0  0  0  0  0  0  0  0  0  0  0
   39.0620   32.4850   47.1830 C   0  0  0  0  0  0  0  0  0  0  0  0
   37.9480   31.5160   46.9960 C   0  0  0  0  0  0  0  0  0  0  0  0
   35.5587   30.3803   50.0732 H   0  0  0  0  0  0  0  0  0  0  0  0
   35.9618   30.4644   45.7998 H   0  0  0  0  0  0  0  0  0  0  0  0
   32.1149   28.1217   49.7310 H   0  0  0  0  0  0  0  0  0  0  0  0
   30.1064   26.6359   49.5636 H   0  0  0  0  0  0  0  0  0  0  0  0
   29.5056   25.7762   47.3248 H   0  0  0  0  0  0  0  0  0  0  0  0
   30.8192   26.3406   45.2783 H   0  0  0  0  0  0  0  0  0  0  0  0
   36.4436   32.8298   49.5350 H   0  0  0  0  0  0  0  0  0  0  0  0
   37.0099   31.2929   50.2398 H   0  0  0  0  0  0  0  0  0  0  0  0
   38.6060   33.2774   50.3940 H   0  0  0  0  0  0  0  0  0  0  0  0
   39.2616   31.7431   49.6556 H   0  0  0  0  0  0  0  0  0  0  0  0
   38.2888   34.0573   48.1774 H   0  0  0  0  0  0  0  0  0  0  0  0
   39.0866   33.1464   46.3044 H   0  0  0  0  0  0  0  0  0  0  0  0
   39.9712   31.8786   47.3080 H   0  0  0  0  0  0  0  0  0  0  0  0
   37.3515   31.8410   46.1308 H   0  0  0  0  0  0  0  0  0  0  0  0
   38.4124   30.5293   46.8519 H   0  0  0  0  0  0  0  0  0  0  0  0
  2 13  1  0
  2  1  2  0
  3  2  1  0
  4  3  2  0
  4  5  1  0
  5  6  2  0
  6  1  1  0
  7  5  1  0
  7  8  2  0
  9  8  1  0
 10  9  2  0
 11 12  2  0
 11 10  1  0
 12  7  1  0
 13 14  1  0
 14 15  1  0
 16 15  1  0
 17 16  1  0
 18 17  1  0
 18 13  1  0
  1 19  1  0
  3 20  1  0
  8 21  1  0
  9 22  1  0
 10 23  1  0
 11 24  1  0
 14 25  1  0
 14 26  1  0
 15 27  1  0
 15 28  1  0
 16 29  1  0
 17 30  1  0
 17 31  1  0
 18 32  1  0
 18 33  1  0
M  ISO  8  19  14  20  14  21  14  22  14  23  14  24  14  25  13  26  13
M  ISO  7  27  13  28  13  29   5  30  13  31  13  32  13  33  13
M  END
>  <minimizedAffinity>  (1) 
-4.88033724

>  <minimizedRMSD>  (1) 
4.17643404

$$$$
