
     RDKit          3D

 20 21  0  0  0  0  0  0  0  0999 V2000
   37.9840   32.9650   49.4560 C   0  0  0  0  0  0  0  0  0  0  0  0
   38.8240   33.1300   48.3440 C   0  0  0  0  0  0  0  0  0  0  0  0
   38.6400   32.2600   47.2770 C   0  0  0  0  0  0  0  0  0  0  0  0
   37.6630   31.3160   47.3870 N   0  0  0  0  0  0  0  0  0  0  0  0
   36.8780   31.1820   48.4560 C   0  0  0  0  0  0  0  0  0  0  0  0
   37.0350   32.0130   49.5090 N   0  0  0  0  0  0  0  0  0  0  0  0
   35.8560   30.1530   48.5070 C   0  0  0  0  0  0  0  0  0  0  0  0
   35.8430   29.2280   49.5170 C   0  0  0  0  0  0  0  0  0  0  0  0
   34.8770   28.2380   49.5860 C   0  0  0  0  0  0  0  0  0  0  0  0
   33.9370   28.2410   48.5830 C   0  0  0  0  0  0  0  0  0  0  0  0
   33.9180   29.1620   47.5440 C   0  0  0  0  0  0  0  0  0  0  0  0
   34.9040   30.1070   47.5460 N   0  0  0  0  0  0  0  0  0  0  0  0
   40.0690   34.4130   48.3330 S   0  0  0  0  0  0  0  0  0  0  0  0
   38.1061   33.6393   50.3165 H   0  0  0  0  0  0  0  0  0  0  0  0
   39.2624   32.3305   46.3728 H   0  0  0  0  0  0  0  0  0  0  0  0
   36.6204   29.2726   50.2939 H   0  0  0  0  0  0  0  0  0  0  0  0
   34.8628   27.4934   50.3955 H   0  0  0  0  0  0  0  0  0  0  0  0
   33.1541   27.4686   48.6047 H   0  0  0  0  0  0  0  0  0  0  0  0
   33.1479   29.1320   46.7591 H   0  0  0  0  0  0  0  0  0  0  0  0
   40.3925   34.7464   49.6218 H   0  0  0  0  0  0  0  0  0  0  0  0
  1  6  2  0
  2  1  1  0
  3  4  1  0
  3  2  2  0
  4  5  2  0
  5  7  1  0
  5  6  1  0
  7  8  2  0
  8  9  1  0
 10  9  2  0
 11 12  2  0
 11 10  1  0
 12  7  1  0
 13  2  1  0
  1 14  1  0
  3 15  1  0
  8 16  1  0
  9 17  1  0
 10 18  1  0
 11 19  1  0
 13 20  1  0
M  ISO  7  14  14  15  14  16  14  17  14  18  14  19  14  20  11
M  END
>  <minimizedAffinity>  (1) 
-4.33726215

>  <minimizedRMSD>  (1) 
0.169500023

$$$$
