
     RDKit          3D

 38 40  0  0  1  0  0  0  0  0999 V2000
   37.6380   31.3730   48.5320 N   0  0  0  0  0  0  0  0  0  0  0  0
   37.9690   31.7880   49.8860 C   0  0  0  0  0  0  0  0  0  0  0  0
   39.0720   32.7870   49.9540 C   0  0  0  0  0  0  0  0  0  0  0  0
   38.9160   33.7930   48.8080 C   0  0  0  0  0  0  0  0  0  0  0  0
   39.2030   33.0170   47.5630 C   0  0  0  0  0  0  0  0  0  0  0  0
   38.2840   31.8360   47.3570 C   0  0  1  0  0  0  0  0  0  0  0  0
   36.3710   29.4640   49.3900 C   0  0  0  0  0  0  0  0  0  0  0  0
   36.5890   30.4310   48.4110 C   0  0  0  0  0  0  0  0  0  0  0  0
   35.7330   30.4200   47.3240 C   0  0  0  0  0  0  0  0  0  0  0  0
   34.7400   29.4910   47.2580 N   0  0  0  0  0  0  0  0  0  0  0  0
   34.5630   28.5720   48.2250 C   0  0  0  0  0  0  0  0  0  0  0  0
   35.3820   28.5710   49.2800 N   0  0  0  0  0  0  0  0  0  0  0  0
   33.4960   27.5970   48.1220 C   0  0  0  0  0  0  0  0  0  0  0  0
   33.7280   26.3760   47.5250 C   0  0  0  0  0  0  0  0  0  0  0  0
   32.7630   25.4080   47.3940 C   0  0  0  0  0  0  0  0  0  0  0  0
   31.5300   25.7550   47.9120 C   0  0  0  0  0  0  0  0  0  0  0  0
   31.2350   26.9920   48.5360 C   0  0  0  0  0  0  0  0  0  0  0  0
   32.2760   27.8800   48.6090 N   0  0  0  0  0  0  0  0  0  0  0  0
   39.2960   30.3450   45.3600 C   0  0  0  0  0  0  0  0  0  0  0  0
   38.6040   30.9830   44.5310 O   0  0  0  0  0  0  0  0  0  0  0  0
   39.0820   30.8180   46.6810 N   0  0  0  0  0  0  0  0  0  0  0  0
   37.0714   32.2303   50.3428 H   0  0  0  0  0  0  0  0  0  0  0  0
   38.3143   30.8913   50.4214 H   0  0  0  0  0  0  0  0  0  0  0  0
   39.0286   33.3172   50.9168 H   0  0  0  0  0  0  0  0  0  0  0  0
   40.0405   32.2732   49.8639 H   0  0  0  0  0  0  0  0  0  0  0  0
   37.8924   34.1951   48.7845 H   0  0  0  0  0  0  0  0  0  0  0  0
   39.5923   34.6531   48.9213 H   0  0  0  0  0  0  0  0  0  0  0  0
   39.0986   33.6925   46.7012 H   0  0  0  0  0  0  0  0  0  0  0  0
   40.2228   32.6168   47.6621 H   0  0  0  0  0  0  0  0  0  0  0  0
   37.4233   32.1337   46.7401 H   0  0  0  0  0  0  0  0  0  0  0  0
   37.0268   29.4346   50.2726 H   0  0  0  0  0  0  0  0  0  0  0  0
   35.8542   31.1580   46.5174 H   0  0  0  0  0  0  0  0  0  0  0  0
   34.7350   26.1672   47.1347 H   0  0  0  0  0  0  0  0  0  0  0  0
   32.9557   24.4362   46.9160 H   0  0  0  0  0  0  0  0  0  0  0  0
   30.7182   25.0168   47.8342 H   0  0  0  0  0  0  0  0  0  0  0  0
   30.2367   27.2242   48.9354 H   0  0  0  0  0  0  0  0  0  0  0  0
   39.9803   29.5249   45.0972 H   0  0  0  0  0  0  0  0  0  0  0  0
   39.6542   30.2916   47.3566 H   0  0  0  0  0  0  0  0  0  0  0  0
  1  2  1  0
  2  3  1  0
  4  3  1  0
  5  4  1  0
  6  5  1  0
  6  1  1  0
  8  1  1  0
  8  7  2  0
  9  8  1  0
 10  9  2  0
 10 11  1  0
 11 12  2  0
 12  7  1  0
 13 11  1  0
 13 18  1  0
 14 13  2  0
 15 14  1  0
 15 16  2  0
 16 17  1  0
 17 18  2  0
 19 21  1  0
 20 19  2  0
 21  6  1  0
  2 22  1  0
  2 23  1  0
  3 24  1  0
  3 25  1  0
  4 26  1  0
  4 27  1  0
  5 28  1  0
  5 29  1  0
  6 30  1  6
  7 31  1  0
  9 32  1  0
 14 33  1  0
 15 34  1  0
 16 35  1  0
 17 36  1  0
 19 37  1  0
 21 38  1  0
M  ISO  8  22  13  23  13  24  13  25  13  26  13  27  13  28  13  29  13
M  ISO  8  30  13  31  14  32  14  33  14  34  14  35  14  36  14  37   6
M  END
>  <minimizedAffinity>  (1) 
-5.57755852

>  <minimizedRMSD>  (1) 
1.54402304

$$$$
