
     RDKit          3D

 48 51  0  0  1  0  0  0  0  0999 V2000
   37.2430   31.0680   48.3200 N   0  0  0  0  0  0  0  0  0  0  0  0
   37.1830   31.9740   49.4630 C   0  0  0  0  0  0  0  0  0  0  0  0
   38.4090   32.8180   49.5990 C   0  0  0  0  0  0  0  0  0  0  0  0
   38.8580   33.2740   48.2250 C   0  0  0  0  0  0  0  0  0  0  0  0
   39.3720   32.0150   47.5560 C   0  0  0  0  0  0  0  0  0  0  0  0
   38.3230   30.9810   47.3880 C   0  0  2  0  0  0  0  0  0  0  0  0
   37.8950   30.9800   46.0020 N   0  0  0  0  0  0  0  0  0  0  0  0
   38.5290   29.9760   45.2200 C   0  0  0  0  0  0  0  0  0  0  0  0
   39.0310   30.4980   43.8810 C   0  0  0  0  0  0  0  0  0  0  0  0
   38.0420   31.2420   43.1500 N   0  0  0  0  0  0  0  0  0  0  0  0
   37.1980   32.0440   44.0170 C   0  0  0  0  0  0  0  0  0  0  0  0
   37.9030   32.2540   45.3660 C   0  0  0  0  0  0  0  0  0  0  0  0
   35.1520   30.4510   47.1670 C   0  0  0  0  0  0  0  0  0  0  0  0
   36.1120   30.2200   48.1610 C   0  0  0  0  0  0  0  0  0  0  0  0
   35.9230   29.1220   48.9790 C   0  0  0  0  0  0  0  0  0  0  0  0
   34.8340   28.3330   48.7830 N   0  0  0  0  0  0  0  0  0  0  0  0
   33.9320   28.5780   47.8230 C   0  0  0  0  0  0  0  0  0  0  0  0
   34.0950   29.6510   47.0080 N   0  0  0  0  0  0  0  0  0  0  0  0
   32.7890   27.7150   47.6400 C   0  0  0  0  0  0  0  0  0  0  0  0
   31.5800   28.2130   47.2760 C   0  0  0  0  0  0  0  0  0  0  0  0
   30.4500   27.4620   47.0810 C   0  0  0  0  0  0  0  0  0  0  0  0
   30.6370   26.1080   47.2900 C   0  0  0  0  0  0  0  0  0  0  0  0
   31.8580   25.5240   47.6680 C   0  0  0  0  0  0  0  0  0  0  0  0
   32.9090   26.3900   47.8290 N   0  0  0  0  0  0  0  0  0  0  0  0
   36.3127   32.6357   49.3415 H   0  0  0  0  0  0  0  0  0  0  0  0
   37.1036   31.3572   50.3703 H   0  0  0  0  0  0  0  0  0  0  0  0
   38.1834   33.6960   50.2221 H   0  0  0  0  0  0  0  0  0  0  0  0
   39.2098   32.2311   50.0725 H   0  0  0  0  0  0  0  0  0  0  0  0
   38.0139   33.6971   47.6608 H   0  0  0  0  0  0  0  0  0  0  0  0
   39.6231   34.0628   48.2756 H   0  0  0  0  0  0  0  0  0  0  0  0
   39.7652   32.2805   46.5636 H   0  0  0  0  0  0  0  0  0  0  0  0
   40.1520   31.5911   48.2056 H   0  0  0  0  0  0  0  0  0  0  0  0
   38.7654   30.0041   47.6330 H   0  0  0  0  0  0  0  0  0  0  0  0
   39.3850   29.5790   45.7853 H   0  0  0  0  0  0  0  0  0  0  0  0
   37.7802   29.1977   45.0115 H   0  0  0  0  0  0  0  0  0  0  0  0
   39.8951   31.1536   44.0644 H   0  0  0  0  0  0  0  0  0  0  0  0
   39.2950   29.6222   43.2700 H   0  0  0  0  0  0  0  0  0  0  0  0
   38.5220   31.8665   42.4863 H   0  0  0  0  0  0  0  0  0  0  0  0
   37.0102   33.0199   43.5455 H   0  0  0  0  0  0  0  0  0  0  0  0
   36.2416   31.5255   44.1797 H   0  0  0  0  0  0  0  0  0  0  0  0
   37.3576   32.9907   45.9742 H   0  0  0  0  0  0  0  0  0  0  0  0
   38.9253   32.6390   45.2366 H   0  0  0  0  0  0  0  0  0  0  0  0
   35.2726   31.3162   46.4985 H   0  0  0  0  0  0  0  0  0  0  0  0
   36.6436   28.8902   49.7771 H   0  0  0  0  0  0  0  0  0  0  0  0
   31.5011   29.2999   47.1264 H   0  0  0  0  0  0  0  0  0  0  0  0
   29.4836   27.8964   46.7855 H   0  0  0  0  0  0  0  0  0  0  0  0
   29.7717   25.4432   47.1510 H   0  0  0  0  0  0  0  0  0  0  0  0
   31.9640   24.4404   47.8249 H   0  0  0  0  0  0  0  0  0  0  0  0
  1  2  1  0
  2  3  1  0
  4  3  1  0
  5  4  1  0
  6  5  1  0
  6  1  1  0
  7 12  1  0
  7  6  1  0
  8  7  1  0
  9  8  1  0
 10  9  1  0
 10 11  1  0
 11 12  1  0
 13 14  2  0
 14  1  1  0
 14 15  1  0
 16 15  2  0
 17 16  1  0
 18 13  1  0
 18 17  2  0
 19 17  1  0
 19 24  1  0
 20 19  2  0
 21 20  1  0
 21 22  2  0
 22 23  1  0
 23 24  2  0
  2 25  1  0
  2 26  1  0
  3 27  1  0
  3 28  1  0
  4 29  1  0
  4 30  1  0
  5 31  1  0
  5 32  1  0
  6 33  1  1
  8 34  1  0
  8 35  1  0
  9 36  1  0
  9 37  1  0
 10 38  1  0
 11 39  1  0
 11 40  1  0
 12 41  1  0
 12 42  1  0
 13 43  1  0
 15 44  1  0
 20 45  1  0
 21 46  1  0
 22 47  1  0
 23 48  1  0
M  ISO  8  25  13  26  13  27  13  28  13  29  13  30  13  31  13  32  13
M  ISO  8  33  13  34  13  35  13  36  13  37  13  38   5  39  13  40  13
M  ISO  8  41  13  42  13  43  14  44  14  45  14  46  14  47  14  48  14
M  END
>  <minimizedAffinity>  (1) 
-5.41559553

>  <minimizedRMSD>  (1) 
2.10144711

$$$$
