
     RDKit          3D

 37 39  0  0  1  0  0  0  0  0999 V2000
   36.2330   29.2120   49.3160 C   0  0  0  0  0  0  0  0  0  0  0  0
   36.3540   30.2890   48.4310 C   0  0  0  0  0  0  0  0  0  0  0  0
   35.3800   30.4110   47.4570 C   0  0  0  0  0  0  0  0  0  0  0  0
   34.3720   29.4920   47.4110 N   0  0  0  0  0  0  0  0  0  0  0  0
   34.2850   28.4680   48.2750 C   0  0  0  0  0  0  0  0  0  0  0  0
   35.2210   28.3410   49.2200 N   0  0  0  0  0  0  0  0  0  0  0  0
   37.4430   31.1940   48.5630 N   0  0  0  0  0  0  0  0  0  0  0  0
   37.9030   31.4650   49.9200 C   0  0  0  0  0  0  0  0  0  0  0  0
   39.0190   32.4560   49.9710 C   0  0  0  0  0  0  0  0  0  0  0  0
   38.8490   33.5140   48.9050 C   0  0  0  0  0  0  0  0  0  0  0  0
   39.0110   32.8130   47.5870 C   0  0  0  0  0  0  0  0  0  0  0  0
   37.9810   31.7500   47.3550 C   0  0  1  0  0  0  0  0  0  0  0  0
   38.6120   30.5870   46.5790 C   0  0  0  0  0  0  0  0  0  0  0  0
   33.1940   27.5260   48.1760 C   0  0  0  0  0  0  0  0  0  0  0  0
   33.3930   26.3100   47.5550 C   0  0  0  0  0  0  0  0  0  0  0  0
   32.4120   25.3620   47.4200 C   0  0  0  0  0  0  0  0  0  0  0  0
   31.2040   25.7060   47.9480 C   0  0  0  0  0  0  0  0  0  0  0  0
   30.9390   26.9380   48.5950 C   0  0  0  0  0  0  0  0  0  0  0  0
   31.9900   27.8190   48.6790 N   0  0  0  0  0  0  0  0  0  0  0  0
   36.9853   29.0782   50.1073 H   0  0  0  0  0  0  0  0  0  0  0  0
   35.4171   31.2361   46.7304 H   0  0  0  0  0  0  0  0  0  0  0  0
   37.0582   31.8582   50.5045 H   0  0  0  0  0  0  0  0  0  0  0  0
   38.2837   30.5193   50.3333 H   0  0  0  0  0  0  0  0  0  0  0  0
   39.0274   32.9386   50.9595 H   0  0  0  0  0  0  0  0  0  0  0  0
   39.9672   31.9273   49.7939 H   0  0  0  0  0  0  0  0  0  0  0  0
   37.8495   33.9680   48.9748 H   0  0  0  0  0  0  0  0  0  0  0  0
   39.5864   34.3219   49.0218 H   0  0  0  0  0  0  0  0  0  0  0  0
   38.9318   33.5586   46.7821 H   0  0  0  0  0  0  0  0  0  0  0  0
   39.9942   32.3198   47.5970 H   0  0  0  0  0  0  0  0  0  0  0  0
   37.1664   32.2410   46.8024 H   0  0  0  0  0  0  0  0  0  0  0  0
   39.0130   29.8478   47.2881 H   0  0  0  0  0  0  0  0  0  0  0  0
   37.8483   30.1113   45.9462 H   0  0  0  0  0  0  0  0  0  0  0  0
   39.4272   30.9679   45.9462 H   0  0  0  0  0  0  0  0  0  0  0  0
   34.3906   26.0899   47.1471 H   0  0  0  0  0  0  0  0  0  0  0  0
   32.5869   24.3964   46.9229 H   0  0  0  0  0  0  0  0  0  0  0  0
   30.3814   24.9802   47.8666 H   0  0  0  0  0  0  0  0  0  0  0  0
   29.9473   27.1760   49.0071 H   0  0  0  0  0  0  0  0  0  0  0  0
  2  7  1  0
  2  1  2  0
  3  2  1  0
  4  3  2  0
  4  5  1  0
  5  6  2  0
  6  1  1  0
  7  8  1  0
  8  9  1  0
 10  9  1  0
 11 10  1  0
 12 11  1  0
 12  7  1  0
 13 12  1  0
 14  5  1  0
 14 19  1  0
 15 14  2  0
 16 15  1  0
 16 17  2  0
 17 18  1  0
 18 19  2  0
  1 20  1  0
  3 21  1  0
  8 22  1  0
  8 23  1  0
  9 24  1  0
  9 25  1  0
 10 26  1  0
 10 27  1  0
 11 28  1  0
 11 29  1  0
 12 30  1  6
 13 31  1  0
 13 32  1  0
 13 33  1  0
 15 34  1  0
 16 35  1  0
 17 36  1  0
 18 37  1  0
M  ISO  8  20  14  21  14  22  13  23  13  24  13  25  13  26  13  27  13
M  ISO  8  28  13  29  13  30  13  31   8  32   8  33   8  34  14  35  14
M  ISO  2  36  14  37  14
M  END
>  <minimizedAffinity>  (1) 
-5.38637733

>  <minimizedRMSD>  (1) 
1.1350075

$$$$
