
     RDKit          3D

 36 38  0  0  1  0  0  0  0  0999 V2000
   36.3180   29.2660   49.2900 C   0  0  0  0  0  0  0  0  0  0  0  0
   36.4560   30.3190   48.3900 C   0  0  0  0  0  0  0  0  0  0  0  0
   35.5070   30.4160   47.3840 C   0  0  0  0  0  0  0  0  0  0  0  0
   34.5060   29.4930   47.3280 N   0  0  0  0  0  0  0  0  0  0  0  0
   34.3990   28.4940   48.2030 C   0  0  0  0  0  0  0  0  0  0  0  0
   35.3130   28.3880   49.1860 N   0  0  0  0  0  0  0  0  0  0  0  0
   37.5320   31.2430   48.5160 N   0  0  0  0  0  0  0  0  0  0  0  0
   37.9490   31.5660   49.8600 C   0  0  0  0  0  0  0  0  0  0  0  0
   38.9930   32.6250   49.9350 C   0  0  0  0  0  0  0  0  0  0  0  0
   38.8680   33.6200   48.7940 C   0  0  0  0  0  0  0  0  0  0  0  0
   39.1310   32.8420   47.5350 C   0  0  0  0  0  0  0  0  0  0  0  0
   38.1060   31.7720   47.3220 C   0  0  1  0  0  0  0  0  0  0  0  0
   38.6950   30.6860   46.4560 C   0  0  0  0  0  0  0  0  0  0  0  0
   39.6440   30.5780   45.6680 O   0  0  0  0  0  0  0  0  0  0  0  0
   33.3230   27.5290   48.1200 C   0  0  0  0  0  0  0  0  0  0  0  0
   33.5130   26.3060   47.5300 C   0  0  0  0  0  0  0  0  0  0  0  0
   32.5130   25.3710   47.4350 C   0  0  0  0  0  0  0  0  0  0  0  0
   31.3090   25.7270   47.9670 C   0  0  0  0  0  0  0  0  0  0  0  0
   31.0580   26.9770   48.5860 C   0  0  0  0  0  0  0  0  0  0  0  0
   32.1120   27.8560   48.6400 N   0  0  0  0  0  0  0  0  0  0  0  0
   37.0499   29.1531   50.1034 H   0  0  0  0  0  0  0  0  0  0  0  0
   35.5612   31.2261   46.6419 H   0  0  0  0  0  0  0  0  0  0  0  0
   37.0679   31.9093   50.4219 H   0  0  0  0  0  0  0  0  0  0  0  0
   38.3931   30.6525   50.2823 H   0  0  0  0  0  0  0  0  0  0  0  0
   38.8879   33.1620   50.8892 H   0  0  0  0  0  0  0  0  0  0  0  0
   39.9780   32.1409   49.8610 H   0  0  0  0  0  0  0  0  0  0  0  0
   37.8564   34.0515   48.7723 H   0  0  0  0  0  0  0  0  0  0  0  0
   39.5761   34.4541   48.9075 H   0  0  0  0  0  0  0  0  0  0  0  0
   39.1097   33.5318   46.6785 H   0  0  0  0  0  0  0  0  0  0  0  0
   40.1156   32.3605   47.6284 H   0  0  0  0  0  0  0  0  0  0  0  0
   37.2561   32.2468   46.8100 H   0  0  0  0  0  0  0  0  0  0  0  0
   38.1349   29.7438   46.5489 H   0  0  0  0  0  0  0  0  0  0  0  0
   34.5039   26.0653   47.1174 H   0  0  0  0  0  0  0  0  0  0  0  0
   32.6731   24.3927   46.9582 H   0  0  0  0  0  0  0  0  0  0  0  0
   30.4841   25.0014   47.9125 H   0  0  0  0  0  0  0  0  0  0  0  0
   30.0713   27.2298   49.0012 H   0  0  0  0  0  0  0  0  0  0  0  0
  2  7  1  0
  2  1  2  0
  3  2  1  0
  4  3  2  0
  4  5  1  0
  5  6  2  0
  6  1  1  0
  7  8  1  0
  8  9  1  0
 10  9  1  0
 11 10  1  0
 12 11  1  0
 12  7  1  0
 13 12  1  0
 14 13  2  0
 15  5  1  0
 15 20  1  0
 16 15  2  0
 17 16  1  0
 17 18  2  0
 18 19  1  0
 19 20  2  0
  1 21  1  0
  3 22  1  0
  8 23  1  0
  8 24  1  0
  9 25  1  0
  9 26  1  0
 10 27  1  0
 10 28  1  0
 11 29  1  0
 11 30  1  0
 12 31  1  6
 13 32  1  0
 16 33  1  0
 17 34  1  0
 18 35  1  0
 19 36  1  0
M  ISO  8  21  14  22  14  23  13  24  13  25  13  26  13  27  13  28  13
M  ISO  8  29  13  30  13  31  13  32   6  33  14  34  14  35  14  36  14
M  END
>  <minimizedAffinity>  (1) 
-5.32671404

>  <minimizedRMSD>  (1) 
1.17060375

$$$$
