
     RDKit          3D

 42 45  0  0  1  0  0  0  0  0999 V2000
   36.8830   30.8480   48.6910 N   0  0  0  0  0  0  0  0  0  0  0  0
   37.5650   30.5300   49.9430 C   0  0  0  0  0  0  0  0  0  0  0  0
   38.7310   31.4270   50.2150 C   0  0  0  0  0  0  0  0  0  0  0  0
   38.4340   32.8410   49.7420 C   0  0  0  0  0  0  0  0  0  0  0  0
   38.3640   32.7520   48.2450 C   0  0  0  0  0  0  0  0  0  0  0  0
   37.2570   31.8670   47.7530 C   0  0  1  0  0  0  0  0  0  0  0  0
   35.6200   28.7630   48.8980 C   0  0  0  0  0  0  0  0  0  0  0  0
   35.7390   30.0520   48.3920 C   0  0  0  0  0  0  0  0  0  0  0  0
   34.7070   30.5140   47.5950 C   0  0  0  0  0  0  0  0  0  0  0  0
   33.6410   29.6950   47.3450 N   0  0  0  0  0  0  0  0  0  0  0  0
   33.5510   28.4650   47.8410 C   0  0  0  0  0  0  0  0  0  0  0  0
   34.5480   28.0150   48.6150 N   0  0  0  0  0  0  0  0  0  0  0  0
   32.4090   27.6290   47.5560 C   0  0  0  0  0  0  0  0  0  0  0  0
   32.5310   26.2620   47.5480 C   0  0  0  0  0  0  0  0  0  0  0  0
   31.4980   25.3980   47.2890 C   0  0  0  0  0  0  0  0  0  0  0  0
   30.3040   26.0130   47.0300 C   0  0  0  0  0  0  0  0  0  0  0  0
   30.1140   27.4100   47.0220 C   0  0  0  0  0  0  0  0  0  0  0  0
   31.2150   28.1840   47.2960 N   0  0  0  0  0  0  0  0  0  0  0  0
   37.7510   31.1540   46.5200 C   0  0  0  0  0  0  0  0  0  0  0  0
   37.0320   30.7190   45.4470 C   0  0  0  0  0  0  0  0  0  0  0  0
   37.6270   30.0860   44.3990 C   0  0  0  0  0  0  0  0  0  0  0  0
   38.9670   29.8930   44.4400 N   0  0  0  0  0  0  0  0  0  0  0  0
   39.6860   30.3220   45.4990 C   0  0  0  0  0  0  0  0  0  0  0  0
   39.0920   30.9450   46.5280 N   0  0  0  0  0  0  0  0  0  0  0  0
   36.8458   30.6290   50.7694 H   0  0  0  0  0  0  0  0  0  0  0  0
   37.9512   29.5036   49.8570 H   0  0  0  0  0  0  0  0  0  0  0  0
   38.9326   31.4414   51.2963 H   0  0  0  0  0  0  0  0  0  0  0  0
   39.6084   31.0461   49.6718 H   0  0  0  0  0  0  0  0  0  0  0  0
   37.4753   33.1911   50.1523 H   0  0  0  0  0  0  0  0  0  0  0  0
   39.2023   33.5544   50.0747 H   0  0  0  0  0  0  0  0  0  0  0  0
   38.2071   33.7635   47.8423 H   0  0  0  0  0  0  0  0  0  0  0  0
   39.3108   32.3103   47.9008 H   0  0  0  0  0  0  0  0  0  0  0  0
   36.3833   32.5111   47.5751 H   0  0  0  0  0  0  0  0  0  0  0  0
   36.4157   28.3538   49.5378 H   0  0  0  0  0  0  0  0  0  0  0  0
   34.7435   31.5271   47.1679 H   0  0  0  0  0  0  0  0  0  0  0  0
   33.5204   25.8320   47.7630 H   0  0  0  0  0  0  0  0  0  0  0  0
   31.6192   24.3047   47.2895 H   0  0  0  0  0  0  0  0  0  0  0  0
   29.4343   25.3753   46.8136 H   0  0  0  0  0  0  0  0  0  0  0  0
   29.1326   27.8579   46.8070 H   0  0  0  0  0  0  0  0  0  0  0  0
   35.9445   30.8834   45.4274 H   0  0  0  0  0  0  0  0  0  0  0  0
   37.0340   29.7397   43.5397 H   0  0  0  0  0  0  0  0  0  0  0  0
   40.7736   30.1585   45.5184 H   0  0  0  0  0  0  0  0  0  0  0  0
  1  2  1  0
  2  3  1  0
  4  3  1  0
  5  4  1  0
  6  5  1  0
  6  1  1  0
  8  1  1  0
  8  7  2  0
  9  8  1  0
 10  9  2  0
 10 11  1  0
 11 12  2  0
 12  7  1  0
 13 11  1  0
 14 13  2  0
 15 14  1  0
 16 15  2  0
 17 16  1  0
 17 18  2  0
 18 13  1  0
 19 24  1  0
 19  6  1  0
 20 19  2  0
 21 22  2  0
 21 20  1  0
 22 23  1  0
 23 24  2  0
  2 25  1  0
  2 26  1  0
  3 27  1  0
  3 28  1  0
  4 29  1  0
  4 30  1  0
  5 31  1  0
  5 32  1  0
  6 33  1  6
  7 34  1  0
  9 35  1  0
 14 36  1  0
 15 37  1  0
 16 38  1  0
 17 39  1  0
 20 40  1  0
 21 41  1  0
 23 42  1  0
M  ISO  8  25  13  26  13  27  13  28  13  29  13  30  13  31  13  32  13
M  ISO  8  33  13  34  14  35  14  36  14  37  14  38  14  39  14  40  14
M  ISO  2  41  14  42  14
M  END
>  <minimizedAffinity>  (1) 
-5.22686338

>  <minimizedRMSD>  (1) 
1.18710101

$$$$
