
     RDKit          3D

 18 19  0  0  1  0  0  0  0  0999 V2000
   37.9970   33.1490   49.4140 C   0  0  0  0  0  0  0  0  0  0  0  0
   38.9920   33.0580   48.4220 C   0  0  0  0  0  0  0  0  0  0  0  0
   38.9520   31.9790   47.4920 C   0  0  0  0  0  0  0  0  0  0  0  0
   37.9320   31.0810   47.6210 N   0  0  0  0  0  0  0  0  0  0  0  0
   36.9950   31.1980   48.5840 C   0  0  0  0  0  0  0  0  0  0  0  0
   37.0100   32.2090   49.4760 N   0  0  0  0  0  0  0  0  0  0  0  0
   35.9380   30.1330   48.6380 C   0  0  2  0  0  0  0  0  0  0  0  0
   34.9590   30.0870   49.7460 C   0  0  0  0  0  0  0  0  0  0  0  0
   36.0720   29.0650   49.6420 C   0  0  2  0  0  0  0  0  0  0  0  0
   37.4520   29.2500   50.8350 S   0  0  0  0  0  0  0  0  0  0  0  0
   38.0153   33.9769   50.1381 H   0  0  0  0  0  0  0  0  0  0  0  0
   39.7914   33.8115   48.3655 H   0  0  0  0  0  0  0  0  0  0  0  0
   39.7114   31.8741   46.7031 H   0  0  0  0  0  0  0  0  0  0  0  0
   35.8335   30.1702   47.5436 H   0  0  0  0  0  0  0  0  0  0  0  0
   34.9822   30.8515   50.5366 H   0  0  0  0  0  0  0  0  0  0  0  0
   33.8624   30.0473   49.8225 H   0  0  0  0  0  0  0  0  0  0  0  0
   36.1256   27.9666   49.6148 H   0  0  0  0  0  0  0  0  0  0  0  0
   36.9627   29.1844   52.1130 H   0  0  0  0  0  0  0  0  0  0  0  0
  1  6  2  0
  2  1  1  0
  3  4  1  0
  3  2  2  0
  4  5  2  0
  5  7  1  0
  5  6  1  0
  7  9  1  0
  7  8  1  0
  9  8  1  0
  9 10  1  0
  1 11  1  0
  2 12  1  0
  3 13  1  0
  7 14  1  6
  8 15  1  0
  8 16  1  0
  9 17  1  6
 10 18  1  0
M  ISO  8  11  14  12  14  13  14  14  13  15  13  16  13  17  13  18  11
M  END
>  <minimizedAffinity>  (1) 
-3.96006346

>  <minimizedRMSD>  (1) 
1.42239916

$$$$
