
     RDKit          3D

 35 37  0  0  1  0  0  0  0  0999 V2000
   35.1900   30.0200   49.0780 C   0  0  0  0  0  0  0  0  0  0  0  0
   35.9370   30.4440   47.9700 C   0  0  0  0  0  0  0  0  0  0  0  0
   35.4640   30.1100   46.7130 C   0  0  0  0  0  0  0  0  0  0  0  0
   34.3090   29.3920   46.6310 N   0  0  0  0  0  0  0  0  0  0  0  0
   33.6130   28.9980   47.6960 C   0  0  0  0  0  0  0  0  0  0  0  0
   34.0550   29.3130   48.9360 N   0  0  0  0  0  0  0  0  0  0  0  0
   37.1330   31.1900   48.1700 N   0  0  0  0  0  0  0  0  0  0  0  0
   37.3240   31.7820   49.4760 C   0  0  0  0  0  0  0  0  0  0  0  0
   38.5730   32.5900   49.5940 C   0  0  0  0  0  0  0  0  0  0  0  0
   38.9190   33.2600   48.2710 C   0  0  0  0  0  0  0  0  0  0  0  0
   39.2560   32.1010   47.3420 C   0  0  0  0  0  0  0  0  0  0  0  0
   38.0370   31.2880   47.0610 C   0  0  2  0  0  0  0  0  0  0  0  0
   37.3570   31.9590   46.0280 O   0  0  0  0  0  0  0  0  0  0  0  0
   32.3850   28.2340   47.5610 C   0  0  0  0  0  0  0  0  0  0  0  0
   32.1370   27.1420   48.3380 C   0  0  0  0  0  0  0  0  0  0  0  0
   30.9730   26.4130   48.2140 C   0  0  0  0  0  0  0  0  0  0  0  0
   30.0820   26.8400   47.2740 C   0  0  0  0  0  0  0  0  0  0  0  0
   30.2960   27.9550   46.4550 C   0  0  0  0  0  0  0  0  0  0  0  0
   31.4750   28.6270   46.6360 N   0  0  0  0  0  0  0  0  0  0  0  0
   35.5413   30.2721   50.0894 H   0  0  0  0  0  0  0  0  0  0  0  0
   36.0054   30.4157   45.8055 H   0  0  0  0  0  0  0  0  0  0  0  0
   36.4660   32.4366   49.6889 H   0  0  0  0  0  0  0  0  0  0  0  0
   37.4095   30.9532   50.1941 H   0  0  0  0  0  0  0  0  0  0  0  0
   38.4289   33.3642   50.3620 H   0  0  0  0  0  0  0  0  0  0  0  0
   39.3987   31.9186   49.8723 H   0  0  0  0  0  0  0  0  0  0  0  0
   38.0610   33.8311   47.8868 H   0  0  0  0  0  0  0  0  0  0  0  0
   39.7469   33.9780   48.3662 H   0  0  0  0  0  0  0  0  0  0  0  0
   39.6526   32.4983   46.3960 H   0  0  0  0  0  0  0  0  0  0  0  0
   40.0073   31.4612   47.8280 H   0  0  0  0  0  0  0  0  0  0  0  0
   38.3556   30.2639   46.8167 H   0  0  0  0  0  0  0  0  0  0  0  0
   36.7097   32.5977   46.4195 H   0  0  0  0  0  0  0  0  0  0  0  0
   32.8849   26.8341   49.0835 H   0  0  0  0  0  0  0  0  0  0  0  0
   30.7733   25.5318   48.8414 H   0  0  0  0  0  0  0  0  0  0  0  0
   29.1443   26.2778   47.1528 H   0  0  0  0  0  0  0  0  0  0  0  0
   29.5563   28.2742   45.7060 H   0  0  0  0  0  0  0  0  0  0  0  0
  2  7  1  0
  2  1  2  0
  3  2  1  0
  4  3  2  0
  4  5  1  0
  5  6  2  0
  6  1  1  0
  7  8  1  0
  8  9  1  0
 10  9  1  0
 11 10  1  0
 12 11  1  0
 12  7  1  0
 13 12  1  0
 14  5  1  0
 14 15  2  0
 16 15  1  0
 17 16  2  0
 18 19  2  0
 18 17  1  0
 19 14  1  0
  1 20  1  0
  3 21  1  0
  8 22  1  0
  8 23  1  0
  9 24  1  0
  9 25  1  0
 10 26  1  0
 10 27  1  0
 11 28  1  0
 11 29  1  0
 12 30  1  6
 13 31  1  0
 15 32  1  0
 16 33  1  0
 17 34  1  0
 18 35  1  0
M  ISO  8  20  14  21  14  22  13  23  13  24  13  25  13  26  13  27  13
M  ISO  8  28  13  29  13  30  13  31   3  32  14  33  14  34  14  35  14
M  END
>  <minimizedAffinity>  (1) 
-5.20568085

>  <minimizedRMSD>  (1) 
0.407040805

$$$$
