
     RDKit          3D

 25 26  0  0  0  0  0  0  0  0999 V2000
   37.2430   31.1960   49.0820 C   0  0  0  0  0  0  0  0  0  0  0  0
   37.7610   32.4170   49.5540 C   0  0  0  0  0  0  0  0  0  0  0  0
   38.7180   33.0090   48.7470 C   0  0  0  0  0  0  0  0  0  0  0  0
   39.1080   32.4220   47.5780 N   0  0  0  0  0  0  0  0  0  0  0  0
   38.5860   31.2500   47.1600 C   0  0  0  0  0  0  0  0  0  0  0  0
   37.6470   30.6370   47.9230 N   0  0  0  0  0  0  0  0  0  0  0  0
   39.0330   30.6890   45.9330 N   0  0  0  0  0  0  0  0  0  0  0  0
   36.1840   30.5220   49.9200 C   0  0  0  0  0  0  0  0  0  0  0  0
   35.9910   29.0770   49.8580 C   0  0  0  0  0  0  0  0  0  0  0  0
   36.7810   29.6400   51.0060 C   0  0  0  0  0  0  0  0  0  0  0  0
   40.4640   31.2950   45.2330 S   0  0  0  0  0  0  0  0  0  0  0  0
   40.4660   32.7940   45.1880 O   0  0  0  0  0  0  0  0  0  0  0  0
   40.5370   30.7630   43.8150 O   0  0  0  0  0  0  0  0  0  0  0  0
   41.8570   30.7150   45.9930 O   0  0  0  0  0  0  0  0  0  0  0  0
   37.4282   32.8700   50.4995 H   0  0  0  0  0  0  0  0  0  0  0  0
   39.1697   33.9645   49.0519 H   0  0  0  0  0  0  0  0  0  0  0  0
   38.5035   29.9325   45.4766 H   0  0  0  0  0  0  0  0  0  0  0  0
   35.4708   31.3551   49.8338 H   0  0  0  0  0  0  0  0  0  0  0  0
   34.9928   28.6522   50.0397 H   0  0  0  0  0  0  0  0  0  0  0  0
   36.1869   28.3088   49.0954 H   0  0  0  0  0  0  0  0  0  0  0  0
   37.8687   29.4854   51.0617 H   0  0  0  0  0  0  0  0  0  0  0  0
   36.7266   29.5903   52.1035 H   0  0  0  0  0  0  0  0  0  0  0  0
   40.4665   33.1519   46.1111 H   0  0  0  0  0  0  0  0  0  0  0  0
   40.6716   29.7824   43.8369 H   0  0  0  0  0  0  0  0  0  0  0  0
   41.7415   30.7631   46.9751 H   0  0  0  0  0  0  0  0  0  0  0  0
  1  2  2  0
  1  8  1  0
  3  2  1  0
  4  3  2  0
  5  4  1  0
  5  6  2  0
  6  1  1  0
  7  5  1  0
  8 10  1  0
  9  8  1  0
  9 10  1  0
 11  7  1  0
 11 14  1  0
 12 11  1  0
 13 11  1  0
  2 15  1  0
  3 16  1  0
  7 17  1  0
  8 18  1  0
  9 19  1  0
  9 20  1  0
 10 21  1  0
 10 22  1  0
 12 23  1  0
 13 24  1  0
 14 25  1  0
M  ISO  8  15  14  16  14  18  13  19  13  20  13  21  13  22  13  23   3
M  ISO  2  24   3  25   3
M  END
>  <minimizedAffinity>  (1) 
-5.68745518

>  <minimizedRMSD>  (1) 
0.634568155

$$$$
