
     RDKit          3D

 23 24  0  0  1  0  0  0  0  0999 V2000
   35.5490   30.5990   49.2530 C   0  0  1  0  0  0  0  0  0  0  0  0
   35.2830   29.3210   48.6380 C   0  0  0  0  0  0  0  0  0  0  0  0
   35.8540   29.3080   50.0280 C   0  0  1  0  0  0  0  0  0  0  0  0
   36.8140   31.3580   48.9310 C   0  0  0  0  0  0  0  0  0  0  0  0
   37.0670   32.5130   49.6800 C   0  0  0  0  0  0  0  0  0  0  0  0
   38.2170   33.2020   49.3490 C   0  0  0  0  0  0  0  0  0  0  0  0
   39.0310   32.7590   48.3520 N   0  0  0  0  0  0  0  0  0  0  0  0
   38.7480   31.6330   47.6500 C   0  0  0  0  0  0  0  0  0  0  0  0
   37.6330   30.9250   47.9380 N   0  0  0  0  0  0  0  0  0  0  0  0
   39.5700   31.1420   46.5920 N   0  0  0  0  0  0  0  0  0  0  0  0
   37.7860   29.3370   51.5170 C   0  0  0  0  0  0  0  0  0  0  0  0
   37.1310   29.9840   52.3980 O   0  0  0  0  0  0  0  0  0  0  0  0
   37.2150   28.9420   50.2620 N   0  0  0  0  0  0  0  0  0  0  0  0
   34.9229   31.4980   49.3522 H   0  0  0  0  0  0  0  0  0  0  0  0
   34.2423   29.0033   48.4766 H   0  0  0  0  0  0  0  0  0  0  0  0
   35.5843   28.8567   47.6874 H   0  0  0  0  0  0  0  0  0  0  0  0
   35.5695   28.8573   50.9903 H   0  0  0  0  0  0  0  0  0  0  0  0
   36.3928   32.8503   50.4811 H   0  0  0  0  0  0  0  0  0  0  0  0
   38.4782   34.1192   49.8972 H   0  0  0  0  0  0  0  0  0  0  0  0
   40.4309   31.6447   46.3330 H   0  0  0  0  0  0  0  0  0  0  0  0
   39.3025   30.2849   46.0873 H   0  0  0  0  0  0  0  0  0  0  0  0
   38.8322   29.0705   51.7276 H   0  0  0  0  0  0  0  0  0  0  0  0
   37.7606   28.4190   49.5622 H   0  0  0  0  0  0  0  0  0  0  0  0
  1  3  1  0
  2  1  1  0
  2  3  1  0
  3 13  1  0
  4  1  1  0
  4  5  2  0
  6  5  1  0
  7  6  2  0
  8  9  2  0
  8  7  1  0
  9  4  1  0
 10  8  1  0
 11 12  2  0
 13 11  1  0
  1 14  1  1
  2 15  1  0
  2 16  1  0
  3 17  1  1
  5 18  1  0
  6 19  1  0
 10 20  1  0
 10 21  1  0
 11 22  1  0
 13 23  1  0
M  ISO  7  14  13  15  13  16  13  17  13  18  14  19  14  22   6
M  END
>  <minimizedAffinity>  (1) 
-4.54176807

>  <minimizedRMSD>  (1) 
0.879758477

$$$$
