
     RDKit          3D

 32 34  0  0  1  0  0  0  0  0999 V2000
   36.7140   29.3810   49.9860 C   0  0  1  0  0  0  0  0  0  0  0  0
   36.0220   29.4930   51.2480 C   0  0  0  0  0  0  0  0  0  0  0  0
   35.2510   29.3480   49.9760 C   0  0  2  0  0  0  0  0  0  0  0  0
   37.3670   30.5800   49.3620 C   0  0  0  0  0  0  0  0  0  0  0  0
   37.0850   31.8210   49.9740 C   0  0  0  0  0  0  0  0  0  0  0  0
   37.6960   32.9030   49.3900 C   0  0  0  0  0  0  0  0  0  0  0  0
   38.5000   32.7430   48.3150 N   0  0  0  0  0  0  0  0  0  0  0  0
   38.7490   31.5280   47.7510 C   0  0  0  0  0  0  0  0  0  0  0  0
   38.1570   30.4190   48.3020 N   0  0  0  0  0  0  0  0  0  0  0  0
   39.5930   31.3300   46.6530 N   0  0  0  0  0  0  0  0  0  0  0  0
   34.6810   28.0900   49.7580 O   0  0  0  0  0  0  0  0  0  0  0  0
   33.4410   26.8680   47.8560 O   0  0  0  0  0  0  0  0  0  0  0  0
   33.5090   28.1770   48.5740 P   0  0  1  0  0  0  0  0  0  0  0  0
   31.9560   28.3280   49.3400 O   0  0  0  0  0  0  0  0  0  0  0  0
   33.7850   29.4920   47.6000 O   0  0  0  0  0  0  0  0  0  0  0  0
   34.1520   29.8410   46.4590 C   0  0  0  0  0  0  0  0  0  0  0  0
   35.4800   30.0160   46.1280 C   0  0  0  0  0  0  0  0  0  0  0  0
   36.1050   30.3810   44.9890 C   0  0  0  0  0  0  0  0  0  0  0  0
   35.0690   30.6210   43.9240 C   0  0  0  0  0  0  0  0  0  0  0  0
   33.3710   30.2770   44.7630 S   0  0  0  0  0  0  0  0  0  0  0  0
   37.5215   28.7207   49.6367 H   0  0  0  0  0  0  0  0  0  0  0  0
   36.0549   28.6635   51.9697 H   0  0  0  0  0  0  0  0  0  0  0  0
   36.0271   30.2143   52.0785 H   0  0  0  0  0  0  0  0  0  0  0  0
   34.4524   29.9103   49.4700 H   0  0  0  0  0  0  0  0  0  0  0  0
   36.4269   31.9136   50.8506 H   0  0  0  0  0  0  0  0  0  0  0  0
   37.5297   33.9098   49.8008 H   0  0  0  0  0  0  0  0  0  0  0  0
   40.0577   32.1348   46.2089 H   0  0  0  0  0  0  0  0  0  0  0  0
   39.7497   30.3794   46.2887 H   0  0  0  0  0  0  0  0  0  0  0  0
   32.0706   28.3169   50.3233 H   0  0  0  0  0  0  0  0  0  0  0  0
   36.1693   29.8177   46.9620 H   0  0  0  0  0  0  0  0  0  0  0  0
   37.1924   30.4858   44.8602 H   0  0  0  0  0  0  0  0  0  0  0  0
   35.2454   30.9289   42.8828 H   0  0  0  0  0  0  0  0  0  0  0  0
  1  2  1  0
  3  1  1  0
  3  2  1  0
  4  5  2  0
  4  1  1  0
  6  5  1  0
  7  6  2  0
  8  9  2  0
  8  7  1  0
  9  4  1  0
 10  8  1  0
 11  3  1  0
 13 12  2  0
 13 14  1  0
 13 11  1  0
 15 13  1  0
 16 15  1  0
 17 16  2  0
 18 17  1  0
 19 20  1  0
 19 18  2  0
 20 16  1  0
  1 21  1  1
  2 22  1  0
  2 23  1  0
  3 24  1  6
  5 25  1  0
  6 26  1  0
 10 27  1  0
 10 28  1  0
 14 29  1  0
 17 30  1  0
 18 31  1  0
 19 32  1  0
M  ISO  8  21  13  22  13  23  13  24  13  25  14  26  14  29   3  30  14
M  ISO  2  31  14  32  14
M  END
>  <minimizedAffinity>  (1) 
-5.50319958

>  <minimizedRMSD>  (1) 
2.60174203

$$$$
