
     RDKit          3D

 20 21  0  0  0  0  0  0  0  0999 V2000
   37.9430   30.4280   50.6670 C   0  0  0  0  0  0  0  0  0  0  0  0
   37.4680   31.2300   49.6190 C   0  0  0  0  0  0  0  0  0  0  0  0
   36.1320   31.0880   49.2370 C   0  0  0  0  0  0  0  0  0  0  0  0
   35.3610   30.1830   49.8970 N   0  0  0  0  0  0  0  0  0  0  0  0
   35.8430   29.4260   50.8980 C   0  0  0  0  0  0  0  0  0  0  0  0
   37.1370   29.5470   51.2860 N   0  0  0  0  0  0  0  0  0  0  0  0
   38.4030   30.5920   46.7820 Cl  0  0  0  0  0  0  0  0  0  0  0  0
   38.8260   32.0320   47.6790 C   0  0  0  0  0  0  0  0  0  0  0  0
   38.3360   32.1870   48.9410 C   0  0  0  0  0  0  0  0  0  0  0  0
   38.7160   33.3590   49.5950 C   0  0  0  0  0  0  0  0  0  0  0  0
   39.5440   34.2850   48.9640 C   0  0  0  0  0  0  0  0  0  0  0  0
   40.0120   34.0810   47.6890 C   0  0  0  0  0  0  0  0  0  0  0  0
   39.6380   32.9190   47.0350 C   0  0  0  0  0  0  0  0  0  0  0  0
   38.9911   30.5210   50.9877 H   0  0  0  0  0  0  0  0  0  0  0  0
   35.7130   31.6946   48.4206 H   0  0  0  0  0  0  0  0  0  0  0  0
   35.1847   28.7050   51.4048 H   0  0  0  0  0  0  0  0  0  0  0  0
   38.3591   33.5537   50.6171 H   0  0  0  0  0  0  0  0  0  0  0  0
   39.8299   35.2020   49.5001 H   0  0  0  0  0  0  0  0  0  0  0  0
   40.6652   34.8195   47.2012 H   0  0  0  0  0  0  0  0  0  0  0  0
   39.9899   32.7146   46.0130 H   0  0  0  0  0  0  0  0  0  0  0  0
  1  6  2  0
  2  1  1  0
  3  2  2  0
  3  4  1  0
  4  5  2  0
  5  6  1  0
  7  8  1  0
  8  9  2  0
  9 10  1  0
  9  2  1  0
 11 10  2  0
 12 11  1  0
 13  8  1  0
 13 12  2  0
  1 14  1  0
  3 15  1  0
  5 16  1  0
 10 17  1  0
 11 18  1  0
 12 19  1  0
 13 20  1  0
M  ISO  7  14  14  15  14  16  14  17  14  18  14  19  14  20  14
M  END
>  <minimizedAffinity>  (1) 
-5.23356295

>  <minimizedRMSD>  (1) 
3.03571057

$$$$
