
     RDKit          3D

 33 36  0  0  0  0  0  0  0  0999 V2000
   37.6110   30.2340   46.8240 Cl  0  0  0  0  0  0  0  0  0  0  0  0
   38.3100   31.6490   47.5830 C   0  0  0  0  0  0  0  0  0  0  0  0
   38.0270   31.8860   48.8910 C   0  0  0  0  0  0  0  0  0  0  0  0
   38.6120   33.0300   49.4470 C   0  0  0  0  0  0  0  0  0  0  0  0
   39.4270   33.8490   48.6730 C   0  0  0  0  0  0  0  0  0  0  0  0
   39.6810   33.5650   47.3560 C   0  0  0  0  0  0  0  0  0  0  0  0
   39.1070   32.4420   46.8090 C   0  0  0  0  0  0  0  0  0  0  0  0
   39.0220   33.0040   44.3500 C   0  0  0  0  0  0  0  0  0  0  0  0
   39.4120   32.1900   45.4060 C   0  0  0  0  0  0  0  0  0  0  0  0
   40.1390   31.0670   45.0830 C   0  0  0  0  0  0  0  0  0  0  0  0
   40.4560   30.7830   43.7580 C   0  0  0  0  0  0  0  0  0  0  0  0
   41.1460   29.7700   43.1610 N   0  0  0  0  0  0  0  0  0  0  0  0
   41.1640   29.9680   41.8370 N   0  0  0  0  0  0  0  0  0  0  0  0
   40.5050   31.0900   41.5330 C   0  0  0  0  0  0  0  0  0  0  0  0
   40.0590   31.6050   42.7320 C   0  0  0  0  0  0  0  0  0  0  0  0
   39.3270   32.7360   43.0440 C   0  0  0  0  0  0  0  0  0  0  0  0
   37.6720   30.4240   50.8920 C   0  0  0  0  0  0  0  0  0  0  0  0
   37.1780   31.0460   49.7240 C   0  0  0  0  0  0  0  0  0  0  0  0
   35.8460   30.8260   49.3980 C   0  0  0  0  0  0  0  0  0  0  0  0
   35.0850   30.0370   50.2000 N   0  0  0  0  0  0  0  0  0  0  0  0
   35.5880   29.4540   51.3120 C   0  0  0  0  0  0  0  0  0  0  0  0
   36.8870   29.6510   51.6570 N   0  0  0  0  0  0  0  0  0  0  0  0
   38.4261   33.2823   50.5014 H   0  0  0  0  0  0  0  0  0  0  0  0
   39.8775   34.7438   49.1272 H   0  0  0  0  0  0  0  0  0  0  0  0
   40.3276   34.2190   46.7525 H   0  0  0  0  0  0  0  0  0  0  0  0
   38.4389   33.9091   44.5754 H   0  0  0  0  0  0  0  0  0  0  0  0
   40.4730   30.3868   45.8804 H   0  0  0  0  0  0  0  0  0  0  0  0
   41.5844   28.9773   43.6513 H   0  0  0  0  0  0  0  0  0  0  0  0
   40.3499   31.5160   40.5308 H   0  0  0  0  0  0  0  0  0  0  0  0
   38.9921   33.4159   42.2467 H   0  0  0  0  0  0  0  0  0  0  0  0
   38.7225   30.5768   51.1802 H   0  0  0  0  0  0  0  0  0  0  0  0
   35.4113   31.2865   48.4986 H   0  0  0  0  0  0  0  0  0  0  0  0
   34.9439   28.8191   51.9382 H   0  0  0  0  0  0  0  0  0  0  0  0
  1  2  1  0
  2  3  2  0
  3  4  1  0
  3 18  1  0
  5  4  2  0
  6  5  1  0
  7  6  2  0
  7  2  1  0
  8  9  2  0
  9  7  1  0
 10  9  1  0
 11 10  2  0
 12 11  1  0
 13 12  1  0
 14 13  2  0
 14 15  1  0
 15 16  2  0
 15 11  1  0
 16  8  1  0
 17 22  2  0
 18 17  1  0
 19 18  2  0
 19 20  1  0
 20 21  2  0
 21 22  1  0
  4 23  1  0
  5 24  1  0
  6 25  1  0
  8 26  1  0
 10 27  1  0
 12 28  1  0
 14 29  1  0
 16 30  1  0
 17 31  1  0
 19 32  1  0
 21 33  1  0
M  ISO  8  23  14  24  14  25  14  26  14  27  14  28   9  29  14  30  14
M  ISO  3  31  14  32  14  33  14
M  END
>  <minimizedAffinity>  (1) 
-7.25431061

>  <minimizedRMSD>  (1) 
0.999505877

$$$$
