
     RDKit          3D

 27 29  0  0  0  0  0  0  0  0999 V2000
   37.7290   30.4450   46.9430 Cl  0  0  0  0  0  0  0  0  0  0  0  0
   38.3270   31.8180   47.8380 C   0  0  0  0  0  0  0  0  0  0  0  0
   37.9470   31.9540   49.1370 C   0  0  0  0  0  0  0  0  0  0  0  0
   38.4580   33.0740   49.8050 C   0  0  0  0  0  0  0  0  0  0  0  0
   39.2980   33.9670   49.1500 C   0  0  0  0  0  0  0  0  0  0  0  0
   39.6480   33.7850   47.8430 C   0  0  0  0  0  0  0  0  0  0  0  0
   39.1490   32.6840   47.1790 C   0  0  0  0  0  0  0  0  0  0  0  0
   37.5070   30.3150   50.9730 C   0  0  0  0  0  0  0  0  0  0  0  0
   37.0690   31.0370   49.8550 C   0  0  0  0  0  0  0  0  0  0  0  0
   35.7480   30.8550   49.4380 C   0  0  0  0  0  0  0  0  0  0  0  0
   34.9570   29.9900   50.1340 N   0  0  0  0  0  0  0  0  0  0  0  0
   35.4100   29.3160   51.1980 C   0  0  0  0  0  0  0  0  0  0  0  0
   36.6930   29.4730   51.6270 N   0  0  0  0  0  0  0  0  0  0  0  0
   39.5100   32.4570   45.7640 C   0  0  0  0  0  0  0  0  0  0  0  0
   40.5100   31.6260   45.3190 C   0  0  0  0  0  0  0  0  0  0  0  0
   40.5800   31.6460   43.9430 C   0  0  0  0  0  0  0  0  0  0  0  0
   39.6090   32.4980   43.5930 N   0  0  0  0  0  0  0  0  0  0  0  0
   38.9880   32.9690   44.6550 N   0  0  0  0  0  0  0  0  0  0  0  0
   38.1920   33.2486   50.8580 H   0  0  0  0  0  0  0  0  0  0  0  0
   39.6888   34.8383   49.6960 H   0  0  0  0  0  0  0  0  0  0  0  0
   40.3113   34.4986   47.3323 H   0  0  0  0  0  0  0  0  0  0  0  0
   38.5423   30.4416   51.3225 H   0  0  0  0  0  0  0  0  0  0  0  0
   35.3545   31.3983   48.5663 H   0  0  0  0  0  0  0  0  0  0  0  0
   34.7385   28.6275   51.7319 H   0  0  0  0  0  0  0  0  0  0  0  0
   41.1638   31.0279   45.9708 H   0  0  0  0  0  0  0  0  0  0  0  0
   41.2697   31.0933   43.2881 H   0  0  0  0  0  0  0  0  0  0  0  0
   39.3779   32.7518   42.6219 H   0  0  0  0  0  0  0  0  0  0  0  0
  1  2  1  0
  2  3  2  0
  3  4  1  0
  3  9  1  0
  5  4  2  0
  6  5  1  0
  7  2  1  0
  7  6  2  0
  8 13  2  0
  9  8  1  0
 10  9  2  0
 10 11  1  0
 11 12  2  0
 12 13  1  0
 14  7  1  0
 15 14  1  0
 16 15  2  0
 17 16  1  0
 17 18  1  0
 18 14  2  0
  4 19  1  0
  5 20  1  0
  6 21  1  0
  8 22  1  0
 10 23  1  0
 12 24  1  0
 15 25  1  0
 16 26  1  0
 17 27  1  0
M  ISO  8  19  14  20  14  21  14  22  14  23  14  24  14  25  14  26  14
M  ISO  1  27   9
M  END
>  <minimizedAffinity>  (1) 
-6.40294075

>  <minimizedRMSD>  (1) 
0.780142128

$$$$
