
     RDKit          3D

 23 24  0  0  0  0  0  0  0  0999 V2000
   38.2990   30.5580   46.8730 Cl  0  0  0  0  0  0  0  0  0  0  0  0
   38.7640   32.0120   47.7390 C   0  0  0  0  0  0  0  0  0  0  0  0
   38.3350   32.1730   49.0300 C   0  0  0  0  0  0  0  0  0  0  0  0
   38.7420   33.3440   49.6490 C   0  0  0  0  0  0  0  0  0  0  0  0
   39.5290   34.2710   48.9820 C   0  0  0  0  0  0  0  0  0  0  0  0
   39.9330   34.0680   47.6930 C   0  0  0  0  0  0  0  0  0  0  0  0
   39.5340   32.8960   47.0500 C   0  0  0  0  0  0  0  0  0  0  0  0
   38.0310   30.4620   50.8080 C   0  0  0  0  0  0  0  0  0  0  0  0
   37.5060   31.2070   49.7550 C   0  0  0  0  0  0  0  0  0  0  0  0
   36.1690   31.0180   49.4010 C   0  0  0  0  0  0  0  0  0  0  0  0
   35.4350   30.1120   50.1020 N   0  0  0  0  0  0  0  0  0  0  0  0
   35.9640   29.4040   51.1130 C   0  0  0  0  0  0  0  0  0  0  0  0
   37.2610   29.5750   51.4700 N   0  0  0  0  0  0  0  0  0  0  0  0
   39.9640   32.6510   45.6360 C   0  0  0  0  0  0  0  0  0  0  0  0
   40.8830   31.6110   45.6690 F   0  0  0  0  0  0  0  0  0  0  0  0
   38.8780   32.2150   44.9010 F   0  0  0  0  0  0  0  0  0  0  0  0
   40.4720   33.8000   45.0940 F   0  0  0  0  0  0  0  0  0  0  0  0
   38.4358   33.5417   50.6869 H   0  0  0  0  0  0  0  0  0  0  0  0
   39.8347   35.1904   49.5027 H   0  0  0  0  0  0  0  0  0  0  0  0
   40.5576   34.8104   47.1747 H   0  0  0  0  0  0  0  0  0  0  0  0
   39.0822   30.5983   51.1020 H   0  0  0  0  0  0  0  0  0  0  0  0
   35.7194   31.5882   48.5747 H   0  0  0  0  0  0  0  0  0  0  0  0
   35.3399   28.6791   51.6562 H   0  0  0  0  0  0  0  0  0  0  0  0
  1  2  1  0
  2  3  2  0
  3  4  1  0
  3  9  1  0
  5  4  2  0
  6  5  1  0
  7  6  2  0
  7  2  1  0
  8 13  2  0
  9  8  1  0
 10  9  2  0
 10 11  1  0
 11 12  2  0
 12 13  1  0
 14 15  1  0
 14  7  1  0
 16 14  1  0
 17 14  1  0
  4 18  1  0
  5 19  1  0
  6 20  1  0
  8 21  1  0
 10 22  1  0
 12 23  1  0
M  ISO  6  18  14  19  14  20  14  21  14  22  14  23  14
M  END
>  <minimizedAffinity>  (1) 
-6.30722713

>  <minimizedRMSD>  (1) 
0.537368774

$$$$
