
     RDKit          3D

 21 22  0  0  0  0  0  0  0  0999 V2000
   38.4280   30.5990   46.7670 Cl  0  0  0  0  0  0  0  0  0  0  0  0
   38.8380   32.0300   47.6650 C   0  0  0  0  0  0  0  0  0  0  0  0
   38.3410   32.1920   48.9310 C   0  0  0  0  0  0  0  0  0  0  0  0
   38.7190   33.3690   49.5830 C   0  0  0  0  0  0  0  0  0  0  0  0
   39.5450   34.2920   48.9620 C   0  0  0  0  0  0  0  0  0  0  0  0
   40.0230   34.0830   47.6800 C   0  0  0  0  0  0  0  0  0  0  0  0
   39.6520   32.9250   47.0360 C   0  0  0  0  0  0  0  0  0  0  0  0
   37.9630   30.4210   50.6510 C   0  0  0  0  0  0  0  0  0  0  0  0
   37.4670   31.2290   49.6050 C   0  0  0  0  0  0  0  0  0  0  0  0
   36.1370   31.0970   49.2230 C   0  0  0  0  0  0  0  0  0  0  0  0
   35.3690   30.1960   49.8740 N   0  0  0  0  0  0  0  0  0  0  0  0
   35.8480   29.4310   50.8680 C   0  0  0  0  0  0  0  0  0  0  0  0
   37.1320   29.5400   51.2550 N   0  0  0  0  0  0  0  0  0  0  0  0
   40.2850   32.6820   45.3830 S   0  0  0  0  0  0  0  0  0  0  0  0
   38.3560   33.5652   50.6027 H   0  0  0  0  0  0  0  0  0  0  0  0
   39.8267   35.2098   49.4989 H   0  0  0  0  0  0  0  0  0  0  0  0
   40.6785   34.8191   47.1916 H   0  0  0  0  0  0  0  0  0  0  0  0
   39.0119   30.5064   50.9711 H   0  0  0  0  0  0  0  0  0  0  0  0
   35.7202   31.7108   48.4109 H   0  0  0  0  0  0  0  0  0  0  0  0
   35.1859   28.7099   51.3696 H   0  0  0  0  0  0  0  0  0  0  0  0
   41.5624   32.1916   45.4507 H   0  0  0  0  0  0  0  0  0  0  0  0
  1  2  1  0
  2  3  2  0
  3  4  1  0
  3  9  1  0
  5  4  2  0
  6  5  1  0
  7  2  1  0
  7  6  2  0
  8 13  2  0
  9  8  1  0
 10  9  2  0
 10 11  1  0
 11 12  2  0
 12 13  1  0
 14  7  1  0
  4 15  1  0
  5 16  1  0
  6 17  1  0
  8 18  1  0
 10 19  1  0
 12 20  1  0
 14 21  1  0
M  ISO  7  15  14  16  14  17  14  18  14  19  14  20  14  21  11
M  END
>  <minimizedAffinity>  (1) 
-5.51570368

>  <minimizedRMSD>  (1) 
0.0203504264

$$$$
