
     RDKit          3D

 22 23  0  0  0  0  0  0  0  0999 V2000
   38.4090   30.6090   46.7730 Cl  0  0  0  0  0  0  0  0  0  0  0  0
   38.8330   32.0520   47.6810 C   0  0  0  0  0  0  0  0  0  0  0  0
   38.3340   32.2060   48.9500 C   0  0  0  0  0  0  0  0  0  0  0  0
   38.7120   33.3700   49.6030 C   0  0  0  0  0  0  0  0  0  0  0  0
   39.5450   34.2940   48.9760 C   0  0  0  0  0  0  0  0  0  0  0  0
   40.0210   34.0990   47.7070 C   0  0  0  0  0  0  0  0  0  0  0  0
   39.6490   32.9470   47.0530 C   0  0  0  0  0  0  0  0  0  0  0  0
   37.9460   30.4300   50.6540 C   0  0  0  0  0  0  0  0  0  0  0  0
   37.4670   31.2480   49.6080 C   0  0  0  0  0  0  0  0  0  0  0  0
   36.1370   31.0970   49.2430 C   0  0  0  0  0  0  0  0  0  0  0  0
   35.3720   30.1900   49.8860 N   0  0  0  0  0  0  0  0  0  0  0  0
   35.8370   29.4220   50.8740 C   0  0  0  0  0  0  0  0  0  0  0  0
   37.1320   29.5390   51.2630 N   0  0  0  0  0  0  0  0  0  0  0  0
   40.1620   32.7760   45.7360 N   0  0  0  0  0  0  0  0  0  0  0  0
   38.3513   33.5650   50.6237 H   0  0  0  0  0  0  0  0  0  0  0  0
   39.8291   35.2086   49.5171 H   0  0  0  0  0  0  0  0  0  0  0  0
   40.6786   34.8384   47.2266 H   0  0  0  0  0  0  0  0  0  0  0  0
   38.9937   30.5186   50.9772 H   0  0  0  0  0  0  0  0  0  0  0  0
   35.7098   31.7112   48.4366 H   0  0  0  0  0  0  0  0  0  0  0  0
   35.1740   28.6981   51.3703 H   0  0  0  0  0  0  0  0  0  0  0  0
   40.7742   33.4948   45.3244 H   0  0  0  0  0  0  0  0  0  0  0  0
   39.9210   31.9335   45.1948 H   0  0  0  0  0  0  0  0  0  0  0  0
  1  2  1  0
  2  3  2  0
  3  4  1  0
  3  9  1  0
  5  4  2  0
  6  5  1  0
  7  2  1  0
  7  6  2  0
  8 13  2  0
  9  8  1  0
 10  9  2  0
 10 11  1  0
 11 12  2  0
 12 13  1  0
 14  7  1  0
  4 15  1  0
  5 16  1  0
  6 17  1  0
  8 18  1  0
 10 19  1  0
 12 20  1  0
 14 21  1  0
 14 22  1  0
M  ISO  6  15  14  16  14  17  14  18  14  19  14  20  14
M  END
>  <minimizedAffinity>  (1) 
-5.48435688

>  <minimizedRMSD>  (1) 
0.0210698973

$$$$
