
     RDKit          3D

 25 26  0  0  0  0  0  0  0  0999 V2000
   37.9860   30.4600   46.7270 Cl  0  0  0  0  0  0  0  0  0  0  0  0
   38.5710   31.8560   47.5930 C   0  0  0  0  0  0  0  0  0  0  0  0
   38.1910   32.0330   48.8910 C   0  0  0  0  0  0  0  0  0  0  0  0
   38.6930   33.1640   49.5200 C   0  0  0  0  0  0  0  0  0  0  0  0
   39.5300   34.0340   48.8250 C   0  0  0  0  0  0  0  0  0  0  0  0
   39.8770   33.8090   47.5320 C   0  0  0  0  0  0  0  0  0  0  0  0
   39.3830   32.6830   46.8920 C   0  0  0  0  0  0  0  0  0  0  0  0
   37.7840   30.3770   50.7200 C   0  0  0  0  0  0  0  0  0  0  0  0
   37.3070   31.1160   49.6320 C   0  0  0  0  0  0  0  0  0  0  0  0
   35.9740   30.9730   49.2550 C   0  0  0  0  0  0  0  0  0  0  0  0
   35.2160   30.1100   49.9830 N   0  0  0  0  0  0  0  0  0  0  0  0
   35.6760   29.4130   51.0150 C   0  0  0  0  0  0  0  0  0  0  0  0
   36.9560   29.5450   51.3840 N   0  0  0  0  0  0  0  0  0  0  0  0
   39.7650   32.5010   45.5760 O   0  0  0  0  0  0  0  0  0  0  0  0
   40.4170   31.3640   45.1270 C   0  0  0  0  0  0  0  0  0  0  0  0
   40.1820   30.6620   44.0850 O   0  0  0  0  0  0  0  0  0  0  0  0
   41.4890   30.9590   45.9720 N   0  0  0  0  0  0  0  0  0  0  0  0
   38.4298   33.3733   50.5674 H   0  0  0  0  0  0  0  0  0  0  0  0
   39.9197   34.9262   49.3370 H   0  0  0  0  0  0  0  0  0  0  0  0
   40.5392   34.5086   47.0010 H   0  0  0  0  0  0  0  0  0  0  0  0
   38.8338   30.4745   51.0336 H   0  0  0  0  0  0  0  0  0  0  0  0
   35.5533   31.5328   48.4067 H   0  0  0  0  0  0  0  0  0  0  0  0
   35.0094   28.7312   51.5635 H   0  0  0  0  0  0  0  0  0  0  0  0
   42.0446   30.1247   45.7350 H   0  0  0  0  0  0  0  0  0  0  0  0
   41.7088   31.5003   46.8203 H   0  0  0  0  0  0  0  0  0  0  0  0
  1  2  1  0
  2  3  2  0
  3  4  1  0
  3  9  1  0
  5  4  2  0
  6  5  1  0
  7  6  2  0
  7  2  1  0
  8 13  2  0
  9  8  1  0
 10  9  2  0
 10 11  1  0
 11 12  2  0
 12 13  1  0
 14  7  1  0
 15 14  1  0
 15 17  1  0
 16 15  2  0
  4 18  1  0
  5 19  1  0
  6 20  1  0
  8 21  1  0
 10 22  1  0
 12 23  1  0
 17 24  1  0
 17 25  1  0
M  ISO  6  18  14  19  14  20  14  21  14  22  14  23  14
M  END
>  <minimizedAffinity>  (1) 
-5.87490034

>  <minimizedRMSD>  (1) 
0.791179717

$$$$
