
     RDKit          3D

 23 24  0  0  0  0  0  0  0  0999 V2000
   38.0400   30.6190   46.7840 Cl  0  0  0  0  0  0  0  0  0  0  0  0
   38.6240   32.0270   47.6600 C   0  0  0  0  0  0  0  0  0  0  0  0
   38.3090   32.1670   48.9840 C   0  0  0  0  0  0  0  0  0  0  0  0
   38.8000   33.2950   49.6080 C   0  0  0  0  0  0  0  0  0  0  0  0
   39.5670   34.2110   48.8960 C   0  0  0  0  0  0  0  0  0  0  0  0
   39.8570   34.0300   47.5760 C   0  0  0  0  0  0  0  0  0  0  0  0
   39.3750   32.9160   46.9460 C   0  0  0  0  0  0  0  0  0  0  0  0
   38.0350   30.4470   50.7800 C   0  0  0  0  0  0  0  0  0  0  0  0
   37.5000   31.2020   49.7360 C   0  0  0  0  0  0  0  0  0  0  0  0
   36.1570   31.0130   49.4230 C   0  0  0  0  0  0  0  0  0  0  0  0
   35.4610   30.1030   50.1600 N   0  0  0  0  0  0  0  0  0  0  0  0
   35.9980   29.3950   51.1500 C   0  0  0  0  0  0  0  0  0  0  0  0
   37.2850   29.5640   51.4640 N   0  0  0  0  0  0  0  0  0  0  0  0
   39.6760   32.7360   45.5920 O   0  0  0  0  0  0  0  0  0  0  0  0
   40.9900   32.3190   45.3460 C   0  0  0  0  0  0  0  0  0  0  0  0
   41.3300   31.1250   45.5500 O   0  0  0  0  0  0  0  0  0  0  0  0
   38.5842   33.4706   50.6722 H   0  0  0  0  0  0  0  0  0  0  0  0
   39.9496   35.1045   49.4110 H   0  0  0  0  0  0  0  0  0  0  0  0
   40.4661   34.7649   47.0292 H   0  0  0  0  0  0  0  0  0  0  0  0
   39.0935   30.5765   51.0499 H   0  0  0  0  0  0  0  0  0  0  0  0
   35.6756   31.5774   48.6108 H   0  0  0  0  0  0  0  0  0  0  0  0
   35.3840   28.6728   51.7081 H   0  0  0  0  0  0  0  0  0  0  0  0
   41.7306   33.0410   44.9715 H   0  0  0  0  0  0  0  0  0  0  0  0
  1  2  1  0
  2  3  2  0
  3  4  1  0
  3  9  1  0
  5  4  2  0
  6  5  1  0
  7  6  2  0
  7  2  1  0
  8 13  2  0
  9  8  1  0
 10  9  2  0
 10 11  1  0
 11 12  2  0
 12 13  1  0
 14  7  1  0
 15 16  2  0
 15 14  1  0
  4 17  1  0
  5 18  1  0
  6 19  1  0
  8 20  1  0
 10 21  1  0
 12 22  1  0
 15 23  1  0
M  ISO  7  17  14  18  14  19  14  20  14  21  14  22  14  23   6
M  END
>  <minimizedAffinity>  (1) 
-5.49352789

>  <minimizedRMSD>  (1) 
0.424882174

$$$$
