
     RDKit          3D

 37 39  0  0  0  0  0  0  0  0999 V2000
   37.8080   30.2330   47.0320 Cl  0  0  0  0  0  0  0  0  0  0  0  0
   38.3300   31.6780   47.8590 C   0  0  0  0  0  0  0  0  0  0  0  0
   37.8930   31.9060   49.1350 C   0  0  0  0  0  0  0  0  0  0  0  0
   38.3410   33.0720   49.7400 C   0  0  0  0  0  0  0  0  0  0  0  0
   39.1850   33.9320   49.0510 C   0  0  0  0  0  0  0  0  0  0  0  0
   39.5950   33.6560   47.7690 C   0  0  0  0  0  0  0  0  0  0  0  0
   39.1550   32.5010   47.1620 C   0  0  0  0  0  0  0  0  0  0  0  0
   37.4430   30.3040   51.0070 C   0  0  0  0  0  0  0  0  0  0  0  0
   37.0020   31.0030   49.8720 C   0  0  0  0  0  0  0  0  0  0  0  0
   35.6940   30.8080   49.4730 C   0  0  0  0  0  0  0  0  0  0  0  0
   34.9190   29.9600   50.1960 N   0  0  0  0  0  0  0  0  0  0  0  0
   35.3620   29.3120   51.2660 C   0  0  0  0  0  0  0  0  0  0  0  0
   36.6230   29.4760   51.6820 N   0  0  0  0  0  0  0  0  0  0  0  0
   39.5820   32.2470   45.8780 O   0  0  0  0  0  0  0  0  0  0  0  0
   39.3160   32.9540   44.7220 C   0  0  0  0  0  0  0  0  0  0  0  0
   37.9210   32.5320   44.2540 C   0  0  0  0  0  0  0  0  0  0  0  0
   37.9710   31.0890   43.7930 C   0  0  0  0  0  0  0  0  0  0  0  0
   38.7330   30.9490   42.4930 C   0  0  0  0  0  0  0  0  0  0  0  0
   39.5910   32.1910   42.3400 C   0  0  0  0  0  0  0  0  0  0  0  0
   40.2910   32.4440   43.6560 C   0  0  0  0  0  0  0  0  0  0  0  0
   38.0271   33.3147   50.7659 H   0  0  0  0  0  0  0  0  0  0  0  0
   39.5327   34.8532   49.5413 H   0  0  0  0  0  0  0  0  0  0  0  0
   40.2644   34.3470   47.2358 H   0  0  0  0  0  0  0  0  0  0  0  0
   38.4793   30.4353   51.3519 H   0  0  0  0  0  0  0  0  0  0  0  0
   35.2904   31.3271   48.5911 H   0  0  0  0  0  0  0  0  0  0  0  0
   34.6888   28.6363   51.8139 H   0  0  0  0  0  0  0  0  0  0  0  0
   39.3957   34.0395   44.8813 H   0  0  0  0  0  0  0  0  0  0  0  0
   37.2079   32.6289   45.0859 H   0  0  0  0  0  0  0  0  0  0  0  0
   37.5967   33.1765   43.4237 H   0  0  0  0  0  0  0  0  0  0  0  0
   38.4678   30.4838   44.5656 H   0  0  0  0  0  0  0  0  0  0  0  0
   36.9399   30.7431   43.6280 H   0  0  0  0  0  0  0  0  0  0  0  0
   39.3697   30.0525   42.5240 H   0  0  0  0  0  0  0  0  0  0  0  0
   38.0412   30.8452   41.6441 H   0  0  0  0  0  0  0  0  0  0  0  0
   40.3357   32.0341   41.5458 H   0  0  0  0  0  0  0  0  0  0  0  0
   38.9660   33.0546   42.0688 H   0  0  0  0  0  0  0  0  0  0  0  0
   40.7441   31.5048   44.0061 H   0  0  0  0  0  0  0  0  0  0  0  0
   41.0600   33.2139   43.4953 H   0  0  0  0  0  0  0  0  0  0  0  0
  1  2  1  0
  2  3  2  0
  3  4  1  0
  3  9  1  0
  5  4  2  0
  6  5  1  0
  7  6  2  0
  7  2  1  0
  8 13  2  0
  9  8  1  0
 10  9  2  0
 10 11  1  0
 11 12  2  0
 12 13  1  0
 14  7  1  0
 15 14  1  0
 16 15  1  0
 17 16  1  0
 18 17  1  0
 19 18  1  0
 19 20  1  0
 20 15  1  0
  4 21  1  0
  5 22  1  0
  6 23  1  0
  8 24  1  0
 10 25  1  0
 12 26  1  0
 15 27  1  0
 16 28  1  0
 16 29  1  0
 17 30  1  0
 17 31  1  0
 18 32  1  0
 18 33  1  0
 19 34  1  0
 19 35  1  0
 20 36  1  0
 20 37  1  0
M  ISO  8  21  14  22  14  23  14  24  14  25  14  26  14  27  13  28  13
M  ISO  8  29  13  30  13  31  13  32  13  33  13  34  13  35  13  36  13
M  ISO  1  37  13
M  END
>  <minimizedAffinity>  (1) 
-5.9955163

>  <minimizedRMSD>  (1) 
1.58478713

$$$$
