
     RDKit          3D

 53 56  0  0  1  0  0  0  0  0999 V2000
   38.5400   32.7020   43.5100 C   0  0  2  0  0  0  0  0  0  0  0  0
   37.0420   32.7320   43.0610 C   0  0  0  0  0  0  0  0  0  0  0  0
   36.8010   31.4840   42.2490 C   0  0  0  0  0  0  0  0  0  0  0  0
   37.4220   31.6700   40.8920 C   0  0  0  0  0  0  0  0  0  0  0  0
   38.5420   32.6360   41.0060 C   0  0  0  0  0  0  0  0  0  0  0  0
   39.3220   32.4560   42.2950 C   0  0  2  0  0  0  0  0  0  0  0  0
   40.2180   31.2970   42.1710 C   0  0  0  0  0  0  0  0  0  0  0  0
   40.5120   30.8410   40.7660 C   0  0  0  0  0  0  0  0  0  0  0  0
   41.6460   29.7990   40.8050 C   0  0  0  0  0  0  0  0  0  0  0  0
   41.4210   28.8300   41.9450 C   0  0  0  0  0  0  0  0  0  0  0  0
   39.9450   28.7840   42.1740 C   0  0  0  0  0  0  0  0  0  0  0  0
   39.5300   30.0900   42.8210 C   0  0  0  0  0  0  0  0  0  0  0  0
   38.6080   31.7090   44.4170 O   0  0  0  0  0  0  0  0  0  0  0  0
   36.4650   29.9700   45.3200 Cl  0  0  0  0  0  0  0  0  0  0  0  0
   37.4220   30.9900   46.3630 C   0  0  0  0  0  0  0  0  0  0  0  0
   37.1350   30.9640   47.6950 C   0  0  0  0  0  0  0  0  0  0  0  0
   37.9180   31.7980   48.4980 C   0  0  0  0  0  0  0  0  0  0  0  0
   38.9100   32.5790   47.9220 C   0  0  0  0  0  0  0  0  0  0  0  0
   39.1560   32.5650   46.5690 C   0  0  0  0  0  0  0  0  0  0  0  0
   38.3950   31.7530   45.7820 C   0  0  0  0  0  0  0  0  0  0  0  0
   36.3940   29.2260   49.3320 C   0  0  0  0  0  0  0  0  0  0  0  0
   36.0950   30.1510   48.3210 C   0  0  0  0  0  0  0  0  0  0  0  0
   34.7680   30.2760   47.9230 C   0  0  0  0  0  0  0  0  0  0  0  0
   33.8370   29.5030   48.5290 N   0  0  0  0  0  0  0  0  0  0  0  0
   34.1480   28.6280   49.4910 C   0  0  0  0  0  0  0  0  0  0  0  0
   35.4200   28.4850   49.8960 N   0  0  0  0  0  0  0  0  0  0  0  0
   38.9283   33.6228   43.9698 H   0  0  0  0  0  0  0  0  0  0  0  0
   36.3835   32.7427   43.9421 H   0  0  0  0  0  0  0  0  0  0  0  0
   36.8273   33.6337   42.4688 H   0  0  0  0  0  0  0  0  0  0  0  0
   37.2599   30.6199   42.7517 H   0  0  0  0  0  0  0  0  0  0  0  0
   35.7207   31.3033   42.1474 H   0  0  0  0  0  0  0  0  0  0  0  0
   36.6687   32.0587   40.1910 H   0  0  0  0  0  0  0  0  0  0  0  0
   37.7971   30.7060   40.5178 H   0  0  0  0  0  0  0  0  0  0  0  0
   39.2241   32.4903   40.1554 H   0  0  0  0  0  0  0  0  0  0  0  0
   38.1159   33.6501   41.0067 H   0  0  0  0  0  0  0  0  0  0  0  0
   40.0366   33.2746   42.4661 H   0  0  0  0  0  0  0  0  0  0  0  0
   41.1597   31.6259   42.6346 H   0  0  0  0  0  0  0  0  0  0  0  0
   40.8229   31.7020   40.1561 H   0  0  0  0  0  0  0  0  0  0  0  0
   39.6100   30.3929   40.3238 H   0  0  0  0  0  0  0  0  0  0  0  0
   41.6644   29.2452   39.8547 H   0  0  0  0  0  0  0  0  0  0  0  0
   42.6054   30.3157   40.9550 H   0  0  0  0  0  0  0  0  0  0  0  0
   41.7955   27.8315   41.6752 H   0  0  0  0  0  0  0  0  0  0  0  0
   41.9556   29.1496   42.8517 H   0  0  0  0  0  0  0  0  0  0  0  0
   39.4221   28.6603   41.2142 H   0  0  0  0  0  0  0  0  0  0  0  0
   39.6858   27.9360   42.8249 H   0  0  0  0  0  0  0  0  0  0  0  0
   39.7990   30.0594   43.8872 H   0  0  0  0  0  0  0  0  0  0  0  0
   38.4442   30.2053   42.6879 H   0  0  0  0  0  0  0  0  0  0  0  0
   37.7483   31.8352   49.5842 H   0  0  0  0  0  0  0  0  0  0  0  0
   39.5184   33.2294   48.5676 H   0  0  0  0  0  0  0  0  0  0  0  0
   39.9468   33.1931   46.1330 H   0  0  0  0  0  0  0  0  0  0  0  0
   37.4343   29.1042   49.6680 H   0  0  0  0  0  0  0  0  0  0  0  0
   34.4819   30.9869   47.1338 H   0  0  0  0  0  0  0  0  0  0  0  0
   33.3560   28.0210   49.9539 H   0  0  0  0  0  0  0  0  0  0  0  0
  1 13  1  0
  2  1  1  0
  3  2  1  0
  4  5  1  0
  4  3  1  0
  5  6  1  0
  6  1  1  0
  7  6  1  0
  7 12  1  0
  8  9  1  0
  8  7  1  0
  9 10  1  0
 10 11  1  0
 11 12  1  0
 13 20  1  0
 14 15  1  0
 15 16  2  0
 16 22  1  0
 16 17  1  0
 18 17  2  0
 19 18  1  0
 20 15  1  0
 20 19  2  0
 21 26  2  0
 22 21  1  0
 23 22  2  0
 23 24  1  0
 24 25  2  0
 25 26  1  0
  1 27  1  1
  2 28  1  0
  2 29  1  0
  3 30  1  0
  3 31  1  0
  4 32  1  0
  4 33  1  0
  5 34  1  0
  5 35  1  0
  6 36  1  6
  7 37  1  0
  8 38  1  0
  8 39  1  0
  9 40  1  0
  9 41  1  0
 10 42  1  0
 10 43  1  0
 11 44  1  0
 11 45  1  0
 12 46  1  0
 12 47  1  0
 17 48  1  0
 18 49  1  0
 19 50  1  0
 21 51  1  0
 23 52  1  0
 25 53  1  0
M  ISO  8  27  13  28  13  29  13  30  13  31  13  32  13  33  13  34  13
M  ISO  8  35  13  36  13  37  13  38  13  39  13  40  13  41  13  42  13
M  ISO  8  43  13  44  13  45  13  46  13  47  13  48  14  49  14  50  14
M  ISO  3  51  14  52  14  53  14
M  END
>  <minimizedAffinity>  (1) 
-5.99546242

>  <minimizedRMSD>  (1) 
2.22028399

$$$$
