
     RDKit          3D

 43 46  0  0  1  0  0  0  0  0999 V2000
   37.9840   32.4580   43.2000 C   0  0  2  0  0  0  0  0  0  0  0  0
   36.4440   32.6430   43.0610 C   0  0  0  0  0  0  0  0  0  0  0  0
   35.8520   31.3740   42.5350 C   0  0  0  0  0  0  0  0  0  0  0  0
   36.1500   31.2900   41.0610 C   0  0  0  0  0  0  0  0  0  0  0  0
   37.4560   31.9300   40.7800 C   0  0  0  0  0  0  0  0  0  0  0  0
   38.4250   31.8800   41.8970 C   0  0  2  0  0  0  0  0  0  0  0  0
   39.2420   30.6350   41.9970 C   0  0  0  0  0  0  0  0  0  0  0  0
   38.6310   29.3540   41.8060 C   0  0  0  0  0  0  0  0  0  0  0  0
   40.0680   28.1930   42.0520 S   0  0  0  0  0  0  0  0  0  0  0  0
   41.2180   29.5890   42.3610 C   0  0  0  0  0  0  0  0  0  0  0  0
   40.5330   30.6430   42.2690 N   0  0  0  0  0  0  0  0  0  0  0  0
   38.1400   31.5500   44.2050 O   0  0  0  0  0  0  0  0  0  0  0  0
   36.3760   30.0640   45.9650 Cl  0  0  0  0  0  0  0  0  0  0  0  0
   37.6090   31.1730   46.5110 C   0  0  0  0  0  0  0  0  0  0  0  0
   37.7620   31.3670   47.8580 C   0  0  0  0  0  0  0  0  0  0  0  0
   38.7400   32.2580   48.2490 C   0  0  0  0  0  0  0  0  0  0  0  0
   39.5030   32.9000   47.2880 C   0  0  0  0  0  0  0  0  0  0  0  0
   39.3160   32.6770   45.9420 C   0  0  0  0  0  0  0  0  0  0  0  0
   38.3530   31.7980   45.5480 C   0  0  0  0  0  0  0  0  0  0  0  0
   37.5550   29.8660   49.8630 C   0  0  0  0  0  0  0  0  0  0  0  0
   36.9500   30.6830   48.8790 C   0  0  0  0  0  0  0  0  0  0  0  0
   35.5760   30.8180   48.9060 C   0  0  0  0  0  0  0  0  0  0  0  0
   34.8740   30.1680   49.8660 N   0  0  0  0  0  0  0  0  0  0  0  0
   35.4640   29.4030   50.7840 C   0  0  0  0  0  0  0  0  0  0  0  0
   36.8030   29.2430   50.7940 N   0  0  0  0  0  0  0  0  0  0  0  0
   38.5515   33.3741   43.4209 H   0  0  0  0  0  0  0  0  0  0  0  0
   36.0091   32.8741   44.0446 H   0  0  0  0  0  0  0  0  0  0  0  0
   36.2277   33.4711   42.3700 H   0  0  0  0  0  0  0  0  0  0  0  0
   36.2970   30.5124   43.0544 H   0  0  0  0  0  0  0  0  0  0  0  0
   34.7651   31.3638   42.7036 H   0  0  0  0  0  0  0  0  0  0  0  0
   36.1864   30.2342   40.7546 H   0  0  0  0  0  0  0  0  0  0  0  0
   35.3603   31.8099   40.4988 H   0  0  0  0  0  0  0  0  0  0  0  0
   37.9061   31.4231   39.9137 H   0  0  0  0  0  0  0  0  0  0  0  0
   37.2464   32.9947   40.5995 H   0  0  0  0  0  0  0  0  0  0  0  0
   39.1565   32.6295   41.5607 H   0  0  0  0  0  0  0  0  0  0  0  0
   37.5824   29.1162   41.5737 H   0  0  0  0  0  0  0  0  0  0  0  0
   42.2932   29.5197   42.5828 H   0  0  0  0  0  0  0  0  0  0  0  0
   38.9126   32.4572   49.3170 H   0  0  0  0  0  0  0  0  0  0  0  0
   40.2808   33.6085   47.6091 H   0  0  0  0  0  0  0  0  0  0  0  0
   39.9341   33.2001   45.1974 H   0  0  0  0  0  0  0  0  0  0  0  0
   38.6475   29.7377   49.8691 H   0  0  0  0  0  0  0  0  0  0  0  0
   35.0603   31.4422   48.1614 H   0  0  0  0  0  0  0  0  0  0  0  0
   34.8509   28.8955   51.5433 H   0  0  0  0  0  0  0  0  0  0  0  0
  1 12  1  0
  2  1  1  0
  3  2  1  0
  4  3  1  0
  5  4  1  0
  5  6  1  0
  6  7  1  0
  6  1  1  0
  7 11  1  0
  8  7  2  0
  8  9  1  0
  9 10  1  0
 11 10  2  0
 12 19  1  0
 13 14  1  0
 14 15  2  0
 15 16  1  0
 15 21  1  0
 17 16  2  0
 18 17  1  0
 19 18  2  0
 19 14  1  0
 20 25  2  0
 21 22  2  0
 21 20  1  0
 22 23  1  0
 23 24  2  0
 24 25  1  0
  1 26  1  1
  2 27  1  0
  2 28  1  0
  3 29  1  0
  3 30  1  0
  4 31  1  0
  4 32  1  0
  5 33  1  0
  5 34  1  0
  6 35  1  6
  8 36  1  0
 10 37  1  0
 16 38  1  0
 17 39  1  0
 18 40  1  0
 20 41  1  0
 22 42  1  0
 24 43  1  0
M  ISO  8  26  13  27  13  28  13  29  13  30  13  31  13  32  13  33  13
M  ISO  8  34  13  35  13  36  14  37  14  38  14  39  14  40  14  41  14
M  ISO  2  42  14  43  14
M  END
>  <minimizedAffinity>  (1) 
-5.53773832

>  <minimizedRMSD>  (1) 
2.36748981

$$$$
