
     RDKit          3D

 28 29  0  0  1  0  0  0  0  0999 V2000
   36.9960   29.7610   51.6520 C   0  0  0  0  0  0  0  0  0  0  0  0
   37.6760   30.7260   50.9100 C   0  0  0  0  0  0  0  0  0  0  0  0
   37.1130   31.1310   49.6960 C   0  0  0  0  0  0  0  0  0  0  0  0
   35.9340   30.5720   49.2910 N   0  0  0  0  0  0  0  0  0  0  0  0
   35.3200   29.6430   50.0510 C   0  0  0  0  0  0  0  0  0  0  0  0
   35.8440   29.2310   51.2350 N   0  0  0  0  0  0  0  0  0  0  0  0
   37.6450   32.0950   48.7960 N   0  0  0  0  0  0  0  0  0  0  0  0
   38.1650   33.3760   49.1770 C   0  0  0  0  0  0  0  0  0  0  0  0
   39.4740   33.7650   48.5970 C   0  0  0  0  0  0  0  0  0  0  0  0
   39.7300   33.3470   47.1870 C   0  0  0  0  0  0  0  0  0  0  0  0
   39.2280   31.9400   46.9580 C   0  0  0  0  0  0  0  0  0  0  0  0
   37.7590   31.9720   47.3740 C   0  0  1  0  0  0  0  0  0  0  0  0
   37.1200   30.7340   46.8150 C   0  0  0  0  0  0  0  0  0  0  0  0
   37.4216   29.4265   52.6096 H   0  0  0  0  0  0  0  0  0  0  0  0
   38.6239   31.1544   51.2679 H   0  0  0  0  0  0  0  0  0  0  0  0
   34.3713   29.2078   49.7039 H   0  0  0  0  0  0  0  0  0  0  0  0
   37.4289   34.1366   48.8776 H   0  0  0  0  0  0  0  0  0  0  0  0
   38.3394   33.3055   50.2608 H   0  0  0  0  0  0  0  0  0  0  0  0
   39.5447   34.8620   48.6381 H   0  0  0  0  0  0  0  0  0  0  0  0
   40.2272   33.2349   49.1984 H   0  0  0  0  0  0  0  0  0  0  0  0
   39.2084   34.0340   46.5044 H   0  0  0  0  0  0  0  0  0  0  0  0
   40.8129   33.3762   46.9960 H   0  0  0  0  0  0  0  0  0  0  0  0
   39.3236   31.6631   45.8977 H   0  0  0  0  0  0  0  0  0  0  0  0
   39.8035   31.1976   47.5304 H   0  0  0  0  0  0  0  0  0  0  0  0
   37.2316   32.8495   46.9717 H   0  0  0  0  0  0  0  0  0  0  0  0
   36.7868   30.0884   47.6410 H   0  0  0  0  0  0  0  0  0  0  0  0
   36.2544   31.0151   46.1972 H   0  0  0  0  0  0  0  0  0  0  0  0
   37.8506   30.1913   46.1972 H   0  0  0  0  0  0  0  0  0  0  0  0
  2  1  2  0
  3  2  1  0
  4  3  2  0
  4  5  1  0
  5  6  2  0
  6  1  1  0
  7  8  1  0
  7  3  1  0
  9  8  1  0
 10  9  1  0
 11 10  1  0
 11 12  1  0
 12  7  1  0
 13 12  1  0
  1 14  1  0
  2 15  1  0
  5 16  1  0
  8 17  1  0
  8 18  1  0
  9 19  1  0
  9 20  1  0
 10 21  1  0
 10 22  1  0
 11 23  1  0
 11 24  1  0
 12 25  1  6
 13 26  1  0
 13 27  1  0
 13 28  1  0
M  ISO  8  14  14  15  14  16  14  17  13  18  13  19  13  20  13  21  13
M  ISO  7  22  13  23  13  24  13  25  13  26   8  27   8  28   8
M  END
>  <minimizedAffinity>  (1) 
-5.08415079

>  <minimizedRMSD>  (1) 
0.739064872

$$$$
