
     RDKit          3D

 27 28  0  0  1  0  0  0  0  0999 V2000
   37.1440   29.8360   51.5850 C   0  0  0  0  0  0  0  0  0  0  0  0
   37.8080   30.6720   50.6860 C   0  0  0  0  0  0  0  0  0  0  0  0
   37.1570   30.9820   49.5020 C   0  0  0  0  0  0  0  0  0  0  0  0
   35.9260   30.4680   49.2760 N   0  0  0  0  0  0  0  0  0  0  0  0
   35.3190   29.6620   50.1780 C   0  0  0  0  0  0  0  0  0  0  0  0
   35.9320   29.3420   51.3430 N   0  0  0  0  0  0  0  0  0  0  0  0
   37.6530   31.8130   48.4500 N   0  0  0  0  0  0  0  0  0  0  0  0
   38.3190   33.0570   48.6410 C   0  0  0  0  0  0  0  0  0  0  0  0
   39.5820   33.2690   47.8720 C   0  0  0  0  0  0  0  0  0  0  0  0
   39.5950   32.7350   46.4780 C   0  0  0  0  0  0  0  0  0  0  0  0
   38.9860   31.3640   46.4600 C   0  0  0  0  0  0  0  0  0  0  0  0
   37.5680   31.5480   47.0480 C   0  0  1  0  0  0  0  0  0  0  0  0
   36.7240   30.4310   46.7560 N   0  0  0  0  0  0  0  0  0  0  0  0
   37.6418   29.5752   52.5306 H   0  0  0  0  0  0  0  0  0  0  0  0
   38.8092   31.0696   50.9084 H   0  0  0  0  0  0  0  0  0  0  0  0
   34.3170   29.2624   49.9629 H   0  0  0  0  0  0  0  0  0  0  0  0
   37.6186   33.8565   48.3578 H   0  0  0  0  0  0  0  0  0  0  0  0
   38.6212   33.0627   49.6987 H   0  0  0  0  0  0  0  0  0  0  0  0
   39.7667   34.3521   47.8196 H   0  0  0  0  0  0  0  0  0  0  0  0
   40.3574   32.7067   48.4130 H   0  0  0  0  0  0  0  0  0  0  0  0
   39.0141   33.4025   45.8246 H   0  0  0  0  0  0  0  0  0  0  0  0
   40.6327   32.6792   46.1172 H   0  0  0  0  0  0  0  0  0  0  0  0
   38.9309   30.9790   45.4311 H   0  0  0  0  0  0  0  0  0  0  0  0
   39.5812   30.6400   47.0358 H   0  0  0  0  0  0  0  0  0  0  0  0
   37.0977   32.4176   46.5657 H   0  0  0  0  0  0  0  0  0  0  0  0
   36.4019   30.0047   47.6365 H   0  0  0  0  0  0  0  0  0  0  0  0
   35.9102   30.7489   46.2106 H   0  0  0  0  0  0  0  0  0  0  0  0
  2  1  2  0
  3  2  1  0
  4  3  2  0
  4  5  1  0
  5  6  2  0
  6  1  1  0
  7  8  1  0
  7  3  1  0
  9  8  1  0
 10  9  1  0
 11 10  1  0
 11 12  1  0
 12  7  1  0
 13 12  1  0
  1 14  1  0
  2 15  1  0
  5 16  1  0
  8 17  1  0
  8 18  1  0
  9 19  1  0
  9 20  1  0
 10 21  1  0
 10 22  1  0
 11 23  1  0
 11 24  1  0
 12 25  1  6
 13 26  1  0
 13 27  1  0
M  ISO  8  14  14  15  14  16  14  17  13  18  13  19  13  20  13  21  13
M  ISO  6  22  13  23  13  24  13  25  13  26   5  27   5
M  END
>  <minimizedAffinity>  (1) 
-4.88078308

>  <minimizedRMSD>  (1) 
0.246394828

$$$$
