
     RDKit          3D

 26 27  0  0  1  0  0  0  0  0999 V2000
   36.9410   29.7580   51.5970 C   0  0  0  0  0  0  0  0  0  0  0  0
   37.6430   30.7500   50.9010 C   0  0  0  0  0  0  0  0  0  0  0  0
   37.1130   31.1550   49.6930 C   0  0  0  0  0  0  0  0  0  0  0  0
   35.9620   30.5910   49.2380 N   0  0  0  0  0  0  0  0  0  0  0  0
   35.3290   29.6390   49.9490 C   0  0  0  0  0  0  0  0  0  0  0  0
   35.8030   29.2120   51.1280 N   0  0  0  0  0  0  0  0  0  0  0  0
   37.6590   32.1490   48.8190 N   0  0  0  0  0  0  0  0  0  0  0  0
   38.1780   33.4150   49.2440 C   0  0  0  0  0  0  0  0  0  0  0  0
   39.4890   33.8290   48.6770 C   0  0  0  0  0  0  0  0  0  0  0  0
   39.7730   33.4370   47.2770 C   0  0  0  0  0  0  0  0  0  0  0  0
   39.2620   32.0580   46.9910 C   0  0  0  0  0  0  0  0  0  0  0  0
   37.7820   32.0600   47.4000 C   0  0  1  0  0  0  0  0  0  0  0  0
   36.9380   30.6260   46.7020 S   0  0  0  0  0  0  0  0  0  0  0  0
   37.3344   29.4115   52.5640 H   0  0  0  0  0  0  0  0  0  0  0  0
   38.5719   31.1853   51.2981 H   0  0  0  0  0  0  0  0  0  0  0  0
   34.4008   29.2011   49.5531 H   0  0  0  0  0  0  0  0  0  0  0  0
   37.4405   34.1846   48.9725 H   0  0  0  0  0  0  0  0  0  0  0  0
   38.3545   33.3047   50.3241 H   0  0  0  0  0  0  0  0  0  0  0  0
   39.5416   34.9264   48.7310 H   0  0  0  0  0  0  0  0  0  0  0  0
   40.2402   33.2971   49.2793 H   0  0  0  0  0  0  0  0  0  0  0  0
   39.2834   34.1501   46.5975 H   0  0  0  0  0  0  0  0  0  0  0  0
   40.8624   33.4454   47.1250 H   0  0  0  0  0  0  0  0  0  0  0  0
   39.3619   31.8282   45.9199 H   0  0  0  0  0  0  0  0  0  0  0  0
   39.8309   31.2956   47.5433 H   0  0  0  0  0  0  0  0  0  0  0  0
   37.2848   32.9498   46.9863 H   0  0  0  0  0  0  0  0  0  0  0  0
   36.4710   29.8325   47.7164 H   0  0  0  0  0  0  0  0  0  0  0  0
  2  1  2  0
  3  2  1  0
  4  3  2  0
  4  5  1  0
  5  6  2  0
  6  1  1  0
  7  8  1  0
  7  3  1  0
  9  8  1  0
 10  9  1  0
 11 10  1  0
 11 12  1  0
 12  7  1  0
 13 12  1  0
  1 14  1  0
  2 15  1  0
  5 16  1  0
  8 17  1  0
  8 18  1  0
  9 19  1  0
  9 20  1  0
 10 21  1  0
 10 22  1  0
 11 23  1  0
 11 24  1  0
 12 25  1  6
 13 26  1  0
M  ISO  8  14  14  15  14  16  14  17  13  18  13  19  13  20  13  21  13
M  ISO  5  22  13  23  13  24  13  25  13  26  11
M  END
>  <minimizedAffinity>  (1) 
-4.86008406

>  <minimizedRMSD>  (1) 
0.819450676

$$$$
