
     RDKit          3D

 32 34  0  0  1  0  0  0  0  0999 V2000
   37.1510   29.2960   50.3610 C   0  0  0  0  0  0  0  0  0  0  0  0
   37.8010   30.5020   50.0830 C   0  0  0  0  0  0  0  0  0  0  0  0
   37.4930   31.1620   48.9090 C   0  0  0  0  0  0  0  0  0  0  0  0
   36.5780   30.5980   48.0970 N   0  0  0  0  0  0  0  0  0  0  0  0
   35.9600   29.4450   48.3660 C   0  0  0  0  0  0  0  0  0  0  0  0
   36.2460   28.7760   49.5160 N   0  0  0  0  0  0  0  0  0  0  0  0
   38.0360   32.3900   48.4380 N   0  0  0  0  0  0  0  0  0  0  0  0
   38.2450   33.5480   49.2670 C   0  0  0  0  0  0  0  0  0  0  0  0
   39.5430   34.2360   49.1440 C   0  0  0  0  0  0  0  0  0  0  0  0
   40.1670   34.2640   47.7970 C   0  0  0  0  0  0  0  0  0  0  0  0
   39.9850   32.9410   47.1190 C   0  0  0  0  0  0  0  0  0  0  0  0
   38.4530   32.6850   47.1060 C   0  0  1  0  0  0  0  0  0  0  0  0
   38.1760   31.5920   46.1160 C   0  0  0  0  0  0  0  0  0  0  0  0
   38.9020   30.4840   45.7380 C   0  0  0  0  0  0  0  0  0  0  0  0
   38.2720   29.7630   44.8130 N   0  0  0  0  0  0  0  0  0  0  0  0
   37.1130   30.3900   44.5670 C   0  0  0  0  0  0  0  0  0  0  0  0
   37.0620   31.4640   45.3360 N   0  0  0  0  0  0  0  0  0  0  0  0
   37.3861   28.7609   51.2929 H   0  0  0  0  0  0  0  0  0  0  0  0
   38.5412   30.9162   50.7834 H   0  0  0  0  0  0  0  0  0  0  0  0
   35.2217   29.0372   47.6598 H   0  0  0  0  0  0  0  0  0  0  0  0
   37.4588   34.2773   49.0220 H   0  0  0  0  0  0  0  0  0  0  0  0
   38.2210   33.1676   50.2989 H   0  0  0  0  0  0  0  0  0  0  0  0
   39.3975   35.2784   49.4639 H   0  0  0  0  0  0  0  0  0  0  0  0
   40.2358   33.6516   49.7673 H   0  0  0  0  0  0  0  0  0  0  0  0
   39.6928   35.0511   47.1924 H   0  0  0  0  0  0  0  0  0  0  0  0
   41.2424   34.4703   47.9021 H   0  0  0  0  0  0  0  0  0  0  0  0
   40.3766   32.9790   46.0918 H   0  0  0  0  0  0  0  0  0  0  0  0
   40.5272   32.1385   47.6406 H   0  0  0  0  0  0  0  0  0  0  0  0
   37.8728   33.5625   46.7845 H   0  0  0  0  0  0  0  0  0  0  0  0
   39.8876   30.2251   46.1522 H   0  0  0  0  0  0  0  0  0  0  0  0
   38.6087   28.8947   44.3731 H   0  0  0  0  0  0  0  0  0  0  0  0
   36.3414   30.0680   43.8522 H   0  0  0  0  0  0  0  0  0  0  0  0
  2  1  2  0
  3  2  1  0
  4  5  1  0
  4  3  2  0
  5  6  2  0
  6  1  1  0
  7  3  1  0
  7  8  1  0
  9  8  1  0
 10  9  1  0
 11 10  1  0
 12 11  1  0
 12  7  1  0
 13 12  1  0
 14 13  2  0
 15 14  1  0
 16 15  1  0
 16 17  2  0
 17 13  1  0
  1 18  1  0
  2 19  1  0
  5 20  1  0
  8 21  1  0
  8 22  1  0
  9 23  1  0
  9 24  1  0
 10 25  1  0
 10 26  1  0
 11 27  1  0
 11 28  1  0
 12 29  1  6
 14 30  1  0
 15 31  1  0
 16 32  1  0
M  ISO  8  18  14  19  14  20  14  21  13  22  13  23  13  24  13  25  13
M  ISO  7  26  13  27  13  28  13  29  13  30  14  31   9  32  14
M  END
>  <minimizedAffinity>  (1) 
-4.81477165

>  <minimizedRMSD>  (1) 
2.12469101

$$$$
