
     RDKit          3D

 27 28  0  0  1  0  0  0  0  0999 V2000
   37.6140   30.1540   51.1570 C   0  0  0  0  0  0  0  0  0  0  0  0
   38.2440   30.9050   50.1650 C   0  0  0  0  0  0  0  0  0  0  0  0
   37.7530   30.7680   48.8790 C   0  0  0  0  0  0  0  0  0  0  0  0
   36.7030   29.9280   48.6430 N   0  0  0  0  0  0  0  0  0  0  0  0
   36.1350   29.2280   49.6370 C   0  0  0  0  0  0  0  0  0  0  0  0
   36.5910   29.3370   50.9150 N   0  0  0  0  0  0  0  0  0  0  0  0
   38.2350   31.4360   47.7090 N   0  0  0  0  0  0  0  0  0  0  0  0
   38.5380   32.8370   47.6350 C   0  0  0  0  0  0  0  0  0  0  0  0
   39.8140   33.2020   46.9760 C   0  0  0  0  0  0  0  0  0  0  0  0
   40.2040   32.3880   45.7840 C   0  0  0  0  0  0  0  0  0  0  0  0
   39.9750   30.9240   46.0990 C   0  0  0  0  0  0  0  0  0  0  0  0
   38.4890   30.8220   46.4340 C   0  0  2  0  0  0  0  0  0  0  0  0
   37.7180   31.5500   45.3850 C   0  0  0  0  0  0  0  0  0  0  0  0
   36.9170   31.3600   44.4580 O   0  0  0  0  0  0  0  0  0  0  0  0
   37.9804   30.2410   52.1905 H   0  0  0  0  0  0  0  0  0  0  0  0
   39.0882   31.5722   50.3935 H   0  0  0  0  0  0  0  0  0  0  0  0
   35.2908   28.5581   49.4165 H   0  0  0  0  0  0  0  0  0  0  0  0
   37.7234   33.3266   47.0811 H   0  0  0  0  0  0  0  0  0  0  0  0
   38.6433   33.1683   48.6786 H   0  0  0  0  0  0  0  0  0  0  0  0
   39.7361   34.2509   46.6539 H   0  0  0  0  0  0  0  0  0  0  0  0
   40.5950   33.0125   47.7271 H   0  0  0  0  0  0  0  0  0  0  0  0
   41.2665   32.5551   45.5533 H   0  0  0  0  0  0  0  0  0  0  0  0
   39.5985   32.6832   44.9144 H   0  0  0  0  0  0  0  0  0  0  0  0
   40.2193   30.2980   45.2281 H   0  0  0  0  0  0  0  0  0  0  0  0
   40.6108   30.5739   46.9256 H   0  0  0  0  0  0  0  0  0  0  0  0
   38.1878   29.7648   46.4727 H   0  0  0  0  0  0  0  0  0  0  0  0
   37.9347   32.6259   45.4596 H   0  0  0  0  0  0  0  0  0  0  0  0
  2  1  2  0
  3  2  1  0
  4  3  2  0
  4  5  1  0
  5  6  2  0
  6  1  1  0
  7  3  1  0
  8  7  1  0
  9  8  1  0
 10 11  1  0
 10  9  1  0
 11 12  1  0
 12  7  1  0
 13 12  1  0
 14 13  2  0
  1 15  1  0
  2 16  1  0
  5 17  1  0
  8 18  1  0
  8 19  1  0
  9 20  1  0
  9 21  1  0
 10 22  1  0
 10 23  1  0
 11 24  1  0
 11 25  1  0
 12 26  1  1
 13 27  1  0
M  ISO  8  15  14  16  14  17  14  18  13  19  13  20  13  21  13  22  13
M  ISO  5  23  13  24  13  25  13  26  13  27   6
M  END
>  <minimizedAffinity>  (1) 
-4.74455118

>  <minimizedRMSD>  (1) 
1.10088193

$$$$
