
     RDKit          3D

 21 22  0  0  0  0  0  0  0  0999 V2000
   36.3640   30.4800   46.3900 Cl  0  0  0  0  0  0  0  0  0  0  0  0
   36.7990   30.5410   48.0850 C   0  0  0  0  0  0  0  0  0  0  0  0
   38.0210   31.0860   48.3820 C   0  0  0  0  0  0  0  0  0  0  0  0
   38.3830   31.1410   49.7280 C   0  0  0  0  0  0  0  0  0  0  0  0
   37.5290   30.6620   50.6880 C   0  0  0  0  0  0  0  0  0  0  0  0
   36.3170   30.1290   50.3070 C   0  0  0  0  0  0  0  0  0  0  0  0
   35.8970   30.0420   49.0060 C   0  0  0  0  0  0  0  0  0  0  0  0
   40.0010   33.4250   46.3990 C   0  0  0  0  0  0  0  0  0  0  0  0
   40.5700   32.6180   45.3880 C   0  0  0  0  0  0  0  0  0  0  0  0
   40.2550   31.2570   45.4090 C   0  0  0  0  0  0  0  0  0  0  0  0
   39.4290   30.7970   46.3890 N   0  0  0  0  0  0  0  0  0  0  0  0
   38.9100   31.5890   47.3280 C   0  0  0  0  0  0  0  0  0  0  0  0
   39.2030   32.8940   47.3210 N   0  0  0  0  0  0  0  0  0  0  0  0
   34.3390   29.3600   48.4820 S   0  0  0  0  0  0  0  0  0  0  0  0
   39.3537   31.5687   50.0194 H   0  0  0  0  0  0  0  0  0  0  0  0
   37.8087   30.7029   51.7511 H   0  0  0  0  0  0  0  0  0  0  0  0
   35.6473   29.7512   51.0936 H   0  0  0  0  0  0  0  0  0  0  0  0
   40.2202   34.5027   46.4236 H   0  0  0  0  0  0  0  0  0  0  0  0
   41.2316   33.0426   44.6186 H   0  0  0  0  0  0  0  0  0  0  0  0
   40.6648   30.5728   44.6514 H   0  0  0  0  0  0  0  0  0  0  0  0
   33.5908   29.0325   49.5819 H   0  0  0  0  0  0  0  0  0  0  0  0
  1  2  1  0
  2  3  2  0
  2  7  1  0
  3  4  1  0
  4  5  2  0
  6  5  1  0
  7  6  2  0
  8 13  2  0
  9 10  2  0
  9  8  1  0
 10 11  1  0
 11 12  2  0
 12  3  1  0
 13 12  1  0
 14  7  1  0
  4 15  1  0
  5 16  1  0
  6 17  1  0
  8 18  1  0
  9 19  1  0
 10 20  1  0
 14 21  1  0
M  ISO  7  15  14  16  14  17  14  18  14  19  14  20  14  21  11
M  END
>  <minimizedAffinity>  (1) 
-5.33895683

>  <minimizedRMSD>  (1) 
0.0962217227

$$$$
