
     RDKit          3D

 30 32  0  0  0  0  0  0  0  0999 V2000
   36.3470   30.9030   45.8490 Cl  0  0  0  0  0  0  0  0  0  0  0  0
   36.7200   30.7780   47.5590 C   0  0  0  0  0  0  0  0  0  0  0  0
   37.9950   31.1000   47.9230 C   0  0  0  0  0  0  0  0  0  0  0  0
   38.3170   31.0090   49.2840 C   0  0  0  0  0  0  0  0  0  0  0  0
   37.3740   30.6110   50.1850 C   0  0  0  0  0  0  0  0  0  0  0  0
   36.1040   30.3030   49.7340 C   0  0  0  0  0  0  0  0  0  0  0  0
   35.7170   30.3700   48.4110 C   0  0  0  0  0  0  0  0  0  0  0  0
   40.1970   33.2660   45.9740 C   0  0  0  0  0  0  0  0  0  0  0  0
   40.8540   32.3840   45.0970 C   0  0  0  0  0  0  0  0  0  0  0  0
   40.5240   31.0400   45.1920 C   0  0  0  0  0  0  0  0  0  0  0  0
   39.5990   30.6560   46.1130 N   0  0  0  0  0  0  0  0  0  0  0  0
   38.9900   31.5250   46.9360 C   0  0  0  0  0  0  0  0  0  0  0  0
   39.2950   32.8320   46.8590 N   0  0  0  0  0  0  0  0  0  0  0  0
   34.0970   29.9790   47.8200 S   0  0  0  0  0  0  0  0  0  0  0  0
   34.0000   28.3330   47.1480 C   0  0  0  0  0  0  0  0  0  0  0  0
   33.9150   27.2340   47.9680 C   0  0  0  0  0  0  0  0  0  0  0  0
   33.8390   25.9400   47.4580 C   0  0  0  0  0  0  0  0  0  0  0  0
   33.8580   25.8670   46.0760 C   0  0  0  0  0  0  0  0  0  0  0  0
   33.9440   26.9790   45.2640 C   0  0  0  0  0  0  0  0  0  0  0  0
   34.0160   28.2150   45.8080 N   0  0  0  0  0  0  0  0  0  0  0  0
   39.3322   31.2591   49.6260 H   0  0  0  0  0  0  0  0  0  0  0  0
   37.6201   30.5361   51.2545 H   0  0  0  0  0  0  0  0  0  0  0  0
   35.3560   29.9850   50.4752 H   0  0  0  0  0  0  0  0  0  0  0  0
   40.4317   34.3398   45.9301 H   0  0  0  0  0  0  0  0  0  0  0  0
   41.5959   32.7438   44.3688 H   0  0  0  0  0  0  0  0  0  0  0  0
   41.0014   30.2983   44.5348 H   0  0  0  0  0  0  0  0  0  0  0  0
   33.9067   27.3801   49.0582 H   0  0  0  0  0  0  0  0  0  0  0  0
   33.7696   25.0498   48.1005 H   0  0  0  0  0  0  0  0  0  0  0  0
   33.8019   24.8756   45.6028 H   0  0  0  0  0  0  0  0  0  0  0  0
   33.9540   26.8599   44.1705 H   0  0  0  0  0  0  0  0  0  0  0  0
  1  2  1  0
  2  3  2  0
  2  7  1  0
  3  4  1  0
  4  5  2  0
  6  5  1  0
  7  6  2  0
  8 13  2  0
  9 10  2  0
  9  8  1  0
 10 11  1  0
 11 12  2  0
 12  3  1  0
 13 12  1  0
 14  7  1  0
 15 14  1  0
 15 16  2  0
 17 16  1  0
 18 17  2  0
 19 20  2  0
 19 18  1  0
 20 15  1  0
  4 21  1  0
  5 22  1  0
  6 23  1  0
  8 24  1  0
  9 25  1  0
 10 26  1  0
 16 27  1  0
 17 28  1  0
 18 29  1  0
 19 30  1  0
M  ISO  8  21  14  22  14  23  14  24  14  25  14  26  14  27  14  28  14
M  ISO  2  29  14  30  14
M  END
>  <minimizedAffinity>  (1) 
-5.66219997

>  <minimizedRMSD>  (1) 
1.06980801

$$$$
