
     RDKit          3D

 28 30  0  0  0  0  0  0  0  0999 V2000
   35.7340   30.3100   46.4950 Cl  0  0  0  0  0  0  0  0  0  0  0  0
   35.5260   29.7280   48.1210 C   0  0  0  0  0  0  0  0  0  0  0  0
   36.3480   30.2820   49.0780 C   0  0  0  0  0  0  0  0  0  0  0  0
   36.2010   29.8330   50.3840 C   0  0  0  0  0  0  0  0  0  0  0  0
   35.2630   28.8730   50.6820 C   0  0  0  0  0  0  0  0  0  0  0  0
   34.4750   28.3660   49.6620 C   0  0  0  0  0  0  0  0  0  0  0  0
   34.5720   28.7680   48.3510 C   0  0  0  0  0  0  0  0  0  0  0  0
   38.2320   33.4060   49.1910 C   0  0  0  0  0  0  0  0  0  0  0  0
   39.1700   33.2770   48.1470 C   0  0  0  0  0  0  0  0  0  0  0  0
   39.1430   32.0940   47.4020 C   0  0  0  0  0  0  0  0  0  0  0  0
   38.2160   31.1670   47.7440 N   0  0  0  0  0  0  0  0  0  0  0  0
   37.3400   31.3060   48.7310 C   0  0  0  0  0  0  0  0  0  0  0  0
   37.3660   32.4290   49.4400 N   0  0  0  0  0  0  0  0  0  0  0  0
   33.5740   28.1330   47.0350 S   0  0  0  0  0  0  0  0  0  0  0  0
   31.9440   27.7300   47.6170 C   0  0  0  0  0  0  0  0  0  0  0  0
   31.4780   27.6870   48.9630 C   0  0  0  0  0  0  0  0  0  0  0  0
   30.1640   27.3450   49.1480 C   0  0  0  0  0  0  0  0  0  0  0  0
   29.3710   27.0650   48.0710 C   0  0  0  0  0  0  0  0  0  0  0  0
   30.4560   27.2650   46.5910 S   0  0  0  0  0  0  0  0  0  0  0  0
   36.8362   30.2462   51.1814 H   0  0  0  0  0  0  0  0  0  0  0  0
   35.1403   28.5132   51.7142 H   0  0  0  0  0  0  0  0  0  0  0  0
   33.7292   27.5981   49.9153 H   0  0  0  0  0  0  0  0  0  0  0  0
   38.2166   34.3200   49.8029 H   0  0  0  0  0  0  0  0  0  0  0  0
   39.8944   34.0751   47.9270 H   0  0  0  0  0  0  0  0  0  0  0  0
   39.8452   31.9231   46.5727 H   0  0  0  0  0  0  0  0  0  0  0  0
   32.1399   27.9168   49.8110 H   0  0  0  0  0  0  0  0  0  0  0  0
   29.7471   27.2958   50.1647 H   0  0  0  0  0  0  0  0  0  0  0  0
   28.3086   26.7801   48.0833 H   0  0  0  0  0  0  0  0  0  0  0  0
  1  2  1  0
  2  7  2  0
  2  3  1  0
  3  4  2  0
  4  5  1  0
  6  5  2  0
  7  6  1  0
  8 13  2  0
  9  8  1  0
 10 11  1  0
 10  9  2  0
 11 12  2  0
 12  3  1  0
 12 13  1  0
 14 15  1  0
 14  7  1  0
 15 16  2  0
 16 17  1  0
 18 17  2  0
 19 15  1  0
 19 18  1  0
  4 20  1  0
  5 21  1  0
  6 22  1  0
  8 23  1  0
  9 24  1  0
 10 25  1  0
 16 26  1  0
 17 27  1  0
 18 28  1  0
M  ISO  8  20  14  21  14  22  14  23  14  24  14  25  14  26  14  27  14
M  ISO  1  28  14
M  END
>  <minimizedAffinity>  (1) 
-5.62988377

>  <minimizedRMSD>  (1) 
2.80789471

$$$$
