
     RDKit          3D

 28 30  0  0  0  0  0  0  0  0999 V2000
   36.4390   30.8710   45.8140 Cl  0  0  0  0  0  0  0  0  0  0  0  0
   36.7760   30.8690   47.5280 C   0  0  0  0  0  0  0  0  0  0  0  0
   38.0450   31.2320   47.9280 C   0  0  0  0  0  0  0  0  0  0  0  0
   38.3240   31.2350   49.2850 C   0  0  0  0  0  0  0  0  0  0  0  0
   37.3410   30.8790   50.1780 C   0  0  0  0  0  0  0  0  0  0  0  0
   36.0880   30.5240   49.7170 C   0  0  0  0  0  0  0  0  0  0  0  0
   35.7460   30.5020   48.3850 C   0  0  0  0  0  0  0  0  0  0  0  0
   40.2660   33.3150   45.9120 C   0  0  0  0  0  0  0  0  0  0  0  0
   40.9320   32.4060   45.0770 C   0  0  0  0  0  0  0  0  0  0  0  0
   40.5990   31.0640   45.2250 C   0  0  0  0  0  0  0  0  0  0  0  0
   39.6630   30.7120   46.1540 N   0  0  0  0  0  0  0  0  0  0  0  0
   39.0550   31.6030   46.9240 C   0  0  0  0  0  0  0  0  0  0  0  0
   39.3580   32.9110   46.8040 N   0  0  0  0  0  0  0  0  0  0  0  0
   34.1500   30.0580   47.7650 S   0  0  0  0  0  0  0  0  0  0  0  0
   34.0040   28.3150   47.3950 C   0  0  0  0  0  0  0  0  0  0  0  0
   33.9680   27.1780   48.1990 C   0  0  0  0  0  0  0  0  0  0  0  0
   33.8450   26.1050   47.3890 N   0  0  0  0  0  0  0  0  0  0  0  0
   33.8060   26.5770   46.1280 C   0  0  0  0  0  0  0  0  0  0  0  0
   33.9020   27.9210   46.1330 N   0  0  0  0  0  0  0  0  0  0  0  0
   39.3236   31.5198   49.6450 H   0  0  0  0  0  0  0  0  0  0  0  0
   37.5519   30.8769   51.2576 H   0  0  0  0  0  0  0  0  0  0  0  0
   35.3223   30.2437   50.4553 H   0  0  0  0  0  0  0  0  0  0  0  0
   40.4973   34.3873   45.8301 H   0  0  0  0  0  0  0  0  0  0  0  0
   41.6801   32.7379   44.3420 H   0  0  0  0  0  0  0  0  0  0  0  0
   41.0830   30.2971   44.6023 H   0  0  0  0  0  0  0  0  0  0  0  0
   34.0289   27.1580   49.2971 H   0  0  0  0  0  0  0  0  0  0  0  0
   33.7914   25.1180   47.6787 H   0  0  0  0  0  0  0  0  0  0  0  0
   33.7098   25.9556   45.2254 H   0  0  0  0  0  0  0  0  0  0  0  0
  1  2  1  0
  2  3  2  0
  2  7  1  0
  3  4  1  0
  4  5  2  0
  6  5  1  0
  7  6  2  0
  8 13  2  0
  9 10  2  0
  9  8  1  0
 10 11  1  0
 11 12  2  0
 12  3  1  0
 13 12  1  0
 14  7  1  0
 15 14  1  0
 15 16  2  0
 17 16  1  0
 18 19  2  0
 18 17  1  0
 19 15  1  0
  4 20  1  0
  5 21  1  0
  6 22  1  0
  8 23  1  0
  9 24  1  0
 10 25  1  0
 16 26  1  0
 17 27  1  0
 18 28  1  0
M  ISO  8  20  14  21  14  22  14  23  14  24  14  25  14  26  14  27   9
M  ISO  1  28  14
M  END
>  <minimizedAffinity>  (1) 
-5.33260345

>  <minimizedRMSD>  (1) 
0.808938444

$$$$
