
     RDKit          3D

 27 28  0  0  0  0  0  0  0  0999 V2000
   36.6190   30.3560   45.9280 Cl  0  0  0  0  0  0  0  0  0  0  0  0
   36.8660   30.5460   47.6500 C   0  0  0  0  0  0  0  0  0  0  0  0
   38.0310   31.1500   48.0360 C   0  0  0  0  0  0  0  0  0  0  0  0
   38.2590   31.3130   49.4090 C   0  0  0  0  0  0  0  0  0  0  0  0
   37.3080   30.8620   50.3070 C   0  0  0  0  0  0  0  0  0  0  0  0
   36.1650   30.2660   49.8380 C   0  0  0  0  0  0  0  0  0  0  0  0
   35.8850   30.0770   48.5120 C   0  0  0  0  0  0  0  0  0  0  0  0
   40.1270   33.4390   46.1080 C   0  0  0  0  0  0  0  0  0  0  0  0
   40.8350   32.5880   45.2180 C   0  0  0  0  0  0  0  0  0  0  0  0
   40.5660   31.2160   45.3060 C   0  0  0  0  0  0  0  0  0  0  0  0
   39.6590   30.8050   46.2260 N   0  0  0  0  0  0  0  0  0  0  0  0
   39.0120   31.6180   47.0450 C   0  0  0  0  0  0  0  0  0  0  0  0
   39.2540   32.9240   46.9760 N   0  0  0  0  0  0  0  0  0  0  0  0
   34.4180   29.3180   47.8770 S   0  0  0  0  0  0  0  0  0  0  0  0
   33.4490   30.5460   46.9580 C   0  0  0  0  0  0  0  0  0  0  0  0
   32.4630   29.8130   46.0900 C   0  0  0  0  0  0  0  0  0  0  0  0
   39.1814   31.7929   49.7679 H   0  0  0  0  0  0  0  0  0  0  0  0
   37.4673   30.9805   51.3889 H   0  0  0  0  0  0  0  0  0  0  0  0
   35.4263   29.9177   50.5749 H   0  0  0  0  0  0  0  0  0  0  0  0
   40.2987   34.5252   46.0817 H   0  0  0  0  0  0  0  0  0  0  0  0
   41.5603   32.9874   44.4938 H   0  0  0  0  0  0  0  0  0  0  0  0
   41.0747   30.4949   44.6493 H   0  0  0  0  0  0  0  0  0  0  0  0
   32.9121   31.1991   47.6617 H   0  0  0  0  0  0  0  0  0  0  0  0
   34.1125   31.1670   46.3382 H   0  0  0  0  0  0  0  0  0  0  0  0
   31.7424   29.2773   46.7255 H   0  0  0  0  0  0  0  0  0  0  0  0
   31.9269   30.5336   45.4549 H   0  0  0  0  0  0  0  0  0  0  0  0
   32.9986   29.0921   45.4549 H   0  0  0  0  0  0  0  0  0  0  0  0
  1  2  1  0
  2  3  2  0
  2  7  1  0
  3  4  1  0
  4  5  2  0
  6  5  1  0
  7  6  2  0
  8 13  2  0
  9 10  2  0
  9  8  1  0
 10 11  1  0
 11 12  2  0
 12  3  1  0
 13 12  1  0
 14  7  1  0
 15 14  1  0
 16 15  1  0
  4 17  1  0
  5 18  1  0
  6 19  1  0
  8 20  1  0
  9 21  1  0
 10 22  1  0
 15 23  1  0
 15 24  1  0
 16 25  1  0
 16 26  1  0
 16 27  1  0
M  ISO  8  17  14  18  14  19  14  20  14  21  14  22  14  23   8  24   8
M  ISO  3  25   8  26   8  27   8
M  END
>  <minimizedAffinity>  (1) 
-4.96707582

>  <minimizedRMSD>  (1) 
0.643006086

$$$$
