
     RDKit          3D

 42 45  0  0  1  0  0  0  0  0999 V2000
   34.1190   29.9560   47.4990 S   0  0  0  0  0  0  0  0  0  0  0  0
   36.4740   30.7940   45.6200 Cl  0  0  0  0  0  0  0  0  0  0  0  0
   36.7420   30.8070   47.3430 C   0  0  0  0  0  0  0  0  0  0  0  0
   37.9920   31.1890   47.7920 C   0  0  0  0  0  0  0  0  0  0  0  0
   38.2100   31.2010   49.1610 C   0  0  0  0  0  0  0  0  0  0  0  0
   37.2110   30.8420   50.0200 C   0  0  0  0  0  0  0  0  0  0  0  0
   35.9770   30.4680   49.5000 C   0  0  0  0  0  0  0  0  0  0  0  0
   35.6800   30.4300   48.1660 C   0  0  0  0  0  0  0  0  0  0  0  0
   40.2570   33.2930   45.8660 C   0  0  0  0  0  0  0  0  0  0  0  0
   40.9740   32.3760   45.0660 C   0  0  0  0  0  0  0  0  0  0  0  0
   40.6640   31.0190   45.2020 C   0  0  0  0  0  0  0  0  0  0  0  0
   39.6940   30.6550   46.0920 N   0  0  0  0  0  0  0  0  0  0  0  0
   39.0410   31.5680   46.8290 C   0  0  0  0  0  0  0  0  0  0  0  0
   39.3200   32.8640   46.7150 N   0  0  0  0  0  0  0  0  0  0  0  0
   34.4430   28.9750   44.5260 Cl  0  0  0  0  0  0  0  0  0  0  0  0
   34.1880   27.8350   45.8300 C   0  0  0  0  0  0  0  0  0  0  0  0
   34.0350   28.1900   47.1730 C   0  0  0  0  0  0  0  0  0  0  0  0
   33.8390   27.2110   48.1220 C   0  0  0  0  0  0  0  0  0  0  0  0
   33.7910   25.9000   47.7660 C   0  0  0  0  0  0  0  0  0  0  0  0
   33.9360   25.4950   46.4540 C   0  0  0  0  0  0  0  0  0  0  0  0
   34.1340   26.4900   45.5090 C   0  0  0  0  0  0  0  0  0  0  0  0
   33.4650   27.9730   43.0150 O   0  0  0  0  0  0  0  0  0  0  0  0
   34.3610   27.0930   43.1140 C   0  0  0  0  0  0  0  0  0  0  0  0
   34.2840   26.0090   44.1110 C   0  0  1  0  0  0  0  0  0  0  0  0
   35.4910   25.1480   43.9200 C   0  0  0  0  0  0  0  0  0  0  0  0
   35.8340   25.4540   42.4610 C   0  0  0  0  0  0  0  0  0  0  0  0
   35.5850   26.9000   42.3800 N   0  0  0  0  0  0  0  0  0  0  0  0
   39.1915   31.5009   49.5569 H   0  0  0  0  0  0  0  0  0  0  0  0
   37.3800   30.8486   51.1069 H   0  0  0  0  0  0  0  0  0  0  0  0
   35.1863   30.1835   50.2098 H   0  0  0  0  0  0  0  0  0  0  0  0
   40.4722   34.3690   45.7890 H   0  0  0  0  0  0  0  0  0  0  0  0
   41.7476   32.7165   44.3620 H   0  0  0  0  0  0  0  0  0  0  0  0
   41.1906   30.2604   44.6044 H   0  0  0  0  0  0  0  0  0  0  0  0
   33.7201   27.4930   49.1786 H   0  0  0  0  0  0  0  0  0  0  0  0
   33.6321   25.1401   48.5453 H   0  0  0  0  0  0  0  0  0  0  0  0
   33.8963   24.4326   46.1717 H   0  0  0  0  0  0  0  0  0  0  0  0
   33.3665   25.4252   43.9454 H   0  0  0  0  0  0  0  0  0  0  0  0
   36.3073   25.4393   44.5974 H   0  0  0  0  0  0  0  0  0  0  0  0
   35.3282   24.0816   44.1354 H   0  0  0  0  0  0  0  0  0  0  0  0
   36.8854   25.2174   42.2404 H   0  0  0  0  0  0  0  0  0  0  0  0
   35.2516   24.8645   41.7376 H   0  0  0  0  0  0  0  0  0  0  0  0
   36.1564   27.6138   41.9057 H   0  0  0  0  0  0  0  0  0  0  0  0
  1  8  1  0
  2  3  1  0
  3  4  2  0
  3  8  1  0
  4  5  1  0
  5  6  2  0
  7  6  1  0
  8  7  2  0
  9 14  2  0
 10 11  2  0
 10  9  1  0
 11 12  1  0
 12 13  2  0
 13  4  1  0
 14 13  1  0
 15 16  1  0
 16 17  2  0
 17  1  1  0
 17 18  1  0
 19 18  2  0
 20 19  1  0
 21 16  1  0
 21 20  2  0
 22 23  2  0
 23 24  1  0
 24 21  1  0
 25 24  1  0
 26 25  1  0
 27 26  1  0
 27 23  1  0
  5 28  1  0
  6 29  1  0
  7 30  1  0
  9 31  1  0
 10 32  1  0
 11 33  1  0
 18 34  1  0
 19 35  1  0
 20 36  1  0
 24 37  1  6
 25 38  1  0
 25 39  1  0
 26 40  1  0
 26 41  1  0
 27 42  1  0
M  ISO  8  28  14  29  14  30  14  31  14  32  14  33  14  34  14  35  14
M  ISO  7  36  14  37  13  38  13  39  13  40  13  41  13  42  10
M  END
>  <minimizedAffinity>  (1) 
-5.73604918

>  <minimizedRMSD>  (1) 
0.496857613

$$$$
