
     RDKit          3D

 37 39  0  0  0  0  0  0  0  0999 V2000
   36.3900   30.8930   45.7170 Cl  0  0  0  0  0  0  0  0  0  0  0  0
   36.6820   30.7730   47.4230 C   0  0  0  0  0  0  0  0  0  0  0  0
   37.9430   31.1020   47.8810 C   0  0  0  0  0  0  0  0  0  0  0  0
   38.1800   31.0050   49.2450 C   0  0  0  0  0  0  0  0  0  0  0  0
   37.1860   30.5980   50.0860 C   0  0  0  0  0  0  0  0  0  0  0  0
   35.9350   30.2810   49.5590 C   0  0  0  0  0  0  0  0  0  0  0  0
   35.6270   30.3520   48.2270 C   0  0  0  0  0  0  0  0  0  0  0  0
   40.2140   33.2960   46.0590 C   0  0  0  0  0  0  0  0  0  0  0  0
   40.9130   32.4400   45.1910 C   0  0  0  0  0  0  0  0  0  0  0  0
   40.5860   31.0900   45.2470 C   0  0  0  0  0  0  0  0  0  0  0  0
   39.6230   30.6710   46.1210 N   0  0  0  0  0  0  0  0  0  0  0  0
   38.9890   31.5390   46.9280 C   0  0  0  0  0  0  0  0  0  0  0  0
   39.2790   32.8390   46.8990 N   0  0  0  0  0  0  0  0  0  0  0  0
   34.0460   29.9530   47.5350 S   0  0  0  0  0  0  0  0  0  0  0  0
   33.8240   29.2230   44.4870 Cl  0  0  0  0  0  0  0  0  0  0  0  0
   33.8330   27.9800   45.7300 C   0  0  0  0  0  0  0  0  0  0  0  0
   33.9270   28.2220   47.0960 C   0  0  0  0  0  0  0  0  0  0  0  0
   33.9240   27.1610   47.9790 C   0  0  0  0  0  0  0  0  0  0  0  0
   33.8290   25.8790   47.5260 C   0  0  0  0  0  0  0  0  0  0  0  0
   33.7310   25.5860   46.1800 C   0  0  0  0  0  0  0  0  0  0  0  0
   33.7370   26.6490   45.3220 C   0  0  0  0  0  0  0  0  0  0  0  0
   33.6400   26.3750   43.9670 O   0  0  0  0  0  0  0  0  0  0  0  0
   34.5220   25.8730   41.5670 O   0  0  0  0  0  0  0  0  0  0  0  0
   34.9860   25.9560   43.0130 P   0  0  0  0  0  0  0  0  0  0  0  0
   36.2170   27.1080   43.0890 O   0  0  0  0  0  0  0  0  0  0  0  0
   35.6360   24.4550   43.4310 O   0  0  0  0  0  0  0  0  0  0  0  0
   39.1717   31.2569   49.6489 H   0  0  0  0  0  0  0  0  0  0  0  0
   37.3696   30.5208   51.1678 H   0  0  0  0  0  0  0  0  0  0  0  0
   35.1483   29.9543   50.2550 H   0  0  0  0  0  0  0  0  0  0  0  0
   40.4422   34.3720   46.0472 H   0  0  0  0  0  0  0  0  0  0  0  0
   41.6812   32.8195   44.5011 H   0  0  0  0  0  0  0  0  0  0  0  0
   41.0971   30.3668   44.5946 H   0  0  0  0  0  0  0  0  0  0  0  0
   33.9991   27.3522   49.0597 H   0  0  0  0  0  0  0  0  0  0  0  0
   33.8304   25.0539   48.2535 H   0  0  0  0  0  0  0  0  0  0  0  0
   33.6522   24.5504   45.8176 H   0  0  0  0  0  0  0  0  0  0  0  0
   36.4270   27.3045   44.0363 H   0  0  0  0  0  0  0  0  0  0  0  0
   35.6712   24.3737   44.4170 H   0  0  0  0  0  0  0  0  0  0  0  0
  1  2  1  0
  2  3  2  0
  2  7  1  0
  3  4  1  0
  4  5  2  0
  6  5  1  0
  7  6  2  0
  8 13  2  0
  9 10  2  0
  9  8  1  0
 10 11  1  0
 11 12  2  0
 12  3  1  0
 13 12  1  0
 14  7  1  0
 15 16  1  0
 16 17  2  0
 17 14  1  0
 17 18  1  0
 19 18  2  0
 20 19  1  0
 21 16  1  0
 21 20  2  0
 22 21  1  0
 23 24  2  0
 24 25  1  0
 24 26  1  0
 24 22  1  0
  4 27  1  0
  5 28  1  0
  6 29  1  0
  8 30  1  0
  9 31  1  0
 10 32  1  0
 18 33  1  0
 19 34  1  0
 20 35  1  0
 25 36  1  0
 26 37  1  0
M  ISO  8  27  14  28  14  29  14  30  14  31  14  32  14  33  14  34  14
M  ISO  3  35  14  36   3  37   3
M  END
>  <minimizedAffinity>  (1) 
-5.43904114

>  <minimizedRMSD>  (1) 
0.382350832

$$$$
