
     RDKit          3D

 36 38  0  0  1  0  0  0  0  0999 V2000
   38.3000   31.0680   47.8630 Cl  0  0  0  0  0  0  0  0  0  0  0  0
   37.0330   30.6340   46.7420 C   0  0  0  0  0  0  0  0  0  0  0  0
   35.8950   30.0730   47.2130 C   0  0  0  0  0  0  0  0  0  0  0  0
   34.9330   29.7810   46.2480 C   0  0  0  0  0  0  0  0  0  0  0  0
   35.0640   30.0160   44.9140 C   0  0  0  0  0  0  0  0  0  0  0  0
   36.2420   30.5880   44.4870 C   0  0  0  0  0  0  0  0  0  0  0  0
   37.2380   30.9030   45.3940 C   0  0  0  0  0  0  0  0  0  0  0  0
   38.4660   31.4880   44.9430 N   0  0  0  0  0  0  0  0  0  0  0  0
   38.7590   32.8920   44.8560 C   0  0  0  0  0  0  0  0  0  0  0  0
   40.0620   33.0320   44.1000 C   0  0  0  0  0  0  0  0  0  0  0  0
   39.9140   32.3060   42.8810 N   0  0  0  0  0  0  0  0  0  0  0  0
   39.8530   30.8910   43.0920 C   0  0  0  0  0  0  0  0  0  0  0  0
   39.5240   30.5800   44.5310 C   0  0  1  0  0  0  0  0  0  0  0  0
   40.6770   30.5980   45.4020 N   0  0  0  0  0  0  0  0  0  0  0  0
   36.6260   29.2830   50.8130 C   0  0  0  0  0  0  0  0  0  0  0  0
   36.8080   29.5040   49.4450 C   0  0  0  0  0  0  0  0  0  0  0  0
   35.7260   29.8200   48.6220 C   0  0  0  0  0  0  0  0  0  0  0  0
   34.4910   29.9000   49.2110 N   0  0  0  0  0  0  0  0  0  0  0  0
   34.3260   29.6840   50.5320 C   0  0  0  0  0  0  0  0  0  0  0  0
   35.3820   29.3760   51.3350 N   0  0  0  0  0  0  0  0  0  0  0  0
   33.9932   29.3243   46.5918 H   0  0  0  0  0  0  0  0  0  0  0  0
   34.2622   29.7597   44.2059 H   0  0  0  0  0  0  0  0  0  0  0  0
   36.3919   30.7958   43.4173 H   0  0  0  0  0  0  0  0  0  0  0  0
   37.9532   33.4123   44.3175 H   0  0  0  0  0  0  0  0  0  0  0  0
   38.8402   33.3364   45.8589 H   0  0  0  0  0  0  0  0  0  0  0  0
   40.2636   34.0921   43.8868 H   0  0  0  0  0  0  0  0  0  0  0  0
   40.9038   32.6419   44.6908 H   0  0  0  0  0  0  0  0  0  0  0  0
   40.7178   32.5152   42.2718 H   0  0  0  0  0  0  0  0  0  0  0  0
   39.0751   30.4624   42.4430 H   0  0  0  0  0  0  0  0  0  0  0  0
   40.8338   30.4550   42.8514 H   0  0  0  0  0  0  0  0  0  0  0  0
   39.1692   29.5421   44.6144 H   0  0  0  0  0  0  0  0  0  0  0  0
   40.3657   30.5931   46.3838 H   0  0  0  0  0  0  0  0  0  0  0  0
   41.2567   29.7660   45.2215 H   0  0  0  0  0  0  0  0  0  0  0  0
   37.4834   29.0367   51.4566 H   0  0  0  0  0  0  0  0  0  0  0  0
   37.8162   29.4280   49.0117 H   0  0  0  0  0  0  0  0  0  0  0  0
   33.3193   29.7580   50.9692 H   0  0  0  0  0  0  0  0  0  0  0  0
  2  3  2  0
  2  1  1  0
  3 17  1  0
  4  3  1  0
  5  4  2  0
  6  5  1  0
  6  7  2  0
  7  2  1  0
  8  7  1  0
  9  8  1  0
 10  9  1  0
 11 12  1  0
 11 10  1  0
 12 13  1  0
 13  8  1  0
 13 14  1  0
 15 20  2  0
 16 15  1  0
 17 18  1  0
 17 16  2  0
 18 19  2  0
 19 20  1  0
  4 21  1  0
  5 22  1  0
  6 23  1  0
  9 24  1  0
  9 25  1  0
 10 26  1  0
 10 27  1  0
 11 28  1  0
 12 29  1  0
 12 30  1  0
 13 31  1  6
 14 32  1  0
 14 33  1  0
 15 34  1  0
 16 35  1  0
 19 36  1  0
M  ISO  8  21  14  22  14  23  14  24  13  25  13  26  13  27  13  28   5
M  ISO  8  29  13  30  13  31  13  32   5  33   5  34  14  35  14  36  14
M  END
>  <minimizedAffinity>  (1) 
-5.67028236

>  <minimizedRMSD>  (1) 
0.0935317352

$$$$
