
     RDKit          3D

 35 37  0  0  1  0  0  0  0  0999 V2000
   38.2670   31.0630   47.8950 Cl  0  0  0  0  0  0  0  0  0  0  0  0
   37.0170   30.6340   46.7530 C   0  0  0  0  0  0  0  0  0  0  0  0
   35.8690   30.0820   47.2050 C   0  0  0  0  0  0  0  0  0  0  0  0
   34.9120   29.7920   46.2310 C   0  0  0  0  0  0  0  0  0  0  0  0
   35.0690   30.0280   44.8980 C   0  0  0  0  0  0  0  0  0  0  0  0
   36.2540   30.5900   44.4870 C   0  0  0  0  0  0  0  0  0  0  0  0
   37.2400   30.9000   45.4050 C   0  0  0  0  0  0  0  0  0  0  0  0
   38.4840   31.4770   44.9780 N   0  0  0  0  0  0  0  0  0  0  0  0
   38.7820   32.8740   44.8640 C   0  0  0  0  0  0  0  0  0  0  0  0
   40.1070   32.9800   44.1270 C   0  0  0  0  0  0  0  0  0  0  0  0
   39.9920   32.2130   42.9340 N   0  0  0  0  0  0  0  0  0  0  0  0
   39.9190   30.8170   43.1780 C   0  0  0  0  0  0  0  0  0  0  0  0
   39.5570   30.5440   44.6210 C   0  0  1  0  0  0  0  0  0  0  0  0
   40.6150   30.6160   45.4980 O   0  0  0  0  0  0  0  0  0  0  0  0
   36.5380   29.2100   50.8010 C   0  0  0  0  0  0  0  0  0  0  0  0
   36.7470   29.4450   49.4340 C   0  0  0  0  0  0  0  0  0  0  0  0
   35.6840   29.8210   48.6160 C   0  0  0  0  0  0  0  0  0  0  0  0
   34.4610   29.9390   49.2040 N   0  0  0  0  0  0  0  0  0  0  0  0
   34.2580   29.7120   50.5140 C   0  0  0  0  0  0  0  0  0  0  0  0
   35.2960   29.3470   51.3180 N   0  0  0  0  0  0  0  0  0  0  0  0
   33.9649   29.3415   46.5626 H   0  0  0  0  0  0  0  0  0  0  0  0
   34.2764   29.7779   44.1774 H   0  0  0  0  0  0  0  0  0  0  0  0
   36.4192   30.7948   43.4189 H   0  0  0  0  0  0  0  0  0  0  0  0
   37.9906   33.3852   44.2962 H   0  0  0  0  0  0  0  0  0  0  0  0
   38.8418   33.3476   45.8550 H   0  0  0  0  0  0  0  0  0  0  0  0
   40.3168   34.0311   43.8796 H   0  0  0  0  0  0  0  0  0  0  0  0
   40.9307   32.6051   44.7523 H   0  0  0  0  0  0  0  0  0  0  0  0
   40.8142   32.4004   42.3426 H   0  0  0  0  0  0  0  0  0  0  0  0
   39.1525   30.3758   42.5239 H   0  0  0  0  0  0  0  0  0  0  0  0
   40.9023   30.3700   42.9697 H   0  0  0  0  0  0  0  0  0  0  0  0
   39.2249   29.4990   44.7090 H   0  0  0  0  0  0  0  0  0  0  0  0
   40.2752   30.5929   46.4276 H   0  0  0  0  0  0  0  0  0  0  0  0
   37.3781   28.9165   51.4476 H   0  0  0  0  0  0  0  0  0  0  0  0
   37.7541   29.3319   49.0063 H   0  0  0  0  0  0  0  0  0  0  0  0
   33.2491   29.8215   50.9385 H   0  0  0  0  0  0  0  0  0  0  0  0
  2  3  2  0
  2  1  1  0
  3 17  1  0
  4  3  1  0
  5  4  2  0
  6  5  1  0
  6  7  2  0
  7  2  1  0
  8  7  1  0
  9  8  1  0
 10  9  1  0
 11 12  1  0
 11 10  1  0
 12 13  1  0
 13  8  1  0
 13 14  1  0
 15 20  2  0
 16 15  1  0
 17 18  1  0
 17 16  2  0
 18 19  2  0
 19 20  1  0
  4 21  1  0
  5 22  1  0
  6 23  1  0
  9 24  1  0
  9 25  1  0
 10 26  1  0
 10 27  1  0
 11 28  1  0
 12 29  1  0
 12 30  1  0
 13 31  1  6
 14 32  1  0
 15 33  1  0
 16 34  1  0
 19 35  1  0
M  ISO  8  21  14  22  14  23  14  24  13  25  13  26  13  27  13  28   5
M  ISO  7  29  13  30  13  31  13  32   3  33  14  34  14  35  14
M  END
>  <minimizedAffinity>  (1) 
-5.66811085

>  <minimizedRMSD>  (1) 
0.0844894201

$$$$
