
     RDKit          3D

 36 38  0  0  1  0  0  0  0  0999 V2000
   38.3330   31.2380   47.5940 Cl  0  0  0  0  0  0  0  0  0  0  0  0
   37.0430   30.7700   46.5140 C   0  0  0  0  0  0  0  0  0  0  0  0
   35.9450   30.1600   47.0150 C   0  0  0  0  0  0  0  0  0  0  0  0
   34.9480   29.8430   46.0920 C   0  0  0  0  0  0  0  0  0  0  0  0
   35.0210   30.1080   44.7560 C   0  0  0  0  0  0  0  0  0  0  0  0
   36.1560   30.7270   44.2920 C   0  0  0  0  0  0  0  0  0  0  0  0
   37.1800   31.0670   45.1590 C   0  0  0  0  0  0  0  0  0  0  0  0
   38.3680   31.7000   44.6760 N   0  0  0  0  0  0  0  0  0  0  0  0
   38.9490   32.9140   45.1760 C   0  0  0  0  0  0  0  0  0  0  0  0
   40.0000   33.3610   44.2040 C   0  0  0  0  0  0  0  0  0  0  0  0
   39.4350   33.3520   42.8950 N   0  0  0  0  0  0  0  0  0  0  0  0
   39.1120   32.0550   42.4280 C   0  0  0  0  0  0  0  0  0  0  0  0
   39.0730   31.0670   43.5690 C   0  0  1  0  0  0  0  0  0  0  0  0
   40.3970   30.5340   43.9190 C   0  0  0  0  0  0  0  0  0  0  0  0
   41.0010   30.1350   42.9370 O   0  0  0  0  0  0  0  0  0  0  0  0
   36.8590   29.3050   50.5610 C   0  0  0  0  0  0  0  0  0  0  0  0
   36.9820   29.5720   49.1920 C   0  0  0  0  0  0  0  0  0  0  0  0
   35.8490   29.8680   48.4290 C   0  0  0  0  0  0  0  0  0  0  0  0
   34.6500   29.8770   49.0750 N   0  0  0  0  0  0  0  0  0  0  0  0
   34.5340   29.6180   50.3920 C   0  0  0  0  0  0  0  0  0  0  0  0
   35.6360   29.3330   51.1390 N   0  0  0  0  0  0  0  0  0  0  0  0
   34.0415   29.3456   46.4672 H   0  0  0  0  0  0  0  0  0  0  0  0
   34.2010   29.8360   44.0751 H   0  0  0  0  0  0  0  0  0  0  0  0
   36.2522   30.9549   43.2202 H   0  0  0  0  0  0  0  0  0  0  0  0
   38.1732   33.6883   45.2688 H   0  0  0  0  0  0  0  0  0  0  0  0
   39.3939   32.7440   46.1676 H   0  0  0  0  0  0  0  0  0  0  0  0
   40.3326   34.3782   44.4581 H   0  0  0  0  0  0  0  0  0  0  0  0
   40.8664   32.6846   44.2465 H   0  0  0  0  0  0  0  0  0  0  0  0
   38.5743   33.9177   42.9075 H   0  0  0  0  0  0  0  0  0  0  0  0
   38.1259   32.0825   41.9412 H   0  0  0  0  0  0  0  0  0  0  0  0
   39.8843   31.7361   41.7125 H   0  0  0  0  0  0  0  0  0  0  0  0
   38.5220   30.1638   43.2678 H   0  0  0  0  0  0  0  0  0  0  0  0
   40.7957   30.4990   44.9436 H   0  0  0  0  0  0  0  0  0  0  0  0
   37.7506   29.0741   51.1625 H   0  0  0  0  0  0  0  0  0  0  0  0
   37.9732   29.5487   48.7156 H   0  0  0  0  0  0  0  0  0  0  0  0
   33.5421   29.6369   50.8671 H   0  0  0  0  0  0  0  0  0  0  0  0
  2  3  2  0
  2  1  1  0
  3 18  1  0
  4  3  1  0
  5  4  2  0
  6  5  1  0
  6  7  2  0
  7  2  1  0
  8  7  1  0
  8  9  1  0
 10  9  1  0
 11 10  1  0
 12 11  1  0
 12 13  1  0
 13 14  1  0
 13  8  1  0
 15 14  2  0
 16 21  2  0
 17 16  1  0
 18 19  1  0
 18 17  2  0
 19 20  2  0
 20 21  1  0
  4 22  1  0
  5 23  1  0
  6 24  1  0
  9 25  1  0
  9 26  1  0
 10 27  1  0
 10 28  1  0
 11 29  1  0
 12 30  1  0
 12 31  1  0
 13 32  1  6
 14 33  1  0
 16 34  1  0
 17 35  1  0
 20 36  1  0
M  ISO  8  22  14  23  14  24  14  25  13  26  13  27  13  28  13  29   5
M  ISO  7  30  13  31  13  32  13  33   6  34  14  35  14  36  14
M  END
>  <minimizedAffinity>  (1) 
-5.33186197

>  <minimizedRMSD>  (1) 
1.00306892

$$$$
