
     RDKit          3D

 31 32  0  0  0  0  0  0  0  0999 V2000
   38.9270   32.3670   47.4740 C   0  0  0  0  0  0  0  0  0  0  0  0
   38.5310   31.0770   47.2630 C   0  0  0  0  0  0  0  0  0  0  0  0
   39.0220   30.4530   46.1350 C   0  0  0  0  0  0  0  0  0  0  0  0
   39.8530   31.0680   45.2720 C   0  0  0  0  0  0  0  0  0  0  0  0
   40.2670   32.3760   45.4640 C   0  0  0  0  0  0  0  0  0  0  0  0
   39.7840   33.0050   46.5840 C   0  0  0  0  0  0  0  0  0  0  0  0
   37.3630   29.5200   50.4450 C   0  0  0  0  0  0  0  0  0  0  0  0
   38.1420   30.1320   49.4480 C   0  0  0  0  0  0  0  0  0  0  0  0
   37.6400   30.4520   48.2040 C   0  0  0  0  0  0  0  0  0  0  0  0
   36.3360   30.1180   48.0480 N   0  0  0  0  0  0  0  0  0  0  0  0
   35.5730   29.5340   48.9800 C   0  0  0  0  0  0  0  0  0  0  0  0
   36.0840   29.2320   50.1860 N   0  0  0  0  0  0  0  0  0  0  0  0
   34.1490   29.2220   48.6730 C   0  0  0  0  0  0  0  0  0  0  0  0
   33.9210   27.7540   48.5290 C   0  0  0  0  0  0  0  0  0  0  0  0
   39.3320   34.2520   48.9060 N   0  0  0  0  0  0  0  0  0  0  0  0
   38.5690   33.2220   48.5700 C   0  0  0  0  0  0  0  0  0  0  0  0
   37.6000   33.4370   49.5690 N   0  0  0  0  0  0  0  0  0  0  0  0
   39.0410   34.8620   49.7090 H   0  0  0  0  0  0  0  0  0  0  0  0
   38.7235   29.4138   45.9328 H   0  0  0  0  0  0  0  0  0  0  0  0
   40.2128   30.5168   44.3907 H   0  0  0  0  0  0  0  0  0  0  0  0
   40.9439   32.8813   44.7593 H   0  0  0  0  0  0  0  0  0  0  0  0
   40.0836   34.0444   46.7836 H   0  0  0  0  0  0  0  0  0  0  0  0
   37.8004   29.2812   51.4257 H   0  0  0  0  0  0  0  0  0  0  0  0
   39.1941   30.3651   49.6688 H   0  0  0  0  0  0  0  0  0  0  0  0
   33.5174   29.6019   49.4896 H   0  0  0  0  0  0  0  0  0  0  0  0
   33.8923   29.7029   47.7176 H   0  0  0  0  0  0  0  0  0  0  0  0
   33.8496   27.2945   49.5259 H   0  0  0  0  0  0  0  0  0  0  0  0
   32.9852   27.5806   47.9775 H   0  0  0  0  0  0  0  0  0  0  0  0
   34.7602   27.3050   47.9775 H   0  0  0  0  0  0  0  0  0  0  0  0
   37.7018   34.2253   50.2241 H   0  0  0  0  0  0  0  0  0  0  0  0
   36.7895   32.8059   49.6446 H   0  0  0  0  0  0  0  0  0  0  0  0
  1 16  1  0
  2  1  2  0
  2  9  1  0
  3  2  1  0
  4  5  1  0
  4  3  2  0
  5  6  2  0
  6  1  1  0
  8  7  2  0
  9  8  1  0
 10  9  2  0
 10 11  1  0
 11 12  2  0
 12  7  1  0
 13 11  1  0
 14 13  1  0
 15 18  1  0
 16 15  2  0
 16 17  1  0
  3 19  1  0
  4 20  1  0
  5 21  1  0
  6 22  1  0
  7 23  1  0
  8 24  1  0
 13 25  1  0
 13 26  1  0
 14 27  1  0
 14 28  1  0
 14 29  1  0
 17 30  1  0
 17 31  1  0
M  ISO  8  19  14  20  14  21  14  22  14  23  14  24  14  25   8  26   8
M  ISO  3  27   8  28   8  29   8
M  END
>  <minimizedAffinity>  (1) 
-5.96825314

>  <minimizedRMSD>  (1) 
0.739398718

$$$$
