
     RDKit          3D

 27 28  0  0  0  0  0  0  0  0999 V2000
   38.9220   32.3580   47.4700 C   0  0  0  0  0  0  0  0  0  0  0  0
   38.5230   31.0740   47.2640 C   0  0  0  0  0  0  0  0  0  0  0  0
   39.0100   30.4400   46.1410 C   0  0  0  0  0  0  0  0  0  0  0  0
   39.8440   31.0480   45.2710 C   0  0  0  0  0  0  0  0  0  0  0  0
   40.2660   32.3500   45.4510 C   0  0  0  0  0  0  0  0  0  0  0  0
   39.7830   32.9910   46.5730 C   0  0  0  0  0  0  0  0  0  0  0  0
   37.3260   29.5090   50.4210 C   0  0  0  0  0  0  0  0  0  0  0  0
   38.1320   30.1220   49.4400 C   0  0  0  0  0  0  0  0  0  0  0  0
   37.6250   30.4530   48.2000 C   0  0  0  0  0  0  0  0  0  0  0  0
   36.3170   30.1330   48.0450 N   0  0  0  0  0  0  0  0  0  0  0  0
   35.5380   29.5540   48.9580 C   0  0  0  0  0  0  0  0  0  0  0  0
   36.0510   29.2400   50.1600 N   0  0  0  0  0  0  0  0  0  0  0  0
   34.1430   29.2670   48.6530 C   0  0  0  0  0  0  0  0  0  0  0  0
   33.5040   28.4140   49.3230 O   0  0  0  0  0  0  0  0  0  0  0  0
   39.3310   34.2420   48.8950 N   0  0  0  0  0  0  0  0  0  0  0  0
   38.5720   33.2180   48.5620 C   0  0  0  0  0  0  0  0  0  0  0  0
   37.6140   33.4370   49.5620 N   0  0  0  0  0  0  0  0  0  0  0  0
   39.0650   34.8550   49.7010 H   0  0  0  0  0  0  0  0  0  0  0  0
   38.7079   29.4003   45.9467 H   0  0  0  0  0  0  0  0  0  0  0  0
   40.1980   30.4892   44.3922 H   0  0  0  0  0  0  0  0  0  0  0  0
   40.9460   32.8461   44.7429 H   0  0  0  0  0  0  0  0  0  0  0  0
   40.0853   34.0309   46.7660 H   0  0  0  0  0  0  0  0  0  0  0  0
   37.7524   29.2534   51.4022 H   0  0  0  0  0  0  0  0  0  0  0  0
   39.1857   30.3407   49.6676 H   0  0  0  0  0  0  0  0  0  0  0  0
   33.6437   29.8000   47.8304 H   0  0  0  0  0  0  0  0  0  0  0  0
   37.7198   34.2290   50.2120 H   0  0  0  0  0  0  0  0  0  0  0  0
   36.8044   32.8059   49.6467 H   0  0  0  0  0  0  0  0  0  0  0  0
  1 16  1  0
  2  1  2  0
  2  9  1  0
  3  2  1  0
  4  5  1  0
  4  3  2  0
  5  6  2  0
  6  1  1  0
  8  7  2  0
  9  8  1  0
 10  9  2  0
 10 11  1  0
 11 12  2  0
 12  7  1  0
 13 11  1  0
 13 14  2  0
 15 18  1  0
 16 15  2  0
 16 17  1  0
  3 19  1  0
  4 20  1  0
  5 21  1  0
  6 22  1  0
  7 23  1  0
  8 24  1  0
 13 25  1  0
 17 26  1  0
 17 27  1  0
M  ISO  7  19  14  20  14  21  14  22  14  23  14  24  14  25   6
M  END
>  <minimizedAffinity>  (1) 
-5.74934578

>  <minimizedRMSD>  (1) 
0.889707088

$$$$
