
     RDKit          3D

 46 48  0  0  1  0  0  0  0  0999 V2000
   37.2980   30.0620   50.0170 C   0  0  0  0  0  0  0  0  0  0  0  0
   38.2170   30.6320   49.1060 C   0  0  0  0  0  0  0  0  0  0  0  0
   37.9320   30.6820   47.7390 C   0  0  0  0  0  0  0  0  0  0  0  0
   36.7230   30.1420   47.4310 N   0  0  0  0  0  0  0  0  0  0  0  0
   35.8500   29.6040   48.2800 C   0  0  0  0  0  0  0  0  0  0  0  0
   36.1460   29.5670   49.5820 N   0  0  0  0  0  0  0  0  0  0  0  0
   34.6190   29.0780   47.7800 N   0  0  0  0  0  0  0  0  0  0  0  0
   33.9500   27.9850   48.4560 C   0  0  0  0  0  0  0  0  0  0  0  0
   33.9160   26.8510   47.4210 C   0  0  0  0  0  0  0  0  0  0  0  0
   33.0770   27.3220   46.2800 C   0  0  0  0  0  0  0  0  0  0  0  0
   33.6980   28.5350   45.6200 C   0  0  0  0  0  0  0  0  0  0  0  0
   34.0210   29.6380   46.5790 C   0  0  1  0  0  0  0  0  0  0  0  0
   39.3330   32.5520   47.1280 C   0  0  0  0  0  0  0  0  0  0  0  0
   38.9250   31.2800   46.8910 C   0  0  0  0  0  0  0  0  0  0  0  0
   39.5030   30.6270   45.8250 C   0  0  0  0  0  0  0  0  0  0  0  0
   40.4250   31.1780   45.0360 C   0  0  0  0  0  0  0  0  0  0  0  0
   40.8650   32.4850   45.2540 C   0  0  0  0  0  0  0  0  0  0  0  0
   40.2960   33.1420   46.3120 C   0  0  0  0  0  0  0  0  0  0  0  0
   39.6430   34.4250   48.5730 N   0  0  0  0  0  0  0  0  0  0  0  0
   38.8750   33.4220   48.1750 C   0  0  0  0  0  0  0  0  0  0  0  0
   37.8240   33.6810   49.0550 N   0  0  0  0  0  0  0  0  0  0  0  0
   39.2930   35.0620   49.3280 H   0  0  0  0  0  0  0  0  0  0  0  0
   32.8740   30.5560   46.8380 C   0  0  0  0  0  0  0  0  0  0  0  0
   32.2520   30.9270   45.5110 C   0  0  0  0  0  0  0  0  0  0  0  0
   37.5387   30.0287   51.0898 H   0  0  0  0  0  0  0  0  0  0  0  0
   39.1679   31.0411   49.4780 H   0  0  0  0  0  0  0  0  0  0  0  0
   34.5134   27.6782   49.3496 H   0  0  0  0  0  0  0  0  0  0  0  0
   32.9438   28.2629   48.8030 H   0  0  0  0  0  0  0  0  0  0  0  0
   34.9352   26.6276   47.0727 H   0  0  0  0  0  0  0  0  0  0  0  0
   33.4989   25.9328   47.8603 H   0  0  0  0  0  0  0  0  0  0  0  0
   32.9895   26.5137   45.5391 H   0  0  0  0  0  0  0  0  0  0  0  0
   32.0841   27.5993   46.6637 H   0  0  0  0  0  0  0  0  0  0  0  0
   34.6282   28.2226   45.1228 H   0  0  0  0  0  0  0  0  0  0  0  0
   32.9573   28.9310   44.9097 H   0  0  0  0  0  0  0  0  0  0  0  0
   34.7672   30.2974   46.1117 H   0  0  0  0  0  0  0  0  0  0  0  0
   39.1866   29.5950   45.6134 H   0  0  0  0  0  0  0  0  0  0  0  0
   40.8447   30.5957   44.2025 H   0  0  0  0  0  0  0  0  0  0  0  0
   41.6237   32.9588   44.6138 H   0  0  0  0  0  0  0  0  0  0  0  0
   40.6109   34.1741   46.5257 H   0  0  0  0  0  0  0  0  0  0  0  0
   37.8848   34.4727   49.7110 H   0  0  0  0  0  0  0  0  0  0  0  0
   36.9872   33.0805   49.0487 H   0  0  0  0  0  0  0  0  0  0  0  0
   32.1286   30.0505   47.4695 H   0  0  0  0  0  0  0  0  0  0  0  0
   33.2230   31.4602   47.3582 H   0  0  0  0  0  0  0  0  0  0  0  0
   31.3193   31.4833   45.6860 H   0  0  0  0  0  0  0  0  0  0  0  0
   32.9521   31.5552   44.9407 H   0  0  0  0  0  0  0  0  0  0  0  0
   32.0320   30.0125   44.9407 H   0  0  0  0  0  0  0  0  0  0  0  0
  2  1  2  0
  3  2  1  0
  4  3  2  0
  4  5  1  0
  5  6  2  0
  6  1  1  0
  7  5  1  0
  7  8  1  0
  9  8  1  0
 10  9  1  0
 11 10  1  0
 11 12  1  0
 12 23  1  0
 12  7  1  0
 13 20  1  0
 14 13  2  0
 14  3  1  0
 15 14  1  0
 16 17  1  0
 16 15  2  0
 17 18  2  0
 18 13  1  0
 19 22  1  0
 20 19  2  0
 20 21  1  0
 24 23  1  0
  1 25  1  0
  2 26  1  0
  8 27  1  0
  8 28  1  0
  9 29  1  0
  9 30  1  0
 10 31  1  0
 10 32  1  0
 11 33  1  0
 11 34  1  0
 12 35  1  6
 15 36  1  0
 16 37  1  0
 17 38  1  0
 18 39  1  0
 21 40  1  0
 21 41  1  0
 23 42  1  0
 23 43  1  0
 24 44  1  0
 24 45  1  0
 24 46  1  0
M  ISO  8  25  14  26  14  27  13  28  13  29  13  30  13  31  13  32  13
M  ISO  8  33  13  34  13  35  13  36  14  37  14  38  14  39  14  42   8
M  ISO  4  43   8  44   8  45   8  46   8
M  END
>  <minimizedAffinity>  (1) 
-6.47543144

>  <minimizedRMSD>  (1) 
0.709389448

$$$$
