
     RDKit          3D

 22 23  0  0  0  0  0  0  0  0999 V2000
   38.2670   33.3600   49.3870 Br  0  0  0  0  0  0  0  0  0  0  0  0
   38.7530   32.3800   47.8130 C   0  0  0  0  0  0  0  0  0  0  0  0
   38.2450   31.1160   47.6030 C   0  0  0  0  0  0  0  0  0  0  0  0
   38.6250   30.4400   46.4540 C   0  0  0  0  0  0  0  0  0  0  0  0
   39.4960   31.0560   45.5680 C   0  0  0  0  0  0  0  0  0  0  0  0
   40.0120   32.3290   45.7720 C   0  0  0  0  0  0  0  0  0  0  0  0
   39.6190   32.9810   46.9230 C   0  0  0  0  0  0  0  0  0  0  0  0
   36.8840   29.4060   50.6870 C   0  0  0  0  0  0  0  0  0  0  0  0
   37.7840   29.9090   49.7350 C   0  0  0  0  0  0  0  0  0  0  0  0
   37.3350   30.5800   48.6120 C   0  0  0  0  0  0  0  0  0  0  0  0
   35.9810   30.7120   48.4990 N   0  0  0  0  0  0  0  0  0  0  0  0
   35.1310   30.2240   49.4200 C   0  0  0  0  0  0  0  0  0  0  0  0
   35.5780   29.5750   50.5060 N   0  0  0  0  0  0  0  0  0  0  0  0
   40.1140   34.2890   47.1900 N   0  0  0  0  0  0  0  0  0  0  0  0
   38.2413   29.4299   46.2481 H   0  0  0  0  0  0  0  0  0  0  0  0
   39.7923   30.5101   44.6602 H   0  0  0  0  0  0  0  0  0  0  0  0
   40.7003   32.7948   45.0514 H   0  0  0  0  0  0  0  0  0  0  0  0
   37.2564   28.8760   51.5761 H   0  0  0  0  0  0  0  0  0  0  0  0
   38.8646   29.7673   49.8844 H   0  0  0  0  0  0  0  0  0  0  0  0
   34.0484   30.3596   49.2803 H   0  0  0  0  0  0  0  0  0  0  0  0
   39.8264   34.7836   48.0465 H   0  0  0  0  0  0  0  0  0  0  0  0
   40.7597   34.7406   46.5267 H   0  0  0  0  0  0  0  0  0  0  0  0
  2  1  1  0
  3  2  2  0
  3 10  1  0
  4  3  1  0
  5  6  1  0
  5  4  2  0
  6  7  2  0
  7 14  1  0
  7  2  1  0
  9  8  2  0
 10  9  1  0
 11 10  2  0
 11 12  1  0
 12 13  2  0
 13  8  1  0
  4 15  1  0
  5 16  1  0
  6 17  1  0
  8 18  1  0
  9 19  1  0
 12 20  1  0
 14 21  1  0
 14 22  1  0
M  ISO  6  15  14  16  14  17  14  18  14  19  14  20  14
M  END
>  <minimizedAffinity>  (1) 
-5.51497746

>  <minimizedRMSD>  (1) 
0.136201918

$$$$
