
     RDKit          3D

 26 27  0  0  0  0  0  0  0  0999 V2000
   36.5360   31.9830   50.2210 Br  0  0  0  0  0  0  0  0  0  0  0  0
   37.4940   31.7110   48.5830 C   0  0  0  0  0  0  0  0  0  0  0  0
   37.0960   30.7330   47.7020 C   0  0  0  0  0  0  0  0  0  0  0  0
   37.8240   30.5760   46.5310 C   0  0  0  0  0  0  0  0  0  0  0  0
   38.9110   31.3880   46.2790 C   0  0  0  0  0  0  0  0  0  0  0  0
   39.3190   32.3830   47.1720 C   0  0  0  0  0  0  0  0  0  0  0  0
   38.5800   32.5360   48.3500 C   0  0  0  0  0  0  0  0  0  0  0  0
   34.8230   28.2760   49.4680 C   0  0  0  0  0  0  0  0  0  0  0  0
   35.9470   29.0390   49.1270 C   0  0  0  0  0  0  0  0  0  0  0  0
   35.9340   29.9350   48.0660 C   0  0  0  0  0  0  0  0  0  0  0  0
   34.7640   30.0090   47.3980 N   0  0  0  0  0  0  0  0  0  0  0  0
   33.6850   29.2790   47.7230 C   0  0  0  0  0  0  0  0  0  0  0  0
   33.7180   28.4250   48.7440 N   0  0  0  0  0  0  0  0  0  0  0  0
   38.9590   33.5770   49.3400 C   0  0  0  0  0  0  0  0  0  0  0  0
   39.8820   34.6200   48.7910 C   0  0  0  0  0  0  0  0  0  0  0  0
   37.5344   29.8038   45.8032 H   0  0  0  0  0  0  0  0  0  0  0  0
   39.4748   31.2477   45.3449 H   0  0  0  0  0  0  0  0  0  0  0  0
   40.1884   33.0216   46.9566 H   0  0  0  0  0  0  0  0  0  0  0  0
   34.8538   27.5720   50.3127 H   0  0  0  0  0  0  0  0  0  0  0  0
   36.8680   28.9251   49.7175 H   0  0  0  0  0  0  0  0  0  0  0  0
   32.7603   29.3881   47.1373 H   0  0  0  0  0  0  0  0  0  0  0  0
   38.0422   34.0738   49.6902 H   0  0  0  0  0  0  0  0  0  0  0  0
   39.4962   33.0675   50.1535 H   0  0  0  0  0  0  0  0  0  0  0  0
   40.3601   35.1603   49.6214 H   0  0  0  0  0  0  0  0  0  0  0  0
   40.6546   34.1378   48.1741 H   0  0  0  0  0  0  0  0  0  0  0  0
   39.3094   35.3283   48.1741 H   0  0  0  0  0  0  0  0  0  0  0  0
  2  1  1  0
  3 10  1  0
  3  2  2  0
  4  3  1  0
  5  4  2  0
  5  6  1  0
  6  7  2  0
  7  2  1  0
  7 14  1  0
  9  8  2  0
 10  9  1  0
 11 12  1  0
 11 10  2  0
 12 13  2  0
 13  8  1  0
 15 14  1  0
  4 16  1  0
  5 17  1  0
  6 18  1  0
  8 19  1  0
  9 20  1  0
 12 21  1  0
 14 22  1  0
 14 23  1  0
 15 24  1  0
 15 25  1  0
 15 26  1  0
M  ISO  8  16  14  17  14  18  14  19  14  20  14  21  14  22   8  23   8
M  ISO  3  24   8  25   8  26   8
M  END
>  <minimizedAffinity>  (1) 
-5.30772972

>  <minimizedRMSD>  (1) 
2.0936861

$$$$
