
     RDKit          3D

 30 32  0  0  0  0  0  0  0  0999 V2000
   37.2870   31.4130   47.9090 Br  0  0  0  0  0  0  0  0  0  0  0  0
   36.1290   30.4030   46.7860 C   0  0  0  0  0  0  0  0  0  0  0  0
   35.2190   29.5240   47.3340 C   0  0  0  0  0  0  0  0  0  0  0  0
   34.3860   28.8070   46.4710 C   0  0  0  0  0  0  0  0  0  0  0  0
   34.4840   28.9850   45.1100 C   0  0  0  0  0  0  0  0  0  0  0  0
   35.4040   29.8740   44.5520 C   0  0  0  0  0  0  0  0  0  0  0  0
   36.2270   30.5820   45.4230 C   0  0  0  0  0  0  0  0  0  0  0  0
   36.2590   28.9810   50.9190 C   0  0  0  0  0  0  0  0  0  0  0  0
   36.2960   29.0820   49.5260 C   0  0  0  0  0  0  0  0  0  0  0  0
   35.1860   29.4060   48.7850 C   0  0  0  0  0  0  0  0  0  0  0  0
   34.0290   29.6260   49.4950 N   0  0  0  0  0  0  0  0  0  0  0  0
   33.9870   29.5280   50.8430 C   0  0  0  0  0  0  0  0  0  0  0  0
   35.0820   29.2110   51.5500 N   0  0  0  0  0  0  0  0  0  0  0  0
   37.1970   31.5150   44.8810 C   0  0  0  0  0  0  0  0  0  0  0  0
   37.1500   32.1420   43.6680 C   0  0  0  0  0  0  0  0  0  0  0  0
   38.2130   32.9340   43.4980 N   0  0  0  0  0  0  0  0  0  0  0  0
   38.9570   32.8240   44.6040 C   0  0  0  0  0  0  0  0  0  0  0  0
   38.3580   31.9600   45.4690 N   0  0  0  0  0  0  0  0  0  0  0  0
   40.2550   33.5010   44.9320 C   0  0  0  0  0  0  0  0  0  0  0  0
   41.3040   32.6280   44.7930 F   0  0  0  0  0  0  0  0  0  0  0  0
   40.4020   34.5860   44.1190 F   0  0  0  0  0  0  0  0  0  0  0  0
   40.2490   33.9370   46.2650 F   0  0  0  0  0  0  0  0  0  0  0  0
   33.6505   28.0989   46.8804 H   0  0  0  0  0  0  0  0  0  0  0  0
   33.8207   28.4123   44.4452 H   0  0  0  0  0  0  0  0  0  0  0  0
   35.4761   30.0102   43.4628 H   0  0  0  0  0  0  0  0  0  0  0  0
   37.1629   28.7212   51.4894 H   0  0  0  0  0  0  0  0  0  0  0  0
   37.2467   28.8956   49.0050 H   0  0  0  0  0  0  0  0  0  0  0  0
   33.0384   29.7114   51.3689 H   0  0  0  0  0  0  0  0  0  0  0  0
   36.3448   32.0123   42.9299 H   0  0  0  0  0  0  0  0  0  0  0  0
   38.4195   33.5167   42.6742 H   0  0  0  0  0  0  0  0  0  0  0  0
  2  3  2  0
  2  1  1  0
  3 10  1  0
  4  3  1  0
  5  4  2  0
  6  5  1  0
  6  7  2  0
  7  2  1  0
  8 13  2  0
  9  8  1  0
 10 11  1  0
 10  9  2  0
 11 12  2  0
 12 13  1  0
 14  7  1  0
 14 18  1  0
 15 14  2  0
 16 15  1  0
 16 17  1  0
 17 19  1  0
 17 18  2  0
 19 22  1  0
 20 19  1  0
 21 19  1  0
  4 23  1  0
  5 24  1  0
  6 25  1  0
  8 26  1  0
  9 27  1  0
 12 28  1  0
 15 29  1  0
 16 30  1  0
M  ISO  8  23  14  24  14  25  14  26  14  27  14  28  14  29  14  30   9
M  END
>  <minimizedAffinity>  (1) 
-5.22877455

>  <minimizedRMSD>  (1) 
1.81473148

$$$$
