
     RDKit          3D

 33 35  0  0  0  0  0  0  0  0999 V2000
   37.3750   31.4290   47.6420 Br  0  0  0  0  0  0  0  0  0  0  0  0
   36.1080   30.3860   46.6510 C   0  0  0  0  0  0  0  0  0  0  0  0
   35.2530   29.5290   47.3150 C   0  0  0  0  0  0  0  0  0  0  0  0
   34.3420   28.7970   46.5460 C   0  0  0  0  0  0  0  0  0  0  0  0
   34.3240   28.9490   45.1770 C   0  0  0  0  0  0  0  0  0  0  0  0
   35.1880   29.8110   44.5140 C   0  0  0  0  0  0  0  0  0  0  0  0
   36.0900   30.5360   45.2830 C   0  0  0  0  0  0  0  0  0  0  0  0
   36.6440   29.1210   50.7970 C   0  0  0  0  0  0  0  0  0  0  0  0
   36.5740   29.1950   49.3930 C   0  0  0  0  0  0  0  0  0  0  0  0
   35.3550   29.4440   48.7650 C   0  0  0  0  0  0  0  0  0  0  0  0
   34.2600   29.6070   49.5600 N   0  0  0  0  0  0  0  0  0  0  0  0
   34.3480   29.5310   50.9080 C   0  0  0  0  0  0  0  0  0  0  0  0
   35.5170   29.2930   51.5240 N   0  0  0  0  0  0  0  0  0  0  0  0
   37.0150   31.4500   44.6300 C   0  0  0  0  0  0  0  0  0  0  0  0
   36.7700   32.2050   43.5190 C   0  0  0  0  0  0  0  0  0  0  0  0
   37.8490   32.9270   43.2000 N   0  0  0  0  0  0  0  0  0  0  0  0
   38.7920   32.6400   44.1010 C   0  0  0  0  0  0  0  0  0  0  0  0
   38.3080   31.7420   44.9850 N   0  0  0  0  0  0  0  0  0  0  0  0
   40.1950   33.1660   44.2180 C   0  0  0  0  0  0  0  0  0  0  0  0
   40.9520   32.4110   45.2960 C   0  0  0  0  0  0  0  0  0  0  0  0
   33.6421   28.1021   47.0331 H   0  0  0  0  0  0  0  0  0  0  0  0
   33.5997   28.3671   44.5881 H   0  0  0  0  0  0  0  0  0  0  0  0
   35.1592   29.9160   43.4194 H   0  0  0  0  0  0  0  0  0  0  0  0
   37.6042   28.9256   51.2968 H   0  0  0  0  0  0  0  0  0  0  0  0
   37.4835   29.0560   48.7902 H   0  0  0  0  0  0  0  0  0  0  0  0
   33.4400   29.6675   51.5138 H   0  0  0  0  0  0  0  0  0  0  0  0
   35.8197   32.2174   42.9651 H   0  0  0  0  0  0  0  0  0  0  0  0
   37.9364   33.5809   42.4090 H   0  0  0  0  0  0  0  0  0  0  0  0
   40.7116   33.0392   43.2552 H   0  0  0  0  0  0  0  0  0  0  0  0
   40.1565   34.2319   44.4872 H   0  0  0  0  0  0  0  0  0  0  0  0
   40.6134   32.7487   46.2866 H   0  0  0  0  0  0  0  0  0  0  0  0
   40.7613   31.3327   45.1912 H   0  0  0  0  0  0  0  0  0  0  0  0
   42.0297   32.6046   45.1912 H   0  0  0  0  0  0  0  0  0  0  0  0
  2  3  2  0
  2  1  1  0
  3 10  1  0
  4  3  1  0
  5  4  2  0
  6  5  1  0
  6  7  2  0
  7  2  1  0
  8 13  2  0
  9  8  1  0
 10  9  2  0
 10 11  1  0
 11 12  2  0
 12 13  1  0
 14 18  1  0
 14  7  1  0
 15 14  2  0
 16 15  1  0
 16 17  1  0
 17 19  1  0
 17 18  2  0
 19 20  1  0
  4 21  1  0
  5 22  1  0
  6 23  1  0
  8 24  1  0
  9 25  1  0
 12 26  1  0
 15 27  1  0
 16 28  1  0
 19 29  1  0
 19 30  1  0
 20 31  1  0
 20 32  1  0
 20 33  1  0
M  ISO  8  21  14  22  14  23  14  24  14  25  14  26  14  27  14  28   9
M  ISO  5  29   8  30   8  31   8  32   8  33   8
M  END
>  <minimizedAffinity>  (1) 
-4.68456936

>  <minimizedRMSD>  (1) 
1.75354493

$$$$
