
     RDKit          3D

 40 43  0  0  0  0  0  0  0  0999 V2000
   36.5020   30.8330   47.0410 Br  0  0  0  0  0  0  0  0  0  0  0  0
   35.1540   29.4710   47.0360 C   0  0  0  0  0  0  0  0  0  0  0  0
   34.8870   28.7610   48.1820 C   0  0  0  0  0  0  0  0  0  0  0  0
   33.8910   27.7810   48.1300 C   0  0  0  0  0  0  0  0  0  0  0  0
   33.2150   27.5610   46.9470 C   0  0  0  0  0  0  0  0  0  0  0  0
   33.4830   28.2750   45.7920 C   0  0  0  0  0  0  0  0  0  0  0  0
   34.4770   29.2460   45.8600 C   0  0  0  0  0  0  0  0  0  0  0  0
   34.8000   30.0230   44.6700 C   0  0  0  0  0  0  0  0  0  0  0  0
   33.9600   30.8200   43.9490 C   0  0  0  0  0  0  0  0  0  0  0  0
   34.6000   31.3770   42.9170 N   0  0  0  0  0  0  0  0  0  0  0  0
   35.8630   30.9440   42.9620 C   0  0  0  0  0  0  0  0  0  0  0  0
   36.0140   30.1080   44.0330 N   0  0  0  0  0  0  0  0  0  0  0  0
   36.9580   31.2320   42.1010 N   0  0  0  0  0  0  0  0  0  0  0  0
   37.0230   32.3080   41.1380 C   0  0  0  0  0  0  0  0  0  0  0  0
   38.2670   33.1430   41.4100 C   0  0  0  0  0  0  0  0  0  0  0  0
   39.3610   32.3280   41.1340 O   0  0  0  0  0  0  0  0  0  0  0  0
   39.4110   31.3130   42.0680 C   0  0  0  0  0  0  0  0  0  0  0  0
   38.1660   30.4560   42.0920 C   0  0  0  0  0  0  0  0  0  0  0  0
   37.7430   29.6400   50.4840 C   0  0  0  0  0  0  0  0  0  0  0  0
   37.0180   29.3260   49.3260 C   0  0  0  0  0  0  0  0  0  0  0  0
   35.6670   29.0840   49.3780 C   0  0  0  0  0  0  0  0  0  0  0  0
   35.0680   29.1640   50.6120 N   0  0  0  0  0  0  0  0  0  0  0  0
   35.7710   29.4660   51.7250 C   0  0  0  0  0  0  0  0  0  0  0  0
   37.0900   29.7030   51.6710 N   0  0  0  0  0  0  0  0  0  0  0  0
   33.6480   27.1898   49.0252 H   0  0  0  0  0  0  0  0  0  0  0  0
   32.4327   26.7881   46.9211 H   0  0  0  0  0  0  0  0  0  0  0  0
   32.9329   28.0827   44.8590 H   0  0  0  0  0  0  0  0  0  0  0  0
   32.8981   30.9823   44.1856 H   0  0  0  0  0  0  0  0  0  0  0  0
   34.1964   32.0183   42.2193 H   0  0  0  0  0  0  0  0  0  0  0  0
   36.1274   32.9399   41.2302 H   0  0  0  0  0  0  0  0  0  0  0  0
   37.0693   31.8933   40.1202 H   0  0  0  0  0  0  0  0  0  0  0  0
   38.2796   34.0289   40.7580 H   0  0  0  0  0  0  0  0  0  0  0  0
   38.2880   33.4960   42.4516 H   0  0  0  0  0  0  0  0  0  0  0  0
   40.2727   30.6694   41.8374 H   0  0  0  0  0  0  0  0  0  0  0  0
   39.4979   31.7865   43.0571 H   0  0  0  0  0  0  0  0  0  0  0  0
   38.1644   29.8130   41.1995 H   0  0  0  0  0  0  0  0  0  0  0  0
   38.1877   29.8652   43.0196 H   0  0  0  0  0  0  0  0  0  0  0  0
   38.8247   29.8323   50.4307 H   0  0  0  0  0  0  0  0  0  0  0  0
   37.5400   29.2725   48.3592 H   0  0  0  0  0  0  0  0  0  0  0  0
   35.2522   29.5186   52.6936 H   0  0  0  0  0  0  0  0  0  0  0  0
  2  1  1  0
  2  3  2  0
  3 21  1  0
  4  3  1  0
  5  4  2  0
  6  7  2  0
  6  5  1  0
  7  2  1  0
  8  7  1  0
  9  8  2  0
 10 11  1  0
 10  9  1  0
 11 12  2  0
 12  8  1  0
 13 11  1  0
 14 15  1  0
 14 13  1  0
 16 15  1  0
 16 17  1  0
 17 18  1  0
 18 13  1  0
 19 24  2  0
 20 21  2  0
 20 19  1  0
 21 22  1  0
 22 23  2  0
 24 23  1  0
  4 25  1  0
  5 26  1  0
  6 27  1  0
  9 28  1  0
 10 29  1  0
 14 30  1  0
 14 31  1  0
 15 32  1  0
 15 33  1  0
 17 34  1  0
 17 35  1  0
 18 36  1  0
 18 37  1  0
 19 38  1  0
 20 39  1  0
 23 40  1  0
M  ISO  8  25  14  26  14  27  14  28  14  29   9  30  13  31  13  32  13
M  ISO  8  33  13  34  13  35  13  36  13  37  13  38  14  39  14  40  14
M  END
>  <minimizedAffinity>  (1) 
-4.64303589

>  <minimizedRMSD>  (1) 
4.65532398

$$$$
