
     RDKit          3D

 27 29  0  0  0  0  0  0  0  0999 V2000
   37.4440   29.6880   51.0220 C   0  0  0  0  0  0  0  0  0  0  0  0
   37.8070   30.1290   49.7290 C   0  0  0  0  0  0  0  0  0  0  0  0
   36.8260   30.3240   48.7800 C   0  0  0  0  0  0  0  0  0  0  0  0
   35.5210   30.0830   49.1160 N   0  0  0  0  0  0  0  0  0  0  0  0
   35.1830   29.6560   50.3660 C   0  0  0  0  0  0  0  0  0  0  0  0
   36.1400   29.4610   51.3090 N   0  0  0  0  0  0  0  0  0  0  0  0
   37.1250   30.7780   47.4760 N   0  0  0  0  0  0  0  0  0  0  0  0
   36.4110   30.4200   46.3980 C   0  0  0  0  0  0  0  0  0  0  0  0
   36.7110   30.8950   45.1220 C   0  0  0  0  0  0  0  0  0  0  0  0
   37.7800   31.7590   44.9790 C   0  0  0  0  0  0  0  0  0  0  0  0
   38.1090   32.2240   43.8730 O   0  0  0  0  0  0  0  0  0  0  0  0
   38.4800   32.1020   46.0640 N   0  0  0  0  0  0  0  0  0  0  0  0
   38.1370   31.6070   47.2670 C   0  0  0  0  0  0  0  0  0  0  0  0
   38.8360   31.9670   48.2480 O   0  0  0  0  0  0  0  0  0  0  0  0
   39.5840   32.9910   45.9280 C   0  0  0  0  0  0  0  0  0  0  0  0
   40.8590   32.2860   45.4750 C   0  0  0  0  0  0  0  0  0  0  0  0
   40.1790   33.4330   44.6840 C   0  0  0  0  0  0  0  0  0  0  0  0
   38.2155   29.5302   51.7900 H   0  0  0  0  0  0  0  0  0  0  0  0
   38.8627   30.3149   49.4821 H   0  0  0  0  0  0  0  0  0  0  0  0
   34.1275   29.4682   50.6121 H   0  0  0  0  0  0  0  0  0  0  0  0
   35.5631   29.7308   46.5248 H   0  0  0  0  0  0  0  0  0  0  0  0
   36.1121   30.5898   44.2513 H   0  0  0  0  0  0  0  0  0  0  0  0
   39.2134   33.6053   46.7619 H   0  0  0  0  0  0  0  0  0  0  0  0
   41.8101   32.4553   46.0011 H   0  0  0  0  0  0  0  0  0  0  0  0
   41.1717   31.2510   45.2727 H   0  0  0  0  0  0  0  0  0  0  0  0
   40.6612   34.4201   44.6286 H   0  0  0  0  0  0  0  0  0  0  0  0
   39.8145   33.5485   43.6526 H   0  0  0  0  0  0  0  0  0  0  0  0
  1  6  2  0
  2  1  1  0
  3  4  1  0
  3  2  2  0
  4  5  2  0
  5  6  1  0
  7  3  1  0
  8  7  1  0
  9  8  2  0
 10  9  1  0
 10 12  1  0
 11 10  2  0
 12 13  1  0
 13  7  1  0
 13 14  2  0
 15 12  1  0
 16 15  1  0
 17 16  1  0
 17 15  1  0
  1 18  1  0
  2 19  1  0
  5 20  1  0
  8 21  1  0
  9 22  1  0
 15 23  1  0
 16 24  1  0
 16 25  1  0
 17 26  1  0
 17 27  1  0
M  ISO  8  18  14  19  14  20  14  21  14  22  14  23  13  24  13  25  13
M  ISO  2  26  13  27  13
M  END
>  <minimizedAffinity>  (1) 
-5.66793156

>  <minimizedRMSD>  (1) 
1.98178518

$$$$
