
     RDKit          3D

 39 42  0  0  0  0  0  0  0  0999 V2000
   37.4910   31.0350   46.9460 N   0  0  0  0  0  0  0  0  0  0  0  0
   37.0210   30.5760   45.7540 C   0  0  0  0  0  0  0  0  0  0  0  0
   37.5600   30.9850   44.5400 C   0  0  0  0  0  0  0  0  0  0  0  0
   38.6260   31.9030   44.5930 C   0  0  0  0  0  0  0  0  0  0  0  0
   39.1410   32.2980   43.5210 O   0  0  0  0  0  0  0  0  0  0  0  0
   39.0920   32.3590   45.7880 N   0  0  0  0  0  0  0  0  0  0  0  0
   38.4920   31.8930   46.8890 C   0  0  0  0  0  0  0  0  0  0  0  0
   38.9460   32.3340   47.9640 O   0  0  0  0  0  0  0  0  0  0  0  0
   37.0570   30.4960   43.2590 C   0  0  0  0  0  0  0  0  0  0  0  0
   36.0170   31.0850   42.5430 C   0  0  0  0  0  0  0  0  0  0  0  0
   35.6350   30.5150   41.3310 C   0  0  0  0  0  0  0  0  0  0  0  0
   36.2510   29.3990   40.8260 C   0  0  0  0  0  0  0  0  0  0  0  0
   37.2780   28.8390   41.5620 C   0  0  0  0  0  0  0  0  0  0  0  0
   37.9270   27.7070   41.0860 C   0  0  0  0  0  0  0  0  0  0  0  0
   38.9600   27.1100   41.7800 C   0  0  0  0  0  0  0  0  0  0  0  0
   39.3880   27.6250   42.9890 C   0  0  0  0  0  0  0  0  0  0  0  0
   38.7370   28.7480   43.4560 C   0  0  0  0  0  0  0  0  0  0  0  0
   37.7040   29.3560   42.7700 C   0  0  0  0  0  0  0  0  0  0  0  0
   37.1230   29.6440   50.3690 C   0  0  0  0  0  0  0  0  0  0  0  0
   37.6910   30.0530   49.1530 C   0  0  0  0  0  0  0  0  0  0  0  0
   36.9360   30.6170   48.1600 C   0  0  0  0  0  0  0  0  0  0  0  0
   35.5940   30.7750   48.3830 N   0  0  0  0  0  0  0  0  0  0  0  0
   35.0230   30.3830   49.5600 C   0  0  0  0  0  0  0  0  0  0  0  0
   35.7790   29.8210   50.5500 N   0  0  0  0  0  0  0  0  0  0  0  0
   40.1950   33.3020   45.8390 C   0  0  0  0  0  0  0  0  0  0  0  0
   40.0210   34.2670   44.9020 F   0  0  0  0  0  0  0  0  0  0  0  0
   41.4180   32.7060   45.5700 F   0  0  0  0  0  0  0  0  0  0  0  0
   40.2170   33.9030   47.0910 F   0  0  0  0  0  0  0  0  0  0  0  0
   36.1876   29.8581   45.7514 H   0  0  0  0  0  0  0  0  0  0  0  0
   35.5082   31.9815   42.9269 H   0  0  0  0  0  0  0  0  0  0  0  0
   34.8137   30.9743   40.7613 H   0  0  0  0  0  0  0  0  0  0  0  0
   35.9378   28.9633   39.8658 H   0  0  0  0  0  0  0  0  0  0  0  0
   37.6081   27.2731   40.1268 H   0  0  0  0  0  0  0  0  0  0  0  0
   39.4477   26.2149   41.3665 H   0  0  0  0  0  0  0  0  0  0  0  0
   40.2102   27.1606   43.5531 H   0  0  0  0  0  0  0  0  0  0  0  0
   39.0547   29.1782   44.4172 H   0  0  0  0  0  0  0  0  0  0  0  0
   37.7432   29.1922   51.1572 H   0  0  0  0  0  0  0  0  0  0  0  0
   38.7708   29.9170   48.9934 H   0  0  0  0  0  0  0  0  0  0  0  0
   33.9425   30.5212   49.7129 H   0  0  0  0  0  0  0  0  0  0  0  0
  1 21  1  0
  2  1  1  0
  3  4  1  0
  3  2  2  0
  4  6  1  0
  5  4  2  0
  6 25  1  0
  6  7  1  0
  7  1  1  0
  7  8  2  0
  9  3  1  0
 10  9  2  0
 11 10  1  0
 12 11  2  0
 12 13  1  0
 13 18  2  0
 14 13  1  0
 14 15  2  0
 15 16  1  0
 16 17  2  0
 18  9  1  0
 18 17  1  0
 19 24  2  0
 20 19  1  0
 21 22  1  0
 21 20  2  0
 22 23  2  0
 23 24  1  0
 25 28  1  0
 26 25  1  0
 27 25  1  0
  2 29  1  0
 10 30  1  0
 11 31  1  0
 12 32  1  0
 14 33  1  0
 15 34  1  0
 16 35  1  0
 17 36  1  0
 19 37  1  0
 20 38  1  0
 23 39  1  0
M  ISO  8  29  14  30  14  31  14  32  14  33  14  34  14  35  14  36  14
M  ISO  3  37  14  38  14  39  14
M  END
>  <minimizedAffinity>  (1) 
-6.72890854

>  <minimizedRMSD>  (1) 
1.91499901

$$$$
