
     RDKit          3D

 36 38  0  0  0  0  0  0  0  0999 V2000
   37.5170   31.2040   46.9300 N   0  0  0  0  0  0  0  0  0  0  0  0
   36.9870   30.8700   45.7220 C   0  0  0  0  0  0  0  0  0  0  0  0
   37.4970   31.3740   44.5340 C   0  0  0  0  0  0  0  0  0  0  0  0
   38.5940   32.2520   44.6220 C   0  0  0  0  0  0  0  0  0  0  0  0
   39.0820   32.7280   43.5730 O   0  0  0  0  0  0  0  0  0  0  0  0
   39.1180   32.5800   45.8360 N   0  0  0  0  0  0  0  0  0  0  0  0
   38.5420   32.0320   46.9120 C   0  0  0  0  0  0  0  0  0  0  0  0
   39.0490   32.3590   48.0050 O   0  0  0  0  0  0  0  0  0  0  0  0
   37.2380   29.5870   50.2630 C   0  0  0  0  0  0  0  0  0  0  0  0
   37.7800   30.0890   49.0690 C   0  0  0  0  0  0  0  0  0  0  0  0
   36.9920   30.6920   48.1210 C   0  0  0  0  0  0  0  0  0  0  0  0
   35.6540   30.7860   48.3810 N   0  0  0  0  0  0  0  0  0  0  0  0
   35.1040   30.3050   49.5340 C   0  0  0  0  0  0  0  0  0  0  0  0
   35.9080   29.7090   50.4650 N   0  0  0  0  0  0  0  0  0  0  0  0
   37.4110   30.0650   42.3630 C   0  0  0  0  0  0  0  0  0  0  0  0
   36.9250   31.0140   43.2400 C   0  0  0  0  0  0  0  0  0  0  0  0
   35.7740   31.7270   42.8990 C   0  0  0  0  0  0  0  0  0  0  0  0
   35.1270   31.4930   41.7100 C   0  0  0  0  0  0  0  0  0  0  0  0
   35.6090   30.5450   40.8280 C   0  0  0  0  0  0  0  0  0  0  0  0
   36.7510   29.8360   41.1620 C   0  0  0  0  0  0  0  0  0  0  0  0
   38.8490   29.2170   42.8550 S   0  0  0  0  0  0  0  0  0  0  0  0
   40.0490   30.0180   42.4740 O   0  0  0  0  0  0  0  0  0  0  0  0
   38.8480   28.8810   44.3150 O   0  0  0  0  0  0  0  0  0  0  0  0
   40.2500   33.4820   45.9290 C   0  0  0  0  0  0  0  0  0  0  0  0
   40.1260   34.4780   45.0160 F   0  0  0  0  0  0  0  0  0  0  0  0
   41.4590   32.8580   45.6590 F   0  0  0  0  0  0  0  0  0  0  0  0
   40.2750   34.0480   47.1980 F   0  0  0  0  0  0  0  0  0  0  0  0
   36.1302   30.1811   45.6863 H   0  0  0  0  0  0  0  0  0  0  0  0
   37.8806   29.1063   51.0153 H   0  0  0  0  0  0  0  0  0  0  0  0
   38.8613   29.9968   48.8893 H   0  0  0  0  0  0  0  0  0  0  0  0
   34.0224   30.3963   49.7125 H   0  0  0  0  0  0  0  0  0  0  0  0
   35.3803   32.4858   43.5913 H   0  0  0  0  0  0  0  0  0  0  0  0
   34.2205   32.0633   41.4588 H   0  0  0  0  0  0  0  0  0  0  0  0
   35.0935   30.3562   39.8748 H   0  0  0  0  0  0  0  0  0  0  0  0
   37.1416   29.0796   40.4654 H   0  0  0  0  0  0  0  0  0  0  0  0
   38.8832   28.0148   42.1988 H   0  0  0  0  0  0  0  0  0  0  0  0
  1 11  1  0
  2  1  1  0
  3  4  1  0
  3  2  2  0
  4  6  1  0
  5  4  2  0
  6 24  1  0
  6  7  1  0
  7  1  1  0
  7  8  2  0
  9 14  2  0
 10  9  1  0
 11 12  1  0
 11 10  2  0
 12 13  2  0
 13 14  1  0
 15 21  1  0
 15 16  2  0
 16  3  1  0
 17 16  1  0
 18 17  2  0
 19 20  2  0
 19 18  1  0
 20 15  1  0
 21 23  2  0
 22 21  2  0
 24 27  1  0
 25 24  1  0
 26 24  1  0
  2 28  1  0
  9 29  1  0
 10 30  1  0
 13 31  1  0
 17 32  1  0
 18 33  1  0
 19 34  1  0
 20 35  1  0
 21 36  1  0
M  ISO  8  28  14  29  14  30  14  31  14  32  14  33  14  34  14  35  14
M  ISO  1  36  11
M  END
>  <minimizedAffinity>  (1) 
-6.10412073

>  <minimizedRMSD>  (1) 
0.494599491

$$$$
