
     RDKit          3D

 26 27  0  0  0  0  0  0  0  0999 V2000
   37.4110   31.0830   47.0960 N   0  0  0  0  0  0  0  0  0  0  0  0
   36.7940   30.7420   45.9310 C   0  0  0  0  0  0  0  0  0  0  0  0
   37.2390   31.2160   44.7050 C   0  0  0  0  0  0  0  0  0  0  0  0
   38.3560   32.0680   44.7030 C   0  0  0  0  0  0  0  0  0  0  0  0
   38.7960   32.5230   43.6170 O   0  0  0  0  0  0  0  0  0  0  0  0
   38.9710   32.4060   45.8820 N   0  0  0  0  0  0  0  0  0  0  0  0
   38.4510   31.8870   46.9960 C   0  0  0  0  0  0  0  0  0  0  0  0
   39.0370   32.2210   48.0450 O   0  0  0  0  0  0  0  0  0  0  0  0
   37.3200   29.5820   50.4920 C   0  0  0  0  0  0  0  0  0  0  0  0
   37.7980   30.0450   49.2580 C   0  0  0  0  0  0  0  0  0  0  0  0
   36.9570   30.6050   48.3300 C   0  0  0  0  0  0  0  0  0  0  0  0
   35.6310   30.6950   48.6500 N   0  0  0  0  0  0  0  0  0  0  0  0
   35.1460   30.2500   49.8450 C   0  0  0  0  0  0  0  0  0  0  0  0
   36.0040   29.6960   50.7560 N   0  0  0  0  0  0  0  0  0  0  0  0
   40.1270   33.2850   45.8840 C   0  0  0  0  0  0  0  0  0  0  0  0
   39.9890   34.2340   44.9270 F   0  0  0  0  0  0  0  0  0  0  0  0
   41.3070   32.6120   45.6010 F   0  0  0  0  0  0  0  0  0  0  0  0
   40.2120   33.9090   47.1210 F   0  0  0  0  0  0  0  0  0  0  0  0
   36.6130   30.8820   43.4240 C   0  0  0  0  0  0  0  0  0  0  0  0
   35.5310   30.0380   43.5890 F   0  0  0  0  0  0  0  0  0  0  0  0
   36.1480   32.0310   42.8130 F   0  0  0  0  0  0  0  0  0  0  0  0
   37.5210   30.2230   42.6200 F   0  0  0  0  0  0  0  0  0  0  0  0
   35.9207   30.0739   45.9625 H   0  0  0  0  0  0  0  0  0  0  0  0
   38.0045   29.1355   51.2283 H   0  0  0  0  0  0  0  0  0  0  0  0
   38.8703   29.9574   49.0290 H   0  0  0  0  0  0  0  0  0  0  0  0
   34.0736   30.3358   50.0745 H   0  0  0  0  0  0  0  0  0  0  0  0
  1 11  1  0
  2  1  1  0
  3  2  2  0
  4  3  1  0
  4  6  1  0
  5  4  2  0
  6 15  1  0
  6  7  1  0
  7  1  1  0
  7  8  2  0
  9 14  2  0
 10  9  1  0
 11 12  1  0
 11 10  2  0
 12 13  2  0
 13 14  1  0
 15 18  1  0
 16 15  1  0
 17 15  1  0
 19 20  1  0
 19  3  1  0
 21 19  1  0
 22 19  1  0
  2 23  1  0
  9 24  1  0
 10 25  1  0
 13 26  1  0
M  ISO  4  23  14  24  14  25  14  26  14
M  END
>  <minimizedAffinity>  (1) 
-5.98834658

>  <minimizedRMSD>  (1) 
0.202612057

$$$$
