
     RDKit          3D

 25 26  0  0  0  0  0  0  0  0999 V2000
   37.4090   31.0850   47.0920 N   0  0  0  0  0  0  0  0  0  0  0  0
   36.8050   30.7420   45.9210 C   0  0  0  0  0  0  0  0  0  0  0  0
   37.2550   31.2140   44.6970 C   0  0  0  0  0  0  0  0  0  0  0  0
   38.3740   32.0710   44.7040 C   0  0  0  0  0  0  0  0  0  0  0  0
   38.8090   32.5170   43.6210 O   0  0  0  0  0  0  0  0  0  0  0  0
   38.9730   32.4080   45.8900 N   0  0  0  0  0  0  0  0  0  0  0  0
   38.4450   31.8900   46.9910 C   0  0  0  0  0  0  0  0  0  0  0  0
   39.0240   32.2270   48.0520 O   0  0  0  0  0  0  0  0  0  0  0  0
   37.3140   29.5740   50.4840 C   0  0  0  0  0  0  0  0  0  0  0  0
   37.7910   30.0440   49.2500 C   0  0  0  0  0  0  0  0  0  0  0  0
   36.9470   30.6030   48.3290 C   0  0  0  0  0  0  0  0  0  0  0  0
   35.6150   30.6950   48.6360 N   0  0  0  0  0  0  0  0  0  0  0  0
   35.1370   30.2410   49.8330 C   0  0  0  0  0  0  0  0  0  0  0  0
   35.9790   29.6830   50.7530 N   0  0  0  0  0  0  0  0  0  0  0  0
   40.1270   33.2860   45.8910 C   0  0  0  0  0  0  0  0  0  0  0  0
   39.9930   34.2400   44.9360 F   0  0  0  0  0  0  0  0  0  0  0  0
   41.3080   32.6190   45.6030 F   0  0  0  0  0  0  0  0  0  0  0  0
   40.2120   33.9080   47.1280 F   0  0  0  0  0  0  0  0  0  0  0  0
   36.6150   30.8490   43.4880 N   0  0  0  0  0  0  0  0  0  0  0  0
   35.9341   30.0705   45.9465 H   0  0  0  0  0  0  0  0  0  0  0  0
   38.0005   29.1276   51.2185 H   0  0  0  0  0  0  0  0  0  0  0  0
   38.8633   29.9614   49.0191 H   0  0  0  0  0  0  0  0  0  0  0  0
   34.0636   30.3256   50.0581 H   0  0  0  0  0  0  0  0  0  0  0  0
   35.7986   30.2213   43.5066 H   0  0  0  0  0  0  0  0  0  0  0  0
   36.9658   31.2112   42.5899 H   0  0  0  0  0  0  0  0  0  0  0  0
  1 11  1  0
  2  1  1  0
  3  4  1  0
  3  2  2  0
  4  6  1  0
  5  4  2  0
  6 15  1  0
  6  7  1  0
  7  1  1  0
  7  8  2  0
  9 14  2  0
 10  9  1  0
 11 12  1  0
 11 10  2  0
 12 13  2  0
 13 14  1  0
 15 18  1  0
 16 15  1  0
 17 15  1  0
 19  3  1  0
  2 20  1  0
  9 21  1  0
 10 22  1  0
 13 23  1  0
 19 24  1  0
 19 25  1  0
M  ISO  4  20  14  21  14  22  14  23  14
M  END
>  <minimizedAffinity>  (1) 
-5.94825697

>  <minimizedRMSD>  (1) 
0.172431439

$$$$
