
     RDKit          3D

 32 34  0  0  0  0  0  0  0  0999 V2000
   37.3720   31.0610   47.1440 N   0  0  0  0  0  0  0  0  0  0  0  0
   36.7770   30.7220   45.9680 C   0  0  0  0  0  0  0  0  0  0  0  0
   37.2420   31.1970   44.7510 C   0  0  0  0  0  0  0  0  0  0  0  0
   38.3550   32.0460   44.7680 C   0  0  0  0  0  0  0  0  0  0  0  0
   38.8100   32.5000   43.6910 O   0  0  0  0  0  0  0  0  0  0  0  0
   38.9500   32.3850   45.9600 N   0  0  0  0  0  0  0  0  0  0  0  0
   38.4120   31.8660   47.0570 C   0  0  0  0  0  0  0  0  0  0  0  0
   38.9820   32.2000   48.1210 O   0  0  0  0  0  0  0  0  0  0  0  0
   37.2490   29.4790   50.5050 C   0  0  0  0  0  0  0  0  0  0  0  0
   37.7370   29.9580   49.2770 C   0  0  0  0  0  0  0  0  0  0  0  0
   36.8930   30.5720   48.3630 C   0  0  0  0  0  0  0  0  0  0  0  0
   35.5930   30.6870   48.7020 N   0  0  0  0  0  0  0  0  0  0  0  0
   35.0930   30.2310   49.8830 C   0  0  0  0  0  0  0  0  0  0  0  0
   35.9410   29.6290   50.7740 N   0  0  0  0  0  0  0  0  0  0  0  0
   36.6480   30.8700   43.4720 C   0  0  0  0  0  0  0  0  0  0  0  0
   37.0040   29.7650   42.7330 C   0  0  0  0  0  0  0  0  0  0  0  0
   36.4660   29.4160   41.5120 C   0  0  0  0  0  0  0  0  0  0  0  0
   35.4760   30.2430   40.9720 C   0  0  0  0  0  0  0  0  0  0  0  0
   35.1410   31.3500   41.7470 C   0  0  0  0  0  0  0  0  0  0  0  0
   35.7020   31.6340   42.9240 N   0  0  0  0  0  0  0  0  0  0  0  0
   40.0940   33.2590   45.9660 C   0  0  0  0  0  0  0  0  0  0  0  0
   39.9630   34.2330   45.0310 F   0  0  0  0  0  0  0  0  0  0  0  0
   41.2870   32.6100   45.6880 F   0  0  0  0  0  0  0  0  0  0  0  0
   40.1740   33.8780   47.2180 F   0  0  0  0  0  0  0  0  0  0  0  0
   35.9038   30.0532   45.9832 H   0  0  0  0  0  0  0  0  0  0  0  0
   37.9211   28.9934   51.2279 H   0  0  0  0  0  0  0  0  0  0  0  0
   38.8045   29.8443   49.0370 H   0  0  0  0  0  0  0  0  0  0  0  0
   34.0244   30.3443   50.1181 H   0  0  0  0  0  0  0  0  0  0  0  0
   37.7805   29.1068   43.1499 H   0  0  0  0  0  0  0  0  0  0  0  0
   36.8051   28.5152   40.9795 H   0  0  0  0  0  0  0  0  0  0  0  0
   34.9964   30.0339   40.0044 H   0  0  0  0  0  0  0  0  0  0  0  0
   34.3667   32.0321   41.3659 H   0  0  0  0  0  0  0  0  0  0  0  0
  1 11  1  0
  2  1  1  0
  3  4  1  0
  3  2  2  0
  4  6  1  0
  5  4  2  0
  6 21  1  0
  6  7  1  0
  7  1  1  0
  7  8  2  0
  9 14  2  0
 10  9  1  0
 11 12  1  0
 11 10  2  0
 12 13  2  0
 13 14  1  0
 15  3  1  0
 16 15  2  0
 17 16  1  0
 18 17  2  0
 18 19  1  0
 19 20  2  0
 20 15  1  0
 21 24  1  0
 22 21  1  0
 23 21  1  0
  2 25  1  0
  9 26  1  0
 10 27  1  0
 13 28  1  0
 16 29  1  0
 17 30  1  0
 18 31  1  0
 19 32  1  0
M  ISO  8  25  14  26  14  27  14  28  14  29  14  30  14  31  14  32  14
M  END
>  <minimizedAffinity>  (1) 
-6.05976057

>  <minimizedRMSD>  (1) 
0.223483577

$$$$
