
     RDKit          3D

 42 45  0  0  0  0  0  0  0  0999 V2000
   37.3800   31.2000   47.0650 N   0  0  0  0  0  0  0  0  0  0  0  0
   36.7170   30.9610   45.8970 C   0  0  0  0  0  0  0  0  0  0  0  0
   37.1680   31.4920   44.6930 C   0  0  0  0  0  0  0  0  0  0  0  0
   38.3240   32.2790   44.7270 C   0  0  0  0  0  0  0  0  0  0  0  0
   38.7710   32.7820   43.6620 O   0  0  0  0  0  0  0  0  0  0  0  0
   38.9800   32.5110   45.9110 N   0  0  0  0  0  0  0  0  0  0  0  0
   38.4520   31.9490   46.9890 C   0  0  0  0  0  0  0  0  0  0  0  0
   39.0780   32.1830   48.0520 O   0  0  0  0  0  0  0  0  0  0  0  0
   37.3290   29.4940   50.3720 C   0  0  0  0  0  0  0  0  0  0  0  0
   37.7830   30.0390   49.1650 C   0  0  0  0  0  0  0  0  0  0  0  0
   36.9140   30.6570   48.2710 C   0  0  0  0  0  0  0  0  0  0  0  0
   35.6210   30.7110   48.6120 N   0  0  0  0  0  0  0  0  0  0  0  0
   35.1400   30.1920   49.7770 C   0  0  0  0  0  0  0  0  0  0  0  0
   36.0070   29.5880   50.6450 N   0  0  0  0  0  0  0  0  0  0  0  0
   36.5140   31.2800   43.4100 C   0  0  0  0  0  0  0  0  0  0  0  0
   36.6560   30.1420   42.6690 C   0  0  0  0  0  0  0  0  0  0  0  0
   36.0470   29.9240   41.4520 C   0  0  0  0  0  0  0  0  0  0  0  0
   35.2290   30.9260   40.9380 C   0  0  0  0  0  0  0  0  0  0  0  0
   35.1080   32.0620   41.7140 C   0  0  0  0  0  0  0  0  0  0  0  0
   35.7300   32.2050   42.8860 N   0  0  0  0  0  0  0  0  0  0  0  0
   36.5530   34.1720   40.2210 Cl  0  0  0  0  0  0  0  0  0  0  0  0
   34.8100   34.2170   40.5250 C   0  0  0  0  0  0  0  0  0  0  0  0
   34.2670   33.1570   41.2410 C   0  0  0  0  0  0  0  0  0  0  0  0
   32.9090   33.2660   41.4370 C   0  0  0  0  0  0  0  0  0  0  0  0
   32.1700   34.3280   40.9630 C   0  0  0  0  0  0  0  0  0  0  0  0
   32.7740   35.3480   40.2590 C   0  0  0  0  0  0  0  0  0  0  0  0
   34.1200   35.3040   40.0290 C   0  0  0  0  0  0  0  0  0  0  0  0
   40.1700   33.3210   45.9340 C   0  0  0  0  0  0  0  0  0  0  0  0
   40.1230   34.2810   44.9900 F   0  0  0  0  0  0  0  0  0  0  0  0
   41.3330   32.5950   45.6730 F   0  0  0  0  0  0  0  0  0  0  0  0
   40.2770   33.9250   47.1810 F   0  0  0  0  0  0  0  0  0  0  0  0
   35.8105   30.3379   45.9074 H   0  0  0  0  0  0  0  0  0  0  0  0
   38.0222   29.0067   51.0734 H   0  0  0  0  0  0  0  0  0  0  0  0
   38.8530   29.9772   48.9173 H   0  0  0  0  0  0  0  0  0  0  0  0
   34.0683   30.2582   50.0158 H   0  0  0  0  0  0  0  0  0  0  0  0
   37.2998   29.3455   43.0704 H   0  0  0  0  0  0  0  0  0  0  0  0
   36.2031   28.9842   40.9021 H   0  0  0  0  0  0  0  0  0  0  0  0
   34.7110   30.8197   39.9734 H   0  0  0  0  0  0  0  0  0  0  0  0
   32.3919   32.4719   41.9955 H   0  0  0  0  0  0  0  0  0  0  0  0
   31.0863   34.3624   41.1483 H   0  0  0  0  0  0  0  0  0  0  0  0
   32.1759   36.1920   39.8848 H   0  0  0  0  0  0  0  0  0  0  0  0
   34.6323   36.1020   39.4716 H   0  0  0  0  0  0  0  0  0  0  0  0
  1 11  1  0
  2  1  1  0
  3  4  1  0
  3  2  2  0
  4  6  1  0
  5  4  2  0
  6 28  1  0
  6  7  1  0
  7  1  1  0
  7  8  2  0
  9 14  2  0
 10  9  1  0
 11 12  1  0
 11 10  2  0
 12 13  2  0
 13 14  1  0
 15  3  1  0
 16 15  2  0
 17 16  1  0
 18 17  2  0
 18 19  1  0
 19 20  2  0
 20 15  1  0
 21 22  1  0
 22 23  2  0
 23 24  1  0
 23 19  1  0
 25 24  2  0
 26 25  1  0
 27 26  2  0
 27 22  1  0
 28 31  1  0
 29 28  1  0
 30 28  1  0
  2 32  1  0
  9 33  1  0
 10 34  1  0
 13 35  1  0
 16 36  1  0
 17 37  1  0
 18 38  1  0
 24 39  1  0
 25 40  1  0
 26 41  1  0
 27 42  1  0
M  ISO  8  32  14  33  14  34  14  35  14  36  14  37  14  38  14  39  14
M  ISO  3  40  14  41  14  42  14
M  END
>  <minimizedAffinity>  (1) 
-6.60614777

>  <minimizedRMSD>  (1) 
0.955329895

$$$$
