
     RDKit          3D

 39 42  0  0  0  0  0  0  0  0999 V2000
   37.3780   31.1690   47.0940 N   0  0  0  0  0  0  0  0  0  0  0  0
   36.7220   30.9380   45.9290 C   0  0  0  0  0  0  0  0  0  0  0  0
   37.1470   31.4560   44.7210 C   0  0  0  0  0  0  0  0  0  0  0  0
   38.3020   32.2460   44.7330 C   0  0  0  0  0  0  0  0  0  0  0  0
   38.7290   32.7410   43.6600 O   0  0  0  0  0  0  0  0  0  0  0  0
   38.9730   32.4870   45.9060 N   0  0  0  0  0  0  0  0  0  0  0  0
   38.4610   31.9300   46.9980 C   0  0  0  0  0  0  0  0  0  0  0  0
   39.0950   32.1680   48.0500 O   0  0  0  0  0  0  0  0  0  0  0  0
   37.3590   29.5250   50.4210 C   0  0  0  0  0  0  0  0  0  0  0  0
   37.8170   30.0520   49.2010 C   0  0  0  0  0  0  0  0  0  0  0  0
   36.9420   30.6430   48.3040 C   0  0  0  0  0  0  0  0  0  0  0  0
   35.6350   30.6920   48.6490 N   0  0  0  0  0  0  0  0  0  0  0  0
   35.1640   30.1870   49.8280 C   0  0  0  0  0  0  0  0  0  0  0  0
   36.0470   29.6070   50.7000 N   0  0  0  0  0  0  0  0  0  0  0  0
   36.4750   31.2350   43.4500 C   0  0  0  0  0  0  0  0  0  0  0  0
   36.7150   30.1650   42.6370 C   0  0  0  0  0  0  0  0  0  0  0  0
   36.1110   29.9120   41.4340 C   0  0  0  0  0  0  0  0  0  0  0  0
   35.1630   30.8270   40.9950 C   0  0  0  0  0  0  0  0  0  0  0  0
   34.9210   31.9190   41.8340 C   0  0  0  0  0  0  0  0  0  0  0  0
   35.5610   32.0730   42.9830 N   0  0  0  0  0  0  0  0  0  0  0  0
   33.9310   32.9320   41.4420 C   0  0  0  0  0  0  0  0  0  0  0  0
   33.2030   32.9870   40.3350 C   0  0  0  0  0  0  0  0  0  0  0  0
   32.3250   33.9810   40.1000 C   0  0  0  0  0  0  0  0  0  0  0  0
   32.2560   34.9640   41.1560 C   0  0  0  0  0  0  0  0  0  0  0  0
   33.5040   34.3580   42.4460 S   0  0  0  0  0  0  0  0  0  0  0  0
   40.1580   33.2990   45.9060 C   0  0  0  0  0  0  0  0  0  0  0  0
   40.0760   34.2700   44.9600 F   0  0  0  0  0  0  0  0  0  0  0  0
   41.3180   32.5820   45.6330 F   0  0  0  0  0  0  0  0  0  0  0  0
   40.2680   33.9310   47.1500 F   0  0  0  0  0  0  0  0  0  0  0  0
   35.8164   30.3139   45.9471 H   0  0  0  0  0  0  0  0  0  0  0  0
   38.0576   29.0568   51.1301 H   0  0  0  0  0  0  0  0  0  0  0  0
   38.8875   29.9942   48.9545 H   0  0  0  0  0  0  0  0  0  0  0  0
   34.0932   30.2452   50.0730 H   0  0  0  0  0  0  0  0  0  0  0  0
   37.4646   29.4369   42.9806 H   0  0  0  0  0  0  0  0  0  0  0  0
   36.3661   29.0216   40.8406 H   0  0  0  0  0  0  0  0  0  0  0  0
   34.6319   30.6997   40.0401 H   0  0  0  0  0  0  0  0  0  0  0  0
   33.3202   32.1933   39.5825 H   0  0  0  0  0  0  0  0  0  0  0  0
   31.7154   34.0389   39.1862 H   0  0  0  0  0  0  0  0  0  0  0  0
   31.6220   35.8618   41.2010 H   0  0  0  0  0  0  0  0  0  0  0  0
  1 11  1  0
  2  1  1  0
  3  4  1  0
  3  2  2  0
  4  6  1  0
  5  4  2  0
  6  7  1  0
  7  1  1  0
  7  8  2  0
  9 14  2  0
 10  9  1  0
 11 12  1  0
 11 10  2  0
 12 13  2  0
 13 14  1  0
 15  3  1  0
 16 15  2  0
 17 16  1  0
 18 17  2  0
 18 19  1  0
 19 20  2  0
 20 15  1  0
 21 19  1  0
 21 25  1  0
 22 21  2  0
 23 22  1  0
 23 24  2  0
 24 25  1  0
 26  6  1  0
 26 29  1  0
 27 26  1  0
 28 26  1  0
  2 30  1  0
  9 31  1  0
 10 32  1  0
 13 33  1  0
 16 34  1  0
 17 35  1  0
 18 36  1  0
 22 37  1  0
 23 38  1  0
 24 39  1  0
M  ISO  8  30  14  31  14  32  14  33  14  34  14  35  14  36  14  37  14
M  ISO  2  38  14  39  14
M  END
>  <minimizedAffinity>  (1) 
-6.42879868

>  <minimizedRMSD>  (1) 
0.47790283

$$$$
