
     RDKit          3D

 39 42  0  0  0  0  0  0  0  0999 V2000
   37.3790   31.0720   47.1710 N   0  0  0  0  0  0  0  0  0  0  0  0
   36.7580   30.7470   46.0070 C   0  0  0  0  0  0  0  0  0  0  0  0
   37.2200   31.2390   44.7840 C   0  0  0  0  0  0  0  0  0  0  0  0
   38.3340   32.0740   44.7900 C   0  0  0  0  0  0  0  0  0  0  0  0
   38.7700   32.5310   43.7060 O   0  0  0  0  0  0  0  0  0  0  0  0
   38.9540   32.3950   45.9780 N   0  0  0  0  0  0  0  0  0  0  0  0
   38.4330   31.8730   47.0770 C   0  0  0  0  0  0  0  0  0  0  0  0
   39.0220   32.1880   48.1370 O   0  0  0  0  0  0  0  0  0  0  0  0
   37.3150   29.5070   50.5490 C   0  0  0  0  0  0  0  0  0  0  0  0
   37.7770   29.9990   49.3180 C   0  0  0  0  0  0  0  0  0  0  0  0
   36.9220   30.5830   48.3930 C   0  0  0  0  0  0  0  0  0  0  0  0
   35.6200   30.6540   48.7430 N   0  0  0  0  0  0  0  0  0  0  0  0
   35.1410   30.1880   49.9260 C   0  0  0  0  0  0  0  0  0  0  0  0
   36.0120   29.6170   50.8140 N   0  0  0  0  0  0  0  0  0  0  0  0
   36.5960   30.9250   43.5140 C   0  0  0  0  0  0  0  0  0  0  0  0
   36.9440   29.8420   42.7400 C   0  0  0  0  0  0  0  0  0  0  0  0
   36.3780   29.5080   41.5290 C   0  0  0  0  0  0  0  0  0  0  0  0
   35.3650   30.3250   41.0330 C   0  0  0  0  0  0  0  0  0  0  0  0
   35.0290   31.4180   41.8400 C   0  0  0  0  0  0  0  0  0  0  0  0
   35.6260   31.6820   43.0100 N   0  0  0  0  0  0  0  0  0  0  0  0
   33.9450   32.3100   41.3280 C   0  0  0  0  0  0  0  0  0  0  0  0
   32.6480   32.4020   42.0540 C   0  0  0  0  0  0  0  0  0  0  0  0
   33.6070   33.5510   42.0800 C   0  0  0  0  0  0  0  0  0  0  0  0
   40.1030   33.2570   45.9710 C   0  0  0  0  0  0  0  0  0  0  0  0
   39.9720   34.2350   45.0280 F   0  0  0  0  0  0  0  0  0  0  0  0
   41.2890   32.6020   45.6950 F   0  0  0  0  0  0  0  0  0  0  0  0
   40.1920   33.8900   47.2190 F   0  0  0  0  0  0  0  0  0  0  0  0
   35.8785   30.0867   46.0280 H   0  0  0  0  0  0  0  0  0  0  0  0
   38.0046   29.0459   51.2714 H   0  0  0  0  0  0  0  0  0  0  0  0
   38.8478   29.9195   49.0793 H   0  0  0  0  0  0  0  0  0  0  0  0
   34.0705   30.2683   50.1662 H   0  0  0  0  0  0  0  0  0  0  0  0
   37.7419   29.1872   43.1203 H   0  0  0  0  0  0  0  0  0  0  0  0
   36.7161   28.6226   40.9707 H   0  0  0  0  0  0  0  0  0  0  0  0
   34.8641   30.1252   40.0742 H   0  0  0  0  0  0  0  0  0  0  0  0
   34.2340   32.0789   40.2921 H   0  0  0  0  0  0  0  0  0  0  0  0
   31.7066   32.4835   41.4909 H   0  0  0  0  0  0  0  0  0  0  0  0
   32.1383   31.7958   42.8174 H   0  0  0  0  0  0  0  0  0  0  0  0
   34.1461   33.7972   43.0067 H   0  0  0  0  0  0  0  0  0  0  0  0
   33.5477   34.6208   41.8311 H   0  0  0  0  0  0  0  0  0  0  0  0
  1 11  1  0
  2  1  1  0
  3  4  1  0
  3  2  2  0
  4  6  1  0
  5  4  2  0
  6  7  1  0
  7  1  1  0
  7  8  2  0
  9 14  2  0
 10  9  1  0
 11 12  1  0
 11 10  2  0
 12 13  2  0
 13 14  1  0
 15  3  1  0
 16 15  2  0
 17 16  1  0
 18 17  2  0
 18 19  1  0
 19 20  2  0
 20 15  1  0
 21 19  1  0
 21 22  1  0
 21 23  1  0
 22 23  1  0
 24  6  1  0
 24 27  1  0
 25 24  1  0
 26 24  1  0
  2 28  1  0
  9 29  1  0
 10 30  1  0
 13 31  1  0
 16 32  1  0
 17 33  1  0
 18 34  1  0
 21 35  1  0
 22 36  1  0
 22 37  1  0
 23 38  1  0
 23 39  1  0
M  ISO  8  28  14  29  14  30  14  31  14  32  14  33  14  34  14  35  13
M  ISO  4  36  13  37  13  38  13  39  13
M  END
>  <minimizedAffinity>  (1) 
-6.12787294

>  <minimizedRMSD>  (1) 
0.273455173

$$$$
