
     RDKit          3D

 41 43  0  0  1  0  0  0  0  0999 V2000
   35.6490   30.2190   47.1870 C   0  0  0  0  0  0  0  0  0  0  0  0
   35.9320   30.8210   48.4330 N   0  0  0  0  0  0  0  0  0  0  0  0
   34.8340   30.7670   49.3680 C   0  0  0  0  0  0  0  0  0  0  0  0
   34.8250   29.6200   50.2930 C   0  0  0  0  0  0  0  0  0  0  0  0
   36.1260   29.2090   50.7490 N   0  0  0  0  0  0  0  0  0  0  0  0
   37.0250   29.0900   49.5850 C   0  0  0  0  0  0  0  0  0  0  0  0
   37.1380   30.5400   49.0940 C   0  0  2  0  0  0  0  0  0  0  0  0
   37.2530   31.1890   50.4400 C   0  0  0  0  0  0  0  0  0  0  0  0
   36.5550   32.3100   50.4340 F   0  0  0  0  0  0  0  0  0  0  0  0
   38.6480   31.3310   50.5770 F   0  0  0  0  0  0  0  0  0  0  0  0
   37.0250   30.6260   51.6200 F   0  0  0  0  0  0  0  0  0  0  0  0
   36.8450   30.3750   46.2800 C   0  0  0  0  0  0  0  0  0  0  0  0
   36.3240   30.6270   44.5530 S   0  0  0  0  0  0  0  0  0  0  0  0
   38.6030   29.5930   43.2400 C   0  0  2  0  0  0  0  0  0  0  0  0
   37.6050   29.6540   42.1780 C   0  0  0  0  0  0  0  0  0  0  0  0
   37.1460   29.3730   43.5560 C   0  0  2  0  0  0  0  0  0  0  0  0
   39.6070   33.1700   43.7260 C   0  0  0  0  0  0  0  0  0  0  0  0
   40.4310   33.0290   44.8710 C   0  0  0  0  0  0  0  0  0  0  0  0
   40.6070   31.7500   45.4370 C   0  0  0  0  0  0  0  0  0  0  0  0
   39.9840   30.6810   44.8860 N   0  0  0  0  0  0  0  0  0  0  0  0
   39.2020   30.8680   43.7830 C   0  0  0  0  0  0  0  0  0  0  0  0
   38.9880   32.0790   43.1770 N   0  0  0  0  0  0  0  0  0  0  0  0
   35.4355   29.1500   47.3344 H   0  0  0  0  0  0  0  0  0  0  0  0
   34.7729   30.7040   46.7317 H   0  0  0  0  0  0  0  0  0  0  0  0
   34.8619   31.6857   49.9723 H   0  0  0  0  0  0  0  0  0  0  0  0
   33.9282   30.6576   48.7535 H   0  0  0  0  0  0  0  0  0  0  0  0
   34.2235   29.8931   51.1725 H   0  0  0  0  0  0  0  0  0  0  0  0
   34.4080   28.7703   49.7325 H   0  0  0  0  0  0  0  0  0  0  0  0
   36.5000   29.9100   51.4045 H   0  0  0  0  0  0  0  0  0  0  0  0
   38.0075   28.6943   49.8818 H   0  0  0  0  0  0  0  0  0  0  0  0
   36.6528   28.3972   48.8159 H   0  0  0  0  0  0  0  0  0  0  0  0
   37.9373   30.8307   48.3965 H   0  0  0  0  0  0  0  0  0  0  0  0
   37.4350   31.2434   46.6084 H   0  0  0  0  0  0  0  0  0  0  0  0
   37.4487   29.4571   46.3341 H   0  0  0  0  0  0  0  0  0  0  0  0
   39.5447   29.0371   43.3592 H   0  0  0  0  0  0  0  0  0  0  0  0
   37.3654   30.6202   41.7099 H   0  0  0  0  0  0  0  0  0  0  0  0
   37.4825   29.1467   41.2097 H   0  0  0  0  0  0  0  0  0  0  0  0
   36.5208   28.5864   44.0036 H   0  0  0  0  0  0  0  0  0  0  0  0
   39.4639   34.1632   43.2753 H   0  0  0  0  0  0  0  0  0  0  0  0
   40.9266   33.9064   45.3121 H   0  0  0  0  0  0  0  0  0  0  0  0
   41.2473   31.6208   46.3220 H   0  0  0  0  0  0  0  0  0  0  0  0
  1  2  1  0
  2  7  1  0
  2  3  1  0
  3  4  1  0
  4  5  1  0
  6  5  1  0
  7  6  1  0
  7  8  1  0
  8 10  1  0
  8 11  1  0
  9  8  1  0
 12  1  1  0
 13 12  1  0
 14 16  1  0
 14 21  1  0
 15 14  1  0
 15 16  1  0
 16 13  1  0
 17 18  2  0
 18 19  1  0
 20 19  2  0
 21 20  1  0
 22 17  1  0
 22 21  2  0
  1 23  1  0
  1 24  1  0
  3 25  1  0
  3 26  1  0
  4 27  1  0
  4 28  1  0
  5 29  1  0
  6 30  1  0
  6 31  1  0
  7 32  1  6
 12 33  1  0
 12 34  1  0
 14 35  1  6
 15 36  1  0
 15 37  1  0
 16 38  1  6
 17 39  1  0
 18 40  1  0
 19 41  1  0
M  ISO  8  23   8  24   8  25  13  26  13  27  13  28  13  29   5  30  13
M  ISO  8  31  13  32  13  33   8  34   8  35  13  36  13  37  13  38  13
M  ISO  3  39  14  40  14  41  14
M  END
>  <minimizedAffinity>  (1) 
-5.2983737

>  <minimizedRMSD>  (1) 
1.82315505

$$$$
