
     RDKit          3D

 29 30  0  0  1  0  0  0  0  0999 V2000
   37.3220   31.0270   49.4610 C   0  0  0  0  0  0  0  0  0  0  0  0
   37.4710   32.3160   49.9660 C   0  0  0  0  0  0  0  0  0  0  0  0
   38.0930   33.2700   49.1570 C   0  0  0  0  0  0  0  0  0  0  0  0
   38.5170   32.8790   47.9120 N   0  0  0  0  0  0  0  0  0  0  0  0
   38.3500   31.6280   47.4710 C   0  0  0  0  0  0  0  0  0  0  0  0
   37.7640   30.7070   48.2210 N   0  0  0  0  0  0  0  0  0  0  0  0
   38.8290   31.3310   46.1630 N   0  0  0  0  0  0  0  0  0  0  0  0
   40.1870   30.8770   45.9770 C   0  0  0  0  0  0  0  0  0  0  0  0
   40.8650   31.5450   44.8070 C   0  0  0  0  0  0  0  0  0  0  0  0
   40.0430   31.5300   43.6410 N   0  0  0  0  0  0  0  0  0  0  0  0
   38.7590   30.9130   43.8030 C   0  0  0  0  0  0  0  0  0  0  0  0
   37.9830   31.4670   44.9740 C   0  0  2  0  0  0  0  0  0  0  0  0
   36.6560   29.9890   50.3180 C   0  0  0  0  0  0  0  0  0  0  0  0
   35.2730   30.1890   50.2740 F   0  0  0  0  0  0  0  0  0  0  0  0
   37.0550   28.7690   49.8930 F   0  0  0  0  0  0  0  0  0  0  0  0
   37.0500   30.2430   51.6240 F   0  0  0  0  0  0  0  0  0  0  0  0
   37.4840   32.7840   44.7660 N   0  0  0  0  0  0  0  0  0  0  0  0
   37.1097   32.5754   50.9721 H   0  0  0  0  0  0  0  0  0  0  0  0
   38.2383   34.3026   49.5072 H   0  0  0  0  0  0  0  0  0  0  0  0
   40.7605   31.0971   46.8895 H   0  0  0  0  0  0  0  0  0  0  0  0
   40.1527   29.7970   45.7710 H   0  0  0  0  0  0  0  0  0  0  0  0
   41.0876   32.5890   45.0727 H   0  0  0  0  0  0  0  0  0  0  0  0
   41.7876   30.9896   44.5829 H   0  0  0  0  0  0  0  0  0  0  0  0
   40.5490   31.0217   42.9017 H   0  0  0  0  0  0  0  0  0  0  0  0
   38.1736   31.0754   42.8860 H   0  0  0  0  0  0  0  0  0  0  0  0
   38.9293   29.8437   43.9968 H   0  0  0  0  0  0  0  0  0  0  0  0
   37.0590   30.8863   45.1116 H   0  0  0  0  0  0  0  0  0  0  0  0
   37.3134   33.2343   45.6765 H   0  0  0  0  0  0  0  0  0  0  0  0
   38.1752   33.3333   44.2355 H   0  0  0  0  0  0  0  0  0  0  0  0
  1  2  2  0
  1 13  1  0
  3  2  1  0
  4  3  2  0
  5  4  1  0
  5  6  2  0
  6  1  1  0
  7  5  1  0
  8  7  1  0
  9  8  1  0
 10 11  1  0
 10  9  1  0
 11 12  1  0
 12  7  1  0
 13 16  1  0
 14 13  1  0
 15 13  1  0
 17 12  1  0
  2 18  1  0
  3 19  1  0
  8 20  1  0
  8 21  1  0
  9 22  1  0
  9 23  1  0
 10 24  1  0
 11 25  1  0
 11 26  1  0
 12 27  1  1
 17 28  1  0
 17 29  1  0
M  ISO  8  18  14  19  14  20  13  21  13  22  13  23  13  24   5  25  13
M  ISO  4  26  13  27  13  28   5  29   5
M  END
>  <minimizedAffinity>  (1) 
-6.14701176

>  <minimizedRMSD>  (1) 
0.846481085

$$$$
