
     RDKit          3D

 39 41  0  0  1  0  0  0  0  0999 V2000
   35.2550   29.8620   46.8610 C   0  0  0  0  0  0  0  0  0  0  0  0
   35.2810   30.5200   48.2140 C   0  0  0  0  0  0  0  0  0  0  0  0
   36.5870   31.0340   48.4440 N   0  0  0  0  0  0  0  0  0  0  0  0
   36.6900   31.9130   49.5710 C   0  0  0  0  0  0  0  0  0  0  0  0
   37.0760   31.2840   50.8720 C   0  0  0  0  0  0  0  0  0  0  0  0
   38.1260   30.2980   50.7530 N   0  0  0  0  0  0  0  0  0  0  0  0
   37.6890   29.3500   49.7200 C   0  0  0  0  0  0  0  0  0  0  0  0
   37.6550   30.1180   48.4190 C   0  0  2  0  0  0  0  0  0  0  0  0
   38.8490   30.8590   48.4110 O   0  0  0  0  0  0  0  0  0  0  0  0
   36.2060   30.8180   45.6170 S   0  0  0  0  0  0  0  0  0  0  0  0
   37.9220   29.8150   43.5890 C   0  0  2  0  0  0  0  0  0  0  0  0
   36.7140   30.1820   42.8600 C   0  0  0  0  0  0  0  0  0  0  0  0
   36.5680   29.6990   44.2480 C   0  0  2  0  0  0  0  0  0  0  0  0
   39.6830   33.0510   44.2050 C   0  0  0  0  0  0  0  0  0  0  0  0
   40.5580   32.6770   45.2390 C   0  0  0  0  0  0  0  0  0  0  0  0
   40.5360   31.3150   45.7270 C   0  0  0  0  0  0  0  0  0  0  0  0
   39.6540   30.4840   45.1360 N   0  0  0  0  0  0  0  0  0  0  0  0
   38.8320   30.8640   44.1540 C   0  0  0  0  0  0  0  0  0  0  0  0
   38.8220   32.1410   43.6650 N   0  0  0  0  0  0  0  0  0  0  0  0
   35.6918   28.8560   46.9463 H   0  0  0  0  0  0  0  0  0  0  0  0
   34.2084   29.8128   46.5259 H   0  0  0  0  0  0  0  0  0  0  0  0
   34.5496   31.3412   48.2407 H   0  0  0  0  0  0  0  0  0  0  0  0
   35.0231   29.7874   48.9930 H   0  0  0  0  0  0  0  0  0  0  0  0
   37.4445   32.6769   49.3317 H   0  0  0  0  0  0  0  0  0  0  0  0
   35.6753   32.3080   49.7271 H   0  0  0  0  0  0  0  0  0  0  0  0
   37.4200   32.0770   51.5523 H   0  0  0  0  0  0  0  0  0  0  0  0
   36.1861   30.7609   51.2521 H   0  0  0  0  0  0  0  0  0  0  0  0
   39.0083   30.7492   50.4722 H   0  0  0  0  0  0  0  0  0  0  0  0
   38.3985   28.5124   49.6483 H   0  0  0  0  0  0  0  0  0  0  0  0
   36.7013   28.9288   49.9590 H   0  0  0  0  0  0  0  0  0  0  0  0
   37.5424   29.4518   47.5510 H   0  0  0  0  0  0  0  0  0  0  0  0
   39.1339   31.0358   49.3425 H   0  0  0  0  0  0  0  0  0  0  0  0
   38.7681   29.1532   43.3520 H   0  0  0  0  0  0  0  0  0  0  0  0
   36.5181   31.2392   42.6279 H   0  0  0  0  0  0  0  0  0  0  0  0
   36.2806   29.8816   41.8946 H   0  0  0  0  0  0  0  0  0  0  0  0
   35.9591   28.9146   44.7212 H   0  0  0  0  0  0  0  0  0  0  0  0
   39.6924   34.0845   43.8285 H   0  0  0  0  0  0  0  0  0  0  0  0
   41.2522   33.4118   45.6728 H   0  0  0  0  0  0  0  0  0  0  0  0
   41.2015   30.9766   46.5348 H   0  0  0  0  0  0  0  0  0  0  0  0
  1  2  1  0
  2  3  1  0
  3  4  1  0
  4  5  1  0
  6  5  1  0
  7  6  1  0
  8  3  1  0
  8  7  1  0
  9  8  1  0
 10  1  1  0
 11 18  1  0
 11 13  1  0
 12 11  1  0
 12 13  1  0
 13 10  1  0
 14 15  2  0
 15 16  1  0
 17 16  2  0
 18 17  1  0
 19 18  2  0
 19 14  1  0
  1 20  1  0
  1 21  1  0
  2 22  1  0
  2 23  1  0
  4 24  1  0
  4 25  1  0
  5 26  1  0
  5 27  1  0
  6 28  1  0
  7 29  1  0
  7 30  1  0
  8 31  1  6
  9 32  1  0
 11 33  1  6
 12 34  1  0
 12 35  1  0
 13 36  1  6
 14 37  1  0
 15 38  1  0
 16 39  1  0
M  ISO  8  20   8  21   8  22   8  23   8  24  13  25  13  26  13  27  13
M  ISO  8  28   5  29  13  30  13  31  13  32   3  33  13  34  13  35  13
M  ISO  4  36  13  37  14  38  14  39  14
M  END
>  <minimizedAffinity>  (1) 
-4.11058044

>  <minimizedRMSD>  (1) 
0.148319781

$$$$
