
     RDKit          3D

 33 35  0  0  0  0  0  0  0  0999 V2000
   36.3890   30.5140   46.5390 C   0  0  0  0  0  0  0  0  0  0  0  0
   35.0950   30.0160   46.4780 C   0  0  0  0  0  0  0  0  0  0  0  0
   34.5000   29.7310   45.2800 C   0  0  0  0  0  0  0  0  0  0  0  0
   35.1510   29.9220   44.0630 C   0  0  0  0  0  0  0  0  0  0  0  0
   36.4500   30.4210   44.0990 C   0  0  0  0  0  0  0  0  0  0  0  0
   37.0140   30.6950   45.3320 C   0  0  0  0  0  0  0  0  0  0  0  0
   38.3800   31.2170   45.3230 C   0  0  0  0  0  0  0  0  0  0  0  0
   38.4820   32.5560   44.9300 C   0  0  0  0  0  0  0  0  0  0  0  0
   39.7120   33.1810   44.8740 C   0  0  0  0  0  0  0  0  0  0  0  0
   40.8470   32.4830   45.2080 C   0  0  0  0  0  0  0  0  0  0  0  0
   40.7640   31.1440   45.6030 C   0  0  0  0  0  0  0  0  0  0  0  0
   39.5300   30.5290   45.6550 C   0  0  0  0  0  0  0  0  0  0  0  0
   37.4280   30.3080   50.0430 C   0  0  0  0  0  0  0  0  0  0  0  0
   38.2100   31.4470   50.1990 C   0  0  0  0  0  0  0  0  0  0  0  0
   38.3770   32.2840   49.0890 C   0  0  0  0  0  0  0  0  0  0  0  0
   37.7630   31.9300   47.9300 N   0  0  0  0  0  0  0  0  0  0  0  0
   37.0070   30.8110   47.8150 C   0  0  0  0  0  0  0  0  0  0  0  0
   36.8460   30.0160   48.8610 N   0  0  0  0  0  0  0  0  0  0  0  0
   37.2500   29.4130   51.2310 C   0  0  0  0  0  0  0  0  0  0  0  0
   35.8980   29.1630   51.4310 F   0  0  0  0  0  0  0  0  0  0  0  0
   37.9600   28.2780   51.0140 F   0  0  0  0  0  0  0  0  0  0  0  0
   37.6790   30.1180   52.3500 F   0  0  0  0  0  0  0  0  0  0  0  0
   34.5373   29.8473   47.4110 H   0  0  0  0  0  0  0  0  0  0  0  0
   33.4727   29.3377   45.2771 H   0  0  0  0  0  0  0  0  0  0  0  0
   34.6566   29.6871   43.1088 H   0  0  0  0  0  0  0  0  0  0  0  0
   37.0138   30.5931   43.1703 H   0  0  0  0  0  0  0  0  0  0  0  0
   37.5737   33.1161   44.6631 H   0  0  0  0  0  0  0  0  0  0  0  0
   39.7827   34.2338   44.5631 H   0  0  0  0  0  0  0  0  0  0  0  0
   41.8272   32.9803   45.1645 H   0  0  0  0  0  0  0  0  0  0  0  0
   41.6739   30.5864   45.8697 H   0  0  0  0  0  0  0  0  0  0  0  0
   39.4615   29.4759   45.9653 H   0  0  0  0  0  0  0  0  0  0  0  0
   38.6825   31.6831   51.1639 H   0  0  0  0  0  0  0  0  0  0  0  0
   38.9854   33.1982   49.1533 H   0  0  0  0  0  0  0  0  0  0  0  0
  1 17  1  0
  2  1  2  0
  3  2  1  0
  4  5  1  0
  4  3  2  0
  5  6  2  0
  6  1  1  0
  7  6  1  0
  7 12  1  0
  8  7  2  0
  9  8  1  0
  9 10  2  0
 10 11  1  0
 11 12  2  0
 13 14  2  0
 13 19  1  0
 15 14  1  0
 16 15  2  0
 17 16  1  0
 17 18  2  0
 18 13  1  0
 19 20  1  0
 19 22  1  0
 21 19  1  0
  2 23  1  0
  3 24  1  0
  4 25  1  0
  5 26  1  0
  8 27  1  0
  9 28  1  0
 10 29  1  0
 11 30  1  0
 12 31  1  0
 14 32  1  0
 15 33  1  0
M  ISO  8  23  14  24  14  25  14  26  14  27  14  28  14  29  14  30  14
M  ISO  3  31  14  32  14  33  14
M  END
>  <minimizedAffinity>  (1) 
-7.30633402

>  <minimizedRMSD>  (1) 
0.257084668

$$$$
