
     RDKit          3D

 36 38  0  0  0  0  0  0  0  0999 V2000
   36.1940   30.5570   46.4880 C   0  0  0  0  0  0  0  0  0  0  0  0
   34.9250   30.0430   46.4920 C   0  0  0  0  0  0  0  0  0  0  0  0
   34.2400   29.8350   45.3250 C   0  0  0  0  0  0  0  0  0  0  0  0
   34.7890   30.1340   44.0750 C   0  0  0  0  0  0  0  0  0  0  0  0
   36.0780   30.6580   44.0400 C   0  0  0  0  0  0  0  0  0  0  0  0
   36.7050   30.8390   45.2490 C   0  0  0  0  0  0  0  0  0  0  0  0
   37.4440   30.2070   49.8990 C   0  0  0  0  0  0  0  0  0  0  0  0
   38.3480   31.2640   50.0210 C   0  0  0  0  0  0  0  0  0  0  0  0
   38.5230   32.0980   48.9090 C   0  0  0  0  0  0  0  0  0  0  0  0
   37.8000   31.8210   47.7930 N   0  0  0  0  0  0  0  0  0  0  0  0
   36.9360   30.7920   47.7090 C   0  0  0  0  0  0  0  0  0  0  0  0
   36.7640   29.9910   48.7680 N   0  0  0  0  0  0  0  0  0  0  0  0
   37.2530   29.3070   51.0970 C   0  0  0  0  0  0  0  0  0  0  0  0
   35.8860   29.0500   51.2670 F   0  0  0  0  0  0  0  0  0  0  0  0
   37.9840   28.1890   50.9040 F   0  0  0  0  0  0  0  0  0  0  0  0
   37.6460   30.0280   52.2260 F   0  0  0  0  0  0  0  0  0  0  0  0
   38.8950   30.6070   44.3130 C   0  0  0  0  0  0  0  0  0  0  0  0
   38.0660   31.3980   45.0960 C   0  0  0  0  0  0  0  0  0  0  0  0
   38.5380   32.5700   45.6380 C   0  0  0  0  0  0  0  0  0  0  0  0
   39.8380   32.9660   45.4060 C   0  0  0  0  0  0  0  0  0  0  0  0
   40.7150   32.2210   44.6330 C   0  0  0  0  0  0  0  0  0  0  0  0
   40.2010   31.0690   44.1190 C   0  0  0  0  0  0  0  0  0  0  0  0
   38.3590   29.0920   43.5830 S   0  0  0  0  0  0  0  0  0  0  0  0
   38.2450   29.3100   42.1080 O   0  0  0  0  0  0  0  0  0  0  0  0
   39.3660   28.0060   43.8480 O   0  0  0  0  0  0  0  0  0  0  0  0
   34.4470   29.7925   47.4505 H   0  0  0  0  0  0  0  0  0  0  0  0
   33.2231   29.4184   45.3728 H   0  0  0  0  0  0  0  0  0  0  0  0
   34.2209   29.9609   43.1491 H   0  0  0  0  0  0  0  0  0  0  0  0
   36.5707   30.9147   43.0906 H   0  0  0  0  0  0  0  0  0  0  0  0
   38.9022   31.4356   50.9555 H   0  0  0  0  0  0  0  0  0  0  0  0
   39.2214   32.9473   48.9386 H   0  0  0  0  0  0  0  0  0  0  0  0
   37.8769   33.1932   46.2582 H   0  0  0  0  0  0  0  0  0  0  0  0
   40.1924   33.9077   45.8506 H   0  0  0  0  0  0  0  0  0  0  0  0
   41.7521   32.5376   44.4479 H   0  0  0  0  0  0  0  0  0  0  0  0
   40.8681   30.4509   43.5002 H   0  0  0  0  0  0  0  0  0  0  0  0
   37.1550   28.7130   44.1156 H   0  0  0  0  0  0  0  0  0  0  0  0
  1  2  2  0
  1 11  1  0
  3  2  1  0
  4  3  2  0
  5  4  1  0
  5  6  2  0
  6  1  1  0
  7  8  2  0
  7 13  1  0
  9  8  1  0
 10  9  2  0
 11 10  1  0
 11 12  2  0
 12  7  1  0
 13 14  1  0
 13 16  1  0
 15 13  1  0
 17 18  2  0
 18  6  1  0
 18 19  1  0
 20 19  2  0
 21 20  1  0
 22 17  1  0
 22 21  2  0
 23 25  2  0
 23 17  1  0
 24 23  2  0
  2 26  1  0
  3 27  1  0
  4 28  1  0
  5 29  1  0
  8 30  1  0
  9 31  1  0
 19 32  1  0
 20 33  1  0
 21 34  1  0
 22 35  1  0
 23 36  1  0
M  ISO  8  26  14  27  14  28  14  29  14  30  14  31  14  32  14  33  14
M  ISO  3  34  14  35  14  36  11
M  END
>  <minimizedAffinity>  (1) 
-6.58928394

>  <minimizedRMSD>  (1) 
0.699068427

$$$$
