
     RDKit          3D

 30 31  0  0  0  0  0  0  0  0999 V2000
   37.4250   30.7340   49.3530 C   0  0  0  0  0  0  0  0  0  0  0  0
   37.9050   30.5390   50.6430 C   0  0  0  0  0  0  0  0  0  0  0  0
   37.1820   29.8760   51.6000 C   0  0  0  0  0  0  0  0  0  0  0  0
   35.9180   29.3640   51.3120 C   0  0  0  0  0  0  0  0  0  0  0  0
   35.4280   29.5450   50.0450 C   0  0  0  0  0  0  0  0  0  0  0  0
   36.1840   30.2170   49.1110 C   0  0  0  0  0  0  0  0  0  0  0  0
   39.3310   31.6080   46.3650 C   0  0  0  0  0  0  0  0  0  0  0  0
   39.7320   32.9150   46.6220 C   0  0  0  0  0  0  0  0  0  0  0  0
   39.3360   33.4950   47.8360 C   0  0  0  0  0  0  0  0  0  0  0  0
   38.5890   32.7280   48.6670 N   0  0  0  0  0  0  0  0  0  0  0  0
   38.2160   31.4610   48.3880 C   0  0  0  0  0  0  0  0  0  0  0  0
   38.5910   30.9110   47.2370 N   0  0  0  0  0  0  0  0  0  0  0  0
   39.7670   30.9910   45.0550 C   0  0  0  0  0  0  0  0  0  0  0  0
   39.3680   29.6540   45.0210 F   0  0  0  0  0  0  0  0  0  0  0  0
   39.2370   31.7160   44.0500 F   0  0  0  0  0  0  0  0  0  0  0  0
   41.1480   30.9790   45.0350 F   0  0  0  0  0  0  0  0  0  0  0  0
   35.5870   30.3380   47.7880 C   0  0  0  0  0  0  0  0  0  0  0  0
   34.3090   30.0710   47.5160 C   0  0  0  0  0  0  0  0  0  0  0  0
   33.5850   30.1530   46.2260 C   0  0  0  0  0  0  0  0  0  0  0  0
   38.8992   30.9303   50.9046 H   0  0  0  0  0  0  0  0  0  0  0  0
   37.6042   29.7464   52.6074 H   0  0  0  0  0  0  0  0  0  0  0  0
   35.3329   28.8321   52.0767 H   0  0  0  0  0  0  0  0  0  0  0  0
   34.4353   29.1552   49.7755 H   0  0  0  0  0  0  0  0  0  0  0  0
   40.3400   33.4755   45.8966 H   0  0  0  0  0  0  0  0  0  0  0  0
   39.6185   34.5245   48.1013 H   0  0  0  0  0  0  0  0  0  0  0  0
   36.2311   30.6707   46.9607 H   0  0  0  0  0  0  0  0  0  0  0  0
   33.7046   29.7421   48.3742 H   0  0  0  0  0  0  0  0  0  0  0  0
   32.5086   30.2749   46.4168 H   0  0  0  0  0  0  0  0  0  0  0  0
   33.9555   31.0149   45.6517 H   0  0  0  0  0  0  0  0  0  0  0  0
   33.7534   29.2300   45.6517 H   0  0  0  0  0  0  0  0  0  0  0  0
  1  2  2  0
  2  3  1  0
  4  3  2  0
  5  4  1  0
  6  1  1  0
  6  5  2  0
  7  8  2  0
  7 12  1  0
  8  9  1  0
  9 10  2  0
 11 10  1  0
 11  1  1  0
 12 11  2  0
 13  7  1  0
 14 13  1  0
 15 13  1  0
 16 13  1  0
 17  6  1  0
 18 17  2  0
 19 18  1  0
  2 20  1  0
  3 21  1  0
  4 22  1  0
  5 23  1  0
  8 24  1  0
  9 25  1  0
 17 26  1  0
 18 27  1  0
 19 28  1  0
 19 29  1  0
 19 30  1  0
M  ISO  8  20  14  21  14  22  14  23  14  24  14  25  14  28   8  29   8
M  ISO  1  30   8
M  END
>  <minimizedAffinity>  (1) 
-6.58066654

>  <minimizedRMSD>  (1) 
5.44296837

$$$$
