
     RDKit          3D

 29 30  0  0  0  0  0  0  0  0999 V2000
   36.3640   30.5570   46.5390 C   0  0  0  0  0  0  0  0  0  0  0  0
   35.1330   29.9390   46.4970 C   0  0  0  0  0  0  0  0  0  0  0  0
   34.5310   29.6870   45.2910 C   0  0  0  0  0  0  0  0  0  0  0  0
   35.0950   30.0220   44.0770 C   0  0  0  0  0  0  0  0  0  0  0  0
   36.3230   30.6380   44.1070 C   0  0  0  0  0  0  0  0  0  0  0  0
   36.9440   30.9000   45.3240 C   0  0  0  0  0  0  0  0  0  0  0  0
   37.4170   30.2920   50.0350 C   0  0  0  0  0  0  0  0  0  0  0  0
   38.2710   31.4010   50.1930 C   0  0  0  0  0  0  0  0  0  0  0  0
   38.4730   32.2320   49.0810 C   0  0  0  0  0  0  0  0  0  0  0  0
   37.8320   31.9130   47.9230 N   0  0  0  0  0  0  0  0  0  0  0  0
   37.0180   30.8310   47.8220 C   0  0  0  0  0  0  0  0  0  0  0  0
   36.8190   30.0390   48.8630 N   0  0  0  0  0  0  0  0  0  0  0  0
   37.2160   29.4200   51.2340 C   0  0  0  0  0  0  0  0  0  0  0  0
   35.8440   29.1840   51.3910 F   0  0  0  0  0  0  0  0  0  0  0  0
   37.9210   28.2780   51.0490 F   0  0  0  0  0  0  0  0  0  0  0  0
   37.6220   30.1150   52.3530 F   0  0  0  0  0  0  0  0  0  0  0  0
   38.1850   31.5200   45.4330 O   0  0  0  0  0  0  0  0  0  0  0  0
   40.6800   30.9970   45.8570 O   0  0  0  0  0  0  0  0  0  0  0  0
   39.5990   30.8660   44.7810 P   0  0  0  0  0  0  0  0  0  0  0  0
   39.4950   29.2500   44.3670 O   0  0  0  0  0  0  0  0  0  0  0  0
   40.0860   31.8080   43.4400 O   0  0  0  0  0  0  0  0  0  0  0  0
   34.6326   29.6474   47.4322 H   0  0  0  0  0  0  0  0  0  0  0  0
   33.5484   29.1926   45.2913 H   0  0  0  0  0  0  0  0  0  0  0  0
   34.5842   29.8055   43.1272 H   0  0  0  0  0  0  0  0  0  0  0  0
   36.8162   30.9246   43.1665 H   0  0  0  0  0  0  0  0  0  0  0  0
   38.7625   31.6082   51.1550 H   0  0  0  0  0  0  0  0  0  0  0  0
   39.1284   33.1133   49.1427 H   0  0  0  0  0  0  0  0  0  0  0  0
   39.4596   28.7002   45.1896 H   0  0  0  0  0  0  0  0  0  0  0  0
   40.5162   32.6402   43.7601 H   0  0  0  0  0  0  0  0  0  0  0  0
  1 11  1  0
  2  1  2  0
  3  2  1  0
  4  5  1  0
  4  3  2  0
  5  6  2  0
  6 17  1  0
  6  1  1  0
  7  8  2  0
  7 13  1  0
  9  8  1  0
 10  9  2  0
 11 10  1  0
 11 12  2  0
 12  7  1  0
 13 14  1  0
 13 16  1  0
 15 13  1  0
 19 17  1  0
 19 18  2  0
 20 19  1  0
 21 19  1  0
  2 22  1  0
  3 23  1  0
  4 24  1  0
  5 25  1  0
  8 26  1  0
  9 27  1  0
 20 28  1  0
 21 29  1  0
M  ISO  8  22  14  23  14  24  14  25  14  26  14  27  14  28   3  29   3
M  END
>  <minimizedAffinity>  (1) 
-6.22730541

>  <minimizedRMSD>  (1) 
0.488297284

$$$$
