
     RDKit          3D

 29 30  0  0  0  0  0  0  0  0999 V2000
   37.8650   30.8090   46.1330 C   0  0  0  0  0  0  0  0  0  0  0  0
   36.6640   30.4880   45.5340 C   0  0  0  0  0  0  0  0  0  0  0  0
   36.6240   30.1090   44.2150 C   0  0  0  0  0  0  0  0  0  0  0  0
   37.7520   30.0280   43.4250 C   0  0  0  0  0  0  0  0  0  0  0  0
   38.9470   30.3460   44.0140 C   0  0  0  0  0  0  0  0  0  0  0  0
   39.0010   30.7330   45.3550 C   0  0  0  0  0  0  0  0  0  0  0  0
   37.6240   30.6800   49.7860 C   0  0  0  0  0  0  0  0  0  0  0  0
   38.0370   31.9500   50.1720 C   0  0  0  0  0  0  0  0  0  0  0  0
   38.3980   32.8530   49.1650 C   0  0  0  0  0  0  0  0  0  0  0  0
   38.3150   32.4140   47.8870 N   0  0  0  0  0  0  0  0  0  0  0  0
   37.9170   31.1920   47.5350 C   0  0  0  0  0  0  0  0  0  0  0  0
   37.5670   30.3130   48.4900 N   0  0  0  0  0  0  0  0  0  0  0  0
   37.2310   29.7080   50.8750 C   0  0  0  0  0  0  0  0  0  0  0  0
   35.8480   29.5830   50.8980 F   0  0  0  0  0  0  0  0  0  0  0  0
   37.8690   28.5380   50.6500 F   0  0  0  0  0  0  0  0  0  0  0  0
   37.5970   30.2840   52.0870 F   0  0  0  0  0  0  0  0  0  0  0  0
   40.3730   31.0670   45.7990 C   0  0  0  0  0  0  0  0  0  0  0  0
   40.8980   32.3630   45.2570 C   0  0  0  0  0  0  0  0  0  0  0  0
   35.7325   30.5361   46.1171 H   0  0  0  0  0  0  0  0  0  0  0  0
   35.6501   29.8591   43.7688 H   0  0  0  0  0  0  0  0  0  0  0  0
   37.6944   29.7219   42.3700 H   0  0  0  0  0  0  0  0  0  0  0  0
   39.8743   30.2961   43.4245 H   0  0  0  0  0  0  0  0  0  0  0  0
   38.0788   32.2359   51.2334 H   0  0  0  0  0  0  0  0  0  0  0  0
   38.7340   33.8734   49.4015 H   0  0  0  0  0  0  0  0  0  0  0  0
   40.3748   31.1268   46.8974 H   0  0  0  0  0  0  0  0  0  0  0  0
   41.0310   30.2743   45.4133 H   0  0  0  0  0  0  0  0  0  0  0  0
   41.1671   33.0273   46.0915 H   0  0  0  0  0  0  0  0  0  0  0  0
   41.7884   32.1690   44.6410 H   0  0  0  0  0  0  0  0  0  0  0  0
   40.1236   32.8434   44.6410 H   0  0  0  0  0  0  0  0  0  0  0  0
  1 11  1  0
  2  1  2  0
  3  2  1  0
  4  5  1  0
  4  3  2  0
  5  6  2  0
  6 17  1  0
  6  1  1  0
  7  8  2  0
  7 13  1  0
  9  8  1  0
 10  9  2  0
 11 10  1  0
 11 12  2  0
 12  7  1  0
 13 14  1  0
 13 16  1  0
 15 13  1  0
 18 17  1  0
  2 19  1  0
  3 20  1  0
  4 21  1  0
  5 22  1  0
  8 23  1  0
  9 24  1  0
 17 25  1  0
 17 26  1  0
 18 27  1  0
 18 28  1  0
 18 29  1  0
M  ISO  8  19  14  20  14  21  14  22  14  23  14  24  14  25   8  26   8
M  ISO  3  27   8  28   8  29   8
M  END
>  <minimizedAffinity>  (1) 
-6.03656673

>  <minimizedRMSD>  (1) 
1.60477924

$$$$
