
     RDKit          3D

 37 39  0  0  0  0  0  0  0  0999 V2000
   36.0830   30.4620   46.6500 C   0  0  0  0  0  0  0  0  0  0  0  0
   34.7460   30.0850   46.7150 C   0  0  0  0  0  0  0  0  0  0  0  0
   34.0600   29.8230   45.5390 C   0  0  0  0  0  0  0  0  0  0  0  0
   34.6180   29.9100   44.2910 C   0  0  0  0  0  0  0  0  0  0  0  0
   35.9570   30.2870   44.2160 C   0  0  0  0  0  0  0  0  0  0  0  0
   36.6280   30.5460   45.3970 C   0  0  0  0  0  0  0  0  0  0  0  0
   37.9690   30.9370   45.1270 N   0  0  0  0  0  0  0  0  0  0  0  0
   39.2810   30.3310   45.0610 C   0  0  0  0  0  0  0  0  0  0  0  0
   40.1400   31.1700   46.0340 C   0  0  0  0  0  0  0  0  0  0  0  0
   40.4240   32.4050   45.3410 N   0  0  0  0  0  0  0  0  0  0  0  0
   39.3730   32.8160   44.4620 C   0  0  0  0  0  0  0  0  0  0  0  0
   38.0040   32.3580   44.8330 C   0  0  0  0  0  0  0  0  0  0  0  0
   37.3790   30.2410   50.0540 C   0  0  0  0  0  0  0  0  0  0  0  0
   38.2350   31.3530   50.1350 C   0  0  0  0  0  0  0  0  0  0  0  0
   38.3530   32.1680   48.9960 C   0  0  0  0  0  0  0  0  0  0  0  0
   37.6280   31.8110   47.9060 N   0  0  0  0  0  0  0  0  0  0  0  0
   36.8210   30.7480   47.8560 C   0  0  0  0  0  0  0  0  0  0  0  0
   36.6980   29.9620   48.9350 N   0  0  0  0  0  0  0  0  0  0  0  0
   37.2600   29.3830   51.2830 C   0  0  0  0  0  0  0  0  0  0  0  0
   35.9050   29.1250   51.5160 F   0  0  0  0  0  0  0  0  0  0  0  0
   37.9710   28.2540   51.0830 F   0  0  0  0  0  0  0  0  0  0  0  0
   37.7100   30.1140   52.3620 F   0  0  0  0  0  0  0  0  0  0  0  0
   34.2391   29.9958   47.6872 H   0  0  0  0  0  0  0  0  0  0  0  0
   33.0031   29.5272   45.6126 H   0  0  0  0  0  0  0  0  0  0  0  0
   34.0330   29.6912   43.3855 H   0  0  0  0  0  0  0  0  0  0  0  0
   36.4660   30.3761   43.2449 H   0  0  0  0  0  0  0  0  0  0  0  0
   39.2413   29.2801   45.3836 H   0  0  0  0  0  0  0  0  0  0  0  0
   39.6893   30.3242   44.0396 H   0  0  0  0  0  0  0  0  0  0  0  0
   39.5836   31.3701   46.9615 H   0  0  0  0  0  0  0  0  0  0  0  0
   41.0628   30.6429   46.3179 H   0  0  0  0  0  0  0  0  0  0  0  0
   40.5730   33.1457   46.0410 H   0  0  0  0  0  0  0  0  0  0  0  0
   39.5996   32.4260   43.4587 H   0  0  0  0  0  0  0  0  0  0  0  0
   39.3473   33.9143   44.5183 H   0  0  0  0  0  0  0  0  0  0  0  0
   37.6723   32.9134   45.7227 H   0  0  0  0  0  0  0  0  0  0  0  0
   37.3387   32.5452   43.9773 H   0  0  0  0  0  0  0  0  0  0  0  0
   38.7923   31.5772   51.0565 H   0  0  0  0  0  0  0  0  0  0  0  0
   39.0035   33.0550   48.9886 H   0  0  0  0  0  0  0  0  0  0  0  0
  1  2  2  0
  1 17  1  0
  3  2  1  0
  4  3  2  0
  5  4  1  0
  5  6  2  0
  6  1  1  0
  7  6  1  0
  8  7  1  0
  8  9  1  0
 10  9  1  0
 11 12  1  0
 11 10  1  0
 12  7  1  0
 13 14  2  0
 13 19  1  0
 15 14  1  0
 16 15  2  0
 17 16  1  0
 17 18  2  0
 18 13  1  0
 19 20  1  0
 19 22  1  0
 21 19  1  0
  2 23  1  0
  3 24  1  0
  4 25  1  0
  5 26  1  0
  8 27  1  0
  8 28  1  0
  9 29  1  0
  9 30  1  0
 10 31  1  0
 11 32  1  0
 11 33  1  0
 12 34  1  0
 12 35  1  0
 14 36  1  0
 15 37  1  0
M  ISO  8  23  14  24  14  25  14  26  14  27  13  28  13  29  13  30  13
M  ISO  7  31   5  32  13  33  13  34  13  35  13  36  14  37  14
M  END
>  <minimizedAffinity>  (1) 
-6.70195913

>  <minimizedRMSD>  (1) 
0.377194494

$$$$
