
     RDKit          3D

 38 40  0  0  0  0  0  0  0  0999 V2000
   36.0910   30.4290   46.6160 C   0  0  0  0  0  0  0  0  0  0  0  0
   34.7690   29.9980   46.6700 C   0  0  0  0  0  0  0  0  0  0  0  0
   34.0960   29.7020   45.4990 C   0  0  0  0  0  0  0  0  0  0  0  0
   34.6670   29.8100   44.2480 C   0  0  0  0  0  0  0  0  0  0  0  0
   35.9870   30.2400   44.1940 C   0  0  0  0  0  0  0  0  0  0  0  0
   36.6430   30.5310   45.3780 C   0  0  0  0  0  0  0  0  0  0  0  0
   37.9760   30.9530   45.1220 N   0  0  0  0  0  0  0  0  0  0  0  0
   39.2920   30.3780   45.1000 C   0  0  0  0  0  0  0  0  0  0  0  0
   40.1590   31.2090   46.0230 C   0  0  0  0  0  0  0  0  0  0  0  0
   40.3440   32.4800   45.3950 N   0  0  0  0  0  0  0  0  0  0  0  0
   39.3490   32.8590   44.4860 C   0  0  0  0  0  0  0  0  0  0  0  0
   37.9800   32.3420   44.7900 C   0  0  0  0  0  0  0  0  0  0  0  0
   37.3530   30.2520   50.0340 C   0  0  0  0  0  0  0  0  0  0  0  0
   38.1690   31.3990   50.1170 C   0  0  0  0  0  0  0  0  0  0  0  0
   38.2690   32.2120   48.9850 C   0  0  0  0  0  0  0  0  0  0  0  0
   37.5650   31.8220   47.8950 N   0  0  0  0  0  0  0  0  0  0  0  0
   36.8000   30.7420   47.8280 C   0  0  0  0  0  0  0  0  0  0  0  0
   36.6960   29.9500   48.9130 N   0  0  0  0  0  0  0  0  0  0  0  0
   37.2590   29.4000   51.2700 C   0  0  0  0  0  0  0  0  0  0  0  0
   35.8970   29.1380   51.5120 F   0  0  0  0  0  0  0  0  0  0  0  0
   37.9540   28.2750   51.0690 F   0  0  0  0  0  0  0  0  0  0  0  0
   37.7020   30.1320   52.3410 F   0  0  0  0  0  0  0  0  0  0  0  0
   39.0590   33.3280   49.0550 O   0  0  0  0  0  0  0  0  0  0  0  0
   34.2615   29.8932   47.6403 H   0  0  0  0  0  0  0  0  0  0  0  0
   33.0518   29.3631   45.5686 H   0  0  0  0  0  0  0  0  0  0  0  0
   34.1033   29.5669   43.3353 H   0  0  0  0  0  0  0  0  0  0  0  0
   36.5017   30.3473   43.2278 H   0  0  0  0  0  0  0  0  0  0  0  0
   39.2545   29.3371   45.4538 H   0  0  0  0  0  0  0  0  0  0  0  0
   39.7000   30.3751   44.0784 H   0  0  0  0  0  0  0  0  0  0  0  0
   39.6603   31.3374   46.9950 H   0  0  0  0  0  0  0  0  0  0  0  0
   41.1260   30.7159   46.2010 H   0  0  0  0  0  0  0  0  0  0  0  0
   40.3857   33.1954   46.1349 H   0  0  0  0  0  0  0  0  0  0  0  0
   39.6388   32.4906   43.4909 H   0  0  0  0  0  0  0  0  0  0  0  0
   39.2819   33.9553   44.5459 H   0  0  0  0  0  0  0  0  0  0  0  0
   37.5709   32.9080   45.6398 H   0  0  0  0  0  0  0  0  0  0  0  0
   37.3686   32.4687   43.8844 H   0  0  0  0  0  0  0  0  0  0  0  0
   38.7093   31.6457   51.0429 H   0  0  0  0  0  0  0  0  0  0  0  0
   39.1479   33.9217   48.2678 H   0  0  0  0  0  0  0  0  0  0  0  0
  1  2  2  0
  1 17  1  0
  3  2  1  0
  4  3  2  0
  5  4  1  0
  5  6  2  0
  6  1  1  0
  7  6  1  0
  8  7  1  0
  8  9  1  0
 10  9  1  0
 11 12  1  0
 11 10  1  0
 12  7  1  0
 13 14  2  0
 13 19  1  0
 15 23  1  0
 15 14  1  0
 16 15  2  0
 17 16  1  0
 17 18  2  0
 18 13  1  0
 19 20  1  0
 19 22  1  0
 21 19  1  0
  2 24  1  0
  3 25  1  0
  4 26  1  0
  5 27  1  0
  8 28  1  0
  8 29  1  0
  9 30  1  0
  9 31  1  0
 10 32  1  0
 11 33  1  0
 11 34  1  0
 12 35  1  0
 12 36  1  0
 14 37  1  0
 23 38  1  0
M  ISO  8  24  14  25  14  26  14  27  14  28  13  29  13  30  13  31  13
M  ISO  7  32   5  33  13  34  13  35  13  36  13  37  14  38   3
M  END
>  <minimizedAffinity>  (1) 
-7.05429983

>  <minimizedRMSD>  (1) 
0.0672904626

$$$$
