
     RDKit          3D

 44 47  0  0  0  0  0  0  0  0999 V2000
   35.9950   30.3930   46.5600 C   0  0  0  0  0  0  0  0  0  0  0  0
   34.6800   29.9300   46.5430 C   0  0  0  0  0  0  0  0  0  0  0  0
   34.0990   29.5780   45.3380 C   0  0  0  0  0  0  0  0  0  0  0  0
   34.7500   29.6580   44.1240 C   0  0  0  0  0  0  0  0  0  0  0  0
   36.0570   30.1180   44.1430 C   0  0  0  0  0  0  0  0  0  0  0  0
   36.6210   30.4640   45.3560 C   0  0  0  0  0  0  0  0  0  0  0  0
   37.9600   30.9100   45.1740 N   0  0  0  0  0  0  0  0  0  0  0  0
   39.2920   30.3710   45.2640 C   0  0  0  0  0  0  0  0  0  0  0  0
   40.0670   31.2720   46.2100 C   0  0  0  0  0  0  0  0  0  0  0  0
   40.2860   32.5170   45.5450 N   0  0  0  0  0  0  0  0  0  0  0  0
   39.3280   32.8340   44.5510 C   0  0  0  0  0  0  0  0  0  0  0  0
   37.9560   32.2960   44.7780 C   0  0  0  0  0  0  0  0  0  0  0  0
   37.2290   30.2790   49.9940 C   0  0  0  0  0  0  0  0  0  0  0  0
   37.7850   31.5580   50.1570 C   0  0  0  0  0  0  0  0  0  0  0  0
   37.7240   32.4360   49.0650 C   0  0  0  0  0  0  0  0  0  0  0  0
   37.1370   31.9920   47.9390 N   0  0  0  0  0  0  0  0  0  0  0  0
   36.6120   30.7670   47.8030 C   0  0  0  0  0  0  0  0  0  0  0  0
   36.6580   29.9050   48.8390 N   0  0  0  0  0  0  0  0  0  0  0  0
   37.2900   29.3520   51.1810 C   0  0  0  0  0  0  0  0  0  0  0  0
   35.9680   29.0150   51.5330 F   0  0  0  0  0  0  0  0  0  0  0  0
   38.0130   28.2790   50.8500 F   0  0  0  0  0  0  0  0  0  0  0  0
   37.7960   30.0450   52.2450 F   0  0  0  0  0  0  0  0  0  0  0  0
   38.3070   33.7610   49.2790 C   0  0  0  0  0  0  0  0  0  0  0  0
   39.5810   34.0350   49.9340 C   0  0  0  0  0  0  0  0  0  0  0  0
   39.6330   33.9220   48.4680 C   0  0  0  0  0  0  0  0  0  0  0  0
   34.1095   29.8454   47.4797 H   0  0  0  0  0  0  0  0  0  0  0  0
   33.0609   29.2143   45.3481 H   0  0  0  0  0  0  0  0  0  0  0  0
   34.2546   29.3701   43.1850 H   0  0  0  0  0  0  0  0  0  0  0  0
   36.6342   30.2060   43.2107 H   0  0  0  0  0  0  0  0  0  0  0  0
   39.2595   29.3451   45.6597 H   0  0  0  0  0  0  0  0  0  0  0  0
   39.7703   30.3334   44.2741 H   0  0  0  0  0  0  0  0  0  0  0  0
   39.4868   31.4361   47.1301 H   0  0  0  0  0  0  0  0  0  0  0  0
   41.0262   30.8081   46.4833 H   0  0  0  0  0  0  0  0  0  0  0  0
   40.2735   33.2652   46.2527 H   0  0  0  0  0  0  0  0  0  0  0  0
   39.6922   32.4365   43.5921 H   0  0  0  0  0  0  0  0  0  0  0  0
   39.2270   33.9292   44.5715 H   0  0  0  0  0  0  0  0  0  0  0  0
   37.4730   32.8869   45.5702 H   0  0  0  0  0  0  0  0  0  0  0  0
   37.4095   32.3678   43.8261 H   0  0  0  0  0  0  0  0  0  0  0  0
   38.2513   31.8603   51.1063 H   0  0  0  0  0  0  0  0  0  0  0  0
   37.3201   34.2192   49.4402 H   0  0  0  0  0  0  0  0  0  0  0  0
   39.7437   35.0165   50.4033 H   0  0  0  0  0  0  0  0  0  0  0  0
   40.1306   33.5353   50.7453 H   0  0  0  0  0  0  0  0  0  0  0  0
   40.1049   33.0493   47.9929 H   0  0  0  0  0  0  0  0  0  0  0  0
   39.9823   34.5513   47.6361 H   0  0  0  0  0  0  0  0  0  0  0  0
  1 17  1  0
  2  1  2  0
  3  2  1  0
  4  5  1  0
  4  3  2  0
  5  6  2  0
  6  1  1  0
  7  8  1  0
  7  6  1  0
  8  9  1  0
 10  9  1  0
 11 12  1  0
 11 10  1  0
 12  7  1  0
 13 14  2  0
 13 19  1  0
 15 23  1  0
 15 14  1  0
 16 15  2  0
 17 16  1  0
 17 18  2  0
 18 13  1  0
 19 20  1  0
 19 22  1  0
 21 19  1  0
 23 24  1  0
 25 23  1  0
 25 24  1  0
  2 26  1  0
  3 27  1  0
  4 28  1  0
  5 29  1  0
  8 30  1  0
  8 31  1  0
  9 32  1  0
  9 33  1  0
 10 34  1  0
 11 35  1  0
 11 36  1  0
 12 37  1  0
 12 38  1  0
 14 39  1  0
 23 40  1  0
 24 41  1  0
 24 42  1  0
 25 43  1  0
 25 44  1  0
M  ISO  8  26  14  27  14  28  14  29  14  30  13  31  13  32  13  33  13
M  ISO  8  34   5  35  13  36  13  37  13  38  13  39  14  40  13  41  13
M  ISO  3  42  13  43  13  44  13
M  END
>  <minimizedAffinity>  (1) 
-6.82547665

>  <minimizedRMSD>  (1) 
0.462015361

$$$$
