
     RDKit          3D

 29 31  0  0  0  0  0  0  0  0999 V2000
   31.6240   29.3520   45.5550 O   0  0  0  0  0  0  0  0  0  0  0  0
   31.1790   28.3680   47.6910 N   0  0  0  0  0  0  0  0  0  0  0  0
   30.7900   29.0220   46.5840 C   0  0  0  0  0  0  0  0  0  0  0  0
   29.4580   29.2430   46.7600 N   0  0  0  0  0  0  0  0  0  0  0  0
   29.0650   28.7350   47.9400 C   0  0  0  0  0  0  0  0  0  0  0  0
   27.8650   28.6630   48.6280 C   0  0  0  0  0  0  0  0  0  0  0  0
   27.8360   28.0590   49.8300 N   0  0  0  0  0  0  0  0  0  0  0  0
   28.9200   27.5160   50.3990 C   0  0  0  0  0  0  0  0  0  0  0  0
   30.1190   27.5640   49.7580 N   0  0  0  0  0  0  0  0  0  0  0  0
   30.1620   28.1670   48.5520 C   0  0  0  0  0  0  0  0  0  0  0  0
   26.7230   29.2480   48.0030 N   0  0  0  0  0  0  0  0  0  0  0  0
   34.1630   28.9600   45.3280 O   0  0  0  0  0  0  0  0  0  0  0  0
   33.1390   30.0470   45.6660 P   0  0  1  0  0  0  0  0  0  0  0  0
   33.2880   31.2310   44.4850 O   0  0  0  0  0  0  0  0  0  0  0  0
   33.4980   30.6380   47.2170 O   0  0  0  0  0  0  0  0  0  0  0  0
   36.6640   29.9860   48.8960 C   0  0  0  0  0  0  0  0  0  0  0  0
   36.2720   28.9420   49.7780 C   0  0  0  0  0  0  0  0  0  0  0  0
   34.9330   28.5420   49.7230 C   0  0  0  0  0  0  0  0  0  0  0  0
   34.1060   29.1620   48.8480 N   0  0  0  0  0  0  0  0  0  0  0  0
   34.5040   30.1420   48.0300 C   0  0  0  0  0  0  0  0  0  0  0  0
   35.7950   30.5570   48.0550 N   0  0  0  0  0  0  0  0  0  0  0  0
   32.1454   28.0555   47.8624 H   0  0  0  0  0  0  0  0  0  0  0  0
   28.8410   27.0318   51.3835 H   0  0  0  0  0  0  0  0  0  0  0  0
   25.8075   29.2205   48.4741 H   0  0  0  0  0  0  0  0  0  0  0  0
   26.8144   29.6976   47.0808 H   0  0  0  0  0  0  0  0  0  0  0  0
   33.3993   32.1151   44.9163 H   0  0  0  0  0  0  0  0  0  0  0  0
   37.7079   30.3326   48.9056 H   0  0  0  0  0  0  0  0  0  0  0  0
   36.9867   28.4720   50.4696 H   0  0  0  0  0  0  0  0  0  0  0  0
   34.5593   27.7403   50.3770 H   0  0  0  0  0  0  0  0  0  0  0  0
  1 13  1  0
  1  3  1  0
  2 10  1  0
  3  4  2  0
  3  2  1  0
  4  5  1  0
  5 10  2  0
  5  6  1  0
  6  7  2  0
  7  8  1  0
  9  8  2  0
 10  9  1  0
 11  6  1  0
 13 12  2  0
 13 15  1  0
 14 13  1  0
 15 20  1  0
 16 17  2  0
 18 17  1  0
 19 18  2  0
 20 21  2  0
 20 19  1  0
 21 16  1  0
  2 22  1  0
  8 23  1  0
 11 24  1  0
 11 25  1  0
 14 26  1  0
 16 27  1  0
 17 28  1  0
 18 29  1  0
M  ISO  6  22   9  23  14  26   3  27  14  28  14  29  14
M  END
>  <minimizedAffinity>  (1) 
-4.97574091

>  <minimizedRMSD>  (1) 
4.1430068

$$$$
