
     RDKit          3D

 26 27  0  0  0  0  0  0  0  0999 V2000
   32.4210   28.0470   49.0120 O   0  0  0  0  0  0  0  0  0  0  0  0
   33.8270   28.2890   48.4520 P   0  0  2  0  0  0  0  0  0  0  0  0
   34.0770   27.1340   47.2620 O   0  0  0  0  0  0  0  0  0  0  0  0
   34.9120   28.1080   49.7540 O   0  0  0  0  0  0  0  0  0  0  0  0
   37.2930   30.3190   51.4200 C   0  0  0  0  0  0  0  0  0  0  0  0
   38.0400   30.7630   50.2910 C   0  0  0  0  0  0  0  0  0  0  0  0
   37.6700   30.2680   49.0340 C   0  0  0  0  0  0  0  0  0  0  0  0
   36.6310   29.4020   48.9550 N   0  0  0  0  0  0  0  0  0  0  0  0
   35.9390   28.9960   50.0390 C   0  0  0  0  0  0  0  0  0  0  0  0
   36.2740   29.4580   51.2660 N   0  0  0  0  0  0  0  0  0  0  0  0
   33.8510   29.8170   47.7870 O   0  0  0  0  0  0  0  0  0  0  0  0
   31.6460   30.3090   46.3250 F   0  0  0  0  0  0  0  0  0  0  0  0
   32.8680   30.2810   45.7080 C   0  0  0  0  0  0  0  0  0  0  0  0
   34.0350   30.0310   46.4290 C   0  0  0  0  0  0  0  0  0  0  0  0
   35.2500   30.0100   45.7800 C   0  0  0  0  0  0  0  0  0  0  0  0
   35.3040   30.2390   44.4150 C   0  0  0  0  0  0  0  0  0  0  0  0
   34.1390   30.4860   43.7140 C   0  0  0  0  0  0  0  0  0  0  0  0
   32.9030   30.5140   44.3350 C   0  0  0  0  0  0  0  0  0  0  0  0
   34.2663   26.2594   47.6855 H   0  0  0  0  0  0  0  0  0  0  0  0
   37.5527   30.6839   52.4247 H   0  0  0  0  0  0  0  0  0  0  0  0
   38.8765   31.4686   50.4024 H   0  0  0  0  0  0  0  0  0  0  0  0
   38.2126   30.5765   48.1282 H   0  0  0  0  0  0  0  0  0  0  0  0
   36.1737   29.8121   46.3436 H   0  0  0  0  0  0  0  0  0  0  0  0
   36.2709   30.2243   43.8908 H   0  0  0  0  0  0  0  0  0  0  0  0
   34.1960   30.6657   42.6303 H   0  0  0  0  0  0  0  0  0  0  0  0
   31.9827   30.7127   43.7661 H   0  0  0  0  0  0  0  0  0  0  0  0
  2  1  2  0
  2  4  1  0
  3  2  1  0
  4  9  1  0
  6  5  2  0
  7  6  1  0
  8  7  2  0
  8  9  1  0
  9 10  2  0
 10  5  1  0
 11  2  1  0
 13 12  1  0
 13 14  2  0
 14 11  1  0
 15 14  1  0
 16 15  2  0
 17 18  2  0
 17 16  1  0
 18 13  1  0
  3 19  1  0
  5 20  1  0
  6 21  1  0
  7 22  1  0
 15 23  1  0
 16 24  1  0
 17 25  1  0
 18 26  1  0
M  ISO  8  19   3  20  14  21  14  22  14  23  14  24  14  25  14  26  14
M  END
>  <minimizedAffinity>  (1) 
-4.47340202

>  <minimizedRMSD>  (1) 
2.06835485

$$$$
