
     RDKit          3D

 27 28  0  0  1  0  0  0  0  0999 V2000
   34.5260   30.5640   49.3370 O   0  0  0  0  0  0  0  0  0  0  0  0
   35.2180   29.3160   48.8000 P   0  0  2  0  0  0  0  0  0  0  0  0
   34.5740   28.0060   49.6300 O   0  0  0  0  0  0  0  0  0  0  0  0
   36.8920   29.4900   49.0560 O   0  0  0  0  0  0  0  0  0  0  0  0
   38.4390   32.7830   49.4340 C   0  0  0  0  0  0  0  0  0  0  0  0
   39.0310   32.9170   48.1520 C   0  0  0  0  0  0  0  0  0  0  0  0
   38.8570   31.8650   47.2470 C   0  0  0  0  0  0  0  0  0  0  0  0
   38.1330   30.7710   47.6360 N   0  0  0  0  0  0  0  0  0  0  0  0
   37.5830   30.6760   48.8630 C   0  0  0  0  0  0  0  0  0  0  0  0
   37.7360   31.6820   49.7630 N   0  0  0  0  0  0  0  0  0  0  0  0
   34.7940   29.1930   47.1810 O   0  0  0  0  0  0  0  0  0  0  0  0
   33.5960   29.8250   46.8840 C   0  0  1  0  0  0  0  0  0  0  0  0
   33.5200   30.2850   45.4560 C   0  0  0  0  0  0  0  0  0  0  0  0
   32.1370   29.8180   45.0300 C   0  0  0  0  0  0  0  0  0  0  0  0
   31.4940   29.4140   46.2010 O   0  0  0  0  0  0  0  0  0  0  0  0
   32.5120   28.7650   46.9140 C   0  0  0  0  0  0  0  0  0  0  0  0
   34.6510   28.1626   50.6045 H   0  0  0  0  0  0  0  0  0  0  0  0
   38.5558   33.5910   50.1713 H   0  0  0  0  0  0  0  0  0  0  0  0
   39.6054   33.8147   47.8798 H   0  0  0  0  0  0  0  0  0  0  0  0
   39.2949   31.9162   46.2392 H   0  0  0  0  0  0  0  0  0  0  0  0
   33.4988   30.6621   47.5910 H   0  0  0  0  0  0  0  0  0  0  0  0
   33.6086   31.3792   45.3861 H   0  0  0  0  0  0  0  0  0  0  0  0
   34.3292   29.8885   44.8251 H   0  0  0  0  0  0  0  0  0  0  0  0
   31.5844   30.6416   44.5543 H   0  0  0  0  0  0  0  0  0  0  0  0
   32.1942   28.9999   44.2969 H   0  0  0  0  0  0  0  0  0  0  0  0
   32.8341   27.8415   46.4106 H   0  0  0  0  0  0  0  0  0  0  0  0
   32.2238   28.4351   47.9230 H   0  0  0  0  0  0  0  0  0  0  0  0
  2  4  1  0
  2  1  2  0
  2  3  1  0
  5 10  2  0
  6  5  1  0
  7  8  1  0
  7  6  2  0
  8  9  2  0
  9  4  1  0
  9 10  1  0
 11  2  1  0
 12 16  1  0
 12 11  1  0
 13 12  1  0
 14 13  1  0
 14 15  1  0
 15 16  1  0
  3 17  1  0
  5 18  1  0
  6 19  1  0
  7 20  1  0
 12 21  1  1
 13 22  1  0
 13 23  1  0
 14 24  1  0
 14 25  1  0
 16 26  1  0
 16 27  1  0
M  ISO  8  17   3  18  14  19  14  20  14  21  13  22  13  23  13  24  13
M  ISO  3  25  13  26  13  27  13
M  END
>  <minimizedAffinity>  (1) 
-4.01592779

>  <minimizedRMSD>  (1) 
2.4992547

$$$$
