
     RDKit          3D

 27 29  0  0  0  0  0  0  0  0999 V2000
   37.7120   31.5460   46.7200 C   0  0  0  0  0  0  0  0  0  0  0  0
   36.6780   30.6520   46.4620 C   0  0  0  0  0  0  0  0  0  0  0  0
   36.3660   30.3340   45.1510 C   0  0  0  0  0  0  0  0  0  0  0  0
   37.0310   30.8580   44.0550 C   0  0  0  0  0  0  0  0  0  0  0  0
   38.0660   31.7550   44.3400 C   0  0  0  0  0  0  0  0  0  0  0  0
   38.7060   32.2580   43.2250 C   0  0  0  0  0  0  0  0  0  0  0  0
   39.7440   33.1560   43.4960 C   0  0  0  0  0  0  0  0  0  0  0  0
   40.1290   33.5350   44.7710 C   0  0  0  0  0  0  0  0  0  0  0  0
   39.4270   32.9770   45.8180 C   0  0  0  0  0  0  0  0  0  0  0  0
   38.3910   32.0840   45.6390 C   0  0  0  0  0  0  0  0  0  0  0  0
   38.1580   31.9930   48.3830 S   0  0  0  0  0  0  0  0  0  0  0  0
   37.2140   29.7560   51.6560 C   0  0  0  0  0  0  0  0  0  0  0  0
   37.9600   30.5460   50.7820 C   0  0  0  0  0  0  0  0  0  0  0  0
   37.3600   30.9810   49.6090 C   0  0  0  0  0  0  0  0  0  0  0  0
   36.0620   30.6130   49.3620 N   0  0  0  0  0  0  0  0  0  0  0  0
   35.3780   29.8500   50.2280 C   0  0  0  0  0  0  0  0  0  0  0  0
   35.9440   29.4230   51.3680 N   0  0  0  0  0  0  0  0  0  0  0  0
   36.1134   30.2018   47.2918 H   0  0  0  0  0  0  0  0  0  0  0  0
   35.5441   29.6257   44.9699 H   0  0  0  0  0  0  0  0  0  0  0  0
   36.7619   30.5856   43.0238 H   0  0  0  0  0  0  0  0  0  0  0  0
   38.4214   31.9742   42.2011 H   0  0  0  0  0  0  0  0  0  0  0  0
   40.2882   33.5879   42.6432 H   0  0  0  0  0  0  0  0  0  0  0  0
   40.9524   34.2446   44.9397 H   0  0  0  0  0  0  0  0  0  0  0  0
   39.7061   33.2570   46.8445 H   0  0  0  0  0  0  0  0  0  0  0  0
   37.6701   29.4012   52.5920 H   0  0  0  0  0  0  0  0  0  0  0  0
   38.9996   30.8179   51.0170 H   0  0  0  0  0  0  0  0  0  0  0  0
   34.3387   29.5703   50.0007 H   0  0  0  0  0  0  0  0  0  0  0  0
  1 11  1  0
  2  1  2  0
  3  2  1  0
  4  5  1  0
  4  3  2  0
  5 10  2  0
  6  7  2  0
  6  5  1  0
  7  8  1  0
  8  9  2  0
 10  9  1  0
 10  1  1  0
 11 14  1  0
 13 12  2  0
 14 13  1  0
 15 14  2  0
 15 16  1  0
 16 17  2  0
 17 12  1  0
  2 18  1  0
  3 19  1  0
  4 20  1  0
  6 21  1  0
  7 22  1  0
  8 23  1  0
  9 24  1  0
 12 25  1  0
 13 26  1  0
 16 27  1  0
M  ISO  8  18  14  19  14  20  14  21  14  22  14  23  14  24  14  25  14
M  ISO  2  26  14  27  14
M  END
>  <minimizedAffinity>  (1) 
-5.35335541

>  <minimizedRMSD>  (1) 
1.67229068

$$$$
