
     RDKit          3D

 24 26  0  0  0  0  0  0  0  0999 V2000
   36.0300   30.0900   49.5620 C   0  0  0  0  0  0  0  0  0  0  0  0
   35.1590   29.4050   48.6330 C   0  0  0  0  0  0  0  0  0  0  0  0
   34.5770   30.4920   49.4720 C   0  0  0  0  0  0  0  0  0  0  0  0
   37.9830   33.2140   49.3260 C   0  0  0  0  0  0  0  0  0  0  0  0
   38.8920   32.9710   48.2910 C   0  0  0  0  0  0  0  0  0  0  0  0
   38.8340   31.7140   47.6720 C   0  0  0  0  0  0  0  0  0  0  0  0
   37.9060   30.8430   48.1240 N   0  0  0  0  0  0  0  0  0  0  0  0
   37.0380   31.0990   49.1250 C   0  0  0  0  0  0  0  0  0  0  0  0
   37.0820   32.3000   49.7290 N   0  0  0  0  0  0  0  0  0  0  0  0
   36.3650   29.4730   50.9180 C   0  0  0  0  0  0  0  0  0  0  0  0
   37.3890   30.1000   51.7730 C   0  0  0  0  0  0  0  0  0  0  0  0
   37.6280   28.7460   51.1270 C   0  0  0  0  0  0  0  0  0  0  0  0
   34.8750   28.3593   48.8224 H   0  0  0  0  0  0  0  0  0  0  0  0
   35.1952   29.2072   47.5515 H   0  0  0  0  0  0  0  0  0  0  0  0
   34.2925   31.4531   49.0188 H   0  0  0  0  0  0  0  0  0  0  0  0
   33.7364   30.5853   50.1753 H   0  0  0  0  0  0  0  0  0  0  0  0
   38.0058   34.1913   49.8304 H   0  0  0  0  0  0  0  0  0  0  0  0
   39.6206   33.7327   47.9763 H   0  0  0  0  0  0  0  0  0  0  0  0
   39.5167   31.4481   46.8515 H   0  0  0  0  0  0  0  0  0  0  0  0
   35.3060   29.2064   51.0499 H   0  0  0  0  0  0  0  0  0  0  0  0
   37.9375   30.9857   51.4200 H   0  0  0  0  0  0  0  0  0  0  0  0
   37.4190   30.4957   52.7989 H   0  0  0  0  0  0  0  0  0  0  0  0
   37.6459   27.8350   51.7433 H   0  0  0  0  0  0  0  0  0  0  0  0
   38.4012   28.3149   50.4741 H   0  0  0  0  0  0  0  0  0  0  0  0
  1 10  1  0
  2  3  1  0
  2  1  1  0
  3  1  1  0
  4  9  2  0
  5  4  1  0
  6  7  1  0
  6  5  2  0
  7  8  2  0
  8  1  1  0
  8  9  1  0
 10 12  1  0
 10 11  1  0
 12 11  1  0
  2 13  1  0
  2 14  1  0
  3 15  1  0
  3 16  1  0
  4 17  1  0
  5 18  1  0
  6 19  1  0
 10 20  1  0
 11 21  1  0
 11 22  1  0
 12 23  1  0
 12 24  1  0
M  ISO  8  13  13  14  13  15  13  16  13  17  14  18  14  19  14  20  13
M  ISO  4  21  13  22  13  23  13  24  13
M  END
>  <minimizedAffinity>  (1) 
-4.94904661

>  <minimizedRMSD>  (1) 
1.5881542

$$$$
