
     RDKit          3D

 25 26  0  0  0  0  0  0  0  0999 V2000
   38.3280   32.0930   49.0430 C   0  0  0  0  0  0  0  0  0  0  0  0
   37.5080   33.1330   49.6930 C   0  0  0  0  0  0  0  0  0  0  0  0
   38.9990   33.3100   49.5580 C   0  0  0  0  0  0  0  0  0  0  0  0
   39.1620   32.2910   45.4230 C   0  0  0  0  0  0  0  0  0  0  0  0
   38.1800   31.4740   44.8530 C   0  0  0  0  0  0  0  0  0  0  0  0
   37.2240   30.8570   45.7090 C   0  0  0  0  0  0  0  0  0  0  0  0
   37.3320   31.1030   47.0290 N   0  0  0  0  0  0  0  0  0  0  0  0
   38.2870   31.8940   47.5600 C   0  0  0  0  0  0  0  0  0  0  0  0
   39.1950   32.4840   46.7720 N   0  0  0  0  0  0  0  0  0  0  0  0
   38.6710   30.8770   49.7480 N   0  0  0  0  0  0  0  0  0  0  0  0
   37.3850   30.0800   50.5100 S   0  0  0  0  0  0  0  0  0  0  0  0
   37.2630   30.3640   51.9580 O   0  0  0  0  0  0  0  0  0  0  0  0
   37.6680   28.5870   50.4020 O   0  0  0  0  0  0  0  0  0  0  0  0
   35.9230   30.2960   49.6970 O   0  0  0  0  0  0  0  0  0  0  0  0
   36.8231   33.7500   49.0928 H   0  0  0  0  0  0  0  0  0  0  0  0
   36.7922   33.1537   50.5280 H   0  0  0  0  0  0  0  0  0  0  0  0
   39.6450   33.2506   50.4463 H   0  0  0  0  0  0  0  0  0  0  0  0
   39.6608   34.0787   49.1323 H   0  0  0  0  0  0  0  0  0  0  0  0
   39.9098   32.7792   44.7807 H   0  0  0  0  0  0  0  0  0  0  0  0
   38.1470   31.3115   43.7656 H   0  0  0  0  0  0  0  0  0  0  0  0
   36.4313   30.2073   45.3096 H   0  0  0  0  0  0  0  0  0  0  0  0
   39.0892   30.2251   49.0690 H   0  0  0  0  0  0  0  0  0  0  0  0
   37.5961   29.5886   52.4756 H   0  0  0  0  0  0  0  0  0  0  0  0
   37.7416   28.1986   51.3096 H   0  0  0  0  0  0  0  0  0  0  0  0
   35.1919   30.4040   50.3557 H   0  0  0  0  0  0  0  0  0  0  0  0
  1  3  1  0
  1  2  1  0
  1 10  1  0
  3  2  1  0
  4  9  2  0
  5  4  1  0
  5  6  2  0
  6  7  1  0
  7  8  2  0
  8  1  1  0
  9  8  1  0
 10 11  1  0
 11 12  1  0
 13 11  1  0
 14 11  1  0
  2 15  1  0
  2 16  1  0
  3 17  1  0
  3 18  1  0
  4 19  1  0
  5 20  1  0
  6 21  1  0
 10 22  1  0
 12 23  1  0
 13 24  1  0
 14 25  1  0
M  ISO  8  15  13  16  13  17  13  18  13  19  14  20  14  21  14  22   5
M  ISO  3  23   3  24   3  25   3
M  END
>  <minimizedAffinity>  (1) 
-4.57529163

>  <minimizedRMSD>  (1) 
3.44287372

$$$$
