
     RDKit          3D

 21 22  0  0  0  0  0  0  0  0999 V2000
   37.8750   30.6440   47.4970 S   0  0  0  0  0  0  0  0  0  0  0  0
   39.3090   34.0830   49.1360 C   0  0  0  0  0  0  0  0  0  0  0  0
   38.5880   32.8940   49.0330 C   0  0  0  0  0  0  0  0  0  0  0  0
   38.7030   32.1860   47.8490 C   0  0  0  0  0  0  0  0  0  0  0  0
   39.5030   32.6800   46.8580 N   0  0  0  0  0  0  0  0  0  0  0  0
   40.1880   33.8380   46.9940 C   0  0  0  0  0  0  0  0  0  0  0  0
   40.0900   34.5370   48.1340 N   0  0  0  0  0  0  0  0  0  0  0  0
   34.6320   30.1070   47.4990 Br  0  0  0  0  0  0  0  0  0  0  0  0
   35.6200   29.8770   49.0840 C   0  0  0  0  0  0  0  0  0  0  0  0
   36.9850   30.1330   48.9590 C   0  0  0  0  0  0  0  0  0  0  0  0
   37.8180   29.9980   50.0610 C   0  0  0  0  0  0  0  0  0  0  0  0
   37.3310   29.6080   51.3030 C   0  0  0  0  0  0  0  0  0  0  0  0
   35.9700   29.3550   51.4160 C   0  0  0  0  0  0  0  0  0  0  0  0
   35.1420   29.4900   50.3190 C   0  0  0  0  0  0  0  0  0  0  0  0
   39.2388   34.6696   50.0639 H   0  0  0  0  0  0  0  0  0  0  0  0
   37.9549   32.5340   49.8573 H   0  0  0  0  0  0  0  0  0  0  0  0
   40.8224   34.2046   46.1735 H   0  0  0  0  0  0  0  0  0  0  0  0
   38.8924   30.2052   49.9484 H   0  0  0  0  0  0  0  0  0  0  0  0
   38.0018   29.5031   52.1685 H   0  0  0  0  0  0  0  0  0  0  0  0
   35.5495   29.0455   52.3842 H   0  0  0  0  0  0  0  0  0  0  0  0
   34.0678   29.2825   50.4335 H   0  0  0  0  0  0  0  0  0  0  0  0
  1  4  1  0
  1 10  1  0
  3  2  2  0
  4  3  1  0
  5  6  1  0
  5  4  2  0
  6  7  2  0
  7  2  1  0
  8  9  1  0
  9 14  2  0
 10  9  1  0
 10 11  2  0
 11 12  1  0
 12 13  2  0
 14 13  1  0
  2 15  1  0
  3 16  1  0
  6 17  1  0
 11 18  1  0
 12 19  1  0
 13 20  1  0
 14 21  1  0
M  ISO  7  15  14  16  14  17  14  18  14  19  14  20  14  21  14
M  END
>  <minimizedAffinity>  (1) 
-5.24547958

>  <minimizedRMSD>  (1) 
5.40555668

$$$$
