
     RDKit          3D

 24 26  0  0  0  0  0  0  0  0999 V2000
   36.0350   30.2460   48.2950 C   0  0  0  0  0  0  0  0  0  0  0  0
   35.1140   29.1910   47.9150 C   0  0  0  0  0  0  0  0  0  0  0  0
   34.5850   30.5580   48.2030 C   0  0  0  0  0  0  0  0  0  0  0  0
   38.7330   32.3380   46.8450 C   0  0  0  0  0  0  0  0  0  0  0  0
   38.5890   32.1230   45.4670 C   0  0  0  0  0  0  0  0  0  0  0  0
   37.5660   31.2600   45.0450 C   0  0  0  0  0  0  0  0  0  0  0  0
   36.7810   30.6890   45.9990 N   0  0  0  0  0  0  0  0  0  0  0  0
   36.9490   30.9190   47.3230 C   0  0  0  0  0  0  0  0  0  0  0  0
   37.9200   31.7400   47.7510 N   0  0  0  0  0  0  0  0  0  0  0  0
   36.6900   30.0980   49.6260 C   0  0  0  0  0  0  0  0  0  0  0  0
   37.1050   30.9870   50.6070 C   0  0  0  0  0  0  0  0  0  0  0  0
   37.6450   30.2520   51.6060 N   0  0  0  0  0  0  0  0  0  0  0  0
   37.5780   28.9310   51.2780 C   0  0  0  0  0  0  0  0  0  0  0  0
   36.9920   28.8450   50.0640 N   0  0  0  0  0  0  0  0  0  0  0  0
   34.9083   28.3653   48.6121 H   0  0  0  0  0  0  0  0  0  0  0  0
   35.0410   28.4955   47.0659 H   0  0  0  0  0  0  0  0  0  0  0  0
   34.2041   31.1888   47.3863 H   0  0  0  0  0  0  0  0  0  0  0  0
   33.8265   30.9834   48.8765 H   0  0  0  0  0  0  0  0  0  0  0  0
   39.5274   33.0103   47.2012 H   0  0  0  0  0  0  0  0  0  0  0  0
   39.2548   32.6138   44.7418 H   0  0  0  0  0  0  0  0  0  0  0  0
   37.4037   31.0517   43.9772 H   0  0  0  0  0  0  0  0  0  0  0  0
   37.0124   32.0827   50.5779 H   0  0  0  0  0  0  0  0  0  0  0  0
   38.0437   30.6309   52.4768 H   0  0  0  0  0  0  0  0  0  0  0  0
   37.9354   28.0894   51.8895 H   0  0  0  0  0  0  0  0  0  0  0  0
  1 10  1  0
  2  3  1  0
  2  1  1  0
  3  1  1  0
  4  9  2  0
  5  4  1  0
  6  5  2  0
  6  7  1  0
  7  8  2  0
  8  9  1  0
  8  1  1  0
 10 14  1  0
 10 11  2  0
 11 12  1  0
 13 12  1  0
 14 13  2  0
  2 15  1  0
  2 16  1  0
  3 17  1  0
  3 18  1  0
  4 19  1  0
  5 20  1  0
  6 21  1  0
 11 22  1  0
 12 23  1  0
 13 24  1  0
M  ISO  8  15  13  16  13  17  13  18  13  19  14  20  14  21  14  22  14
M  ISO  2  23   9  24  14
M  END
>  <minimizedAffinity>  (1) 
-4.27682734

>  <minimizedRMSD>  (1) 
2.87739706

$$$$
