
     RDKit          3D

 29 31  0  0  0  0  0  0  0  0999 V2000
   37.2620   30.8370   46.1800 C   0  0  0  0  0  0  0  0  0  0  0  0
   36.6650   29.6530   45.5300 C   0  0  0  0  0  0  0  0  0  0  0  0
   36.0330   30.9990   45.3370 C   0  0  0  0  0  0  0  0  0  0  0  0
   39.5900   33.2350   44.5950 C   0  0  0  0  0  0  0  0  0  0  0  0
   40.8390   32.6030   44.7600 C   0  0  0  0  0  0  0  0  0  0  0  0
   40.8750   31.3490   45.4160 C   0  0  0  0  0  0  0  0  0  0  0  0
   39.6990   30.8170   45.8510 N   0  0  0  0  0  0  0  0  0  0  0  0
   38.5050   31.4580   45.6730 C   0  0  0  0  0  0  0  0  0  0  0  0
   38.4540   32.6480   45.0530 N   0  0  0  0  0  0  0  0  0  0  0  0
   37.1180   30.9930   47.6650 C   0  0  0  0  0  0  0  0  0  0  0  0
   37.8230   31.9300   48.3460 C   0  0  0  0  0  0  0  0  0  0  0  0
   37.6740   32.0790   49.7160 C   0  0  0  0  0  0  0  0  0  0  0  0
   36.7800   31.2380   50.3730 C   0  0  0  0  0  0  0  0  0  0  0  0
   36.0570   30.2730   49.6690 C   0  0  0  0  0  0  0  0  0  0  0  0
   36.2600   30.1950   48.3420 N   0  0  0  0  0  0  0  0  0  0  0  0
   35.0950   29.3560   50.3420 C   0  0  0  0  0  0  0  0  0  0  0  0
   35.0390   28.1100   49.7470 F   0  0  0  0  0  0  0  0  0  0  0  0
   33.8180   29.8770   50.4050 F   0  0  0  0  0  0  0  0  0  0  0  0
   35.4820   29.1010   51.6570 F   0  0  0  0  0  0  0  0  0  0  0  0
   37.1856   29.1661   44.6922 H   0  0  0  0  0  0  0  0  0  0  0  0
   36.3094   28.6730   45.8810 H   0  0  0  0  0  0  0  0  0  0  0  0
   36.0944   31.5037   44.3616 H   0  0  0  0  0  0  0  0  0  0  0  0
   35.0291   31.4223   45.4885 H   0  0  0  0  0  0  0  0  0  0  0  0
   39.5348   34.2114   44.0913 H   0  0  0  0  0  0  0  0  0  0  0  0
   41.7620   33.0721   44.3886 H   0  0  0  0  0  0  0  0  0  0  0  0
   41.8264   30.8189   45.5702 H   0  0  0  0  0  0  0  0  0  0  0  0
   38.5236   32.5815   47.8031 H   0  0  0  0  0  0  0  0  0  0  0  0
   38.2455   32.8396   50.2681 H   0  0  0  0  0  0  0  0  0  0  0  0
   36.6415   31.3349   51.4599 H   0  0  0  0  0  0  0  0  0  0  0  0
  1 10  1  0
  2  1  1  0
  3  2  1  0
  3  1  1  0
  4  5  2  0
  4  9  1  0
  5  6  1  0
  6  7  2  0
  8  7  1  0
  8  1  1  0
  9  8  2  0
 10 15  1  0
 10 11  2  0
 11 12  1  0
 12 13  2  0
 14 16  1  0
 14 13  1  0
 15 14  2  0
 16 18  1  0
 16 19  1  0
 17 16  1  0
  2 20  1  0
  2 21  1  0
  3 22  1  0
  3 23  1  0
  4 24  1  0
  5 25  1  0
  6 26  1  0
 11 27  1  0
 12 28  1  0
 13 29  1  0
M  ISO  8  20  13  21  13  22  13  23  13  24  14  25  14  26  14  27  14
M  ISO  2  28  14  29  14
M  END
>  <minimizedAffinity>  (1) 
-5.48752403

>  <minimizedRMSD>  (1) 
2.43625045

$$$$
