
     RDKit          3D

 32 34  0  0  0  0  0  0  0  0999 V2000
   37.2520   30.8500   45.8790 C   0  0  0  0  0  0  0  0  0  0  0  0
   36.7180   29.7090   45.1060 C   0  0  0  0  0  0  0  0  0  0  0  0
   36.1270   31.0790   44.9200 C   0  0  0  0  0  0  0  0  0  0  0  0
   39.7700   33.3160   44.7580 C   0  0  0  0  0  0  0  0  0  0  0  0
   40.9830   32.6290   44.9600 C   0  0  0  0  0  0  0  0  0  0  0  0
   40.9240   31.3150   45.4800 C   0  0  0  0  0  0  0  0  0  0  0  0
   39.7090   30.7780   45.7590 N   0  0  0  0  0  0  0  0  0  0  0  0
   38.5470   31.4770   45.5500 C   0  0  0  0  0  0  0  0  0  0  0  0
   38.5760   32.7310   45.0550 N   0  0  0  0  0  0  0  0  0  0  0  0
   36.9560   30.9150   47.3500 C   0  0  0  0  0  0  0  0  0  0  0  0
   37.7010   31.6810   48.1840 C   0  0  0  0  0  0  0  0  0  0  0  0
   37.4150   31.7400   49.5430 C   0  0  0  0  0  0  0  0  0  0  0  0
   36.3430   30.9890   50.0180 C   0  0  0  0  0  0  0  0  0  0  0  0
   35.5830   30.2030   49.1530 C   0  0  0  0  0  0  0  0  0  0  0  0
   35.9250   30.2020   47.8560 N   0  0  0  0  0  0  0  0  0  0  0  0
   34.4530   29.4230   49.7200 C   0  0  0  0  0  0  0  0  0  0  0  0
   34.3520   28.0540   49.1430 C   0  0  0  0  0  0  0  0  0  0  0  0
   37.3216   29.2576   44.3048 H   0  0  0  0  0  0  0  0  0  0  0  0
   36.3155   28.7179   45.3623 H   0  0  0  0  0  0  0  0  0  0  0  0
   36.3011   31.6338   43.9863 H   0  0  0  0  0  0  0  0  0  0  0  0
   35.1181   31.5124   44.9851 H   0  0  0  0  0  0  0  0  0  0  0  0
   39.7870   34.3393   44.3548 H   0  0  0  0  0  0  0  0  0  0  0  0
   41.9475   33.1005   44.7204 H   0  0  0  0  0  0  0  0  0  0  0  0
   41.8449   30.7394   45.6549 H   0  0  0  0  0  0  0  0  0  0  0  0
   38.5424   32.2632   47.7803 H   0  0  0  0  0  0  0  0  0  0  0  0
   38.0172   32.3610   50.2225 H   0  0  0  0  0  0  0  0  0  0  0  0
   36.0927   31.0162   51.0888 H   0  0  0  0  0  0  0  0  0  0  0  0
   34.5956   29.3368   50.8073 H   0  0  0  0  0  0  0  0  0  0  0  0
   33.5238   29.9570   49.4723 H   0  0  0  0  0  0  0  0  0  0  0  0
   34.2976   27.3161   49.9570 H   0  0  0  0  0  0  0  0  0  0  0  0
   33.4462   27.9834   48.5229 H   0  0  0  0  0  0  0  0  0  0  0  0
   35.2376   27.8512   48.5229 H   0  0  0  0  0  0  0  0  0  0  0  0
  1 10  1  0
  2  1  1  0
  3  2  1  0
  3  1  1  0
  4  5  2  0
  4  9  1  0
  5  6  1  0
  6  7  2  0
  8  7  1  0
  8  1  1  0
  9  8  2  0
 10 15  1  0
 10 11  2  0
 11 12  1  0
 12 13  2  0
 14 16  1  0
 14 13  1  0
 15 14  2  0
 17 16  1  0
  2 18  1  0
  2 19  1  0
  3 20  1  0
  3 21  1  0
  4 22  1  0
  5 23  1  0
  6 24  1  0
 11 25  1  0
 12 26  1  0
 13 27  1  0
 16 28  1  0
 16 29  1  0
 17 30  1  0
 17 31  1  0
 17 32  1  0
M  ISO  8  18  13  19  13  20  13  21  13  22  14  23  14  24  14  25  14
M  ISO  7  26  14  27  14  28   8  29   8  30   8  31   8  32   8
M  END
>  <minimizedAffinity>  (1) 
-4.8965559

>  <minimizedRMSD>  (1) 
2.69160509

$$$$
