
     RDKit          3D

 39 42  0  0  1  0  0  0  0  0999 V2000
   36.4520   29.5590   43.9040 C   0  0  0  0  0  0  0  0  0  0  0  0
   36.4830   28.5330   43.0200 C   0  0  0  0  0  0  0  0  0  0  0  0
   37.6520   28.2170   42.3400 C   0  0  0  0  0  0  0  0  0  0  0  0
   38.7860   28.9840   42.5960 C   0  0  0  0  0  0  0  0  0  0  0  0
   38.7460   30.0380   43.5080 C   0  0  0  0  0  0  0  0  0  0  0  0
   37.5790   30.2790   44.1220 N   0  0  0  0  0  0  0  0  0  0  0  0
   35.1910   29.9180   44.6390 C   0  0  0  0  0  0  0  0  0  0  0  0
   34.5590   28.8920   45.4960 C   0  0  0  0  0  0  0  0  0  0  0  0
   35.2610   30.0610   46.1300 C   0  0  0  0  0  0  0  0  0  0  0  0
   34.2640   32.6930   42.3770 C   0  0  0  0  0  0  0  0  0  0  0  0
   32.8670   32.7620   42.5320 C   0  0  0  0  0  0  0  0  0  0  0  0
   32.2500   31.8510   43.4230 C   0  0  0  0  0  0  0  0  0  0  0  0
   33.0340   30.9560   44.0830 N   0  0  0  0  0  0  0  0  0  0  0  0
   34.3880   30.9200   43.9070 C   0  0  0  0  0  0  0  0  0  0  0  0
   34.9960   31.7770   43.0660 N   0  0  0  0  0  0  0  0  0  0  0  0
   40.0520   31.3210   45.1620 C   0  0  2  0  0  0  0  0  0  0  0  0
   39.9770   30.8350   43.7550 C   0  0  2  0  0  0  0  0  0  0  0  0
   40.0680   31.9250   42.8990 O   0  0  0  0  0  0  0  0  0  0  0  0
   39.6930   33.0370   43.6150 C   0  0  0  0  0  0  0  0  0  0  0  0
   40.3180   32.8040   44.9800 C   0  0  1  0  0  0  0  0  0  0  0  0
   41.0310   30.6890   45.9300 O   0  0  0  0  0  0  0  0  0  0  0  0
   39.5820   33.5260   45.8890 O   0  0  0  0  0  0  0  0  0  0  0  0
   35.5721   27.9436   42.8387 H   0  0  0  0  0  0  0  0  0  0  0  0
   37.6814   27.3855   41.6205 H   0  0  0  0  0  0  0  0  0  0  0  0
   39.7256   28.7553   42.0718 H   0  0  0  0  0  0  0  0  0  0  0  0
   33.4626   28.8174   45.5454 H   0  0  0  0  0  0  0  0  0  0  0  0
   34.6388   27.7984   45.5841 H   0  0  0  0  0  0  0  0  0  0  0  0
   36.2162   29.9136   46.6552 H   0  0  0  0  0  0  0  0  0  0  0  0
   34.9864   30.8401   46.8563 H   0  0  0  0  0  0  0  0  0  0  0  0
   34.7698   33.3880   41.6906 H   0  0  0  0  0  0  0  0  0  0  0  0
   32.2718   33.5021   41.9771 H   0  0  0  0  0  0  0  0  0  0  0  0
   31.1611   31.8664   43.5782 H   0  0  0  0  0  0  0  0  0  0  0  0
   39.1365   31.1014   45.7309 H   0  0  0  0  0  0  0  0  0  0  0  0
   40.8197   30.1544   43.5637 H   0  0  0  0  0  0  0  0  0  0  0  0
   40.0872   33.9541   43.1529 H   0  0  0  0  0  0  0  0  0  0  0  0
   38.6022   33.1715   43.6594 H   0  0  0  0  0  0  0  0  0  0  0  0
   41.3756   33.0854   45.0905 H   0  0  0  0  0  0  0  0  0  0  0  0
   40.8310   30.8181   46.8909 H   0  0  0  0  0  0  0  0  0  0  0  0
   39.8459   33.2671   46.8074 H   0  0  0  0  0  0  0  0  0  0  0  0
  1  6  1  0
  1  7  1  0
  2  1  2  0
  3  4  2  0
  3  2  1  0
  4  5  1  0
  5  6  2  0
  7  8  1  0
  7  9  1  0
  8  9  1  0
 10 11  2  0
 10 15  1  0
 11 12  1  0
 12 13  2  0
 14 13  1  0
 14  7  1  0
 15 14  2  0
 16 21  1  0
 17  5  1  0
 17 16  1  0
 18 19  1  0
 18 17  1  0
 19 20  1  0
 20 16  1  0
 20 22  1  0
  2 23  1  0
  3 24  1  0
  4 25  1  0
  8 26  1  0
  8 27  1  0
  9 28  1  0
  9 29  1  0
 10 30  1  0
 11 31  1  0
 12 32  1  0
 16 33  1  1
 17 34  1  6
 19 35  1  0
 19 36  1  0
 20 37  1  6
 21 38  1  0
 22 39  1  0
M  ISO  8  23  14  24  14  25  14  26  13  27  13  28  13  29  13  30  14
M  ISO  8  31  14  32  14  33  13  34  13  35  13  36  13  37  13  38   3
M  ISO  1  39   3
M  END
>  <minimizedAffinity>  (1) 
-4.63729668

>  <minimizedRMSD>  (1) 
7.79686499

$$$$
