
     RDKit          3D

 28 30  0  0  0  0  0  0  0  0999 V2000
   35.5370   30.0230   47.2090 C   0  0  0  0  0  0  0  0  0  0  0  0
   34.5700   29.0330   46.6850 C   0  0  0  0  0  0  0  0  0  0  0  0
   34.1100   30.4240   47.0150 C   0  0  0  0  0  0  0  0  0  0  0  0
   36.0400   29.8530   48.6130 C   0  0  0  0  0  0  0  0  0  0  0  0
   37.3560   29.9650   48.9120 C   0  0  0  0  0  0  0  0  0  0  0  0
   37.8110   29.8180   50.2120 C   0  0  0  0  0  0  0  0  0  0  0  0
   36.8760   29.5480   51.2080 C   0  0  0  0  0  0  0  0  0  0  0  0
   35.5200   29.4300   50.8950 C   0  0  0  0  0  0  0  0  0  0  0  0
   35.1570   29.5890   49.6100 N   0  0  0  0  0  0  0  0  0  0  0  0
   34.5090   29.1550   51.8580 N   0  0  0  0  0  0  0  0  0  0  0  0
   38.3210   32.1700   46.0560 C   0  0  0  0  0  0  0  0  0  0  0  0
   38.4310   31.8190   44.6950 C   0  0  0  0  0  0  0  0  0  0  0  0
   37.5400   30.8470   44.1820 C   0  0  0  0  0  0  0  0  0  0  0  0
   36.6340   30.3080   45.0270 N   0  0  0  0  0  0  0  0  0  0  0  0
   36.5440   30.6580   46.3320 C   0  0  0  0  0  0  0  0  0  0  0  0
   37.3770   31.5720   46.8230 N   0  0  0  0  0  0  0  0  0  0  0  0
   34.2552   28.1866   47.3131 H   0  0  0  0  0  0  0  0  0  0  0  0
   34.5225   28.3901   45.7937 H   0  0  0  0  0  0  0  0  0  0  0  0
   33.8369   31.1211   46.2091 H   0  0  0  0  0  0  0  0  0  0  0  0
   33.3256   30.8584   47.6522 H   0  0  0  0  0  0  0  0  0  0  0  0
   38.0765   30.1765   48.1082 H   0  0  0  0  0  0  0  0  0  0  0  0
   38.8806   29.9119   50.4509 H   0  0  0  0  0  0  0  0  0  0  0  0
   37.2081   29.4267   52.2496 H   0  0  0  0  0  0  0  0  0  0  0  0
   33.5247   29.0798   51.5642 H   0  0  0  0  0  0  0  0  0  0  0  0
   34.7616   29.0312   52.8488 H   0  0  0  0  0  0  0  0  0  0  0  0
   38.9951   32.9223   46.4914 H   0  0  0  0  0  0  0  0  0  0  0  0
   39.1886   32.2878   44.0498 H   0  0  0  0  0  0  0  0  0  0  0  0
   37.5836   30.5394   43.1268 H   0  0  0  0  0  0  0  0  0  0  0  0
  1  4  1  0
  2  3  1  0
  2  1  1  0
  3  1  1  0
  4  5  2  0
  4  9  1  0
  5  6  1  0
  6  7  2  0
  8  7  1  0
  8 10  1  0
  9  8  2  0
 11 16  2  0
 12 11  1  0
 13 12  2  0
 13 14  1  0
 14 15  2  0
 15 16  1  0
 15  1  1  0
  2 17  1  0
  2 18  1  0
  3 19  1  0
  3 20  1  0
  5 21  1  0
  6 22  1  0
  7 23  1  0
 10 24  1  0
 10 25  1  0
 11 26  1  0
 12 27  1  0
 13 28  1  0
M  ISO  8  17  13  18  13  19  13  20  13  21  14  22  14  23  14  26  14
M  ISO  2  27  14  28  14
M  END
>  <minimizedAffinity>  (1) 
-4.29917669

>  <minimizedRMSD>  (1) 
0.398318321

$$$$
