
     RDKit          3D

 49 53  0  0  1  0  0  0  0  0999 V2000
   35.8900   30.1620   46.1080 C   0  0  0  0  0  0  0  0  0  0  0  0
   36.3730   30.5990   47.3050 C   0  0  0  0  0  0  0  0  0  0  0  0
   35.7000   30.3210   48.4860 C   0  0  0  0  0  0  0  0  0  0  0  0
   34.5230   29.5840   48.4040 C   0  0  0  0  0  0  0  0  0  0  0  0
   34.0280   29.1340   47.1710 C   0  0  0  0  0  0  0  0  0  0  0  0
   34.7410   29.4480   46.0790 N   0  0  0  0  0  0  0  0  0  0  0  0
   36.6170   30.4610   44.8180 C   0  0  0  0  0  0  0  0  0  0  0  0
   36.3790   29.5690   43.6670 C   0  0  0  0  0  0  0  0  0  0  0  0
   35.7930   30.9640   43.6700 C   0  0  0  0  0  0  0  0  0  0  0  0
   39.2300   33.0670   45.0950 C   0  0  0  0  0  0  0  0  0  0  0  0
   40.3460   32.3390   45.5240 C   0  0  0  0  0  0  0  0  0  0  0  0
   40.1860   30.9380   45.7160 C   0  0  0  0  0  0  0  0  0  0  0  0
   38.9740   30.3860   45.4770 N   0  0  0  0  0  0  0  0  0  0  0  0
   37.9160   31.1250   45.0620 C   0  0  0  0  0  0  0  0  0  0  0  0
   38.0370   32.4520   44.8710 N   0  0  0  0  0  0  0  0  0  0  0  0
   32.8000   28.3600   47.0450 C   0  0  0  0  0  0  0  0  0  0  0  0
   32.3400   27.5860   46.0260 N   0  0  0  0  0  0  0  0  0  0  0  0
   31.1390   27.0730   46.3900 C   0  0  0  0  0  0  0  0  0  0  0  0
   30.8470   27.5290   47.6480 N   0  0  0  0  0  0  0  0  0  0  0  0
   31.8570   28.3000   48.0210 N   0  0  0  0  0  0  0  0  0  0  0  0
   28.4880   26.9360   47.7290 C   0  0  1  0  0  0  0  0  0  0  0  0
   29.7070   27.2980   48.5100 C   0  0  2  0  0  0  0  0  0  0  0  0
   29.4030   28.4230   49.2740 O   0  0  0  0  0  0  0  0  0  0  0  0
   28.6200   28.0870   50.3520 C   0  0  0  0  0  0  0  0  0  0  0  0
   27.8260   26.8310   50.1610 C   0  0  2  0  0  0  0  0  0  0  0  0
   27.3870   26.6250   48.7290 C   0  0  1  0  0  0  0  0  0  0  0  0
   28.0080   27.9920   46.9460 O   0  0  0  0  0  0  0  0  0  0  0  0
   26.6660   26.9420   50.9480 O   0  0  0  0  0  0  0  0  0  0  0  0
   26.2410   27.3870   48.5240 O   0  0  0  0  0  0  0  0  0  0  0  0
   37.3073   31.1789   47.3352 H   0  0  0  0  0  0  0  0  0  0  0  0
   36.0844   30.6718   49.4551 H   0  0  0  0  0  0  0  0  0  0  0  0
   33.9691   29.3493   49.3249 H   0  0  0  0  0  0  0  0  0  0  0  0
   35.7191   28.6957   43.7760 H   0  0  0  0  0  0  0  0  0  0  0  0
   37.0222   28.9985   42.9808 H   0  0  0  0  0  0  0  0  0  0  0  0
   36.1947   31.7348   42.9959 H   0  0  0  0  0  0  0  0  0  0  0  0
   34.7872   31.3940   43.5537 H   0  0  0  0  0  0  0  0  0  0  0  0
   39.3187   34.1519   44.9367 H   0  0  0  0  0  0  0  0  0  0  0  0
   41.3122   32.8322   45.7062 H   0  0  0  0  0  0  0  0  0  0  0  0
   41.0297   30.3171   46.0516 H   0  0  0  0  0  0  0  0  0  0  0  0
   30.5094   26.4072   45.7815 H   0  0  0  0  0  0  0  0  0  0  0  0
   28.7536   26.0963   47.0699 H   0  0  0  0  0  0  0  0  0  0  0  0
   29.9923   26.4634   49.1673 H   0  0  0  0  0  0  0  0  0  0  0  0
   29.2741   27.9530   51.2262 H   0  0  0  0  0  0  0  0  0  0  0  0
   27.8957   28.9039   50.4859 H   0  0  0  0  0  0  0  0  0  0  0  0
   28.4634   25.9804   50.4441 H   0  0  0  0  0  0  0  0  0  0  0  0
   27.1582   25.5625   48.5595 H   0  0  0  0  0  0  0  0  0  0  0  0
   27.6787   28.7164   47.5350 H   0  0  0  0  0  0  0  0  0  0  0  0
   26.9138   26.9183   51.9062 H   0  0  0  0  0  0  0  0  0  0  0  0
   25.8547   27.6439   49.3986 H   0  0  0  0  0  0  0  0  0  0  0  0
  1  2  2  0
  2  3  1  0
  4  3  2  0
  5  4  1  0
  6  1  1  0
  6  5  2  0
  7 14  1  0
  7  1  1  0
  8  9  1  0
  8  7  1  0
  9  7  1  0
 10 11  2  0
 11 12  1  0
 13 12  2  0
 14 13  1  0
 15 14  2  0
 15 10  1  0
 16  5  1  0
 16 20  2  0
 17 18  2  0
 17 16  1  0
 18 19  1  0
 19 20  1  0
 21 27  1  0
 21 22  1  0
 21 26  1  0
 22 19  1  0
 22 23  1  0
 23 24  1  0
 25 24  1  0
 25 28  1  0
 26 29  1  0
 26 25  1  0
  2 30  1  0
  3 31  1  0
  4 32  1  0
  8 33  1  0
  8 34  1  0
  9 35  1  0
  9 36  1  0
 10 37  1  0
 11 38  1  0
 12 39  1  0
 18 40  1  0
 21 41  1  6
 22 42  1  1
 24 43  1  0
 24 44  1  0
 25 45  1  1
 26 46  1  1
 27 47  1  0
 28 48  1  0
 29 49  1  0
M  ISO  8  30  14  31  14  32  14  33  13  34  13  35  13  36  13  37  14
M  ISO  8  38  14  39  14  40  14  41  13  42  13  43  13  44  13  45  13
M  ISO  4  46  13  47   3  48   3  49   3
M  END
>  <minimizedAffinity>  (1) 
-6.7974534

>  <minimizedRMSD>  (1) 
1.4704591

$$$$
