
     RDKit          3D

 39 43  0  0  0  0  0  0  0  0999 V2000
   36.3550   30.3980   46.0670 C   0  0  0  0  0  0  0  0  0  0  0  0
   36.9290   30.7130   47.2490 C   0  0  0  0  0  0  0  0  0  0  0  0
   36.2910   30.4080   48.4410 C   0  0  0  0  0  0  0  0  0  0  0  0
   35.0570   29.7770   48.3840 C   0  0  0  0  0  0  0  0  0  0  0  0
   34.4570   29.4490   47.1570 C   0  0  0  0  0  0  0  0  0  0  0  0
   35.1460   29.7810   46.0470 N   0  0  0  0  0  0  0  0  0  0  0  0
   33.1670   28.7930   47.0680 C   0  0  0  0  0  0  0  0  0  0  0  0
   32.5330   28.2650   45.9680 N   0  0  0  0  0  0  0  0  0  0  0  0
   31.3360   27.7510   46.3740 C   0  0  0  0  0  0  0  0  0  0  0  0
   31.2410   27.9610   47.7030 N   0  0  0  0  0  0  0  0  0  0  0  0
   32.3440   28.5920   48.1430 N   0  0  0  0  0  0  0  0  0  0  0  0
   30.1210   27.5540   48.4730 C   0  0  0  0  0  0  0  0  0  0  0  0
   30.1830   27.7770   49.8380 C   0  0  0  0  0  0  0  0  0  0  0  0
   28.9890   27.3050   50.3870 C   0  0  0  0  0  0  0  0  0  0  0  0
   28.2600   26.8250   49.3640 N   0  0  0  0  0  0  0  0  0  0  0  0
   28.9400   26.9760   48.2230 N   0  0  0  0  0  0  0  0  0  0  0  0
   37.0270   30.7160   44.7520 C   0  0  0  0  0  0  0  0  0  0  0  0
   36.7680   29.8060   43.6000 C   0  0  0  0  0  0  0  0  0  0  0  0
   36.1820   31.2010   43.6270 C   0  0  0  0  0  0  0  0  0  0  0  0
   39.6800   33.2600   45.0150 C   0  0  0  0  0  0  0  0  0  0  0  0
   40.8120   32.5010   45.3410 C   0  0  0  0  0  0  0  0  0  0  0  0
   40.6580   31.1040   45.4710 C   0  0  0  0  0  0  0  0  0  0  0  0
   39.4360   30.5540   45.2770 N   0  0  0  0  0  0  0  0  0  0  0  0
   38.3530   31.3260   44.9600 C   0  0  0  0  0  0  0  0  0  0  0  0
   38.4740   32.6610   44.8300 N   0  0  0  0  0  0  0  0  0  0  0  0
   37.9080   31.2143   47.2653 H   0  0  0  0  0  0  0  0  0  0  0  0
   36.7515   30.6599   49.4077 H   0  0  0  0  0  0  0  0  0  0  0  0
   34.5367   29.5279   49.3206 H   0  0  0  0  0  0  0  0  0  0  0  0
   30.5879   27.2574   45.7363 H   0  0  0  0  0  0  0  0  0  0  0  0
   31.0165   28.2393   50.3871 H   0  0  0  0  0  0  0  0  0  0  0  0
   28.7011   27.3224   51.4485 H   0  0  0  0  0  0  0  0  0  0  0  0
   27.3228   26.4059   49.4468 H   0  0  0  0  0  0  0  0  0  0  0  0
   36.1140   28.9304   43.7248 H   0  0  0  0  0  0  0  0  0  0  0  0
   37.3946   29.2351   42.8989 H   0  0  0  0  0  0  0  0  0  0  0  0
   36.5646   31.9730   42.9432 H   0  0  0  0  0  0  0  0  0  0  0  0
   35.1709   31.6247   43.5367 H   0  0  0  0  0  0  0  0  0  0  0  0
   39.7683   34.3512   44.9078 H   0  0  0  0  0  0  0  0  0  0  0  0
   41.7910   32.9795   45.4911 H   0  0  0  0  0  0  0  0  0  0  0  0
   41.5198   30.4701   45.7267 H   0  0  0  0  0  0  0  0  0  0  0  0
  1  2  2  0
  2  3  1  0
  4  3  2  0
  5  4  1  0
  6  1  1  0
  6  5  2  0
  7  5  1  0
  7 11  2  0
  8  9  2  0
  8  7  1  0
  9 10  1  0
 10 11  1  0
 10 12  1  0
 12 13  1  0
 13 14  2  0
 15 14  1  0
 16 12  2  0
 16 15  1  0
 17 24  1  0
 17  1  1  0
 18 19  1  0
 18 17  1  0
 19 17  1  0
 20 21  2  0
 21 22  1  0
 23 22  2  0
 24 23  1  0
 25 24  2  0
 25 20  1  0
  2 26  1  0
  3 27  1  0
  4 28  1  0
  9 29  1  0
 13 30  1  0
 14 31  1  0
 15 32  1  0
 18 33  1  0
 18 34  1  0
 19 35  1  0
 19 36  1  0
 20 37  1  0
 21 38  1  0
 22 39  1  0
M  ISO  8  26  14  27  14  28  14  29  14  30  14  31  14  32   9  33  13
M  ISO  6  34  13  35  13  36  13  37  14  38  14  39  14
M  END
>  <minimizedAffinity>  (1) 
-6.02242327

>  <minimizedRMSD>  (1) 
0.813244164

$$$$
