
     RDKit          3D

 46 49  0  0  1  0  0  0  0  0999 V2000
   37.2270   29.2450   50.5540 C   0  0  0  0  0  0  0  0  0  0  0  0
   37.3880   30.6250   50.8560 C   0  0  0  0  0  0  0  0  0  0  0  0
   36.6560   31.5380   50.0870 C   0  0  0  0  0  0  0  0  0  0  0  0
   35.8440   31.0520   49.1060 N   0  0  0  0  0  0  0  0  0  0  0  0
   35.7290   29.7330   48.8620 C   0  0  0  0  0  0  0  0  0  0  0  0
   36.4140   28.8390   49.5800 N   0  0  0  0  0  0  0  0  0  0  0  0
   34.8570   29.2990   47.8300 N   0  0  0  0  0  0  0  0  0  0  0  0
   34.1990   28.0120   47.8900 C   0  0  0  0  0  0  0  0  0  0  0  0
   32.7260   28.1680   47.7020 C   0  0  0  0  0  0  0  0  0  0  0  0
   32.2910   29.3860   47.2390 N   0  0  0  0  0  0  0  0  0  0  0  0
   33.1550   30.2330   46.4520 C   0  0  0  0  0  0  0  0  0  0  0  0
   34.5780   30.1220   46.6700 C   0  0  2  0  0  0  0  0  0  0  0  0
   35.3300   29.5390   45.5610 N   0  0  0  0  0  0  0  0  0  0  0  0
   36.4770   30.3750   45.2020 C   0  0  0  0  0  0  0  0  0  0  0  0
   36.6330   30.3270   43.7070 C   0  0  0  0  0  0  0  0  0  0  0  0
   35.5790   29.3850   43.2730 C   0  0  0  0  0  0  0  0  0  0  0  0
   34.5560   29.3740   44.3850 C   0  0  1  0  0  0  0  0  0  0  0  0
   31.7460   29.6570   43.1230 Cl  0  0  0  0  0  0  0  0  0  0  0  0
   32.6090   28.1960   43.6230 C   0  0  0  0  0  0  0  0  0  0  0  0
   33.8760   28.0750   44.2110 C   0  0  0  0  0  0  0  0  0  0  0  0
   34.3110   26.8060   44.5270 C   0  0  0  0  0  0  0  0  0  0  0  0
   33.5600   25.6750   44.2910 C   0  0  0  0  0  0  0  0  0  0  0  0
   32.3110   25.8000   43.7100 C   0  0  0  0  0  0  0  0  0  0  0  0
   31.8440   27.0720   43.3790 C   0  0  0  0  0  0  0  0  0  0  0  0
   37.7852   28.4973   51.1366 H   0  0  0  0  0  0  0  0  0  0  0  0
   38.0593   30.9613   51.6599 H   0  0  0  0  0  0  0  0  0  0  0  0
   36.7343   32.6199   50.2699 H   0  0  0  0  0  0  0  0  0  0  0  0
   34.5985   27.3639   47.0961 H   0  0  0  0  0  0  0  0  0  0  0  0
   34.3859   27.5627   48.8765 H   0  0  0  0  0  0  0  0  0  0  0  0
   32.3981   27.4016   46.9843 H   0  0  0  0  0  0  0  0  0  0  0  0
   32.2929   28.0685   48.7082 H   0  0  0  0  0  0  0  0  0  0  0  0
   31.4585   29.1997   46.6619 H   0  0  0  0  0  0  0  0  0  0  0  0
   32.8707   31.2755   46.6580 H   0  0  0  0  0  0  0  0  0  0  0  0
   33.0042   29.8996   45.4147 H   0  0  0  0  0  0  0  0  0  0  0  0
   34.9042   31.1646   46.7984 H   0  0  0  0  0  0  0  0  0  0  0  0
   36.3006   31.4112   45.5264 H   0  0  0  0  0  0  0  0  0  0  0  0
   37.3890   30.0070   45.6948 H   0  0  0  0  0  0  0  0  0  0  0  0
   36.4761   31.3217   43.2644 H   0  0  0  0  0  0  0  0  0  0  0  0
   37.6397   30.0130   43.3940 H   0  0  0  0  0  0  0  0  0  0  0  0
   35.1207   29.7286   42.3339 H   0  0  0  0  0  0  0  0  0  0  0  0
   35.9852   28.3801   43.0856 H   0  0  0  0  0  0  0  0  0  0  0  0
   33.7751   30.1483   44.4097 H   0  0  0  0  0  0  0  0  0  0  0  0
   35.3028   26.6908   44.9886 H   0  0  0  0  0  0  0  0  0  0  0  0
   33.9499   24.6827   44.5619 H   0  0  0  0  0  0  0  0  0  0  0  0
   31.6955   24.9101   43.5120 H   0  0  0  0  0  0  0  0  0  0  0  0
   30.8518   27.1817   42.9168 H   0  0  0  0  0  0  0  0  0  0  0  0
  1  2  2  0
  3  2  1  0
  4  3  2  0
  5  4  1  0
  5  6  2  0
  6  1  1  0
  7  8  1  0
  7  5  1  0
  9  8  1  0
 10  9  1  0
 11 12  1  0
 11 10  1  0
 12  7  1  0
 13 14  1  0
 13 12  1  0
 15 14  1  0
 16 15  1  0
 16 17  1  0
 17 13  1  0
 18 19  1  0
 19 20  2  0
 20 17  1  0
 20 21  1  0
 22 21  2  0
 23 22  1  0
 24 19  1  0
 24 23  2  0
  1 25  1  0
  2 26  1  0
  3 27  1  0
  8 28  1  0
  8 29  1  0
  9 30  1  0
  9 31  1  0
 10 32  1  0
 11 33  1  0
 11 34  1  0
 12 35  1  1
 14 36  1  0
 14 37  1  0
 15 38  1  0
 15 39  1  0
 16 40  1  0
 16 41  1  0
 17 42  1  6
 21 43  1  0
 22 44  1  0
 23 45  1  0
 24 46  1  0
M  ISO  8  25  14  26  14  27  14  28  13  29  13  30  13  31  13  32   5
M  ISO  8  33  13  34  13  35  13  36  13  37  13  38  13  39  13  40  13
M  ISO  6  41  13  42  13  43  14  44  14  45  14  46  14
M  END
>  <minimizedAffinity>  (1) 
-4.74078465

>  <minimizedRMSD>  (1) 
0.327390492

$$$$
