
     RDKit          3D

 43 46  0  0  1  0  0  0  0  0999 V2000
   37.2940   29.2310   50.6440 C   0  0  0  0  0  0  0  0  0  0  0  0
   37.4410   30.5810   50.9940 C   0  0  0  0  0  0  0  0  0  0  0  0
   36.7110   31.5210   50.2420 C   0  0  0  0  0  0  0  0  0  0  0  0
   35.9250   31.0470   49.2430 N   0  0  0  0  0  0  0  0  0  0  0  0
   35.8140   29.7560   48.9450 C   0  0  0  0  0  0  0  0  0  0  0  0
   36.4940   28.8520   49.6410 N   0  0  0  0  0  0  0  0  0  0  0  0
   34.9700   29.3500   47.8900 N   0  0  0  0  0  0  0  0  0  0  0  0
   34.3240   28.0280   47.8660 C   0  0  0  0  0  0  0  0  0  0  0  0
   32.8430   28.2220   47.7210 C   0  0  0  0  0  0  0  0  0  0  0  0
   32.3970   29.4270   47.2440 N   0  0  0  0  0  0  0  0  0  0  0  0
   33.2570   30.3140   46.5330 C   0  0  0  0  0  0  0  0  0  0  0  0
   34.6850   30.2120   46.7600 C   0  0  2  0  0  0  0  0  0  0  0  0
   35.4480   29.6840   45.6310 N   0  0  0  0  0  0  0  0  0  0  0  0
   36.6390   30.4940   45.3750 C   0  0  0  0  0  0  0  0  0  0  0  0
   36.8020   30.6130   43.8760 C   0  0  0  0  0  0  0  0  0  0  0  0
   35.8270   29.5790   43.3770 C   0  0  0  0  0  0  0  0  0  0  0  0
   34.7000   29.6710   44.4280 C   0  0  1  0  0  0  0  0  0  0  0  0
   33.8250   28.5050   44.1440 C   0  0  0  0  0  0  0  0  0  0  0  0
   34.1280   27.6520   42.9050 C   0  0  0  0  0  0  0  0  0  0  0  0
   34.3440   27.0920   44.2340 C   0  0  0  0  0  0  0  0  0  0  0  0
   37.8492   28.4663   51.2070 H   0  0  0  0  0  0  0  0  0  0  0  0
   38.0978   30.8918   51.8198 H   0  0  0  0  0  0  0  0  0  0  0  0
   36.7754   32.5980   50.4561 H   0  0  0  0  0  0  0  0  0  0  0  0
   34.7063   27.4440   47.0159 H   0  0  0  0  0  0  0  0  0  0  0  0
   34.5428   27.4856   48.7976 H   0  0  0  0  0  0  0  0  0  0  0  0
   32.4762   27.4429   47.0366 H   0  0  0  0  0  0  0  0  0  0  0  0
   32.4567   28.1730   48.7498 H   0  0  0  0  0  0  0  0  0  0  0  0
   31.6115   29.2160   46.6120 H   0  0  0  0  0  0  0  0  0  0  0  0
   32.9574   31.3393   46.7957 H   0  0  0  0  0  0  0  0  0  0  0  0
   33.1278   30.0315   45.4778 H   0  0  0  0  0  0  0  0  0  0  0  0
   34.9978   31.2518   46.9357 H   0  0  0  0  0  0  0  0  0  0  0  0
   36.5149   31.4929   45.8186 H   0  0  0  0  0  0  0  0  0  0  0  0
   37.5273   30.0244   45.8226 H   0  0  0  0  0  0  0  0  0  0  0  0
   36.5340   31.6196   43.5226 H   0  0  0  0  0  0  0  0  0  0  0  0
   37.8334   30.4581   43.5264 H   0  0  0  0  0  0  0  0  0  0  0  0
   35.4579   29.8294   42.3715 H   0  0  0  0  0  0  0  0  0  0  0  0
   36.2593   28.5726   43.2757 H   0  0  0  0  0  0  0  0  0  0  0  0
   34.0127   30.5295   44.4515 H   0  0  0  0  0  0  0  0  0  0  0  0
   32.9645   29.0437   44.5675 H   0  0  0  0  0  0  0  0  0  0  0  0
   33.3029   27.2796   42.2800 H   0  0  0  0  0  0  0  0  0  0  0  0
   34.7512   27.7820   42.0079 H   0  0  0  0  0  0  0  0  0  0  0  0
   35.3698   26.9112   44.5875 H   0  0  0  0  0  0  0  0  0  0  0  0
   33.9975   26.1817   44.7453 H   0  0  0  0  0  0  0  0  0  0  0  0
  1  2  2  0
  3  2  1  0
  4  3  2  0
  5  4  1  0
  5  6  2  0
  6  1  1  0
  7  5  1  0
  8  7  1  0
  9  8  1  0
 10  9  1  0
 11 12  1  0
 11 10  1  0
 12  7  1  0
 13 14  1  0
 13 12  1  0
 15 14  1  0
 16 15  1  0
 16 17  1  0
 17 13  1  0
 18 20  1  0
 18 17  1  0
 19 18  1  0
 19 20  1  0
  1 21  1  0
  2 22  1  0
  3 23  1  0
  8 24  1  0
  8 25  1  0
  9 26  1  0
  9 27  1  0
 10 28  1  0
 11 29  1  0
 11 30  1  0
 12 31  1  1
 14 32  1  0
 14 33  1  0
 15 34  1  0
 15 35  1  0
 16 36  1  0
 16 37  1  0
 17 38  1  6
 18 39  1  0
 19 40  1  0
 19 41  1  0
 20 42  1  0
 20 43  1  0
M  ISO  8  21  14  22  14  23  14  24  13  25  13  26  13  27  13  28   5
M  ISO  8  29  13  30  13  31  13  32  13  33  13  34  13  35  13  36  13
M  ISO  7  37  13  38  13  39  13  40  13  41  13  42  13  43  13
M  END
>  <minimizedAffinity>  (1) 
-4.55035686

>  <minimizedRMSD>  (1) 
0.232794315

$$$$
