
     RDKit          3D

 40 42  0  0  1  0  0  0  0  0999 V2000
   34.8280   30.0720   49.8950 C   0  0  2  0  0  0  0  0  0  0  0  0
   35.7770   31.1360   49.3710 C   0  0  0  0  0  0  0  0  0  0  0  0
   37.2160   30.7400   49.5320 C   0  0  2  0  0  0  0  0  0  0  0  0
   37.5470   30.4440   50.9810 C   0  0  0  0  0  0  0  0  0  0  0  0
   36.5710   29.4980   51.5970 C   0  0  0  0  0  0  0  0  0  0  0  0
   35.5180   28.9850   50.6410 C   0  0  0  0  0  0  0  0  0  0  0  0
   34.1120   29.4390   48.7430 C   0  0  0  0  0  0  0  0  0  0  0  0
   34.1830   30.1450   47.5190 C   0  0  0  0  0  0  0  0  0  0  0  0
   33.5130   29.5740   46.4330 C   0  0  0  0  0  0  0  0  0  0  0  0
   32.8310   28.3840   46.5920 N   0  0  0  0  0  0  0  0  0  0  0  0
   32.8000   27.7490   47.8030 C   0  0  0  0  0  0  0  0  0  0  0  0
   33.4310   28.2720   48.8540 N   0  0  0  0  0  0  0  0  0  0  0  0
   38.0580   31.6450   48.9000 N   0  0  0  0  0  0  0  0  0  0  0  0
   39.0180   32.3600   49.6370 C   0  0  0  0  0  0  0  0  0  0  0  0
   38.9590   33.8070   49.1310 C   0  0  0  0  0  0  0  0  0  0  0  0
   39.4300   33.8070   47.7630 N   0  0  0  0  0  0  0  0  0  0  0  0
   39.3490   32.5190   47.1170 C   0  0  0  0  0  0  0  0  0  0  0  0
   38.0610   31.7830   47.5010 C   0  0  0  0  0  0  0  0  0  0  0  0
   34.1407   30.5822   50.5859 H   0  0  0  0  0  0  0  0  0  0  0  0
   35.6024   32.0703   49.9247 H   0  0  0  0  0  0  0  0  0  0  0  0
   35.5801   31.2652   48.2965 H   0  0  0  0  0  0  0  0  0  0  0  0
   37.3928   29.7873   49.0114 H   0  0  0  0  0  0  0  0  0  0  0  0
   38.5521   29.9999   51.0318 H   0  0  0  0  0  0  0  0  0  0  0  0
   37.5006   31.3905   51.5396 H   0  0  0  0  0  0  0  0  0  0  0  0
   37.1283   28.6356   51.9916 H   0  0  0  0  0  0  0  0  0  0  0  0
   36.0404   30.0574   52.3816 H   0  0  0  0  0  0  0  0  0  0  0  0
   34.7669   28.4235   51.2159 H   0  0  0  0  0  0  0  0  0  0  0  0
   36.0279   28.3513   49.9005 H   0  0  0  0  0  0  0  0  0  0  0  0
   34.7354   31.0918   47.4269 H   0  0  0  0  0  0  0  0  0  0  0  0
   33.5291   30.0724   45.4525 H   0  0  0  0  0  0  0  0  0  0  0  0
   32.2514   26.8016   47.9101 H   0  0  0  0  0  0  0  0  0  0  0  0
   38.7802   32.3218   50.7103 H   0  0  0  0  0  0  0  0  0  0  0  0
   40.0227   31.9315   49.5067 H   0  0  0  0  0  0  0  0  0  0  0  0
   37.9242   34.1777   49.1723 H   0  0  0  0  0  0  0  0  0  0  0  0
   39.5828   34.4626   49.7563 H   0  0  0  0  0  0  0  0  0  0  0  0
   38.8619   34.4763   47.2244 H   0  0  0  0  0  0  0  0  0  0  0  0
   40.2135   31.9107   47.4212 H   0  0  0  0  0  0  0  0  0  0  0  0
   39.3473   32.6763   46.0283 H   0  0  0  0  0  0  0  0  0  0  0  0
   38.0382   30.7915   47.0252 H   0  0  0  0  0  0  0  0  0  0  0  0
   37.1771   32.3443   47.1637 H   0  0  0  0  0  0  0  0  0  0  0  0
  1  6  1  0
  2  3  1  0
  2  1  1  0
  3  4  1  0
  4  5  1  0
  6  5  1  0
  7 12  1  0
  7  1  1  0
  8  7  2  0
  9 10  2  0
  9  8  1  0
 10 11  1  0
 11 12  2  0
 13 18  1  0
 13  3  1  0
 13 14  1  0
 15 14  1  0
 16 15  1  0
 17 18  1  0
 17 16  1  0
  1 19  1  1
  2 20  1  0
  2 21  1  0
  3 22  1  6
  4 23  1  0
  4 24  1  0
  5 25  1  0
  5 26  1  0
  6 27  1  0
  6 28  1  0
  8 29  1  0
  9 30  1  0
 11 31  1  0
 14 32  1  0
 14 33  1  0
 15 34  1  0
 15 35  1  0
 16 36  1  0
 17 37  1  0
 17 38  1  0
 18 39  1  0
 18 40  1  0
M  ISO  8  19  13  20  13  21  13  22  13  23  13  24  13  25  13  26  13
M  ISO  8  27  13  28  13  29  14  30  14  31  14  32  13  33  13  34  13
M  ISO  6  35  13  36   5  37  13  38  13  39  13  40  13
M  END
>  <minimizedAffinity>  (1) 
-5.86197233

>  <minimizedRMSD>  (1) 
1.03051412

$$$$
