
     RDKit          3D

 25 26  0  0  1  0  0  0  0  0999 V2000
   38.5070   30.6330   46.9950 S   0  0  0  0  0  0  0  0  0  0  0  0
   37.4540   30.6430   50.9210 C   0  0  0  0  0  0  0  0  0  0  0  0
   38.1850   30.9300   49.7690 C   0  0  0  0  0  0  0  0  0  0  0  0
   37.7200   30.3820   48.5840 C   0  0  0  0  0  0  0  0  0  0  0  0
   36.5920   29.6030   48.6020 N   0  0  0  0  0  0  0  0  0  0  0  0
   35.9300   29.3590   49.7370 C   0  0  0  0  0  0  0  0  0  0  0  0
   36.3610   29.8810   50.9070 N   0  0  0  0  0  0  0  0  0  0  0  0
   39.5120   33.1330   46.5950 N   0  0  0  0  0  0  0  0  0  0  0  0
   38.3030   32.3810   46.4690 C   0  0  1  0  0  0  0  0  0  0  0  0
   37.8440   32.3160   45.0320 C   0  0  0  0  0  0  0  0  0  0  0  0
   38.9050   31.6880   44.2690 N   0  0  0  0  0  0  0  0  0  0  0  0
   39.9950   32.6770   44.2600 C   0  0  0  0  0  0  0  0  0  0  0  0
   40.5340   32.6880   45.6810 C   0  0  0  0  0  0  0  0  0  0  0  0
   37.7931   31.0624   51.8797 H   0  0  0  0  0  0  0  0  0  0  0  0
   39.0861   31.5601   49.7991 H   0  0  0  0  0  0  0  0  0  0  0  0
   35.0283   28.7292   49.7190 H   0  0  0  0  0  0  0  0  0  0  0  0
   39.3064   34.1241   46.4042 H   0  0  0  0  0  0  0  0  0  0  0  0
   37.5771   32.9020   47.1107 H   0  0  0  0  0  0  0  0  0  0  0  0
   36.9228   31.7194   44.9576 H   0  0  0  0  0  0  0  0  0  0  0  0
   37.6297   33.3233   44.6454 H   0  0  0  0  0  0  0  0  0  0  0  0
   39.2105   30.8150   44.7222 H   0  0  0  0  0  0  0  0  0  0  0  0
   40.7814   32.3780   43.5513 H   0  0  0  0  0  0  0  0  0  0  0  0
   39.6457   33.6713   43.9448 H   0  0  0  0  0  0  0  0  0  0  0  0
   40.8519   31.6719   45.9574 H   0  0  0  0  0  0  0  0  0  0  0  0
   41.3905   33.3761   45.7359 H   0  0  0  0  0  0  0  0  0  0  0  0
  1  4  1  0
  3  2  2  0
  4  5  2  0
  4  3  1  0
  5  6  1  0
  6  7  2  0
  7  2  1  0
  9  8  1  0
  9  1  1  0
 10  9  1  0
 11 10  1  0
 12 11  1  0
 12 13  1  0
 13  8  1  0
  2 14  1  0
  3 15  1  0
  6 16  1  0
  8 17  1  0
  9 18  1  1
 10 19  1  0
 10 20  1  0
 11 21  1  0
 12 22  1  0
 12 23  1  0
 13 24  1  0
 13 25  1  0
M  ISO  8  14  14  15  14  16  14  17   5  18  13  19  13  20  13  21   5
M  ISO  4  22  13  23  13  24  13  25  13
M  END
>  <minimizedAffinity>  (1) 
-4.30207205

>  <minimizedRMSD>  (1) 
2.99622107

$$$$
