
     RDKit          3D

 32 33  0  0  1  0  0  0  0  0999 V2000
   35.5710   30.1140   49.6820 C   0  0  2  0  0  0  0  0  0  0  0  0
   36.3530   31.1860   48.9650 C   0  0  0  0  0  0  0  0  0  0  0  0
   37.8330   30.9890   49.1220 C   0  0  2  0  0  0  0  0  0  0  0  0
   38.2370   30.9720   50.5660 C   0  0  0  0  0  0  0  0  0  0  0  0
   37.4170   30.0220   51.3760 C   0  0  0  0  0  0  0  0  0  0  0  0
   36.3940   29.2510   50.5730 C   0  0  0  0  0  0  0  0  0  0  0  0
   34.9010   29.2150   48.6910 C   0  0  0  0  0  0  0  0  0  0  0  0
   34.7470   29.7430   47.3900 C   0  0  0  0  0  0  0  0  0  0  0  0
   34.1200   28.9350   46.4430 C   0  0  0  0  0  0  0  0  0  0  0  0
   33.6900   27.6800   46.8270 N   0  0  0  0  0  0  0  0  0  0  0  0
   33.8600   27.2170   48.0890 C   0  0  0  0  0  0  0  0  0  0  0  0
   34.4560   27.9750   49.0020 N   0  0  0  0  0  0  0  0  0  0  0  0
   38.6360   31.9690   48.3270 C   0  0  0  0  0  0  0  0  0  0  0  0
   38.7040   33.3010   49.0470 C   0  0  0  0  0  0  0  0  0  0  0  0
   34.8480   30.6586   50.3070 H   0  0  0  0  0  0  0  0  0  0  0  0
   36.0774   32.1668   49.3799 H   0  0  0  0  0  0  0  0  0  0  0  0
   36.1103   31.1305   47.8935 H   0  0  0  0  0  0  0  0  0  0  0  0
   38.0626   29.9978   48.7040 H   0  0  0  0  0  0  0  0  0  0  0  0
   39.2934   30.6731   50.6337 H   0  0  0  0  0  0  0  0  0  0  0  0
   38.0770   31.9822   50.9707 H   0  0  0  0  0  0  0  0  0  0  0  0
   38.0958   29.3007   51.8545 H   0  0  0  0  0  0  0  0  0  0  0  0
   36.8580   30.6269   52.1051 H   0  0  0  0  0  0  0  0  0  0  0  0
   35.7226   28.7301   51.2715 H   0  0  0  0  0  0  0  0  0  0  0  0
   36.9465   28.5514   49.9285 H   0  0  0  0  0  0  0  0  0  0  0  0
   35.1071   30.7505   47.1346 H   0  0  0  0  0  0  0  0  0  0  0  0
   33.9709   29.2892   45.4123 H   0  0  0  0  0  0  0  0  0  0  0  0
   33.5037   26.2116   48.3577 H   0  0  0  0  0  0  0  0  0  0  0  0
   38.1640   32.1118   47.3437 H   0  0  0  0  0  0  0  0  0  0  0  0
   39.6564   31.5775   48.2022 H   0  0  0  0  0  0  0  0  0  0  0  0
   38.6953   33.1312   50.1338 H   0  0  0  0  0  0  0  0  0  0  0  0
   39.6300   33.8235   48.7649 H   0  0  0  0  0  0  0  0  0  0  0  0
   37.8360   33.9150   48.7649 H   0  0  0  0  0  0  0  0  0  0  0  0
  1  6  1  0
  2  3  1  0
  2  1  1  0
  3  4  1  0
  4  5  1  0
  6  5  1  0
  7 12  1  0
  7  1  1  0
  8  7  2  0
  9 10  2  0
  9  8  1  0
 10 11  1  0
 11 12  2  0
 13 14  1  0
 13  3  1  0
  1 15  1  1
  2 16  1  0
  2 17  1  0
  3 18  1  6
  4 19  1  0
  4 20  1  0
  5 21  1  0
  5 22  1  0
  6 23  1  0
  6 24  1  0
  8 25  1  0
  9 26  1  0
 11 27  1  0
 13 28  1  0
 13 29  1  0
 14 30  1  0
 14 31  1  0
 14 32  1  0
M  ISO  8  15  13  16  13  17  13  18  13  19  13  20  13  21  13  22  13
M  ISO  8  23  13  24  13  25  14  26  14  27  14  28   8  29   8  30   8
M  ISO  2  31   8  32   8
M  END
>  <minimizedAffinity>  (1) 
-5.58587217

>  <minimizedRMSD>  (1) 
0.703013599

$$$$
