
     RDKit          3D

 39 41  0  0  1  0  0  0  0  0999 V2000
   35.3620   30.3650   50.0220 C   0  0  2  0  0  0  0  0  0  0  0  0
   36.2640   31.3490   49.3890 C   0  0  0  0  0  0  0  0  0  0  0  0
   37.7320   30.9140   49.4240 C   0  0  2  0  0  0  0  0  0  0  0  0
   38.2390   30.6210   50.7650 C   0  0  0  0  0  0  0  0  0  0  0  0
   37.2280   29.9080   51.6570 C   0  0  0  0  0  0  0  0  0  0  0  0
   36.0900   29.3370   50.8560 C   0  0  0  0  0  0  0  0  0  0  0  0
   38.4870   30.5940   46.5890 Cl  0  0  0  0  0  0  0  0  0  0  0  0
   38.9080   32.0190   47.5270 C   0  0  0  0  0  0  0  0  0  0  0  0
   38.4680   32.0720   48.8390 C   0  0  0  0  0  0  0  0  0  0  0  0
   38.8250   33.2360   49.4780 C   0  0  0  0  0  0  0  0  0  0  0  0
   39.5460   34.2410   48.8710 C   0  0  0  0  0  0  0  0  0  0  0  0
   39.9520   34.1130   47.5500 C   0  0  0  0  0  0  0  0  0  0  0  0
   39.6200   32.9670   46.8650 C   0  0  0  0  0  0  0  0  0  0  0  0
   40.0470   32.8120   45.4500 C   0  0  0  0  0  0  0  0  0  0  0  0
   41.1540   31.9680   45.4430 F   0  0  0  0  0  0  0  0  0  0  0  0
   40.4010   34.0340   44.9050 F   0  0  0  0  0  0  0  0  0  0  0  0
   39.0850   32.2160   44.6900 F   0  0  0  0  0  0  0  0  0  0  0  0
   34.5200   29.6380   49.0600 C   0  0  0  0  0  0  0  0  0  0  0  0
   34.5110   30.1610   47.7670 C   0  0  0  0  0  0  0  0  0  0  0  0
   33.7350   29.5010   46.8070 C   0  0  0  0  0  0  0  0  0  0  0  0
   33.0180   28.3700   47.1830 N   0  0  0  0  0  0  0  0  0  0  0  0
   33.0600   27.9050   48.4440 C   0  0  0  0  0  0  0  0  0  0  0  0
   33.8070   28.5480   49.3450 N   0  0  0  0  0  0  0  0  0  0  0  0
   34.7268   30.9866   50.6702 H   0  0  0  0  0  0  0  0  0  0  0  0
   36.1682   32.3071   49.9208 H   0  0  0  0  0  0  0  0  0  0  0  0
   35.9693   31.4383   48.3330 H   0  0  0  0  0  0  0  0  0  0  0  0
   37.8621   29.9703   48.8739 H   0  0  0  0  0  0  0  0  0  0  0  0
   39.1292   29.9821   50.6684 H   0  0  0  0  0  0  0  0  0  0  0  0
   38.4666   31.5857   51.2420 H   0  0  0  0  0  0  0  0  0  0  0  0
   37.7357   29.0902   52.1894 H   0  0  0  0  0  0  0  0  0  0  0  0
   36.8163   30.6416   52.3658 H   0  0  0  0  0  0  0  0  0  0  0  0
   35.3702   28.8801   51.5511 H   0  0  0  0  0  0  0  0  0  0  0  0
   36.5219   28.6035   50.1593 H   0  0  0  0  0  0  0  0  0  0  0  0
   38.5197   33.3716   50.5261 H   0  0  0  0  0  0  0  0  0  0  0  0
   39.8012   35.1495   49.4363 H   0  0  0  0  0  0  0  0  0  0  0  0
   40.5279   34.9121   47.0603 H   0  0  0  0  0  0  0  0  0  0  0  0
   35.0923   31.0591   47.5111 H   0  0  0  0  0  0  0  0  0  0  0  0
   33.6929   29.8708   45.7719 H   0  0  0  0  0  0  0  0  0  0  0  0
   32.4883   27.0094   48.7288 H   0  0  0  0  0  0  0  0  0  0  0  0
  1  6  1  0
  2  3  1  0
  2  1  1  0
  3  4  1  0
  4  5  1  0
  6  5  1  0
  7  8  1  0
  8  9  2  0
  9  3  1  0
  9 10  1  0
 11 10  2  0
 12 11  1  0
 13  8  1  0
 13 12  2  0
 14 13  1  0
 15 14  1  0
 16 14  1  0
 17 14  1  0
 18 23  1  0
 18  1  1  0
 19 18  2  0
 20 21  2  0
 20 19  1  0
 21 22  1  0
 22 23  2  0
  1 24  1  1
  2 25  1  0
  2 26  1  0
  3 27  1  6
  4 28  1  0
  4 29  1  0
  5 30  1  0
  5 31  1  0
  6 32  1  0
  6 33  1  0
 10 34  1  0
 11 35  1  0
 12 36  1  0
 19 37  1  0
 20 38  1  0
 22 39  1  0
M  ISO  8  24  13  25  13  26  13  27  13  28  13  29  13  30  13  31  13
M  ISO  8  32  13  33  13  34  14  35  14  36  14  37  14  38  14  39  14
M  END
>  <minimizedAffinity>  (1) 
-8.21489429

>  <minimizedRMSD>  (1) 
0.279999465

$$$$
