
     RDKit          3D

 47 51  0  0  1  0  0  0  0  0999 V2000
   35.1890   30.3150   50.0150 C   0  0  2  0  0  0  0  0  0  0  0  0
   36.1270   31.2280   49.3160 C   0  0  0  0  0  0  0  0  0  0  0  0
   37.5850   30.7490   49.3970 C   0  0  2  0  0  0  0  0  0  0  0  0
   38.0700   30.5330   50.7560 C   0  0  0  0  0  0  0  0  0  0  0  0
   37.0370   29.8970   51.6780 C   0  0  0  0  0  0  0  0  0  0  0  0
   35.8830   29.3190   50.9130 C   0  0  0  0  0  0  0  0  0  0  0  0
   37.9040   30.4790   46.4760 Cl  0  0  0  0  0  0  0  0  0  0  0  0
   38.5990   31.8130   47.3810 C   0  0  0  0  0  0  0  0  0  0  0  0
   38.3530   31.8500   48.7440 C   0  0  0  0  0  0  0  0  0  0  0  0
   38.9210   32.9430   49.3590 C   0  0  0  0  0  0  0  0  0  0  0  0
   39.6550   33.8930   48.6790 C   0  0  0  0  0  0  0  0  0  0  0  0
   39.8550   33.7810   47.3080 C   0  0  0  0  0  0  0  0  0  0  0  0
   39.3020   32.6960   46.6410 C   0  0  0  0  0  0  0  0  0  0  0  0
   39.5040   32.5770   45.2380 N   0  0  0  0  0  0  0  0  0  0  0  0
   39.6230   33.7200   44.5100 C   0  0  0  0  0  0  0  0  0  0  0  0
   39.8070   33.4110   43.2200 N   0  0  0  0  0  0  0  0  0  0  0  0
   39.8100   32.0830   43.0920 C   0  0  0  0  0  0  0  0  0  0  0  0
   39.9410   31.1370   42.1100 C   0  0  0  0  0  0  0  0  0  0  0  0
   39.8840   29.8320   42.4050 N   0  0  0  0  0  0  0  0  0  0  0  0
   39.6960   29.3750   43.6610 C   0  0  0  0  0  0  0  0  0  0  0  0
   39.5590   30.2550   44.6790 N   0  0  0  0  0  0  0  0  0  0  0  0
   39.6180   31.5630   44.3720 C   0  0  0  0  0  0  0  0  0  0  0  0
   34.3300   29.5560   49.0930 C   0  0  0  0  0  0  0  0  0  0  0  0
   34.3310   30.0090   47.7730 C   0  0  0  0  0  0  0  0  0  0  0  0
   33.5400   29.3120   46.8490 C   0  0  0  0  0  0  0  0  0  0  0  0
   32.8010   28.2180   47.2860 N   0  0  0  0  0  0  0  0  0  0  0  0
   32.8330   27.8180   48.5720 C   0  0  0  0  0  0  0  0  0  0  0  0
   33.5930   28.4970   49.4340 N   0  0  0  0  0  0  0  0  0  0  0  0
   34.5740   30.9936   50.6243 H   0  0  0  0  0  0  0  0  0  0  0  0
   36.0572   32.2249   49.7757 H   0  0  0  0  0  0  0  0  0  0  0  0
   35.8415   31.2513   48.2540 H   0  0  0  0  0  0  0  0  0  0  0  0
   37.6961   29.7661   48.9157 H   0  0  0  0  0  0  0  0  0  0  0  0
   38.9490   29.8732   50.7109 H   0  0  0  0  0  0  0  0  0  0  0  0
   38.3103   31.5217   51.1739 H   0  0  0  0  0  0  0  0  0  0  0  0
   37.5206   29.0934   52.2527 H   0  0  0  0  0  0  0  0  0  0  0  0
   36.6459   30.6810   52.3431 H   0  0  0  0  0  0  0  0  0  0  0  0
   35.1483   28.9308   51.6338 H   0  0  0  0  0  0  0  0  0  0  0  0
   36.2911   28.5308   50.2632 H   0  0  0  0  0  0  0  0  0  0  0  0
   38.7831   33.0646   50.4435 H   0  0  0  0  0  0  0  0  0  0  0  0
   40.0850   34.7452   49.2257 H   0  0  0  0  0  0  0  0  0  0  0  0
   40.4395   34.5366   46.7626 H   0  0  0  0  0  0  0  0  0  0  0  0
   39.5754   34.7405   44.9179 H   0  0  0  0  0  0  0  0  0  0  0  0
   40.0947   31.4528   41.0676 H   0  0  0  0  0  0  0  0  0  0  0  0
   39.6544   28.2931   43.8556 H   0  0  0  0  0  0  0  0  0  0  0  0
   34.9299   30.8802   47.4690 H   0  0  0  0  0  0  0  0  0  0  0  0
   33.5044   29.6254   45.7952 H   0  0  0  0  0  0  0  0  0  0  0  0
   32.2451   26.9499   48.9048 H   0  0  0  0  0  0  0  0  0  0  0  0
  1  6  1  0
  2  3  1  0
  2  1  1  0
  3  4  1  0
  4  5  1  0
  6  5  1  0
  7  8  1  0
  8  9  2  0
  9 10  1  0
  9  3  1  0
 11 10  2  0
 12 11  1  0
 13 12  2  0
 13  8  1  0
 14 13  1  0
 15 14  1  0
 16 15  2  0
 17 16  1  0
 17 22  2  0
 18 19  2  0
 18 17  1  0
 19 20  1  0
 20 21  2  0
 22 21  1  0
 22 14  1  0
 23 28  1  0
 23  1  1  0
 24 23  2  0
 25 26  2  0
 25 24  1  0
 26 27  1  0
 27 28  2  0
  1 29  1  1
  2 30  1  0
  2 31  1  0
  3 32  1  6
  4 33  1  0
  4 34  1  0
  5 35  1  0
  5 36  1  0
  6 37  1  0
  6 38  1  0
 10 39  1  0
 11 40  1  0
 12 41  1  0
 15 42  1  0
 18 43  1  0
 20 44  1  0
 24 45  1  0
 25 46  1  0
 27 47  1  0
M  ISO  8  29  13  30  13  31  13  32  13  33  13  34  13  35  13  36  13
M  ISO  8  37  13  38  13  39  14  40  14  41  14  42  14  43  14  44  14
M  ISO  3  45  14  46  14  47  14
M  END
>  <minimizedAffinity>  (1) 
-8.02552128

>  <minimizedRMSD>  (1) 
0.639321506

$$$$
