
     RDKit          3D

 44 47  0  0  1  0  0  0  0  0999 V2000
   35.2210   30.2450   50.0710 C   0  0  2  0  0  0  0  0  0  0  0  0
   36.1410   31.1540   49.3470 C   0  0  0  0  0  0  0  0  0  0  0  0
   37.6120   30.7250   49.4640 C   0  0  2  0  0  0  0  0  0  0  0  0
   38.0870   30.5720   50.8370 C   0  0  0  0  0  0  0  0  0  0  0  0
   37.0500   29.9650   51.7790 C   0  0  0  0  0  0  0  0  0  0  0  0
   35.9370   29.3030   51.0150 C   0  0  0  0  0  0  0  0  0  0  0  0
   38.0620   30.3020   46.5780 Cl  0  0  0  0  0  0  0  0  0  0  0  0
   38.6610   31.7160   47.4340 C   0  0  0  0  0  0  0  0  0  0  0  0
   38.3560   31.8230   48.7770 C   0  0  0  0  0  0  0  0  0  0  0  0
   38.8460   32.9760   49.3540 C   0  0  0  0  0  0  0  0  0  0  0  0
   39.5660   33.9180   48.6500 C   0  0  0  0  0  0  0  0  0  0  0  0
   39.8310   33.7340   47.3000 C   0  0  0  0  0  0  0  0  0  0  0  0
   39.3650   32.6050   46.6870 C   0  0  0  0  0  0  0  0  0  0  0  0
   39.6230   32.3800   45.2750 C   0  0  0  0  0  0  0  0  0  0  0  0
   40.4370   31.3830   44.7980 C   0  0  0  0  0  0  0  0  0  0  0  0
   40.6810   31.1720   43.4430 C   0  0  0  0  0  0  0  0  0  0  0  0
   40.0900   31.9840   42.5490 N   0  0  0  0  0  0  0  0  0  0  0  0
   39.2830   32.9710   43.0200 C   0  0  0  0  0  0  0  0  0  0  0  0
   39.0530   33.1670   44.3450 N   0  0  0  0  0  0  0  0  0  0  0  0
   34.3990   29.4200   49.1720 C   0  0  0  0  0  0  0  0  0  0  0  0
   34.6870   29.5610   47.8130 C   0  0  0  0  0  0  0  0  0  0  0  0
   33.9420   28.7850   46.9140 C   0  0  0  0  0  0  0  0  0  0  0  0
   32.9670   27.9270   47.4070 N   0  0  0  0  0  0  0  0  0  0  0  0
   32.7260   27.8280   48.7260 C   0  0  0  0  0  0  0  0  0  0  0  0
   33.4480   28.5770   49.5670 N   0  0  0  0  0  0  0  0  0  0  0  0
   34.5779   30.9300   50.6430 H   0  0  0  0  0  0  0  0  0  0  0  0
   36.0355   32.1666   49.7637 H   0  0  0  0  0  0  0  0  0  0  0  0
   35.8693   31.1223   48.2816 H   0  0  0  0  0  0  0  0  0  0  0  0
   37.7588   29.7286   49.0217 H   0  0  0  0  0  0  0  0  0  0  0  0
   38.9725   29.9195   50.8278 H   0  0  0  0  0  0  0  0  0  0  0  0
   38.3138   31.5802   51.2139 H   0  0  0  0  0  0  0  0  0  0  0  0
   37.5412   29.2158   52.4173 H   0  0  0  0  0  0  0  0  0  0  0  0
   36.6193   30.7737   52.3877 H   0  0  0  0  0  0  0  0  0  0  0  0
   35.2059   28.9066   51.7350 H   0  0  0  0  0  0  0  0  0  0  0  0
   36.3875   28.5069   50.4040 H   0  0  0  0  0  0  0  0  0  0  0  0
   38.6540   33.1518   50.4227 H   0  0  0  0  0  0  0  0  0  0  0  0
   39.9324   34.8204   49.1612 H   0  0  0  0  0  0  0  0  0  0  0  0
   40.4051   34.4826   46.7344 H   0  0  0  0  0  0  0  0  0  0  0  0
   40.9226   30.7150   45.5246 H   0  0  0  0  0  0  0  0  0  0  0  0
   41.3430   30.3585   43.1114 H   0  0  0  0  0  0  0  0  0  0  0  0
   38.7945   33.6407   42.2969 H   0  0  0  0  0  0  0  0  0  0  0  0
   35.4668   30.2529   47.4620 H   0  0  0  0  0  0  0  0  0  0  0  0
   34.1271   28.8546   45.8319 H   0  0  0  0  0  0  0  0  0  0  0  0
   31.9514   27.1454   49.1056 H   0  0  0  0  0  0  0  0  0  0  0  0
  1  6  1  0
  2  3  1  0
  2  1  1  0
  3  4  1  0
  4  5  1  0
  6  5  1  0
  7  8  1  0
  8  9  2  0
  9 10  1  0
  9  3  1  0
 11 10  2  0
 12 11  1  0
 13 12  2  0
 13  8  1  0
 14 13  1  0
 15 14  2  0
 16 15  1  0
 17 18  1  0
 17 16  2  0
 18 19  2  0
 19 14  1  0
 20 25  1  0
 20  1  1  0
 21 20  2  0
 22 23  2  0
 22 21  1  0
 23 24  1  0
 24 25  2  0
  1 26  1  1
  2 27  1  0
  2 28  1  0
  3 29  1  6
  4 30  1  0
  4 31  1  0
  5 32  1  0
  5 33  1  0
  6 34  1  0
  6 35  1  0
 10 36  1  0
 11 37  1  0
 12 38  1  0
 15 39  1  0
 16 40  1  0
 18 41  1  0
 21 42  1  0
 22 43  1  0
 24 44  1  0
M  ISO  8  26  13  27  13  28  13  29  13  30  13  31  13  32  13  33  13
M  ISO  8  34  13  35  13  36  14  37  14  38  14  39  14  40  14  41  14
M  ISO  3  42  14  43  14  44  14
M  END
>  <minimizedAffinity>  (1) 
-7.98040628

>  <minimizedRMSD>  (1) 
0.765989006

$$$$
