
     RDKit          3D

 42 44  0  0  1  0  0  0  0  0999 V2000
   35.3050   30.3460   50.0370 C   0  0  2  0  0  0  0  0  0  0  0  0
   36.2220   31.3270   49.4130 C   0  0  0  0  0  0  0  0  0  0  0  0
   37.6920   30.8780   49.4520 C   0  0  2  0  0  0  0  0  0  0  0  0
   38.1790   30.5730   50.7970 C   0  0  0  0  0  0  0  0  0  0  0  0
   37.1620   29.8510   51.6700 C   0  0  0  0  0  0  0  0  0  0  0  0
   36.0160   29.2980   50.8620 C   0  0  0  0  0  0  0  0  0  0  0  0
   38.3770   30.6410   46.5970 Cl  0  0  0  0  0  0  0  0  0  0  0  0
   38.8360   32.0320   47.5620 C   0  0  0  0  0  0  0  0  0  0  0  0
   38.4350   32.0400   48.8830 C   0  0  0  0  0  0  0  0  0  0  0  0
   38.8320   33.1830   49.5550 C   0  0  0  0  0  0  0  0  0  0  0  0
   39.5480   34.1970   48.9660 C   0  0  0  0  0  0  0  0  0  0  0  0
   39.9110   34.1050   47.6270 C   0  0  0  0  0  0  0  0  0  0  0  0
   39.5350   32.9770   46.9070 C   0  0  0  0  0  0  0  0  0  0  0  0
   39.9810   32.9710   45.4960 C   0  0  0  0  0  0  0  0  0  0  0  0
   41.1820   32.0860   45.2610 C   0  0  0  0  0  0  0  0  0  0  0  0
   34.4650   29.6390   49.0640 C   0  0  0  0  0  0  0  0  0  0  0  0
   34.4340   30.1950   47.7850 C   0  0  0  0  0  0  0  0  0  0  0  0
   33.6580   29.5520   46.8120 C   0  0  0  0  0  0  0  0  0  0  0  0
   32.9610   28.4030   47.1620 N   0  0  0  0  0  0  0  0  0  0  0  0
   33.0180   27.8990   48.4130 C   0  0  0  0  0  0  0  0  0  0  0  0
   33.7660   28.5310   49.3200 N   0  0  0  0  0  0  0  0  0  0  0  0
   34.6771   30.9687   50.6912 H   0  0  0  0  0  0  0  0  0  0  0  0
   36.1322   32.2828   49.9500 H   0  0  0  0  0  0  0  0  0  0  0  0
   35.9335   31.4238   48.3559 H   0  0  0  0  0  0  0  0  0  0  0  0
   37.8281   29.9398   48.8940 H   0  0  0  0  0  0  0  0  0  0  0  0
   39.0719   29.9370   50.7065 H   0  0  0  0  0  0  0  0  0  0  0  0
   38.3947   31.5348   51.2853 H   0  0  0  0  0  0  0  0  0  0  0  0
   37.6644   29.0209   52.1881 H   0  0  0  0  0  0  0  0  0  0  0  0
   36.7527   30.5779   52.3870 H   0  0  0  0  0  0  0  0  0  0  0  0
   35.2891   28.8447   51.5520 H   0  0  0  0  0  0  0  0  0  0  0  0
   36.4370   28.5622   50.1610 H   0  0  0  0  0  0  0  0  0  0  0  0
   38.5601   33.2849   50.6160 H   0  0  0  0  0  0  0  0  0  0  0  0
   39.8341   35.0817   49.5538 H   0  0  0  0  0  0  0  0  0  0  0  0
   40.4854   34.9104   47.1460 H   0  0  0  0  0  0  0  0  0  0  0  0
   39.1525   32.6117   44.8679 H   0  0  0  0  0  0  0  0  0  0  0  0
   40.2746   33.9995   45.2391 H   0  0  0  0  0  0  0  0  0  0  0  0
   41.6035   31.7754   46.2284 H   0  0  0  0  0  0  0  0  0  0  0  0
   40.8758   31.1960   44.6917 H   0  0  0  0  0  0  0  0  0  0  0  0
   41.9414   32.6420   44.6917 H   0  0  0  0  0  0  0  0  0  0  0  0
   35.0001   31.1080   47.5484 H   0  0  0  0  0  0  0  0  0  0  0  0
   33.6017   29.9504   45.7882 H   0  0  0  0  0  0  0  0  0  0  0  0
   32.4609   26.9885   48.6788 H   0  0  0  0  0  0  0  0  0  0  0  0
  1  6  1  0
  2  3  1  0
  2  1  1  0
  3  4  1  0
  4  5  1  0
  6  5  1  0
  7  8  1  0
  8  9  2  0
  9  3  1  0
  9 10  1  0
 11 10  2  0
 12 11  1  0
 13  8  1  0
 13 12  2  0
 14 13  1  0
 15 14  1  0
 16 21  1  0
 16  1  1  0
 17 16  2  0
 18 19  2  0
 18 17  1  0
 19 20  1  0
 20 21  2  0
  1 22  1  1
  2 23  1  0
  2 24  1  0
  3 25  1  6
  4 26  1  0
  4 27  1  0
  5 28  1  0
  5 29  1  0
  6 30  1  0
  6 31  1  0
 10 32  1  0
 11 33  1  0
 12 34  1  0
 14 35  1  0
 14 36  1  0
 15 37  1  0
 15 38  1  0
 15 39  1  0
 17 40  1  0
 18 41  1  0
 20 42  1  0
M  ISO  8  22  13  23  13  24  13  25  13  26  13  27  13  28  13  29  13
M  ISO  8  30  13  31  13  32  14  33  14  34  14  35   8  36   8  37   8
M  ISO  5  38   8  39   8  40  14  41  14  42  14
M  END
>  <minimizedAffinity>  (1) 
-7.68446589

>  <minimizedRMSD>  (1) 
0.120063268

$$$$
