
     RDKit          3D

 37 39  0  0  1  0  0  0  0  0999 V2000
   35.3400   30.3650   49.9990 C   0  0  2  0  0  0  0  0  0  0  0  0
   36.2590   31.3560   49.3840 C   0  0  0  0  0  0  0  0  0  0  0  0
   37.7280   30.9100   49.4410 C   0  0  2  0  0  0  0  0  0  0  0  0
   38.2080   30.5990   50.7860 C   0  0  0  0  0  0  0  0  0  0  0  0
   37.1820   29.8620   51.6420 C   0  0  0  0  0  0  0  0  0  0  0  0
   36.0600   29.3080   50.8070 C   0  0  0  0  0  0  0  0  0  0  0  0
   38.5810   30.6270   46.6320 Cl  0  0  0  0  0  0  0  0  0  0  0  0
   38.9580   32.0460   47.5950 C   0  0  0  0  0  0  0  0  0  0  0  0
   38.4720   32.0800   48.8870 C   0  0  0  0  0  0  0  0  0  0  0  0
   38.7970   33.2440   49.5500 C   0  0  0  0  0  0  0  0  0  0  0  0
   39.5320   34.2600   48.9730 C   0  0  0  0  0  0  0  0  0  0  0  0
   39.9850   34.1440   47.6660 C   0  0  0  0  0  0  0  0  0  0  0  0
   39.6830   32.9940   46.9540 C   0  0  0  0  0  0  0  0  0  0  0  0
   40.1330   32.8760   45.6510 O   0  0  0  0  0  0  0  0  0  0  0  0
   34.5040   29.6670   49.0100 C   0  0  0  0  0  0  0  0  0  0  0  0
   34.5210   30.2180   47.7280 C   0  0  0  0  0  0  0  0  0  0  0  0
   33.7540   29.5830   46.7410 C   0  0  0  0  0  0  0  0  0  0  0  0
   33.0230   28.4510   47.0810 N   0  0  0  0  0  0  0  0  0  0  0  0
   33.0390   27.9590   48.3350 C   0  0  0  0  0  0  0  0  0  0  0  0
   33.7750   28.5760   49.2590 N   0  0  0  0  0  0  0  0  0  0  0  0
   34.7073   30.9727   50.6626 H   0  0  0  0  0  0  0  0  0  0  0  0
   36.1590   32.3107   49.9211 H   0  0  0  0  0  0  0  0  0  0  0  0
   35.9811   31.4572   48.3245 H   0  0  0  0  0  0  0  0  0  0  0  0
   37.8690   29.9724   48.8834 H   0  0  0  0  0  0  0  0  0  0  0  0
   39.1056   29.9692   50.6986 H   0  0  0  0  0  0  0  0  0  0  0  0
   38.4180   31.5567   51.2846 H   0  0  0  0  0  0  0  0  0  0  0  0
   37.6820   29.0326   52.1636 H   0  0  0  0  0  0  0  0  0  0  0  0
   36.7555   30.5776   52.3604 H   0  0  0  0  0  0  0  0  0  0  0  0
   35.3331   28.8236   51.4755 H   0  0  0  0  0  0  0  0  0  0  0  0
   36.5034   28.5974   50.0940 H   0  0  0  0  0  0  0  0  0  0  0  0
   38.4545   33.3691   50.5878 H   0  0  0  0  0  0  0  0  0  0  0  0
   39.7601   35.1669   49.5523 H   0  0  0  0  0  0  0  0  0  0  0  0
   40.5732   34.9504   47.2037 H   0  0  0  0  0  0  0  0  0  0  0  0
   40.6593   33.6074   45.2409 H   0  0  0  0  0  0  0  0  0  0  0  0
   35.1136   31.1164   47.5005 H   0  0  0  0  0  0  0  0  0  0  0  0
   33.7312   29.9747   45.7134 H   0  0  0  0  0  0  0  0  0  0  0  0
   32.4545   27.0632   48.5919 H   0  0  0  0  0  0  0  0  0  0  0  0
  1  6  1  0
  2  3  1  0
  2  1  1  0
  3  4  1  0
  4  5  1  0
  6  5  1  0
  7  8  1  0
  8  9  2  0
  9  3  1  0
  9 10  1  0
 11 10  2  0
 12 11  1  0
 13  8  1  0
 13 12  2  0
 14 13  1  0
 15 20  1  0
 15  1  1  0
 16 15  2  0
 17 18  2  0
 17 16  1  0
 18 19  1  0
 19 20  2  0
  1 21  1  1
  2 22  1  0
  2 23  1  0
  3 24  1  6
  4 25  1  0
  4 26  1  0
  5 27  1  0
  5 28  1  0
  6 29  1  0
  6 30  1  0
 10 31  1  0
 11 32  1  0
 12 33  1  0
 14 34  1  0
 16 35  1  0
 17 36  1  0
 19 37  1  0
M  ISO  8  21  13  22  13  23  13  24  13  25  13  26  13  27  13  28  13
M  ISO  8  29  13  30  13  31  14  32  14  33  14  34   3  35  14  36  14
M  ISO  1  37  14
M  END
>  <minimizedAffinity>  (1) 
-7.47286129

>  <minimizedRMSD>  (1) 
0.0707903951

$$$$
