
     RDKit          3D

 43 46  0  0  1  0  0  0  0  0999 V2000
   35.1550   30.1940   50.0840 C   0  0  2  0  0  0  0  0  0  0  0  0
   36.0770   31.1070   49.3690 C   0  0  0  0  0  0  0  0  0  0  0  0
   37.5500   30.6750   49.4820 C   0  0  2  0  0  0  0  0  0  0  0  0
   38.0140   30.5290   50.8670 C   0  0  0  0  0  0  0  0  0  0  0  0
   36.9860   29.8930   51.7910 C   0  0  0  0  0  0  0  0  0  0  0  0
   35.8650   29.2520   51.0270 C   0  0  0  0  0  0  0  0  0  0  0  0
   37.9820   30.2900   46.6040 Cl  0  0  0  0  0  0  0  0  0  0  0  0
   38.5890   31.6960   47.4610 C   0  0  0  0  0  0  0  0  0  0  0  0
   38.2950   31.7780   48.8070 C   0  0  0  0  0  0  0  0  0  0  0  0
   38.7970   32.9250   49.3950 C   0  0  0  0  0  0  0  0  0  0  0  0
   39.5140   33.8760   48.7060 C   0  0  0  0  0  0  0  0  0  0  0  0
   39.7640   33.7180   47.3670 C   0  0  0  0  0  0  0  0  0  0  0  0
   39.2840   32.5840   46.7180 C   0  0  0  0  0  0  0  0  0  0  0  0
   39.6140   32.5320   45.3080 C   0  0  0  0  0  0  0  0  0  0  0  0
   40.5640   31.8660   44.5730 C   0  0  0  0  0  0  0  0  0  0  0  0
   40.5000   32.1250   43.2580 N   0  0  0  0  0  0  0  0  0  0  0  0
   39.4900   32.9740   43.1430 C   0  0  0  0  0  0  0  0  0  0  0  0
   38.9750   33.2100   44.3370 N   0  0  0  0  0  0  0  0  0  0  0  0
   34.3350   29.3750   49.1780 C   0  0  0  0  0  0  0  0  0  0  0  0
   34.6390   29.5080   47.8210 C   0  0  0  0  0  0  0  0  0  0  0  0
   33.8970   28.7340   46.9160 C   0  0  0  0  0  0  0  0  0  0  0  0
   32.9160   27.8890   47.3980 N   0  0  0  0  0  0  0  0  0  0  0  0
   32.6540   27.7930   48.7280 C   0  0  0  0  0  0  0  0  0  0  0  0
   33.3720   28.5390   49.5690 N   0  0  0  0  0  0  0  0  0  0  0  0
   34.5087   30.8755   50.6566 H   0  0  0  0  0  0  0  0  0  0  0  0
   35.9729   32.1159   49.7947 H   0  0  0  0  0  0  0  0  0  0  0  0
   35.8057   31.0841   48.3032 H   0  0  0  0  0  0  0  0  0  0  0  0
   37.7027   29.6831   49.0317 H   0  0  0  0  0  0  0  0  0  0  0  0
   38.9169   29.9006   50.8667 H   0  0  0  0  0  0  0  0  0  0  0  0
   38.2085   31.5417   51.2500 H   0  0  0  0  0  0  0  0  0  0  0  0
   37.4840   29.1256   52.4019 H   0  0  0  0  0  0  0  0  0  0  0  0
   36.5580   30.6866   52.4211 H   0  0  0  0  0  0  0  0  0  0  0  0
   35.1306   28.8642   51.7483 H   0  0  0  0  0  0  0  0  0  0  0  0
   36.3099   28.4564   50.4113 H   0  0  0  0  0  0  0  0  0  0  0  0
   38.6137   33.0850   50.4678 H   0  0  0  0  0  0  0  0  0  0  0  0
   39.8883   34.7669   49.2316 H   0  0  0  0  0  0  0  0  0  0  0  0
   40.3361   34.4771   46.8133 H   0  0  0  0  0  0  0  0  0  0  0  0
   41.3052   31.1864   45.0189 H   0  0  0  0  0  0  0  0  0  0  0  0
   41.0993   31.7494   42.5092 H   0  0  0  0  0  0  0  0  0  0  0  0
   39.1348   33.4145   42.1997 H   0  0  0  0  0  0  0  0  0  0  0  0
   35.4283   30.1920   47.4759 H   0  0  0  0  0  0  0  0  0  0  0  0
   34.0940   28.7992   45.8357 H   0  0  0  0  0  0  0  0  0  0  0  0
   31.8701   27.1176   49.1014 H   0  0  0  0  0  0  0  0  0  0  0  0
  1  6  1  0
  2  3  1  0
  2  1  1  0
  3  4  1  0
  4  5  1  0
  6  5  1  0
  7  8  1  0
  8  9  2  0
  9 10  1  0
  9  3  1  0
 11 10  2  0
 12 11  1  0
 13 12  2  0
 13  8  1  0
 14 13  1  0
 15 14  2  0
 16 15  1  0
 17 16  1  0
 17 18  2  0
 18 14  1  0
 19 24  1  0
 19  1  1  0
 20 19  2  0
 21 22  2  0
 21 20  1  0
 22 23  1  0
 23 24  2  0
  1 25  1  1
  2 26  1  0
  2 27  1  0
  3 28  1  6
  4 29  1  0
  4 30  1  0
  5 31  1  0
  5 32  1  0
  6 33  1  0
  6 34  1  0
 10 35  1  0
 11 36  1  0
 12 37  1  0
 15 38  1  0
 16 39  1  0
 17 40  1  0
 20 41  1  0
 21 42  1  0
 23 43  1  0
M  ISO  8  25  13  26  13  27  13  28  13  29  13  30  13  31  13  32  13
M  ISO  8  33  13  34  13  35  14  36  14  37  14  38  14  39   9  40  14
M  ISO  3  41  14  42  14  43  14
M  END
>  <minimizedAffinity>  (1) 
-7.45708752

>  <minimizedRMSD>  (1) 
0.615452409

$$$$
