
     RDKit          3D

 31 32  0  0  1  0  0  0  0  0999 V2000
   38.3330   32.7730   45.3830 N   0  0  0  0  0  0  0  0  0  0  0  0
   38.0020   31.7880   46.3590 C   0  0  1  0  0  0  0  0  0  0  0  0
   38.7590   30.4990   46.1270 C   0  0  0  0  0  0  0  0  0  0  0  0
   40.1820   30.8130   46.1920 N   0  0  0  0  0  0  0  0  0  0  0  0
   40.4200   31.6190   44.9760 C   0  0  0  0  0  0  0  0  0  0  0  0
   39.7570   32.9420   45.2460 C   0  0  1  0  0  0  0  0  0  0  0  0
   38.4660   32.3120   48.0670 S   0  0  0  0  0  0  0  0  0  0  0  0
   37.4030   30.0820   51.2870 C   0  0  0  0  0  0  0  0  0  0  0  0
   38.1800   30.8720   50.4450 C   0  0  0  0  0  0  0  0  0  0  0  0
   37.6120   31.2900   49.2640 C   0  0  0  0  0  0  0  0  0  0  0  0
   36.3320   30.9170   48.9730 N   0  0  0  0  0  0  0  0  0  0  0  0
   35.6200   30.1510   49.8180 C   0  0  0  0  0  0  0  0  0  0  0  0
   36.1480   29.7290   50.9770 N   0  0  0  0  0  0  0  0  0  0  0  0
   40.0300   33.8590   44.0800 C   0  0  0  0  0  0  0  0  0  0  0  0
   39.4230   33.3000   42.8100 C   0  0  0  0  0  0  0  0  0  0  0  0
   37.9437   32.4842   44.4742 H   0  0  0  0  0  0  0  0  0  0  0  0
   36.9147   31.6524   46.2625 H   0  0  0  0  0  0  0  0  0  0  0  0
   38.5090   30.0887   45.1375 H   0  0  0  0  0  0  0  0  0  0  0  0
   38.4911   29.7486   46.8853 H   0  0  0  0  0  0  0  0  0  0  0  0
   40.3999   31.3551   47.0402 H   0  0  0  0  0  0  0  0  0  0  0  0
   39.9701   31.1340   44.0972 H   0  0  0  0  0  0  0  0  0  0  0  0
   41.4927   31.7323   44.7603 H   0  0  0  0  0  0  0  0  0  0  0  0
   40.1563   33.3653   46.1795 H   0  0  0  0  0  0  0  0  0  0  0  0
   37.8332   29.7359   52.2384 H   0  0  0  0  0  0  0  0  0  0  0  0
   39.2094   31.1516   50.7137 H   0  0  0  0  0  0  0  0  0  0  0  0
   34.5904   29.8664   49.5555 H   0  0  0  0  0  0  0  0  0  0  0  0
   39.5916   34.8466   44.2862 H   0  0  0  0  0  0  0  0  0  0  0  0
   41.1181   33.9470   43.9446 H   0  0  0  0  0  0  0  0  0  0  0  0
   38.6363   32.5756   43.0676 H   0  0  0  0  0  0  0  0  0  0  0  0
   38.9875   34.1199   42.2200 H   0  0  0  0  0  0  0  0  0  0  0  0
   40.2043   32.7986   42.2200 H   0  0  0  0  0  0  0  0  0  0  0  0
  1  2  1  0
  2  7  1  0
  3  4  1  0
  3  2  1  0
  5  6  1  0
  5  4  1  0
  6  1  1  0
  7 10  1  0
  9  8  2  0
 10  9  1  0
 11 10  2  0
 11 12  1  0
 12 13  2  0
 13  8  1  0
 14  6  1  0
 15 14  1  0
  1 16  1  0
  2 17  1  1
  3 18  1  0
  3 19  1  0
  4 20  1  0
  5 21  1  0
  5 22  1  0
  6 23  1  1
  8 24  1  0
  9 25  1  0
 12 26  1  0
 14 27  1  0
 14 28  1  0
 15 29  1  0
 15 30  1  0
 15 31  1  0
M  ISO  8  16   5  17  13  18  13  19  13  20   5  21  13  22  13  23  13
M  ISO  8  24  14  25  14  26  14  27   8  28   8  29   8  30   8  31   8
M  END
>  <minimizedAffinity>  (1) 
-5.14569807

>  <minimizedRMSD>  (1) 
1.6678617

$$$$
