
     RDKit          3D

 42 44  0  0  1  0  0  0  0  0999 V2000
   35.2350   30.3590   49.8530 C   0  0  2  0  0  0  0  0  0  0  0  0
   36.1780   31.3510   49.3460 C   0  0  0  0  0  0  0  0  0  0  0  0
   37.6550   30.8480   49.3850 C   0  0  2  0  0  0  0  0  0  0  0  0
   38.1040   30.4710   50.7030 C   0  0  0  0  0  0  0  0  0  0  0  0
   37.0480   29.7390   51.5240 C   0  0  0  0  0  0  0  0  0  0  0  0
   35.9210   29.2550   50.6660 C   0  0  0  0  0  0  0  0  0  0  0  0
   34.4050   29.6860   48.8570 C   0  0  0  0  0  0  0  0  0  0  0  0
   34.4400   30.2720   47.5990 C   0  0  0  0  0  0  0  0  0  0  0  0
   33.7020   29.6920   46.5710 C   0  0  0  0  0  0  0  0  0  0  0  0
   32.9590   28.5420   46.8600 N   0  0  0  0  0  0  0  0  0  0  0  0
   32.9540   28.0080   48.0910 C   0  0  0  0  0  0  0  0  0  0  0  0
   33.6750   28.5990   49.0380 N   0  0  0  0  0  0  0  0  0  0  0  0
   30.7780   27.0060   48.5090 C   0  0  0  0  0  0  0  0  0  0  0  0
   30.1460   28.0850   48.3760 O   0  0  0  0  0  0  0  0  0  0  0  0
   32.2000   26.8400   48.3880 N   0  0  0  0  0  0  0  0  0  0  0  0
   38.5580   30.6460   46.5840 Cl  0  0  0  0  0  0  0  0  0  0  0  0
   38.9320   32.0210   47.5920 C   0  0  0  0  0  0  0  0  0  0  0  0
   38.4180   32.0260   48.8630 C   0  0  0  0  0  0  0  0  0  0  0  0
   38.7280   33.1680   49.5780 C   0  0  0  0  0  0  0  0  0  0  0  0
   39.4850   34.2050   49.0680 C   0  0  0  0  0  0  0  0  0  0  0  0
   39.9740   34.1190   47.7630 C   0  0  0  0  0  0  0  0  0  0  0  0
   39.6820   32.9840   47.0060 C   0  0  0  0  0  0  0  0  0  0  0  0
   40.1850   32.8970   45.6790 N   0  0  0  0  0  0  0  0  0  0  0  0
   34.5790   30.9848   50.4759 H   0  0  0  0  0  0  0  0  0  0  0  0
   36.0986   32.2595   49.9610 H   0  0  0  0  0  0  0  0  0  0  0  0
   35.9207   31.5495   48.2951 H   0  0  0  0  0  0  0  0  0  0  0  0
   37.7913   29.9275   48.7984 H   0  0  0  0  0  0  0  0  0  0  0  0
   38.9791   29.8130   50.5968 H   0  0  0  0  0  0  0  0  0  0  0  0
   38.3412   31.4011   51.2402 H   0  0  0  0  0  0  0  0  0  0  0  0
   37.5161   28.8754   52.0191 H   0  0  0  0  0  0  0  0  0  0  0  0
   36.6393   30.4423   52.2645 H   0  0  0  0  0  0  0  0  0  0  0  0
   35.1680   28.7864   51.3167 H   0  0  0  0  0  0  0  0  0  0  0  0
   36.3540   28.5497   49.9414 H   0  0  0  0  0  0  0  0  0  0  0  0
   35.0390   31.1767   47.4181 H   0  0  0  0  0  0  0  0  0  0  0  0
   33.7029   30.1255   45.5600 H   0  0  0  0  0  0  0  0  0  0  0  0
   30.1879   26.1066   48.7391 H   0  0  0  0  0  0  0  0  0  0  0  0
   32.6501   25.9217   48.5102 H   0  0  0  0  0  0  0  0  0  0  0  0
   38.3518   33.2556   50.6080 H   0  0  0  0  0  0  0  0  0  0  0  0
   39.7005   35.0903   49.6843 H   0  0  0  0  0  0  0  0  0  0  0  0
   40.5798   34.9331   47.3385 H   0  0  0  0  0  0  0  0  0  0  0  0
   40.7505   33.6656   45.2912 H   0  0  0  0  0  0  0  0  0  0  0  0
   39.9839   32.0654   45.1055 H   0  0  0  0  0  0  0  0  0  0  0  0
  1  6  1  0
  2  3  1  0
  2  1  1  0
  3  4  1  0
  4  5  1  0
  6  5  1  0
  7 12  1  0
  7  1  1  0
  8  7  2  0
  9 10  2  0
  9  8  1  0
 10 11  1  0
 11 15  1  0
 11 12  2  0
 14 13  2  0
 15 13  1  0
 16 17  1  0
 17 18  2  0
 18  3  1  0
 18 19  1  0
 20 19  2  0
 21 20  1  0
 22 17  1  0
 22 21  2  0
 23 22  1  0
  1 24  1  1
  2 25  1  0
  2 26  1  0
  3 27  1  6
  4 28  1  0
  4 29  1  0
  5 30  1  0
  5 31  1  0
  6 32  1  0
  6 33  1  0
  8 34  1  0
  9 35  1  0
 13 36  1  0
 15 37  1  0
 19 38  1  0
 20 39  1  0
 21 40  1  0
 23 41  1  0
 23 42  1  0
M  ISO  8  24  13  25  13  26  13  27  13  28  13  29  13  30  13  31  13
M  ISO  8  32  13  33  13  34  14  35  14  36   6  38  14  39  14  40  14
M  END
>  <minimizedAffinity>  (1) 
-8.02743816

>  <minimizedRMSD>  (1) 
0.193068281

$$$$
