
     RDKit          3D

 48 51  0  0  1  0  0  0  0  0999 V2000
   35.2230   30.0370   49.3460 C   0  0  2  0  0  0  0  0  0  0  0  0
   36.1520   31.0930   48.9750 C   0  0  0  0  0  0  0  0  0  0  0  0
   37.6440   30.6540   49.1040 C   0  0  2  0  0  0  0  0  0  0  0  0
   38.0130   30.2140   50.4270 C   0  0  0  0  0  0  0  0  0  0  0  0
   36.9190   29.4080   51.1340 C   0  0  0  0  0  0  0  0  0  0  0  0
   35.8920   28.9220   50.1580 C   0  0  0  0  0  0  0  0  0  0  0  0
   38.7030   30.6910   46.3480 Cl  0  0  0  0  0  0  0  0  0  0  0  0
   38.9680   32.0050   47.4740 C   0  0  0  0  0  0  0  0  0  0  0  0
   38.3870   31.8950   48.7120 C   0  0  0  0  0  0  0  0  0  0  0  0
   38.6130   32.9890   49.5220 C   0  0  0  0  0  0  0  0  0  0  0  0
   39.3530   34.0890   49.1320 C   0  0  0  0  0  0  0  0  0  0  0  0
   39.9110   34.1200   47.8530 C   0  0  0  0  0  0  0  0  0  0  0  0
   39.7090   33.0360   46.9970 C   0  0  0  0  0  0  0  0  0  0  0  0
   40.2740   33.0670   45.6980 N   0  0  0  0  0  0  0  0  0  0  0  0
   34.5060   29.3830   48.2560 C   0  0  0  0  0  0  0  0  0  0  0  0
   34.0520   30.2510   47.2730 C   0  0  0  0  0  0  0  0  0  0  0  0
   33.3790   29.7300   46.1730 C   0  0  0  0  0  0  0  0  0  0  0  0
   33.1920   28.3440   46.1130 N   0  0  0  0  0  0  0  0  0  0  0  0
   33.6450   27.5370   47.0830 C   0  0  0  0  0  0  0  0  0  0  0  0
   34.2840   28.0870   48.1180 N   0  0  0  0  0  0  0  0  0  0  0  0
   31.5530   26.2130   48.4740 F   0  0  0  0  0  0  0  0  0  0  0  0
   32.4320   25.5010   47.7160 C   0  0  0  0  0  0  0  0  0  0  0  0
   33.4540   26.0950   47.0290 C   0  0  0  0  0  0  0  0  0  0  0  0
   34.3640   25.4060   46.2510 C   0  0  0  0  0  0  0  0  0  0  0  0
   34.2570   24.0390   46.1440 C   0  0  0  0  0  0  0  0  0  0  0  0
   33.2240   23.4130   46.8340 C   0  0  0  0  0  0  0  0  0  0  0  0
   32.3290   24.1260   47.6050 C   0  0  0  0  0  0  0  0  0  0  0  0
   34.4892   30.6020   49.9396 H   0  0  0  0  0  0  0  0  0  0  0  0
   35.9816   31.9587   49.6320 H   0  0  0  0  0  0  0  0  0  0  0  0
   35.9685   31.3418   47.9193 H   0  0  0  0  0  0  0  0  0  0  0  0
   37.8669   29.7767   48.4790 H   0  0  0  0  0  0  0  0  0  0  0  0
   38.9112   29.5841   50.3458 H   0  0  0  0  0  0  0  0  0  0  0  0
   38.1878   31.1174   51.0297 H   0  0  0  0  0  0  0  0  0  0  0  0
   37.3772   28.5422   51.6345 H   0  0  0  0  0  0  0  0  0  0  0  0
   36.4229   30.0605   51.8676 H   0  0  0  0  0  0  0  0  0  0  0  0
   35.1111   28.3855   50.7168 H   0  0  0  0  0  0  0  0  0  0  0  0
   36.4183   28.2777   49.4384 H   0  0  0  0  0  0  0  0  0  0  0  0
   38.1805   32.9853   50.5334 H   0  0  0  0  0  0  0  0  0  0  0  0
   39.5009   34.9321   49.8229 H   0  0  0  0  0  0  0  0  0  0  0  0
   40.5022   34.9873   47.5239 H   0  0  0  0  0  0  0  0  0  0  0  0
   40.8276   33.8816   45.3965 H   0  0  0  0  0  0  0  0  0  0  0  0
   40.1311   32.2750   45.0552 H   0  0  0  0  0  0  0  0  0  0  0  0
   34.2218   31.3341   47.3624 H   0  0  0  0  0  0  0  0  0  0  0  0
   33.0049   30.3873   45.3742 H   0  0  0  0  0  0  0  0  0  0  0  0
   35.1649   25.9444   45.7232 H   0  0  0  0  0  0  0  0  0  0  0  0
   34.9649   23.4598   45.5330 H   0  0  0  0  0  0  0  0  0  0  0  0
   33.1178   22.3204   46.7631 H   0  0  0  0  0  0  0  0  0  0  0  0
   31.5254   23.5956   48.1368 H   0  0  0  0  0  0  0  0  0  0  0  0
  1  6  1  0
  2  3  1  0
  2  1  1  0
  3  4  1  0
  4  5  1  0
  6  5  1  0
  7  8  1  0
  8  9  2  0
  9  3  1  0
  9 10  1  0
 11 10  2  0
 12 11  1  0
 13  8  1  0
 13 12  2  0
 14 13  1  0
 15  1  1  0
 16 15  2  0
 17 16  1  0
 18 17  2  0
 18 19  1  0
 19 20  2  0
 20 15  1  0
 22 21  1  0
 23 19  1  0
 23 22  2  0
 24 23  1  0
 25 24  2  0
 25 26  1  0
 26 27  2  0
 27 22  1  0
  1 28  1  1
  2 29  1  0
  2 30  1  0
  3 31  1  6
  4 32  1  0
  4 33  1  0
  5 34  1  0
  5 35  1  0
  6 36  1  0
  6 37  1  0
 10 38  1  0
 11 39  1  0
 12 40  1  0
 14 41  1  0
 14 42  1  0
 16 43  1  0
 17 44  1  0
 24 45  1  0
 25 46  1  0
 26 47  1  0
 27 48  1  0
M  ISO  8  28  13  29  13  30  13  31  13  32  13  33  13  34  13  35  13
M  ISO  8  36  13  37  13  38  14  39  14  40  14  43  14  44  14  45  14
M  ISO  3  46  14  47  14  48  14
M  END
>  <minimizedAffinity>  (1) 
-7.92932129

>  <minimizedRMSD>  (1) 
1.57214487

$$$$
