
     RDKit          3D

 40 42  0  0  1  0  0  0  0  0999 V2000
   35.3280   30.3170   49.8030 C   0  0  2  0  0  0  0  0  0  0  0  0
   36.2500   31.3270   49.2940 C   0  0  0  0  0  0  0  0  0  0  0  0
   37.7390   30.8830   49.3910 C   0  0  2  0  0  0  0  0  0  0  0  0
   38.1570   30.5700   50.7360 C   0  0  0  0  0  0  0  0  0  0  0  0
   37.1020   29.8190   51.5500 C   0  0  0  0  0  0  0  0  0  0  0  0
   36.0350   29.2560   50.6620 C   0  0  0  0  0  0  0  0  0  0  0  0
   38.6240   30.6550   46.5820 Cl  0  0  0  0  0  0  0  0  0  0  0  0
   38.9860   32.0460   47.5700 C   0  0  0  0  0  0  0  0  0  0  0  0
   38.4810   32.0590   48.8450 C   0  0  0  0  0  0  0  0  0  0  0  0
   38.7820   33.2120   49.5480 C   0  0  0  0  0  0  0  0  0  0  0  0
   39.5240   34.2520   49.0210 C   0  0  0  0  0  0  0  0  0  0  0  0
   40.0040   34.1590   47.7140 C   0  0  0  0  0  0  0  0  0  0  0  0
   39.7240   33.0160   46.9670 C   0  0  0  0  0  0  0  0  0  0  0  0
   40.2110   32.9230   45.6400 N   0  0  0  0  0  0  0  0  0  0  0  0
   34.5450   29.5940   48.8070 C   0  0  0  0  0  0  0  0  0  0  0  0
   34.9400   29.8180   47.4970 C   0  0  0  0  0  0  0  0  0  0  0  0
   34.2740   29.1560   46.4720 C   0  0  0  0  0  0  0  0  0  0  0  0
   33.2300   28.2920   46.8140 N   0  0  0  0  0  0  0  0  0  0  0  0
   32.8770   28.1040   48.0990 C   0  0  0  0  0  0  0  0  0  0  0  0
   33.5460   28.7610   49.0430 N   0  0  0  0  0  0  0  0  0  0  0  0
   31.7880   27.2040   48.4600 C   0  0  0  0  0  0  0  0  0  0  0  0
   30.8500   27.5930   49.2120 O   0  0  0  0  0  0  0  0  0  0  0  0
   34.6347   30.9337   50.3938 H   0  0  0  0  0  0  0  0  0  0  0  0
   36.1189   32.2498   49.8782 H   0  0  0  0  0  0  0  0  0  0  0  0
   36.0180   31.4833   48.2302 H   0  0  0  0  0  0  0  0  0  0  0  0
   37.9246   29.9490   48.8403 H   0  0  0  0  0  0  0  0  0  0  0  0
   39.0620   29.9470   50.6821 H   0  0  0  0  0  0  0  0  0  0  0  0
   38.3355   31.5273   51.2476 H   0  0  0  0  0  0  0  0  0  0  0  0
   37.5875   28.9957   52.0945 H   0  0  0  0  0  0  0  0  0  0  0  0
   36.6351   30.5251   52.2524 H   0  0  0  0  0  0  0  0  0  0  0  0
   35.2822   28.7611   51.2932 H   0  0  0  0  0  0  0  0  0  0  0  0
   36.5262   28.5554   49.9708 H   0  0  0  0  0  0  0  0  0  0  0  0
   38.4116   33.3057   50.5795 H   0  0  0  0  0  0  0  0  0  0  0  0
   39.7345   35.1457   49.6268 H   0  0  0  0  0  0  0  0  0  0  0  0
   40.5960   34.9775   47.2786 H   0  0  0  0  0  0  0  0  0  0  0  0
   40.7654   33.6933   45.2397 H   0  0  0  0  0  0  0  0  0  0  0  0
   40.0107   32.0851   45.0754 H   0  0  0  0  0  0  0  0  0  0  0  0
   35.7667   30.5081   47.2725 H   0  0  0  0  0  0  0  0  0  0  0  0
   34.5607   29.3079   45.4209 H   0  0  0  0  0  0  0  0  0  0  0  0
   31.7830   26.1743   48.0731 H   0  0  0  0  0  0  0  0  0  0  0  0
  1  6  1  0
  2  3  1  0
  2  1  1  0
  3  4  1  0
  4  5  1  0
  6  5  1  0
  7  8  1  0
  8  9  2  0
  9  3  1  0
  9 10  1  0
 11 10  2  0
 12 11  1  0
 13  8  1  0
 13 12  2  0
 14 13  1  0
 15 20  1  0
 15  1  1  0
 16 15  2  0
 17 18  2  0
 17 16  1  0
 18 19  1  0
 19 21  1  0
 19 20  2  0
 21 22  2  0
  1 23  1  1
  2 24  1  0
  2 25  1  0
  3 26  1  6
  4 27  1  0
  4 28  1  0
  5 29  1  0
  5 30  1  0
  6 31  1  0
  6 32  1  0
 10 33  1  0
 11 34  1  0
 12 35  1  0
 14 36  1  0
 14 37  1  0
 16 38  1  0
 17 39  1  0
 21 40  1  0
M  ISO  8  23  13  24  13  25  13  26  13  27  13  28  13  29  13  30  13
M  ISO  8  31  13  32  13  33  14  34  14  35  14  38  14  39  14  40   6
M  END
>  <minimizedAffinity>  (1) 
-7.516891

>  <minimizedRMSD>  (1) 
0.38009429

$$$$
