
     RDKit          3D

 22 23  0  0  0  0  0  0  0  0999 V2000
   36.1090   30.4600   49.9770 C   0  0  0  0  0  0  0  0  0  0  0  0
   38.2380   33.3940   49.1780 C   0  0  0  0  0  0  0  0  0  0  0  0
   39.0090   32.9280   48.1020 C   0  0  0  0  0  0  0  0  0  0  0  0
   38.7880   31.6090   47.6610 C   0  0  0  0  0  0  0  0  0  0  0  0
   37.8480   30.8690   48.2990 N   0  0  0  0  0  0  0  0  0  0  0  0
   37.1330   31.3710   49.3340 C   0  0  0  0  0  0  0  0  0  0  0  0
   37.3170   32.6140   49.7760 N   0  0  0  0  0  0  0  0  0  0  0  0
   36.1130   29.1370   49.2910 C   0  0  0  0  0  0  0  0  0  0  0  0
   34.8080   28.8310   48.6310 C   0  0  0  0  0  0  0  0  0  0  0  0
   34.5770   29.4090   47.3150 C   0  0  0  0  0  0  0  0  0  0  0  0
   32.9530   28.7890   46.9520 S   0  0  0  0  0  0  0  0  0  0  0  0
   32.8050   27.8550   48.5860 C   0  0  0  0  0  0  0  0  0  0  0  0
   33.8520   28.0820   49.1480 N   0  0  0  0  0  0  0  0  0  0  0  0
   36.3584   30.3218   51.0394 H   0  0  0  0  0  0  0  0  0  0  0  0
   35.1108   30.9136   49.8880 H   0  0  0  0  0  0  0  0  0  0  0  0
   38.3895   34.4210   49.5418 H   0  0  0  0  0  0  0  0  0  0  0  0
   39.7601   33.5709   47.6197 H   0  0  0  0  0  0  0  0  0  0  0  0
   39.3625   31.1904   46.8215 H   0  0  0  0  0  0  0  0  0  0  0  0
   36.9034   29.1387   48.5260 H   0  0  0  0  0  0  0  0  0  0  0  0
   36.2907   28.3651   50.0543 H   0  0  0  0  0  0  0  0  0  0  0  0
   35.2307   30.0544   46.7099 H   0  0  0  0  0  0  0  0  0  0  0  0
   31.9621   27.2456   48.9441 H   0  0  0  0  0  0  0  0  0  0  0  0
  2  7  2  0
  3  2  1  0
  4  3  2  0
  4  5  1  0
  5  6  2  0
  6  7  1  0
  6  1  1  0
  8  1  1  0
  9 13  1  0
  9  8  1  0
 10  9  2  0
 11 10  1  0
 11 12  1  0
 12 13  2  0
  1 14  1  0
  1 15  1  0
  2 16  1  0
  3 17  1  0
  4 18  1  0
  8 19  1  0
  8 20  1  0
 10 21  1  0
 12 22  1  0
M  ISO  8  14   8  15   8  16  14  17  14  18  14  19   8  20   8  21  14
M  ISO  1  22  14
M  END
>  <minimizedAffinity>  (1) 
-4.17976379

>  <minimizedRMSD>  (1) 
2.89335966

$$$$
