
     RDKit          3D

 36 39  0  0  0  0  0  0  0  0999 V2000
   32.6550   27.8990   48.7370 C   0  0  0  0  0  0  0  0  0  0  0  0
   32.4730   26.8600   47.7510 C   0  0  0  0  0  0  0  0  0  0  0  0
   30.7670   26.4520   48.0610 S   0  0  0  0  0  0  0  0  0  0  0  0
   30.5450   27.7060   49.4360 C   0  0  0  0  0  0  0  0  0  0  0  0
   31.6280   28.1960   49.4770 N   0  0  0  0  0  0  0  0  0  0  0  0
   29.1780   27.6930   50.0040 C   0  0  0  0  0  0  0  0  0  0  0  0
   28.7750   26.9950   51.0810 N   0  0  0  0  0  0  0  0  0  0  0  0
   27.5190   27.0260   51.5460 C   0  0  0  0  0  0  0  0  0  0  0  0
   26.5780   27.7690   50.9500 N   0  0  0  0  0  0  0  0  0  0  0  0
   26.8850   28.5010   49.8650 C   0  0  0  0  0  0  0  0  0  0  0  0
   25.8990   29.2570   49.2690 C   0  0  0  0  0  0  0  0  0  0  0  0
   26.2230   30.0090   48.1520 C   0  0  0  0  0  0  0  0  0  0  0  0
   27.5460   29.9510   47.6960 C   0  0  0  0  0  0  0  0  0  0  0  0
   28.5010   29.1800   48.3220 C   0  0  0  0  0  0  0  0  0  0  0  0
   28.1870   28.4430   49.4170 C   0  0  0  0  0  0  0  0  0  0  0  0
   34.0030   28.5470   48.8270 C   0  0  0  0  0  0  0  0  0  0  0  0
   34.1730   29.3660   50.0480 C   0  0  0  0  0  0  0  0  0  0  0  0
   37.6080   30.2020   51.1480 C   0  0  0  0  0  0  0  0  0  0  0  0
   38.0700   31.0290   50.1260 C   0  0  0  0  0  0  0  0  0  0  0  0
   37.1920   31.2890   49.0690 C   0  0  0  0  0  0  0  0  0  0  0  0
   35.9520   30.7430   49.0720 N   0  0  0  0  0  0  0  0  0  0  0  0
   35.5610   29.9410   50.1050 C   0  0  0  0  0  0  0  0  0  0  0  0
   36.3770   29.6770   51.1240 N   0  0  0  0  0  0  0  0  0  0  0  0
   33.1817   26.4420   47.0209 H   0  0  0  0  0  0  0  0  0  0  0  0
   27.2562   26.4307   52.4329 H   0  0  0  0  0  0  0  0  0  0  0  0
   24.8756   29.2631   49.6722 H   0  0  0  0  0  0  0  0  0  0  0  0
   25.4700   30.6282   47.6424 H   0  0  0  0  0  0  0  0  0  0  0  0
   27.8313   30.5389   46.8111 H   0  0  0  0  0  0  0  0  0  0  0  0
   29.5286   29.1618   47.9300 H   0  0  0  0  0  0  0  0  0  0  0  0
   34.7709   27.7594   48.8240 H   0  0  0  0  0  0  0  0  0  0  0  0
   34.1012   29.2212   47.9634 H   0  0  0  0  0  0  0  0  0  0  0  0
   33.4408   30.1869   50.0385 H   0  0  0  0  0  0  0  0  0  0  0  0
   34.0148   28.7282   50.9301 H   0  0  0  0  0  0  0  0  0  0  0  0
   38.2715   29.9750   51.9955 H   0  0  0  0  0  0  0  0  0  0  0  0
   39.0822   31.4590   50.1497 H   0  0  0  0  0  0  0  0  0  0  0  0
   37.5075   31.9355   48.2368 H   0  0  0  0  0  0  0  0  0  0  0  0
  1 16  1  0
  1  5  1  0
  2  3  1  0
  2  1  2  0
  3  4  1  0
  4  5  2  0
  4  6  1  0
  6  7  2  0
  7  8  1  0
  9  8  2  0
 10  9  1  0
 11 10  2  0
 12 11  1  0
 13 12  2  0
 13 14  1  0
 14 15  2  0
 15 10  1  0
 15  6  1  0
 16 17  1  0
 17 22  1  0
 19 18  2  0
 20 21  2  0
 20 19  1  0
 21 22  1  0
 22 23  2  0
 23 18  1  0
  2 24  1  0
  8 25  1  0
 11 26  1  0
 12 27  1  0
 13 28  1  0
 14 29  1  0
 16 30  1  0
 16 31  1  0
 17 32  1  0
 17 33  1  0
 18 34  1  0
 19 35  1  0
 20 36  1  0
M  ISO  8  24  14  25  14  26  14  27  14  28  14  29  14  30   8  31   8
M  ISO  5  32   8  33   8  34  14  35  14  36  14
M  END
>  <minimizedAffinity>  (1) 
-6.79058552

>  <minimizedRMSD>  (1) 
2.85459423

$$$$
