
     RDKit          3D

 32 34  0  0  0  0  0  0  0  0999 V2000
   34.8440   28.4470   49.3460 C   0  0  0  0  0  0  0  0  0  0  0  0
   33.5650   28.2750   48.5700 C   0  0  0  0  0  0  0  0  0  0  0  0
   33.6010   28.5150   47.1470 C   0  0  0  0  0  0  0  0  0  0  0  0
   31.9060   28.1880   46.7310 S   0  0  0  0  0  0  0  0  0  0  0  0
   31.4030   27.7840   48.4910 C   0  0  0  0  0  0  0  0  0  0  0  0
   32.4250   27.9250   49.0930 N   0  0  0  0  0  0  0  0  0  0  0  0
   29.9810   27.4180   48.7070 C   0  0  0  0  0  0  0  0  0  0  0  0
   29.1050   27.1280   47.7070 C   0  0  0  0  0  0  0  0  0  0  0  0
   27.8160   26.8080   48.1220 C   0  0  0  0  0  0  0  0  0  0  0  0
   27.4610   26.7910   49.4600 C   0  0  0  0  0  0  0  0  0  0  0  0
   28.3840   27.0930   50.4440 C   0  0  0  0  0  0  0  0  0  0  0  0
   29.6880   27.4170   50.0540 C   0  0  0  0  0  0  0  0  0  0  0  0
   34.9380   29.7980   49.9810 C   0  0  0  0  0  0  0  0  0  0  0  0
   37.6180   32.3170   49.4990 C   0  0  0  0  0  0  0  0  0  0  0  0
   38.3470   31.7700   48.4190 C   0  0  0  0  0  0  0  0  0  0  0  0
   37.9160   30.5560   47.8730 C   0  0  0  0  0  0  0  0  0  0  0  0
   36.8170   29.9680   48.4130 N   0  0  0  0  0  0  0  0  0  0  0  0
   36.1480   30.5350   49.4550 C   0  0  0  0  0  0  0  0  0  0  0  0
   36.5370   31.6830   49.9890 N   0  0  0  0  0  0  0  0  0  0  0  0
   35.6949   28.3167   48.6612 H   0  0  0  0  0  0  0  0  0  0  0  0
   34.8586   27.6937   50.1474 H   0  0  0  0  0  0  0  0  0  0  0  0
   34.4406   28.8154   46.5029 H   0  0  0  0  0  0  0  0  0  0  0  0
   29.3952   27.1453   46.6461 H   0  0  0  0  0  0  0  0  0  0  0  0
   27.0570   26.5614   47.3650 H   0  0  0  0  0  0  0  0  0  0  0  0
   26.4300   26.5336   49.7442 H   0  0  0  0  0  0  0  0  0  0  0  0
   28.1003   27.0789   51.5067 H   0  0  0  0  0  0  0  0  0  0  0  0
   30.4572   27.6638   50.8006 H   0  0  0  0  0  0  0  0  0  0  0  0
   34.0307   30.3742   49.7469 H   0  0  0  0  0  0  0  0  0  0  0  0
   35.0342   29.6784   51.0702 H   0  0  0  0  0  0  0  0  0  0  0  0
   37.9376   33.2710   49.9437 H   0  0  0  0  0  0  0  0  0  0  0  0
   39.2316   32.2860   48.0174 H   0  0  0  0  0  0  0  0  0  0  0  0
   38.4511   30.0916   47.0316 H   0  0  0  0  0  0  0  0  0  0  0  0
  1 13  1  0
  2  6  1  0
  2  1  1  0
  3  2  2  0
  4  3  1  0
  4  5  1  0
  5  7  1  0
  5  6  2  0
  7 12  2  0
  8  9  2  0
  8  7  1  0
  9 10  1  0
 10 11  2  0
 12 11  1  0
 14 19  2  0
 15 14  1  0
 16 17  1  0
 16 15  2  0
 17 18  2  0
 18 13  1  0
 18 19  1  0
  1 20  1  0
  1 21  1  0
  3 22  1  0
  8 23  1  0
  9 24  1  0
 10 25  1  0
 11 26  1  0
 12 27  1  0
 13 28  1  0
 13 29  1  0
 14 30  1  0
 15 31  1  0
 16 32  1  0
M  ISO  8  20   8  21   8  22  14  23  14  24  14  25  14  26  14  27  14
M  ISO  5  28   8  29   8  30  14  31  14  32  14
M  END
>  <minimizedAffinity>  (1) 
-5.55611658

>  <minimizedRMSD>  (1) 
1.54760253

$$$$
