
     RDKit          3D

 30 31  0  0  0  0  0  0  0  0999 V2000
   34.4620   28.4100   49.3550 C   0  0  0  0  0  0  0  0  0  0  0  0
   33.2100   28.2830   48.5280 C   0  0  0  0  0  0  0  0  0  0  0  0
   33.1930   28.8750   47.2140 C   0  0  0  0  0  0  0  0  0  0  0  0
   31.5550   28.4590   46.6810 S   0  0  0  0  0  0  0  0  0  0  0  0
   31.1300   27.5630   48.2740 C   0  0  0  0  0  0  0  0  0  0  0  0
   32.1270   27.6690   48.9200 N   0  0  0  0  0  0  0  0  0  0  0  0
   29.7640   26.9640   48.3880 N   0  0  0  0  0  0  0  0  0  0  0  0
   28.6650   27.4390   49.6160 S   0  0  0  0  0  0  0  0  0  0  0  0
   28.6120   28.9410   49.6570 O   0  0  0  0  0  0  0  0  0  0  0  0
   29.1050   26.9490   50.9430 O   0  0  0  0  0  0  0  0  0  0  0  0
   27.1320   26.8320   49.2430 O   0  0  0  0  0  0  0  0  0  0  0  0
   34.5940   29.7420   49.9920 C   0  0  0  0  0  0  0  0  0  0  0  0
   37.4400   32.1160   49.6820 C   0  0  0  0  0  0  0  0  0  0  0  0
   38.1960   31.5460   48.6600 C   0  0  0  0  0  0  0  0  0  0  0  0
   37.7230   30.3610   48.0920 C   0  0  0  0  0  0  0  0  0  0  0  0
   36.5640   29.8260   48.5560 N   0  0  0  0  0  0  0  0  0  0  0  0
   35.8730   30.4220   49.5490 C   0  0  0  0  0  0  0  0  0  0  0  0
   36.2910   31.5540   50.1190 N   0  0  0  0  0  0  0  0  0  0  0  0
   35.3325   28.2436   48.7035 H   0  0  0  0  0  0  0  0  0  0  0  0
   34.4066   27.6612   50.1589 H   0  0  0  0  0  0  0  0  0  0  0  0
   33.9810   29.4324   46.6865 H   0  0  0  0  0  0  0  0  0  0  0  0
   29.4750   26.2453   47.7092 H   0  0  0  0  0  0  0  0  0  0  0  0
   28.6013   29.2452   50.5990 H   0  0  0  0  0  0  0  0  0  0  0  0
   28.6444   27.4619   51.6535 H   0  0  0  0  0  0  0  0  0  0  0  0
   26.6413   26.6377   50.0806 H   0  0  0  0  0  0  0  0  0  0  0  0
   33.7349   30.3663   49.7052 H   0  0  0  0  0  0  0  0  0  0  0  0
   34.6225   29.6110   51.0838 H   0  0  0  0  0  0  0  0  0  0  0  0
   37.7882   33.0503   50.1467 H   0  0  0  0  0  0  0  0  0  0  0  0
   39.1303   32.0118   48.3135 H   0  0  0  0  0  0  0  0  0  0  0  0
   38.2804   29.8687   47.2815 H   0  0  0  0  0  0  0  0  0  0  0  0
  1 12  1  0
  2  6  1  0
  2  1  1  0
  3  2  2  0
  4  3  1  0
  4  5  1  0
  5  7  1  0
  5  6  2  0
  7  8  1  0
  8  9  1  0
  8 10  1  0
 11  8  1  0
 13 18  2  0
 14 13  1  0
 15 16  1  0
 15 14  2  0
 16 17  2  0
 17 12  1  0
 17 18  1  0
  1 19  1  0
  1 20  1  0
  3 21  1  0
  7 22  1  0
  9 23  1  0
 10 24  1  0
 11 25  1  0
 12 26  1  0
 12 27  1  0
 13 28  1  0
 14 29  1  0
 15 30  1  0
M  ISO  8  19   8  20   8  21  14  23   3  24   3  25   3  26   8  27   8
M  ISO  3  28  14  29  14  30  14
M  END
>  <minimizedAffinity>  (1) 
-5.24055576

>  <minimizedRMSD>  (1) 
1.92198348

$$$$
