
     RDKit          3D

 29 31  0  0  0  0  0  0  0  0999 V2000
   34.8260   28.4550   49.3800 C   0  0  0  0  0  0  0  0  0  0  0  0
   33.5470   28.2640   48.6130 C   0  0  0  0  0  0  0  0  0  0  0  0
   33.5720   28.4590   47.1760 C   0  0  0  0  0  0  0  0  0  0  0  0
   31.8810   28.1340   46.7680 S   0  0  0  0  0  0  0  0  0  0  0  0
   31.3670   27.7870   48.5240 C   0  0  0  0  0  0  0  0  0  0  0  0
   32.3890   27.9370   49.1260 N   0  0  0  0  0  0  0  0  0  0  0  0
   30.0060   27.4210   48.9890 C   0  0  0  0  0  0  0  0  0  0  0  0
   29.4500   27.3600   50.2260 C   0  0  0  0  0  0  0  0  0  0  0  0
   28.1610   26.9610   50.0580 C   0  0  0  0  0  0  0  0  0  0  0  0
   27.9200   26.7780   48.7330 N   0  0  0  0  0  0  0  0  0  0  0  0
   29.0570   27.0620   48.0840 N   0  0  0  0  0  0  0  0  0  0  0  0
   34.9000   29.8260   49.9720 C   0  0  0  0  0  0  0  0  0  0  0  0
   37.6460   32.2910   49.4900 C   0  0  0  0  0  0  0  0  0  0  0  0
   38.3600   31.7430   48.4170 C   0  0  0  0  0  0  0  0  0  0  0  0
   37.8970   30.5410   47.8700 C   0  0  0  0  0  0  0  0  0  0  0  0
   36.7890   29.9740   48.4070 N   0  0  0  0  0  0  0  0  0  0  0  0
   36.1340   30.5430   49.4450 C   0  0  0  0  0  0  0  0  0  0  0  0
   36.5400   31.6890   49.9970 N   0  0  0  0  0  0  0  0  0  0  0  0
   35.6779   28.3114   48.6991 H   0  0  0  0  0  0  0  0  0  0  0  0
   34.8558   27.7197   50.1976 H   0  0  0  0  0  0  0  0  0  0  0  0
   34.4113   28.7335   46.5201 H   0  0  0  0  0  0  0  0  0  0  0  0
   29.9466   27.5892   51.1804 H   0  0  0  0  0  0  0  0  0  0  0  0
   27.4298   26.8103   50.8658 H   0  0  0  0  0  0  0  0  0  0  0  0
   27.0311   26.4777   48.3081 H   0  0  0  0  0  0  0  0  0  0  0  0
   33.9999   30.3939   49.6941 H   0  0  0  0  0  0  0  0  0  0  0  0
   34.9624   29.7482   51.0675 H   0  0  0  0  0  0  0  0  0  0  0  0
   37.9912   33.2361   49.9345 H   0  0  0  0  0  0  0  0  0  0  0  0
   39.2555   32.2412   48.0172 H   0  0  0  0  0  0  0  0  0  0  0  0
   38.4192   30.0680   47.0253 H   0  0  0  0  0  0  0  0  0  0  0  0
  1 12  1  0
  2  6  1  0
  2  1  1  0
  3  2  2  0
  4  3  1  0
  4  5  1  0
  5  7  1  0
  5  6  2  0
  7  8  1  0
  9  8  2  0
 10  9  1  0
 11 10  1  0
 11  7  2  0
 13 18  2  0
 14 13  1  0
 15 16  1  0
 15 14  2  0
 16 17  2  0
 17 12  1  0
 17 18  1  0
  1 19  1  0
  1 20  1  0
  3 21  1  0
  8 22  1  0
  9 23  1  0
 10 24  1  0
 12 25  1  0
 12 26  1  0
 13 27  1  0
 14 28  1  0
 15 29  1  0
M  ISO  8  19   8  20   8  21  14  22  14  23  14  24   9  25   8  26   8
M  ISO  3  27  14  28  14  29  14
M  END
>  <minimizedAffinity>  (1) 
-5.11935091

>  <minimizedRMSD>  (1) 
1.54500794

$$$$
