
     RDKit          3D

 39 41  0  0  1  0  0  0  0  0999 V2000
   35.2990   30.7790   46.4000 N   0  0  0  0  0  0  0  0  0  0  0  0
   34.2200   29.9230   46.8040 C   0  0  1  0  0  0  0  0  0  0  0  0
   33.4890   29.3560   45.6170 C   0  0  0  0  0  0  0  0  0  0  0  0
   34.4660   28.5730   44.8670 N   0  0  0  0  0  0  0  0  0  0  0  0
   35.3560   29.5870   44.2870 C   0  0  0  0  0  0  0  0  0  0  0  0
   36.1580   30.1200   45.4550 C   0  0  1  0  0  0  0  0  0  0  0  0
   37.2150   30.9220   44.9460 N   0  0  0  0  0  0  0  0  0  0  0  0
   38.1490   30.0590   44.2470 C   0  0  0  0  0  0  0  0  0  0  0  0
   39.5820   30.4940   44.4810 C   0  0  0  0  0  0  0  0  0  0  0  0
   39.9190   30.5700   45.8750 N   0  0  0  0  0  0  0  0  0  0  0  0
   38.8150   30.9480   46.7140 C   0  0  0  0  0  0  0  0  0  0  0  0
   37.8750   31.7710   45.8970 C   0  0  0  0  0  0  0  0  0  0  0  0
   34.7690   28.4890   47.7990 S   0  0  0  0  0  0  0  0  0  0  0  0
   37.5560   29.9470   50.3590 C   0  0  0  0  0  0  0  0  0  0  0  0
   36.9630   29.5460   49.1710 C   0  0  0  0  0  0  0  0  0  0  0  0
   35.6800   29.0490   49.2280 C   0  0  0  0  0  0  0  0  0  0  0  0
   35.0520   28.9730   50.4360 N   0  0  0  0  0  0  0  0  0  0  0  0
   35.6560   29.3690   51.5620 C   0  0  0  0  0  0  0  0  0  0  0  0
   36.9180   29.8620   51.5360 N   0  0  0  0  0  0  0  0  0  0  0  0
   34.9100   31.6280   45.9655 H   0  0  0  0  0  0  0  0  0  0  0  0
   33.5693   30.5715   47.4091 H   0  0  0  0  0  0  0  0  0  0  0  0
   32.6618   28.7127   45.9514 H   0  0  0  0  0  0  0  0  0  0  0  0
   33.0567   30.1545   44.9962 H   0  0  0  0  0  0  0  0  0  0  0  0
   34.9872   27.9411   45.4915 H   0  0  0  0  0  0  0  0  0  0  0  0
   36.0206   29.1341   43.5365 H   0  0  0  0  0  0  0  0  0  0  0  0
   34.7961   30.3825   43.7734 H   0  0  0  0  0  0  0  0  0  0  0  0
   36.6241   29.3052   46.0285 H   0  0  0  0  0  0  0  0  0  0  0  0
   37.9344   30.0976   43.1688 H   0  0  0  0  0  0  0  0  0  0  0  0
   38.0299   29.0352   44.6312 H   0  0  0  0  0  0  0  0  0  0  0  0
   40.2530   29.7697   43.9960 H   0  0  0  0  0  0  0  0  0  0  0  0
   39.6959   31.5025   44.0568 H   0  0  0  0  0  0  0  0  0  0  0  0
   40.2576   29.6460   46.1790 H   0  0  0  0  0  0  0  0  0  0  0  0
   38.3003   30.0480   47.0816 H   0  0  0  0  0  0  0  0  0  0  0  0
   39.1731   31.5239   47.5801 H   0  0  0  0  0  0  0  0  0  0  0  0
   38.4365   32.5533   45.3654 H   0  0  0  0  0  0  0  0  0  0  0  0
   37.1293   32.2439   46.5529 H   0  0  0  0  0  0  0  0  0  0  0  0
   38.5805   30.3468   50.3353 H   0  0  0  0  0  0  0  0  0  0  0  0
   37.5002   29.6225   48.2142 H   0  0  0  0  0  0  0  0  0  0  0  0
   35.1218   29.2935   52.5206 H   0  0  0  0  0  0  0  0  0  0  0  0
  1  2  1  0
  2 13  1  0
  3  2  1  0
  4  3  1  0
  5  4  1  0
  5  6  1  0
  6  1  1  0
  7  6  1  0
  7 12  1  0
  8  9  1  0
  8  7  1  0
  9 10  1  0
 10 11  1  0
 12 11  1  0
 13 16  1  0
 14 19  2  0
 15 16  2  0
 15 14  1  0
 16 17  1  0
 17 18  2  0
 19 18  1  0
  1 20  1  0
  2 21  1  1
  3 22  1  0
  3 23  1  0
  4 24  1  0
  5 25  1  0
  5 26  1  0
  6 27  1  1
  8 28  1  0
  8 29  1  0
  9 30  1  0
  9 31  1  0
 10 32  1  0
 11 33  1  0
 11 34  1  0
 12 35  1  0
 12 36  1  0
 14 37  1  0
 15 38  1  0
 18 39  1  0
M  ISO  8  20   5  21  13  22  13  23  13  24   5  25  13  26  13  27  13
M  ISO  8  28  13  29  13  30  13  31  13  32   5  33  13  34  13  35  13
M  ISO  4  36  13  37  14  38  14  39  14
M  END
>  <minimizedAffinity>  (1) 
-4.3487649

>  <minimizedRMSD>  (1) 
4.30306244

$$$$
