
     RDKit          3D

 37 39  0  0  1  0  0  0  0  0999 V2000
   35.0390   30.6460   46.4130 N   0  0  0  0  0  0  0  0  0  0  0  0
   34.0460   30.0750   47.2830 C   0  0  1  0  0  0  0  0  0  0  0  0
   32.9540   29.3960   46.5110 C   0  0  0  0  0  0  0  0  0  0  0  0
   33.5780   28.3610   45.6940 N   0  0  0  0  0  0  0  0  0  0  0  0
   34.3180   29.1270   44.6760 C   0  0  0  0  0  0  0  0  0  0  0  0
   35.5240   29.6900   45.4370 C   0  0  1  0  0  0  0  0  0  0  0  0
   36.2490   30.4510   44.4190 N   0  0  0  0  0  0  0  0  0  0  0  0
   36.8150   29.6590   43.3860 C   0  0  0  0  0  0  0  0  0  0  0  0
   38.2970   29.9750   43.2960 C   0  0  0  0  0  0  0  0  0  0  0  0
   38.4590   31.2510   44.1130 C   0  0  0  0  0  0  0  0  0  0  0  0
   37.3080   31.1740   45.0600 C   0  0  0  0  0  0  0  0  0  0  0  0
   34.7640   28.7570   48.3600 S   0  0  0  0  0  0  0  0  0  0  0  0
   38.1060   30.5770   49.7810 C   0  0  0  0  0  0  0  0  0  0  0  0
   37.1740   30.0890   48.8600 C   0  0  0  0  0  0  0  0  0  0  0  0
   36.0680   29.4490   49.3740 C   0  0  0  0  0  0  0  0  0  0  0  0
   35.9370   29.3240   50.7370 N   0  0  0  0  0  0  0  0  0  0  0  0
   36.8560   29.8060   51.5640 C   0  0  0  0  0  0  0  0  0  0  0  0
   37.9470   30.4360   51.0900 N   0  0  0  0  0  0  0  0  0  0  0  0
   34.6238   31.4467   45.9156 H   0  0  0  0  0  0  0  0  0  0  0  0
   33.6605   30.9200   47.8724 H   0  0  0  0  0  0  0  0  0  0  0  0
   32.2294   28.9428   47.2035 H   0  0  0  0  0  0  0  0  0  0  0  0
   32.4167   30.1188   45.8795 H   0  0  0  0  0  0  0  0  0  0  0  0
   34.2180   27.7831   46.2573 H   0  0  0  0  0  0  0  0  0  0  0  0
   33.6973   29.9399   44.2710 H   0  0  0  0  0  0  0  0  0  0  0  0
   34.6125   28.5102   43.8141 H   0  0  0  0  0  0  0  0  0  0  0  0
   36.1229   28.9124   45.9337 H   0  0  0  0  0  0  0  0  0  0  0  0
   36.6761   28.5926   43.6173 H   0  0  0  0  0  0  0  0  0  0  0  0
   36.3228   29.8807   42.4276 H   0  0  0  0  0  0  0  0  0  0  0  0
   38.8965   29.1586   43.7251 H   0  0  0  0  0  0  0  0  0  0  0  0
   38.6395   30.0940   42.2575 H   0  0  0  0  0  0  0  0  0  0  0  0
   39.4179   31.2593   44.6520 H   0  0  0  0  0  0  0  0  0  0  0  0
   38.4650   32.1659   43.5023 H   0  0  0  0  0  0  0  0  0  0  0  0
   36.9661   32.1882   45.3140 H   0  0  0  0  0  0  0  0  0  0  0  0
   37.6109   30.6633   45.9860 H   0  0  0  0  0  0  0  0  0  0  0  0
   39.0013   31.0954   49.4072 H   0  0  0  0  0  0  0  0  0  0  0  0
   37.3173   30.2105   47.7762 H   0  0  0  0  0  0  0  0  0  0  0  0
   36.7247   29.6893   52.6499 H   0  0  0  0  0  0  0  0  0  0  0  0
  1  2  1  0
  2 12  1  0
  3  2  1  0
  4  3  1  0
  5  6  1  0
  5  4  1  0
  6  1  1  0
  7  8  1  0
  7 11  1  0
  7  6  1  0
  9  8  1  0
  9 10  1  0
 10 11  1  0
 12 15  1  0
 13 18  2  0
 14 15  2  0
 14 13  1  0
 15 16  1  0
 16 17  2  0
 18 17  1  0
  1 19  1  0
  2 20  1  1
  3 21  1  0
  3 22  1  0
  4 23  1  0
  5 24  1  0
  5 25  1  0
  6 26  1  1
  8 27  1  0
  8 28  1  0
  9 29  1  0
  9 30  1  0
 10 31  1  0
 10 32  1  0
 11 33  1  0
 11 34  1  0
 13 35  1  0
 14 36  1  0
 17 37  1  0
M  ISO  8  19   5  20  13  21  13  22  13  23   5  24  13  25  13  26  13
M  ISO  8  27  13  28  13  29  13  30  13  31  13  32  13  33  13  34  13
M  ISO  3  35  14  36  14  37  14
M  END
>  <minimizedAffinity>  (1) 
-4.26611567

>  <minimizedRMSD>  (1) 
5.04086256

$$$$
