
     RDKit          3D

 34 36  0  0  1  0  0  0  0  0999 V2000
   39.2560   32.8290   42.3560 N   0  0  0  0  0  0  0  0  0  0  0  0
   38.5920   32.7350   43.6070 C   0  0  1  0  0  0  0  0  0  0  0  0
   37.0880   32.6380   43.4230 C   0  0  0  0  0  0  0  0  0  0  0  0
   36.8270   31.4720   42.6000 N   0  0  0  0  0  0  0  0  0  0  0  0
   37.3410   31.8300   41.2670 C   0  0  0  0  0  0  0  0  0  0  0  0
   38.8620   31.8230   41.4290 C   0  0  2  0  0  0  0  0  0  0  0  0
   39.3650   30.4650   41.7020 C   0  0  0  0  0  0  0  0  0  0  0  0
   40.7270   30.3100   41.8480 C   0  0  0  0  0  0  0  0  0  0  0  0
   41.2420   29.0420   42.1080 C   0  0  0  0  0  0  0  0  0  0  0  0
   40.3450   27.9740   42.2090 C   0  0  0  0  0  0  0  0  0  0  0  0
   38.9830   28.1420   42.0610 C   0  0  0  0  0  0  0  0  0  0  0  0
   38.5660   29.3870   41.8150 N   0  0  0  0  0  0  0  0  0  0  0  0
   39.0490   31.2020   44.5280 S   0  0  0  0  0  0  0  0  0  0  0  0
   38.5240   32.0740   48.4680 C   0  0  0  0  0  0  0  0  0  0  0  0
   39.1210   32.0710   47.2100 C   0  0  0  0  0  0  0  0  0  0  0  0
   38.4610   31.3430   46.2210 C   0  0  0  0  0  0  0  0  0  0  0  0
   37.2950   30.6900   46.5320 N   0  0  0  0  0  0  0  0  0  0  0  0
   36.7750   30.7310   47.7530 C   0  0  0  0  0  0  0  0  0  0  0  0
   37.3950   31.4330   48.7410 N   0  0  0  0  0  0  0  0  0  0  0  0
   39.0490   33.7505   41.9451 H   0  0  0  0  0  0  0  0  0  0  0  0
   38.8924   33.6391   44.1568 H   0  0  0  0  0  0  0  0  0  0  0  0
   36.5959   32.5264   44.4004 H   0  0  0  0  0  0  0  0  0  0  0  0
   36.6953   33.5474   42.9447 H   0  0  0  0  0  0  0  0  0  0  0  0
   37.3219   30.6482   42.9705 H   0  0  0  0  0  0  0  0  0  0  0  0
   36.9863   32.8275   40.9684 H   0  0  0  0  0  0  0  0  0  0  0  0
   37.0001   31.1341   40.4863 H   0  0  0  0  0  0  0  0  0  0  0  0
   39.3500   32.0957   40.4816 H   0  0  0  0  0  0  0  0  0  0  0  0
   41.3987   31.1767   41.7603 H   0  0  0  0  0  0  0  0  0  0  0  0
   42.3239   28.8853   42.2304 H   0  0  0  0  0  0  0  0  0  0  0  0
   40.7377   26.9670   42.4131 H   0  0  0  0  0  0  0  0  0  0  0  0
   38.2811   27.2989   42.1410 H   0  0  0  0  0  0  0  0  0  0  0  0
   39.0135   32.6366   49.2767 H   0  0  0  0  0  0  0  0  0  0  0  0
   40.0579   32.6110   47.0085 H   0  0  0  0  0  0  0  0  0  0  0  0
   35.8386   30.1951   47.9673 H   0  0  0  0  0  0  0  0  0  0  0  0
  1  2  1  0
  2 13  1  0
  3  2  1  0
  4  3  1  0
  5  6  1  0
  5  4  1  0
  6  7  1  0
  6  1  1  0
  7 12  1  0
  7  8  2  0
  8  9  1  0
  9 10  2  0
 11 10  1  0
 12 11  2  0
 13 16  1  0
 14 19  2  0
 15 14  1  0
 16 17  1  0
 16 15  2  0
 17 18  2  0
 18 19  1  0
  1 20  1  0
  2 21  1  1
  3 22  1  0
  3 23  1  0
  4 24  1  0
  5 25  1  0
  5 26  1  0
  6 27  1  6
  8 28  1  0
  9 29  1  0
 10 30  1  0
 11 31  1  0
 14 32  1  0
 15 33  1  0
 18 34  1  0
M  ISO  8  20   5  21  13  22  13  23  13  24   5  25  13  26  13  27  13
M  ISO  7  28  14  29  14  30  14  31  14  32  14  33  14  34  14
M  END
>  <minimizedAffinity>  (1) 
-4.11836243

>  <minimizedRMSD>  (1) 
3.77950549

$$$$
