
     RDKit          3D

 45 48  0  0  0  0  0  0  0  0999 V2000
   34.2030   28.0460   48.9490 C   0  0  0  0  0  0  0  0  0  0  0  0
   32.8660   28.1000   48.2680 C   0  0  0  0  0  0  0  0  0  0  0  0
   32.7990   28.6030   46.9070 C   0  0  0  0  0  0  0  0  0  0  0  0
   31.0650   28.4630   46.5760 S   0  0  0  0  0  0  0  0  0  0  0  0
   30.6420   27.7570   48.2790 C   0  0  0  0  0  0  0  0  0  0  0  0
   31.7250   27.7360   48.7690 N   0  0  0  0  0  0  0  0  0  0  0  0
   29.3760   27.3510   48.8440 N   0  0  0  0  0  0  0  0  0  0  0  0
   28.3910   26.8840   47.9230 C   0  0  0  0  0  0  0  0  0  0  0  0
   27.0240   26.7650   48.4780 C   0  0  0  0  0  0  0  0  0  0  0  0
   26.8740   27.4820   49.7490 N   0  0  0  0  0  0  0  0  0  0  0  0
   27.8570   26.8690   50.6380 C   0  0  0  0  0  0  0  0  0  0  0  0
   29.1930   27.4420   50.2710 C   0  0  0  0  0  0  0  0  0  0  0  0
   34.2440   28.9700   50.1140 C   0  0  0  0  0  0  0  0  0  0  0  0
   37.4850   30.1360   51.4720 C   0  0  0  0  0  0  0  0  0  0  0  0
   38.0910   30.7330   50.3630 C   0  0  0  0  0  0  0  0  0  0  0  0
   37.3810   30.7280   49.1640 C   0  0  0  0  0  0  0  0  0  0  0  0
   36.1640   30.1490   49.1600 N   0  0  0  0  0  0  0  0  0  0  0  0
   35.6140   29.5840   50.2530 C   0  0  0  0  0  0  0  0  0  0  0  0
   36.2630   29.5750   51.4010 N   0  0  0  0  0  0  0  0  0  0  0  0
   37.8660   31.3050   47.9160 C   0  0  0  0  0  0  0  0  0  0  0  0
   38.9410   32.1490   47.8390 C   0  0  0  0  0  0  0  0  0  0  0  0
   39.4130   32.7010   46.6860 C   0  0  0  0  0  0  0  0  0  0  0  0
   38.7960   32.4160   45.4940 C   0  0  0  0  0  0  0  0  0  0  0  0
   37.7160   31.5650   45.5870 C   0  0  0  0  0  0  0  0  0  0  0  0
   37.2810   31.0430   46.7360 N   0  0  0  0  0  0  0  0  0  0  0  0
   34.9845   28.3365   48.2314 H   0  0  0  0  0  0  0  0  0  0  0  0
   34.3728   27.0203   49.3083 H   0  0  0  0  0  0  0  0  0  0  0  0
   33.6069   28.9713   46.2576 H   0  0  0  0  0  0  0  0  0  0  0  0
   28.7017   25.8914   47.5648 H   0  0  0  0  0  0  0  0  0  0  0  0
   28.3345   27.6379   47.1240 H   0  0  0  0  0  0  0  0  0  0  0  0
   26.3100   27.1801   47.7514 H   0  0  0  0  0  0  0  0  0  0  0  0
   26.8301   25.6991   48.6684 H   0  0  0  0  0  0  0  0  0  0  0  0
   27.0715   28.4853   49.6257 H   0  0  0  0  0  0  0  0  0  0  0  0
   27.6189   27.1053   51.6856 H   0  0  0  0  0  0  0  0  0  0  0  0
   27.8554   25.7742   50.5316 H   0  0  0  0  0  0  0  0  0  0  0  0
   29.9875   26.8765   50.7799 H   0  0  0  0  0  0  0  0  0  0  0  0
   29.2390   28.4963   50.5814 H   0  0  0  0  0  0  0  0  0  0  0  0
   33.5022   29.7691   49.9685 H   0  0  0  0  0  0  0  0  0  0  0  0
   34.0146   28.4014   51.0273 H   0  0  0  0  0  0  0  0  0  0  0  0
   38.0225   30.1241   52.4316 H   0  0  0  0  0  0  0  0  0  0  0  0
   39.0895   31.1890   50.4339 H   0  0  0  0  0  0  0  0  0  0  0  0
   39.4612   32.3996   48.7752 H   0  0  0  0  0  0  0  0  0  0  0  0
   40.2844   33.3718   46.7107 H   0  0  0  0  0  0  0  0  0  0  0  0
   39.1377   32.8353   44.5362 H   0  0  0  0  0  0  0  0  0  0  0  0
   37.1822   31.3010   44.6621 H   0  0  0  0  0  0  0  0  0  0  0  0
  1 13  1  0
  2  6  1  0
  2  1  1  0
  3  2  2  0
  4  3  1  0
  4  5  1  0
  5  6  2  0
  5  7  1  0
  7 12  1  0
  8  9  1  0
  8  7  1  0
  9 10  1  0
 10 11  1  0
 12 11  1  0
 13 18  1  0
 15 14  2  0
 16 15  1  0
 17 16  2  0
 17 18  1  0
 18 19  2  0
 19 14  1  0
 20 16  1  0
 21 20  2  0
 22 21  1  0
 23 24  1  0
 23 22  2  0
 24 25  2  0
 25 20  1  0
  1 26  1  0
  1 27  1  0
  3 28  1  0
  8 29  1  0
  8 30  1  0
  9 31  1  0
  9 32  1  0
 10 33  1  0
 11 34  1  0
 11 35  1  0
 12 36  1  0
 12 37  1  0
 13 38  1  0
 13 39  1  0
 14 40  1  0
 15 41  1  0
 21 42  1  0
 22 43  1  0
 23 44  1  0
 24 45  1  0
M  ISO  8  26   8  27   8  28  14  29  13  30  13  31  13  32  13  33   5
M  ISO  8  34  13  35  13  36  13  37  13  38   8  39   8  40  14  41  14
M  ISO  4  42  14  43  14  44  14  45  14
M  END
>  <minimizedAffinity>  (1) 
-7.40066481

>  <minimizedRMSD>  (1) 
1.93596447

$$$$
