
     RDKit          3D

 44 47  0  0  0  0  0  0  0  0999 V2000
   34.2070   28.0460   48.9310 C   0  0  0  0  0  0  0  0  0  0  0  0
   32.8750   28.1020   48.2370 C   0  0  0  0  0  0  0  0  0  0  0  0
   32.8010   28.5920   46.8920 C   0  0  0  0  0  0  0  0  0  0  0  0
   31.0690   28.4520   46.5590 S   0  0  0  0  0  0  0  0  0  0  0  0
   30.6470   27.7600   48.2450 C   0  0  0  0  0  0  0  0  0  0  0  0
   31.7310   27.7440   48.7310 N   0  0  0  0  0  0  0  0  0  0  0  0
   29.3830   27.3490   48.8330 N   0  0  0  0  0  0  0  0  0  0  0  0
   28.4020   26.8540   47.9360 C   0  0  0  0  0  0  0  0  0  0  0  0
   27.0130   26.8360   48.4740 C   0  0  0  0  0  0  0  0  0  0  0  0
   26.8840   27.4950   49.7660 N   0  0  0  0  0  0  0  0  0  0  0  0
   27.8820   26.8630   50.6330 C   0  0  0  0  0  0  0  0  0  0  0  0
   29.2020   27.4620   50.2520 C   0  0  0  0  0  0  0  0  0  0  0  0
   34.2480   28.9430   50.1070 C   0  0  0  0  0  0  0  0  0  0  0  0
   37.4760   30.1170   51.4950 C   0  0  0  0  0  0  0  0  0  0  0  0
   38.0940   30.7160   50.3830 C   0  0  0  0  0  0  0  0  0  0  0  0
   37.3920   30.7060   49.1790 C   0  0  0  0  0  0  0  0  0  0  0  0
   36.1740   30.1250   49.1620 N   0  0  0  0  0  0  0  0  0  0  0  0
   35.6150   29.5610   50.2520 C   0  0  0  0  0  0  0  0  0  0  0  0
   36.2620   29.5590   51.4010 N   0  0  0  0  0  0  0  0  0  0  0  0
   37.8820   31.2790   47.9310 C   0  0  0  0  0  0  0  0  0  0  0  0
   37.2960   31.0350   46.7080 C   0  0  0  0  0  0  0  0  0  0  0  0
   37.7230   31.5540   45.5070 C   0  0  0  0  0  0  0  0  0  0  0  0
   38.8000   32.3660   45.5270 N   0  0  0  0  0  0  0  0  0  0  0  0
   39.3910   32.6190   46.7290 C   0  0  0  0  0  0  0  0  0  0  0  0
   38.9510   32.0970   47.8870 N   0  0  0  0  0  0  0  0  0  0  0  0
   34.9915   28.3505   48.2225 H   0  0  0  0  0  0  0  0  0  0  0  0
   34.3698   27.0154   49.2793 H   0  0  0  0  0  0  0  0  0  0  0  0
   33.6075   28.9581   46.2396 H   0  0  0  0  0  0  0  0  0  0  0  0
   28.6764   25.8242   47.6637 H   0  0  0  0  0  0  0  0  0  0  0  0
   28.3920   27.5429   47.0785 H   0  0  0  0  0  0  0  0  0  0  0  0
   26.3543   27.3457   47.7555 H   0  0  0  0  0  0  0  0  0  0  0  0
   26.7347   25.7816   48.6184 H   0  0  0  0  0  0  0  0  0  0  0  0
   27.0734   28.5034   49.6756 H   0  0  0  0  0  0  0  0  0  0  0  0
   27.6580   27.0730   51.6893 H   0  0  0  0  0  0  0  0  0  0  0  0
   27.8863   25.7698   50.5107 H   0  0  0  0  0  0  0  0  0  0  0  0
   30.0115   26.9262   50.7694 H   0  0  0  0  0  0  0  0  0  0  0  0
   29.2225   28.5228   50.5424 H   0  0  0  0  0  0  0  0  0  0  0  0
   33.5016   29.7410   49.9798 H   0  0  0  0  0  0  0  0  0  0  0  0
   34.0253   28.3559   51.0102 H   0  0  0  0  0  0  0  0  0  0  0  0
   38.0003   30.1065   52.4619 H   0  0  0  0  0  0  0  0  0  0  0  0
   39.0912   31.1739   50.4602 H   0  0  0  0  0  0  0  0  0  0  0  0
   36.4176   30.3732   46.6902 H   0  0  0  0  0  0  0  0  0  0  0  0
   37.2055   31.3156   44.5661 H   0  0  0  0  0  0  0  0  0  0  0  0
   40.2690   33.2813   46.7525 H   0  0  0  0  0  0  0  0  0  0  0  0
  1 13  1  0
  2  6  1  0
  2  1  1  0
  3  2  2  0
  4  3  1  0
  4  5  1  0
  5  6  2  0
  5  7  1  0
  7 12  1  0
  8  9  1  0
  8  7  1  0
  9 10  1  0
 10 11  1  0
 12 11  1  0
 13 18  1  0
 15 14  2  0
 16 15  1  0
 17 16  2  0
 17 18  1  0
 18 19  2  0
 19 14  1  0
 20 16  1  0
 21 20  2  0
 22 23  2  0
 22 21  1  0
 23 24  1  0
 24 25  2  0
 25 20  1  0
  1 26  1  0
  1 27  1  0
  3 28  1  0
  8 29  1  0
  8 30  1  0
  9 31  1  0
  9 32  1  0
 10 33  1  0
 11 34  1  0
 11 35  1  0
 12 36  1  0
 12 37  1  0
 13 38  1  0
 13 39  1  0
 14 40  1  0
 15 41  1  0
 21 42  1  0
 22 43  1  0
 24 44  1  0
M  ISO  8  26   8  27   8  28  14  29  13  30  13  31  13  32  13  33   5
M  ISO  8  34  13  35  13  36  13  37  13  38   8  39   8  40  14  41  14
M  ISO  3  42  14  43  14  44  14
M  END
>  <minimizedAffinity>  (1) 
-7.29316282

>  <minimizedRMSD>  (1) 
1.91184068

$$$$
