
     RDKit          3D

 28 29  0  0  1  0  0  0  0  0999 V2000
   38.7520   32.7430   45.3810 N   0  0  0  0  0  0  0  0  0  0  0  0
   37.4940   32.2230   44.9610 C   0  0  1  0  0  0  0  0  0  0  0  0
   37.4990   31.9190   43.4940 C   0  0  0  0  0  0  0  0  0  0  0  0
   38.5410   30.9370   43.2600 N   0  0  0  0  0  0  0  0  0  0  0  0
   39.7990   31.6510   43.4930 C   0  0  0  0  0  0  0  0  0  0  0  0
   39.8570   31.9110   44.9870 C   0  0  1  0  0  0  0  0  0  0  0  0
   41.1380   32.6640   45.2780 C   0  0  0  0  0  0  0  0  0  0  0  0
   37.0730   30.6490   45.8110 S   0  0  0  0  0  0  0  0  0  0  0  0
   38.1120   31.3410   49.6670 C   0  0  0  0  0  0  0  0  0  0  0  0
   38.2440   31.1980   48.2800 C   0  0  0  0  0  0  0  0  0  0  0  0
   37.0870   30.8690   47.5800 C   0  0  0  0  0  0  0  0  0  0  0  0
   35.9190   30.7070   48.2570 N   0  0  0  0  0  0  0  0  0  0  0  0
   35.8440   30.8540   49.5750 C   0  0  0  0  0  0  0  0  0  0  0  0
   36.9450   31.1750   50.3010 N   0  0  0  0  0  0  0  0  0  0  0  0
   38.8780   33.6767   44.9648 H   0  0  0  0  0  0  0  0  0  0  0  0
   36.7574   33.0012   45.2096 H   0  0  0  0  0  0  0  0  0  0  0  0
   36.5232   31.5118   43.1907 H   0  0  0  0  0  0  0  0  0  0  0  0
   37.6851   32.8312   42.9081 H   0  0  0  0  0  0  0  0  0  0  0  0
   38.4976   30.5876   42.2920 H   0  0  0  0  0  0  0  0  0  0  0  0
   40.6535   31.0340   43.1782 H   0  0  0  0  0  0  0  0  0  0  0  0
   39.8455   32.5872   42.9173 H   0  0  0  0  0  0  0  0  0  0  0  0
   39.8154   30.9573   45.5335 H   0  0  0  0  0  0  0  0  0  0  0  0
   41.2764   32.7453   46.3662 H   0  0  0  0  0  0  0  0  0  0  0  0
   41.9893   32.1226   44.8396 H   0  0  0  0  0  0  0  0  0  0  0  0
   41.0790   33.6711   44.8396 H   0  0  0  0  0  0  0  0  0  0  0  0
   39.0025   31.5999   50.2586 H   0  0  0  0  0  0  0  0  0  0  0  0
   39.2094   31.3381   47.7717 H   0  0  0  0  0  0  0  0  0  0  0  0
   34.8788   30.7140   50.0838 H   0  0  0  0  0  0  0  0  0  0  0  0
  2  1  1  0
  2  8  1  0
  3  2  1  0
  4  5  1  0
  4  3  1  0
  5  6  1  0
  6  7  1  0
  6  1  1  0
  8 11  1  0
  9 14  2  0
 10  9  1  0
 11 12  1  0
 11 10  2  0
 12 13  2  0
 13 14  1  0
  1 15  1  0
  2 16  1  6
  3 17  1  0
  3 18  1  0
  4 19  1  0
  5 20  1  0
  5 21  1  0
  6 22  1  1
  7 23  1  0
  7 24  1  0
  7 25  1  0
  9 26  1  0
 10 27  1  0
 13 28  1  0
M  ISO  8  15   5  16  13  17  13  18  13  19   5  20  13  21  13  22  13
M  ISO  6  23   8  24   8  25   8  26  14  27  14  28  14
M  END
>  <minimizedAffinity>  (1) 
-4.09725857

>  <minimizedRMSD>  (1) 
1.47716832

$$$$
