
     RDKit          3D

 52 55  0  0  1  0  0  0  0  0999 V2000
   35.2250   29.9780   47.5300 C   0  0  1  0  0  0  0  0  0  0  0  0
   34.4990   28.5880   47.6350 C   0  0  0  0  0  0  0  0  0  0  0  0
   33.8520   28.3810   48.9940 C   0  0  0  0  0  0  0  0  0  0  0  0
   34.7890   28.8220   50.0770 C   0  0  0  0  0  0  0  0  0  0  0  0
   36.1720   28.8370   49.5510 C   0  0  0  0  0  0  0  0  0  0  0  0
   36.3610   29.8670   48.4950 C   0  0  2  0  0  0  0  0  0  0  0  0
   34.5960   30.1080   45.1920 C   0  0  0  0  0  0  0  0  0  0  0  0
   35.0290   30.3420   43.8710 C   0  0  0  0  0  0  0  0  0  0  0  0
   36.3310   30.5110   43.4940 C   0  0  0  0  0  0  0  0  0  0  0  0
   37.3400   30.4520   44.4600 C   0  0  0  0  0  0  0  0  0  0  0  0
   36.9170   30.2230   45.7520 C   0  0  0  0  0  0  0  0  0  0  0  0
   35.5990   30.0570   46.1340 C   0  0  0  0  0  0  0  0  0  0  0  0
   32.6920   28.6340   44.9470 C   0  0  0  0  0  0  0  0  0  0  0  0
   33.2040   29.9070   45.3380 C   0  0  0  0  0  0  0  0  0  0  0  0
   32.3020   30.8330   45.8280 C   0  0  0  0  0  0  0  0  0  0  0  0
   30.9780   30.4660   45.9030 N   0  0  0  0  0  0  0  0  0  0  0  0
   30.5140   29.2730   45.5340 C   0  0  0  0  0  0  0  0  0  0  0  0
   31.3790   28.3680   45.0590 N   0  0  0  0  0  0  0  0  0  0  0  0
   36.9010   31.2030   48.9580 C   0  0  0  0  0  0  0  0  0  0  0  0
   38.3510   31.1160   49.3410 C   0  0  0  0  0  0  0  0  0  0  0  0
   38.9480   32.5290   49.4110 C   0  0  0  0  0  0  0  0  0  0  0  0
   37.8830   33.5950   49.3690 C   0  0  0  0  0  0  0  0  0  0  0  0
   36.8060   33.2240   50.3350 C   0  0  0  0  0  0  0  0  0  0  0  0
   36.0900   31.9200   49.9710 C   0  0  0  0  0  0  0  0  0  0  0  0
   34.6640   30.8894   47.7841 H   0  0  0  0  0  0  0  0  0  0  0  0
   33.7202   28.5354   46.8599 H   0  0  0  0  0  0  0  0  0  0  0  0
   35.2545   27.8005   47.4966 H   0  0  0  0  0  0  0  0  0  0  0  0
   32.9254   28.9711   49.0506 H   0  0  0  0  0  0  0  0  0  0  0  0
   33.6215   27.3136   49.1267 H   0  0  0  0  0  0  0  0  0  0  0  0
   34.5127   29.8323   50.4130 H   0  0  0  0  0  0  0  0  0  0  0  0
   34.7251   28.1253   50.9258 H   0  0  0  0  0  0  0  0  0  0  0  0
   36.8638   29.0484   50.3797 H   0  0  0  0  0  0  0  0  0  0  0  0
   36.3730   27.8530   49.1023 H   0  0  0  0  0  0  0  0  0  0  0  0
   37.1958   29.4508   47.9120 H   0  0  0  0  0  0  0  0  0  0  0  0
   34.2610   30.3923   43.0851 H   0  0  0  0  0  0  0  0  0  0  0  0
   36.5836   30.6921   42.4388 H   0  0  0  0  0  0  0  0  0  0  0  0
   38.4025   30.5800   44.2056 H   0  0  0  0  0  0  0  0  0  0  0  0
   37.6854   30.1683   46.5372 H   0  0  0  0  0  0  0  0  0  0  0  0
   33.3745   27.8669   44.5522 H   0  0  0  0  0  0  0  0  0  0  0  0
   32.6325   31.8322   46.1480 H   0  0  0  0  0  0  0  0  0  0  0  0
   29.4430   29.0364   45.6178 H   0  0  0  0  0  0  0  0  0  0  0  0
   36.8147   31.8453   48.0692 H   0  0  0  0  0  0  0  0  0  0  0  0
   38.4421   30.6304   50.3238 H   0  0  0  0  0  0  0  0  0  0  0  0
   38.8941   30.5256   48.5884 H   0  0  0  0  0  0  0  0  0  0  0  0
   39.5140   32.6293   50.3489 H   0  0  0  0  0  0  0  0  0  0  0  0
   39.6003   32.6659   48.5359 H   0  0  0  0  0  0  0  0  0  0  0  0
   38.3173   34.5653   49.6515 H   0  0  0  0  0  0  0  0  0  0  0  0
   37.4684   33.6751   48.3533 H   0  0  0  0  0  0  0  0  0  0  0  0
   37.2557   33.1090   51.3323 H   0  0  0  0  0  0  0  0  0  0  0  0
   36.0545   34.0268   50.3098 H   0  0  0  0  0  0  0  0  0  0  0  0
   35.0958   32.1458   49.5579 H   0  0  0  0  0  0  0  0  0  0  0  0
   35.9691   31.2943   50.8676 H   0  0  0  0  0  0  0  0  0  0  0  0
  1  2  1  0
  1  6  1  0
  2  3  1  0
  3  4  1  0
  5  4  1  0
  6 19  1  0
  6  5  1  0
  7 14  1  0
  7 12  1  0
  8  7  2  0
  9  8  1  0
  9 10  2  0
 10 11  1  0
 11 12  2  0
 12  1  1  0
 13 18  2  0
 13 14  1  0
 14 15  2  0
 15 16  1  0
 17 16  2  0
 18 17  1  0
 19 20  1  0
 19 24  1  0
 20 21  1  0
 22 21  1  0
 22 23  1  0
 24 23  1  0
  1 25  1  1
  2 26  1  0
  2 27  1  0
  3 28  1  0
  3 29  1  0
  4 30  1  0
  4 31  1  0
  5 32  1  0
  5 33  1  0
  6 34  1  6
  8 35  1  0
  9 36  1  0
 10 37  1  0
 11 38  1  0
 13 39  1  0
 15 40  1  0
 17 41  1  0
 19 42  1  0
 20 43  1  0
 20 44  1  0
 21 45  1  0
 21 46  1  0
 22 47  1  0
 22 48  1  0
 23 49  1  0
 23 50  1  0
 24 51  1  0
 24 52  1  0
M  ISO  8  25  13  26  13  27  13  28  13  29  13  30  13  31  13  32  13
M  ISO  8  33  13  34  13  35  14  36  14  37  14  38  14  39  14  40  14
M  ISO  8  41  14  42  13  43  13  44  13  45  13  46  13  47  13  48  13
M  ISO  4  49  13  50  13  51  13  52  13
M  END
>  <minimizedAffinity>  (1) 
-5.67601156

>  <minimizedRMSD>  (1) 
3.58897448

$$$$
