
     RDKit          3D

 51 54  0  0  1  0  0  0  0  0999 V2000
   36.6520   30.7500   47.3980 C   0  0  1  0  0  0  0  0  0  0  0  0
   36.0560   29.4830   48.1530 C   0  0  0  0  0  0  0  0  0  0  0  0
   35.5820   29.8700   49.5500 C   0  0  0  0  0  0  0  0  0  0  0  0
   36.6160   30.7010   50.2390 C   0  0  0  0  0  0  0  0  0  0  0  0
   37.9200   30.5380   49.5520 C   0  0  0  0  0  0  0  0  0  0  0  0
   37.8580   31.1620   48.1780 C   0  0  2  0  0  0  0  0  0  0  0  0
   35.8390   29.9120   45.2330 C   0  0  0  0  0  0  0  0  0  0  0  0
   36.1460   29.5740   43.9270 C   0  0  0  0  0  0  0  0  0  0  0  0
   37.4060   29.5890   43.3880 C   0  0  0  0  0  0  0  0  0  0  0  0
   38.4790   29.9670   44.2000 C   0  0  0  0  0  0  0  0  0  0  0  0
   38.1710   30.3030   45.5080 C   0  0  0  0  0  0  0  0  0  0  0  0
   36.8960   30.2920   46.0560 C   0  0  0  0  0  0  0  0  0  0  0  0
   33.9750   28.4720   45.8740 C   0  0  0  0  0  0  0  0  0  0  0  0
   34.4680   29.7980   45.5970 C   0  0  0  0  0  0  0  0  0  0  0  0
   33.5800   30.8530   45.7270 C   0  0  0  0  0  0  0  0  0  0  0  0
   32.3020   30.6140   46.1110 N   0  0  0  0  0  0  0  0  0  0  0  0
   31.8510   29.3480   46.3730 C   0  0  0  0  0  0  0  0  0  0  0  0
   32.6950   28.2860   46.2500 N   0  0  0  0  0  0  0  0  0  0  0  0
   38.1900   32.5070   48.2290 N   0  0  0  0  0  0  0  0  0  0  0  0
   37.9010   33.4310   49.1940 C   0  0  0  0  0  0  0  0  0  0  0  0
   39.1870   33.7910   49.9610 C   0  0  0  0  0  0  0  0  0  0  0  0
   40.1860   34.4720   49.0700 C   0  0  0  0  0  0  0  0  0  0  0  0
   39.7410   34.3200   47.6480 C   0  0  0  0  0  0  0  0  0  0  0  0
   39.3300   32.8840   47.4530 C   0  0  0  0  0  0  0  0  0  0  0  0
   36.0119   31.6420   47.3300 H   0  0  0  0  0  0  0  0  0  0  0  0
   35.2058   29.0860   47.5790 H   0  0  0  0  0  0  0  0  0  0  0  0
   36.8421   28.7188   48.2422 H   0  0  0  0  0  0  0  0  0  0  0  0
   34.6485   30.4462   49.4694 H   0  0  0  0  0  0  0  0  0  0  0  0
   35.4115   28.9545   50.1355 H   0  0  0  0  0  0  0  0  0  0  0  0
   36.3157   31.7588   50.2092 H   0  0  0  0  0  0  0  0  0  0  0  0
   36.7099   30.3756   51.2856 H   0  0  0  0  0  0  0  0  0  0  0  0
   38.7071   31.0310   50.1414 H   0  0  0  0  0  0  0  0  0  0  0  0
   38.1461   29.4660   49.4533 H   0  0  0  0  0  0  0  0  0  0  0  0
   38.6487   30.7396   47.5406 H   0  0  0  0  0  0  0  0  0  0  0  0
   35.3162   29.2703   43.2718 H   0  0  0  0  0  0  0  0  0  0  0  0
   37.5696   29.3090   42.3369 H   0  0  0  0  0  0  0  0  0  0  0  0
   39.5113   29.9961   43.8211 H   0  0  0  0  0  0  0  0  0  0  0  0
   39.0020   30.6020   46.1637 H   0  0  0  0  0  0  0  0  0  0  0  0
   34.6479   27.6072   45.7778 H   0  0  0  0  0  0  0  0  0  0  0  0
   33.9107   31.8814   45.5194 H   0  0  0  0  0  0  0  0  0  0  0  0
   30.8076   29.1887   46.6827 H   0  0  0  0  0  0  0  0  0  0  0  0
   37.4890   34.3360   48.7236 H   0  0  0  0  0  0  0  0  0  0  0  0
   37.1619   33.0125   49.8930 H   0  0  0  0  0  0  0  0  0  0  0  0
   38.9310   34.4649   50.7918 H   0  0  0  0  0  0  0  0  0  0  0  0
   39.6372   32.8603   50.3367 H   0  0  0  0  0  0  0  0  0  0  0  0
   40.2448   35.5398   49.3276 H   0  0  0  0  0  0  0  0  0  0  0  0
   41.1789   34.0177   49.2033 H   0  0  0  0  0  0  0  0  0  0  0  0
   38.8880   34.9852   47.4483 H   0  0  0  0  0  0  0  0  0  0  0  0
   40.5540   34.5874   46.9570 H   0  0  0  0  0  0  0  0  0  0  0  0
   39.0936   32.7308   46.3897 H   0  0  0  0  0  0  0  0  0  0  0  0
   40.1706   32.2584   47.7877 H   0  0  0  0  0  0  0  0  0  0  0  0
  1  2  1  0
  1  6  1  0
  2  3  1  0
  3  4  1  0
  5  4  1  0
  6 19  1  0
  6  5  1  0
  7 14  1  0
  7 12  1  0
  8  7  2  0
  9  8  1  0
  9 10  2  0
 10 11  1  0
 11 12  2  0
 12  1  1  0
 13 18  2  0
 14 15  2  0
 14 13  1  0
 15 16  1  0
 16 17  2  0
 18 17  1  0
 19 20  1  0
 20 21  1  0
 22 21  1  0
 23 22  1  0
 24 23  1  0
 24 19  1  0
  1 25  1  6
  2 26  1  0
  2 27  1  0
  3 28  1  0
  3 29  1  0
  4 30  1  0
  4 31  1  0
  5 32  1  0
  5 33  1  0
  6 34  1  6
  8 35  1  0
  9 36  1  0
 10 37  1  0
 11 38  1  0
 13 39  1  0
 15 40  1  0
 17 41  1  0
 20 42  1  0
 20 43  1  0
 21 44  1  0
 21 45  1  0
 22 46  1  0
 22 47  1  0
 23 48  1  0
 23 49  1  0
 24 50  1  0
 24 51  1  0
M  ISO  8  25  13  26  13  27  13  28  13  29  13  30  13  31  13  32  13
M  ISO  8  33  13  34  13  35  14  36  14  37  14  38  14  39  14  40  14
M  ISO  8  41  14  42  13  43  13  44  13  45  13  46  13  47  13  48  13
M  ISO  3  49  13  50  13  51  13
M  END
>  <minimizedAffinity>  (1) 
-5.04607153

>  <minimizedRMSD>  (1) 
3.32732534

$$$$
