
     RDKit          3D

 22 22  0  0  0  0  0  0  0  0999 V2000
   38.4540   32.2820   46.8790 C   0  0  0  0  0  0  0  0  0  0  0  0
   37.5300   31.6050   47.6900 C   0  0  0  0  0  0  0  0  0  0  0  0
   37.4980   31.9220   49.0380 C   0  0  0  0  0  0  0  0  0  0  0  0
   38.3440   32.8580   49.5380 N   0  0  0  0  0  0  0  0  0  0  0  0
   39.2390   33.5030   48.7210 C   0  0  0  0  0  0  0  0  0  0  0  0
   39.2890   33.2120   47.4030 N   0  0  0  0  0  0  0  0  0  0  0  0
   38.6330   32.1030   45.5170 O   0  0  0  0  0  0  0  0  0  0  0  0
   39.1720   29.6170   44.6290 O   0  0  0  0  0  0  0  0  0  0  0  0
   39.7850   30.9870   44.8900 P   0  0  0  0  0  0  0  0  0  0  0  0
   40.3690   31.6440   43.4440 O   0  0  0  0  0  0  0  0  0  0  0  0
   41.0170   30.7710   46.0220 O   0  0  0  0  0  0  0  0  0  0  0  0
   36.5800   31.2480   49.8350 O   0  0  0  0  0  0  0  0  0  0  0  0
   36.1130   28.7470   49.1490 O   0  0  0  0  0  0  0  0  0  0  0  0
   36.7000   29.6160   50.2510 P   0  0  0  0  0  0  0  0  0  0  0  0
   35.8230   29.4310   51.7100 O   0  0  0  0  0  0  0  0  0  0  0  0
   38.3230   29.1540   50.4960 O   0  0  0  0  0  0  0  0  0  0  0  0
   36.8531   30.8471   47.2687 H   0  0  0  0  0  0  0  0  0  0  0  0
   39.9179   34.2596   49.1413 H   0  0  0  0  0  0  0  0  0  0  0  0
   41.0128   32.3682   43.6469 H   0  0  0  0  0  0  0  0  0  0  0  0
   40.6411   30.8369   46.9355 H   0  0  0  0  0  0  0  0  0  0  0  0
   36.4322   29.5595   52.4797 H   0  0  0  0  0  0  0  0  0  0  0  0
   38.5081   29.1013   51.4671 H   0  0  0  0  0  0  0  0  0  0  0  0
  1  6  2  0
  1  2  1  0
  2  3  2  0
  3  4  1  0
  3 12  1  0
  5  4  2  0
  6  5  1  0
  7  1  1  0
  8  9  2  0
  9  7  1  0
  9 11  1  0
 10  9  1  0
 12 14  1  0
 13 14  2  0
 14 16  1  0
 14 15  1  0
  2 17  1  0
  5 18  1  0
 10 19  1  0
 11 20  1  0
 15 21  1  0
 16 22  1  0
M  ISO  6  17  14  18  14  19   3  20   3  21   3  22   3
M  END
>  <minimizedAffinity>  (1) 
-4.96894598

>  <minimizedRMSD>  (1) 
4.99110126

$$$$
