
     RDKit          3D

 17 17  0  0  0  0  0  0  0  0999 V2000
   35.7800   30.5340   49.5660 C   0  0  0  0  0  0  0  0  0  0  0  0
   36.3140   29.5180   50.3640 C   0  0  0  0  0  0  0  0  0  0  0  0
   37.6200   29.6600   50.8490 C   0  0  0  0  0  0  0  0  0  0  0  0
   38.3080   30.7880   50.5180 N   0  0  0  0  0  0  0  0  0  0  0  0
   37.7580   31.7500   49.7420 C   0  0  0  0  0  0  0  0  0  0  0  0
   36.5030   31.6310   49.2670 N   0  0  0  0  0  0  0  0  0  0  0  0
   38.0880   28.6310   51.6270 O   0  0  0  0  0  0  0  0  0  0  0  0
   34.5130   30.5330   49.0180 O   0  0  0  0  0  0  0  0  0  0  0  0
   35.4500   30.1150   46.5330 O   0  0  0  0  0  0  0  0  0  0  0  0
   34.2110   30.0050   47.4090 P   0  0  0  0  0  0  0  0  0  0  0  0
   33.6710   28.4080   47.5340 O   0  0  0  0  0  0  0  0  0  0  0  0
   33.0370   30.9810   46.7000 O   0  0  0  0  0  0  0  0  0  0  0  0
   35.7199   28.6245   50.6062 H   0  0  0  0  0  0  0  0  0  0  0  0
   38.3463   32.6458   49.4943 H   0  0  0  0  0  0  0  0  0  0  0  0
   39.0038   28.6701   52.0009 H   0  0  0  0  0  0  0  0  0  0  0  0
   33.5877   28.1616   48.4892 H   0  0  0  0  0  0  0  0  0  0  0  0
   32.5045   31.4237   47.4076 H   0  0  0  0  0  0  0  0  0  0  0  0
  1  2  2  0
  2  3  1  0
  3  7  1  0
  4  3  2  0
  5  4  1  0
  6  1  1  0
  6  5  2  0
  8  1  1  0
  9 10  2  0
 10 11  1  0
 10  8  1  0
 12 10  1  0
  2 13  1  0
  5 14  1  0
  7 15  1  0
 11 16  1  0
 12 17  1  0
M  ISO  5  13  14  14  14  15   3  16   3  17   3
M  END
>  <minimizedAffinity>  (1) 
-4.20487833

>  <minimizedRMSD>  (1) 
0.388307512

$$$$
