
     RDKit          3D

 17 17  0  0  0  0  0  0  0  0999 V2000
   35.4140   30.3880   48.2740 C   0  0  0  0  0  0  0  0  0  0  0  0
   35.6780   30.1730   49.6400 C   0  0  0  0  0  0  0  0  0  0  0  0
   37.0100   30.1930   50.0240 C   0  0  0  0  0  0  0  0  0  0  0  0
   37.9910   30.4120   49.1120 N   0  0  0  0  0  0  0  0  0  0  0  0
   37.6830   30.6160   47.7920 C   0  0  0  0  0  0  0  0  0  0  0  0
   36.3940   30.6000   47.3960 N   0  0  0  0  0  0  0  0  0  0  0  0
   37.3560   29.9220   51.7550 S   0  0  0  0  0  0  0  0  0  0  0  0
   34.1470   30.4040   47.6970 O   0  0  0  0  0  0  0  0  0  0  0  0
   33.6930   28.9660   45.4730 O   0  0  0  0  0  0  0  0  0  0  0  0
   33.4520   29.0190   46.9700 P   0  0  0  0  0  0  0  0  0  0  0  0
   34.1730   27.6780   47.7490 O   0  0  0  0  0  0  0  0  0  0  0  0
   31.7820   29.0320   47.2100 O   0  0  0  0  0  0  0  0  0  0  0  0
   34.8694   29.9982   50.3650 H   0  0  0  0  0  0  0  0  0  0  0  0
   38.4839   30.7920   47.0588 H   0  0  0  0  0  0  0  0  0  0  0  0
   36.4589   30.6247   52.5155 H   0  0  0  0  0  0  0  0  0  0  0  0
   34.1108   27.7937   48.7302 H   0  0  0  0  0  0  0  0  0  0  0  0
   31.5881   29.0335   48.1808 H   0  0  0  0  0  0  0  0  0  0  0  0
  1  2  2  0
  2  3  1  0
  3  7  1  0
  4  3  2  0
  5  4  1  0
  6  5  2  0
  6  1  1  0
  8  1  1  0
  9 10  2  0
 10 12  1  0
 10  8  1  0
 10 11  1  0
  2 13  1  0
  5 14  1  0
  7 15  1  0
 11 16  1  0
 12 17  1  0
M  ISO  5  13  14  14  14  15  11  16   3  17   3
M  END
>  <minimizedAffinity>  (1) 
-3.63755679

>  <minimizedRMSD>  (1) 
1.80638742

$$$$
