
     RDKit          3D

 24 24  0  0  0  0  0  0  0  0999 V2000
   32.6750   28.1820   47.6940 C   0  0  0  0  0  0  0  0  0  0  0  0
   33.5040   28.2800   48.8100 C   0  0  0  0  0  0  0  0  0  0  0  0
   34.4040   29.3230   48.9040 C   0  0  0  0  0  0  0  0  0  0  0  0
   34.4540   30.2390   47.8860 N   0  0  0  0  0  0  0  0  0  0  0  0
   33.6420   30.1250   46.8130 C   0  0  0  0  0  0  0  0  0  0  0  0
   32.7540   29.0970   46.7200 N   0  0  0  0  0  0  0  0  0  0  0  0
   35.2700   29.4670   50.0160 N   0  0  0  0  0  0  0  0  0  0  0  0
   36.9400   29.8290   50.1180 S   0  0  0  0  0  0  0  0  0  0  0  0
   37.7460   28.8420   50.8680 O   0  0  0  0  0  0  0  0  0  0  0  0
   37.0660   31.1820   50.8080 O   0  0  0  0  0  0  0  0  0  0  0  0
   37.6100   30.0300   48.5660 O   0  0  0  0  0  0  0  0  0  0  0  0
   31.7340   27.1970   47.4680 O   0  0  0  0  0  0  0  0  0  0  0  0
   33.4810   25.7870   45.9730 O   0  0  0  0  0  0  0  0  0  0  0  0
   32.1410   25.7190   46.6920 P   0  0  0  0  0  0  0  0  0  0  0  0
   32.1900   24.5320   47.9110 O   0  0  0  0  0  0  0  0  0  0  0  0
   30.9720   25.3510   45.5230 O   0  0  0  0  0  0  0  0  0  0  0  0
   33.4416   27.5300   49.6122 H   0  0  0  0  0  0  0  0  0  0  0  0
   33.6985   30.8702   46.0059 H   0  0  0  0  0  0  0  0  0  0  0  0
   34.8119   29.3289   50.9281 H   0  0  0  0  0  0  0  0  0  0  0  0
   37.6264   28.9884   51.8398 H   0  0  0  0  0  0  0  0  0  0  0  0
   37.0541   31.0542   51.7896 H   0  0  0  0  0  0  0  0  0  0  0  0
   38.5549   30.3135   48.6487 H   0  0  0  0  0  0  0  0  0  0  0  0
   32.1719   24.9698   48.7988 H   0  0  0  0  0  0  0  0  0  0  0  0
   30.1297   25.0859   45.9706 H   0  0  0  0  0  0  0  0  0  0  0  0
  1  2  2  0
  2  3  1  0
  3  7  1  0
  4  3  2  0
  5  4  1  0
  6  5  2  0
  6  1  1  0
  7  8  1  0
  8 10  1  0
  8  9  1  0
 11  8  1  0
 12  1  1  0
 13 14  2  0
 14 12  1  0
 14 15  1  0
 16 14  1  0
  2 17  1  0
  5 18  1  0
  7 19  1  0
  9 20  1  0
 10 21  1  0
 11 22  1  0
 15 23  1  0
 16 24  1  0
M  ISO  7  17  14  18  14  20   3  21   3  22   3  23   3  24   3
M  END
>  <minimizedAffinity>  (1) 
-3.49311042

>  <minimizedRMSD>  (1) 
4.63489342

$$$$
