
     RDKit          3D

 42 44  0  0  0  0  0  0  0  0999 V2000
   35.4600   30.3010   49.8220 C   0  0  0  0  0  0  0  0  0  0  0  0
   36.4490   31.1360   49.0360 C   0  0  0  0  0  0  0  0  0  0  0  0
   37.8730   30.7090   49.2440 C   0  0  0  0  0  0  0  0  0  0  0  0
   38.2600   30.6860   50.6960 C   0  0  0  0  0  0  0  0  0  0  0  0
   37.2390   30.0340   51.5730 C   0  0  0  0  0  0  0  0  0  0  0  0
   36.1100   29.3870   50.7980 C   0  0  0  0  0  0  0  0  0  0  0  0
   34.6610   29.4530   48.8850 C   0  0  0  0  0  0  0  0  0  0  0  0
   34.2360   30.0810   47.6900 C   0  0  0  0  0  0  0  0  0  0  0  0
   33.4850   29.3100   46.8070 C   0  0  0  0  0  0  0  0  0  0  0  0
   33.1930   28.0000   47.1230 N   0  0  0  0  0  0  0  0  0  0  0  0
   33.6300   27.4420   48.2920 C   0  0  0  0  0  0  0  0  0  0  0  0
   34.3480   28.1610   49.1500 N   0  0  0  0  0  0  0  0  0  0  0  0
   33.0050   29.8940   45.5390 C   0  0  0  0  0  0  0  0  0  0  0  0
   32.1940   31.1310   45.7090 C   0  0  0  0  0  0  0  0  0  0  0  0
   32.0020   31.7880   44.3610 C   0  0  0  0  0  0  0  0  0  0  0  0
   32.3070   30.8550   43.2140 C   0  0  0  0  0  0  0  0  0  0  0  0
   33.7000   30.2860   43.2630 C   0  0  0  0  0  0  0  0  0  0  0  0
   34.2270   30.2890   44.7040 C   0  0  0  0  0  0  0  0  0  0  0  0
   34.8313   31.0141   50.3754 H   0  0  0  0  0  0  0  0  0  0  0  0
   36.3485   32.1856   49.3493 H   0  0  0  0  0  0  0  0  0  0  0  0
   36.2179   31.0020   47.9689 H   0  0  0  0  0  0  0  0  0  0  0  0
   38.0029   29.6990   48.8281 H   0  0  0  0  0  0  0  0  0  0  0  0
   38.5191   31.4408   48.7371 H   0  0  0  0  0  0  0  0  0  0  0  0
   39.2074   30.1360   50.7956 H   0  0  0  0  0  0  0  0  0  0  0  0
   38.3497   31.7319   51.0246 H   0  0  0  0  0  0  0  0  0  0  0  0
   37.7382   29.2600   52.1744 H   0  0  0  0  0  0  0  0  0  0  0  0
   36.7952   30.8224   52.1986 H   0  0  0  0  0  0  0  0  0  0  0  0
   35.3486   29.0435   51.5137 H   0  0  0  0  0  0  0  0  0  0  0  0
   36.5466   28.5573   50.2228 H   0  0  0  0  0  0  0  0  0  0  0  0
   34.4872   31.1289   47.4693 H   0  0  0  0  0  0  0  0  0  0  0  0
   33.3869   26.3945   48.5238 H   0  0  0  0  0  0  0  0  0  0  0  0
   32.3683   29.1308   45.0677 H   0  0  0  0  0  0  0  0  0  0  0  0
   31.2135   30.8725   46.1354 H   0  0  0  0  0  0  0  0  0  0  0  0
   32.7137   31.8236   46.3873 H   0  0  0  0  0  0  0  0  0  0  0  0
   30.9570   32.1209   44.2765 H   0  0  0  0  0  0  0  0  0  0  0  0
   32.7024   32.6339   44.2989 H   0  0  0  0  0  0  0  0  0  0  0  0
   32.1897   31.4102   42.2717 H   0  0  0  0  0  0  0  0  0  0  0  0
   31.6071   30.0095   43.2870 H   0  0  0  0  0  0  0  0  0  0  0  0
   33.6834   29.2531   42.8850 H   0  0  0  0  0  0  0  0  0  0  0  0
   34.3613   30.9054   42.6393 H   0  0  0  0  0  0  0  0  0  0  0  0
   35.0388   29.5568   44.8262 H   0  0  0  0  0  0  0  0  0  0  0  0
   34.6501   31.2600   45.0009 H   0  0  0  0  0  0  0  0  0  0  0  0
  1  6  1  0
  2  3  1  0
  2  1  1  0
  3  4  1  0
  4  5  1  0
  6  5  1  0
  7 12  1  0
  7  1  1  0
  8  7  2  0
  9 10  2  0
  9  8  1  0
 10 11  1  0
 11 12  2  0
 13 14  1  0
 13  9  1  0
 15 14  1  0
 16 17  1  0
 16 15  1  0
 17 18  1  0
 18 13  1  0
  1 19  1  0
  2 20  1  0
  2 21  1  0
  3 22  1  0
  3 23  1  0
  4 24  1  0
  4 25  1  0
  5 26  1  0
  5 27  1  0
  6 28  1  0
  6 29  1  0
  8 30  1  0
 11 31  1  0
 13 32  1  0
 14 33  1  0
 14 34  1  0
 15 35  1  0
 15 36  1  0
 16 37  1  0
 16 38  1  0
 17 39  1  0
 17 40  1  0
 18 41  1  0
 18 42  1  0
M  ISO  8  19  13  20  13  21  13  22  13  23  13  24  13  25  13  26  13
M  ISO  8  27  13  28  13  29  13  30  14  31  14  32  13  33  13  34  13
M  ISO  8  35  13  36  13  37  13  38  13  39  13  40  13  41  13  42  13
M  END
>  <minimizedAffinity>  (1) 
-5.40208006

>  <minimizedRMSD>  (1) 
0.314790457

$$$$
