
     RDKit          3D

 32 33  0  0  0  0  0  0  0  0999 V2000
   35.4970   30.2920   49.8410 C   0  0  0  0  0  0  0  0  0  0  0  0
   36.4390   31.2000   49.0750 C   0  0  0  0  0  0  0  0  0  0  0  0
   37.8810   30.8180   49.2410 C   0  0  0  0  0  0  0  0  0  0  0  0
   38.3060   30.7280   50.6850 C   0  0  0  0  0  0  0  0  0  0  0  0
   37.2860   30.0650   51.5600 C   0  0  0  0  0  0  0  0  0  0  0  0
   36.2040   29.3610   50.7640 C   0  0  0  0  0  0  0  0  0  0  0  0
   34.7060   29.4680   48.8770 C   0  0  0  0  0  0  0  0  0  0  0  0
   34.3480   30.0980   47.6700 C   0  0  0  0  0  0  0  0  0  0  0  0
   33.5970   29.3240   46.7710 C   0  0  0  0  0  0  0  0  0  0  0  0
   33.2650   28.0460   47.1020 N   0  0  0  0  0  0  0  0  0  0  0  0
   33.6290   27.4720   48.2790 C   0  0  0  0  0  0  0  0  0  0  0  0
   34.3460   28.1920   49.1520 N   0  0  0  0  0  0  0  0  0  0  0  0
   33.2060   29.9550   45.4960 C   0  0  0  0  0  0  0  0  0  0  0  0
   32.1830   31.0410   45.7350 C   0  0  0  0  0  0  0  0  0  0  0  0
   34.8526   30.9485   50.4442 H   0  0  0  0  0  0  0  0  0  0  0  0
   36.3048   32.2303   49.4363 H   0  0  0  0  0  0  0  0  0  0  0  0
   36.1931   31.1059   48.0070 H   0  0  0  0  0  0  0  0  0  0  0  0
   38.0405   29.8381   48.7673 H   0  0  0  0  0  0  0  0  0  0  0  0
   38.4859   31.6065   48.7693 H   0  0  0  0  0  0  0  0  0  0  0  0
   39.2410   30.1511   50.7390 H   0  0  0  0  0  0  0  0  0  0  0  0
   38.4336   31.7567   51.0531 H   0  0  0  0  0  0  0  0  0  0  0  0
   37.7944   29.3245   52.1950 H   0  0  0  0  0  0  0  0  0  0  0  0
   36.8013   30.8493   52.1599 H   0  0  0  0  0  0  0  0  0  0  0  0
   35.4723   28.9297   51.4630 H   0  0  0  0  0  0  0  0  0  0  0  0
   36.6827   28.5783   50.1571 H   0  0  0  0  0  0  0  0  0  0  0  0
   34.6392   31.1346   47.4447 H   0  0  0  0  0  0  0  0  0  0  0  0
   33.3404   26.4361   48.5103 H   0  0  0  0  0  0  0  0  0  0  0  0
   32.7751   29.1917   44.8315 H   0  0  0  0  0  0  0  0  0  0  0  0
   34.0976   30.4019   45.0320 H   0  0  0  0  0  0  0  0  0  0  0  0
   32.0472   31.1851   46.8170 H   0  0  0  0  0  0  0  0  0  0  0  0
   32.5323   31.9801   45.2810 H   0  0  0  0  0  0  0  0  0  0  0  0
   31.2247   30.7484   45.2810 H   0  0  0  0  0  0  0  0  0  0  0  0
  1  6  1  0
  2  3  1  0
  2  1  1  0
  3  4  1  0
  4  5  1  0
  6  5  1  0
  7 12  1  0
  7  1  1  0
  8  7  2  0
  9 10  2  0
  9  8  1  0
 10 11  1  0
 11 12  2  0
 13 14  1  0
 13  9  1  0
  1 15  1  0
  2 16  1  0
  2 17  1  0
  3 18  1  0
  3 19  1  0
  4 20  1  0
  4 21  1  0
  5 22  1  0
  5 23  1  0
  6 24  1  0
  6 25  1  0
  8 26  1  0
 11 27  1  0
 13 28  1  0
 13 29  1  0
 14 30  1  0
 14 31  1  0
 14 32  1  0
M  ISO  8  15  13  16  13  17  13  18  13  19  13  20  13  21  13  22  13
M  ISO  8  23  13  24  13  25  13  26  14  27  14  28   8  29   8  30   8
M  ISO  2  31   8  32   8
M  END
>  <minimizedAffinity>  (1) 
-4.93927765

>  <minimizedRMSD>  (1) 
0.507058144

$$$$
