
     RDKit          3D

 29 30  0  0  0  0  0  0  0  0999 V2000
   35.5390   30.2970   49.7530 C   0  0  0  0  0  0  0  0  0  0  0  0
   36.4500   31.2600   49.1130 C   0  0  0  0  0  0  0  0  0  0  0  0
   37.9000   30.8310   49.2100 C   0  0  0  0  0  0  0  0  0  0  0  0
   38.3200   30.7590   50.6620 C   0  0  0  0  0  0  0  0  0  0  0  0
   37.3080   30.0810   51.5330 C   0  0  0  0  0  0  0  0  0  0  0  0
   36.2250   29.3940   50.7340 C   0  0  0  0  0  0  0  0  0  0  0  0
   34.7840   29.4570   48.8160 C   0  0  0  0  0  0  0  0  0  0  0  0
   34.2710   30.0860   47.6710 C   0  0  0  0  0  0  0  0  0  0  0  0
   33.5180   29.3030   46.7720 C   0  0  0  0  0  0  0  0  0  0  0  0
   33.3310   27.9650   47.0680 N   0  0  0  0  0  0  0  0  0  0  0  0
   33.8500   27.4060   48.1910 C   0  0  0  0  0  0  0  0  0  0  0  0
   34.5640   28.1560   49.0400 N   0  0  0  0  0  0  0  0  0  0  0  0
   32.9220   29.8680   45.5190 C   0  0  0  0  0  0  0  0  0  0  0  0
   34.8310   30.9527   50.2810 H   0  0  0  0  0  0  0  0  0  0  0  0
   36.3361   32.2365   49.6064 H   0  0  0  0  0  0  0  0  0  0  0  0
   36.1860   31.3158   48.0466 H   0  0  0  0  0  0  0  0  0  0  0  0
   38.0191   29.8406   48.7464 H   0  0  0  0  0  0  0  0  0  0  0  0
   38.5305   31.5649   48.6867 H   0  0  0  0  0  0  0  0  0  0  0  0
   39.2662   30.2017   50.7256 H   0  0  0  0  0  0  0  0  0  0  0  0
   38.4255   31.7921   51.0247 H   0  0  0  0  0  0  0  0  0  0  0  0
   37.8212   29.3294   52.1509 H   0  0  0  0  0  0  0  0  0  0  0  0
   36.8281   30.8536   52.1517 H   0  0  0  0  0  0  0  0  0  0  0  0
   35.4712   29.0037   51.4336 H   0  0  0  0  0  0  0  0  0  0  0  0
   36.7097   28.5954   50.1533 H   0  0  0  0  0  0  0  0  0  0  0  0
   34.4504   31.1545   47.4812 H   0  0  0  0  0  0  0  0  0  0  0  0
   33.6844   26.3394   48.4030 H   0  0  0  0  0  0  0  0  0  0  0  0
   32.1466   30.6030   45.7808 H   0  0  0  0  0  0  0  0  0  0  0  0
   33.7088   30.3597   44.9281 H   0  0  0  0  0  0  0  0  0  0  0  0
   32.4730   29.0561   44.9281 H   0  0  0  0  0  0  0  0  0  0  0  0
  1  6  1  0
  2  3  1  0
  2  1  1  0
  3  4  1  0
  4  5  1  0
  6  5  1  0
  7 12  1  0
  7  1  1  0
  8  7  2  0
  9 10  2  0
  9  8  1  0
 10 11  1  0
 11 12  2  0
 13  9  1  0
  1 14  1  0
  2 15  1  0
  2 16  1  0
  3 17  1  0
  3 18  1  0
  4 19  1  0
  4 20  1  0
  5 21  1  0
  5 22  1  0
  6 23  1  0
  6 24  1  0
  8 25  1  0
 11 26  1  0
 13 27  1  0
 13 28  1  0
 13 29  1  0
M  ISO  8  14  13  15  13  16  13  17  13  18  13  19  13  20  13  21  13
M  ISO  8  22  13  23  13  24  13  25  14  26  14  27   8  28   8  29   8
M  END
>  <minimizedAffinity>  (1) 
-4.89410734

>  <minimizedRMSD>  (1) 
0.0639327914

$$$$
