
     RDKit          3D

 27 28  0  0  0  0  0  0  0  0999 V2000
   35.5130   30.2910   49.8030 C   0  0  0  0  0  0  0  0  0  0  0  0
   36.4350   31.2280   49.0660 C   0  0  0  0  0  0  0  0  0  0  0  0
   37.8900   30.8900   49.2000 C   0  0  0  0  0  0  0  0  0  0  0  0
   38.3370   30.7370   50.6300 C   0  0  0  0  0  0  0  0  0  0  0  0
   37.2980   30.1280   51.5300 C   0  0  0  0  0  0  0  0  0  0  0  0
   36.2560   29.3840   50.7270 C   0  0  0  0  0  0  0  0  0  0  0  0
   34.7570   29.4400   48.8340 C   0  0  0  0  0  0  0  0  0  0  0  0
   34.2470   30.0690   47.6900 C   0  0  0  0  0  0  0  0  0  0  0  0
   33.5430   29.2830   46.7880 C   0  0  0  0  0  0  0  0  0  0  0  0
   33.3800   27.9570   47.0520 N   0  0  0  0  0  0  0  0  0  0  0  0
   33.8860   27.3660   48.1760 C   0  0  0  0  0  0  0  0  0  0  0  0
   34.5710   28.1260   49.0520 N   0  0  0  0  0  0  0  0  0  0  0  0
   32.9910   29.7990   45.6180 O   0  0  0  0  0  0  0  0  0  0  0  0
   34.8284   30.9204   50.3906 H   0  0  0  0  0  0  0  0  0  0  0  0
   36.2793   32.2441   49.4576 H   0  0  0  0  0  0  0  0  0  0  0  0
   36.1871   31.1404   47.9979 H   0  0  0  0  0  0  0  0  0  0  0  0
   38.0786   29.9435   48.6721 H   0  0  0  0  0  0  0  0  0  0  0  0
   38.4597   31.7261   48.7684 H   0  0  0  0  0  0  0  0  0  0  0  0
   39.2298   30.0947   50.6472 H   0  0  0  0  0  0  0  0  0  0  0  0
   38.5379   31.7487   51.0123 H   0  0  0  0  0  0  0  0  0  0  0  0
   37.7875   29.4267   52.2218 H   0  0  0  0  0  0  0  0  0  0  0  0
   36.8006   30.9350   52.0879 H   0  0  0  0  0  0  0  0  0  0  0  0
   35.5398   28.9174   51.4194 H   0  0  0  0  0  0  0  0  0  0  0  0
   36.7714   28.6258   50.1191 H   0  0  0  0  0  0  0  0  0  0  0  0
   34.3988   31.1441   47.5137 H   0  0  0  0  0  0  0  0  0  0  0  0
   33.7368   26.2920   48.3612 H   0  0  0  0  0  0  0  0  0  0  0  0
   33.0955   30.7597   45.4031 H   0  0  0  0  0  0  0  0  0  0  0  0
  1  6  1  0
  2  3  1  0
  2  1  1  0
  3  4  1  0
  4  5  1  0
  6  5  1  0
  7 12  1  0
  7  1  1  0
  8  7  2  0
  9 10  2  0
  9  8  1  0
 10 11  1  0
 11 12  2  0
 13  9  1  0
  1 14  1  0
  2 15  1  0
  2 16  1  0
  3 17  1  0
  3 18  1  0
  4 19  1  0
  4 20  1  0
  5 21  1  0
  5 22  1  0
  6 23  1  0
  6 24  1  0
  8 25  1  0
 11 26  1  0
 13 27  1  0
M  ISO  8  14  13  15  13  16  13  17  13  18  13  19  13  20  13  21  13
M  ISO  6  22  13  23  13  24  13  25  14  26  14  27   3
M  END
>  <minimizedAffinity>  (1) 
-4.87714386

>  <minimizedRMSD>  (1) 
0.0532939173

$$$$
