
     RDKit          3D

 37 39  0  0  1  0  0  0  0  0999 V2000
   34.6170   29.5710   48.8590 C   0  0  0  0  0  0  0  0  0  0  0  0
   34.1240   30.2040   47.7160 C   0  0  0  0  0  0  0  0  0  0  0  0
   33.2960   29.4440   46.8800 C   0  0  0  0  0  0  0  0  0  0  0  0
   33.0090   28.1270   47.2160 N   0  0  0  0  0  0  0  0  0  0  0  0
   33.5200   27.5590   48.3510 C   0  0  0  0  0  0  0  0  0  0  0  0
   34.3090   28.2780   49.1490 N   0  0  0  0  0  0  0  0  0  0  0  0
   32.7470   29.9800   45.6950 N   0  0  0  0  0  0  0  0  0  0  0  0
   33.5380   30.4590   44.6870 C   0  0  0  0  0  0  0  0  0  0  0  0
   32.9960   30.9750   43.5420 C   0  0  0  0  0  0  0  0  0  0  0  0
   31.6300   30.9960   43.4350 C   0  0  0  0  0  0  0  0  0  0  0  0
   31.0870   31.4660   42.3880 O   0  0  0  0  0  0  0  0  0  0  0  0
   30.8380   30.5250   44.4270 N   0  0  0  0  0  0  0  0  0  0  0  0
   31.4310   30.0290   45.5320 C   0  0  0  0  0  0  0  0  0  0  0  0
   30.6030   29.6110   46.4030 O   0  0  0  0  0  0  0  0  0  0  0  0
   35.4920   30.4050   49.7440 C   0  0  2  0  0  0  0  0  0  0  0  0
   36.5100   31.1300   48.8630 C   0  0  0  0  0  0  0  0  0  0  0  0
   37.9030   30.6510   49.0720 C   0  0  0  0  0  0  0  0  0  0  0  0
   38.2960   30.7410   50.5300 C   0  0  0  0  0  0  0  0  0  0  0  0
   37.2960   30.1400   51.4530 C   0  0  0  0  0  0  0  0  0  0  0  0
   36.1170   29.5140   50.7400 C   0  0  1  0  0  0  0  0  0  0  0  0
   35.1870   29.1840   51.7130 O   0  0  0  0  0  0  0  0  0  0  0  0
   34.3740   31.2496   47.4833 H   0  0  0  0  0  0  0  0  0  0  0  0
   33.2811   26.5153   48.6033 H   0  0  0  0  0  0  0  0  0  0  0  0
   34.6318   30.4286   44.7995 H   0  0  0  0  0  0  0  0  0  0  0  0
   33.6353   31.3603   42.7340 H   0  0  0  0  0  0  0  0  0  0  0  0
   29.8119   30.5449   44.3402 H   0  0  0  0  0  0  0  0  0  0  0  0
   34.9272   31.1723   50.2937 H   0  0  0  0  0  0  0  0  0  0  0  0
   36.4704   32.2050   49.0930 H   0  0  0  0  0  0  0  0  0  0  0  0
   36.2446   30.9250   47.8154 H   0  0  0  0  0  0  0  0  0  0  0  0
   37.9759   29.6035   48.7441 H   0  0  0  0  0  0  0  0  0  0  0  0
   38.5831   31.2872   48.4866 H   0  0  0  0  0  0  0  0  0  0  0  0
   39.2536   30.2170   50.6653 H   0  0  0  0  0  0  0  0  0  0  0  0
   38.3658   31.8098   50.7806 H   0  0  0  0  0  0  0  0  0  0  0  0
   37.7956   29.3621   52.0491 H   0  0  0  0  0  0  0  0  0  0  0  0
   36.9012   30.9548   52.0778 H   0  0  0  0  0  0  0  0  0  0  0  0
   36.4723   28.6368   50.1794 H   0  0  0  0  0  0  0  0  0  0  0  0
   35.5832   29.3246   52.6093 H   0  0  0  0  0  0  0  0  0  0  0  0
  1  6  1  0
  1 15  1  0
  2  1  2  0
  3  4  2  0
  3  2  1  0
  4  5  1  0
  5  6  2  0
  7  3  1  0
  8  7  1  0
  9  8  2  0
 10  9  1  0
 10 12  1  0
 11 10  2  0
 12 13  1  0
 13  7  1  0
 13 14  2  0
 15 20  1  0
 16 17  1  0
 16 15  1  0
 17 18  1  0
 18 19  1  0
 20 19  1  0
 20 21  1  0
  2 22  1  0
  5 23  1  0
  8 24  1  0
  9 25  1  0
 12 26  1  0
 15 27  1  1
 16 28  1  0
 16 29  1  0
 17 30  1  0
 17 31  1  0
 18 32  1  0
 18 33  1  0
 19 34  1  0
 19 35  1  0
 20 36  1  6
 21 37  1  0
M  ISO  8  22  14  23  14  24  14  25  14  26   9  27  13  28  13  29  13
M  ISO  8  30  13  31  13  32  13  33  13  34  13  35  13  36  13  37   3
M  END
>  <minimizedAffinity>  (1) 
-6.00758696

>  <minimizedRMSD>  (1) 
0.074751161

$$$$
