
     RDKit          3D

 23 24  0  0  0  0  0  0  0  0999 V2000
   37.7610   30.5060   50.7240 C   0  0  0  0  0  0  0  0  0  0  0  0
   37.2270   30.6540   49.4060 C   0  0  0  0  0  0  0  0  0  0  0  0
   35.9790   30.1090   49.1510 C   0  0  0  0  0  0  0  0  0  0  0  0
   35.3300   29.4650   50.1570 N   0  0  0  0  0  0  0  0  0  0  0  0
   35.8560   29.3350   51.4080 C   0  0  0  0  0  0  0  0  0  0  0  0
   37.0810   29.8640   51.6840 N   0  0  0  0  0  0  0  0  0  0  0  0
   38.0530   31.3680   48.4620 C   0  0  0  0  0  0  0  0  0  0  0  0
   38.5420   30.6610   47.3950 C   0  0  0  0  0  0  0  0  0  0  0  0
   39.3340   31.1850   46.3900 C   0  0  0  0  0  0  0  0  0  0  0  0
   39.6760   32.5560   46.4570 C   0  0  0  0  0  0  0  0  0  0  0  0
   39.1830   33.2800   47.5440 C   0  0  0  0  0  0  0  0  0  0  0  0
   38.3940   32.7300   48.5290 C   0  0  0  0  0  0  0  0  0  0  0  0
   35.2990   30.2260   47.8430 C   0  0  0  0  0  0  0  0  0  0  0  0
   34.0150   30.7750   48.0050 F   0  0  0  0  0  0  0  0  0  0  0  0
   35.9480   30.9110   46.8770 F   0  0  0  0  0  0  0  0  0  0  0  0
   35.0210   28.9350   47.3540 F   0  0  0  0  0  0  0  0  0  0  0  0
   38.7504   30.9278   50.9548 H   0  0  0  0  0  0  0  0  0  0  0  0
   35.2939   28.8053   52.1912 H   0  0  0  0  0  0  0  0  0  0  0  0
   38.2844   29.5934   47.3331 H   0  0  0  0  0  0  0  0  0  0  0  0
   39.6881   30.5536   45.5618 H   0  0  0  0  0  0  0  0  0  0  0  0
   40.3023   33.0303   45.6871 H   0  0  0  0  0  0  0  0  0  0  0  0
   39.4387   34.3473   47.6174 H   0  0  0  0  0  0  0  0  0  0  0  0
   38.0333   33.3515   49.3619 H   0  0  0  0  0  0  0  0  0  0  0  0
  1  6  2  0
  2  1  1  0
  3  2  2  0
  3  4  1  0
  4  5  2  0
  5  6  1  0
  7 12  1  0
  7  2  1  0
  8  7  2  0
  9 10  2  0
  9  8  1  0
 10 11  1  0
 11 12  2  0
 13 14  1  0
 13  3  1  0
 15 13  1  0
 16 13  1  0
  1 17  1  0
  5 18  1  0
  8 19  1  0
  9 20  1  0
 10 21  1  0
 11 22  1  0
 12 23  1  0
M  ISO  7  17  14  18  14  19  14  20  14  21  14  22  14  23  14
M  END
>  <minimizedAffinity>  (1) 
-5.47624493

>  <minimizedRMSD>  (1) 
1.1721741

$$$$
