
     RDKit          3D

 26 27  0  0  0  0  0  0  0  0999 V2000
   38.1200   30.7430   50.4570 C   0  0  0  0  0  0  0  0  0  0  0  0
   37.5630   30.8380   49.1470 C   0  0  0  0  0  0  0  0  0  0  0  0
   36.3210   30.2610   48.9400 C   0  0  0  0  0  0  0  0  0  0  0  0
   35.7090   29.6420   49.9840 N   0  0  0  0  0  0  0  0  0  0  0  0
   36.2440   29.5580   51.2150 C   0  0  0  0  0  0  0  0  0  0  0  0
   37.4630   30.1180   51.4450 N   0  0  0  0  0  0  0  0  0  0  0  0
   38.3660   31.5320   48.1620 C   0  0  0  0  0  0  0  0  0  0  0  0
   38.6940   30.8430   47.0230 C   0  0  0  0  0  0  0  0  0  0  0  0
   39.4400   31.3430   45.9850 C   0  0  0  0  0  0  0  0  0  0  0  0
   39.9180   32.6640   46.0750 C   0  0  0  0  0  0  0  0  0  0  0  0
   39.5870   33.3700   47.2340 C   0  0  0  0  0  0  0  0  0  0  0  0
   38.8330   32.8530   48.2740 C   0  0  0  0  0  0  0  0  0  0  0  0
   35.6700   30.3410   47.6330 C   0  0  0  0  0  0  0  0  0  0  0  0
   34.2470   29.7670   47.6950 C   0  0  0  0  0  0  0  0  0  0  0  0
   39.1045   31.1897   50.6600 H   0  0  0  0  0  0  0  0  0  0  0  0
   35.7043   29.0442   52.0242 H   0  0  0  0  0  0  0  0  0  0  0  0
   38.3309   29.8085   46.9340 H   0  0  0  0  0  0  0  0  0  0  0  0
   39.6596   30.7249   45.1020 H   0  0  0  0  0  0  0  0  0  0  0  0
   40.5209   33.1168   45.2741 H   0  0  0  0  0  0  0  0  0  0  0  0
   39.9491   34.4046   47.3266 H   0  0  0  0  0  0  0  0  0  0  0  0
   38.6058   33.4593   49.1632 H   0  0  0  0  0  0  0  0  0  0  0  0
   36.2584   29.7675   46.9016 H   0  0  0  0  0  0  0  0  0  0  0  0
   35.6106   31.3978   47.3334 H   0  0  0  0  0  0  0  0  0  0  0  0
   33.9461   29.6456   48.7460 H   0  0  0  0  0  0  0  0  0  0  0  0
   33.5518   30.4550   47.1917 H   0  0  0  0  0  0  0  0  0  0  0  0
   34.2238   28.7892   47.1917 H   0  0  0  0  0  0  0  0  0  0  0  0
  1  6  2  0
  2  1  1  0
  3  2  2  0
  3  4  1  0
  4  5  2  0
  5  6  1  0
  7 12  1  0
  7  2  1  0
  8  7  2  0
  9 10  2  0
  9  8  1  0
 10 11  1  0
 11 12  2  0
 13 14  1  0
 13  3  1  0
  1 15  1  0
  5 16  1  0
  8 17  1  0
  9 18  1  0
 10 19  1  0
 11 20  1  0
 12 21  1  0
 13 22  1  0
 13 23  1  0
 14 24  1  0
 14 25  1  0
 14 26  1  0
M  ISO  8  15  14  16  14  17  14  18  14  19  14  20  14  21  14  22   8
M  ISO  4  23   8  24   8  25   8  26   8
M  END
>  <minimizedAffinity>  (1) 
-5.247756

>  <minimizedRMSD>  (1) 
1.28826571

$$$$
