
     RDKit          3D

 23 24  0  0  0  0  0  0  0  0999 V2000
   38.0720   31.4470   48.4460 C   0  0  0  0  0  0  0  0  0  0  0  0
   38.4750   30.7390   47.3190 C   0  0  0  0  0  0  0  0  0  0  0  0
   39.2750   31.2990   46.3410 C   0  0  0  0  0  0  0  0  0  0  0  0
   39.7000   32.6160   46.4700 C   0  0  0  0  0  0  0  0  0  0  0  0
   39.2870   33.2930   47.5930 C   0  0  0  0  0  0  0  0  0  0  0  0
   38.4880   32.7520   48.5820 C   0  0  0  0  0  0  0  0  0  0  0  0
   37.7480   30.5130   50.6890 C   0  0  0  0  0  0  0  0  0  0  0  0
   37.2330   30.7180   49.3850 C   0  0  0  0  0  0  0  0  0  0  0  0
   35.9660   30.1930   49.1430 C   0  0  0  0  0  0  0  0  0  0  0  0
   35.3120   29.5380   50.1210 N   0  0  0  0  0  0  0  0  0  0  0  0
   35.8400   29.3630   51.3580 C   0  0  0  0  0  0  0  0  0  0  0  0
   37.0760   29.8600   51.6360 N   0  0  0  0  0  0  0  0  0  0  0  0
   35.4340   30.4130   47.7760 C   0  0  0  0  0  0  0  0  0  0  0  0
   38.1453   29.6961   47.2018 H   0  0  0  0  0  0  0  0  0  0  0  0
   39.5740   30.7052   45.4646 H   0  0  0  0  0  0  0  0  0  0  0  0
   40.3361   33.0936   45.7102 H   0  0  0  0  0  0  0  0  0  0  0  0
   39.6149   34.3362   47.7123 H   0  0  0  0  0  0  0  0  0  0  0  0
   38.1916   33.3496   49.4566 H   0  0  0  0  0  0  0  0  0  0  0  0
   38.7452   30.9100   50.9297 H   0  0  0  0  0  0  0  0  0  0  0  0
   35.2732   28.8232   52.1310 H   0  0  0  0  0  0  0  0  0  0  0  0
   34.4192   30.8326   47.8406 H   0  0  0  0  0  0  0  0  0  0  0  0
   36.0873   31.1147   47.2368 H   0  0  0  0  0  0  0  0  0  0  0  0
   35.4009   29.4548   47.2368 H   0  0  0  0  0  0  0  0  0  0  0  0
  1  6  1  0
  1  8  1  0
  2  1  2  0
  3  4  2  0
  3  2  1  0
  4  5  1  0
  5  6  2  0
  7 12  2  0
  8  7  1  0
  9  8  2  0
  9 10  1  0
 10 11  2  0
 11 12  1  0
 13  9  1  0
  2 14  1  0
  3 15  1  0
  4 16  1  0
  5 17  1  0
  6 18  1  0
  7 19  1  0
 11 20  1  0
 13 21  1  0
 13 22  1  0
 13 23  1  0
M  ISO  8  14  14  15  14  16  14  17  14  18  14  19  14  20  14  21   8
M  ISO  2  22   8  23   8
M  END
>  <minimizedAffinity>  (1) 
-5.16685343

>  <minimizedRMSD>  (1) 
1.01866913

$$$$
