
     RDKit          3D

 22 23  0  0  0  0  0  0  0  0999 V2000
   37.7450   30.4620   50.6990 C   0  0  0  0  0  0  0  0  0  0  0  0
   37.1940   30.6940   49.4050 C   0  0  0  0  0  0  0  0  0  0  0  0
   35.9180   30.2060   49.1910 C   0  0  0  0  0  0  0  0  0  0  0  0
   35.2550   29.5530   50.1610 N   0  0  0  0  0  0  0  0  0  0  0  0
   35.8080   29.3470   51.3870 C   0  0  0  0  0  0  0  0  0  0  0  0
   37.0600   29.8090   51.6480 N   0  0  0  0  0  0  0  0  0  0  0  0
   38.0280   31.4080   48.4650 C   0  0  0  0  0  0  0  0  0  0  0  0
   38.4140   30.7330   47.3370 C   0  0  0  0  0  0  0  0  0  0  0  0
   39.2060   31.2530   46.3350 C   0  0  0  0  0  0  0  0  0  0  0  0
   39.6610   32.5770   46.4650 C   0  0  0  0  0  0  0  0  0  0  0  0
   39.2680   33.2660   47.6140 C   0  0  0  0  0  0  0  0  0  0  0  0
   38.4780   32.7230   48.5970 C   0  0  0  0  0  0  0  0  0  0  0  0
   35.3240   30.4210   47.9120 C   0  0  0  0  0  0  0  0  0  0  0  0
   34.1570   30.4430   47.4680 O   0  0  0  0  0  0  0  0  0  0  0  0
   38.7576   30.8280   50.9243 H   0  0  0  0  0  0  0  0  0  0  0  0
   35.2447   28.8090   52.1637 H   0  0  0  0  0  0  0  0  0  0  0  0
   38.0652   29.6962   47.2217 H   0  0  0  0  0  0  0  0  0  0  0  0
   39.4748   30.6476   45.4568 H   0  0  0  0  0  0  0  0  0  0  0  0
   40.2954   33.0469   45.6991 H   0  0  0  0  0  0  0  0  0  0  0  0
   39.6110   34.3036   47.7389 H   0  0  0  0  0  0  0  0  0  0  0  0
   38.2023   33.3183   49.4800 H   0  0  0  0  0  0  0  0  0  0  0  0
   36.0730   30.6134   47.1298 H   0  0  0  0  0  0  0  0  0  0  0  0
  1  6  2  0
  2  1  1  0
  3  2  2  0
  3  4  1  0
  4  5  2  0
  5  6  1  0
  7 12  1  0
  7  2  1  0
  8  7  2  0
  9 10  2  0
  9  8  1  0
 10 11  1  0
 11 12  2  0
 13  3  1  0
 14 13  2  0
  1 15  1  0
  5 16  1  0
  8 17  1  0
  9 18  1  0
 10 19  1  0
 11 20  1  0
 12 21  1  0
 13 22  1  0
M  ISO  8  15  14  16  14  17  14  18  14  19  14  20  14  21  14  22   6
M  END
>  <minimizedAffinity>  (1) 
-5.12263107

>  <minimizedRMSD>  (1) 
1.09467149

$$$$
