
     RDKit          3D

 33 35  0  0  0  0  0  0  0  0999 V2000
   37.6320   30.4800   50.9260 C   0  0  0  0  0  0  0  0  0  0  0  0
   37.1860   30.8060   49.6110 C   0  0  0  0  0  0  0  0  0  0  0  0
   35.9640   30.2570   49.1850 C   0  0  0  0  0  0  0  0  0  0  0  0
   35.2830   29.4540   50.0410 N   0  0  0  0  0  0  0  0  0  0  0  0
   35.7330   29.1590   51.2920 C   0  0  0  0  0  0  0  0  0  0  0  0
   36.8950   29.6730   51.7150 N   0  0  0  0  0  0  0  0  0  0  0  0
   38.0410   31.6760   48.8360 C   0  0  0  0  0  0  0  0  0  0  0  0
   38.5510   31.1760   47.6660 C   0  0  0  0  0  0  0  0  0  0  0  0
   39.3730   31.8750   46.8090 C   0  0  0  0  0  0  0  0  0  0  0  0
   39.7230   33.1880   47.1370 C   0  0  0  0  0  0  0  0  0  0  0  0
   39.2090   33.7040   48.3280 C   0  0  0  0  0  0  0  0  0  0  0  0
   38.3890   32.9900   49.1730 C   0  0  0  0  0  0  0  0  0  0  0  0
   35.4390   30.5690   47.8660 C   0  0  0  0  0  0  0  0  0  0  0  0
   33.9250   30.5880   47.9480 C   0  0  0  0  0  0  0  0  0  0  0  0
   33.4480   29.9800   46.6720 C   0  0  0  0  0  0  0  0  0  0  0  0
   34.6730   29.5260   45.8870 C   0  0  0  0  0  0  0  0  0  0  0  0
   35.7860   29.4450   46.9130 C   0  0  0  0  0  0  0  0  0  0  0  0
   38.5827   30.8894   51.2983 H   0  0  0  0  0  0  0  0  0  0  0  0
   35.1457   28.5026   51.9509 H   0  0  0  0  0  0  0  0  0  0  0  0
   38.2854   30.1443   47.3920 H   0  0  0  0  0  0  0  0  0  0  0  0
   39.7463   31.4091   45.8851 H   0  0  0  0  0  0  0  0  0  0  0  0
   40.3748   33.7883   46.4853 H   0  0  0  0  0  0  0  0  0  0  0  0
   39.4729   34.7351   48.6060 H   0  0  0  0  0  0  0  0  0  0  0  0
   38.0122   33.4458   50.1005 H   0  0  0  0  0  0  0  0  0  0  0  0
   35.8542   31.5300   47.5282 H   0  0  0  0  0  0  0  0  0  0  0  0
   33.5793   29.9962   48.8084 H   0  0  0  0  0  0  0  0  0  0  0  0
   33.5369   31.6083   48.0835 H   0  0  0  0  0  0  0  0  0  0  0  0
   32.8005   29.1173   46.8874 H   0  0  0  0  0  0  0  0  0  0  0  0
   32.8679   30.7117   46.0905 H   0  0  0  0  0  0  0  0  0  0  0  0
   34.4963   28.5415   45.4292 H   0  0  0  0  0  0  0  0  0  0  0  0
   34.9169   30.2152   45.0651 H   0  0  0  0  0  0  0  0  0  0  0  0
   35.7819   28.4727   47.4274 H   0  0  0  0  0  0  0  0  0  0  0  0
   36.7913   29.5365   46.4761 H   0  0  0  0  0  0  0  0  0  0  0  0
  1  6  2  0
  2  1  1  0
  3  2  2  0
  3  4  1  0
  4  5  2  0
  5  6  1  0
  7 12  1  0
  7  2  1  0
  8  7  2  0
  9 10  2  0
  9  8  1  0
 10 11  1  0
 11 12  2  0
 13 14  1  0
 13  3  1  0
 15 14  1  0
 16 15  1  0
 16 17  1  0
 17 13  1  0
  1 18  1  0
  5 19  1  0
  8 20  1  0
  9 21  1  0
 10 22  1  0
 11 23  1  0
 12 24  1  0
 13 25  1  0
 14 26  1  0
 14 27  1  0
 15 28  1  0
 15 29  1  0
 16 30  1  0
 16 31  1  0
 17 32  1  0
 17 33  1  0
M  ISO  8  18  14  19  14  20  14  21  14  22  14  23  14  24  14  25  13
M  ISO  8  26  13  27  13  28  13  29  13  30  13  31  13  32  13  33  13
M  END
>  <minimizedAffinity>  (1) 
-5.01696301

>  <minimizedRMSD>  (1) 
0.866002321

$$$$
