
     RDKit          3D

 25 26  0  0  0  0  0  0  0  0999 V2000
   38.2510   31.1710   47.9690 C   0  0  0  0  0  0  0  0  0  0  0  0
   38.5430   30.3790   46.9020 C   0  0  0  0  0  0  0  0  0  0  0  0
   39.2780   30.7620   45.7950 C   0  0  0  0  0  0  0  0  0  0  0  0
   39.7740   32.0950   45.7630 C   0  0  0  0  0  0  0  0  0  0  0  0
   39.4810   32.9070   46.8460 C   0  0  0  0  0  0  0  0  0  0  0  0
   38.7490   32.4710   47.9110 C   0  0  0  0  0  0  0  0  0  0  0  0
   38.1080   30.4770   50.3000 C   0  0  0  0  0  0  0  0  0  0  0  0
   37.4700   30.6100   49.0300 C   0  0  0  0  0  0  0  0  0  0  0  0
   36.1420   30.1840   48.9360 C   0  0  0  0  0  0  0  0  0  0  0  0
   35.5400   29.6750   50.0410 N   0  0  0  0  0  0  0  0  0  0  0  0
   36.1770   29.5630   51.2390 C   0  0  0  0  0  0  0  0  0  0  0  0
   37.4650   29.9670   51.3590 N   0  0  0  0  0  0  0  0  0  0  0  0
   35.3600   30.2640   47.6790 C   0  0  0  0  0  0  0  0  0  0  0  0
   34.0680   30.7600   47.9730 F   0  0  0  0  0  0  0  0  0  0  0  0
   35.8930   30.9960   46.6730 F   0  0  0  0  0  0  0  0  0  0  0  0
   35.0950   28.9740   47.2060 F   0  0  0  0  0  0  0  0  0  0  0  0
   38.4670   33.3680   49.0210 C   0  0  0  0  0  0  0  0  0  0  0  0
   39.2480   33.9450   49.7900 O   0  0  0  0  0  0  0  0  0  0  0  0
   38.1624   29.3471   46.9215 H   0  0  0  0  0  0  0  0  0  0  0  0
   39.4721   30.0615   44.9693 H   0  0  0  0  0  0  0  0  0  0  0  0
   40.3659   32.4655   44.9131 H   0  0  0  0  0  0  0  0  0  0  0  0
   39.8526   33.9423   46.8473 H   0  0  0  0  0  0  0  0  0  0  0  0
   39.1532   30.8012   50.4119 H   0  0  0  0  0  0  0  0  0  0  0  0
   35.6472   29.1454   52.1079 H   0  0  0  0  0  0  0  0  0  0  0  0
   37.4002   33.5631   49.2050 H   0  0  0  0  0  0  0  0  0  0  0  0
  1  8  1  0
  2  1  2  0
  3  2  1  0
  4  3  2  0
  4  5  1  0
  5  6  2  0
  6  1  1  0
  6 17  1  0
  7 12  2  0
  8  7  1  0
  9  8  2  0
  9 10  1  0
 10 11  2  0
 11 12  1  0
 13 14  1  0
 13  9  1  0
 15 13  1  0
 16 13  1  0
 17 18  2  0
  2 19  1  0
  3 20  1  0
  4 21  1  0
  5 22  1  0
  7 23  1  0
 11 24  1  0
 17 25  1  0
M  ISO  7  19  14  20  14  21  14  22  14  23  14  24  14  25   6
M  END
>  <minimizedAffinity>  (1) 
-5.83941174

>  <minimizedRMSD>  (1) 
0.663958073

$$$$
