
     RDKit          3D

 30 32  0  0  0  0  0  0  0  0999 V2000
   38.1010   30.8150   47.8070 C   0  0  0  0  0  0  0  0  0  0  0  0
   38.1720   30.1370   46.6080 C   0  0  0  0  0  0  0  0  0  0  0  0
   38.9250   30.5490   45.5210 C   0  0  0  0  0  0  0  0  0  0  0  0
   39.6770   31.7520   45.6470 C   0  0  0  0  0  0  0  0  0  0  0  0
   39.5960   32.4220   46.8580 C   0  0  0  0  0  0  0  0  0  0  0  0
   38.8400   31.9930   47.9240 C   0  0  0  0  0  0  0  0  0  0  0  0
   37.8860   29.9400   50.0780 C   0  0  0  0  0  0  0  0  0  0  0  0
   37.2660   30.2360   48.8250 C   0  0  0  0  0  0  0  0  0  0  0  0
   35.9110   29.9370   48.7040 C   0  0  0  0  0  0  0  0  0  0  0  0
   35.2560   29.3890   49.7630 N   0  0  0  0  0  0  0  0  0  0  0  0
   35.8800   29.1190   50.9460 C   0  0  0  0  0  0  0  0  0  0  0  0
   37.2090   29.4010   51.0940 N   0  0  0  0  0  0  0  0  0  0  0  0
   35.1470   30.1880   47.4750 C   0  0  0  0  0  0  0  0  0  0  0  0
   33.8690   30.7010   47.8020 F   0  0  0  0  0  0  0  0  0  0  0  0
   35.7080   30.9950   46.5550 F   0  0  0  0  0  0  0  0  0  0  0  0
   34.8260   28.9730   46.8480 F   0  0  0  0  0  0  0  0  0  0  0  0
   38.7550   32.7140   49.2210 C   0  0  0  0  0  0  0  0  0  0  0  0
   37.8620   33.8820   49.4150 C   0  0  0  0  0  0  0  0  0  0  0  0
   39.3140   34.1200   49.1930 C   0  0  0  0  0  0  0  0  0  0  0  0
   37.5922   29.2075   46.5085 H   0  0  0  0  0  0  0  0  0  0  0  0
   38.9417   29.9650   44.5890 H   0  0  0  0  0  0  0  0  0  0  0  0
   40.2946   32.1326   44.8202 H   0  0  0  0  0  0  0  0  0  0  0  0
   40.1709   33.3527   46.9733 H   0  0  0  0  0  0  0  0  0  0  0  0
   38.9550   30.1635   50.2093 H   0  0  0  0  0  0  0  0  0  0  0  0
   35.3146   28.6753   51.7787 H   0  0  0  0  0  0  0  0  0  0  0  0
   38.8875   31.7848   49.7946 H   0  0  0  0  0  0  0  0  0  0  0  0
   37.1379   34.1523   48.6323 H   0  0  0  0  0  0  0  0  0  0  0  0
   37.1421   34.1809   50.1911 H   0  0  0  0  0  0  0  0  0  0  0  0
   39.9471   34.4790   50.0178 H   0  0  0  0  0  0  0  0  0  0  0  0
   39.9103   34.7109   48.4821 H   0  0  0  0  0  0  0  0  0  0  0  0
  1  6  1  0
  1  8  1  0
  2  1  2  0
  3  4  2  0
  3  2  1  0
  4  5  1  0
  5  6  2  0
  6 17  1  0
  7 12  2  0
  8  7  1  0
  9  8  2  0
  9 10  1  0
 10 11  2  0
 11 12  1  0
 13 14  1  0
 13  9  1  0
 15 13  1  0
 16 13  1  0
 17 18  1  0
 19 17  1  0
 19 18  1  0
  2 20  1  0
  3 21  1  0
  4 22  1  0
  5 23  1  0
  7 24  1  0
 11 25  1  0
 17 26  1  0
 18 27  1  0
 18 28  1  0
 19 29  1  0
 19 30  1  0
M  ISO  8  20  14  21  14  22  14  23  14  24  14  25  14  26  13  27  13
M  ISO  3  28  13  29  13  30  13
M  END
>  <minimizedAffinity>  (1) 
-5.69191074

>  <minimizedRMSD>  (1) 
1.01646161

$$$$
