
     RDKit          3D

 38 41  0  0  0  0  0  0  0  0999 V2000
   38.3380   30.0990   43.2530 C   0  0  0  0  0  0  0  0  0  0  0  0
   38.5440   29.4340   42.0620 C   0  0  0  0  0  0  0  0  0  0  0  0
   39.7830   29.1530   41.5200 C   0  0  0  0  0  0  0  0  0  0  0  0
   40.9310   29.5730   42.2280 C   0  0  0  0  0  0  0  0  0  0  0  0
   40.7240   30.2450   43.4320 C   0  0  0  0  0  0  0  0  0  0  0  0
   39.4800   30.5090   43.9440 C   0  0  0  0  0  0  0  0  0  0  0  0
   39.2710   31.2030   45.1860 C   0  0  0  0  0  0  0  0  0  0  0  0
   39.7000   32.4560   45.5730 C   0  0  0  0  0  0  0  0  0  0  0  0
   39.4020   32.9690   46.8190 C   0  0  0  0  0  0  0  0  0  0  0  0
   38.6460   32.1830   47.6960 C   0  0  0  0  0  0  0  0  0  0  0  0
   38.3740   32.7270   48.9180 N   0  0  0  0  0  0  0  0  0  0  0  0
   37.6410   32.0170   49.8260 C   0  0  0  0  0  0  0  0  0  0  0  0
   37.1820   30.7550   49.4970 C   0  0  0  0  0  0  0  0  0  0  0  0
   37.4520   30.1890   48.2570 C   0  0  0  0  0  0  0  0  0  0  0  0
   38.1940   30.9180   47.3490 C   0  0  0  0  0  0  0  0  0  0  0  0
   38.5200   30.4410   46.0770 C   0  0  0  0  0  0  0  0  0  0  0  0
   36.3450   29.2240   44.3410 C   0  0  0  0  0  0  0  0  0  0  0  0
   36.9780   30.3030   43.6610 C   0  0  0  0  0  0  0  0  0  0  0  0
   36.2260   31.4530   43.4530 C   0  0  0  0  0  0  0  0  0  0  0  0
   34.9470   31.4830   43.9050 N   0  0  0  0  0  0  0  0  0  0  0  0
   34.3650   30.4390   44.5530 C   0  0  0  0  0  0  0  0  0  0  0  0
   35.0720   29.3040   44.7690 N   0  0  0  0  0  0  0  0  0  0  0  0
   36.7580   32.6500   42.7610 C   0  0  0  0  0  0  0  0  0  0  0  0
   35.7210   33.5960   42.5970 F   0  0  0  0  0  0  0  0  0  0  0  0
   37.8150   33.2750   43.3390 F   0  0  0  0  0  0  0  0  0  0  0  0
   37.0960   32.3180   41.4470 F   0  0  0  0  0  0  0  0  0  0  0  0
   37.6563   29.1032   41.5029 H   0  0  0  0  0  0  0  0  0  0  0  0
   39.8733   28.6171   40.5636 H   0  0  0  0  0  0  0  0  0  0  0  0
   41.9440   29.3784   41.8461 H   0  0  0  0  0  0  0  0  0  0  0  0
   41.6041   30.5806   44.0002 H   0  0  0  0  0  0  0  0  0  0  0  0
   40.2938   33.0605   44.8716 H   0  0  0  0  0  0  0  0  0  0  0  0
   39.7497   33.9697   47.1151 H   0  0  0  0  0  0  0  0  0  0  0  0
   37.4172   32.4469   50.8135 H   0  0  0  0  0  0  0  0  0  0  0  0
   36.5914   30.1878   50.2314 H   0  0  0  0  0  0  0  0  0  0  0  0
   37.0833   29.1838   48.0047 H   0  0  0  0  0  0  0  0  0  0  0  0
   38.1758   29.4415   45.7727 H   0  0  0  0  0  0  0  0  0  0  0  0
   36.9126   28.2992   44.5214 H   0  0  0  0  0  0  0  0  0  0  0  0
   33.3241   30.5158   44.9005 H   0  0  0  0  0  0  0  0  0  0  0  0
  1 18  1  0
  1  6  1  0
  2  1  2  0
  3  2  1  0
  3  4  2  0
  4  5  1  0
  5  6  2  0
  6  7  1  0
  7  8  2  0
  7 16  1  0
  8  9  1  0
  9 10  2  0
 10 11  1  0
 11 12  2  0
 13 12  1  0
 14 13  2  0
 15 10  1  0
 15 14  1  0
 16 15  2  0
 17 22  2  0
 18 17  1  0
 19 18  2  0
 19 20  1  0
 20 21  2  0
 21 22  1  0
 23 25  1  0
 23 19  1  0
 24 23  1  0
 26 23  1  0
  2 27  1  0
  3 28  1  0
  4 29  1  0
  5 30  1  0
  8 31  1  0
  9 32  1  0
 12 33  1  0
 13 34  1  0
 14 35  1  0
 16 36  1  0
 17 37  1  0
 21 38  1  0
M  ISO  8  27  14  28  14  29  14  30  14  31  14  32  14  33  14  34  14
M  ISO  4  35  14  36  14  37  14  38  14
M  END
>  <minimizedAffinity>  (1) 
-5.2758503

>  <minimizedRMSD>  (1) 
5.76796961

$$$$
