
     RDKit          3D

 37 39  0  0  0  0  0  0  0  0999 V2000
   32.5670   27.9640   45.9530 C   0  0  0  0  0  0  0  0  0  0  0  0
   32.4580   26.9720   44.9950 C   0  0  0  0  0  0  0  0  0  0  0  0
   33.3580   26.7900   43.9420 C   0  0  0  0  0  0  0  0  0  0  0  0
   34.4530   27.6750   43.8450 C   0  0  0  0  0  0  0  0  0  0  0  0
   34.5400   28.6570   44.8110 C   0  0  0  0  0  0  0  0  0  0  0  0
   33.6550   28.8240   45.8340 C   0  0  0  0  0  0  0  0  0  0  0  0
   31.7620   27.2130   48.1050 C   0  0  0  0  0  0  0  0  0  0  0  0
   31.5470   28.0010   46.9620 C   0  0  0  0  0  0  0  0  0  0  0  0
   30.3680   28.7530   46.8910 C   0  0  0  0  0  0  0  0  0  0  0  0
   29.4860   28.6910   47.9240 N   0  0  0  0  0  0  0  0  0  0  0  0
   29.7190   27.9160   49.0240 C   0  0  0  0  0  0  0  0  0  0  0  0
   30.8590   27.1790   49.1090 N   0  0  0  0  0  0  0  0  0  0  0  0
   30.0070   29.6310   45.7460 C   0  0  0  0  0  0  0  0  0  0  0  0
   28.7410   30.2070   45.9760 F   0  0  0  0  0  0  0  0  0  0  0  0
   30.8780   30.6190   45.4560 F   0  0  0  0  0  0  0  0  0  0  0  0
   29.8120   28.8630   44.6080 F   0  0  0  0  0  0  0  0  0  0  0  0
   33.7910   30.0800   47.0520 S   0  0  0  0  0  0  0  0  0  0  0  0
   34.1590   29.2910   50.0380 Cl  0  0  0  0  0  0  0  0  0  0  0  0
   35.5250   29.8460   49.0950 C   0  0  0  0  0  0  0  0  0  0  0  0
   35.4110   30.2220   47.7520 C   0  0  0  0  0  0  0  0  0  0  0  0
   36.5030   30.6560   47.0620 C   0  0  0  0  0  0  0  0  0  0  0  0
   37.7220   30.7150   47.7080 C   0  0  0  0  0  0  0  0  0  0  0  0
   37.8430   30.3410   49.0480 C   0  0  0  0  0  0  0  0  0  0  0  0
   36.7380   29.9030   49.7510 C   0  0  0  0  0  0  0  0  0  0  0  0
   36.8360   29.4930   51.1980 C   0  0  0  0  0  0  0  0  0  0  0  0
   37.3520   30.5610   51.9470 F   0  0  0  0  0  0  0  0  0  0  0  0
   37.7510   28.4790   51.3530 F   0  0  0  0  0  0  0  0  0  0  0  0
   35.6010   29.2070   51.7180 F   0  0  0  0  0  0  0  0  0  0  0  0
   31.6058   26.2803   45.0671 H   0  0  0  0  0  0  0  0  0  0  0  0
   33.2173   25.9809   43.2102 H   0  0  0  0  0  0  0  0  0  0  0  0
   35.1986   27.5868   43.0411 H   0  0  0  0  0  0  0  0  0  0  0  0
   35.3865   29.3569   44.7508 H   0  0  0  0  0  0  0  0  0  0  0  0
   32.6810   26.6137   48.1837 H   0  0  0  0  0  0  0  0  0  0  0  0
   28.9841   27.8878   49.8420 H   0  0  0  0  0  0  0  0  0  0  0  0
   36.4148   30.9546   46.0070 H   0  0  0  0  0  0  0  0  0  0  0  0
   38.6102   31.0615   47.1594 H   0  0  0  0  0  0  0  0  0  0  0  0
   38.8225   30.3955   49.5456 H   0  0  0  0  0  0  0  0  0  0  0  0
  1  8  1  0
  2  1  2  0
  3  2  1  0
  4  3  2  0
  4  5  1  0
  5  6  2  0
  6  1  1  0
  6 17  1  0
  7 12  2  0
  8  7  1  0
  9  8  2  0
  9 10  1  0
 10 11  2  0
 11 12  1  0
 13 14  1  0
 13  9  1  0
 15 13  1  0
 16 13  1  0
 17 20  1  0
 19 24  2  0
 19 18  1  0
 20 19  1  0
 21 22  1  0
 21 20  2  0
 22 23  2  0
 23 24  1  0
 24 25  1  0
 25 27  1  0
 25 28  1  0
 25 26  1  0
  2 29  1  0
  3 30  1  0
  4 31  1  0
  5 32  1  0
  7 33  1  0
 11 34  1  0
 21 35  1  0
 22 36  1  0
 23 37  1  0
M  ISO  8  29  14  30  14  31  14  32  14  33  14  34  14  35  14  36  14
M  ISO  1  37  14
M  END
>  <minimizedAffinity>  (1) 
-6.3027277

>  <minimizedRMSD>  (1) 
1.71282077

$$$$
