
     RDKit          3D

 45 48  0  0  1  0  0  0  0  0999 V2000
   34.0770   27.5690   44.5340 C   0  0  0  0  0  0  0  0  0  0  0  0
   34.1040   26.3780   43.8330 C   0  0  0  0  0  0  0  0  0  0  0  0
   34.7790   26.1940   42.6260 C   0  0  0  0  0  0  0  0  0  0  0  0
   35.4770   27.2910   42.0860 C   0  0  0  0  0  0  0  0  0  0  0  0
   35.4370   28.4700   42.8030 C   0  0  0  0  0  0  0  0  0  0  0  0
   34.7740   28.6360   43.9830 C   0  0  0  0  0  0  0  0  0  0  0  0
   33.9800   27.0770   46.9020 C   0  0  0  0  0  0  0  0  0  0  0  0
   33.3270   27.5740   45.7620 C   0  0  0  0  0  0  0  0  0  0  0  0
   32.0090   28.0290   45.9050 C   0  0  0  0  0  0  0  0  0  0  0  0
   31.4240   27.9730   47.1310 N   0  0  0  0  0  0  0  0  0  0  0  0
   32.0860   27.4860   48.2220 C   0  0  0  0  0  0  0  0  0  0  0  0
   33.3640   27.0380   48.1020 N   0  0  0  0  0  0  0  0  0  0  0  0
   31.1950   28.5780   44.7890 C   0  0  0  0  0  0  0  0  0  0  0  0
   29.8680   28.7600   45.2260 F   0  0  0  0  0  0  0  0  0  0  0  0
   31.6310   29.7320   44.2480 F   0  0  0  0  0  0  0  0  0  0  0  0
   31.0770   27.6210   43.7810 F   0  0  0  0  0  0  0  0  0  0  0  0
   34.7360   30.1420   44.8830 S   0  0  0  0  0  0  0  0  0  0  0  0
   34.1960   30.3390   47.9360 Cl  0  0  0  0  0  0  0  0  0  0  0  0
   35.8280   30.4320   47.3090 C   0  0  0  0  0  0  0  0  0  0  0  0
   36.1280   30.3650   45.9560 C   0  0  0  0  0  0  0  0  0  0  0  0
   37.4170   30.4570   45.5220 C   0  0  0  0  0  0  0  0  0  0  0  0
   38.4240   30.6140   46.4530 C   0  0  0  0  0  0  0  0  0  0  0  0
   38.1300   30.6810   47.8160 C   0  0  0  0  0  0  0  0  0  0  0  0
   36.8280   30.5910   48.2650 C   0  0  0  0  0  0  0  0  0  0  0  0
   36.4860   30.6650   49.7080 C   0  0  2  0  0  0  0  0  0  0  0  0
   37.6860   30.9120   50.5930 C   0  0  0  0  0  0  0  0  0  0  0  0
   37.4350   30.0240   51.8000 C   0  0  0  0  0  0  0  0  0  0  0  0
   36.2150   29.4170   51.6390 O   0  0  0  0  0  0  0  0  0  0  0  0
   35.8750   29.4420   50.2890 C   0  0  0  0  0  0  0  0  0  0  0  0
   33.5584   25.5205   44.2537 H   0  0  0  0  0  0  0  0  0  0  0  0
   34.7663   25.2216   42.1119 H   0  0  0  0  0  0  0  0  0  0  0  0
   36.0283   27.2123   41.1374 H   0  0  0  0  0  0  0  0  0  0  0  0
   35.9778   29.3361   42.3938 H   0  0  0  0  0  0  0  0  0  0  0  0
   35.0141   26.7123   46.8148 H   0  0  0  0  0  0  0  0  0  0  0  0
   31.5838   27.4562   49.2002 H   0  0  0  0  0  0  0  0  0  0  0  0
   37.6507   30.4070   44.4483 H   0  0  0  0  0  0  0  0  0  0  0  0
   39.4690   30.6871   46.1174 H   0  0  0  0  0  0  0  0  0  0  0  0
   38.9469   30.8072   48.5418 H   0  0  0  0  0  0  0  0  0  0  0  0
   35.7670   31.4975   49.7023 H   0  0  0  0  0  0  0  0  0  0  0  0
   38.6162   30.6241   50.0813 H   0  0  0  0  0  0  0  0  0  0  0  0
   37.8052   31.9719   50.8621 H   0  0  0  0  0  0  0  0  0  0  0  0
   38.2241   29.2610   51.8715 H   0  0  0  0  0  0  0  0  0  0  0  0
   37.4422   30.6244   52.7217 H   0  0  0  0  0  0  0  0  0  0  0  0
   34.7814   29.4761   50.1758 H   0  0  0  0  0  0  0  0  0  0  0  0
   36.2403   28.5400   49.7762 H   0  0  0  0  0  0  0  0  0  0  0  0
  1  8  1  0
  2  1  2  0
  3  2  1  0
  4  3  2  0
  4  5  1  0
  5  6  2  0
  6  1  1  0
  6 17  1  0
  7 12  2  0
  8  9  2  0
  8  7  1  0
  9 10  1  0
 10 11  2  0
 12 11  1  0
 13 14  1  0
 13  9  1  0
 15 13  1  0
 16 13  1  0
 17 20  1  0
 19 18  1  0
 19 24  2  0
 20 19  1  0
 21 20  2  0
 21 22  1  0
 22 23  2  0
 23 24  1  0
 25 24  1  0
 25 29  1  0
 25 26  1  0
 26 27  1  0
 28 27  1  0
 29 28  1  0
  2 30  1  0
  3 31  1  0
  4 32  1  0
  5 33  1  0
  7 34  1  0
 11 35  1  0
 21 36  1  0
 22 37  1  0
 23 38  1  0
 25 39  1  6
 26 40  1  0
 26 41  1  0
 27 42  1  0
 27 43  1  0
 29 44  1  0
 29 45  1  0
M  ISO  8  30  14  31  14  32  14  33  14  34  14  35  14  36  14  37  14
M  ISO  8  38  14  39  13  40  13  41  13  42  13  43  13  44  13  45  13
M  END
>  <minimizedAffinity>  (1) 
-5.35230446

>  <minimizedRMSD>  (1) 
2.5125432

$$$$
