
     RDKit          3D

 34 36  0  0  1  0  0  0  0  0999 V2000
   39.7700   33.1460   45.9150 N   0  0  0  0  0  0  0  0  0  0  0  0
   38.5080   32.4820   46.0180 C   0  0  1  0  0  0  0  0  0  0  0  0
   37.8520   32.3470   44.6710 C   0  0  0  0  0  0  0  0  0  0  0  0
   38.7620   31.5960   43.8260 N   0  0  0  0  0  0  0  0  0  0  0  0
   39.9060   32.4770   43.5870 C   0  0  0  0  0  0  0  0  0  0  0  0
   40.6400   32.5700   44.9180 C   0  0  2  0  0  0  0  0  0  0  0  0
   41.1260   31.2800   45.2920 N   0  0  0  0  0  0  0  0  0  0  0  0
   38.6950   30.7770   46.6550 S   0  0  0  0  0  0  0  0  0  0  0  0
   37.5160   30.8140   50.5430 C   0  0  0  0  0  0  0  0  0  0  0  0
   38.2940   31.0030   49.4080 C   0  0  0  0  0  0  0  0  0  0  0  0
   37.8080   30.5960   48.1840 C   0  0  0  0  0  0  0  0  0  0  0  0
   36.5640   30.0240   48.1750 N   0  0  0  0  0  0  0  0  0  0  0  0
   35.8450   29.8570   49.2680 C   0  0  0  0  0  0  0  0  0  0  0  0
   36.3200   30.2540   50.4750 N   0  0  0  0  0  0  0  0  0  0  0  0
   34.5250   29.2210   49.0770 C   0  0  0  0  0  0  0  0  0  0  0  0
   33.4860   28.7760   49.8570 C   0  0  0  0  0  0  0  0  0  0  0  0
   32.5720   28.2950   49.0030 N   0  0  0  0  0  0  0  0  0  0  0  0
   33.0010   28.4230   47.7340 C   0  0  0  0  0  0  0  0  0  0  0  0
   34.2260   29.0040   47.7720 N   0  0  0  0  0  0  0  0  0  0  0  0
   39.6012   34.1323   45.6707 H   0  0  0  0  0  0  0  0  0  0  0  0
   37.9029   33.0964   46.7009 H   0  0  0  0  0  0  0  0  0  0  0  0
   36.8973   31.8094   44.7685 H   0  0  0  0  0  0  0  0  0  0  0  0
   37.6414   33.3358   44.2375 H   0  0  0  0  0  0  0  0  0  0  0  0
   39.0661   30.7352   44.3030 H   0  0  0  0  0  0  0  0  0  0  0  0
   40.5638   32.0506   42.8153 H   0  0  0  0  0  0  0  0  0  0  0  0
   39.5879   33.4672   43.2289 H   0  0  0  0  0  0  0  0  0  0  0  0
   41.5131   33.2326   44.8258 H   0  0  0  0  0  0  0  0  0  0  0  0
   41.1532   31.2079   46.3191 H   0  0  0  0  0  0  0  0  0  0  0  0
   40.5007   30.5545   44.9133 H   0  0  0  0  0  0  0  0  0  0  0  0
   37.9034   31.1374   51.5204 H   0  0  0  0  0  0  0  0  0  0  0  0
   39.2861   31.4719   49.4850 H   0  0  0  0  0  0  0  0  0  0  0  0
   33.4181   28.8078   50.9544 H   0  0  0  0  0  0  0  0  0  0  0  0
   31.6683   27.8850   49.2791 H   0  0  0  0  0  0  0  0  0  0  0  0
   32.4569   28.1127   46.8298 H   0  0  0  0  0  0  0  0  0  0  0  0
  1  2  1  0
  2  8  1  0
  3  2  1  0
  4  3  1  0
  5  4  1  0
  5  6  1  0
  6  7  1  0
  6  1  1  0
  8 11  1  0
 10  9  2  0
 11 10  1  0
 12 11  2  0
 12 13  1  0
 13 14  2  0
 14  9  1  0
 15 13  1  0
 15 16  2  0
 17 16  1  0
 18 19  2  0
 18 17  1  0
 19 15  1  0
  1 20  1  0
  2 21  1  1
  3 22  1  0
  3 23  1  0
  4 24  1  0
  5 25  1  0
  5 26  1  0
  6 27  1  6
  7 28  1  0
  7 29  1  0
  9 30  1  0
 10 31  1  0
 16 32  1  0
 17 33  1  0
 18 34  1  0
M  ISO  8  20   5  21  13  22  13  23  13  24   5  25  13  26  13  27  13
M  ISO  7  28   5  29   5  30  14  31  14  32  14  33   9  34  14
M  END
>  <minimizedAffinity>  (1) 
-5.54549265

>  <minimizedRMSD>  (1) 
1.15603852

$$$$
