
     RDKit          3D

 34 35  0  0  1  0  0  0  0  0999 V2000
   33.7560   29.6110   48.0080 C   0  0  1  0  0  0  0  0  0  0  0  0
   34.0500   30.0700   46.6470 C   0  0  0  0  0  0  0  0  0  0  0  0
   34.5450   29.0410   45.6690 C   0  0  0  0  0  0  0  0  0  0  0  0
   33.9440   27.6920   45.8020 C   0  0  0  0  0  0  0  0  0  0  0  0
   33.6560   27.2080   47.1740 C   0  0  0  0  0  0  0  0  0  0  0  0
   33.0620   28.2820   48.0400 C   0  0  2  0  0  0  0  0  0  0  0  0
   36.1060   30.3260   48.6680 C   0  0  0  0  0  0  0  0  0  0  0  0
   34.8690   29.7110   48.9820 C   0  0  0  0  0  0  0  0  0  0  0  0
   34.7260   29.2000   50.2570 C   0  0  0  0  0  0  0  0  0  0  0  0
   35.7510   29.3000   51.1440 N   0  0  0  0  0  0  0  0  0  0  0  0
   36.9200   29.8980   50.7980 C   0  0  0  0  0  0  0  0  0  0  0  0
   37.0920   30.4120   49.5530 N   0  0  0  0  0  0  0  0  0  0  0  0
   31.6940   28.5510   47.5600 N   0  0  0  0  0  0  0  0  0  0  0  0
   30.5390   27.8700   48.6590 S   0  0  0  0  0  0  0  0  0  0  0  0
   30.7780   26.3980   48.8520 O   0  0  0  0  0  0  0  0  0  0  0  0
   29.1680   28.1610   48.1460 O   0  0  0  0  0  0  0  0  0  0  0  0
   30.6780   28.5850   50.1730 O   0  0  0  0  0  0  0  0  0  0  0  0
   33.0358   30.3564   48.3764 H   0  0  0  0  0  0  0  0  0  0  0  0
   33.1251   30.5004   46.2354 H   0  0  0  0  0  0  0  0  0  0  0  0
   34.8831   30.7793   46.7597 H   0  0  0  0  0  0  0  0  0  0  0  0
   35.6324   28.9421   45.8026 H   0  0  0  0  0  0  0  0  0  0  0  0
   34.2516   29.4052   44.6734 H   0  0  0  0  0  0  0  0  0  0  0  0
   32.9941   27.6973   45.2473 H   0  0  0  0  0  0  0  0  0  0  0  0
   34.7085   27.0027   45.4140 H   0  0  0  0  0  0  0  0  0  0  0  0
   32.9467   26.3695   47.1125 H   0  0  0  0  0  0  0  0  0  0  0  0
   34.6072   26.8943   47.6287 H   0  0  0  0  0  0  0  0  0  0  0  0
   33.1392   27.8896   49.0647 H   0  0  0  0  0  0  0  0  0  0  0  0
   36.2539   30.7445   47.6615 H   0  0  0  0  0  0  0  0  0  0  0  0
   33.7852   28.7134   50.5539 H   0  0  0  0  0  0  0  0  0  0  0  0
   37.7353   29.9667   51.5332 H   0  0  0  0  0  0  0  0  0  0  0  0
   31.5477   29.5687   47.4980 H   0  0  0  0  0  0  0  0  0  0  0  0
   30.8113   26.1932   49.8200 H   0  0  0  0  0  0  0  0  0  0  0  0
   28.5510   28.2920   48.9091 H   0  0  0  0  0  0  0  0  0  0  0  0
   30.5448   27.8998   50.8750 H   0  0  0  0  0  0  0  0  0  0  0  0
  1  6  1  0
  1  8  1  0
  2  1  1  0
  3  4  1  0
  3  2  1  0
  4  5  1  0
  5  6  1  0
  7  8  2  0
  7 12  1  0
  8  9  1  0
  9 10  2  0
 11 10  1  0
 12 11  2  0
 13  6  1  0
 13 14  1  0
 14 15  1  0
 14 17  1  0
 16 14  1  0
  1 18  1  1
  2 19  1  0
  2 20  1  0
  3 21  1  0
  3 22  1  0
  4 23  1  0
  4 24  1  0
  5 25  1  0
  5 26  1  0
  6 27  1  1
  7 28  1  0
  9 29  1  0
 11 30  1  0
 13 31  1  0
 15 32  1  0
 16 33  1  0
 17 34  1  0
M  ISO  8  18  13  19  13  20  13  21  13  22  13  23  13  24  13  25  13
M  ISO  8  26  13  27  13  28  14  29  14  30  14  31   5  32   3  33   3
M  ISO  1  34   3
M  END
>  <minimizedAffinity>  (1) 
-4.57996941

>  <minimizedRMSD>  (1) 
1.79381824

$$$$
