
     RDKit          3D

 29 30  0  0  1  0  0  0  0  0999 V2000
   34.1650   29.5460   48.7900 C   0  0  1  0  0  0  0  0  0  0  0  0
   33.8480   29.9400   47.4210 C   0  0  0  0  0  0  0  0  0  0  0  0
   34.1490   28.9430   46.3360 C   0  0  0  0  0  0  0  0  0  0  0  0
   33.9360   27.5220   46.6860 C   0  0  0  0  0  0  0  0  0  0  0  0
   34.2340   27.1020   48.0850 C   0  0  0  0  0  0  0  0  0  0  0  0
   33.7920   28.1200   49.0830 C   0  0  2  0  0  0  0  0  0  0  0  0
   36.3510   30.8040   48.5910 C   0  0  0  0  0  0  0  0  0  0  0  0
   35.5120   29.9020   49.2870 C   0  0  0  0  0  0  0  0  0  0  0  0
   36.0040   29.3780   50.4650 C   0  0  0  0  0  0  0  0  0  0  0  0
   37.2550   29.7480   50.8950 N   0  0  0  0  0  0  0  0  0  0  0  0
   38.0220   30.6160   50.1930 C   0  0  0  0  0  0  0  0  0  0  0  0
   37.5580   31.1440   49.0320 N   0  0  0  0  0  0  0  0  0  0  0  0
   32.2490   28.1370   48.9220 C   0  0  0  0  0  0  0  0  0  0  0  0
   33.5082   30.1925   49.3906 H   0  0  0  0  0  0  0  0  0  0  0  0
   32.7710   30.1599   47.3800 H   0  0  0  0  0  0  0  0  0  0  0  0
   34.5048   30.7971   47.2113 H   0  0  0  0  0  0  0  0  0  0  0  0
   35.2041   29.0649   46.0498 H   0  0  0  0  0  0  0  0  0  0  0  0
   33.4360   29.1599   45.5269 H   0  0  0  0  0  0  0  0  0  0  0  0
   32.8784   27.2904   46.4914 H   0  0  0  0  0  0  0  0  0  0  0  0
   34.6616   26.9714   46.0693 H   0  0  0  0  0  0  0  0  0  0  0  0
   33.7130   26.1551   48.2897 H   0  0  0  0  0  0  0  0  0  0  0  0
   35.3238   26.9863   48.1791 H   0  0  0  0  0  0  0  0  0  0  0  0
   34.2411   27.8429   50.0481 H   0  0  0  0  0  0  0  0  0  0  0  0
   35.9904   31.2410   47.6481 H   0  0  0  0  0  0  0  0  0  0  0  0
   35.4006   28.6713   51.0536 H   0  0  0  0  0  0  0  0  0  0  0  0
   39.0201   30.8927   50.5635 H   0  0  0  0  0  0  0  0  0  0  0  0
   31.7767   28.1422   49.9154 H   0  0  0  0  0  0  0  0  0  0  0  0
   31.9480   29.0385   48.3682 H   0  0  0  0  0  0  0  0  0  0  0  0
   31.9282   27.2423   48.3682 H   0  0  0  0  0  0  0  0  0  0  0  0
  1  6  1  0
  1  8  1  0
  2  1  1  0
  3  4  1  0
  3  2  1  0
  4  5  1  0
  5  6  1  0
  7 12  2  0
  7  8  1  0
  8  9  2  0
  9 10  1  0
 11 10  2  0
 12 11  1  0
 13  6  1  0
  1 14  1  1
  2 15  1  0
  2 16  1  0
  3 17  1  0
  3 18  1  0
  4 19  1  0
  4 20  1  0
  5 21  1  0
  5 22  1  0
  6 23  1  1
  7 24  1  0
  9 25  1  0
 11 26  1  0
 13 27  1  0
 13 28  1  0
 13 29  1  0
M  ISO  8  14  13  15  13  16  13  17  13  18  13  19  13  20  13  21  13
M  ISO  8  22  13  23  13  24  14  25  14  26  14  27   8  28   8  29   8
M  END
>  <minimizedAffinity>  (1) 
-4.13053179

>  <minimizedRMSD>  (1) 
0.745085418

$$$$
