
     RDKit          3D

 33 34  0  0  1  0  0  0  0  0999 V2000
   35.4380   30.7220   48.9000 C   0  0  1  0  0  0  0  0  0  0  0  0
   34.9900   30.3000   50.2120 C   0  0  0  0  0  0  0  0  0  0  0  0
   35.8670   29.3110   50.9510 C   0  0  0  0  0  0  0  0  0  0  0  0
   37.3410   29.5010   50.7690 C   0  0  0  0  0  0  0  0  0  0  0  0
   37.8150   29.9780   49.4520 C   0  0  0  0  0  0  0  0  0  0  0  0
   36.9170   30.9930   48.8460 C   0  0  2  0  0  0  0  0  0  0  0  0
   34.0770   28.8170   47.8660 C   0  0  0  0  0  0  0  0  0  0  0  0
   34.9810   29.9190   47.7540 C   0  0  0  0  0  0  0  0  0  0  0  0
   35.4110   30.1900   46.4700 C   0  0  0  0  0  0  0  0  0  0  0  0
   34.9820   29.4370   45.4120 N   0  0  0  0  0  0  0  0  0  0  0  0
   34.1330   28.4170   45.5860 C   0  0  0  0  0  0  0  0  0  0  0  0
   33.6830   28.1110   46.8230 N   0  0  0  0  0  0  0  0  0  0  0  0
   37.1090   32.2570   49.7230 C   0  0  0  0  0  0  0  0  0  0  0  0
   38.4450   32.9240   49.3750 C   0  0  0  0  0  0  0  0  0  0  0  0
   38.3670   33.1780   48.0020 O   0  0  0  0  0  0  0  0  0  0  0  0
   34.9092   31.6774   48.7677 H   0  0  0  0  0  0  0  0  0  0  0  0
   34.9032   31.1999   50.8387 H   0  0  0  0  0  0  0  0  0  0  0  0
   34.0444   29.7670   50.0340 H   0  0  0  0  0  0  0  0  0  0  0  0
   35.6437   29.3952   52.0248 H   0  0  0  0  0  0  0  0  0  0  0  0
   35.6336   28.3228   50.5280 H   0  0  0  0  0  0  0  0  0  0  0  0
   37.6736   30.2307   51.5219 H   0  0  0  0  0  0  0  0  0  0  0  0
   37.7659   28.4913   50.8684 H   0  0  0  0  0  0  0  0  0  0  0  0
   38.8127   30.4235   49.5787 H   0  0  0  0  0  0  0  0  0  0  0  0
   37.8358   29.1108   48.7756 H   0  0  0  0  0  0  0  0  0  0  0  0
   37.1853   31.0442   47.7805 H   0  0  0  0  0  0  0  0  0  0  0  0
   33.6946   28.5468   48.8614 H   0  0  0  0  0  0  0  0  0  0  0  0
   36.1081   31.0229   46.2958 H   0  0  0  0  0  0  0  0  0  0  0  0
   33.8006   27.8262   44.7197 H   0  0  0  0  0  0  0  0  0  0  0  0
   36.2868   32.9628   49.5336 H   0  0  0  0  0  0  0  0  0  0  0  0
   37.1090   31.9694   50.7847 H   0  0  0  0  0  0  0  0  0  0  0  0
   38.5686   33.8617   49.9367 H   0  0  0  0  0  0  0  0  0  0  0  0
   39.3065   32.2906   49.6332 H   0  0  0  0  0  0  0  0  0  0  0  0
   38.0796   34.1139   47.8554 H   0  0  0  0  0  0  0  0  0  0  0  0
  1  2  1  0
  2  3  1  0
  4  3  1  0
  5  4  1  0
  6  1  1  0
  6  5  1  0
  6 13  1  0
  8  7  2  0
  8  1  1  0
  9  8  1  0
 10 11  1  0
 10  9  2  0
 11 12  2  0
 12  7  1  0
 14 13  1  0
 15 14  1  0
  1 16  1  6
  2 17  1  0
  2 18  1  0
  3 19  1  0
  3 20  1  0
  4 21  1  0
  4 22  1  0
  5 23  1  0
  5 24  1  0
  6 25  1  6
  7 26  1  0
  9 27  1  0
 11 28  1  0
 13 29  1  0
 13 30  1  0
 14 31  1  0
 14 32  1  0
 15 33  1  0
M  ISO  8  16  13  17  13  18  13  19  13  20  13  21  13  22  13  23  13
M  ISO  8  24  13  25  13  26  14  27  14  28  14  29   8  30   8  31   8
M  ISO  2  32   8  33   3
M  END
>  <minimizedAffinity>  (1) 
-5.05705881

>  <minimizedRMSD>  (1) 
0.291962266

$$$$
