
     RDKit          3D

 26 27  0  0  0  0  0  0  0  0999 V2000
   37.4240   30.0970   50.9860 C   0  0  0  0  0  0  0  0  0  0  0  0
   38.2130   31.0640   50.3500 C   0  0  0  0  0  0  0  0  0  0  0  0
   37.7750   31.5820   49.1280 C   0  0  0  0  0  0  0  0  0  0  0  0
   36.5890   31.1130   48.6140 N   0  0  0  0  0  0  0  0  0  0  0  0
   35.8590   30.1800   49.2620 C   0  0  0  0  0  0  0  0  0  0  0  0
   36.2720   29.6820   50.4280 N   0  0  0  0  0  0  0  0  0  0  0  0
   34.6410   29.7390   48.6740 N   0  0  0  0  0  0  0  0  0  0  0  0
   33.8190   28.7440   49.3190 C   0  0  0  0  0  0  0  0  0  0  0  0
   33.8750   27.5080   48.4630 C   0  0  0  0  0  0  0  0  0  0  0  0
   33.9690   27.7780   47.0040 C   0  0  0  0  0  0  0  0  0  0  0  0
   33.6150   29.1580   46.5510 C   0  0  0  0  0  0  0  0  0  0  0  0
   34.1640   30.2540   47.4190 C   0  0  0  0  0  0  0  0  0  0  0  0
   37.9770   29.6730   52.1850 O   0  0  0  0  0  0  0  0  0  0  0  0
   39.1553   31.4077   50.8017 H   0  0  0  0  0  0  0  0  0  0  0  0
   38.3621   32.3429   48.5929 H   0  0  0  0  0  0  0  0  0  0  0  0
   34.2084   28.5257   50.3243 H   0  0  0  0  0  0  0  0  0  0  0  0
   32.7840   29.0999   49.4289 H   0  0  0  0  0  0  0  0  0  0  0  0
   34.7561   26.9213   48.7623 H   0  0  0  0  0  0  0  0  0  0  0  0
   32.9288   26.9705   48.6236 H   0  0  0  0  0  0  0  0  0  0  0  0
   35.0064   27.5820   46.6952 H   0  0  0  0  0  0  0  0  0  0  0  0
   33.2187   27.1208   46.5401 H   0  0  0  0  0  0  0  0  0  0  0  0
   34.0060   29.2970   45.5323 H   0  0  0  0  0  0  0  0  0  0  0  0
   32.5189   29.2348   46.6027 H   0  0  0  0  0  0  0  0  0  0  0  0
   34.9968   30.7439   46.8932 H   0  0  0  0  0  0  0  0  0  0  0  0
   33.3559   30.9717   47.6236 H   0  0  0  0  0  0  0  0  0  0  0  0
   37.5125   28.9894   52.7300 H   0  0  0  0  0  0  0  0  0  0  0  0
  1 13  1  0
  2  1  2  0
  3  2  1  0
  4  3  2  0
  4  5  1  0
  5  6  2  0
  6  1  1  0
  7  5  1  0
  7  8  1  0
  9  8  1  0
 10  9  1  0
 11 10  1  0
 11 12  1  0
 12  7  1  0
  2 14  1  0
  3 15  1  0
  8 16  1  0
  8 17  1  0
  9 18  1  0
  9 19  1  0
 10 20  1  0
 10 21  1  0
 11 22  1  0
 11 23  1  0
 12 24  1  0
 12 25  1  0
 13 26  1  0
M  ISO  8  14  14  15  14  16  13  17  13  18  13  19  13  20  13  21  13
M  ISO  5  22  13  23  13  24  13  25  13  26   3
M  END
>  <minimizedAffinity>  (1) 
-5.01701546

>  <minimizedRMSD>  (1) 
0.940515518

$$$$
