
     RDKit          3D

 21 22  0  0  0  0  0  0  0  0999 V2000
   37.6440   30.3330   50.5660 C   0  0  0  0  0  0  0  0  0  0  0  0
   38.4520   31.4100   50.1860 C   0  0  0  0  0  0  0  0  0  0  0  0
   38.2600   31.9560   48.9260 C   0  0  0  0  0  0  0  0  0  0  0  0
   37.2910   31.4150   48.1160 N   0  0  0  0  0  0  0  0  0  0  0  0
   36.5310   30.3740   48.5200 C   0  0  0  0  0  0  0  0  0  0  0  0
   36.7090   29.8430   49.7330 N   0  0  0  0  0  0  0  0  0  0  0  0
   34.4580   28.5140   49.7740 Cl  0  0  0  0  0  0  0  0  0  0  0  0
   34.5400   28.9940   48.0940 C   0  0  0  0  0  0  0  0  0  0  0  0
   35.5160   29.8410   47.6180 C   0  0  0  0  0  0  0  0  0  0  0  0
   35.5620   30.2070   46.2880 C   0  0  0  0  0  0  0  0  0  0  0  0
   34.6310   29.7370   45.3870 C   0  0  0  0  0  0  0  0  0  0  0  0
   33.6410   28.8840   45.8420 C   0  0  0  0  0  0  0  0  0  0  0  0
   33.6020   28.5210   47.1790 C   0  0  0  0  0  0  0  0  0  0  0  0
   37.9390   29.8830   51.8470 O   0  0  0  0  0  0  0  0  0  0  0  0
   39.2170   31.8118   50.8667 H   0  0  0  0  0  0  0  0  0  0  0  0
   38.8704   32.8041   48.5823 H   0  0  0  0  0  0  0  0  0  0  0  0
   36.3553   30.8855   45.9412 H   0  0  0  0  0  0  0  0  0  0  0  0
   34.6740   30.0337   44.3286 H   0  0  0  0  0  0  0  0  0  0  0  0
   32.8859   28.4945   45.1434 H   0  0  0  0  0  0  0  0  0  0  0  0
   32.8098   27.8417   47.5267 H   0  0  0  0  0  0  0  0  0  0  0  0
   37.4353   29.1231   52.2329 H   0  0  0  0  0  0  0  0  0  0  0  0
  1 14  1  0
  2  1  2  0
  3  2  1  0
  4  5  1  0
  4  3  2  0
  5  6  2  0
  6  1  1  0
  8  7  1  0
  9  8  2  0
  9  5  1  0
 10  9  1  0
 11 12  1  0
 11 10  2  0
 12 13  2  0
 13  8  1  0
  2 15  1  0
  3 16  1  0
 10 17  1  0
 11 18  1  0
 12 19  1  0
 13 20  1  0
 14 21  1  0
M  ISO  7  15  14  16  14  17  14  18  14  19  14  20  14  21   3
M  END
>  <minimizedAffinity>  (1) 
-4.96273708

>  <minimizedRMSD>  (1) 
2.2758646

$$$$
