
     RDKit          3D

 24 25  0  0  0  0  0  0  0  0999 V2000
   37.4650   30.0980   51.0270 C   0  0  0  0  0  0  0  0  0  0  0  0
   38.1850   31.1030   50.3630 C   0  0  0  0  0  0  0  0  0  0  0  0
   37.6710   31.5900   49.1620 C   0  0  0  0  0  0  0  0  0  0  0  0
   36.4980   31.0660   48.7010 N   0  0  0  0  0  0  0  0  0  0  0  0
   35.8290   30.0980   49.3680 C   0  0  0  0  0  0  0  0  0  0  0  0
   36.3170   29.6190   50.5280 N   0  0  0  0  0  0  0  0  0  0  0  0
   34.5550   29.5260   48.8700 C   0  0  0  0  0  0  0  0  0  0  0  0
   34.4090   28.0540   49.1910 C   0  0  0  0  0  0  0  0  0  0  0  0
   33.2660   27.6520   48.2900 C   0  0  0  0  0  0  0  0  0  0  0  0
   33.2760   28.6410   47.1260 C   0  0  0  0  0  0  0  0  0  0  0  0
   34.5240   29.4870   47.3440 C   0  0  0  0  0  0  0  0  0  0  0  0
   38.0810   29.6960   52.2130 O   0  0  0  0  0  0  0  0  0  0  0  0
   39.1258   31.4944   50.7773 H   0  0  0  0  0  0  0  0  0  0  0  0
   38.1971   32.3761   48.6005 H   0  0  0  0  0  0  0  0  0  0  0  0
   33.7867   30.1595   49.3372 H   0  0  0  0  0  0  0  0  0  0  0  0
   35.3261   27.4981   48.9464 H   0  0  0  0  0  0  0  0  0  0  0  0
   34.2300   27.8465   50.2563 H   0  0  0  0  0  0  0  0  0  0  0  0
   33.4135   26.6264   47.9208 H   0  0  0  0  0  0  0  0  0  0  0  0
   32.3056   27.6720   48.8260 H   0  0  0  0  0  0  0  0  0  0  0  0
   32.3737   29.2699   47.1442 H   0  0  0  0  0  0  0  0  0  0  0  0
   33.2841   28.1333   46.1502 H   0  0  0  0  0  0  0  0  0  0  0  0
   35.4216   29.0046   46.9297 H   0  0  0  0  0  0  0  0  0  0  0  0
   34.5066   30.4725   46.8557 H   0  0  0  0  0  0  0  0  0  0  0  0
   37.6671   28.9911   52.7715 H   0  0  0  0  0  0  0  0  0  0  0  0
  1 12  1  0
  2  1  2  0
  3  2  1  0
  4  3  2  0
  4  5  1  0
  5  6  2  0
  6  1  1  0
  7  8  1  0
  7  5  1  0
  9  8  1  0
 10 11  1  0
 10  9  1  0
 11  7  1  0
  2 13  1  0
  3 14  1  0
  7 15  1  0
  8 16  1  0
  8 17  1  0
  9 18  1  0
  9 19  1  0
 10 20  1  0
 10 21  1  0
 11 22  1  0
 11 23  1  0
 12 24  1  0
M  ISO  8  13  14  14  14  15  13  16  13  17  13  18  13  19  13  20  13
M  ISO  4  21  13  22  13  23  13  24   3
M  END
>  <minimizedAffinity>  (1) 
-4.80562973

>  <minimizedRMSD>  (1) 
1.07018471

$$$$
