
     RDKit          3D

 23 24  0  0  0  0  0  0  0  0999 V2000
   37.4570   30.0190   50.9770 C   0  0  0  0  0  0  0  0  0  0  0  0
   38.1740   31.0260   50.3180 C   0  0  0  0  0  0  0  0  0  0  0  0
   37.7930   31.4070   49.0400 C   0  0  0  0  0  0  0  0  0  0  0  0
   36.7220   30.7680   48.4800 N   0  0  0  0  0  0  0  0  0  0  0  0
   36.0350   29.7930   49.1300 C   0  0  0  0  0  0  0  0  0  0  0  0
   36.4080   29.4290   50.3670 N   0  0  0  0  0  0  0  0  0  0  0  0
   34.9460   29.1840   48.4890 N   0  0  0  0  0  0  0  0  0  0  0  0
   34.3530   27.9330   48.9550 C   0  0  0  0  0  0  0  0  0  0  0  0
   33.4030   27.4690   47.8930 C   0  0  0  0  0  0  0  0  0  0  0  0
   33.0470   28.7420   47.1800 C   0  0  0  0  0  0  0  0  0  0  0  0
   34.2310   29.6370   47.3140 C   0  0  0  0  0  0  0  0  0  0  0  0
   37.9610   29.7600   52.2360 O   0  0  0  0  0  0  0  0  0  0  0  0
   39.0309   31.5099   50.8094 H   0  0  0  0  0  0  0  0  0  0  0  0
   38.3336   32.1956   48.4961 H   0  0  0  0  0  0  0  0  0  0  0  0
   35.1387   27.1795   49.1129 H   0  0  0  0  0  0  0  0  0  0  0  0
   33.8278   28.0823   49.9099 H   0  0  0  0  0  0  0  0  0  0  0  0
   33.8897   26.7564   47.2109 H   0  0  0  0  0  0  0  0  0  0  0  0
   32.5279   26.9379   48.2956 H   0  0  0  0  0  0  0  0  0  0  0  0
   32.1640   29.2053   47.6443 H   0  0  0  0  0  0  0  0  0  0  0  0
   32.8022   28.5556   46.1239 H   0  0  0  0  0  0  0  0  0  0  0  0
   34.8717   29.5584   46.4233 H   0  0  0  0  0  0  0  0  0  0  0  0
   33.9296   30.6907   47.4084 H   0  0  0  0  0  0  0  0  0  0  0  0
   37.5405   29.0672   52.8046 H   0  0  0  0  0  0  0  0  0  0  0  0
  1 12  1  0
  2  1  2  0
  3  2  1  0
  4  3  2  0
  4  5  1  0
  5  6  2  0
  6  1  1  0
  7  8  1  0
  7  5  1  0
  9  8  1  0
 10 11  1  0
 10  9  1  0
 11  7  1  0
  2 13  1  0
  3 14  1  0
  8 15  1  0
  8 16  1  0
  9 17  1  0
  9 18  1  0
 10 19  1  0
 10 20  1  0
 11 21  1  0
 11 22  1  0
 12 23  1  0
M  ISO  8  13  14  14  14  15  13  16  13  17  13  18  13  19  13  20  13
M  ISO  3  21  13  22  13  23   3
M  END
>  <minimizedAffinity>  (1) 
-4.64460135

>  <minimizedRMSD>  (1) 
1.23795164

$$$$
