
     RDKit          3D

 17 17  0  0  0  0  0  0  0  0999 V2000
   37.3140   29.9370   51.3730 C   0  0  0  0  0  0  0  0  0  0  0  0
   37.8460   30.9590   50.5660 C   0  0  0  0  0  0  0  0  0  0  0  0
   37.0970   31.3990   49.4700 C   0  0  0  0  0  0  0  0  0  0  0  0
   35.8920   30.8100   49.2470 N   0  0  0  0  0  0  0  0  0  0  0  0
   35.3940   29.8210   50.0420 C   0  0  0  0  0  0  0  0  0  0  0  0
   36.1170   29.4030   51.0920 N   0  0  0  0  0  0  0  0  0  0  0  0
   38.1610   29.6080   52.4120 O   0  0  0  0  0  0  0  0  0  0  0  0
   34.0840   29.2450   49.7220 C   0  0  0  0  0  0  0  0  0  0  0  0
   34.3590   27.9450   48.9500 C   0  0  0  0  0  0  0  0  0  0  0  0
   38.8275   31.4014   50.7916 H   0  0  0  0  0  0  0  0  0  0  0  0
   37.4706   32.1956   48.8099 H   0  0  0  0  0  0  0  0  0  0  0  0
   37.9038   28.9008   53.0553 H   0  0  0  0  0  0  0  0  0  0  0  0
   33.5276   29.0285   50.6459 H   0  0  0  0  0  0  0  0  0  0  0  0
   33.4765   29.9420   49.1260 H   0  0  0  0  0  0  0  0  0  0  0  0
   34.5324   27.1251   49.6625 H   0  0  0  0  0  0  0  0  0  0  0  0
   33.4920   27.7038   48.3174 H   0  0  0  0  0  0  0  0  0  0  0  0
   35.2494   28.0756   48.3174 H   0  0  0  0  0  0  0  0  0  0  0  0
  1  7  1  0
  2  1  2  0
  3  2  1  0
  4  3  2  0
  4  5  1  0
  5  6  2  0
  6  1  1  0
  8  5  1  0
  9  8  1  0
  2 10  1  0
  3 11  1  0
  7 12  1  0
  8 13  1  0
  8 14  1  0
  9 15  1  0
  9 16  1  0
  9 17  1  0
M  ISO  8  10  14  11  14  12   3  13   8  14   8  15   8  16   8  17   8
M  END
>  <minimizedAffinity>  (1) 
-4.01014471

>  <minimizedRMSD>  (1) 
0.305358768

$$$$
