
     RDKit          3D

 15 15  0  0  0  0  0  0  0  0999 V2000
   37.3920   30.1330   51.0940 C   0  0  0  0  0  0  0  0  0  0  0  0
   38.2240   30.8950   50.2520 C   0  0  0  0  0  0  0  0  0  0  0  0
   37.6900   31.4400   49.0930 C   0  0  0  0  0  0  0  0  0  0  0  0
   36.3680   31.2030   48.8300 N   0  0  0  0  0  0  0  0  0  0  0  0
   35.5870   30.4660   49.6550 C   0  0  0  0  0  0  0  0  0  0  0  0
   36.1020   29.9400   50.7720 N   0  0  0  0  0  0  0  0  0  0  0  0
   33.9120   28.8370   49.2030 C   0  0  0  0  0  0  0  0  0  0  0  0
   34.6870   27.8380   49.3160 O   0  0  0  0  0  0  0  0  0  0  0  0
   34.2080   30.2400   49.3430 N   0  0  0  0  0  0  0  0  0  0  0  0
   38.0610   29.6570   52.2070 O   0  0  0  0  0  0  0  0  0  0  0  0
   39.2814   31.0559   50.5090 H   0  0  0  0  0  0  0  0  0  0  0  0
   38.3075   32.0414   48.4096 H   0  0  0  0  0  0  0  0  0  0  0  0
   32.8653   28.5973   48.9642 H   0  0  0  0  0  0  0  0  0  0  0  0
   33.5112   30.9904   49.2320 H   0  0  0  0  0  0  0  0  0  0  0  0
   37.5809   29.1064   52.8752 H   0  0  0  0  0  0  0  0  0  0  0  0
  1 10  1  0
  2  1  2  0
  3  2  1  0
  4  3  2  0
  4  5  1  0
  5  6  2  0
  6  1  1  0
  7  8  2  0
  7  9  1  0
  9  5  1  0
  2 11  1  0
  3 12  1  0
  7 13  1  0
  9 14  1  0
 10 15  1  0
M  ISO  4  11  14  12  14  13   6  15   3
M  END
>  <minimizedAffinity>  (1) 
-4.39003849

>  <minimizedRMSD>  (1) 
0.486559212

$$$$
