
     RDKit          3D

 18 18  0  0  0  0  0  0  0  0999 V2000
   36.8600   30.8280   49.2960 C   0  0  0  0  0  0  0  0  0  0  0  0
   38.0690   31.0190   48.5820 C   0  0  0  0  0  0  0  0  0  0  0  0
   38.0350   30.9450   47.2070 C   0  0  0  0  0  0  0  0  0  0  0  0
   36.8210   30.6890   46.6150 N   0  0  0  0  0  0  0  0  0  0  0  0
   35.6880   30.5120   47.3150 C   0  0  0  0  0  0  0  0  0  0  0  0
   35.7260   30.5850   48.6410 N   0  0  0  0  0  0  0  0  0  0  0  0
   33.8940   28.9740   47.0520 C   0  0  0  0  0  0  0  0  0  0  0  0
   34.3460   28.1320   47.8820 O   0  0  0  0  0  0  0  0  0  0  0  0
   34.4540   30.2470   46.6400 N   0  0  0  0  0  0  0  0  0  0  0  0
   37.0160   30.9250   50.6760 O   0  0  0  0  0  0  0  0  0  0  0  0
   36.9800   29.7260   51.4160 C   0  0  0  0  0  0  0  0  0  0  0  0
   37.5920   29.9680   52.6300 F   0  0  0  0  0  0  0  0  0  0  0  0
   35.6840   29.3440   51.6500 F   0  0  0  0  0  0  0  0  0  0  0  0
   37.6200   28.7070   50.7400 F   0  0  0  0  0  0  0  0  0  0  0  0
   39.0111   31.2213   49.1126 H   0  0  0  0  0  0  0  0  0  0  0  0
   38.9450   31.0855   46.6053 H   0  0  0  0  0  0  0  0  0  0  0  0
   32.9408   28.7015   46.5753 H   0  0  0  0  0  0  0  0  0  0  0  0
   34.0201   30.8781   45.9513 H   0  0  0  0  0  0  0  0  0  0  0  0
  1 10  1  0
  2  1  2  0
  3  2  1  0
  4  3  2  0
  4  5  1  0
  5  6  2  0
  6  1  1  0
  7  8  2  0
  9  7  1  0
  9  5  1  0
 10 11  1  0
 11 13  1  0
 11 12  1  0
 14 11  1  0
  2 15  1  0
  3 16  1  0
  7 17  1  0
  9 18  1  0
M  ISO  3  15  14  16  14  17   6
M  END
>  <minimizedAffinity>  (1) 
-5.03479767

>  <minimizedRMSD>  (1) 
2.23449612

$$$$
