
     RDKit          3D

 30 31  0  0  1  0  0  0  0  0999 V2000
   34.3530   29.9270   49.6650 O   0  0  0  0  0  0  0  0  0  0  0  0
   34.4050   29.7800   48.4270 C   0  0  0  0  0  0  0  0  0  0  0  0
   35.4030   30.4670   47.5990 C   0  0  2  0  0  0  0  0  0  0  0  0
   35.1850   29.8040   46.2290 C   0  0  0  0  0  0  0  0  0  0  0  0
   33.7440   29.3910   46.2780 C   0  0  0  0  0  0  0  0  0  0  0  0
   33.5290   28.9450   47.6550 N   0  0  0  0  0  0  0  0  0  0  0  0
   32.6990   27.9540   48.2340 C   0  0  0  0  0  0  0  0  0  0  0  0
   32.5770   26.7890   47.7670 O   0  0  0  0  0  0  0  0  0  0  0  0
   31.9760   28.3350   49.4120 N   0  0  0  0  0  0  0  0  0  0  0  0
   36.7420   30.2310   48.0120 O   0  0  0  0  0  0  0  0  0  0  0  0
   37.6180   31.3010   48.0450 C   0  0  0  0  0  0  0  0  0  0  0  0
   37.7700   31.8610   49.3190 C   0  0  0  0  0  0  0  0  0  0  0  0
   38.6290   32.9470   49.4700 C   0  0  0  0  0  0  0  0  0  0  0  0
   39.2800   33.4040   48.3550 N   0  0  0  0  0  0  0  0  0  0  0  0
   39.1160   32.8430   47.1360 C   0  0  0  0  0  0  0  0  0  0  0  0
   38.2970   31.8150   47.0090 N   0  0  0  0  0  0  0  0  0  0  0  0
   40.6700   32.3800   45.4110 C   0  0  0  0  0  0  0  0  0  0  0  0
   40.8480   31.1620   45.7500 O   0  0  0  0  0  0  0  0  0  0  0  0
   39.8200   33.3650   46.0180 N   0  0  0  0  0  0  0  0  0  0  0  0
   35.2795   31.5594   47.6361 H   0  0  0  0  0  0  0  0  0  0  0  0
   35.8422   28.9309   46.1035 H   0  0  0  0  0  0  0  0  0  0  0  0
   35.4161   30.4696   45.3842 H   0  0  0  0  0  0  0  0  0  0  0  0
   33.0888   30.2418   46.0396 H   0  0  0  0  0  0  0  0  0  0  0  0
   33.5129   28.6033   45.5458 H   0  0  0  0  0  0  0  0  0  0  0  0
   31.3563   27.6568   49.8778 H   0  0  0  0  0  0  0  0  0  0  0  0
   32.0763   29.2869   49.7925 H   0  0  0  0  0  0  0  0  0  0  0  0
   37.2232   31.4525   50.1816 H   0  0  0  0  0  0  0  0  0  0  0  0
   38.7794   33.4213   50.4510 H   0  0  0  0  0  0  0  0  0  0  0  0
   41.2448   32.7202   44.5370 H   0  0  0  0  0  0  0  0  0  0  0  0
   39.7312   34.3348   45.6827 H   0  0  0  0  0  0  0  0  0  0  0  0
  2  1  2  0
  3 10  1  0
  3  2  1  0
  4  5  1  0
  4  3  1  0
  5  6  1  0
  6  7  1  0
  6  2  1  0
  7  9  1  0
  8  7  2  0
 10 11  1  0
 11 12  2  0
 12 13  1  0
 14 13  2  0
 15 14  1  0
 16 15  2  0
 16 11  1  0
 17 18  2  0
 17 19  1  0
 19 15  1  0
  3 20  1  6
  4 21  1  0
  4 22  1  0
  5 23  1  0
  5 24  1  0
  9 25  1  0
  9 26  1  0
 12 27  1  0
 13 28  1  0
 17 29  1  0
 19 30  1  0
M  ISO  8  20  13  21  13  22  13  23  13  24  13  27  14  28  14  29   6
M  END
>  <minimizedAffinity>  (1) 
-5.7685256

>  <minimizedRMSD>  (1) 
1.71679735

$$$$
