
     RDKit          3D

 39 41  0  0  1  0  0  0  0  0999 V2000
   34.5010   28.9490   50.0720 O   0  0  0  0  0  0  0  0  0  0  0  0
   34.3460   29.1970   48.8700 C   0  0  0  0  0  0  0  0  0  0  0  0
   35.1420   30.1980   48.1950 C   0  0  2  0  0  0  0  0  0  0  0  0
   34.6910   30.0050   46.7130 C   0  0  0  0  0  0  0  0  0  0  0  0
   33.3110   29.4120   46.8620 C   0  0  0  0  0  0  0  0  0  0  0  0
   33.3960   28.5420   48.0400 N   0  0  0  0  0  0  0  0  0  0  0  0
   32.6430   27.3230   48.2000 C   0  0  0  0  0  0  0  0  0  0  0  0
   30.6610   27.1960   45.7350 Cl  0  0  0  0  0  0  0  0  0  0  0  0
   30.1840   27.5590   47.3630 C   0  0  0  0  0  0  0  0  0  0  0  0
   31.1920   27.5500   48.2930 C   0  0  0  0  0  0  0  0  0  0  0  0
   30.7690   27.8290   49.5890 C   0  0  0  0  0  0  0  0  0  0  0  0
   29.4670   28.0970   49.9500 C   0  0  0  0  0  0  0  0  0  0  0  0
   28.4750   28.1010   49.0040 C   0  0  0  0  0  0  0  0  0  0  0  0
   28.8760   27.8260   47.7150 C   0  0  0  0  0  0  0  0  0  0  0  0
   36.5460   29.9510   48.2080 O   0  0  0  0  0  0  0  0  0  0  0  0
   37.3940   31.0550   48.2800 C   0  0  0  0  0  0  0  0  0  0  0  0
   37.5680   31.6310   49.5250 C   0  0  0  0  0  0  0  0  0  0  0  0
   38.4090   32.7310   49.6210 C   0  0  0  0  0  0  0  0  0  0  0  0
   39.0190   33.1940   48.5000 N   0  0  0  0  0  0  0  0  0  0  0  0
   38.8390   32.6220   47.2950 C   0  0  0  0  0  0  0  0  0  0  0  0
   38.0330   31.5670   47.2060 N   0  0  0  0  0  0  0  0  0  0  0  0
   40.3420   32.1690   45.5190 C   0  0  0  0  0  0  0  0  0  0  0  0
   40.5640   30.9720   45.8780 O   0  0  0  0  0  0  0  0  0  0  0  0
   39.4900   33.1320   46.1370 N   0  0  0  0  0  0  0  0  0  0  0  0
   34.9973   31.1816   48.6658 H   0  0  0  0  0  0  0  0  0  0  0  0
   35.3633   29.3166   46.1800 H   0  0  0  0  0  0  0  0  0  0  0  0
   34.7057   30.9358   46.1270 H   0  0  0  0  0  0  0  0  0  0  0  0
   32.5647   30.2046   47.0199 H   0  0  0  0  0  0  0  0  0  0  0  0
   32.9994   28.8602   45.9628 H   0  0  0  0  0  0  0  0  0  0  0  0
   32.8411   26.6728   47.3351 H   0  0  0  0  0  0  0  0  0  0  0  0
   32.9643   26.8601   49.1447 H   0  0  0  0  0  0  0  0  0  0  0  0
   31.5300   27.8360   50.3832 H   0  0  0  0  0  0  0  0  0  0  0  0
   29.2224   28.3086   51.0014 H   0  0  0  0  0  0  0  0  0  0  0  0
   27.4254   28.3105   49.2579 H   0  0  0  0  0  0  0  0  0  0  0  0
   28.1125   27.8188   46.9232 H   0  0  0  0  0  0  0  0  0  0  0  0
   37.0557   31.2298   50.4119 H   0  0  0  0  0  0  0  0  0  0  0  0
   38.5788   33.2205   50.5913 H   0  0  0  0  0  0  0  0  0  0  0  0
   40.8739   32.5066   44.6172 H   0  0  0  0  0  0  0  0  0  0  0  0
   39.3604   34.0909   45.7839 H   0  0  0  0  0  0  0  0  0  0  0  0
  2  1  2  0
  3 15  1  0
  3  2  1  0
  4  5  1  0
  4  3  1  0
  5  6  1  0
  6  7  1  0
  6  2  1  0
  7 10  1  0
  8  9  1  0
  9 14  2  0
  9 10  1  0
 10 11  2  0
 11 12  1  0
 13 12  2  0
 14 13  1  0
 15 16  1  0
 16 17  2  0
 17 18  1  0
 19 18  2  0
 20 19  1  0
 21 20  2  0
 21 16  1  0
 22 23  2  0
 22 24  1  0
 24 20  1  0
  3 25  1  1
  4 26  1  0
  4 27  1  0
  5 28  1  0
  5 29  1  0
  7 30  1  0
  7 31  1  0
 11 32  1  0
 12 33  1  0
 13 34  1  0
 14 35  1  0
 17 36  1  0
 18 37  1  0
 22 38  1  0
 24 39  1  0
M  ISO  8  25  13  26  13  27  13  28  13  29  13  30   8  31   8  32  14
M  ISO  6  33  14  34  14  35  14  36  14  37  14  38   6
M  END
>  <minimizedAffinity>  (1) 
-6.2950573

>  <minimizedRMSD>  (1) 
3.6037221

$$$$
