
     RDKit          3D

 43 46  0  0  1  0  0  0  0  0999 V2000
   34.5460   29.7100   49.9910 O   0  0  0  0  0  0  0  0  0  0  0  0
   34.3570   29.6520   48.7680 C   0  0  0  0  0  0  0  0  0  0  0  0
   35.1670   30.4120   47.8380 C   0  0  2  0  0  0  0  0  0  0  0  0
   34.6650   29.8480   46.4730 C   0  0  0  0  0  0  0  0  0  0  0  0
   33.2760   29.3890   46.7800 C   0  0  0  0  0  0  0  0  0  0  0  0
   33.3500   28.8550   48.1280 N   0  0  0  0  0  0  0  0  0  0  0  0
   32.5610   27.7610   48.6760 C   0  0  0  0  0  0  0  0  0  0  0  0
   33.8350   26.0960   47.5190 C   0  0  0  0  0  0  0  0  0  0  0  0
   32.5570   26.5680   47.8260 C   0  0  0  0  0  0  0  0  0  0  0  0
   31.4250   25.9380   47.3500 C   0  0  0  0  0  0  0  0  0  0  0  0
   31.6110   24.8140   46.5540 C   0  0  0  0  0  0  0  0  0  0  0  0
   30.7020   24.0110   45.9610 N   0  0  0  0  0  0  0  0  0  0  0  0
   31.3940   23.0530   45.2940 C   0  0  0  0  0  0  0  0  0  0  0  0
   32.7440   23.2330   45.4540 C   0  0  0  0  0  0  0  0  0  0  0  0
   32.8740   24.3490   46.2520 C   0  0  0  0  0  0  0  0  0  0  0  0
   34.0100   24.9760   46.7260 C   0  0  0  0  0  0  0  0  0  0  0  0
   36.5650   30.1030   47.8920 O   0  0  0  0  0  0  0  0  0  0  0  0
   37.4510   31.1670   48.0500 C   0  0  0  0  0  0  0  0  0  0  0  0
   37.5920   31.6750   49.3290 C   0  0  0  0  0  0  0  0  0  0  0  0
   38.4680   32.7360   49.5130 C   0  0  0  0  0  0  0  0  0  0  0  0
   39.1420   33.2260   48.4440 N   0  0  0  0  0  0  0  0  0  0  0  0
   38.9920   32.7210   47.2040 C   0  0  0  0  0  0  0  0  0  0  0  0
   38.1570   31.7120   47.0430 N   0  0  0  0  0  0  0  0  0  0  0  0
   40.5520   32.2970   45.4730 C   0  0  0  0  0  0  0  0  0  0  0  0
   40.7090   31.0790   45.7750 O   0  0  0  0  0  0  0  0  0  0  0  0
   39.7160   33.2620   46.1040 N   0  0  0  0  0  0  0  0  0  0  0  0
   35.0742   31.4912   48.0294 H   0  0  0  0  0  0  0  0  0  0  0  0
   35.2925   29.0086   46.1388 H   0  0  0  0  0  0  0  0  0  0  0  0
   34.7037   30.5889   45.6609 H   0  0  0  0  0  0  0  0  0  0  0  0
   32.5708   30.2321   46.7356 H   0  0  0  0  0  0  0  0  0  0  0  0
   32.9169   28.6418   46.0571 H   0  0  0  0  0  0  0  0  0  0  0  0
   32.9757   27.4889   49.6578 H   0  0  0  0  0  0  0  0  0  0  0  0
   31.5214   28.1131   48.7487 H   0  0  0  0  0  0  0  0  0  0  0  0
   34.7162   26.6229   47.9138 H   0  0  0  0  0  0  0  0  0  0  0  0
   30.4181   26.3098   47.5905 H   0  0  0  0  0  0  0  0  0  0  0  0
   29.6775   24.1073   46.0063 H   0  0  0  0  0  0  0  0  0  0  0  0
   30.9355   22.2440   44.7063 H   0  0  0  0  0  0  0  0  0  0  0  0
   33.5525   22.6167   45.0340 H   0  0  0  0  0  0  0  0  0  0  0  0
   35.0144   24.5995   46.4824 H   0  0  0  0  0  0  0  0  0  0  0  0
   37.0280   31.2517   50.1732 H   0  0  0  0  0  0  0  0  0  0  0  0
   38.6131   33.1728   50.5121 H   0  0  0  0  0  0  0  0  0  0  0  0
   41.1358   32.6571   44.6130 H   0  0  0  0  0  0  0  0  0  0  0  0
   39.6432   34.2429   45.7983 H   0  0  0  0  0  0  0  0  0  0  0  0
  2  1  2  0
  3 17  1  0
  3  2  1  0
  4  5  1  0
  4  3  1  0
  5  6  1  0
  6  7  1  0
  6  2  1  0
  8  9  2  0
  9  7  1  0
 10  9  1  0
 11 10  2  0
 12 11  1  0
 13 14  2  0
 13 12  1  0
 14 15  1  0
 15 11  1  0
 15 16  2  0
 16  8  1  0
 17 18  1  0
 18 19  2  0
 19 20  1  0
 21 20  2  0
 22 21  1  0
 23 22  2  0
 23 18  1  0
 24 25  2  0
 24 26  1  0
 26 22  1  0
  3 27  1  6
  4 28  1  0
  4 29  1  0
  5 30  1  0
  5 31  1  0
  7 32  1  0
  7 33  1  0
  8 34  1  0
 10 35  1  0
 12 36  1  0
 13 37  1  0
 14 38  1  0
 16 39  1  0
 19 40  1  0
 20 41  1  0
 24 42  1  0
 26 43  1  0
M  ISO  8  27  13  28  13  29  13  30  13  31  13  32   8  33   8  34  14
M  ISO  8  35  14  36   9  37  14  38  14  39  14  40  14  41  14  42   6
M  END
>  <minimizedAffinity>  (1) 
-5.97700644

>  <minimizedRMSD>  (1) 
2.16578865

$$$$
