
     RDKit          3D

 44 46  0  0  1  0  0  0  0  0999 V2000
   34.0140   29.1980   49.5610 O   0  0  0  0  0  0  0  0  0  0  0  0
   34.1050   29.3330   48.3360 C   0  0  0  0  0  0  0  0  0  0  0  0
   35.0660   30.2260   47.7290 C   0  0  2  0  0  0  0  0  0  0  0  0
   34.9130   29.8720   46.2200 C   0  0  0  0  0  0  0  0  0  0  0  0
   33.5100   29.3490   46.1350 C   0  0  0  0  0  0  0  0  0  0  0  0
   33.3030   28.6490   47.3730 N   0  0  0  0  0  0  0  0  0  0  0  0
   32.4280   27.4900   47.5540 C   0  0  0  0  0  0  0  0  0  0  0  0
   31.1720   27.9490   47.9430 N   0  0  0  0  0  0  0  0  0  0  0  0
   30.7280   27.7550   49.2560 C   0  0  0  0  0  0  0  0  0  0  0  0
   29.3570   27.1110   49.2040 C   0  0  0  0  0  0  0  0  0  0  0  0
   29.0260   26.6740   47.7910 C   0  0  0  0  0  0  0  0  0  0  0  0
   29.0800   27.8350   46.8190 C   0  0  0  0  0  0  0  0  0  0  0  0
   30.3390   28.6490   47.0620 C   0  0  0  0  0  0  0  0  0  0  0  0
   36.4230   29.9380   48.0690 O   0  0  0  0  0  0  0  0  0  0  0  0
   37.2980   31.0130   48.2090 C   0  0  0  0  0  0  0  0  0  0  0  0
   37.4540   31.5200   49.4850 C   0  0  0  0  0  0  0  0  0  0  0  0
   38.3220   32.5960   49.6570 C   0  0  0  0  0  0  0  0  0  0  0  0
   38.9710   33.0960   48.5710 N   0  0  0  0  0  0  0  0  0  0  0  0
   38.8040   32.5880   47.3400 C   0  0  0  0  0  0  0  0  0  0  0  0
   37.9790   31.5660   47.1830 N   0  0  0  0  0  0  0  0  0  0  0  0
   40.3340   32.1880   45.5750 C   0  0  0  0  0  0  0  0  0  0  0  0
   40.5170   30.9670   45.8720 O   0  0  0  0  0  0  0  0  0  0  0  0
   39.4980   33.1400   46.2240 N   0  0  0  0  0  0  0  0  0  0  0  0
   34.8803   31.2653   48.0377 H   0  0  0  0  0  0  0  0  0  0  0  0
   35.0408   30.7646   45.5899 H   0  0  0  0  0  0  0  0  0  0  0  0
   35.6655   29.1520   45.8659 H   0  0  0  0  0  0  0  0  0  0  0  0
   32.7933   30.1773   46.0337 H   0  0  0  0  0  0  0  0  0  0  0  0
   33.3619   28.6983   45.2605 H   0  0  0  0  0  0  0  0  0  0  0  0
   32.3449   26.9349   46.6080 H   0  0  0  0  0  0  0  0  0  0  0  0
   32.8412   26.8183   48.3209 H   0  0  0  0  0  0  0  0  0  0  0  0
   31.4279   27.0972   49.7920 H   0  0  0  0  0  0  0  0  0  0  0  0
   30.6747   28.7183   49.7845 H   0  0  0  0  0  0  0  0  0  0  0  0
   29.3448   26.2327   49.8662 H   0  0  0  0  0  0  0  0  0  0  0  0
   28.6074   27.8459   49.5326 H   0  0  0  0  0  0  0  0  0  0  0  0
   29.7516   25.9101   47.4748 H   0  0  0  0  0  0  0  0  0  0  0  0
   28.0026   26.2706   47.7873 H   0  0  0  0  0  0  0  0  0  0  0  0
   28.1972   28.4749   46.9646 H   0  0  0  0  0  0  0  0  0  0  0  0
   29.0901   27.4476   45.7895 H   0  0  0  0  0  0  0  0  0  0  0  0
   30.8634   28.8105   46.1086 H   0  0  0  0  0  0  0  0  0  0  0  0
   30.0730   29.6234   47.4976 H   0  0  0  0  0  0  0  0  0  0  0  0
   36.9101   31.0877   50.3378 H   0  0  0  0  0  0  0  0  0  0  0  0
   38.4799   33.0337   50.6537 H   0  0  0  0  0  0  0  0  0  0  0  0
   40.8939   32.5579   44.7034 H   0  0  0  0  0  0  0  0  0  0  0  0
   39.4048   34.1199   45.9206 H   0  0  0  0  0  0  0  0  0  0  0  0
  2  1  2  0
  3 14  1  0
  3  2  1  0
  4  3  1  0
  5  4  1  0
  5  6  1  0
  6  7  1  0
  6  2  1  0
  7  8  1  0
  8  9  1  0
 10  9  1  0
 11 10  1  0
 12 13  1  0
 12 11  1  0
 13  8  1  0
 14 15  1  0
 15 16  2  0
 16 17  1  0
 18 17  2  0
 19 18  1  0
 20 19  2  0
 20 15  1  0
 21 22  2  0
 21 23  1  0
 23 19  1  0
  3 24  1  6
  4 25  1  0
  4 26  1  0
  5 27  1  0
  5 28  1  0
  7 29  1  0
  7 30  1  0
  9 31  1  0
  9 32  1  0
 10 33  1  0
 10 34  1  0
 11 35  1  0
 11 36  1  0
 12 37  1  0
 12 38  1  0
 13 39  1  0
 13 40  1  0
 16 41  1  0
 17 42  1  0
 21 43  1  0
 23 44  1  0
M  ISO  8  24  13  25  13  26  13  27  13  28  13  29   8  30   8  31  13
M  ISO  8  32  13  33  13  34  13  35  13  36  13  37  13  38  13  39  13
M  ISO  4  40  13  41  14  42  14  43   6
M  END
>  <minimizedAffinity>  (1) 
-5.73874044

>  <minimizedRMSD>  (1) 
1.29427409

$$$$
