
     RDKit          3D

 35 36  0  0  1  0  0  0  0  0999 V2000
   34.7250   29.6940   50.1160 O   0  0  0  0  0  0  0  0  0  0  0  0
   34.6190   29.6740   48.8750 C   0  0  0  0  0  0  0  0  0  0  0  0
   35.4590   30.4940   48.0250 C   0  0  2  0  0  0  0  0  0  0  0  0
   35.0890   29.9250   46.6160 C   0  0  0  0  0  0  0  0  0  0  0  0
   33.6680   29.4590   46.8350 C   0  0  0  0  0  0  0  0  0  0  0  0
   33.6840   28.8610   48.1680 N   0  0  0  0  0  0  0  0  0  0  0  0
   32.9090   27.7260   48.5740 C   0  0  0  0  0  0  0  0  0  0  0  0
   33.3260   26.5850   47.9540 O   0  0  0  0  0  0  0  0  0  0  0  0
   32.3320   25.6760   45.7710 O   0  0  0  0  0  0  0  0  0  0  0  0
   32.1440   25.6200   47.2910 P   0  0  0  0  0  0  0  0  0  0  0  0
   32.2550   23.9960   47.7130 O   0  0  0  0  0  0  0  0  0  0  0  0
   30.5720   26.1700   47.5900 O   0  0  0  0  0  0  0  0  0  0  0  0
   36.8590   30.2400   48.1820 O   0  0  0  0  0  0  0  0  0  0  0  0
   37.7110   31.3420   48.2020 C   0  0  0  0  0  0  0  0  0  0  0  0
   37.8980   31.9570   49.4280 C   0  0  0  0  0  0  0  0  0  0  0  0
   38.7390   33.0570   49.4860 C   0  0  0  0  0  0  0  0  0  0  0  0
   39.3420   33.4840   48.3400 N   0  0  0  0  0  0  0  0  0  0  0  0
   39.1490   32.8760   47.1610 C   0  0  0  0  0  0  0  0  0  0  0  0
   38.3430   31.8260   47.1130 N   0  0  0  0  0  0  0  0  0  0  0  0
   40.6280   32.3700   45.3770 C   0  0  0  0  0  0  0  0  0  0  0  0
   40.8490   31.1810   45.7650 O   0  0  0  0  0  0  0  0  0  0  0  0
   39.7930   33.3490   45.9810 N   0  0  0  0  0  0  0  0  0  0  0  0
   35.3025   31.5646   48.2230 H   0  0  0  0  0  0  0  0  0  0  0  0
   35.7464   29.0885   46.3365 H   0  0  0  0  0  0  0  0  0  0  0  0
   35.1984   30.6529   45.7985 H   0  0  0  0  0  0  0  0  0  0  0  0
   32.9696   30.3080   46.7974 H   0  0  0  0  0  0  0  0  0  0  0  0
   33.3345   28.7514   46.0616 H   0  0  0  0  0  0  0  0  0  0  0  0
   33.0074   27.5974   49.6620 H   0  0  0  0  0  0  0  0  0  0  0  0
   31.8610   27.9068   48.2928 H   0  0  0  0  0  0  0  0  0  0  0  0
   32.2608   23.9110   48.6993 H   0  0  0  0  0  0  0  0  0  0  0  0
   30.4211   26.2228   48.5670 H   0  0  0  0  0  0  0  0  0  0  0  0
   37.3932   31.5830   50.3309 H   0  0  0  0  0  0  0  0  0  0  0  0
   38.9169   33.5762   50.4393 H   0  0  0  0  0  0  0  0  0  0  0  0
   41.1477   32.6810   44.4588 H   0  0  0  0  0  0  0  0  0  0  0  0
   39.6667   34.2998   45.6055 H   0  0  0  0  0  0  0  0  0  0  0  0
  2  1  2  0
  3 13  1  0
  3  2  1  0
  4  5  1  0
  4  3  1  0
  5  6  1  0
  6  7  1  0
  6  2  1  0
  8  7  1  0
  9 10  2  0
 10 12  1  0
 10 11  1  0
 10  8  1  0
 13 14  1  0
 14 15  2  0
 15 16  1  0
 17 16  2  0
 18 17  1  0
 19 18  2  0
 19 14  1  0
 20 21  2  0
 20 22  1  0
 22 18  1  0
  3 23  1  6
  4 24  1  0
  4 25  1  0
  5 26  1  0
  5 27  1  0
  7 28  1  0
  7 29  1  0
 11 30  1  0
 12 31  1  0
 15 32  1  0
 16 33  1  0
 20 34  1  0
 22 35  1  0
M  ISO  8  23  13  24  13  25  13  26  13  27  13  28   8  29   8  30   3
M  ISO  4  31   3  32  14  33  14  34   6
M  END
>  <minimizedAffinity>  (1) 
-5.23069525

>  <minimizedRMSD>  (1) 
1.14732313

$$$$
