
     RDKit          3D

 37 40  0  0  1  0  0  0  0  0999 V2000
   32.2640   28.8160   47.5070 C   0  0  2  0  0  0  0  0  0  0  0  0
   33.5030   28.5260   48.3320 C   0  0  1  0  0  0  0  0  0  0  0  0
   33.6970   27.1630   48.3490 O   0  0  0  0  0  0  0  0  0  0  0  0
   32.8040   26.5820   47.4850 C   0  0  0  0  0  0  0  0  0  0  0  0
   32.3630   27.6900   46.5170 C   0  0  1  0  0  0  0  0  0  0  0  0
   32.3350   30.0740   46.9170 O   0  0  0  0  0  0  0  0  0  0  0  0
   34.9030   29.2700   47.4350 S   0  0  0  0  0  0  0  0  0  0  0  0
   37.3770   29.4710   50.5130 C   0  0  0  0  0  0  0  0  0  0  0  0
   37.9410   30.7400   50.4600 C   0  0  0  0  0  0  0  0  0  0  0  0
   37.5340   31.5840   49.4120 C   0  0  0  0  0  0  0  0  0  0  0  0
   36.6220   31.1110   48.5230 N   0  0  0  0  0  0  0  0  0  0  0  0
   36.0960   29.8750   48.6060 C   0  0  0  0  0  0  0  0  0  0  0  0
   36.4750   29.0450   49.6090 N   0  0  0  0  0  0  0  0  0  0  0  0
   31.1470   27.3660   45.9390 O   0  0  0  0  0  0  0  0  0  0  0  0
   29.3630   29.0690   46.4230 N   0  0  0  0  0  0  0  0  0  0  0  0
   29.9760   27.8710   46.4690 C   0  0  0  0  0  0  0  0  0  0  0  0
   29.2160   27.0500   47.2140 N   0  0  0  0  0  0  0  0  0  0  0  0
   28.1320   27.7090   47.6400 C   0  0  0  0  0  0  0  0  0  0  0  0
   27.0210   27.4260   48.4070 C   0  0  0  0  0  0  0  0  0  0  0  0
   26.0690   28.3650   48.6550 N   0  0  0  0  0  0  0  0  0  0  0  0
   26.2330   29.6030   48.1270 C   0  0  0  0  0  0  0  0  0  0  0  0
   27.2920   29.9370   47.3710 N   0  0  0  0  0  0  0  0  0  0  0  0
   28.2250   29.0040   47.1320 C   0  0  0  0  0  0  0  0  0  0  0  0
   26.8870   26.1200   48.9410 N   0  0  0  0  0  0  0  0  0  0  0  0
   31.3118   28.8531   48.0565 H   0  0  0  0  0  0  0  0  0  0  0  0
   33.4105   28.9163   49.3562 H   0  0  0  0  0  0  0  0  0  0  0  0
   33.2861   25.7622   46.9323 H   0  0  0  0  0  0  0  0  0  0  0  0
   31.9453   26.1542   48.0232 H   0  0  0  0  0  0  0  0  0  0  0  0
   33.0135   27.8940   45.6537 H   0  0  0  0  0  0  0  0  0  0  0  0
   32.3741   30.7676   47.6224 H   0  0  0  0  0  0  0  0  0  0  0  0
   37.6784   28.7902   51.3227 H   0  0  0  0  0  0  0  0  0  0  0  0
   38.6764   31.0708   51.2081 H   0  0  0  0  0  0  0  0  0  0  0  0
   37.9431   32.6004   49.3143 H   0  0  0  0  0  0  0  0  0  0  0  0
   29.7109   29.9005   45.9246 H   0  0  0  0  0  0  0  0  0  0  0  0
   25.4664   30.3663   48.3261 H   0  0  0  0  0  0  0  0  0  0  0  0
   26.0675   25.8808   49.5173 H   0  0  0  0  0  0  0  0  0  0  0  0
   27.6091   25.4101   48.7528 H   0  0  0  0  0  0  0  0  0  0  0  0
  1  2  1  0
  2  3  1  0
  4  3  1  0
  5  4  1  0
  5  1  1  0
  6  1  1  0
  7  2  1  0
  7 12  1  0
  9  8  2  0
 10  9  1  0
 11 12  1  0
 11 10  2  0
 12 13  2  0
 13  8  1  0
 14 16  1  0
 14  5  1  0
 15 16  1  0
 15 23  1  0
 16 17  2  0
 17 18  1  0
 18 19  2  0
 19 20  1  0
 19 24  1  0
 21 20  2  0
 22 21  1  0
 23 22  2  0
 23 18  1  0
  1 25  1  1
  2 26  1  1
  4 27  1  0
  4 28  1  0
  5 29  1  6
  6 30  1  0
  8 31  1  0
  9 32  1  0
 10 33  1  0
 15 34  1  0
 21 35  1  0
 24 36  1  0
 24 37  1  0
M  ISO  8  25  13  26  13  27  13  28  13  29  13  30   3  31  14  32  14
M  ISO  3  33  14  34   9  35  14
M  END
>  <minimizedAffinity>  (1) 
-5.58524036

>  <minimizedRMSD>  (1) 
4.69489193

$$$$
