
     RDKit          3D

 35 37  0  0  1  0  0  0  0  0999 V2000
   32.3650   28.3160   47.4850 C   0  0  2  0  0  0  0  0  0  0  0  0
   33.5760   28.3490   48.3940 C   0  0  1  0  0  0  0  0  0  0  0  0
   34.1470   27.0990   48.3600 O   0  0  0  0  0  0  0  0  0  0  0  0
   33.5320   26.3400   47.3920 C   0  0  0  0  0  0  0  0  0  0  0  0
   32.8670   27.3270   46.4400 C   0  0  1  0  0  0  0  0  0  0  0  0
   32.1340   29.5770   46.9300 O   0  0  0  0  0  0  0  0  0  0  0  0
   34.7730   29.5090   47.6290 S   0  0  0  0  0  0  0  0  0  0  0  0
   37.3480   29.3170   50.6490 C   0  0  0  0  0  0  0  0  0  0  0  0
   37.8430   30.6280   50.7640 C   0  0  0  0  0  0  0  0  0  0  0  0
   37.3650   31.5930   49.8820 C   0  0  0  0  0  0  0  0  0  0  0  0
   36.4500   31.2360   48.9560 N   0  0  0  0  0  0  0  0  0  0  0  0
   35.9860   29.9630   48.8630 C   0  0  0  0  0  0  0  0  0  0  0  0
   36.4290   29.0150   49.7000 N   0  0  0  0  0  0  0  0  0  0  0  0
   31.8310   26.7210   45.7480 O   0  0  0  0  0  0  0  0  0  0  0  0
   30.3210   28.9630   44.3840 O   0  0  0  0  0  0  0  0  0  0  0  0
   31.3440   28.2670   44.0640 C   0  0  0  0  0  0  0  0  0  0  0  0
   31.9020   26.9240   44.3770 C   0  0  1  0  0  0  0  0  0  0  0  0
   33.3260   27.0620   43.8750 C   0  0  0  0  0  0  0  0  0  0  0  0
   33.1080   27.8710   42.6030 C   0  0  0  0  0  0  0  0  0  0  0  0
   32.2380   28.9270   43.1430 N   0  0  0  0  0  0  0  0  0  0  0  0
   31.4122   28.0436   47.9625 H   0  0  0  0  0  0  0  0  0  0  0  0
   33.3116   28.6431   49.4204 H   0  0  0  0  0  0  0  0  0  0  0  0
   34.2747   25.7323   46.8543 H   0  0  0  0  0  0  0  0  0  0  0  0
   32.7980   25.6477   47.8302 H   0  0  0  0  0  0  0  0  0  0  0  0
   33.4954   27.7545   45.6448 H   0  0  0  0  0  0  0  0  0  0  0  0
   32.0126   30.2396   47.6555 H   0  0  0  0  0  0  0  0  0  0  0  0
   37.7081   28.5335   51.3320 H   0  0  0  0  0  0  0  0  0  0  0  0
   38.5886   30.8844   51.5310 H   0  0  0  0  0  0  0  0  0  0  0  0
   37.7272   32.6301   49.9387 H   0  0  0  0  0  0  0  0  0  0  0  0
   31.3827   26.0660   43.9251 H   0  0  0  0  0  0  0  0  0  0  0  0
   33.9575   27.6033   44.5949 H   0  0  0  0  0  0  0  0  0  0  0  0
   33.8473   26.1057   43.7207 H   0  0  0  0  0  0  0  0  0  0  0  0
   32.6048   27.2823   41.8218 H   0  0  0  0  0  0  0  0  0  0  0  0
   34.0237   28.2232   42.1056 H   0  0  0  0  0  0  0  0  0  0  0  0
   32.2619   29.9304   42.9116 H   0  0  0  0  0  0  0  0  0  0  0  0
  1  2  1  0
  3  2  1  0
  4  3  1  0
  5  4  1  0
  5  1  1  0
  6  1  1  0
  7  2  1  0
  7 12  1  0
  8  9  2  0
 10  9  1  0
 11 10  2  0
 12 11  1  0
 12 13  2  0
 13  8  1  0
 14  5  1  0
 16 17  1  0
 16 15  2  0
 17 14  1  0
 18 17  1  0
 19 20  1  0
 19 18  1  0
 20 16  1  0
  1 21  1  1
  2 22  1  1
  4 23  1  0
  4 24  1  0
  5 25  1  6
  6 26  1  0
  8 27  1  0
  9 28  1  0
 10 29  1  0
 17 30  1  6
 18 31  1  0
 18 32  1  0
 19 33  1  0
 19 34  1  0
 20 35  1  0
M  ISO  8  21  13  22  13  23  13  24  13  25  13  26   3  27  14  28  14
M  ISO  7  29  14  30  13  31  13  32  13  33  13  34  13  35  10
M  END
>  <minimizedAffinity>  (1) 
-3.83662724

>  <minimizedRMSD>  (1) 
0.898666561

$$$$
