
     RDKit          3D

 27 28  0  0  1  0  0  0  0  0999 V2000
   32.3910   28.3520   47.5040 C   0  0  2  0  0  0  0  0  0  0  0  0
   33.6400   28.3990   48.3620 C   0  0  1  0  0  0  0  0  0  0  0  0
   34.1910   27.1500   48.3550 O   0  0  0  0  0  0  0  0  0  0  0  0
   33.5630   26.3640   47.4080 C   0  0  0  0  0  0  0  0  0  0  0  0
   32.8460   27.3250   46.4770 C   0  0  1  0  0  0  0  0  0  0  0  0
   32.1450   29.5920   46.9020 O   0  0  0  0  0  0  0  0  0  0  0  0
   34.7970   29.5330   47.5320 S   0  0  0  0  0  0  0  0  0  0  0  0
   37.3780   29.4750   50.5400 C   0  0  0  0  0  0  0  0  0  0  0  0
   37.9940   30.7340   50.5170 C   0  0  0  0  0  0  0  0  0  0  0  0
   37.5850   31.6420   49.5170 C   0  0  0  0  0  0  0  0  0  0  0  0
   36.6290   31.2550   48.6410 N   0  0  0  0  0  0  0  0  0  0  0  0
   36.0580   30.0240   48.6990 C   0  0  0  0  0  0  0  0  0  0  0  0
   36.4270   29.1410   49.6380 N   0  0  0  0  0  0  0  0  0  0  0  0
   31.7720   26.6850   45.8750 O   0  0  0  0  0  0  0  0  0  0  0  0
   31.7030   26.9060   44.5190 C   0  0  0  0  0  0  0  0  0  0  0  0
   31.4576   28.1137   48.0350 H   0  0  0  0  0  0  0  0  0  0  0  0
   33.4242   28.7225   49.3910 H   0  0  0  0  0  0  0  0  0  0  0  0
   34.3036   25.7721   46.8502 H   0  0  0  0  0  0  0  0  0  0  0  0
   32.8625   25.6546   47.8728 H   0  0  0  0  0  0  0  0  0  0  0  0
   33.4331   27.7351   45.6420 H   0  0  0  0  0  0  0  0  0  0  0  0
   32.0089   30.2779   47.6028 H   0  0  0  0  0  0  0  0  0  0  0  0
   37.6739   28.7441   51.3069 H   0  0  0  0  0  0  0  0  0  0  0  0
   38.7674   31.0042   51.2511 H   0  0  0  0  0  0  0  0  0  0  0  0
   38.0342   32.6439   49.4510 H   0  0  0  0  0  0  0  0  0  0  0  0
   31.3799   27.9407   44.3321 H   0  0  0  0  0  0  0  0  0  0  0  0
   32.6943   26.7447   44.0703 H   0  0  0  0  0  0  0  0  0  0  0  0
   30.9796   26.2093   44.0703 H   0  0  0  0  0  0  0  0  0  0  0  0
  1  2  1  0
  3  2  1  0
  4  3  1  0
  5  4  1  0
  5  1  1  0
  6  1  1  0
  7  2  1  0
  7 12  1  0
  9  8  2  0
 10  9  1  0
 11 12  1  0
 11 10  2  0
 12 13  2  0
 13  8  1  0
 14  5  1  0
 15 14  1  0
  1 16  1  1
  2 17  1  1
  4 18  1  0
  4 19  1  0
  5 20  1  6
  6 21  1  0
  8 22  1  0
  9 23  1  0
 10 24  1  0
 15 25  1  0
 15 26  1  0
 15 27  1  0
M  ISO  8  16  13  17  13  18  13  19  13  20  13  21   3  22  14  23  14
M  ISO  4  24  14  25   8  26   8  27   8
M  END
>  <minimizedAffinity>  (1) 
-3.76794839

>  <minimizedRMSD>  (1) 
0.0784095004

$$$$
