
     RDKit          3D

 46 49  0  0  1  0  0  0  0  0999 V2000
   32.2480   27.3050   48.4600 C   0  0  2  0  0  0  0  0  0  0  0  0
   33.7110   27.4440   48.1650 C   0  0  1  0  0  0  0  0  0  0  0  0
   33.9720   26.7810   47.0060 O   0  0  0  0  0  0  0  0  0  0  0  0
   32.7740   26.4730   46.3720 C   0  0  0  0  0  0  0  0  0  0  0  0
   31.7040   27.3300   46.9990 C   0  0  1  0  0  0  0  0  0  0  0  0
   31.7710   28.4370   49.1520 O   0  0  0  0  0  0  0  0  0  0  0  0
   34.0570   29.2280   47.8930 S   0  0  0  0  0  0  0  0  0  0  0  0
   36.3160   29.4370   51.1430 C   0  0  0  0  0  0  0  0  0  0  0  0
   37.1470   30.5340   50.9380 C   0  0  0  0  0  0  0  0  0  0  0  0
   37.0050   31.2430   49.7440 C   0  0  0  0  0  0  0  0  0  0  0  0
   36.0660   30.8330   48.8370 N   0  0  0  0  0  0  0  0  0  0  0  0
   35.2830   29.7570   49.0880 C   0  0  0  0  0  0  0  0  0  0  0  0
   35.3950   29.0480   50.2360 N   0  0  0  0  0  0  0  0  0  0  0  0
   30.4970   26.6840   46.9080 O   0  0  0  0  0  0  0  0  0  0  0  0
   30.3840   28.7920   44.8650 Cl  0  0  0  0  0  0  0  0  0  0  0  0
   29.1260   28.2790   45.9680 C   0  0  0  0  0  0  0  0  0  0  0  0
   29.2980   27.2610   46.8780 C   0  0  0  0  0  0  0  0  0  0  0  0
   28.2120   26.9160   47.6850 C   0  0  0  0  0  0  0  0  0  0  0  0
   27.0130   27.5810   47.5670 C   0  0  0  0  0  0  0  0  0  0  0  0
   26.8310   28.6000   46.6590 C   0  0  0  0  0  0  0  0  0  0  0  0
   27.9140   28.9580   45.8410 C   0  0  0  0  0  0  0  0  0  0  0  0
   27.6620   30.0280   44.9460 N   0  0  0  0  0  0  0  0  0  0  0  0
   27.6240   31.4460   45.2460 C   0  0  0  0  0  0  0  0  0  0  0  0
   26.3190   31.9930   44.7120 C   0  0  0  0  0  0  0  0  0  0  0  0
   25.9930   30.9350   43.6510 C   0  0  0  0  0  0  0  0  0  0  0  0
   27.3860   30.2880   43.5710 C   0  0  0  0  0  0  0  0  0  0  0  0
   31.9723   26.4348   49.0738 H   0  0  0  0  0  0  0  0  0  0  0  0
   34.3215   27.0436   48.9878 H   0  0  0  0  0  0  0  0  0  0  0  0
   32.5354   25.4086   46.5139 H   0  0  0  0  0  0  0  0  0  0  0  0
   32.8440   26.6647   45.2911 H   0  0  0  0  0  0  0  0  0  0  0  0
   31.5347   28.3282   46.5689 H   0  0  0  0  0  0  0  0  0  0  0  0
   31.8372   28.2798   50.1272 H   0  0  0  0  0  0  0  0  0  0  0  0
   36.4131   28.8660   52.0782 H   0  0  0  0  0  0  0  0  0  0  0  0
   37.8908   30.8325   51.6914 H   0  0  0  0  0  0  0  0  0  0  0  0
   37.6382   32.1179   49.5354 H   0  0  0  0  0  0  0  0  0  0  0  0
   28.3158   26.1056   48.4215 H   0  0  0  0  0  0  0  0  0  0  0  0
   26.1750   27.2898   48.2174 H   0  0  0  0  0  0  0  0  0  0  0  0
   25.8644   29.1187   46.5770 H   0  0  0  0  0  0  0  0  0  0  0  0
   27.6781   31.6006   46.3337 H   0  0  0  0  0  0  0  0  0  0  0  0
   28.4773   31.9616   44.7813 H   0  0  0  0  0  0  0  0  0  0  0  0
   25.5461   32.0375   45.4934 H   0  0  0  0  0  0  0  0  0  0  0  0
   26.3724   33.0243   44.3330 H   0  0  0  0  0  0  0  0  0  0  0  0
   25.2222   30.2271   43.9897 H   0  0  0  0  0  0  0  0  0  0  0  0
   25.5759   31.3088   42.7043 H   0  0  0  0  0  0  0  0  0  0  0  0
   27.3634   29.3583   42.9835 H   0  0  0  0  0  0  0  0  0  0  0  0
   28.1418   30.9139   43.0739 H   0  0  0  0  0  0  0  0  0  0  0  0
  1  6  1  0
  2  1  1  0
  3  2  1  0
  4  5  1  0
  4  3  1  0
  5  1  1  0
  7  2  1  0
  7 12  1  0
  9  8  2  0
 10  9  1  0
 11 12  1  0
 11 10  2  0
 12 13  2  0
 13  8  1  0
 14  5  1  0
 15 16  1  0
 16 17  2  0
 17 14  1  0
 17 18  1  0
 19 18  2  0
 20 19  1  0
 21 16  1  0
 21 20  2  0
 22 23  1  0
 22 21  1  0
 24 23  1  0
 25 24  1  0
 26 25  1  0
 26 22  1  0
  1 27  1  1
  2 28  1  1
  4 29  1  0
  4 30  1  0
  5 31  1  6
  6 32  1  0
  8 33  1  0
  9 34  1  0
 10 35  1  0
 18 36  1  0
 19 37  1  0
 20 38  1  0
 23 39  1  0
 23 40  1  0
 24 41  1  0
 24 42  1  0
 25 43  1  0
 25 44  1  0
 26 45  1  0
 26 46  1  0
M  ISO  8  27  13  28  13  29  13  30  13  31  13  32   3  33  14  34  14
M  ISO  8  35  14  36  14  37  14  38  14  39  13  40  13  41  13  42  13
M  ISO  4  43  13  44  13  45  13  46  13
M  END
>  <minimizedAffinity>  (1) 
-5.32993889

>  <minimizedRMSD>  (1) 
1.30345821

$$$$
