
     RDKit          3D

 40 42  0  0  1  0  0  0  0  0999 V2000
   31.1700   28.2510   47.3880 C   0  0  2  0  0  0  0  0  0  0  0  0
   32.3590   27.8290   48.2000 C   0  0  1  0  0  0  0  0  0  0  0  0
   32.3970   26.4670   48.2140 O   0  0  0  0  0  0  0  0  0  0  0  0
   31.5130   25.9720   47.2600 C   0  0  0  0  0  0  0  0  0  0  0  0
   31.1840   27.1090   46.3230 C   0  0  1  0  0  0  0  0  0  0  0  0
   31.4220   29.4790   46.7430 O   0  0  0  0  0  0  0  0  0  0  0  0
   33.8660   28.4290   47.3290 S   0  0  0  0  0  0  0  0  0  0  0  0
   35.7810   29.3330   50.6790 C   0  0  0  0  0  0  0  0  0  0  0  0
   36.5190   30.4780   50.3700 C   0  0  0  0  0  0  0  0  0  0  0  0
   36.4230   30.9910   49.0790 C   0  0  0  0  0  0  0  0  0  0  0  0
   35.6170   30.3550   48.1820 N   0  0  0  0  0  0  0  0  0  0  0  0
   34.9190   29.2500   48.5170 C   0  0  0  0  0  0  0  0  0  0  0  0
   34.9920   28.7250   49.7690 N   0  0  0  0  0  0  0  0  0  0  0  0
   29.9300   26.9090   45.8010 O   0  0  0  0  0  0  0  0  0  0  0  0
   29.1130   29.1490   44.0770 Cl  0  0  0  0  0  0  0  0  0  0  0  0
   28.3220   28.5310   45.5090 C   0  0  0  0  0  0  0  0  0  0  0  0
   28.7990   27.4620   46.2300 C   0  0  0  0  0  0  0  0  0  0  0  0
   28.0670   27.0430   47.3430 C   0  0  0  0  0  0  0  0  0  0  0  0
   26.9020   27.6890   47.7010 C   0  0  0  0  0  0  0  0  0  0  0  0
   26.4170   28.7670   46.9750 C   0  0  0  0  0  0  0  0  0  0  0  0
   27.1510   29.1930   45.8520 C   0  0  0  0  0  0  0  0  0  0  0  0
   26.5530   30.2500   45.2550 O   0  0  0  0  0  0  0  0  0  0  0  0
   25.7230   32.7720   44.8450 O   0  0  0  0  0  0  0  0  0  0  0  0
   26.7630   31.8950   45.4970 P   0  0  0  0  0  0  0  0  0  0  0  0
   26.6610   32.2320   47.1770 O   0  0  0  0  0  0  0  0  0  0  0  0
   28.3450   32.3240   45.0590 O   0  0  0  0  0  0  0  0  0  0  0  0
   30.2381   28.3855   47.9568 H   0  0  0  0  0  0  0  0  0  0  0  0
   32.3040   28.2289   49.2232 H   0  0  0  0  0  0  0  0  0  0  0  0
   31.9827   25.1482   46.7025 H   0  0  0  0  0  0  0  0  0  0  0  0
   30.6013   25.5833   47.7372 H   0  0  0  0  0  0  0  0  0  0  0  0
   31.8447   27.2661   45.4577 H   0  0  0  0  0  0  0  0  0  0  0  0
   31.5668   30.1848   47.4220 H   0  0  0  0  0  0  0  0  0  0  0  0
   35.8450   28.9146   51.6943 H   0  0  0  0  0  0  0  0  0  0  0  0
   37.1575   30.9605   51.1246 H   0  0  0  0  0  0  0  0  0  0  0  0
   36.9857   31.8906   48.7890 H   0  0  0  0  0  0  0  0  0  0  0  0
   28.4227   26.1901   47.9396 H   0  0  0  0  0  0  0  0  0  0  0  0
   26.3443   27.3411   48.5830 H   0  0  0  0  0  0  0  0  0  0  0  0
   25.4860   29.2741   47.2683 H   0  0  0  0  0  0  0  0  0  0  0  0
   26.9060   31.4224   47.6914 H   0  0  0  0  0  0  0  0  0  0  0  0
   28.8853   32.4705   45.8756 H   0  0  0  0  0  0  0  0  0  0  0  0
  1  2  1  0
  2  3  1  0
  4  3  1  0
  5  4  1  0
  5  1  1  0
  6  1  1  0
  7  2  1  0
  7 12  1  0
  9  8  2  0
 10  9  1  0
 11 12  1  0
 11 10  2  0
 12 13  2  0
 13  8  1  0
 14 17  1  0
 14  5  1  0
 15 16  1  0
 16 21  2  0
 16 17  1  0
 17 18  2  0
 18 19  1  0
 20 19  2  0
 21 20  1  0
 22 24  1  0
 22 21  1  0
 23 24  2  0
 24 25  1  0
 26 24  1  0
  1 27  1  1
  2 28  1  1
  4 29  1  0
  4 30  1  0
  5 31  1  6
  6 32  1  0
  8 33  1  0
  9 34  1  0
 10 35  1  0
 18 36  1  0
 19 37  1  0
 20 38  1  0
 25 39  1  0
 26 40  1  0
M  ISO  8  27  13  28  13  29  13  30  13  31  13  32   3  33  14  34  14
M  ISO  6  35  14  36  14  37  14  38  14  39   3  40   3
M  END
>  <minimizedAffinity>  (1) 
-5.32754421

>  <minimizedRMSD>  (1) 
1.58879375

$$$$
