
     RDKit          3D

 35 37  0  0  1  0  0  0  0  0999 V2000
   32.1670   28.5100   47.4440 C   0  0  2  0  0  0  0  0  0  0  0  0
   33.4170   28.3440   48.2570 C   0  0  1  0  0  0  0  0  0  0  0  0
   33.8140   27.0440   48.1580 O   0  0  0  0  0  0  0  0  0  0  0  0
   33.1160   26.4310   47.1230 C   0  0  0  0  0  0  0  0  0  0  0  0
   32.5020   27.5200   46.2830 C   0  0  1  0  0  0  0  0  0  0  0  0
   32.0900   29.8150   46.9140 O   0  0  0  0  0  0  0  0  0  0  0  0
   34.7160   29.4000   47.5050 S   0  0  0  0  0  0  0  0  0  0  0  0
   37.1340   29.2940   50.6290 C   0  0  0  0  0  0  0  0  0  0  0  0
   37.6410   30.5910   50.7600 C   0  0  0  0  0  0  0  0  0  0  0  0
   37.2000   31.5410   49.8220 C   0  0  0  0  0  0  0  0  0  0  0  0
   36.3250   31.1550   48.8590 N   0  0  0  0  0  0  0  0  0  0  0  0
   35.8690   29.8860   48.7820 C   0  0  0  0  0  0  0  0  0  0  0  0
   36.2690   28.9370   49.6670 N   0  0  0  0  0  0  0  0  0  0  0  0
   31.3550   27.0380   45.7000 O   0  0  0  0  0  0  0  0  0  0  0  0
   29.9000   29.1480   44.2490 Cl  0  0  0  0  0  0  0  0  0  0  0  0
   29.3400   28.1470   45.5680 C   0  0  0  0  0  0  0  0  0  0  0  0
   30.1170   27.1790   46.1650 C   0  0  0  0  0  0  0  0  0  0  0  0
   29.5490   26.4260   47.1980 C   0  0  0  0  0  0  0  0  0  0  0  0
   28.2530   26.6540   47.5990 C   0  0  0  0  0  0  0  0  0  0  0  0
   27.4620   27.6250   47.0070 C   0  0  0  0  0  0  0  0  0  0  0  0
   28.0210   28.3700   45.9850 C   0  0  0  0  0  0  0  0  0  0  0  0
   27.0100   29.6050   45.2330 S   0  0  0  0  0  0  0  0  0  0  0  0
   31.2275   28.3390   47.9900 H   0  0  0  0  0  0  0  0  0  0  0  0
   33.2466   28.6189   49.3084 H   0  0  0  0  0  0  0  0  0  0  0  0
   33.8037   25.8280   46.5118 H   0  0  0  0  0  0  0  0  0  0  0  0
   32.3373   25.7646   47.5225 H   0  0  0  0  0  0  0  0  0  0  0  0
   33.1041   27.9330   45.4603 H   0  0  0  0  0  0  0  0  0  0  0  0
   32.0513   30.4704   47.6550 H   0  0  0  0  0  0  0  0  0  0  0  0
   37.4601   28.5294   51.3495 H   0  0  0  0  0  0  0  0  0  0  0  0
   38.3504   30.8550   51.5582 H   0  0  0  0  0  0  0  0  0  0  0  0
   37.5583   32.5800   49.8679 H   0  0  0  0  0  0  0  0  0  0  0  0
   30.1438   25.6448   47.6940 H   0  0  0  0  0  0  0  0  0  0  0  0
   27.8322   26.0471   48.4142 H   0  0  0  0  0  0  0  0  0  0  0  0
   26.4271   27.7971   47.3378 H   0  0  0  0  0  0  0  0  0  0  0  0
   26.3996   30.3507   46.2068 H   0  0  0  0  0  0  0  0  0  0  0  0
  1  2  1  0
  3  2  1  0
  4  3  1  0
  5  4  1  0
  5  1  1  0
  6  1  1  0
  7  2  1  0
  7 12  1  0
  8  9  2  0
 10  9  1  0
 11 10  2  0
 12 11  1  0
 12 13  2  0
 13  8  1  0
 14 17  1  0
 14  5  1  0
 15 16  1  0
 16 21  2  0
 16 17  1  0
 17 18  2  0
 18 19  1  0
 20 19  2  0
 21 20  1  0
 22 21  1  0
  1 23  1  1
  2 24  1  1
  4 25  1  0
  4 26  1  0
  5 27  1  6
  6 28  1  0
  8 29  1  0
  9 30  1  0
 10 31  1  0
 18 32  1  0
 19 33  1  0
 20 34  1  0
 22 35  1  0
M  ISO  8  23  13  24  13  25  13  26  13  27  13  28   3  29  14  30  14
M  ISO  5  31  14  32  14  33  14  34  14  35  11
M  END
>  <minimizedAffinity>  (1) 
-4.65854692

>  <minimizedRMSD>  (1) 
0.0276225861

$$$$
