
     RDKit          3D

 36 38  0  0  1  0  0  0  0  0999 V2000
   32.1600   28.5330   47.4350 C   0  0  2  0  0  0  0  0  0  0  0  0
   33.4100   28.3420   48.2420 C   0  0  1  0  0  0  0  0  0  0  0  0
   33.7900   27.0400   48.1260 O   0  0  0  0  0  0  0  0  0  0  0  0
   33.0610   26.4330   47.1100 C   0  0  0  0  0  0  0  0  0  0  0  0
   32.4660   27.5380   46.2720 C   0  0  1  0  0  0  0  0  0  0  0  0
   32.1010   29.8410   46.9140 O   0  0  0  0  0  0  0  0  0  0  0  0
   34.7260   29.3770   47.4760 S   0  0  0  0  0  0  0  0  0  0  0  0
   37.1210   29.2980   50.6330 C   0  0  0  0  0  0  0  0  0  0  0  0
   37.6200   30.5940   50.7390 C   0  0  0  0  0  0  0  0  0  0  0  0
   37.1990   31.5400   49.7900 C   0  0  0  0  0  0  0  0  0  0  0  0
   36.3320   31.1420   48.8280 N   0  0  0  0  0  0  0  0  0  0  0  0
   35.8710   29.8750   48.7590 C   0  0  0  0  0  0  0  0  0  0  0  0
   36.2580   28.9340   49.6600 N   0  0  0  0  0  0  0  0  0  0  0  0
   31.3050   27.0840   45.6950 O   0  0  0  0  0  0  0  0  0  0  0  0
   29.8300   29.2310   44.3170 Cl  0  0  0  0  0  0  0  0  0  0  0  0
   29.2940   28.2040   45.6250 C   0  0  0  0  0  0  0  0  0  0  0  0
   30.0780   27.2190   46.1800 C   0  0  0  0  0  0  0  0  0  0  0  0
   29.5270   26.4430   47.2000 C   0  0  0  0  0  0  0  0  0  0  0  0
   28.2380   26.6600   47.6350 C   0  0  0  0  0  0  0  0  0  0  0  0
   27.4410   27.6470   47.0830 C   0  0  0  0  0  0  0  0  0  0  0  0
   27.9840   28.4170   46.0730 C   0  0  0  0  0  0  0  0  0  0  0  0
   27.1760   29.4360   45.4960 N   0  0  0  0  0  0  0  0  0  0  0  0
   31.2197   28.3774   47.9843 H   0  0  0  0  0  0  0  0  0  0  0  0
   33.2471   28.6127   49.2957 H   0  0  0  0  0  0  0  0  0  0  0  0
   33.7220   25.8059   46.4937 H   0  0  0  0  0  0  0  0  0  0  0  0
   32.2728   25.7874   47.5247 H   0  0  0  0  0  0  0  0  0  0  0  0
   33.0730   27.9370   45.4460 H   0  0  0  0  0  0  0  0  0  0  0  0
   32.0716   30.4920   47.6592 H   0  0  0  0  0  0  0  0  0  0  0  0
   37.4411   28.5444   51.3676 H   0  0  0  0  0  0  0  0  0  0  0  0
   38.3217   30.8680   51.5406 H   0  0  0  0  0  0  0  0  0  0  0  0
   37.5638   32.5771   49.8269 H   0  0  0  0  0  0  0  0  0  0  0  0
   30.1295   25.6476   47.6629 H   0  0  0  0  0  0  0  0  0  0  0  0
   27.8320   26.0324   48.4420 H   0  0  0  0  0  0  0  0  0  0  0  0
   26.4123   27.8125   47.4356 H   0  0  0  0  0  0  0  0  0  0  0  0
   26.2141   29.5835   45.8335 H   0  0  0  0  0  0  0  0  0  0  0  0
   27.5529   30.0263   44.7407 H   0  0  0  0  0  0  0  0  0  0  0  0
  1  2  1  0
  3  2  1  0
  4  3  1  0
  5  4  1  0
  5  1  1  0
  6  1  1  0
  7  2  1  0
  7 12  1  0
  8  9  2  0
 10  9  1  0
 11 10  2  0
 12 11  1  0
 12 13  2  0
 13  8  1  0
 14 17  1  0
 14  5  1  0
 15 16  1  0
 16 21  2  0
 16 17  1  0
 17 18  2  0
 18 19  1  0
 20 19  2  0
 21 20  1  0
 22 21  1  0
  1 23  1  1
  2 24  1  1
  4 25  1  0
  4 26  1  0
  5 27  1  6
  6 28  1  0
  8 29  1  0
  9 30  1  0
 10 31  1  0
 18 32  1  0
 19 33  1  0
 20 34  1  0
 22 35  1  0
 22 36  1  0
M  ISO  8  23  13  24  13  25  13  26  13  27  13  28   3  29  14  30  14
M  ISO  4  31  14  32  14  33  14  34  14
M  END
>  <minimizedAffinity>  (1) 
-4.63042164

>  <minimizedRMSD>  (1) 
0.0826782063

$$$$
