
     RDKit          3D

 42 44  0  0  1  0  0  0  0  0999 V2000
   34.6750   30.4530   48.7430 C   0  0  1  0  0  0  0  0  0  0  0  0
   33.8660   30.3270   47.5250 C   0  0  0  0  0  0  0  0  0  0  0  0
   33.7960   28.9650   46.8930 C   0  0  0  0  0  0  0  0  0  0  0  0
   33.7100   27.8480   47.8550 C   0  0  2  0  0  0  0  0  0  0  0  0
   34.5520   27.9370   49.0870 C   0  0  0  0  0  0  0  0  0  0  0  0
   34.4990   29.3080   49.6930 C   0  0  0  0  0  0  0  0  0  0  0  0
   36.7660   30.6360   47.3300 C   0  0  0  0  0  0  0  0  0  0  0  0
   36.0950   30.8270   48.5390 C   0  0  0  0  0  0  0  0  0  0  0  0
   36.8150   31.4010   49.5660 C   0  0  0  0  0  0  0  0  0  0  0  0
   38.1140   31.7500   49.3680 N   0  0  0  0  0  0  0  0  0  0  0  0
   38.7250   31.5480   48.1740 C   0  0  0  0  0  0  0  0  0  0  0  0
   38.0490   30.9830   47.1370 N   0  0  0  0  0  0  0  0  0  0  0  0
   33.9750   26.5400   47.1400 C   0  0  0  0  0  0  0  0  0  0  0  0
   33.8750   26.6490   45.6470 C   0  0  0  0  0  0  0  0  0  0  0  0
   34.4590   25.3810   45.0540 C   0  0  0  0  0  0  0  0  0  0  0  0
   34.5310   24.2440   46.0190 C   0  0  0  0  0  0  0  0  0  0  0  0
   33.2660   24.1860   46.8630 C   0  0  0  0  0  0  0  0  0  0  0  0
   33.1050   25.4300   47.6700 C   0  0  0  0  0  0  0  0  0  0  0  0
   34.2470   31.3380   49.2366 H   0  0  0  0  0  0  0  0  0  0  0  0
   32.8387   30.6303   47.7755 H   0  0  0  0  0  0  0  0  0  0  0  0
   34.3674   30.9631   46.7807 H   0  0  0  0  0  0  0  0  0  0  0  0
   32.9065   28.9313   46.2467 H   0  0  0  0  0  0  0  0  0  0  0  0
   34.7359   28.8286   46.3380 H   0  0  0  0  0  0  0  0  0  0  0  0
   32.6820   27.9099   48.2416 H   0  0  0  0  0  0  0  0  0  0  0  0
   34.1857   27.2066   49.8234 H   0  0  0  0  0  0  0  0  0  0  0  0
   35.5944   27.7238   48.8079 H   0  0  0  0  0  0  0  0  0  0  0  0
   35.2951   29.3727   50.4493 H   0  0  0  0  0  0  0  0  0  0  0  0
   33.4824   29.4135   50.0996 H   0  0  0  0  0  0  0  0  0  0  0  0
   36.2167   30.1786   46.4939 H   0  0  0  0  0  0  0  0  0  0  0  0
   36.3395   31.5759   50.5424 H   0  0  0  0  0  0  0  0  0  0  0  0
   39.7764   31.8436   48.0428 H   0  0  0  0  0  0  0  0  0  0  0  0
   35.0223   26.2845   47.3588 H   0  0  0  0  0  0  0  0  0  0  0  0
   32.8214   26.7520   45.3482 H   0  0  0  0  0  0  0  0  0  0  0  0
   34.4233   27.5319   45.2867 H   0  0  0  0  0  0  0  0  0  0  0  0
   33.8324   25.0751   44.2032 H   0  0  0  0  0  0  0  0  0  0  0  0
   35.4914   25.6130   44.7535 H   0  0  0  0  0  0  0  0  0  0  0  0
   34.6390   23.3017   45.4619 H   0  0  0  0  0  0  0  0  0  0  0  0
   35.3965   24.3916   46.6816 H   0  0  0  0  0  0  0  0  0  0  0  0
   32.3958   24.0722   46.1998 H   0  0  0  0  0  0  0  0  0  0  0  0
   33.3415   23.3299   47.5496 H   0  0  0  0  0  0  0  0  0  0  0  0
   33.3864   25.2203   48.7125 H   0  0  0  0  0  0  0  0  0  0  0  0
   32.0548   25.7513   47.6087 H   0  0  0  0  0  0  0  0  0  0  0  0
  1  6  1  0
  2  1  1  0
  3  2  1  0
  3  4  1  0
  4  5  1  0
  5  6  1  0
  7  8  2  0
  8  1  1  0
  8  9  1  0
 10  9  2  0
 11 10  1  0
 12  7  1  0
 12 11  2  0
 13 18  1  0
 13  4  1  0
 14 13  1  0
 15 14  1  0
 15 16  1  0
 16 17  1  0
 17 18  1  0
  1 19  1  1
  2 20  1  0
  2 21  1  0
  3 22  1  0
  3 23  1  0
  4 24  1  1
  5 25  1  0
  5 26  1  0
  6 27  1  0
  6 28  1  0
  7 29  1  0
  9 30  1  0
 11 31  1  0
 13 32  1  0
 14 33  1  0
 14 34  1  0
 15 35  1  0
 15 36  1  0
 16 37  1  0
 16 38  1  0
 17 39  1  0
 17 40  1  0
 18 41  1  0
 18 42  1  0
M  ISO  8  19  13  20  13  21  13  22  13  23  13  24  13  25  13  26  13
M  ISO  8  27  13  28  13  29  14  30  14  31  14  32  13  33  13  34  13
M  ISO  8  35  13  36  13  37  13  38  13  39  13  40  13  41  13  42  13
M  END
>  <minimizedAffinity>  (1) 
-5.00699234

>  <minimizedRMSD>  (1) 
1.65603173

$$$$
