
     RDKit          3D

 33 34  0  0  1  0  0  0  0  0999 V2000
   34.6960   30.5320   48.6830 C   0  0  1  0  0  0  0  0  0  0  0  0
   33.9340   30.2160   47.4790 C   0  0  0  0  0  0  0  0  0  0  0  0
   33.8990   28.7730   47.0540 C   0  0  0  0  0  0  0  0  0  0  0  0
   33.7840   27.8040   48.1750 C   0  0  2  0  0  0  0  0  0  0  0  0
   34.6150   28.0850   49.3810 C   0  0  0  0  0  0  0  0  0  0  0  0
   34.4800   29.5200   49.7840 C   0  0  0  0  0  0  0  0  0  0  0  0
   36.7770   30.6810   47.2670 C   0  0  0  0  0  0  0  0  0  0  0  0
   36.1250   30.8840   48.5030 C   0  0  0  0  0  0  0  0  0  0  0  0
   36.8690   31.4270   49.5340 C   0  0  0  0  0  0  0  0  0  0  0  0
   38.1830   31.7360   49.3100 N   0  0  0  0  0  0  0  0  0  0  0  0
   38.7670   31.5260   48.1170 C   0  0  0  0  0  0  0  0  0  0  0  0
   38.0560   30.9930   47.0860 N   0  0  0  0  0  0  0  0  0  0  0  0
   33.9620   26.4330   47.6510 C   0  0  0  0  0  0  0  0  0  0  0  0
   33.9540   25.9870   46.3990 C   0  0  0  0  0  0  0  0  0  0  0  0
   34.1570   24.5330   46.0690 C   0  0  0  0  0  0  0  0  0  0  0  0
   34.2560   31.4878   49.0036 H   0  0  0  0  0  0  0  0  0  0  0  0
   32.8959   30.5375   47.6490 H   0  0  0  0  0  0  0  0  0  0  0  0
   34.4538   30.7420   46.6647 H   0  0  0  0  0  0  0  0  0  0  0  0
   33.0353   28.6318   46.3876 H   0  0  0  0  0  0  0  0  0  0  0  0
   34.8605   28.5684   46.5604 H   0  0  0  0  0  0  0  0  0  0  0  0
   32.7675   27.9210   48.5789 H   0  0  0  0  0  0  0  0  0  0  0  0
   34.2808   27.4428   50.2092 H   0  0  0  0  0  0  0  0  0  0  0  0
   35.6692   27.8782   49.1444 H   0  0  0  0  0  0  0  0  0  0  0  0
   35.2168   29.7195   50.5760 H   0  0  0  0  0  0  0  0  0  0  0  0
   33.4354   29.6445   50.1055 H   0  0  0  0  0  0  0  0  0  0  0  0
   36.2090   30.2516   46.4286 H   0  0  0  0  0  0  0  0  0  0  0  0
   36.4121   31.6077   50.5182 H   0  0  0  0  0  0  0  0  0  0  0  0
   39.8260   31.7866   47.9735 H   0  0  0  0  0  0  0  0  0  0  0  0
   34.1269   25.6613   48.4173 H   0  0  0  0  0  0  0  0  0  0  0  0
   33.7941   26.7026   45.5790 H   0  0  0  0  0  0  0  0  0  0  0  0
   34.2379   23.9534   47.0004 H   0  0  0  0  0  0  0  0  0  0  0  0
   33.3012   24.1671   45.4827 H   0  0  0  0  0  0  0  0  0  0  0  0
   35.0803   24.4155   45.4827 H   0  0  0  0  0  0  0  0  0  0  0  0
  1  6  1  0
  2  1  1  0
  3  2  1  0
  3  4  1  0
  4  5  1  0
  5  6  1  0
  7  8  2  0
  8  1  1  0
  8  9  1  0
 10  9  2  0
 11 10  1  0
 12  7  1  0
 12 11  2  0
 13  4  1  0
 14 13  2  0
 15 14  1  0
  1 16  1  1
  2 17  1  0
  2 18  1  0
  3 19  1  0
  3 20  1  0
  4 21  1  1
  5 22  1  0
  5 23  1  0
  6 24  1  0
  6 25  1  0
  7 26  1  0
  9 27  1  0
 11 28  1  0
 13 29  1  0
 14 30  1  0
 15 31  1  0
 15 32  1  0
 15 33  1  0
M  ISO  8  16  13  17  13  18  13  19  13  20  13  21  13  22  13  23  13
M  ISO  8  24  13  25  13  26  14  27  14  28  14  31   8  32   8  33   8
M  END
>  <minimizedAffinity>  (1) 
-4.75662518

>  <minimizedRMSD>  (1) 
1.50747454

$$$$
