
     RDKit          3D

 32 33  0  0  1  0  0  0  0  0999 V2000
   34.6530   30.4130   49.1440 C   0  0  1  0  0  0  0  0  0  0  0  0
   34.2780   30.3490   47.7330 C   0  0  0  0  0  0  0  0  0  0  0  0
   34.3960   29.0130   47.0520 C   0  0  0  0  0  0  0  0  0  0  0  0
   34.0040   27.8540   47.8800 C   0  0  1  0  0  0  0  0  0  0  0  0
   34.4400   27.8830   49.3090 C   0  0  0  0  0  0  0  0  0  0  0  0
   34.1740   29.2210   49.9250 C   0  0  0  0  0  0  0  0  0  0  0  0
   36.9020   31.3940   48.4800 C   0  0  0  0  0  0  0  0  0  0  0  0
   36.0690   30.7560   49.4300 C   0  0  0  0  0  0  0  0  0  0  0  0
   36.6300   30.4650   50.6590 C   0  0  0  0  0  0  0  0  0  0  0  0
   37.9260   30.7990   50.8890 N   0  0  0  0  0  0  0  0  0  0  0  0
   38.6890   31.4050   49.9630 C   0  0  0  0  0  0  0  0  0  0  0  0
   38.1700   31.7060   48.7440 N   0  0  0  0  0  0  0  0  0  0  0  0
   32.4920   27.6700   47.8610 C   0  0  0  0  0  0  0  0  0  0  0  0
   32.0900   26.2200   47.8570 C   0  0  0  0  0  0  0  0  0  0  0  0
   34.1036   31.2921   49.5119 H   0  0  0  0  0  0  0  0  0  0  0  0
   33.2286   30.6694   47.6543 H   0  0  0  0  0  0  0  0  0  0  0  0
   35.0022   30.9962   47.2167 H   0  0  0  0  0  0  0  0  0  0  0  0
   33.7540   29.0272   46.1589 H   0  0  0  0  0  0  0  0  0  0  0  0
   35.4629   28.8789   46.8204 H   0  0  0  0  0  0  0  0  0  0  0  0
   34.5385   27.0156   47.4095 H   0  0  0  0  0  0  0  0  0  0  0  0
   33.8884   27.1134   49.8689 H   0  0  0  0  0  0  0  0  0  0  0  0
   35.5219   27.6882   49.3489 H   0  0  0  0  0  0  0  0  0  0  0  0
   34.6667   29.2428   50.9083 H   0  0  0  0  0  0  0  0  0  0  0  0
   33.0789   29.3152   49.9681 H   0  0  0  0  0  0  0  0  0  0  0  0
   36.4887   31.6404   47.4908 H   0  0  0  0  0  0  0  0  0  0  0  0
   36.0349   29.9696   51.4403 H   0  0  0  0  0  0  0  0  0  0  0  0
   39.7348   31.6575   50.1924 H   0  0  0  0  0  0  0  0  0  0  0  0
   32.0664   28.1520   48.7535 H   0  0  0  0  0  0  0  0  0  0  0  0
   32.1105   28.1261   46.9355 H   0  0  0  0  0  0  0  0  0  0  0  0
   31.9913   25.8640   48.8931 H   0  0  0  0  0  0  0  0  0  0  0  0
   31.1269   26.1079   47.3375 H   0  0  0  0  0  0  0  0  0  0  0  0
   32.8579   25.6280   47.3375 H   0  0  0  0  0  0  0  0  0  0  0  0
  1  8  1  0
  1  6  1  0
  2  1  1  0
  3  2  1  0
  3  4  1  0
  4  5  1  0
  5  6  1  0
  7 12  2  0
  7  8  1  0
  8  9  2  0
  9 10  1  0
 11 10  2  0
 12 11  1  0
 13  4  1  0
 14 13  1  0
  1 15  1  1
  2 16  1  0
  2 17  1  0
  3 18  1  0
  3 19  1  0
  4 20  1  6
  5 21  1  0
  5 22  1  0
  6 23  1  0
  6 24  1  0
  7 25  1  0
  9 26  1  0
 11 27  1  0
 13 28  1  0
 13 29  1  0
 14 30  1  0
 14 31  1  0
 14 32  1  0
M  ISO  8  15  13  16  13  17  13  18  13  19  13  20  13  21  13  22  13
M  ISO  8  23  13  24  13  25  14  26  14  27  14  28   8  29   8  30   8
M  ISO  2  31   8  32   8
M  END
>  <minimizedAffinity>  (1) 
-4.60791206

>  <minimizedRMSD>  (1) 
0.608991921

$$$$
