
     RDKit          3D

 29 30  0  0  1  0  0  0  0  0999 V2000
   34.7510   30.4330   48.5880 C   0  0  1  0  0  0  0  0  0  0  0  0
   33.7130   30.3940   47.5610 C   0  0  0  0  0  0  0  0  0  0  0  0
   33.3890   29.0480   46.9720 C   0  0  0  0  0  0  0  0  0  0  0  0
   33.3970   27.9250   47.9340 C   0  0  2  0  0  0  0  0  0  0  0  0
   34.4510   27.9430   48.9920 C   0  0  0  0  0  0  0  0  0  0  0  0
   34.6190   29.3110   49.5720 C   0  0  0  0  0  0  0  0  0  0  0  0
   36.4950   30.5470   46.7520 C   0  0  0  0  0  0  0  0  0  0  0  0
   36.1400   30.6480   48.1190 C   0  0  0  0  0  0  0  0  0  0  0  0
   37.1370   30.9690   49.0200 C   0  0  0  0  0  0  0  0  0  0  0  0
   38.4080   31.1730   48.5470 N   0  0  0  0  0  0  0  0  0  0  0  0
   38.7180   31.0700   47.2270 C   0  0  0  0  0  0  0  0  0  0  0  0
   37.7460   30.7540   46.3360 N   0  0  0  0  0  0  0  0  0  0  0  0
   33.5700   26.6310   47.1650 C   0  0  0  0  0  0  0  0  0  0  0  0
   34.2170   26.9530   45.9930 F   0  0  0  0  0  0  0  0  0  0  0  0
   34.2830   25.7420   47.9380 F   0  0  0  0  0  0  0  0  0  0  0  0
   32.2930   26.1600   46.9090 F   0  0  0  0  0  0  0  0  0  0  0  0
   34.5450   31.3695   49.1269 H   0  0  0  0  0  0  0  0  0  0  0  0
   32.7897   30.7929   48.0063 H   0  0  0  0  0  0  0  0  0  0  0  0
   34.1149   30.9841   46.7242 H   0  0  0  0  0  0  0  0  0  0  0  0
   32.3866   29.1048   46.5226 H   0  0  0  0  0  0  0  0  0  0  0  0
   34.1839   28.8329   46.2427 H   0  0  0  0  0  0  0  0  0  0  0  0
   32.4378   28.0222   48.4636 H   0  0  0  0  0  0  0  0  0  0  0  0
   34.1647   27.2469   49.7942 H   0  0  0  0  0  0  0  0  0  0  0  0
   35.4051   27.6413   48.5352 H   0  0  0  0  0  0  0  0  0  0  0  0
   35.5252   29.3026   50.1955 H   0  0  0  0  0  0  0  0  0  0  0  0
   33.6907   29.5125   50.1267 H   0  0  0  0  0  0  0  0  0  0  0  0
   35.7201   30.2915   46.0143 H   0  0  0  0  0  0  0  0  0  0  0  0
   36.9160   31.0590   50.0938 H   0  0  0  0  0  0  0  0  0  0  0  0
   39.7492   31.2417   46.8847 H   0  0  0  0  0  0  0  0  0  0  0  0
  1  6  1  0
  2  1  1  0
  3  2  1  0
  3  4  1  0
  4  5  1  0
  5  6  1  0
  7  8  2  0
  8  1  1  0
  8  9  1  0
 10  9  2  0
 11 10  1  0
 12  7  1  0
 12 11  2  0
 13  4  1  0
 13 15  1  0
 14 13  1  0
 16 13  1  0
  1 17  1  1
  2 18  1  0
  2 19  1  0
  3 20  1  0
  3 21  1  0
  4 22  1  1
  5 23  1  0
  5 24  1  0
  6 25  1  0
  6 26  1  0
  7 27  1  0
  9 28  1  0
 11 29  1  0
M  ISO  8  17  13  18  13  19  13  20  13  21  13  22  13  23  13  24  13
M  ISO  5  25  13  26  13  27  14  28  14  29  14
M  END
>  <minimizedAffinity>  (1) 
-4.23014975

>  <minimizedRMSD>  (1) 
1.83315313

$$$$
