
     RDKit          3D

 39 41  0  0  1  0  0  0  0  0999 V2000
   34.5250   30.1410   48.1250 C   0  0  1  0  0  0  0  0  0  0  0  0
   33.5070   30.1860   47.1060 C   0  0  0  0  0  0  0  0  0  0  0  0
   33.2640   28.9020   46.3480 C   0  0  0  0  0  0  0  0  0  0  0  0
   33.2290   27.6780   47.1090 C   0  0  2  0  0  0  0  0  0  0  0  0
   34.2690   27.5940   48.2430 C   0  0  0  0  0  0  0  0  0  0  0  0
   34.3740   28.9030   48.9740 C   0  0  0  0  0  0  0  0  0  0  0  0
   33.5620   26.5350   46.2190 C   0  0  0  0  0  0  0  0  0  0  0  0
   34.3920   26.8300   45.1100 C   0  0  0  0  0  0  0  0  0  0  0  0
   34.7490   25.8690   44.1800 C   0  0  0  0  0  0  0  0  0  0  0  0
   34.2720   24.6350   44.3730 C   0  0  0  0  0  0  0  0  0  0  0  0
   33.4650   24.3320   45.4330 C   0  0  0  0  0  0  0  0  0  0  0  0
   33.0880   25.2740   46.3830 C   0  0  0  0  0  0  0  0  0  0  0  0
   32.2560   24.8020   47.4680 C   0  0  0  0  0  0  0  0  0  0  0  0
   31.1940   24.0090   46.8990 F   0  0  0  0  0  0  0  0  0  0  0  0
   32.8320   23.6920   48.1610 F   0  0  0  0  0  0  0  0  0  0  0  0
   31.5290   25.6240   48.2170 F   0  0  0  0  0  0  0  0  0  0  0  0
   36.3110   30.5180   46.4250 C   0  0  0  0  0  0  0  0  0  0  0  0
   35.9230   30.4050   47.7510 C   0  0  0  0  0  0  0  0  0  0  0  0
   36.9120   30.5530   48.7280 C   0  0  0  0  0  0  0  0  0  0  0  0
   38.1930   30.7980   48.3320 N   0  0  0  0  0  0  0  0  0  0  0  0
   38.5330   30.9020   47.0320 C   0  0  0  0  0  0  0  0  0  0  0  0
   37.5780   30.7590   46.0700 N   0  0  0  0  0  0  0  0  0  0  0  0
   34.3119   31.0443   48.7154 H   0  0  0  0  0  0  0  0  0  0  0  0
   32.5617   30.4747   47.5887 H   0  0  0  0  0  0  0  0  0  0  0  0
   33.8716   30.9049   46.3575 H   0  0  0  0  0  0  0  0  0  0  0  0
   32.2955   28.9997   45.8357 H   0  0  0  0  0  0  0  0  0  0  0  0
   34.1366   28.7968   45.6866 H   0  0  0  0  0  0  0  0  0  0  0  0
   32.2163   27.6500   47.5376 H   0  0  0  0  0  0  0  0  0  0  0  0
   33.9661   26.8092   48.9518 H   0  0  0  0  0  0  0  0  0  0  0  0
   35.2493   27.3579   47.8034 H   0  0  0  0  0  0  0  0  0  0  0  0
   35.2490   28.8451   49.6381 H   0  0  0  0  0  0  0  0  0  0  0  0
   33.4117   29.0231   49.4931 H   0  0  0  0  0  0  0  0  0  0  0  0
   34.7653   27.8569   44.9835 H   0  0  0  0  0  0  0  0  0  0  0  0
   35.3948   26.1092   43.3225 H   0  0  0  0  0  0  0  0  0  0  0  0
   34.5366   23.8416   43.6585 H   0  0  0  0  0  0  0  0  0  0  0  0
   33.0986   23.3002   45.5390 H   0  0  0  0  0  0  0  0  0  0  0  0
   35.5510   30.4056   45.6378 H   0  0  0  0  0  0  0  0  0  0  0  0
   36.6611   30.4732   49.7960 H   0  0  0  0  0  0  0  0  0  0  0  0
   39.5769   31.1015   46.7485 H   0  0  0  0  0  0  0  0  0  0  0  0
  1  6  1  0
  2  1  1  0
  3  2  1  0
  3  4  1  0
  4  5  1  0
  5  6  1  0
  7 12  1  0
  7  4  1  0
  8  7  2  0
  9 10  2  0
  9  8  1  0
 10 11  1  0
 11 12  2  0
 12 13  1  0
 13 15  1  0
 13 16  1  0
 14 13  1  0
 17 18  2  0
 18  1  1  0
 18 19  1  0
 20 19  2  0
 21 20  1  0
 22 17  1  0
 22 21  2  0
  1 23  1  1
  2 24  1  0
  2 25  1  0
  3 26  1  0
  3 27  1  0
  4 28  1  1
  5 29  1  0
  5 30  1  0
  6 31  1  0
  6 32  1  0
  8 33  1  0
  9 34  1  0
 10 35  1  0
 11 36  1  0
 17 37  1  0
 19 38  1  0
 21 39  1  0
M  ISO  8  23  13  24  13  25  13  26  13  27  13  28  13  29  13  30  13
M  ISO  8  31  13  32  13  33  14  34  14  35  14  36  14  37  14  38  14
M  ISO  1  39  14
M  END
>  <minimizedAffinity>  (1) 
-4.4007926

>  <minimizedRMSD>  (1) 
1.13009834

$$$$
