
     RDKit          3D

 19 20  0  0  0  0  0  0  0  0999 V2000
   37.9980   33.2120   49.4280 C   0  0  0  0  0  0  0  0  0  0  0  0
   38.8800   33.1600   48.3450 C   0  0  0  0  0  0  0  0  0  0  0  0
   38.7820   32.0240   47.5150 C   0  0  0  0  0  0  0  0  0  0  0  0
   37.8600   31.0560   47.7990 N   0  0  0  0  0  0  0  0  0  0  0  0
   37.0360   31.1670   48.8630 C   0  0  0  0  0  0  0  0  0  0  0  0
   37.0920   32.2450   49.6930 N   0  0  0  0  0  0  0  0  0  0  0  0
   36.1230   30.0350   48.9970 C   0  0  0  0  0  0  0  0  0  0  0  0
   34.9880   30.0520   48.1920 C   0  0  0  0  0  0  0  0  0  0  0  0
   34.2600   28.8950   48.4740 C   0  0  0  0  0  0  0  0  0  0  0  0
   34.9740   28.2320   49.4260 N   0  0  0  0  0  0  0  0  0  0  0  0
   36.0840   28.9110   49.7390 N   0  0  0  0  0  0  0  0  0  0  0  0
   39.8190   34.1940   48.0980 N   0  0  0  0  0  0  0  0  0  0  0  0
   38.0436   34.0833   50.0979 H   0  0  0  0  0  0  0  0  0  0  0  0
   39.4444   31.9176   46.6433 H   0  0  0  0  0  0  0  0  0  0  0  0
   34.7150   30.8331   47.4672 H   0  0  0  0  0  0  0  0  0  0  0  0
   33.3072   28.5832   48.0213 H   0  0  0  0  0  0  0  0  0  0  0  0
   34.6980   27.3331   49.8464 H   0  0  0  0  0  0  0  0  0  0  0  0
   40.4568   34.1287   47.2919 H   0  0  0  0  0  0  0  0  0  0  0  0
   39.8631   35.0101   48.7248 H   0  0  0  0  0  0  0  0  0  0  0  0
  1  6  2  0
  2  1  1  0
  3  4  1  0
  3  2  2  0
  4  5  2  0
  5  7  1  0
  5  6  1  0
  7 11  2  0
  8  9  2  0
  8  7  1  0
  9 10  1  0
 10 11  1  0
 12  2  1  0
  1 13  1  0
  3 14  1  0
  8 15  1  0
  9 16  1  0
 10 17  1  0
 12 18  1  0
 12 19  1  0
M  ISO  5  13  14  14  14  15  14  16  14  17   9
M  END
>  <minimizedAffinity>  (1) 
-4.46142673

>  <minimizedRMSD>  (1) 
3.61183858

$$$$
