
     RDKit          3D

 19 20  0  0  0  0  0  0  0  0999 V2000
   36.7780   29.1850   50.1170 C   0  0  0  0  0  0  0  0  0  0  0  0
   37.4080   30.3280   49.6240 C   0  0  0  0  0  0  0  0  0  0  0  0
   36.7530   30.9910   48.5750 C   0  0  0  0  0  0  0  0  0  0  0  0
   35.5630   30.5150   48.0920 N   0  0  0  0  0  0  0  0  0  0  0  0
   35.0120   29.4110   48.6120 C   0  0  0  0  0  0  0  0  0  0  0  0
   35.5900   28.7220   49.6240 N   0  0  0  0  0  0  0  0  0  0  0  0
   33.7600   28.8160   48.1810 C   0  0  0  0  0  0  0  0  0  0  0  0
   32.9340   27.9510   48.7980 C   0  0  0  0  0  0  0  0  0  0  0  0
   31.8000   27.5290   48.1880 C   0  0  0  0  0  0  0  0  0  0  0  0
   31.5640   28.0360   46.9280 C   0  0  0  0  0  0  0  0  0  0  0  0
   32.9570   29.1170   46.6070 S   0  0  0  0  0  0  0  0  0  0  0  0
   38.6400   30.7710   50.1660 N   0  0  0  0  0  0  0  0  0  0  0  0
   37.2581   28.6324   50.9381 H   0  0  0  0  0  0  0  0  0  0  0  0
   37.1975   31.8975   48.1384 H   0  0  0  0  0  0  0  0  0  0  0  0
   33.1813   27.5838   49.8050 H   0  0  0  0  0  0  0  0  0  0  0  0
   31.1080   26.8229   48.6702 H   0  0  0  0  0  0  0  0  0  0  0  0
   30.7107   27.8242   46.2669 H   0  0  0  0  0  0  0  0  0  0  0  0
   39.0930   31.6168   49.7914 H   0  0  0  0  0  0  0  0  0  0  0  0
   39.0825   30.2472   50.9346 H   0  0  0  0  0  0  0  0  0  0  0  0
  2  1  2  0
  2 12  1  0
  3  2  1  0
  4  3  2  0
  4  5  1  0
  5  6  2  0
  6  1  1  0
  7  5  1  0
  7  8  2  0
  9  8  1  0
 10  9  2  0
 11 10  1  0
 11  7  1  0
  1 13  1  0
  3 14  1  0
  8 15  1  0
  9 16  1  0
 10 17  1  0
 12 18  1  0
 12 19  1  0
M  ISO  5  13  14  14  14  15  14  16  14  17  14
M  END
>  <minimizedAffinity>  (1) 
-4.09807396

>  <minimizedRMSD>  (1) 
1.86272621

$$$$
