
     RDKit          3D

 20 21  0  0  0  0  0  0  0  0999 V2000
   36.2150   29.2220   49.4630 C   0  0  0  0  0  0  0  0  0  0  0  0
   36.0160   30.2090   48.4860 C   0  0  0  0  0  0  0  0  0  0  0  0
   34.8010   30.2100   47.8000 C   0  0  0  0  0  0  0  0  0  0  0  0
   33.8730   29.2520   48.1130 N   0  0  0  0  0  0  0  0  0  0  0  0
   34.1030   28.3230   49.0560 C   0  0  0  0  0  0  0  0  0  0  0  0
   35.2630   28.3040   49.7260 N   0  0  0  0  0  0  0  0  0  0  0  0
   36.3890   32.2170   50.3350 F   0  0  0  0  0  0  0  0  0  0  0  0
   37.2540   32.1030   49.2760 C   0  0  0  0  0  0  0  0  0  0  0  0
   37.1190   31.1170   48.3160 C   0  0  0  0  0  0  0  0  0  0  0  0
   38.0190   31.0480   47.2660 C   0  0  0  0  0  0  0  0  0  0  0  0
   39.0660   31.9680   47.1710 C   0  0  0  0  0  0  0  0  0  0  0  0
   39.1540   32.9400   48.1640 C   0  0  0  0  0  0  0  0  0  0  0  0
   38.2780   33.0310   49.2130 C   0  0  0  0  0  0  0  0  0  0  0  0
   37.1616   29.1966   50.0227 H   0  0  0  0  0  0  0  0  0  0  0  0
   34.5930   30.9629   47.0255 H   0  0  0  0  0  0  0  0  0  0  0  0
   33.3319   27.5712   49.2800 H   0  0  0  0  0  0  0  0  0  0  0  0
   37.9089   30.2642   46.5021 H   0  0  0  0  0  0  0  0  0  0  0  0
   39.7915   31.9262   46.3452 H   0  0  0  0  0  0  0  0  0  0  0  0
   39.9708   33.6742   48.1028 H   0  0  0  0  0  0  0  0  0  0  0  0
   38.3849   33.8141   49.9781 H   0  0  0  0  0  0  0  0  0  0  0  0
  1  6  2  0
  2  1  1  0
  3  4  1  0
  3  2  2  0
  4  5  2  0
  5  6  1  0
  8  7  1  0
  9  2  1  0
  9  8  2  0
 10  9  1  0
 11 10  2  0
 11 12  1  0
 12 13  2  0
 13  8  1  0
  1 14  1  0
  3 15  1  0
  5 16  1  0
 10 17  1  0
 11 18  1  0
 12 19  1  0
 13 20  1  0
M  ISO  7  14  14  15  14  16  14  17  14  18  14  19  14  20  14
M  END
>  <minimizedAffinity>  (1) 
-5.28777599

>  <minimizedRMSD>  (1) 
3.23940754

$$$$
