
     RDKit          3D

 33 35  0  0  0  0  0  0  0  0999 V2000
   38.7310   32.2020   46.3490 C   0  0  0  0  0  0  0  0  0  0  0  0
   39.8340   32.9350   46.0140 C   0  0  0  0  0  0  0  0  0  0  0  0
   40.1640   33.4310   44.7760 C   0  0  0  0  0  0  0  0  0  0  0  0
   39.2670   33.1400   43.7970 N   0  0  0  0  0  0  0  0  0  0  0  0
   38.1550   32.4170   44.0640 C   0  0  0  0  0  0  0  0  0  0  0  0
   37.9020   31.9650   45.3130 N   0  0  0  0  0  0  0  0  0  0  0  0
   37.6670   30.0450   49.0710 C   0  0  0  0  0  0  0  0  0  0  0  0
   37.9650   30.7610   50.2330 C   0  0  0  0  0  0  0  0  0  0  0  0
   38.5510   32.0250   50.0420 C   0  0  0  0  0  0  0  0  0  0  0  0
   38.7900   32.4720   48.7880 N   0  0  0  0  0  0  0  0  0  0  0  0
   38.4730   31.7210   47.7060 C   0  0  0  0  0  0  0  0  0  0  0  0
   37.9030   30.4850   47.8020 N   0  0  0  0  0  0  0  0  0  0  0  0
   37.6670   30.1860   51.4860 N   0  0  0  0  0  0  0  0  0  0  0  0
   37.3290   30.9750   42.2310 C   0  0  0  0  0  0  0  0  0  0  0  0
   37.1880   32.1010   43.0150 C   0  0  0  0  0  0  0  0  0  0  0  0
   36.0910   32.9280   42.7740 C   0  0  0  0  0  0  0  0  0  0  0  0
   35.1410   32.6930   41.8030 C   0  0  0  0  0  0  0  0  0  0  0  0
   35.2710   31.5700   41.0130 C   0  0  0  0  0  0  0  0  0  0  0  0
   36.3530   30.7560   41.2530 C   0  0  0  0  0  0  0  0  0  0  0  0
   38.6430   29.8730   42.4310 S   0  0  0  0  0  0  0  0  0  0  0  0
   38.7590   29.0200   41.1810 O   0  0  0  0  0  0  0  0  0  0  0  0
   38.3720   28.9170   43.5530 O   0  0  0  0  0  0  0  0  0  0  0  0
   40.5393   33.1533   46.8295 H   0  0  0  0  0  0  0  0  0  0  0  0
   41.0779   34.0149   44.5923 H   0  0  0  0  0  0  0  0  0  0  0  0
   37.2078   29.0524   49.1884 H   0  0  0  0  0  0  0  0  0  0  0  0
   38.8141   32.6481   50.9095 H   0  0  0  0  0  0  0  0  0  0  0  0
   37.8802   30.7004   52.3525 H   0  0  0  0  0  0  0  0  0  0  0  0
   37.2361   29.2517   51.5345 H   0  0  0  0  0  0  0  0  0  0  0  0
   35.9764   33.8258   43.3991 H   0  0  0  0  0  0  0  0  0  0  0  0
   34.2982   33.3856   41.6615 H   0  0  0  0  0  0  0  0  0  0  0  0
   34.5405   31.3355   40.2247 H   0  0  0  0  0  0  0  0  0  0  0  0
   36.4598   29.8595   40.6247 H   0  0  0  0  0  0  0  0  0  0  0  0
   39.7731   30.6063   42.6801 H   0  0  0  0  0  0  0  0  0  0  0  0
  1 11  1  0
  2  1  2  0
  3  2  1  0
  4  5  1  0
  4  3  2  0
  5  6  2  0
  6  1  1  0
  7  8  2  0
  8 13  1  0
  9  8  1  0
 10  9  2  0
 11 12  2  0
 11 10  1  0
 12  7  1  0
 14 20  1  0
 14 15  2  0
 15  5  1  0
 16 15  1  0
 17 16  2  0
 18 19  2  0
 18 17  1  0
 19 14  1  0
 20 22  2  0
 21 20  2  0
  2 23  1  0
  3 24  1  0
  7 25  1  0
  9 26  1  0
 13 27  1  0
 13 28  1  0
 16 29  1  0
 17 30  1  0
 18 31  1  0
 19 32  1  0
 20 33  1  0
M  ISO  8  23  14  24  14  25  14  26  14  29  14  30  14  31  14  32  14
M  ISO  1  33  11
M  END
>  <minimizedAffinity>  (1) 
-5.42698908

>  <minimizedRMSD>  (1) 
2.6400342

$$$$
