
     RDKit          3D

 34 36  0  0  1  0  0  0  0  0999 V2000
   38.6480   32.2010   46.3480 C   0  0  0  0  0  0  0  0  0  0  0  0
   39.8270   32.8340   45.9980 C   0  0  0  0  0  0  0  0  0  0  0  0
   40.1630   33.3300   44.7600 C   0  0  0  0  0  0  0  0  0  0  0  0
   39.2100   33.1580   43.8020 N   0  0  0  0  0  0  0  0  0  0  0  0
   38.0350   32.5390   44.1020 C   0  0  0  0  0  0  0  0  0  0  0  0
   37.7720   32.0780   45.3420 N   0  0  0  0  0  0  0  0  0  0  0  0
   37.6460   30.0040   49.0490 C   0  0  0  0  0  0  0  0  0  0  0  0
   37.9740   30.7070   50.2210 C   0  0  0  0  0  0  0  0  0  0  0  0
   38.5590   31.9840   50.0470 C   0  0  0  0  0  0  0  0  0  0  0  0
   38.7690   32.4510   48.7950 N   0  0  0  0  0  0  0  0  0  0  0  0
   38.4320   31.7260   47.7030 C   0  0  0  0  0  0  0  0  0  0  0  0
   37.8660   30.4920   47.8040 N   0  0  0  0  0  0  0  0  0  0  0  0
   37.7320   30.1680   51.5080 N   0  0  0  0  0  0  0  0  0  0  0  0
   37.0710   32.4110   42.9720 C   0  0  1  0  0  0  0  0  0  0  0  0
   37.5280   33.1540   41.7660 C   0  0  0  0  0  0  0  0  0  0  0  0
   37.1150   32.6390   40.4400 C   0  0  0  0  0  0  0  0  0  0  0  0
   36.4780   31.2950   40.4080 C   0  0  0  0  0  0  0  0  0  0  0  0
   37.2300   30.4360   41.4300 C   0  0  0  0  0  0  0  0  0  0  0  0
   36.7460   30.9670   42.7550 C   0  0  0  0  0  0  0  0  0  0  0  0
   40.5758   32.9534   46.7949 H   0  0  0  0  0  0  0  0  0  0  0  0
   41.1242   33.8258   44.5595 H   0  0  0  0  0  0  0  0  0  0  0  0
   37.1882   29.0086   49.1471 H   0  0  0  0  0  0  0  0  0  0  0  0
   38.8399   32.5903   50.9207 H   0  0  0  0  0  0  0  0  0  0  0  0
   37.9837   30.7080   52.3482 H   0  0  0  0  0  0  0  0  0  0  0  0
   37.3043   29.2359   51.6039 H   0  0  0  0  0  0  0  0  0  0  0  0
   36.1202   32.9019   43.2268 H   0  0  0  0  0  0  0  0  0  0  0  0
   38.1517   34.0556   41.8564 H   0  0  0  0  0  0  0  0  0  0  0  0
   37.2721   33.2233   39.5214 H   0  0  0  0  0  0  0  0  0  0  0  0
   35.4156   31.3708   40.6829 H   0  0  0  0  0  0  0  0  0  0  0  0
   36.5282   30.8535   39.4017 H   0  0  0  0  0  0  0  0  0  0  0  0
   36.9740   29.3724   41.3148 H   0  0  0  0  0  0  0  0  0  0  0  0
   38.3228   30.4925   41.3177 H   0  0  0  0  0  0  0  0  0  0  0  0
   35.6538   30.8448   42.8014 H   0  0  0  0  0  0  0  0  0  0  0  0
   37.2625   30.3967   43.5411 H   0  0  0  0  0  0  0  0  0  0  0  0
  1 11  1  0
  2  1  2  0
  3  2  1  0
  4  5  1  0
  4  3  2  0
  5  6  2  0
  6  1  1  0
  7  8  2  0
  8 13  1  0
  9  8  1  0
 10  9  2  0
 11 12  2  0
 11 10  1  0
 12  7  1  0
 14  5  1  0
 15 14  1  0
 16 15  2  0
 17 16  1  0
 17 18  1  0
 18 19  1  0
 19 14  1  0
  2 20  1  0
  3 21  1  0
  7 22  1  0
  9 23  1  0
 13 24  1  0
 13 25  1  0
 14 26  1  1
 15 27  1  0
 16 28  1  0
 17 29  1  0
 17 30  1  0
 18 31  1  0
 18 32  1  0
 19 33  1  0
 19 34  1  0
M  ISO  8  20  14  21  14  22  14  23  14  26  13  27  13  28  13  29  13
M  ISO  5  30  13  31  13  32  13  33  13  34  13
M  END
>  <minimizedAffinity>  (1) 
-5.33651161

>  <minimizedRMSD>  (1) 
2.29329896

$$$$
