
     RDKit          3D

 36 39  0  0  0  0  0  0  0  0999 V2000
   38.5270   31.2550   45.9250 C   0  0  0  0  0  0  0  0  0  0  0  0
   39.8420   31.1980   46.2610 C   0  0  0  0  0  0  0  0  0  0  0  0
   40.9110   31.4130   45.4350 C   0  0  0  0  0  0  0  0  0  0  0  0
   40.6060   31.7120   44.1600 N   0  0  0  0  0  0  0  0  0  0  0  0
   39.3180   31.7860   43.7530 C   0  0  0  0  0  0  0  0  0  0  0  0
   38.3400   31.5570   44.6400 N   0  0  0  0  0  0  0  0  0  0  0  0
   38.7670   32.0810   42.4270 C   0  0  0  0  0  0  0  0  0  0  0  0
   38.4690   33.3730   41.9790 C   0  0  0  0  0  0  0  0  0  0  0  0
   37.9520   33.6590   40.7450 C   0  0  0  0  0  0  0  0  0  0  0  0
   37.6910   32.6520   39.8540 C   0  0  0  0  0  0  0  0  0  0  0  0
   37.9610   31.3580   40.2350 C   0  0  0  0  0  0  0  0  0  0  0  0
   37.6780   30.3850   39.3060 C   0  0  0  0  0  0  0  0  0  0  0  0
   37.9160   29.0620   39.6100 C   0  0  0  0  0  0  0  0  0  0  0  0
   38.4390   28.7880   40.8640 C   0  0  0  0  0  0  0  0  0  0  0  0
   38.6980   29.8110   41.7420 C   0  0  0  0  0  0  0  0  0  0  0  0
   38.4770   31.1370   41.4780 C   0  0  0  0  0  0  0  0  0  0  0  0
   35.3210   30.2180   47.2770 C   0  0  0  0  0  0  0  0  0  0  0  0
   35.3580   30.5560   48.6180 C   0  0  0  0  0  0  0  0  0  0  0  0
   36.5500   31.1590   49.0350 C   0  0  0  0  0  0  0  0  0  0  0  0
   37.5720   31.3860   48.1820 N   0  0  0  0  0  0  0  0  0  0  0  0
   37.4490   31.0220   46.8790 C   0  0  0  0  0  0  0  0  0  0  0  0
   36.3210   30.4240   46.3730 N   0  0  0  0  0  0  0  0  0  0  0  0
   34.2680   30.3010   49.4780 N   0  0  0  0  0  0  0  0  0  0  0  0
   40.0716   30.9529   47.3085 H   0  0  0  0  0  0  0  0  0  0  0  0
   41.9500   31.3458   45.7899 H   0  0  0  0  0  0  0  0  0  0  0  0
   38.6629   34.2124   42.6629 H   0  0  0  0  0  0  0  0  0  0  0  0
   37.7449   34.7029   40.4670 H   0  0  0  0  0  0  0  0  0  0  0  0
   37.2762   32.8723   38.8593 H   0  0  0  0  0  0  0  0  0  0  0  0
   37.2637   30.6610   38.3251 H   0  0  0  0  0  0  0  0  0  0  0  0
   37.7005   28.2592   38.8895 H   0  0  0  0  0  0  0  0  0  0  0  0
   38.6471   27.7482   41.1564 H   0  0  0  0  0  0  0  0  0  0  0  0
   39.1120   29.5476   42.7265 H   0  0  0  0  0  0  0  0  0  0  0  0
   34.4021   29.7400   46.9066 H   0  0  0  0  0  0  0  0  0  0  0  0
   36.6576   31.4568   50.0884 H   0  0  0  0  0  0  0  0  0  0  0  0
   34.3241   30.5638   50.4723 H   0  0  0  0  0  0  0  0  0  0  0  0
   33.4166   29.8522   49.1112 H   0  0  0  0  0  0  0  0  0  0  0  0
  1  2  2  0
  1 21  1  0
  3  2  1  0
  4  3  2  0
  5  4  1  0
  5  6  2  0
  6  1  1  0
  7  5  1  0
  8  7  2  0
  9  8  1  0
 10 11  1  0
 10  9  2  0
 11 16  2  0
 12 13  2  0
 12 11  1  0
 13 14  1  0
 14 15  2  0
 16 15  1  0
 16  7  1  0
 17 18  2  0
 18 19  1  0
 18 23  1  0
 20 19  2  0
 21 20  1  0
 22 21  2  0
 22 17  1  0
  2 24  1  0
  3 25  1  0
  8 26  1  0
  9 27  1  0
 10 28  1  0
 12 29  1  0
 13 30  1  0
 14 31  1  0
 15 32  1  0
 17 33  1  0
 19 34  1  0
 23 35  1  0
 23 36  1  0
M  ISO  8  24  14  25  14  26  14  27  14  28  14  29  14  30  14  31  14
M  ISO  3  32  14  33  14  34  14
M  END
>  <minimizedAffinity>  (1) 
-4.99468088

>  <minimizedRMSD>  (1) 
3.08638287

$$$$
