
     RDKit          3D

 26 27  0  0  0  0  0  0  0  0999 V2000
   37.0240   29.7930   49.1080 C   0  0  0  0  0  0  0  0  0  0  0  0
   37.4870   30.2610   50.3390 C   0  0  0  0  0  0  0  0  0  0  0  0
   38.3350   31.3780   50.2820 C   0  0  0  0  0  0  0  0  0  0  0  0
   38.6370   31.9080   49.0800 N   0  0  0  0  0  0  0  0  0  0  0  0
   38.1650   31.4200   47.9290 C   0  0  0  0  0  0  0  0  0  0  0  0
   37.3370   30.3400   47.9020 N   0  0  0  0  0  0  0  0  0  0  0  0
   38.4930   31.9970   46.6350 C   0  0  0  0  0  0  0  0  0  0  0  0
   39.6940   32.6460   46.4160 C   0  0  0  0  0  0  0  0  0  0  0  0
   40.1150   33.2280   45.2410 C   0  0  0  0  0  0  0  0  0  0  0  0
   39.2310   33.1350   44.2080 N   0  0  0  0  0  0  0  0  0  0  0  0
   38.0430   32.5070   44.3840 C   0  0  0  0  0  0  0  0  0  0  0  0
   37.6880   31.9560   45.5620 N   0  0  0  0  0  0  0  0  0  0  0  0
   37.1390   32.4540   43.1980 C   0  0  0  0  0  0  0  0  0  0  0  0
   37.2280   31.1180   42.4900 C   0  0  0  0  0  0  0  0  0  0  0  0
   37.1020   29.6220   51.5430 N   0  0  0  0  0  0  0  0  0  0  0  0
   36.3574   28.9180   49.1133 H   0  0  0  0  0  0  0  0  0  0  0  0
   38.7468   31.8142   51.2041 H   0  0  0  0  0  0  0  0  0  0  0  0
   40.3855   32.7035   47.2695 H   0  0  0  0  0  0  0  0  0  0  0  0
   41.0894   33.7291   45.1438 H   0  0  0  0  0  0  0  0  0  0  0  0
   36.1029   32.6134   43.5312 H   0  0  0  0  0  0  0  0  0  0  0  0
   37.4493   33.2391   42.4928 H   0  0  0  0  0  0  0  0  0  0  0  0
   37.2818   30.3109   43.2354 H   0  0  0  0  0  0  0  0  0  0  0  0
   36.3373   30.9767   41.8602 H   0  0  0  0  0  0  0  0  0  0  0  0
   38.1296   31.0961   41.8602 H   0  0  0  0  0  0  0  0  0  0  0  0
   37.4486   29.9743   52.4467 H   0  0  0  0  0  0  0  0  0  0  0  0
   36.4754   28.8050   51.5149 H   0  0  0  0  0  0  0  0  0  0  0  0
  1  2  2  0
  2 15  1  0
  3  2  1  0
  4  3  2  0
  5  4  1  0
  6  5  2  0
  6  1  1  0
  7  5  1  0
  8  7  2  0
  9  8  1  0
 10 11  1  0
 10  9  2  0
 11 12  2  0
 12  7  1  0
 13 11  1  0
 14 13  1  0
  1 16  1  0
  3 17  1  0
  8 18  1  0
  9 19  1  0
 13 20  1  0
 13 21  1  0
 14 22  1  0
 14 23  1  0
 14 24  1  0
 15 25  1  0
 15 26  1  0
M  ISO  8  16  14  17  14  18  14  19  14  20   8  21   8  22   8  23   8
M  ISO  1  24   8
M  END
>  <minimizedAffinity>  (1) 
-4.79171181

>  <minimizedRMSD>  (1) 
1.44413519

$$$$
