
     RDKit          3D

 29 31  0  0  0  0  0  0  0  0999 V2000
   37.5630   31.1620   48.2520 C   0  0  0  0  0  0  0  0  0  0  0  0
   38.0670   31.1490   49.5330 C   0  0  0  0  0  0  0  0  0  0  0  0
   37.4810   30.5560   50.6150 C   0  0  0  0  0  0  0  0  0  0  0  0
   36.3010   29.9280   50.3880 N   0  0  0  0  0  0  0  0  0  0  0  0
   35.7700   29.9200   49.1260 C   0  0  0  0  0  0  0  0  0  0  0  0
   36.3870   30.5210   48.0910 N   0  0  0  0  0  0  0  0  0  0  0  0
   38.3460   32.3290   44.9080 C   0  0  0  0  0  0  0  0  0  0  0  0
   39.4980   33.1020   45.0520 C   0  0  0  0  0  0  0  0  0  0  0  0
   40.0040   33.2030   46.3440 C   0  0  0  0  0  0  0  0  0  0  0  0
   39.3710   32.5680   47.3530 N   0  0  0  0  0  0  0  0  0  0  0  0
   38.2630   31.8370   47.1510 C   0  0  0  0  0  0  0  0  0  0  0  0
   37.6920   31.6780   45.9240 N   0  0  0  0  0  0  0  0  0  0  0  0
   40.0350   33.7090   43.8960 N   0  0  0  0  0  0  0  0  0  0  0  0
   34.5080   29.2790   48.7660 C   0  0  0  0  0  0  0  0  0  0  0  0
   33.9250   29.6860   47.5770 C   0  0  0  0  0  0  0  0  0  0  0  0
   32.7640   29.0000   47.3880 N   0  0  0  0  0  0  0  0  0  0  0  0
   32.6430   28.1700   48.4700 C   0  0  0  0  0  0  0  0  0  0  0  0
   33.7130   28.3450   49.3110 N   0  0  0  0  0  0  0  0  0  0  0  0
   31.5330   27.2480   48.6750 C   0  0  0  0  0  0  0  0  0  0  0  0
   30.5860   27.6110   49.3980 O   0  0  0  0  0  0  0  0  0  0  0  0
   39.0260   31.6612   49.6999 H   0  0  0  0  0  0  0  0  0  0  0  0
   37.9404   30.5862   51.6140 H   0  0  0  0  0  0  0  0  0  0  0  0
   37.9266   32.2331   43.8956 H   0  0  0  0  0  0  0  0  0  0  0  0
   40.9104   33.7942   46.5412 H   0  0  0  0  0  0  0  0  0  0  0  0
   40.8849   34.2867   43.9652 H   0  0  0  0  0  0  0  0  0  0  0  0
   39.5769   33.5741   42.9834 H   0  0  0  0  0  0  0  0  0  0  0  0
   34.3353   30.4438   46.8934 H   0  0  0  0  0  0  0  0  0  0  0  0
   32.1121   29.0874   46.5954 H   0  0  0  0  0  0  0  0  0  0  0  0
   31.5316   26.2548   48.2022 H   0  0  0  0  0  0  0  0  0  0  0  0
  1  2  2  0
  2  3  1  0
  4  3  2  0
  5  4  1  0
  6  1  1  0
  6  5  2  0
  7  8  2  0
  7 12  1  0
  8  9  1  0
  9 10  2  0
 11 10  1  0
 11  1  1  0
 12 11  2  0
 13  8  1  0
 14  5  1  0
 14 18  1  0
 15 14  2  0
 16 15  1  0
 16 17  1  0
 17 19  1  0
 17 18  2  0
 19 20  2  0
  2 21  1  0
  3 22  1  0
  7 23  1  0
  9 24  1  0
 13 25  1  0
 13 26  1  0
 15 27  1  0
 16 28  1  0
 19 29  1  0
M  ISO  7  21  14  22  14  23  14  24  14  27  14  28   9  29   6
M  END
>  <minimizedAffinity>  (1) 
-5.61030674

>  <minimizedRMSD>  (1) 
2.33228469

$$$$
