
     RDKit          3D

 41 43  0  0  1  0  0  0  0  0999 V2000
   35.2260   30.2650   49.6420 C   0  0  2  0  0  0  0  0  0  0  0  0
   36.2300   30.9810   48.8070 C   0  0  0  0  0  0  0  0  0  0  0  0
   37.6140   30.3850   48.9090 C   0  0  2  0  0  0  0  0  0  0  0  0
   38.0610   30.4430   50.3390 C   0  0  0  0  0  0  0  0  0  0  0  0
   37.1210   29.6880   51.2160 C   0  0  0  0  0  0  0  0  0  0  0  0
   35.8370   29.2790   50.5960 C   0  0  0  0  0  0  0  0  0  0  0  0
   38.5490   31.0990   48.1130 N   0  0  0  0  0  0  0  0  0  0  0  0
   38.5730   30.5300   46.7570 C   0  0  0  0  0  0  0  0  0  0  0  0
   39.6900   31.3440   46.1310 C   0  0  0  0  0  0  0  0  0  0  0  0
   39.4030   32.6900   46.7150 C   0  0  0  0  0  0  0  0  0  0  0  0
   38.5420   32.4450   47.9890 C   0  0  2  0  0  0  0  0  0  0  0  0
   39.0350   33.4830   48.9060 C   0  0  0  0  0  0  0  0  0  0  0  0
   39.7940   34.4930   48.3450 F   0  0  0  0  0  0  0  0  0  0  0  0
   37.8840   34.3160   49.2560 F   0  0  0  0  0  0  0  0  0  0  0  0
   39.3580   33.1330   50.1860 F   0  0  0  0  0  0  0  0  0  0  0  0
   34.2400   29.5180   48.8250 C   0  0  0  0  0  0  0  0  0  0  0  0
   34.0970   29.9760   47.5130 C   0  0  0  0  0  0  0  0  0  0  0  0
   33.1830   29.2890   46.6950 C   0  0  0  0  0  0  0  0  0  0  0  0
   32.4860   28.2190   47.2170 N   0  0  0  0  0  0  0  0  0  0  0  0
   32.6650   27.8160   48.5030 C   0  0  0  0  0  0  0  0  0  0  0  0
   33.5250   28.4630   49.2700 N   0  0  0  0  0  0  0  0  0  0  0  0
   34.7333   31.0702   50.2067 H   0  0  0  0  0  0  0  0  0  0  0  0
   36.2749   32.0300   49.1350 H   0  0  0  0  0  0  0  0  0  0  0  0
   35.9097   30.8924   47.7584 H   0  0  0  0  0  0  0  0  0  0  0  0
   37.5696   29.3470   48.5477 H   0  0  0  0  0  0  0  0  0  0  0  0
   39.0652   30.0017   50.4216 H   0  0  0  0  0  0  0  0  0  0  0  0
   38.0785   31.4945   50.6617 H   0  0  0  0  0  0  0  0  0  0  0  0
   37.6359   28.7770   51.5551 H   0  0  0  0  0  0  0  0  0  0  0  0
   36.8507   30.3814   52.0260 H   0  0  0  0  0  0  0  0  0  0  0  0
   35.1137   29.1004   51.4053 H   0  0  0  0  0  0  0  0  0  0  0  0
   36.0673   28.3868   49.9952 H   0  0  0  0  0  0  0  0  0  0  0  0
   38.8129   29.4566   46.7719 H   0  0  0  0  0  0  0  0  0  0  0  0
   37.6134   30.5837   46.2219 H   0  0  0  0  0  0  0  0  0  0  0  0
   39.6199   31.3538   45.0333 H   0  0  0  0  0  0  0  0  0  0  0  0
   40.7027   30.9634   46.3298 H   0  0  0  0  0  0  0  0  0  0  0  0
   40.3422   33.1962   46.9827 H   0  0  0  0  0  0  0  0  0  0  0  0
   38.8740   33.3314   45.9948 H   0  0  0  0  0  0  0  0  0  0  0  0
   37.4608   32.6052   48.1133 H   0  0  0  0  0  0  0  0  0  0  0  0
   34.6730   30.8345   47.1373 H   0  0  0  0  0  0  0  0  0  0  0  0
   33.0256   29.6007   45.6519 H   0  0  0  0  0  0  0  0  0  0  0  0
   32.0999   26.9603   48.9010 H   0  0  0  0  0  0  0  0  0  0  0  0
  1  6  1  0
  2  3  1  0
  2  1  1  0
  3  4  1  0
  4  5  1  0
  6  5  1  0
  7  8  1  0
  7  3  1  0
  9 10  1  0
  9  8  1  0
 10 11  1  0
 11  7  1  0
 11 12  1  0
 12 14  1  0
 12 15  1  0
 13 12  1  0
 16 21  1  0
 16  1  1  0
 17 16  2  0
 18 19  2  0
 18 17  1  0
 19 20  1  0
 20 21  2  0
  1 22  1  1
  2 23  1  0
  2 24  1  0
  3 25  1  6
  4 26  1  0
  4 27  1  0
  5 28  1  0
  5 29  1  0
  6 30  1  0
  6 31  1  0
  8 32  1  0
  8 33  1  0
  9 34  1  0
  9 35  1  0
 10 36  1  0
 10 37  1  0
 11 38  1  6
 17 39  1  0
 18 40  1  0
 20 41  1  0
M  ISO  8  22  13  23  13  24  13  25  13  26  13  27  13  28  13  29  13
M  ISO  8  30  13  31  13  32  13  33  13  34  13  35  13  36  13  37  13
M  ISO  4  38  13  39  14  40  14  41  14
M  END
>  <minimizedAffinity>  (1) 
-7.16402054

>  <minimizedRMSD>  (1) 
0.294395238

$$$$
