
     RDKit          3D

 40 42  0  0  1  0  0  0  0  0999 V2000
   35.2140   30.3070   49.6520 C   0  0  2  0  0  0  0  0  0  0  0  0
   36.2140   31.0220   48.8140 C   0  0  0  0  0  0  0  0  0  0  0  0
   37.6090   30.4280   48.9330 C   0  0  2  0  0  0  0  0  0  0  0  0
   38.0970   30.4140   50.3420 C   0  0  0  0  0  0  0  0  0  0  0  0
   37.0440   29.9900   51.3350 C   0  0  0  0  0  0  0  0  0  0  0  0
   35.8410   29.3790   50.6650 C   0  0  0  0  0  0  0  0  0  0  0  0
   38.5460   31.1060   48.1010 N   0  0  0  0  0  0  0  0  0  0  0  0
   38.5870   30.6130   46.7430 C   0  0  0  0  0  0  0  0  0  0  0  0
   39.7130   31.4910   46.1830 C   0  0  0  0  0  0  0  0  0  0  0  0
   39.3600   32.8260   46.7910 C   0  0  0  0  0  0  0  0  0  0  0  0
   38.4530   32.5000   47.9870 C   0  0  2  0  0  0  0  0  0  0  0  0
   38.9310   33.2990   49.0660 N   0  0  0  0  0  0  0  0  0  0  0  0
   34.2620   29.5010   48.8540 C   0  0  0  0  0  0  0  0  0  0  0  0
   34.1450   29.8970   47.5190 C   0  0  0  0  0  0  0  0  0  0  0  0
   33.2680   29.1610   46.7090 C   0  0  0  0  0  0  0  0  0  0  0  0
   32.5720   28.0980   47.2640 N   0  0  0  0  0  0  0  0  0  0  0  0
   32.7230   27.7570   48.5740 C   0  0  0  0  0  0  0  0  0  0  0  0
   33.5530   28.4590   49.3240 N   0  0  0  0  0  0  0  0  0  0  0  0
   34.6817   31.1193   50.1686 H   0  0  0  0  0  0  0  0  0  0  0  0
   36.2511   32.0746   49.1311 H   0  0  0  0  0  0  0  0  0  0  0  0
   35.8992   30.9251   47.7645 H   0  0  0  0  0  0  0  0  0  0  0  0
   37.5267   29.3863   48.5894 H   0  0  0  0  0  0  0  0  0  0  0  0
   38.9435   29.7149   50.4112 H   0  0  0  0  0  0  0  0  0  0  0  0
   38.3876   31.4441   50.5959 H   0  0  0  0  0  0  0  0  0  0  0  0
   37.4817   29.2493   52.0205 H   0  0  0  0  0  0  0  0  0  0  0  0
   36.7092   30.8878   51.8752 H   0  0  0  0  0  0  0  0  0  0  0  0
   35.0925   29.1378   51.4342 H   0  0  0  0  0  0  0  0  0  0  0  0
   36.1756   28.4768   50.1319 H   0  0  0  0  0  0  0  0  0  0  0  0
   38.8430   29.5439   46.7030 H   0  0  0  0  0  0  0  0  0  0  0  0
   37.6341   30.6722   46.1966 H   0  0  0  0  0  0  0  0  0  0  0  0
   40.7017   31.1430   46.5167 H   0  0  0  0  0  0  0  0  0  0  0  0
   39.7840   31.4951   45.0853 H   0  0  0  0  0  0  0  0  0  0  0  0
   40.2678   33.3484   47.1271 H   0  0  0  0  0  0  0  0  0  0  0  0
   38.8617   33.4873   46.0669 H   0  0  0  0  0  0  0  0  0  0  0  0
   37.3813   32.7394   47.9224 H   0  0  0  0  0  0  0  0  0  0  0  0
   38.6687   32.8606   49.9604 H   0  0  0  0  0  0  0  0  0  0  0  0
   39.9566   33.3752   49.0087 H   0  0  0  0  0  0  0  0  0  0  0  0
   34.7158   30.7488   47.1208 H   0  0  0  0  0  0  0  0  0  0  0  0
   33.1343   29.4232   45.6491 H   0  0  0  0  0  0  0  0  0  0  0  0
   32.1632   26.9113   49.0000 H   0  0  0  0  0  0  0  0  0  0  0  0
  1  6  1  0
  2  3  1  0
  2  1  1  0
  3  4  1  0
  4  5  1  0
  6  5  1  0
  7  8  1  0
  7  3  1  0
  9  8  1  0
  9 10  1  0
 10 11  1  0
 11  7  1  0
 11 12  1  0
 13 18  1  0
 13  1  1  0
 14 13  2  0
 15 16  2  0
 15 14  1  0
 16 17  1  0
 17 18  2  0
  1 19  1  1
  2 20  1  0
  2 21  1  0
  3 22  1  6
  4 23  1  0
  4 24  1  0
  5 25  1  0
  5 26  1  0
  6 27  1  0
  6 28  1  0
  8 29  1  0
  8 30  1  0
  9 31  1  0
  9 32  1  0
 10 33  1  0
 10 34  1  0
 11 35  1  6
 12 36  1  0
 12 37  1  0
 14 38  1  0
 15 39  1  0
 17 40  1  0
M  ISO  8  19  13  20  13  21  13  22  13  23  13  24  13  25  13  26  13
M  ISO  8  27  13  28  13  29  13  30  13  31  13  32  13  33  13  34  13
M  ISO  6  35  13  36   5  37   5  38  14  39  14  40  14
M  END
>  <minimizedAffinity>  (1) 
-6.33830833

>  <minimizedRMSD>  (1) 
0.160873637

$$$$
