
     RDKit          3D

 39 41  0  0  1  0  0  0  0  0999 V2000
   35.2090   30.3090   49.6570 C   0  0  2  0  0  0  0  0  0  0  0  0
   36.2120   31.0180   48.8150 C   0  0  0  0  0  0  0  0  0  0  0  0
   37.6030   30.4220   48.9340 C   0  0  2  0  0  0  0  0  0  0  0  0
   38.0910   30.4110   50.3470 C   0  0  0  0  0  0  0  0  0  0  0  0
   37.0420   29.9740   51.3350 C   0  0  0  0  0  0  0  0  0  0  0  0
   35.8340   29.3750   50.6620 C   0  0  0  0  0  0  0  0  0  0  0  0
   38.5330   31.1000   48.0930 N   0  0  0  0  0  0  0  0  0  0  0  0
   38.6180   30.5880   46.7520 C   0  0  0  0  0  0  0  0  0  0  0  0
   39.7250   31.4940   46.1960 C   0  0  0  0  0  0  0  0  0  0  0  0
   39.2760   32.8320   46.7380 C   0  0  0  0  0  0  0  0  0  0  0  0
   38.4390   32.4930   47.9800 C   0  0  2  0  0  0  0  0  0  0  0  0
   39.0360   33.2130   49.0390 O   0  0  0  0  0  0  0  0  0  0  0  0
   34.2520   29.5110   48.8550 C   0  0  0  0  0  0  0  0  0  0  0  0
   34.1300   29.9260   47.5270 C   0  0  0  0  0  0  0  0  0  0  0  0
   33.2410   29.1950   46.7180 C   0  0  0  0  0  0  0  0  0  0  0  0
   32.5480   28.1280   47.2650 N   0  0  0  0  0  0  0  0  0  0  0  0
   32.7060   27.7700   48.5670 C   0  0  0  0  0  0  0  0  0  0  0  0
   33.5430   28.4600   49.3210 N   0  0  0  0  0  0  0  0  0  0  0  0
   34.6826   31.1206   50.1807 H   0  0  0  0  0  0  0  0  0  0  0  0
   36.2526   32.0717   49.1283 H   0  0  0  0  0  0  0  0  0  0  0  0
   35.8960   30.9173   47.7662 H   0  0  0  0  0  0  0  0  0  0  0  0
   37.5271   29.3773   48.5981 H   0  0  0  0  0  0  0  0  0  0  0  0
   38.9450   29.7212   50.4163 H   0  0  0  0  0  0  0  0  0  0  0  0
   38.3709   31.4434   50.6035 H   0  0  0  0  0  0  0  0  0  0  0  0
   37.4811   29.2222   52.0073 H   0  0  0  0  0  0  0  0  0  0  0  0
   36.7106   30.8648   51.8887 H   0  0  0  0  0  0  0  0  0  0  0  0
   35.0858   29.1329   51.4311 H   0  0  0  0  0  0  0  0  0  0  0  0
   36.1647   28.4759   50.1214 H   0  0  0  0  0  0  0  0  0  0  0  0
   38.9109   29.5278   46.7367 H   0  0  0  0  0  0  0  0  0  0  0  0
   37.6746   30.6057   46.1866 H   0  0  0  0  0  0  0  0  0  0  0  0
   39.7436   31.4858   45.0962 H   0  0  0  0  0  0  0  0  0  0  0  0
   40.7463   31.2010   46.4806 H   0  0  0  0  0  0  0  0  0  0  0  0
   40.1439   33.4495   47.0127 H   0  0  0  0  0  0  0  0  0  0  0  0
   38.7032   33.4085   45.9967 H   0  0  0  0  0  0  0  0  0  0  0  0
   37.3734   32.7650   47.9580 H   0  0  0  0  0  0  0  0  0  0  0  0
   38.7289   32.8426   49.9042 H   0  0  0  0  0  0  0  0  0  0  0  0
   34.6999   30.7807   47.1337 H   0  0  0  0  0  0  0  0  0  0  0  0
   33.0978   29.4681   45.6621 H   0  0  0  0  0  0  0  0  0  0  0  0
   32.1465   26.9204   48.9854 H   0  0  0  0  0  0  0  0  0  0  0  0
  1  6  1  0
  2  3  1  0
  2  1  1  0
  3  4  1  0
  4  5  1  0
  6  5  1  0
  7  8  1  0
  7  3  1  0
  9 10  1  0
  9  8  1  0
 10 11  1  0
 11  7  1  0
 11 12  1  0
 13 18  1  0
 13  1  1  0
 14 13  2  0
 15 16  2  0
 15 14  1  0
 16 17  1  0
 17 18  2  0
  1 19  1  1
  2 20  1  0
  2 21  1  0
  3 22  1  6
  4 23  1  0
  4 24  1  0
  5 25  1  0
  5 26  1  0
  6 27  1  0
  6 28  1  0
  8 29  1  0
  8 30  1  0
  9 31  1  0
  9 32  1  0
 10 33  1  0
 10 34  1  0
 11 35  1  6
 12 36  1  0
 14 37  1  0
 15 38  1  0
 17 39  1  0
M  ISO  8  19  13  20  13  21  13  22  13  23  13  24  13  25  13  26  13
M  ISO  8  27  13  28  13  29  13  30  13  31  13  32  13  33  13  34  13
M  ISO  5  35  13  36   3  37  14  38  14  39  14
M  END
>  <minimizedAffinity>  (1) 
-6.24925852

>  <minimizedRMSD>  (1) 
0.191656381

$$$$
