
     RDKit          3D

 51 54  0  0  1  0  0  0  0  0999 V2000
   35.0240   30.1160   49.2930 C   0  0  2  0  0  0  0  0  0  0  0  0
   35.9980   30.7590   48.3720 C   0  0  0  0  0  0  0  0  0  0  0  0
   37.3710   30.1070   48.4230 C   0  0  2  0  0  0  0  0  0  0  0  0
   37.9560   30.0480   49.7710 C   0  0  0  0  0  0  0  0  0  0  0  0
   36.9380   29.8090   50.8730 C   0  0  0  0  0  0  0  0  0  0  0  0
   35.6710   29.2100   50.3100 C   0  0  0  0  0  0  0  0  0  0  0  0
   38.2940   30.7360   47.5450 N   0  0  0  0  0  0  0  0  0  0  0  0
   38.2390   30.1630   46.2080 C   0  0  0  0  0  0  0  0  0  0  0  0
   39.3570   30.9550   45.5250 C   0  0  0  0  0  0  0  0  0  0  0  0
   39.0970   32.3320   46.0910 C   0  0  0  0  0  0  0  0  0  0  0  0
   38.2390   32.1040   47.3420 C   0  0  2  0  0  0  0  0  0  0  0  0
   38.5270   33.1350   48.3050 C   0  0  0  0  0  0  0  0  0  0  0  0
   39.7150   33.9570   47.7550 C   0  0  0  0  0  0  0  0  0  0  0  0
   40.1430   34.7640   48.9640 C   0  0  0  0  0  0  0  0  0  0  0  0
   39.3230   34.2380   50.1490 C   0  0  0  0  0  0  0  0  0  0  0  0
   39.0920   32.8030   49.6400 C   0  0  0  0  0  0  0  0  0  0  0  0
   33.9960   29.3200   48.5840 C   0  0  0  0  0  0  0  0  0  0  0  0
   33.7760   29.7000   47.2580 C   0  0  0  0  0  0  0  0  0  0  0  0
   32.8210   28.9740   46.5330 C   0  0  0  0  0  0  0  0  0  0  0  0
   32.1540   27.9330   47.1560 N   0  0  0  0  0  0  0  0  0  0  0  0
   32.4050   27.6030   48.4560 C   0  0  0  0  0  0  0  0  0  0  0  0
   33.3090   28.2980   49.1230 N   0  0  0  0  0  0  0  0  0  0  0  0
   34.5531   30.9683   49.8047 H   0  0  0  0  0  0  0  0  0  0  0  0
   36.1005   31.8180   48.6514 H   0  0  0  0  0  0  0  0  0  0  0  0
   35.6131   30.6444   47.3479 H   0  0  0  0  0  0  0  0  0  0  0  0
   37.1911   29.0731   48.0933 H   0  0  0  0  0  0  0  0  0  0  0  0
   38.6906   29.2296   49.7944 H   0  0  0  0  0  0  0  0  0  0  0  0
   38.4122   31.0300   49.9647 H   0  0  0  0  0  0  0  0  0  0  0  0
   37.3649   29.1184   51.6151 H   0  0  0  0  0  0  0  0  0  0  0  0
   36.6942   30.7728   51.3437 H   0  0  0  0  0  0  0  0  0  0  0  0
   34.9628   29.0372   51.1338 H   0  0  0  0  0  0  0  0  0  0  0  0
   35.9336   28.2670   49.8082 H   0  0  0  0  0  0  0  0  0  0  0  0
   38.4525   29.0840   46.2185 H   0  0  0  0  0  0  0  0  0  0  0  0
   37.2575   30.2344   45.7164 H   0  0  0  0  0  0  0  0  0  0  0  0
   39.2562   30.9395   44.4297 H   0  0  0  0  0  0  0  0  0  0  0  0
   40.3710   30.5677   45.7036 H   0  0  0  0  0  0  0  0  0  0  0  0
   40.0442   32.8231   46.3585 H   0  0  0  0  0  0  0  0  0  0  0  0
   38.5928   32.9846   45.3630 H   0  0  0  0  0  0  0  0  0  0  0  0
   37.1520   32.2723   47.3421 H   0  0  0  0  0  0  0  0  0  0  0  0
   37.5239   33.5660   48.4392 H   0  0  0  0  0  0  0  0  0  0  0  0
   40.5262   33.3000   47.4081 H   0  0  0  0  0  0  0  0  0  0  0  0
   39.4539   34.5765   46.8843 H   0  0  0  0  0  0  0  0  0  0  0  0
   41.2176   34.6246   49.1533 H   0  0  0  0  0  0  0  0  0  0  0  0
   39.9715   35.8391   48.8066 H   0  0  0  0  0  0  0  0  0  0  0  0
   39.8925   34.2584   51.0899 H   0  0  0  0  0  0  0  0  0  0  0  0
   38.4173   34.8106   50.3976 H   0  0  0  0  0  0  0  0  0  0  0  0
   38.3774   32.2501   50.2673 H   0  0  0  0  0  0  0  0  0  0  0  0
   39.9755   32.1477   49.6368 H   0  0  0  0  0  0  0  0  0  0  0  0
   34.3291   30.5342   46.8018 H   0  0  0  0  0  0  0  0  0  0  0  0
   32.6047   29.2276   45.4847 H   0  0  0  0  0  0  0  0  0  0  0  0
   31.8655   26.7749   48.9389 H   0  0  0  0  0  0  0  0  0  0  0  0
  1  6  1  0
  2  3  1  0
  2  1  1  0
  3  4  1  0
  4  5  1  0
  6  5  1  0
  7  8  1  0
  7  3  1  0
  9 10  1  0
  9  8  1  0
 10 11  1  0
 11  7  1  0
 11 12  1  0
 12 16  1  0
 13 12  1  0
 13 14  1  0
 14 15  1  0
 16 15  1  0
 17 22  1  0
 17  1  1  0
 18 17  2  0
 19 20  2  0
 19 18  1  0
 20 21  1  0
 21 22  2  0
  1 23  1  1
  2 24  1  0
  2 25  1  0
  3 26  1  6
  4 27  1  0
  4 28  1  0
  5 29  1  0
  5 30  1  0
  6 31  1  0
  6 32  1  0
  8 33  1  0
  8 34  1  0
  9 35  1  0
  9 36  1  0
 10 37  1  0
 10 38  1  0
 11 39  1  6
 12 40  1  0
 13 41  1  0
 13 42  1  0
 14 43  1  0
 14 44  1  0
 15 45  1  0
 15 46  1  0
 16 47  1  0
 16 48  1  0
 18 49  1  0
 19 50  1  0
 21 51  1  0
M  ISO  8  23  13  24  13  25  13  26  13  27  13  28  13  29  13  30  13
M  ISO  8  31  13  32  13  33  13  34  13  35  13  36  13  37  13  38  13
M  ISO  8  39  13  40  13  41  13  42  13  43  13  44  13  45  13  46  13
M  ISO  5  47  13  48  13  49  14  50  14  51  14
M  END
>  <minimizedAffinity>  (1) 
-5.90763903

>  <minimizedRMSD>  (1) 
0.843335032

$$$$
