
     RDKit          3D

 33 36  0  0  0  0  0  0  0  0999 V2000
   37.2620   29.7870   51.3300 C   0  0  0  0  0  0  0  0  0  0  0  0
   38.0900   30.7790   50.7660 C   0  0  0  0  0  0  0  0  0  0  0  0
   37.7610   31.2260   49.4780 C   0  0  0  0  0  0  0  0  0  0  0  0
   36.6820   30.6870   48.8570 N   0  0  0  0  0  0  0  0  0  0  0  0
   35.9160   29.7480   49.4160 C   0  0  0  0  0  0  0  0  0  0  0  0
   36.2010   29.2950   50.6530 N   0  0  0  0  0  0  0  0  0  0  0  0
   34.3720   27.8970   48.9100 C   0  0  0  0  0  0  0  0  0  0  0  0
   34.7790   29.2180   48.6900 C   0  0  0  0  0  0  0  0  0  0  0  0
   34.1030   30.0240   47.7880 C   0  0  0  0  0  0  0  0  0  0  0  0
   33.0180   29.5520   47.0850 C   0  0  0  0  0  0  0  0  0  0  0  0
   32.1900   30.0850   46.1720 N   0  0  0  0  0  0  0  0  0  0  0  0
   31.3130   29.0750   45.8690 C   0  0  0  0  0  0  0  0  0  0  0  0
   31.5950   27.9550   46.5760 N   0  0  0  0  0  0  0  0  0  0  0  0
   32.6530   28.2320   47.3390 C   0  0  0  0  0  0  0  0  0  0  0  0
   33.2840   27.3910   48.2190 C   0  0  0  0  0  0  0  0  0  0  0  0
   38.5430   32.2350   48.8170 C   0  0  0  0  0  0  0  0  0  0  0  0
   38.9410   33.4200   49.3800 C   0  0  0  0  0  0  0  0  0  0  0  0
   39.6870   34.3900   48.7610 C   0  0  0  0  0  0  0  0  0  0  0  0
   40.0820   34.1650   47.4400 C   0  0  0  0  0  0  0  0  0  0  0  0
   39.7060   32.9920   46.8330 C   0  0  0  0  0  0  0  0  0  0  0  0
   38.9520   32.0540   47.5180 C   0  0  0  0  0  0  0  0  0  0  0  0
   37.4834   29.4071   52.3383 H   0  0  0  0  0  0  0  0  0  0  0  0
   38.9550   31.1841   51.3115 H   0  0  0  0  0  0  0  0  0  0  0  0
   34.9137   27.2640   49.6282 H   0  0  0  0  0  0  0  0  0  0  0  0
   34.4395   31.0594   47.6311 H   0  0  0  0  0  0  0  0  0  0  0  0
   32.2092   31.0395   45.7854 H   0  0  0  0  0  0  0  0  0  0  0  0
   30.4885   29.1632   45.1463 H   0  0  0  0  0  0  0  0  0  0  0  0
   32.9401   26.3571   48.3698 H   0  0  0  0  0  0  0  0  0  0  0  0
   38.6351   33.6093   50.4195 H   0  0  0  0  0  0  0  0  0  0  0  0
   39.9653   35.3149   49.2874 H   0  0  0  0  0  0  0  0  0  0  0  0
   40.6812   34.9113   46.8978 H   0  0  0  0  0  0  0  0  0  0  0  0
   40.0065   32.7957   45.7932 H   0  0  0  0  0  0  0  0  0  0  0  0
   38.6688   31.1255   47.0006 H   0  0  0  0  0  0  0  0  0  0  0  0
  2  1  2  0
  3  2  1  0
  4  5  1  0
  4  3  2  0
  5  6  2  0
  6  1  1  0
  8  7  2  0
  8  5  1  0
  9  8  1  0
 10 14  1  0
 10  9  2  0
 11 10  1  0
 12 11  1  0
 12 13  2  0
 13 14  1  0
 14 15  2  0
 15  7  1  0
 16 17  2  0
 16  3  1  0
 18 17  1  0
 19 18  2  0
 20 19  1  0
 20 21  2  0
 21 16  1  0
  1 22  1  0
  2 23  1  0
  7 24  1  0
  9 25  1  0
 11 26  1  0
 12 27  1  0
 15 28  1  0
 17 29  1  0
 18 30  1  0
 19 31  1  0
 20 32  1  0
 21 33  1  0
M  ISO  8  22  14  23  14  24  14  25  14  26   9  27  14  28  14  29  14
M  ISO  4  30  14  31  14  32  14  33  14
M  END
>  <minimizedAffinity>  (1) 
-6.87198877

>  <minimizedRMSD>  (1) 
0.662242234

$$$$
