
     RDKit          3D

 24 26  0  0  0  0  0  0  0  0999 V2000
   34.6090   28.1400   48.9240 C   0  0  0  0  0  0  0  0  0  0  0  0
   34.9710   29.4530   48.6080 C   0  0  0  0  0  0  0  0  0  0  0  0
   34.2190   30.1850   47.7140 C   0  0  0  0  0  0  0  0  0  0  0  0
   33.1030   29.6300   47.1210 C   0  0  0  0  0  0  0  0  0  0  0  0
   32.2110   30.1130   46.2310 N   0  0  0  0  0  0  0  0  0  0  0  0
   31.3380   29.0870   46.0320 C   0  0  0  0  0  0  0  0  0  0  0  0
   31.6880   28.0270   46.7700 N   0  0  0  0  0  0  0  0  0  0  0  0
   32.7920   28.3340   47.4670 C   0  0  0  0  0  0  0  0  0  0  0  0
   33.4980   27.5660   48.3420 C   0  0  0  0  0  0  0  0  0  0  0  0
   37.5280   30.3320   51.0990 C   0  0  0  0  0  0  0  0  0  0  0  0
   38.4030   31.1720   50.3450 C   0  0  0  0  0  0  0  0  0  0  0  0
   38.0690   31.4000   48.9990 C   0  0  0  0  0  0  0  0  0  0  0  0
   36.9520   30.8190   48.4990 N   0  0  0  0  0  0  0  0  0  0  0  0
   36.1480   30.0320   49.2380 C   0  0  0  0  0  0  0  0  0  0  0  0
   36.4360   29.7920   50.5240 N   0  0  0  0  0  0  0  0  0  0  0  0
   38.9180   32.2110   48.2810 O   0  0  0  0  0  0  0  0  0  0  0  0
   35.2126   27.5625   49.6396 H   0  0  0  0  0  0  0  0  0  0  0  0
   34.5102   31.2177   47.4718 H   0  0  0  0  0  0  0  0  0  0  0  0
   32.1942   31.0479   45.7991 H   0  0  0  0  0  0  0  0  0  0  0  0
   30.4682   29.1243   45.3597 H   0  0  0  0  0  0  0  0  0  0  0  0
   33.1959   26.5341   48.5743 H   0  0  0  0  0  0  0  0  0  0  0  0
   37.7473   30.1245   52.1568 H   0  0  0  0  0  0  0  0  0  0  0  0
   39.2992   31.6209   50.7980 H   0  0  0  0  0  0  0  0  0  0  0  0
   38.7299   32.4047   47.3285 H   0  0  0  0  0  0  0  0  0  0  0  0
  2  1  2  0
  2 14  1  0
  3  2  1  0
  4  8  1  0
  4  3  2  0
  5  4  1  0
  6  5  1  0
  6  7  2  0
  7  8  1  0
  8  9  2  0
  9  1  1  0
 11 10  2  0
 12 11  1  0
 13 12  2  0
 13 14  1  0
 14 15  2  0
 15 10  1  0
 16 12  1  0
  1 17  1  0
  3 18  1  0
  5 19  1  0
  6 20  1  0
  9 21  1  0
 10 22  1  0
 11 23  1  0
 16 24  1  0
M  ISO  8  17  14  18  14  19   9  20  14  21  14  22  14  23  14  24   3
M  END
>  <minimizedAffinity>  (1) 
-5.26131773

>  <minimizedRMSD>  (1) 
0.0376047045

$$$$
