
     RDKit          3D

 38 42  0  0  0  0  0  0  0  0999 V2000
   38.1490   32.6270   49.4620 C   0  0  0  0  0  0  0  0  0  0  0  0
   38.8560   32.8220   48.2650 C   0  0  0  0  0  0  0  0  0  0  0  0
   38.4360   32.0590   47.1710 C   0  0  0  0  0  0  0  0  0  0  0  0
   37.4050   31.1950   47.3000 N   0  0  0  0  0  0  0  0  0  0  0  0
   36.7600   31.0490   48.4820 C   0  0  0  0  0  0  0  0  0  0  0  0
   37.1170   31.7500   49.5590 N   0  0  0  0  0  0  0  0  0  0  0  0
   35.6860   29.0910   49.4870 C   0  0  0  0  0  0  0  0  0  0  0  0
   35.6540   30.0920   48.5370 C   0  0  0  0  0  0  0  0  0  0  0  0
   34.6010   30.1650   47.6810 C   0  0  0  0  0  0  0  0  0  0  0  0
   33.5650   29.2740   47.7280 C   0  0  0  0  0  0  0  0  0  0  0  0
   32.4260   29.1420   46.9960 N   0  0  0  0  0  0  0  0  0  0  0  0
   31.8130   28.0480   47.5480 C   0  0  0  0  0  0  0  0  0  0  0  0
   32.5360   27.5440   48.5560 N   0  0  0  0  0  0  0  0  0  0  0  0
   33.6450   28.2950   48.6940 C   0  0  0  0  0  0  0  0  0  0  0  0
   34.6670   28.1560   49.5870 C   0  0  0  0  0  0  0  0  0  0  0  0
   39.0610   32.1350   45.8470 C   0  0  0  0  0  0  0  0  0  0  0  0
   39.4800   33.3010   45.2560 C   0  0  0  0  0  0  0  0  0  0  0  0
   40.0650   33.3750   44.0150 C   0  0  0  0  0  0  0  0  0  0  0  0
   40.2370   32.2230   43.3380 N   0  0  0  0  0  0  0  0  0  0  0  0
   39.8420   31.0800   43.8840 C   0  0  0  0  0  0  0  0  0  0  0  0
   39.2830   31.0340   45.0760 N   0  0  0  0  0  0  0  0  0  0  0  0
   39.9560   29.7390   43.2830 C   0  0  0  0  0  0  0  0  0  0  0  0
   39.1340   28.6320   43.2810 C   0  0  0  0  0  0  0  0  0  0  0  0
   39.8140   27.6810   42.5300 C   0  0  0  0  0  0  0  0  0  0  0  0
   40.9950   28.2120   42.1070 N   0  0  0  0  0  0  0  0  0  0  0  0
   41.0740   29.4670   42.5710 N   0  0  0  0  0  0  0  0  0  0  0  0
   38.4410   33.2043   50.3516 H   0  0  0  0  0  0  0  0  0  0  0  0
   39.6917   33.5335   48.1919 H   0  0  0  0  0  0  0  0  0  0  0  0
   36.5385   29.0338   50.1798 H   0  0  0  0  0  0  0  0  0  0  0  0
   34.5816   30.9657   46.9270 H   0  0  0  0  0  0  0  0  0  0  0  0
   32.1013   29.7262   46.2123 H   0  0  0  0  0  0  0  0  0  0  0  0
   30.8513   27.6369   47.2072 H   0  0  0  0  0  0  0  0  0  0  0  0
   34.6817   27.3531   50.3387 H   0  0  0  0  0  0  0  0  0  0  0  0
   39.3379   34.2387   45.8132 H   0  0  0  0  0  0  0  0  0  0  0  0
   40.3812   34.3391   43.5900 H   0  0  0  0  0  0  0  0  0  0  0  0
   38.1534   28.5250   43.7679 H   0  0  0  0  0  0  0  0  0  0  0  0
   39.4564   26.6638   42.3123 H   0  0  0  0  0  0  0  0  0  0  0  0
   41.7027   27.7333   41.5318 H   0  0  0  0  0  0  0  0  0  0  0  0
  1  6  2  0
  2  1  1  0
  3  4  1  0
  3  2  2  0
  4  5  2  0
  5  8  1  0
  5  6  1  0
  7 15  2  0
  8  7  1  0
  9 10  1  0
  9  8  2  0
 10 14  2  0
 11 12  1  0
 11 10  1  0
 12 13  2  0
 13 14  1  0
 14 15  1  0
 16  3  1  0
 17 16  2  0
 18 17  1  0
 19 20  1  0
 19 18  2  0
 20 21  2  0
 21 16  1  0
 22 20  1  0
 23 22  1  0
 24 23  2  0
 25 24  1  0
 25 26  1  0
 26 22  2  0
  1 27  1  0
  2 28  1  0
  7 29  1  0
  9 30  1  0
 11 31  1  0
 12 32  1  0
 15 33  1  0
 17 34  1  0
 18 35  1  0
 23 36  1  0
 24 37  1  0
 25 38  1  0
M  ISO  8  27  14  28  14  29  14  30  14  31   9  32  14  33  14  34  14
M  ISO  4  35  14  36  14  37  14  38   9
M  END
>  <minimizedAffinity>  (1) 
-7.5366478

>  <minimizedRMSD>  (1) 
1.43991768

$$$$
