
     RDKit          3D

 33 36  0  0  0  0  0  0  0  0999 V2000
   38.5080   32.5050   48.8390 C   0  0  0  0  0  0  0  0  0  0  0  0
   39.0890   32.6360   47.5720 C   0  0  0  0  0  0  0  0  0  0  0  0
   38.5420   31.8730   46.5420 C   0  0  0  0  0  0  0  0  0  0  0  0
   37.4950   31.0520   46.8130 N   0  0  0  0  0  0  0  0  0  0  0  0
   36.9620   30.9500   48.0450 C   0  0  0  0  0  0  0  0  0  0  0  0
   37.4720   31.6790   49.0580 N   0  0  0  0  0  0  0  0  0  0  0  0
   35.8890   29.1350   49.2970 C   0  0  0  0  0  0  0  0  0  0  0  0
   35.8350   30.0460   48.2580 C   0  0  0  0  0  0  0  0  0  0  0  0
   34.7370   30.0950   47.4440 C   0  0  0  0  0  0  0  0  0  0  0  0
   33.6750   29.2490   47.6370 C   0  0  0  0  0  0  0  0  0  0  0  0
   32.4930   29.1010   46.9810 N   0  0  0  0  0  0  0  0  0  0  0  0
   31.8740   28.0880   47.6660 C   0  0  0  0  0  0  0  0  0  0  0  0
   32.6330   27.6500   48.6730 N   0  0  0  0  0  0  0  0  0  0  0  0
   33.7750   28.3590   48.6860 C   0  0  0  0  0  0  0  0  0  0  0  0
   34.8410   28.2660   49.5270 C   0  0  0  0  0  0  0  0  0  0  0  0
   39.0190   31.8850   45.1680 C   0  0  0  0  0  0  0  0  0  0  0  0
   39.0230   33.0130   44.3710 C   0  0  0  0  0  0  0  0  0  0  0  0
   39.4730   33.0410   43.0650 C   0  0  0  0  0  0  0  0  0  0  0  0
   39.9340   31.8890   42.5490 N   0  0  0  0  0  0  0  0  0  0  0  0
   39.9390   30.7960   43.2950 C   0  0  0  0  0  0  0  0  0  0  0  0
   39.5030   30.7990   44.5420 N   0  0  0  0  0  0  0  0  0  0  0  0
   40.4310   29.5240   42.7750 C   0  0  0  0  0  0  0  0  0  0  0  0
   41.5730   29.3670   42.2590 O   0  0  0  0  0  0  0  0  0  0  0  0
   38.9104   33.0937   49.6766 H   0  0  0  0  0  0  0  0  0  0  0  0
   39.9396   33.3113   47.3972 H   0  0  0  0  0  0  0  0  0  0  0  0
   36.7759   29.1023   49.9468 H   0  0  0  0  0  0  0  0  0  0  0  0
   34.7052   30.8246   46.6214 H   0  0  0  0  0  0  0  0  0  0  0  0
   32.1460   29.6248   46.1648 H   0  0  0  0  0  0  0  0  0  0  0  0
   30.8800   27.6876   47.4179 H   0  0  0  0  0  0  0  0  0  0  0  0
   34.8664   27.5352   50.3487 H   0  0  0  0  0  0  0  0  0  0  0  0
   38.6432   33.9501   44.8042 H   0  0  0  0  0  0  0  0  0  0  0  0
   39.4547   33.9675   42.4724 H   0  0  0  0  0  0  0  0  0  0  0  0
   39.7670   28.6492   42.8362 H   0  0  0  0  0  0  0  0  0  0  0  0
  1  6  2  0
  2  1  1  0
  3  4  1  0
  3  2  2  0
  4  5  2  0
  5  8  1  0
  5  6  1  0
  7 15  2  0
  8  7  1  0
  9 10  1  0
  9  8  2  0
 10 14  2  0
 11 10  1  0
 11 12  1  0
 12 13  2  0
 13 14  1  0
 14 15  1  0
 16  3  1  0
 17 16  2  0
 18 17  1  0
 19 18  2  0
 19 20  1  0
 20 21  2  0
 21 16  1  0
 22 20  1  0
 23 22  2  0
  1 24  1  0
  2 25  1  0
  7 26  1  0
  9 27  1  0
 11 28  1  0
 12 29  1  0
 15 30  1  0
 17 31  1  0
 18 32  1  0
 22 33  1  0
M  ISO  8  24  14  25  14  26  14  27  14  28   9  29  14  30  14  31  14
M  ISO  2  32  14  33   6
M  END
>  <minimizedAffinity>  (1) 
-6.62489939

>  <minimizedRMSD>  (1) 
0.901311576

$$$$
