
     RDKit          3D

 32 34  0  0  1  0  0  0  0  0999 V2000
   35.8000   29.2700   49.2310 C   0  0  0  0  0  0  0  0  0  0  0  0
   34.8950   28.6860   50.0750 C   0  0  0  0  0  0  0  0  0  0  0  0
   33.7280   28.4740   49.3280 C   0  0  0  0  0  0  0  0  0  0  0  0
   34.0150   28.9570   48.0500 C   0  0  0  0  0  0  0  0  0  0  0  0
   35.2410   29.4110   48.0480 O   0  0  0  0  0  0  0  0  0  0  0  0
   33.1080   30.4300   46.2420 C   0  0  2  0  0  0  0  0  0  0  0  0
   33.2380   29.0330   46.8150 C   0  0  2  0  0  0  0  0  0  0  0  0
   31.9000   28.6730   46.9670 O   0  0  0  0  0  0  0  0  0  0  0  0
   31.2870   29.0340   45.7950 C   0  0  0  0  0  0  0  0  0  0  0  0
   32.0880   30.1310   45.1410 C   0  0  2  0  0  0  0  0  0  0  0  0
   34.3510   30.7350   45.6940 O   0  0  0  0  0  0  0  0  0  0  0  0
   32.8300   29.5620   44.0860 O   0  0  0  0  0  0  0  0  0  0  0  0
   37.1390   29.6360   49.6710 C   0  0  0  0  0  0  0  0  0  0  0  0
   37.6580   29.0050   50.6090 O   0  0  0  0  0  0  0  0  0  0  0  0
   37.7900   30.7250   48.9770 C   0  0  0  0  0  0  0  0  0  0  0  0
   37.9200   31.9230   49.6750 C   0  0  0  0  0  0  0  0  0  0  0  0
   38.5440   32.9930   49.0300 C   0  0  0  0  0  0  0  0  0  0  0  0
   38.9920   32.8100   47.7560 N   0  0  0  0  0  0  0  0  0  0  0  0
   38.8550   31.6420   47.1030 C   0  0  0  0  0  0  0  0  0  0  0  0
   38.2540   30.5990   47.7130 N   0  0  0  0  0  0  0  0  0  0  0  0
   35.0526   28.4323   51.1337 H   0  0  0  0  0  0  0  0  0  0  0  0
   32.7865   28.0231   49.6749 H   0  0  0  0  0  0  0  0  0  0  0  0
   32.8224   31.2521   46.9147 H   0  0  0  0  0  0  0  0  0  0  0  0
   33.8119   28.3500   46.1714 H   0  0  0  0  0  0  0  0  0  0  0  0
   31.2345   28.1647   45.1231 H   0  0  0  0  0  0  0  0  0  0  0  0
   30.2675   29.3910   46.0029 H   0  0  0  0  0  0  0  0  0  0  0  0
   31.4893   30.9780   44.7746 H   0  0  0  0  0  0  0  0  0  0  0  0
   35.0024   30.8948   46.4222 H   0  0  0  0  0  0  0  0  0  0  0  0
   33.5580   29.0037   44.4581 H   0  0  0  0  0  0  0  0  0  0  0  0
   37.5426   32.0235   50.7033 H   0  0  0  0  0  0  0  0  0  0  0  0
   38.6709   33.9603   49.5381 H   0  0  0  0  0  0  0  0  0  0  0  0
   39.2317   31.5373   46.0748 H   0  0  0  0  0  0  0  0  0  0  0  0
  1 13  1  0
  1  2  2  0
  3  2  1  0
  4  3  2  0
  5  4  1  0
  5  1  1  0
  6 11  1  0
  6  7  1  0
  7  8  1  0
  7  4  1  0
  9  8  1  0
 10 12  1  0
 10  9  1  0
 10  6  1  0
 13 14  2  0
 15 13  1  0
 15 16  2  0
 17 16  1  0
 18 17  2  0
 19 20  2  0
 19 18  1  0
 20 15  1  0
  2 21  1  0
  3 22  1  0
  6 23  1  1
  7 24  1  6
  9 25  1  0
  9 26  1  0
 10 27  1  6
 11 28  1  0
 12 29  1  0
 16 30  1  0
 17 31  1  0
 19 32  1  0
M  ISO  8  21  14  22  14  23  13  24  13  25  13  26  13  27  13  28   3
M  ISO  4  29   3  30  14  31  14  32  14
M  END
>  <minimizedAffinity>  (1) 
-5.51129341

>  <minimizedRMSD>  (1) 
2.93539262

$$$$
