
     RDKit          3D

 33 35  0  0  0  0  0  0  0  0999 V2000
   35.6390   29.2930   48.8760 C   0  0  0  0  0  0  0  0  0  0  0  0
   35.0700   30.0300   47.8740 C   0  0  0  0  0  0  0  0  0  0  0  0
   33.8720   29.3940   47.5020 C   0  0  0  0  0  0  0  0  0  0  0  0
   33.8000   28.2890   48.3270 C   0  0  0  0  0  0  0  0  0  0  0  0
   34.8400   28.2680   49.1050 O   0  0  0  0  0  0  0  0  0  0  0  0
   32.7150   27.3870   48.2490 N   0  0  0  0  0  0  0  0  0  0  0  0
   32.8710   26.1250   47.5500 C   0  0  0  0  0  0  0  0  0  0  0  0
   31.5360   25.4830   47.2590 C   0  0  0  0  0  0  0  0  0  0  0  0
   30.4750   26.3780   46.9640 N   0  0  0  0  0  0  0  0  0  0  0  0
   30.4390   27.6070   47.6780 C   0  0  0  0  0  0  0  0  0  0  0  0
   31.4030   27.6110   48.8270 C   0  0  0  0  0  0  0  0  0  0  0  0
   36.8870   29.6530   49.5030 C   0  0  0  0  0  0  0  0  0  0  0  0
   37.3040   28.9600   50.4580 O   0  0  0  0  0  0  0  0  0  0  0  0
   37.5890   30.8020   48.9910 C   0  0  0  0  0  0  0  0  0  0  0  0
   37.4950   31.9870   49.7190 C   0  0  0  0  0  0  0  0  0  0  0  0
   38.1620   33.1120   49.2480 C   0  0  0  0  0  0  0  0  0  0  0  0
   38.8820   32.9820   48.0770 N   0  0  0  0  0  0  0  0  0  0  0  0
   38.9530   31.8350   47.3980 C   0  0  0  0  0  0  0  0  0  0  0  0
   38.3110   30.7460   47.8510 N   0  0  0  0  0  0  0  0  0  0  0  0
   35.4764   30.9543   47.4375 H   0  0  0  0  0  0  0  0  0  0  0  0
   33.1546   29.7062   46.7288 H   0  0  0  0  0  0  0  0  0  0  0  0
   33.3952   26.3054   46.5999 H   0  0  0  0  0  0  0  0  0  0  0  0
   33.4477   25.4441   48.1932 H   0  0  0  0  0  0  0  0  0  0  0  0
   31.6637   24.8137   46.3955 H   0  0  0  0  0  0  0  0  0  0  0  0
   31.2436   24.9654   48.1845 H   0  0  0  0  0  0  0  0  0  0  0  0
   30.5319   26.6049   45.9609 H   0  0  0  0  0  0  0  0  0  0  0  0
   30.6999   28.4257   46.9913 H   0  0  0  0  0  0  0  0  0  0  0  0
   29.4244   27.7386   48.0820 H   0  0  0  0  0  0  0  0  0  0  0  0
   31.1556   26.8075   49.5363 H   0  0  0  0  0  0  0  0  0  0  0  0
   31.3640   28.5597   49.3824 H   0  0  0  0  0  0  0  0  0  0  0  0
   36.9055   32.0310   50.6466 H   0  0  0  0  0  0  0  0  0  0  0  0
   38.1179   34.0695   49.7877 H   0  0  0  0  0  0  0  0  0  0  0  0
   39.5373   31.7818   46.4675 H   0  0  0  0  0  0  0  0  0  0  0  0
  1  5  1  0
  1 12  1  0
  2  1  2  0
  3  2  1  0
  3  4  2  0
  4  5  1  0
  6  4  1  0
  6 11  1  0
  7  6  1  0
  8  7  1  0
  9  8  1  0
  9 10  1  0
 10 11  1  0
 12 13  2  0
 14 12  1  0
 14 15  2  0
 16 15  1  0
 17 16  2  0
 18 19  2  0
 18 17  1  0
 19 14  1  0
  2 20  1  0
  3 21  1  0
  7 22  1  0
  7 23  1  0
  8 24  1  0
  8 25  1  0
  9 26  1  0
 10 27  1  0
 10 28  1  0
 11 29  1  0
 11 30  1  0
 15 31  1  0
 16 32  1  0
 18 33  1  0
M  ISO  8  20  14  21  14  22  13  23  13  24  13  25  13  26   5  27  13
M  ISO  6  28  13  29  13  30  13  31  14  32  14  33  14
M  END
>  <minimizedAffinity>  (1) 
-5.30667162

>  <minimizedRMSD>  (1) 
2.24337864

$$$$
