
     RDKit          3D

 35 38  0  0  0  0  0  0  0  0999 V2000
   35.8370   29.1210   49.8230 C   0  0  0  0  0  0  0  0  0  0  0  0
   34.8020   29.6330   50.5380 C   0  0  0  0  0  0  0  0  0  0  0  0
   33.6320   29.0490   50.0380 C   0  0  0  0  0  0  0  0  0  0  0  0
   34.0450   28.1960   49.0230 C   0  0  0  0  0  0  0  0  0  0  0  0
   35.3440   28.2950   48.9590 O   0  0  0  0  0  0  0  0  0  0  0  0
   33.5360   26.4110   47.3500 C   0  0  0  0  0  0  0  0  0  0  0  0
   33.1170   27.3880   48.2390 C   0  0  0  0  0  0  0  0  0  0  0  0
   31.7680   27.6600   48.4330 C   0  0  0  0  0  0  0  0  0  0  0  0
   30.8420   26.9240   47.7090 C   0  0  0  0  0  0  0  0  0  0  0  0
   29.5050   26.9690   47.6910 N   0  0  0  0  0  0  0  0  0  0  0  0
   29.1020   26.0500   46.8170 N   0  0  0  0  0  0  0  0  0  0  0  0
   30.1730   25.4220   46.2820 C   0  0  0  0  0  0  0  0  0  0  0  0
   31.3130   25.9610   46.8350 C   0  0  0  0  0  0  0  0  0  0  0  0
   32.6540   25.6780   46.6300 C   0  0  0  0  0  0  0  0  0  0  0  0
   37.2160   29.5170   50.0820 C   0  0  0  0  0  0  0  0  0  0  0  0
   37.8440   28.9660   51.0050 O   0  0  0  0  0  0  0  0  0  0  0  0
   37.7770   30.5460   49.2340 C   0  0  0  0  0  0  0  0  0  0  0  0
   38.0880   31.7540   49.8250 C   0  0  0  0  0  0  0  0  0  0  0  0
   38.6300   32.7750   49.0550 C   0  0  0  0  0  0  0  0  0  0  0  0
   38.8280   32.5170   47.7240 N   0  0  0  0  0  0  0  0  0  0  0  0
   38.5220   31.3420   47.1650 C   0  0  0  0  0  0  0  0  0  0  0  0
   37.9980   30.3730   47.9370 N   0  0  0  0  0  0  0  0  0  0  0  0
   38.7520   31.0960   45.7140 C   0  0  0  0  0  0  0  0  0  0  0  0
   34.8701   30.3669   51.3546 H   0  0  0  0  0  0  0  0  0  0  0  0
   32.6013   29.2283   50.3780 H   0  0  0  0  0  0  0  0  0  0  0  0
   34.6132   26.2261   47.2260 H   0  0  0  0  0  0  0  0  0  0  0  0
   31.4439   28.4371   49.1408 H   0  0  0  0  0  0  0  0  0  0  0  0
   28.9037   27.5942   48.2464 H   0  0  0  0  0  0  0  0  0  0  0  0
   30.1394   24.6175   45.5326 H   0  0  0  0  0  0  0  0  0  0  0  0
   32.9831   24.9023   45.9229 H   0  0  0  0  0  0  0  0  0  0  0  0
   37.9077   31.9071   50.8993 H   0  0  0  0  0  0  0  0  0  0  0  0
   38.8893   33.7493   49.4950 H   0  0  0  0  0  0  0  0  0  0  0  0
   39.4986   30.2975   45.5913 H   0  0  0  0  0  0  0  0  0  0  0  0
   37.8076   30.7910   45.2396 H   0  0  0  0  0  0  0  0  0  0  0  0
   39.1197   32.0178   45.2396 H   0  0  0  0  0  0  0  0  0  0  0  0
  1 15  1  0
  1  2  2  0
  3  2  1  0
  4  3  2  0
  5  4  1  0
  5  1  1  0
  6  7  2  0
  7  8  1  0
  7  4  1  0
  9  8  2  0
 10  9  1  0
 11 10  1  0
 12 11  2  0
 12 13  1  0
 13  9  1  0
 14 13  2  0
 14  6  1  0
 15 16  2  0
 17 18  2  0
 17 15  1  0
 19 18  1  0
 20 19  2  0
 21 20  1  0
 21 22  2  0
 22 17  1  0
 23 21  1  0
  2 24  1  0
  3 25  1  0
  6 26  1  0
  8 27  1  0
 10 28  1  0
 12 29  1  0
 14 30  1  0
 18 31  1  0
 19 32  1  0
 23 33  1  0
 23 34  1  0
 23 35  1  0
M  ISO  8  24  14  25  14  26  14  27  14  28   9  29  14  30  14  31  14
M  ISO  4  32  14  33   8  34   8  35   8
M  END
>  <minimizedAffinity>  (1) 
-6.13104582

>  <minimizedRMSD>  (1) 
0.0436625481

$$$$
