
     RDKit          3D

 34 37  0  0  0  0  0  0  0  0999 V2000
   35.8430   29.1330   49.8150 C   0  0  0  0  0  0  0  0  0  0  0  0
   34.8120   29.6210   50.5550 C   0  0  0  0  0  0  0  0  0  0  0  0
   33.6500   29.0350   50.0530 C   0  0  0  0  0  0  0  0  0  0  0  0
   34.0650   28.2010   49.0050 C   0  0  0  0  0  0  0  0  0  0  0  0
   35.3540   28.3100   48.9260 O   0  0  0  0  0  0  0  0  0  0  0  0
   33.5320   26.4350   47.3390 C   0  0  0  0  0  0  0  0  0  0  0  0
   33.1180   27.4120   48.2300 C   0  0  0  0  0  0  0  0  0  0  0  0
   31.7770   27.6760   48.4260 C   0  0  0  0  0  0  0  0  0  0  0  0
   30.8500   26.9400   47.7090 C   0  0  0  0  0  0  0  0  0  0  0  0
   29.5170   26.9890   47.7080 N   0  0  0  0  0  0  0  0  0  0  0  0
   29.0890   26.0720   46.8430 N   0  0  0  0  0  0  0  0  0  0  0  0
   30.1380   25.4480   46.3030 C   0  0  0  0  0  0  0  0  0  0  0  0
   31.3020   25.9750   46.8330 C   0  0  0  0  0  0  0  0  0  0  0  0
   32.6460   25.6980   46.6240 C   0  0  0  0  0  0  0  0  0  0  0  0
   37.2230   29.5290   50.0600 C   0  0  0  0  0  0  0  0  0  0  0  0
   37.8650   28.9540   50.9780 O   0  0  0  0  0  0  0  0  0  0  0  0
   37.7780   30.5650   49.2340 C   0  0  0  0  0  0  0  0  0  0  0  0
   38.1150   31.7680   49.8440 C   0  0  0  0  0  0  0  0  0  0  0  0
   38.6550   32.7900   49.0650 C   0  0  0  0  0  0  0  0  0  0  0  0
   38.8210   32.5370   47.7350 N   0  0  0  0  0  0  0  0  0  0  0  0
   38.4920   31.3770   47.1640 C   0  0  0  0  0  0  0  0  0  0  0  0
   37.9740   30.3970   47.9170 N   0  0  0  0  0  0  0  0  0  0  0  0
   38.6590   31.1010   45.7870 N   0  0  0  0  0  0  0  0  0  0  0  0
   34.8808   30.3376   51.3867 H   0  0  0  0  0  0  0  0  0  0  0  0
   32.6205   29.1943   50.4063 H   0  0  0  0  0  0  0  0  0  0  0  0
   34.6087   26.2521   47.2080 H   0  0  0  0  0  0  0  0  0  0  0  0
   31.4534   28.4524   49.1348 H   0  0  0  0  0  0  0  0  0  0  0  0
   28.9284   27.6190   48.2715 H   0  0  0  0  0  0  0  0  0  0  0  0
   30.0853   24.6428   45.5554 H   0  0  0  0  0  0  0  0  0  0  0  0
   32.9748   24.9225   45.9166 H   0  0  0  0  0  0  0  0  0  0  0  0
   37.9581   31.9109   50.9233 H   0  0  0  0  0  0  0  0  0  0  0  0
   38.9352   33.7589   49.5040 H   0  0  0  0  0  0  0  0  0  0  0  0
   38.3842   30.1833   45.4087 H   0  0  0  0  0  0  0  0  0  0  0  0
   39.0554   31.8177   45.1625 H   0  0  0  0  0  0  0  0  0  0  0  0
  1 15  1  0
  1  2  2  0
  3  2  1  0
  4  3  2  0
  5  4  1  0
  5  1  1  0
  6  7  2  0
  7  8  1  0
  7  4  1  0
  9  8  2  0
 10  9  1  0
 11 10  1  0
 12 13  1  0
 12 11  2  0
 13  9  1  0
 14 13  2  0
 14  6  1  0
 15 16  2  0
 17 18  2  0
 17 15  1  0
 19 18  1  0
 20 19  2  0
 21 20  1  0
 21 22  2  0
 22 17  1  0
 23 21  1  0
  2 24  1  0
  3 25  1  0
  6 26  1  0
  8 27  1  0
 10 28  1  0
 12 29  1  0
 14 30  1  0
 18 31  1  0
 19 32  1  0
 23 33  1  0
 23 34  1  0
M  ISO  8  24  14  25  14  26  14  27  14  28   9  29  14  30  14  31  14
M  ISO  1  32  14
M  END
>  <minimizedAffinity>  (1) 
-6.04781246

>  <minimizedRMSD>  (1) 
0.0120637119

$$$$
