
     RDKit          3D

 20 21  0  0  1  0  0  0  0  0999 V2000
   36.8470   30.7640   50.6980 C   0  0  1  0  0  0  0  0  0  0  0  0
   36.0700   29.5460   50.7570 C   0  0  2  0  0  0  0  0  0  0  0  0
   37.4540   29.5290   51.3760 C   0  0  0  0  0  0  0  0  0  0  0  0
   37.5830   31.1590   49.4520 C   0  0  0  0  0  0  0  0  0  0  0  0
   38.1910   32.4250   49.4720 C   0  0  0  0  0  0  0  0  0  0  0  0
   38.8430   32.7780   48.2810 C   0  0  0  0  0  0  0  0  0  0  0  0
   38.8660   31.9310   47.2020 N   0  0  0  0  0  0  0  0  0  0  0  0
   38.2570   30.7210   47.2530 C   0  0  0  0  0  0  0  0  0  0  0  0
   37.6120   30.3400   48.3930 N   0  0  0  0  0  0  0  0  0  0  0  0
   35.9110   28.7760   49.5930 O   0  0  0  0  0  0  0  0  0  0  0  0
   34.7190   28.1960   49.2380 C   0  0  0  0  0  0  0  0  0  0  0  0
   33.6210   28.7110   49.5690 O   0  0  0  0  0  0  0  0  0  0  0  0
   36.5857   31.8003   50.9584 H   0  0  0  0  0  0  0  0  0  0  0  0
   35.0503   29.3302   51.1088 H   0  0  0  0  0  0  0  0  0  0  0  0
   38.2742   28.9744   50.8967 H   0  0  0  0  0  0  0  0  0  0  0  0
   37.8846   29.2903   52.3597 H   0  0  0  0  0  0  0  0  0  0  0  0
   38.1586   33.0862   50.3505 H   0  0  0  0  0  0  0  0  0  0  0  0
   39.3460   33.7537   48.2109 H   0  0  0  0  0  0  0  0  0  0  0  0
   38.2828   30.0509   46.3810 H   0  0  0  0  0  0  0  0  0  0  0  0
   34.7244   27.2641   48.6536 H   0  0  0  0  0  0  0  0  0  0  0  0
  1  2  1  0
  1  3  1  0
  2  3  1  0
  4  5  2  0
  4  1  1  0
  6  5  1  0
  7  8  1  0
  7  6  2  0
  8  9  2  0
  9  4  1  0
 10  2  1  0
 11 12  2  0
 11 10  1  0
  1 13  1  1
  2 14  1  1
  3 15  1  0
  3 16  1  0
  5 17  1  0
  6 18  1  0
  8 19  1  0
 11 20  1  0
M  ISO  8  13  13  14  13  15  13  16  13  17  14  18  14  19  14  20   6
M  END
>  <minimizedAffinity>  (1) 
-4.4448719

>  <minimizedRMSD>  (1) 
0.542739391

$$$$
