
     RDKit          3D

 22 23  0  0  1  0  0  0  0  0999 V2000
   36.7430   30.7670   50.7230 C   0  0  1  0  0  0  0  0  0  0  0  0
   36.0170   29.5210   50.8410 C   0  0  2  0  0  0  0  0  0  0  0  0
   37.4710   29.5340   51.2660 C   0  0  0  0  0  0  0  0  0  0  0  0
   37.3110   31.2170   49.4000 C   0  0  0  0  0  0  0  0  0  0  0  0
   38.3170   32.1810   49.4590 C   0  0  0  0  0  0  0  0  0  0  0  0
   38.8080   32.5980   48.2140 C   0  0  0  0  0  0  0  0  0  0  0  0
   38.3130   32.0770   47.0560 N   0  0  0  0  0  0  0  0  0  0  0  0
   37.3310   31.1400   47.0550 C   0  0  0  0  0  0  0  0  0  0  0  0
   36.8220   30.7030   48.2450 N   0  0  0  0  0  0  0  0  0  0  0  0
   35.7270   28.7840   49.6810 O   0  0  0  0  0  0  0  0  0  0  0  0
   34.4350   28.4070   49.3180 C   0  0  0  0  0  0  0  0  0  0  0  0
   34.3020   27.4130   48.5560 O   0  0  0  0  0  0  0  0  0  0  0  0
   33.4400   29.2290   49.8820 N   0  0  0  0  0  0  0  0  0  0  0  0
   36.4826   31.7842   51.0509 H   0  0  0  0  0  0  0  0  0  0  0  0
   35.0614   29.2583   51.3183 H   0  0  0  0  0  0  0  0  0  0  0  0
   38.2348   29.0242   50.6605 H   0  0  0  0  0  0  0  0  0  0  0  0
   38.0380   29.2790   52.1735 H   0  0  0  0  0  0  0  0  0  0  0  0
   38.6963   32.5834   50.4099 H   0  0  0  0  0  0  0  0  0  0  0  0
   39.6038   33.3562   48.1711 H   0  0  0  0  0  0  0  0  0  0  0  0
   36.9489   30.7366   46.1056 H   0  0  0  0  0  0  0  0  0  0  0  0
   32.4463   29.0450   49.6832 H   0  0  0  0  0  0  0  0  0  0  0  0
   33.7061   30.0141   50.4933 H   0  0  0  0  0  0  0  0  0  0  0  0
  1  2  1  0
  1  3  1  0
  2  3  1  0
  4  5  2  0
  4  1  1  0
  6  5  1  0
  7  6  2  0
  8  7  1  0
  8  9  2  0
  9  4  1  0
 10  2  1  0
 11 10  1  0
 11 13  1  0
 12 11  2  0
  1 14  1  1
  2 15  1  1
  3 16  1  0
  3 17  1  0
  5 18  1  0
  6 19  1  0
  8 20  1  0
 13 21  1  0
 13 22  1  0
M  ISO  7  14  13  15  13  16  13  17  13  18  14  19  14  20  14
M  END
>  <minimizedAffinity>  (1) 
-4.69403505

>  <minimizedRMSD>  (1) 
0.946291387

$$$$
