
     RDKit          3D

 32 34  0  0  1  0  0  0  0  0999 V2000
   37.9480   31.3010   49.6930 C   0  0  0  0  0  0  0  0  0  0  0  0
   38.2940   32.6320   49.8800 C   0  0  0  0  0  0  0  0  0  0  0  0
   38.8110   33.2810   48.7700 C   0  0  0  0  0  0  0  0  0  0  0  0
   38.9550   32.6150   47.5770 N   0  0  0  0  0  0  0  0  0  0  0  0
   38.5990   31.3140   47.4520 C   0  0  0  0  0  0  0  0  0  0  0  0
   38.0920   30.6400   48.5060 N   0  0  0  0  0  0  0  0  0  0  0  0
   36.4800   30.3810   45.4180 Cl  0  0  0  0  0  0  0  0  0  0  0  0
   38.1580   30.6280   45.0200 C   0  0  0  0  0  0  0  0  0  0  0  0
   38.9120   31.0440   46.0810 C   0  0  0  0  0  0  0  0  0  0  0  0
   40.2760   31.2820   45.8560 C   0  0  0  0  0  0  0  0  0  0  0  0
   40.7920   31.0840   44.5800 C   0  0  0  0  0  0  0  0  0  0  0  0
   39.9510   30.6620   43.5780 C   0  0  0  0  0  0  0  0  0  0  0  0
   38.6220   30.4200   43.7500 C   0  0  0  0  0  0  0  0  0  0  0  0
   37.5040   29.8840   42.5150 Cl  0  0  0  0  0  0  0  0  0  0  0  0
   37.3780   30.5880   50.8810 C   0  0  1  0  0  0  0  0  0  0  0  0
   36.3320   29.5770   50.7440 C   0  0  2  0  0  0  0  0  0  0  0  0
   37.7400   29.0840   50.8750 C   0  0  0  0  0  0  0  0  0  0  0  0
   35.6910   29.4900   49.5130 O   0  0  0  0  0  0  0  0  0  0  0  0
   34.4770   29.9630   49.1400 C   0  0  0  0  0  0  0  0  0  0  0  0
   34.2830   30.4550   48.0090 O   0  0  0  0  0  0  0  0  0  0  0  0
   33.5880   29.7890   50.2050 N   0  0  0  0  0  0  0  0  0  0  0  0
   38.1660   33.1394   50.8476 H   0  0  0  0  0  0  0  0  0  0  0  0
   39.1083   34.3374   48.8447 H   0  0  0  0  0  0  0  0  0  0  0  0
   40.9270   31.6198   46.6758 H   0  0  0  0  0  0  0  0  0  0  0  0
   41.8580   31.2625   44.3754 H   0  0  0  0  0  0  0  0  0  0  0  0
   40.3778   30.5105   42.5755 H   0  0  0  0  0  0  0  0  0  0  0  0
   37.4529   31.4662   51.5392 H   0  0  0  0  0  0  0  0  0  0  0  0
   35.4057   29.3444   51.2897 H   0  0  0  0  0  0  0  0  0  0  0  0
   38.0729   28.5873   51.7983 H   0  0  0  0  0  0  0  0  0  0  0  0
   38.4091   28.4316   50.2948 H   0  0  0  0  0  0  0  0  0  0  0  0
   32.6074   30.0901   50.1118 H   0  0  0  0  0  0  0  0  0  0  0  0
   33.9137   29.3597   51.0828 H   0  0  0  0  0  0  0  0  0  0  0  0
  1  2  2  0
  1 15  1  0
  3  2  1  0
  4  3  2  0
  5  4  1  0
  5  6  2  0
  6  1  1  0
  8  7  1  0
  8  9  2  0
  9  5  1  0
 10  9  1  0
 11 10  2  0
 12 13  2  0
 12 11  1  0
 13  8  1  0
 14 13  1  0
 16 17  1  0
 16 15  1  0
 17 15  1  0
 18 16  1  0
 19 18  1  0
 19 21  1  0
 20 19  2  0
  2 22  1  0
  3 23  1  0
 10 24  1  0
 11 25  1  0
 12 26  1  0
 15 27  1  1
 16 28  1  1
 17 29  1  0
 17 30  1  0
 21 31  1  0
 21 32  1  0
M  ISO  8  22  14  23  14  24  14  25  14  26  14  27  13  28  13  29  13
M  ISO  1  30  13
M  END
>  <minimizedAffinity>  (1) 
-6.32275295

>  <minimizedRMSD>  (1) 
1.79097664

$$$$
