
     RDKit          3D

 40 42  0  0  1  0  0  0  0  0999 V2000
   37.3040   31.6980   48.1570 Br  0  0  0  0  0  0  0  0  0  0  0  0
   36.5660   30.8170   46.6200 C   0  0  0  0  0  0  0  0  0  0  0  0
   37.2800   30.7730   45.4420 C   0  0  0  0  0  0  0  0  0  0  0  0
   36.7040   30.1330   44.3780 C   0  0  0  0  0  0  0  0  0  0  0  0
   35.4490   29.5390   44.4440 C   0  0  0  0  0  0  0  0  0  0  0  0
   34.7760   29.6110   45.6500 C   0  0  0  0  0  0  0  0  0  0  0  0
   35.3430   30.2530   46.7340 C   0  0  0  0  0  0  0  0  0  0  0  0
   39.8790   33.2660   44.8370 C   0  0  0  0  0  0  0  0  0  0  0  0
   41.0850   32.5780   45.0960 C   0  0  0  0  0  0  0  0  0  0  0  0
   40.9820   31.2500   45.4780 C   0  0  0  0  0  0  0  0  0  0  0  0
   39.7440   30.6640   45.5910 N   0  0  0  0  0  0  0  0  0  0  0  0
   38.6070   31.3880   45.3260 C   0  0  0  0  0  0  0  0  0  0  0  0
   38.7010   32.6720   44.9550 N   0  0  0  0  0  0  0  0  0  0  0  0
   34.5120   30.2520   47.9570 C   0  0  0  0  0  0  0  0  0  0  0  0
   34.1210   28.9120   48.4460 C   0  0  0  0  0  0  0  0  0  0  0  0
   34.3080   28.7980   49.8720 N   0  0  0  0  0  0  0  0  0  0  0  0
   35.6620   29.3180   51.8160 N   0  0  0  0  0  0  0  0  0  0  0  0
   37.0090   29.8980   51.9280 C   0  0  0  0  0  0  0  0  0  0  0  0
   37.7660   29.2710   50.7700 C   0  0  0  0  0  0  0  0  0  0  0  0
   36.6790   28.6250   49.9000 C   0  0  0  0  0  0  0  0  0  0  0  0
   35.4680   29.4120   50.4000 C   0  0  1  0  0  0  0  0  0  0  0  0
   37.2585   30.0867   43.4291 H   0  0  0  0  0  0  0  0  0  0  0  0
   35.0091   29.0323   43.5724 H   0  0  0  0  0  0  0  0  0  0  0  0
   33.7806   29.1531   45.7470 H   0  0  0  0  0  0  0  0  0  0  0  0
   39.9190   34.3214   44.5296 H   0  0  0  0  0  0  0  0  0  0  0  0
   42.0620   33.0740   44.9988 H   0  0  0  0  0  0  0  0  0  0  0  0
   41.8895   30.6658   45.6904 H   0  0  0  0  0  0  0  0  0  0  0  0
   35.0785   30.7545   48.7549 H   0  0  0  0  0  0  0  0  0  0  0  0
   33.5769   30.7681   47.6937 H   0  0  0  0  0  0  0  0  0  0  0  0
   33.0608   28.7396   48.2089 H   0  0  0  0  0  0  0  0  0  0  0  0
   34.7576   28.1633   47.9519 H   0  0  0  0  0  0  0  0  0  0  0  0
   33.4902   29.2235   50.3314 H   0  0  0  0  0  0  0  0  0  0  0  0
   35.6382   28.3409   52.1411 H   0  0  0  0  0  0  0  0  0  0  0  0
   36.9746   30.9929   51.8277 H   0  0  0  0  0  0  0  0  0  0  0  0
   37.4793   29.7007   52.9026 H   0  0  0  0  0  0  0  0  0  0  0  0
   38.3122   30.0387   50.2023 H   0  0  0  0  0  0  0  0  0  0  0  0
   38.5166   28.5418   51.1089 H   0  0  0  0  0  0  0  0  0  0  0  0
   36.5799   27.5474   50.0974 H   0  0  0  0  0  0  0  0  0  0  0  0
   36.8551   28.6693   48.8151 H   0  0  0  0  0  0  0  0  0  0  0  0
   35.3561   30.4646   50.1009 H   0  0  0  0  0  0  0  0  0  0  0  0
  2  7  2  0
  2  1  1  0
  3  2  1  0
  4  5  1  0
  4  3  2  0
  5  6  2  0
  6  7  1  0
  7 14  1  0
  8 13  2  0
  8  9  1  0
  9 10  2  0
 10 11  1  0
 12  3  1  0
 12 11  2  0
 13 12  1  0
 14 15  1  0
 15 16  1  0
 17 18  1  0
 19 18  1  0
 20 21  1  0
 20 19  1  0
 21 16  1  0
 21 17  1  0
  4 22  1  0
  5 23  1  0
  6 24  1  0
  8 25  1  0
  9 26  1  0
 10 27  1  0
 14 28  1  0
 14 29  1  0
 15 30  1  0
 15 31  1  0
 16 32  1  0
 17 33  1  0
 18 34  1  0
 18 35  1  0
 19 36  1  0
 19 37  1  0
 20 38  1  0
 20 39  1  0
 21 40  1  6
M  ISO  8  22  14  23  14  24  14  25  14  26  14  27  14  28   8  29   8
M  ISO  8  30   8  31   8  32   5  33   5  34  13  35  13  36  13  37  13
M  ISO  3  38  13  39  13  40  13
M  END
>  <minimizedAffinity>  (1) 
-4.77582407

>  <minimizedRMSD>  (1) 
1.42234278

$$$$
