
     RDKit          3D

 36 39  0  0  1  0  0  0  0  0999 V2000
   38.1090   32.5660   49.0630 C   0  0  0  0  0  0  0  0  0  0  0  0
   38.7730   33.6880   49.5030 C   0  0  0  0  0  0  0  0  0  0  0  0
   39.6920   34.2310   48.5960 C   0  0  0  0  0  0  0  0  0  0  0  0
   39.8850   33.6570   47.3760 N   0  0  0  0  0  0  0  0  0  0  0  0
   39.2150   32.5520   46.9750 C   0  0  0  0  0  0  0  0  0  0  0  0
   38.3170   32.0080   47.8400 N   0  0  0  0  0  0  0  0  0  0  0  0
   39.8340   32.7650   44.6330 C   0  0  0  0  0  0  0  0  0  0  0  0
   39.4370   31.9410   45.6630 C   0  0  0  0  0  0  0  0  0  0  0  0
   39.2610   30.5850   45.4290 C   0  0  0  0  0  0  0  0  0  0  0  0
   39.4670   30.0050   44.1920 C   0  0  0  0  0  0  0  0  0  0  0  0
   39.3670   28.7510   43.7070 N   0  0  0  0  0  0  0  0  0  0  0  0
   39.6980   28.8240   42.4090 C   0  0  0  0  0  0  0  0  0  0  0  0
   40.0040   30.1060   42.0730 N   0  0  0  0  0  0  0  0  0  0  0  0
   39.8680   30.8690   43.1760 C   0  0  0  0  0  0  0  0  0  0  0  0
   40.0500   32.2200   43.3810 C   0  0  0  0  0  0  0  0  0  0  0  0
   37.1140   31.9390   50.0120 C   0  0  1  0  0  0  0  0  0  0  0  0
   36.0930   31.0350   49.5370 C   0  0  2  0  0  0  0  0  0  0  0  0
   37.3640   30.4460   50.1970 C   0  0  2  0  0  0  0  0  0  0  0  0
   37.3140   29.7720   51.8530 S   0  0  0  0  0  0  0  0  0  0  0  0
   36.0010   30.7620   48.2170 O   0  0  0  0  0  0  0  0  0  0  0  0
   35.0940   30.3350   47.3470 C   0  0  0  0  0  0  0  0  0  0  0  0
   35.5540   30.0340   46.2010 O   0  0  0  0  0  0  0  0  0  0  0  0
   33.7990   30.2770   47.8020 N   0  0  0  0  0  0  0  0  0  0  0  0
   38.5949   34.1270   50.4957 H   0  0  0  0  0  0  0  0  0  0  0  0
   40.2633   35.1297   48.8717 H   0  0  0  0  0  0  0  0  0  0  0  0
   39.9772   33.8421   44.8044 H   0  0  0  0  0  0  0  0  0  0  0  0
   38.9437   29.9437   46.2645 H   0  0  0  0  0  0  0  0  0  0  0  0
   39.0917   27.9065   44.2284 H   0  0  0  0  0  0  0  0  0  0  0  0
   39.7189   27.9699   41.7161 H   0  0  0  0  0  0  0  0  0  0  0  0
   40.3672   32.8646   42.5480 H   0  0  0  0  0  0  0  0  0  0  0  0
   37.0271   32.8364   50.6421 H   0  0  0  0  0  0  0  0  0  0  0  0
   35.0060   31.0025   49.7022 H   0  0  0  0  0  0  0  0  0  0  0  0
   38.1265   29.7062   49.9121 H   0  0  0  0  0  0  0  0  0  0  0  0
   37.3897   30.7925   52.7639 H   0  0  0  0  0  0  0  0  0  0  0  0
   33.0473   29.9541   47.1763 H   0  0  0  0  0  0  0  0  0  0  0  0
   33.5798   30.5564   48.7688 H   0  0  0  0  0  0  0  0  0  0  0  0
  1  2  2  0
  1 16  1  0
  3  2  1  0
  4  3  2  0
  5  4  1  0
  5  6  2  0
  6  1  1  0
  7  8  2  0
  8  5  1  0
  9  8  1  0
 10  9  2  0
 11 10  1  0
 12 11  1  0
 13 12  2  0
 13 14  1  0
 14 15  2  0
 14 10  1  0
 15  7  1  0
 16 18  1  0
 17 16  1  0
 17 18  1  0
 18 19  1  0
 20 17  1  0
 21 23  1  0
 21 20  1  0
 22 21  2  0
  2 24  1  0
  3 25  1  0
  7 26  1  0
  9 27  1  0
 11 28  1  0
 12 29  1  0
 15 30  1  0
 16 31  1  1
 17 32  1  1
 18 33  1  6
 19 34  1  0
 23 35  1  0
 23 36  1  0
M  ISO  8  24  14  25  14  26  14  27  14  28   9  29  14  30  14  31  13
M  ISO  3  32  13  33  13  34  11
M  END
>  <minimizedAffinity>  (1) 
-6.56934166

>  <minimizedRMSD>  (1) 
1.55207539

$$$$
