
     RDKit          3D

 32 34  0  0  1  0  0  0  0  0999 V2000
   36.8690   29.5090   51.1380 C   0  0  0  0  0  0  0  0  0  0  0  0
   37.7110   30.5810   50.7990 C   0  0  0  0  0  0  0  0  0  0  0  0
   37.7510   30.9850   49.4750 C   0  0  0  0  0  0  0  0  0  0  0  0
   36.9730   30.3150   48.6130 N   0  0  0  0  0  0  0  0  0  0  0  0
   36.1570   29.2830   48.9200 C   0  0  0  0  0  0  0  0  0  0  0  0
   36.1210   28.8900   50.2150 N   0  0  0  0  0  0  0  0  0  0  0  0
   38.5490   32.0460   49.0070 N   0  0  0  0  0  0  0  0  0  0  0  0
   38.9170   33.1890   49.8440 C   0  0  0  0  0  0  0  0  0  0  0  0
   39.6320   34.1470   48.9260 C   0  0  0  0  0  0  0  0  0  0  0  0
   39.0470   33.7500   47.5940 C   0  0  0  0  0  0  0  0  0  0  0  0
   39.1380   32.2550   47.7530 C   0  0  2  0  0  0  0  0  0  0  0  0
   41.0140   30.7910   46.1430 F   0  0  0  0  0  0  0  0  0  0  0  0
   39.6770   30.8580   45.8980 C   0  0  0  0  0  0  0  0  0  0  0  0
   38.6640   31.5020   46.6010 C   0  0  0  0  0  0  0  0  0  0  0  0
   37.3720   31.3730   46.1290 C   0  0  0  0  0  0  0  0  0  0  0  0
   37.0480   30.6500   45.0160 C   0  0  0  0  0  0  0  0  0  0  0  0
   38.0600   30.0050   44.3090 C   0  0  0  0  0  0  0  0  0  0  0  0
   39.3700   30.1160   44.7600 C   0  0  0  0  0  0  0  0  0  0  0  0
   36.8228   29.1706   52.1836 H   0  0  0  0  0  0  0  0  0  0  0  0
   38.3210   31.0850   51.5631 H   0  0  0  0  0  0  0  0  0  0  0  0
   35.5485   28.7839   48.1514 H   0  0  0  0  0  0  0  0  0  0  0  0
   38.0179   33.6608   50.2672 H   0  0  0  0  0  0  0  0  0  0  0  0
   39.5498   32.8871   50.6916 H   0  0  0  0  0  0  0  0  0  0  0  0
   39.4015   35.1937   49.1738 H   0  0  0  0  0  0  0  0  0  0  0  0
   40.7295   34.0931   48.9761 H   0  0  0  0  0  0  0  0  0  0  0  0
   39.6503   34.1154   46.7499 H   0  0  0  0  0  0  0  0  0  0  0  0
   38.0462   34.1487   47.3716 H   0  0  0  0  0  0  0  0  0  0  0  0
   40.1578   31.8426   47.7555 H   0  0  0  0  0  0  0  0  0  0  0  0
   36.5631   31.8781   46.6772 H   0  0  0  0  0  0  0  0  0  0  0  0
   36.0022   30.5782   44.6828 H   0  0  0  0  0  0  0  0  0  0  0  0
   37.8264   29.4176   43.4088 H   0  0  0  0  0  0  0  0  0  0  0  0
   40.1768   29.6100   44.2096 H   0  0  0  0  0  0  0  0  0  0  0  0
  2  1  2  0
  3  2  1  0
  4  5  1  0
  4  3  2  0
  5  6  2  0
  6  1  1  0
  7  3  1  0
  7  8  1  0
  9  8  1  0
 10 11  1  0
 10  9  1  0
 11  7  1  0
 13 12  1  0
 13 14  2  0
 14 11  1  0
 15 14  1  0
 16 15  2  0
 17 18  2  0
 17 16  1  0
 18 13  1  0
  1 19  1  0
  2 20  1  0
  5 21  1  0
  8 22  1  0
  8 23  1  0
  9 24  1  0
  9 25  1  0
 10 26  1  0
 10 27  1  0
 11 28  1  1
 15 29  1  0
 16 30  1  0
 17 31  1  0
 18 32  1  0
M  ISO  8  19  14  20  14  21  14  22  13  23  13  24  13  25  13  26  13
M  ISO  6  27  13  28  13  29  14  30  14  31  14  32  14
M  END
>  <minimizedAffinity>  (1) 
-5.49504805

>  <minimizedRMSD>  (1) 
2.17024922

$$$$
