
     RDKit          3D

 38 40  0  0  1  0  0  0  0  0999 V2000
   36.6320   29.6280   49.2300 C   0  0  0  0  0  0  0  0  0  0  0  0
   37.6570   30.3440   48.5750 C   0  0  0  0  0  0  0  0  0  0  0  0
   37.3820   30.7960   47.2700 C   0  0  0  0  0  0  0  0  0  0  0  0
   36.1690   30.5240   46.7230 N   0  0  0  0  0  0  0  0  0  0  0  0
   35.2140   29.8310   47.3910 C   0  0  0  0  0  0  0  0  0  0  0  0
   35.4430   29.3870   48.6360 N   0  0  0  0  0  0  0  0  0  0  0  0
   38.3690   31.5250   46.5510 N   0  0  0  0  0  0  0  0  0  0  0  0
   39.3520   32.4010   47.1470 C   0  0  0  0  0  0  0  0  0  0  0  0
   40.0150   33.1080   45.9960 C   0  0  0  0  0  0  0  0  0  0  0  0
   39.0060   32.9500   44.8890 C   0  0  0  0  0  0  0  0  0  0  0  0
   38.5600   31.5190   45.1300 C   0  0  1  0  0  0  0  0  0  0  0  0
   39.6370   30.5600   44.6910 C   0  0  0  0  0  0  0  0  0  0  0  0
   40.3580   31.1320   43.5080 C   0  0  0  0  0  0  0  0  0  0  0  0
   40.7100   30.1020   42.4670 C   0  0  0  0  0  0  0  0  0  0  0  0
   39.4510   29.4900   41.8960 C   0  0  0  0  0  0  0  0  0  0  0  0
   38.3600   29.3550   42.9200 C   0  0  0  0  0  0  0  0  0  0  0  0
   39.0090   29.2480   44.2770 C   0  0  0  0  0  0  0  0  0  0  0  0
   36.8060   29.2566   50.2507 H   0  0  0  0  0  0  0  0  0  0  0  0
   38.6244   30.5396   49.0607 H   0  0  0  0  0  0  0  0  0  0  0  0
   34.2455   29.6316   46.9091 H   0  0  0  0  0  0  0  0  0  0  0  0
   38.8648   33.1271   47.8143 H   0  0  0  0  0  0  0  0  0  0  0  0
   40.0791   31.8428   47.7550 H   0  0  0  0  0  0  0  0  0  0  0  0
   40.1872   34.1694   46.2279 H   0  0  0  0  0  0  0  0  0  0  0  0
   41.0064   32.7025   45.7458 H   0  0  0  0  0  0  0  0  0  0  0  0
   39.4672   33.0710   43.8977 H   0  0  0  0  0  0  0  0  0  0  0  0
   38.1944   33.6925   44.8966 H   0  0  0  0  0  0  0  0  0  0  0  0
   37.6644   31.2011   44.5761 H   0  0  0  0  0  0  0  0  0  0  0  0
   40.3370   30.3978   45.5239 H   0  0  0  0  0  0  0  0  0  0  0  0
   39.7147   31.8930   43.0421 H   0  0  0  0  0  0  0  0  0  0  0  0
   41.3031   31.5564   43.8776 H   0  0  0  0  0  0  0  0  0  0  0  0
   41.2804   30.5822   41.6582 H   0  0  0  0  0  0  0  0  0  0  0  0
   41.3157   29.3110   42.9332 H   0  0  0  0  0  0  0  0  0  0  0  0
   39.0887   30.1286   41.0769 H   0  0  0  0  0  0  0  0  0  0  0  0
   39.7024   28.4797   41.5410 H   0  0  0  0  0  0  0  0  0  0  0  0
   37.7053   30.2384   42.8874 H   0  0  0  0  0  0  0  0  0  0  0  0
   37.7504   28.4625   42.7152 H   0  0  0  0  0  0  0  0  0  0  0  0
   38.2461   28.9664   45.0178 H   0  0  0  0  0  0  0  0  0  0  0  0
   39.8004   28.4858   44.2241 H   0  0  0  0  0  0  0  0  0  0  0  0
  2  1  2  0
  3  2  1  0
  4  3  2  0
  4  5  1  0
  5  6  2  0
  6  1  1  0
  7  8  1  0
  7  3  1  0
  9  8  1  0
 10 11  1  0
 10  9  1  0
 11  7  1  0
 12 11  1  0
 13 12  1  0
 14 13  1  0
 15 14  1  0
 15 16  1  0
 16 17  1  0
 17 12  1  0
  1 18  1  0
  2 19  1  0
  5 20  1  0
  8 21  1  0
  8 22  1  0
  9 23  1  0
  9 24  1  0
 10 25  1  0
 10 26  1  0
 11 27  1  6
 12 28  1  0
 13 29  1  0
 13 30  1  0
 14 31  1  0
 14 32  1  0
 15 33  1  0
 15 34  1  0
 16 35  1  0
 16 36  1  0
 17 37  1  0
 17 38  1  0
M  ISO  8  18  14  19  14  20  14  21  13  22  13  23  13  24  13  25  13
M  ISO  8  26  13  27  13  28  13  29  13  30  13  31  13  32  13  33  13
M  ISO  5  34  13  35  13  36  13  37  13  38  13
M  END
>  <minimizedAffinity>  (1) 
-5.13239861

>  <minimizedRMSD>  (1) 
2.45756602

$$$$
