
     RDKit          3D

 23 24  0  0  1  0  0  0  0  0999 V2000
   37.5240   30.4960   50.8410 C   0  0  0  0  0  0  0  0  0  0  0  0
   38.3120   31.2180   49.9190 C   0  0  0  0  0  0  0  0  0  0  0  0
   38.0680   31.0030   48.5500 C   0  0  0  0  0  0  0  0  0  0  0  0
   37.0970   30.1180   48.2000 N   0  0  0  0  0  0  0  0  0  0  0  0
   36.3580   29.4400   49.1150 C   0  0  0  0  0  0  0  0  0  0  0  0
   36.5690   29.6270   50.4250 N   0  0  0  0  0  0  0  0  0  0  0  0
   38.8140   31.6870   47.5710 N   0  0  0  0  0  0  0  0  0  0  0  0
   39.3600   33.0290   47.7300 C   0  0  0  0  0  0  0  0  0  0  0  0
   39.8640   33.4210   46.3640 C   0  0  0  0  0  0  0  0  0  0  0  0
   39.0960   32.5040   45.4580 C   0  0  0  0  0  0  0  0  0  0  0  0
   39.1680   31.2090   46.2670 C   0  0  1  0  0  0  0  0  0  0  0  0
   40.4460   30.6630   46.2170 O   0  0  0  0  0  0  0  0  0  0  0  0
   37.6877   30.6410   51.9191 H   0  0  0  0  0  0  0  0  0  0  0  0
   39.0869   31.9215   50.2576 H   0  0  0  0  0  0  0  0  0  0  0  0
   35.5833   28.7347   48.7798 H   0  0  0  0  0  0  0  0  0  0  0  0
   38.5776   33.7254   48.0660 H   0  0  0  0  0  0  0  0  0  0  0  0
   40.1596   33.0584   48.4849 H   0  0  0  0  0  0  0  0  0  0  0  0
   39.6396   34.4754   46.1451 H   0  0  0  0  0  0  0  0  0  0  0  0
   40.9550   33.3301   46.2568 H   0  0  0  0  0  0  0  0  0  0  0  0
   39.5813   32.3995   44.4764 H   0  0  0  0  0  0  0  0  0  0  0  0
   38.0779   32.8410   45.2130 H   0  0  0  0  0  0  0  0  0  0  0  0
   38.5214   30.3936   45.9104 H   0  0  0  0  0  0  0  0  0  0  0  0
   40.7801   30.5203   47.1379 H   0  0  0  0  0  0  0  0  0  0  0  0
  2  1  2  0
  3  2  1  0
  4  3  2  0
  4  5  1  0
  5  6  2  0
  6  1  1  0
  7  8  1  0
  7  3  1  0
  9  8  1  0
 10 11  1  0
 10  9  1  0
 11  7  1  0
 12 11  1  0
  1 13  1  0
  2 14  1  0
  5 15  1  0
  8 16  1  0
  8 17  1  0
  9 18  1  0
  9 19  1  0
 10 20  1  0
 10 21  1  0
 11 22  1  6
 12 23  1  0
M  ISO  8  13  14  14  14  15  14  16  13  17  13  18  13  19  13  20  13
M  ISO  3  21  13  22  13  23   3
M  END
>  <minimizedAffinity>  (1) 
-4.84111404

>  <minimizedRMSD>  (1) 
0.887328804

$$$$
