
     RDKit          3D

 32 34  0  0  1  0  0  0  0  0999 V2000
   36.6830   29.7810   48.9590 C   0  0  0  0  0  0  0  0  0  0  0  0
   37.7290   30.4720   48.3120 C   0  0  0  0  0  0  0  0  0  0  0  0
   37.5270   30.9020   47.0100 C   0  0  0  0  0  0  0  0  0  0  0  0
   36.3340   30.6180   46.4680 N   0  0  0  0  0  0  0  0  0  0  0  0
   35.3260   29.9590   47.0720 C   0  0  0  0  0  0  0  0  0  0  0  0
   35.5140   29.5400   48.3340 N   0  0  0  0  0  0  0  0  0  0  0  0
   38.4890   31.6000   46.2630 N   0  0  0  0  0  0  0  0  0  0  0  0
   39.5320   32.4260   46.8750 C   0  0  0  0  0  0  0  0  0  0  0  0
   40.3340   32.9510   45.6930 C   0  0  0  0  0  0  0  0  0  0  0  0
   39.1940   33.0390   44.6700 C   0  0  0  0  0  0  0  0  0  0  0  0
   38.6760   31.6670   44.8650 C   0  0  2  0  0  0  0  0  0  0  0  0
   39.0950   28.7680   43.8660 Cl  0  0  0  0  0  0  0  0  0  0  0  0
   37.8230   29.8880   43.4810 C   0  0  0  0  0  0  0  0  0  0  0  0
   37.6530   31.1810   43.9770 C   0  0  0  0  0  0  0  0  0  0  0  0
   36.5330   31.9070   43.5610 C   0  0  0  0  0  0  0  0  0  0  0  0
   35.6300   31.3670   42.6940 C   0  0  0  0  0  0  0  0  0  0  0  0
   35.7840   30.1130   42.2040 C   0  0  0  0  0  0  0  0  0  0  0  0
   36.8890   29.3560   42.5950 C   0  0  0  0  0  0  0  0  0  0  0  0
   36.8244   29.4326   49.9927 H   0  0  0  0  0  0  0  0  0  0  0  0
   38.6812   30.6647   48.8280 H   0  0  0  0  0  0  0  0  0  0  0  0
   34.3778   29.7699   46.5474 H   0  0  0  0  0  0  0  0  0  0  0  0
   39.0883   33.2558   47.4448 H   0  0  0  0  0  0  0  0  0  0  0  0
   40.1519   31.8622   47.5877 H   0  0  0  0  0  0  0  0  0  0  0  0
   40.7828   33.9338   45.8997 H   0  0  0  0  0  0  0  0  0  0  0  0
   41.2000   32.3424   45.3937 H   0  0  0  0  0  0  0  0  0  0  0  0
   39.5585   33.2104   43.6464 H   0  0  0  0  0  0  0  0  0  0  0  0
   38.4754   33.8615   44.8009 H   0  0  0  0  0  0  0  0  0  0  0  0
   39.3790   30.8940   44.5211 H   0  0  0  0  0  0  0  0  0  0  0  0
   36.3781   32.9285   43.9386 H   0  0  0  0  0  0  0  0  0  0  0  0
   34.7577   31.9620   42.3856 H   0  0  0  0  0  0  0  0  0  0  0  0
   35.0447   29.6957   41.5045 H   0  0  0  0  0  0  0  0  0  0  0  0
   37.0228   28.3370   42.2028 H   0  0  0  0  0  0  0  0  0  0  0  0
  2  1  2  0
  3  2  1  0
  4  3  2  0
  4  5  1  0
  5  6  2  0
  6  1  1  0
  7  8  1  0
  7  3  1  0
  9  8  1  0
 10 11  1  0
 10  9  1  0
 11  7  1  0
 13 12  1  0
 13 14  2  0
 14 11  1  0
 15 14  1  0
 16 15  2  0
 17 18  2  0
 17 16  1  0
 18 13  1  0
  1 19  1  0
  2 20  1  0
  5 21  1  0
  8 22  1  0
  8 23  1  0
  9 24  1  0
  9 25  1  0
 10 26  1  0
 10 27  1  0
 11 28  1  1
 15 29  1  0
 16 30  1  0
 17 31  1  0
 18 32  1  0
M  ISO  8  19  14  20  14  21  14  22  13  23  13  24  13  25  13  26  13
M  ISO  6  27  13  28  13  29  14  30  14  31  14  32  14
M  END
>  <minimizedAffinity>  (1) 
-4.72312927

>  <minimizedRMSD>  (1) 
2.68762946

$$$$
