
     RDKit          3D

 24 25  0  0  1  0  0  0  0  0999 V2000
   37.4590   30.8450   50.4280 C   0  0  0  0  0  0  0  0  0  0  0  0
   38.2510   31.3030   49.3500 C   0  0  0  0  0  0  0  0  0  0  0  0
   37.6520   31.2920   48.0730 C   0  0  0  0  0  0  0  0  0  0  0  0
   36.3750   30.8510   47.9590 N   0  0  0  0  0  0  0  0  0  0  0  0
   35.6440   30.4190   49.0120 C   0  0  0  0  0  0  0  0  0  0  0  0
   36.1950   30.4220   50.2320 N   0  0  0  0  0  0  0  0  0  0  0  0
   38.3890   31.7350   46.9530 N   0  0  0  0  0  0  0  0  0  0  0  0
   39.4600   32.7170   46.9690 C   0  0  0  0  0  0  0  0  0  0  0  0
   39.7710   33.0200   45.5370 C   0  0  0  0  0  0  0  0  0  0  0  0
   38.5440   32.5640   44.8280 C   0  0  0  0  0  0  0  0  0  0  0  0
   38.2150   31.2940   45.6010 C   0  0  1  0  0  0  0  0  0  0  0  0
   39.1440   30.1940   45.2320 C   0  0  0  0  0  0  0  0  0  0  0  0
   38.9800   29.4580   44.2490 O   0  0  0  0  0  0  0  0  0  0  0  0
   37.8818   30.8339   51.4434 H   0  0  0  0  0  0  0  0  0  0  0  0
   39.2837   31.6509   49.4998 H   0  0  0  0  0  0  0  0  0  0  0  0
   34.6109   30.0700   48.8678 H   0  0  0  0  0  0  0  0  0  0  0  0
   39.1329   33.6293   47.4893 H   0  0  0  0  0  0  0  0  0  0  0  0
   40.3452   32.3356   47.4991 H   0  0  0  0  0  0  0  0  0  0  0  0
   39.9377   34.0969   45.3873 H   0  0  0  0  0  0  0  0  0  0  0  0
   40.6882   32.5302   45.1780 H   0  0  0  0  0  0  0  0  0  0  0  0
   37.7344   33.3047   44.9050 H   0  0  0  0  0  0  0  0  0  0  0  0
   38.6752   32.4145   43.7461 H   0  0  0  0  0  0  0  0  0  0  0  0
   37.2159   30.8770   45.4061 H   0  0  0  0  0  0  0  0  0  0  0  0
   40.0260   30.0240   45.8669 H   0  0  0  0  0  0  0  0  0  0  0  0
  2  1  2  0
  3  2  1  0
  4  3  2  0
  4  5  1  0
  5  6  2  0
  6  1  1  0
  7  8  1  0
  7  3  1  0
  9  8  1  0
 10  9  1  0
 10 11  1  0
 11  7  1  0
 12 11  1  0
 13 12  2  0
  1 14  1  0
  2 15  1  0
  5 16  1  0
  8 17  1  0
  8 18  1  0
  9 19  1  0
  9 20  1  0
 10 21  1  0
 10 22  1  0
 11 23  1  1
 12 24  1  0
M  ISO  8  14  14  15  14  16  14  17  13  18  13  19  13  20  13  21  13
M  ISO  3  22  13  23  13  24   6
M  END
>  <minimizedAffinity>  (1) 
-4.37207937

>  <minimizedRMSD>  (1) 
1.30813718

$$$$
