
     RDKit          3D

 35 37  0  0  0  0  0  0  0  0999 V2000
   38.5330   31.1210   47.5550 Br  0  0  0  0  0  0  0  0  0  0  0  0
   37.0990   30.6880   46.3910 C   0  0  0  0  0  0  0  0  0  0  0  0
   35.9860   30.1700   47.0030 C   0  0  0  0  0  0  0  0  0  0  0  0
   34.8780   29.8220   46.2150 C   0  0  0  0  0  0  0  0  0  0  0  0
   34.9300   30.0090   44.8350 C   0  0  0  0  0  0  0  0  0  0  0  0
   36.0800   30.5320   44.3060 C   0  0  0  0  0  0  0  0  0  0  0  0
   37.1840   30.8830   45.0540 C   0  0  0  0  0  0  0  0  0  0  0  0
   36.7500   29.3960   49.2920 C   0  0  0  0  0  0  0  0  0  0  0  0
   35.7740   29.9150   48.4170 C   0  0  0  0  0  0  0  0  0  0  0  0
   34.5080   30.2000   48.9700 C   0  0  0  0  0  0  0  0  0  0  0  0
   34.3100   29.9580   50.3060 N   0  0  0  0  0  0  0  0  0  0  0  0
   35.2900   29.4610   51.0880 C   0  0  0  0  0  0  0  0  0  0  0  0
   36.5150   29.1760   50.5840 N   0  0  0  0  0  0  0  0  0  0  0  0
   38.3510   31.4220   44.4430 N   0  0  0  0  0  0  0  0  0  0  0  0
   38.6380   32.8210   44.2010 C   0  0  0  0  0  0  0  0  0  0  0  0
   39.2070   33.0490   42.8440 C   0  0  0  0  0  0  0  0  0  0  0  0
   39.8920   31.8660   42.2310 C   0  0  0  0  0  0  0  0  0  0  0  0
   40.3760   30.8530   43.2350 C   0  0  0  0  0  0  0  0  0  0  0  0
   39.2370   30.3250   44.0900 C   0  0  0  0  0  0  0  0  0  0  0  0
   33.9746   29.4044   46.6835 H   0  0  0  0  0  0  0  0  0  0  0  0
   34.0768   29.7456   44.1927 H   0  0  0  0  0  0  0  0  0  0  0  0
   36.1258   30.6813   43.2171 H   0  0  0  0  0  0  0  0  0  0  0  0
   37.7473   29.1631   48.8906 H   0  0  0  0  0  0  0  0  0  0  0  0
   33.6990   30.6065   48.3452 H   0  0  0  0  0  0  0  0  0  0  0  0
   35.0910   29.2837   52.1552 H   0  0  0  0  0  0  0  0  0  0  0  0
   37.7051   33.3961   44.2958 H   0  0  0  0  0  0  0  0  0  0  0  0
   39.3843   33.1468   44.9406 H   0  0  0  0  0  0  0  0  0  0  0  0
   38.3856   33.3496   42.1770 H   0  0  0  0  0  0  0  0  0  0  0  0
   39.9814   33.8209   42.9642 H   0  0  0  0  0  0  0  0  0  0  0  0
   39.1836   31.3692   41.5517 H   0  0  0  0  0  0  0  0  0  0  0  0
   40.7815   32.2476   41.7083 H   0  0  0  0  0  0  0  0  0  0  0  0
   40.8393   30.0118   42.6985 H   0  0  0  0  0  0  0  0  0  0  0  0
   41.1036   31.3452   43.8970 H   0  0  0  0  0  0  0  0  0  0  0  0
   38.6752   29.5664   43.5254 H   0  0  0  0  0  0  0  0  0  0  0  0
   39.6440   29.8716   45.0058 H   0  0  0  0  0  0  0  0  0  0  0  0
  2  3  2  0
  2  1  1  0
  3  9  1  0
  4  3  1  0
  5  4  2  0
  6  5  1  0
  6  7  2  0
  7  2  1  0
  8 13  2  0
  9 10  2  0
  9  8  1  0
 10 11  1  0
 11 12  2  0
 13 12  1  0
 14  7  1  0
 15 14  1  0
 16 15  1  0
 17 16  1  0
 17 18  1  0
 18 19  1  0
 19 14  1  0
  4 20  1  0
  5 21  1  0
  6 22  1  0
  8 23  1  0
 10 24  1  0
 12 25  1  0
 15 26  1  0
 15 27  1  0
 16 28  1  0
 16 29  1  0
 17 30  1  0
 17 31  1  0
 18 32  1  0
 18 33  1  0
 19 34  1  0
 19 35  1  0
M  ISO  8  20  14  21  14  22  14  23  14  24  14  25  14  26  13  27  13
M  ISO  8  28  13  29  13  30  13  31  13  32  13  33  13  34  13  35  13
M  END
>  <minimizedAffinity>  (1) 
-5.10469007

>  <minimizedRMSD>  (1) 
3.89550471

$$$$
