
     RDKit          3D

 43 45  0  0  1  0  0  0  0  0999 V2000
   36.7330   29.8100   49.4270 C   0  0  0  0  0  0  0  0  0  0  0  0
   37.7110   30.5100   48.7000 C   0  0  0  0  0  0  0  0  0  0  0  0
   37.4270   30.8220   47.3620 C   0  0  0  0  0  0  0  0  0  0  0  0
   36.2530   30.4390   46.8570 N   0  0  0  0  0  0  0  0  0  0  0  0
   35.3340   29.7700   47.5730 C   0  0  0  0  0  0  0  0  0  0  0  0
   35.5760   29.4590   48.8510 N   0  0  0  0  0  0  0  0  0  0  0  0
   38.3730   31.5190   46.5900 N   0  0  0  0  0  0  0  0  0  0  0  0
   39.3670   32.4660   47.1080 C   0  0  0  0  0  0  0  0  0  0  0  0
   39.9890   33.1320   45.9280 C   0  0  0  0  0  0  0  0  0  0  0  0
   39.0110   32.8650   44.8380 C   0  0  0  0  0  0  0  0  0  0  0  0
   38.5770   31.4660   45.1710 C   0  0  2  0  0  0  0  0  0  0  0  0
   37.4460   30.9860   44.3240 C   0  0  0  0  0  0  0  0  0  0  0  0
   36.2960   31.5720   44.8310 F   0  0  0  0  0  0  0  0  0  0  0  0
   37.2440   29.6380   44.3080 F   0  0  0  0  0  0  0  0  0  0  0  0
   37.6410   31.5400   43.0670 F   0  0  0  0  0  0  0  0  0  0  0  0
   39.7290   30.5430   44.9680 C   0  0  0  0  0  0  0  0  0  0  0  0
   40.2310   30.8380   43.8700 O   0  0  0  0  0  0  0  0  0  0  0  0
   40.5290   30.2120   42.7090 C   0  0  0  0  0  0  0  0  0  0  0  0
   40.4570   31.0430   41.7730 O   0  0  0  0  0  0  0  0  0  0  0  0
   40.8920   29.0870   41.9580 N   0  0  0  0  0  0  0  0  0  0  0  0
   40.2520   27.8230   42.1890 C   0  0  0  0  0  0  0  0  0  0  0  0
   39.9090   27.3390   40.7720 C   0  0  0  0  0  0  0  0  0  0  0  0
   40.9950   27.9350   39.8950 C   0  0  0  0  0  0  0  0  0  0  0  0
   41.8280   28.7290   40.8780 C   0  0  0  0  0  0  0  0  0  0  0  0
   36.9195   29.5479   50.4789 H   0  0  0  0  0  0  0  0  0  0  0  0
   38.6648   30.8027   49.1633 H   0  0  0  0  0  0  0  0  0  0  0  0
   34.3812   29.4776   47.1075 H   0  0  0  0  0  0  0  0  0  0  0  0
   38.8782   33.2137   47.7499 H   0  0  0  0  0  0  0  0  0  0  0  0
   40.1261   31.9478   47.7123 H   0  0  0  0  0  0  0  0  0  0  0  0
   40.1047   34.2124   46.0994 H   0  0  0  0  0  0  0  0  0  0  0  0
   40.9998   32.7605   45.7037 H   0  0  0  0  0  0  0  0  0  0  0  0
   39.4877   32.9142   43.8479 H   0  0  0  0  0  0  0  0  0  0  0  0
   38.1873   33.5919   44.7827 H   0  0  0  0  0  0  0  0  0  0  0  0
   40.4684   30.6763   45.7715 H   0  0  0  0  0  0  0  0  0  0  0  0
   39.4036   29.4924   44.9860 H   0  0  0  0  0  0  0  0  0  0  0  0
   40.9343   27.1213   42.6911 H   0  0  0  0  0  0  0  0  0  0  0  0
   39.3715   27.8987   42.8439 H   0  0  0  0  0  0  0  0  0  0  0  0
   39.9271   26.2403   40.7211 H   0  0  0  0  0  0  0  0  0  0  0  0
   38.9008   27.6462   40.4571 H   0  0  0  0  0  0  0  0  0  0  0  0
   41.5937   27.1463   39.4159 H   0  0  0  0  0  0  0  0  0  0  0  0
   40.5997   28.5451   39.0694 H   0  0  0  0  0  0  0  0  0  0  0  0
   42.6550   28.1176   41.2682 H   0  0  0  0  0  0  0  0  0  0  0  0
   42.2869   29.6147   40.4144 H   0  0  0  0  0  0  0  0  0  0  0  0
  2  1  2  0
  3  2  1  0
  4  3  2  0
  4  5  1  0
  5  6  2  0
  6  1  1  0
  7  8  1  0
  7  3  1  0
  9  8  1  0
 10 11  1  0
 10  9  1  0
 11 12  1  6
 11  7  1  0
 12 13  1  0
 14 12  1  0
 15 12  1  0
 16 11  1  0
 17 16  1  0
 18 17  1  0
 19 18  2  0
 20 21  1  0
 20 18  1  0
 22 21  1  0
 23 22  1  0
 23 24  1  0
 24 20  1  0
  1 25  1  0
  2 26  1  0
  5 27  1  0
  8 28  1  0
  8 29  1  0
  9 30  1  0
  9 31  1  0
 10 32  1  0
 10 33  1  0
 16 34  1  0
 16 35  1  0
 21 36  1  0
 21 37  1  0
 22 38  1  0
 22 39  1  0
 23 40  1  0
 23 41  1  0
 24 42  1  0
 24 43  1  0
M  ISO  8  25  14  26  14  27  14  28  13  29  13  30  13  31  13  32  13
M  ISO  8  33  13  34   8  35   8  36  13  37  13  38  13  39  13  40  13
M  ISO  3  41  13  42  13  43  13
M  END
>  <minimizedAffinity>  (1) 
-5.3562994

>  <minimizedRMSD>  (1) 
0.629584849

$$$$
