
     RDKit          3D

 26 27  0  0  0  0  0  0  0  0999 V2000
   38.3880   31.9330   48.1320 Br  0  0  0  0  0  0  0  0  0  0  0  0
   37.2760   31.2280   46.7790 C   0  0  0  0  0  0  0  0  0  0  0  0
   36.2610   30.4050   47.2090 C   0  0  0  0  0  0  0  0  0  0  0  0
   35.3940   29.8440   46.2660 C   0  0  0  0  0  0  0  0  0  0  0  0
   35.5710   30.1270   44.9110 C   0  0  0  0  0  0  0  0  0  0  0  0
   36.5920   30.9470   44.5590 C   0  0  0  0  0  0  0  0  0  0  0  0
   37.4610   31.5130   45.4550 C   0  0  0  0  0  0  0  0  0  0  0  0
   36.8870   29.4430   49.4660 C   0  0  0  0  0  0  0  0  0  0  0  0
   35.9430   30.0120   48.5860 C   0  0  0  0  0  0  0  0  0  0  0  0
   34.6360   30.2160   49.0450 C   0  0  0  0  0  0  0  0  0  0  0  0
   34.3400   29.8490   50.3330 N   0  0  0  0  0  0  0  0  0  0  0  0
   35.2810   29.3040   51.1410 C   0  0  0  0  0  0  0  0  0  0  0  0
   36.5360   29.1030   50.7180 N   0  0  0  0  0  0  0  0  0  0  0  0
   38.5220   32.3580   45.1500 O   0  0  0  0  0  0  0  0  0  0  0  0
   40.0540   30.4160   44.2100 O   0  0  0  0  0  0  0  0  0  0  0  0
   39.9260   31.9050   44.3250 P   0  0  0  0  0  0  0  0  0  0  0  0
   39.8810   32.6570   42.8040 O   0  0  0  0  0  0  0  0  0  0  0  0
   41.2630   32.5410   45.1660 O   0  0  0  0  0  0  0  0  0  0  0  0
   34.5768   29.1831   46.5906 H   0  0  0  0  0  0  0  0  0  0  0  0
   34.9019   29.6975   44.1508 H   0  0  0  0  0  0  0  0  0  0  0  0
   36.7310   31.1712   43.4911 H   0  0  0  0  0  0  0  0  0  0  0  0
   37.9193   29.2761   49.1247 H   0  0  0  0  0  0  0  0  0  0  0  0
   33.8691   30.6577   48.3918 H   0  0  0  0  0  0  0  0  0  0  0  0
   35.0082   29.0200   52.1681 H   0  0  0  0  0  0  0  0  0  0  0  0
   39.8223   33.6381   42.9226 H   0  0  0  0  0  0  0  0  0  0  0  0
   41.1058   32.4662   46.1406 H   0  0  0  0  0  0  0  0  0  0  0  0
  2  3  2  0
  2  1  1  0
  3  9  1  0
  4  3  1  0
  5  4  2  0
  6  5  1  0
  6  7  2  0
  7  2  1  0
  8 13  2  0
  9 10  2  0
  9  8  1  0
 10 11  1  0
 11 12  2  0
 13 12  1  0
 14  7  1  0
 15 16  2  0
 16 14  1  0
 16 18  1  0
 17 16  1  0
  4 19  1  0
  5 20  1  0
  6 21  1  0
  8 22  1  0
 10 23  1  0
 12 24  1  0
 17 25  1  0
 18 26  1  0
M  ISO  8  19  14  20  14  21  14  22  14  23  14  24  14  25   3  26   3
M  END
>  <minimizedAffinity>  (1) 
-4.82848644

>  <minimizedRMSD>  (1) 
3.12528086

$$$$
