
     RDKit          3D

 41 43  0  0  1  0  0  0  0  0999 V2000
   34.4580   29.5950   46.4420 C   0  0  0  0  0  0  0  0  0  0  0  0
   35.3960   30.3750   45.7320 C   0  0  0  0  0  0  0  0  0  0  0  0
   35.8000   29.8940   44.4850 C   0  0  0  0  0  0  0  0  0  0  0  0
   35.2890   28.7380   44.0300 N   0  0  0  0  0  0  0  0  0  0  0  0
   34.3960   28.0210   44.7370 C   0  0  0  0  0  0  0  0  0  0  0  0
   33.9870   28.4470   45.9280 N   0  0  0  0  0  0  0  0  0  0  0  0
   36.7250   30.6030   43.7230 N   0  0  0  0  0  0  0  0  0  0  0  0
   36.8800   32.0830   43.6990 C   0  0  0  0  0  0  0  0  0  0  0  0
   37.7780   32.4270   42.5770 C   0  0  0  0  0  0  0  0  0  0  0  0
   37.7750   31.2270   41.7480 C   0  0  0  0  0  0  0  0  0  0  0  0
   37.7100   30.1700   42.7860 C   0  0  2  0  0  0  0  0  0  0  0  0
   37.4130   28.8180   42.1310 C   0  0  0  0  0  0  0  0  0  0  0  0
   36.0980   28.8190   41.7190 F   0  0  0  0  0  0  0  0  0  0  0  0
   37.5660   27.7300   42.9390 F   0  0  0  0  0  0  0  0  0  0  0  0
   38.1850   28.7540   40.9930 F   0  0  0  0  0  0  0  0  0  0  0  0
   38.9450   30.0050   43.4940 C   0  0  2  0  0  0  0  0  0  0  0  0
   39.2650   30.9820   44.6990 C   0  0  0  0  0  0  0  0  0  0  0  0
   38.8960   30.7390   46.0170 C   0  0  0  0  0  0  0  0  0  0  0  0
   39.1630   31.6900   46.9710 C   0  0  0  0  0  0  0  0  0  0  0  0
   39.7680   32.8400   46.6580 N   0  0  0  0  0  0  0  0  0  0  0  0
   40.1360   33.1030   45.3990 C   0  0  0  0  0  0  0  0  0  0  0  0
   39.8680   32.1730   44.5030 N   0  0  0  0  0  0  0  0  0  0  0  0
   39.8880   30.3030   42.7160 O   0  0  0  0  0  0  0  0  0  0  0  0
   40.9860   29.7520   42.1760 C   0  0  0  0  0  0  0  0  0  0  0  0
   41.2280   30.2040   41.0560 O   0  0  0  0  0  0  0  0  0  0  0  0
   42.0720   28.8440   42.2950 N   0  0  0  0  0  0  0  0  0  0  0  0
   34.1082   29.9317   47.4291 H   0  0  0  0  0  0  0  0  0  0  0  0
   35.7899   31.3169   46.1415 H   0  0  0  0  0  0  0  0  0  0  0  0
   34.0030   27.0787   44.3277 H   0  0  0  0  0  0  0  0  0  0  0  0
   35.8993   32.5593   43.5525 H   0  0  0  0  0  0  0  0  0  0  0  0
   37.3012   32.4398   44.6504 H   0  0  0  0  0  0  0  0  0  0  0  0
   37.3917   33.2912   42.0167 H   0  0  0  0  0  0  0  0  0  0  0  0
   38.7869   32.7104   42.9113 H   0  0  0  0  0  0  0  0  0  0  0  0
   36.8986   31.1963   41.0840 H   0  0  0  0  0  0  0  0  0  0  0  0
   38.6345   31.1429   41.0667 H   0  0  0  0  0  0  0  0  0  0  0  0
   38.8497   28.9749   43.8679 H   0  0  0  0  0  0  0  0  0  0  0  0
   38.3971   29.7980   46.2920 H   0  0  0  0  0  0  0  0  0  0  0  0
   38.8728   31.5013   48.0151 H   0  0  0  0  0  0  0  0  0  0  0  0
   40.6353   34.0443   45.1257 H   0  0  0  0  0  0  0  0  0  0  0  0
   42.7491   28.7472   41.5249 H   0  0  0  0  0  0  0  0  0  0  0  0
   42.1823   28.2825   43.1514 H   0  0  0  0  0  0  0  0  0  0  0  0
  2  1  2  0
  3  2  1  0
  4  3  2  0
  4  5  1  0
  5  6  2  0
  6  1  1  0
  7  3  1  0
  8  7  1  0
  9  8  1  0
 10  9  1  0
 10 11  1  0
 11 12  1  6
 11 16  1  0
 11  7  1  0
 12 14  1  0
 13 12  1  0
 15 12  1  0
 16 17  1  0
 17 18  2  0
 18 19  1  0
 20 19  2  0
 21 20  1  0
 22 17  1  0
 22 21  2  0
 23 16  1  0
 24 26  1  0
 24 23  1  0
 25 24  2  0
  1 27  1  0
  2 28  1  0
  5 29  1  0
  8 30  1  0
  8 31  1  0
  9 32  1  0
  9 33  1  0
 10 34  1  0
 10 35  1  0
 16 36  1  1
 18 37  1  0
 19 38  1  0
 21 39  1  0
 26 40  1  0
 26 41  1  0
M  ISO  8  27  14  28  14  29  14  30  13  31  13  32  13  33  13  34  13
M  ISO  5  35  13  36   8  37  14  38  14  39  14
M  END
>  <minimizedAffinity>  (1) 
-4.68446016

>  <minimizedRMSD>  (1) 
2.96437001

$$$$
