
     RDKit          3D

 33 35  0  0  0  0  0  0  0  0999 V2000
   35.8490   29.1350   49.7910 C   0  0  0  0  0  0  0  0  0  0  0  0
   34.8060   29.6280   50.5010 C   0  0  0  0  0  0  0  0  0  0  0  0
   33.6300   29.0470   49.9970 C   0  0  0  0  0  0  0  0  0  0  0  0
   34.0660   28.2080   48.9730 C   0  0  0  0  0  0  0  0  0  0  0  0
   35.3510   28.3190   48.9230 O   0  0  0  0  0  0  0  0  0  0  0  0
   33.1730   27.3880   48.1540 C   0  0  0  0  0  0  0  0  0  0  0  0
   31.9850   27.1670   48.5170 O   0  0  0  0  0  0  0  0  0  0  0  0
   33.6520   26.8340   46.9360 N   0  0  0  0  0  0  0  0  0  0  0  0
   34.0130   25.4480   46.7080 C   0  0  0  0  0  0  0  0  0  0  0  0
   33.6260   25.1800   45.2680 C   0  0  0  0  0  0  0  0  0  0  0  0
   33.9870   26.5010   44.6140 C   0  0  0  0  0  0  0  0  0  0  0  0
   33.8710   27.5490   45.6930 C   0  0  0  0  0  0  0  0  0  0  0  0
   37.2150   29.5290   50.0550 C   0  0  0  0  0  0  0  0  0  0  0  0
   37.8370   28.9750   50.9670 O   0  0  0  0  0  0  0  0  0  0  0  0
   37.7800   30.5720   49.2150 C   0  0  0  0  0  0  0  0  0  0  0  0
   38.1260   31.7680   49.8330 C   0  0  0  0  0  0  0  0  0  0  0  0
   38.6680   32.7870   49.0640 C   0  0  0  0  0  0  0  0  0  0  0  0
   38.8360   32.5650   47.7280 N   0  0  0  0  0  0  0  0  0  0  0  0
   38.4920   31.3960   47.1510 C   0  0  0  0  0  0  0  0  0  0  0  0
   37.9690   30.4070   47.8870 N   0  0  0  0  0  0  0  0  0  0  0  0
   34.8685   30.3538   51.3252 H   0  0  0  0  0  0  0  0  0  0  0  0
   32.5970   29.2164   50.3349 H   0  0  0  0  0  0  0  0  0  0  0  0
   35.0933   25.2999   46.8531 H   0  0  0  0  0  0  0  0  0  0  0  0
   33.5075   24.7664   47.4079 H   0  0  0  0  0  0  0  0  0  0  0  0
   34.2065   24.3480   44.8429 H   0  0  0  0  0  0  0  0  0  0  0  0
   32.5763   24.8809   45.1312 H   0  0  0  0  0  0  0  0  0  0  0  0
   35.0154   26.4658   44.2253 H   0  0  0  0  0  0  0  0  0  0  0  0
   33.3232   26.7234   43.7655 H   0  0  0  0  0  0  0  0  0  0  0  0
   34.7975   28.1390   45.7516 H   0  0  0  0  0  0  0  0  0  0  0  0
   33.0472   28.2473   45.4840 H   0  0  0  0  0  0  0  0  0  0  0  0
   37.9725   31.9040   50.9137 H   0  0  0  0  0  0  0  0  0  0  0  0
   38.9544   33.7471   49.5181 H   0  0  0  0  0  0  0  0  0  0  0  0
   38.6417   31.2540   46.0705 H   0  0  0  0  0  0  0  0  0  0  0  0
  1 13  1  0
  1  2  2  0
  3  2  1  0
  4  3  2  0
  5  4  1  0
  5  1  1  0
  6  7  2  0
  6  4  1  0
  8  6  1  0
  9  8  1  0
 10  9  1  0
 11 10  1  0
 11 12  1  0
 12  8  1  0
 13 14  2  0
 15 16  2  0
 15 13  1  0
 17 16  1  0
 18 17  2  0
 19 18  1  0
 19 20  2  0
 20 15  1  0
  2 21  1  0
  3 22  1  0
  9 23  1  0
  9 24  1  0
 10 25  1  0
 10 26  1  0
 11 27  1  0
 11 28  1  0
 12 29  1  0
 12 30  1  0
 16 31  1  0
 17 32  1  0
 19 33  1  0
M  ISO  8  21  14  22  14  23  13  24  13  25  13  26  13  27  13  28  13
M  ISO  5  29  13  30  13  31  14  32  14  33  14
M  END
>  <minimizedAffinity>  (1) 
-5.20413828

>  <minimizedRMSD>  (1) 
1.05164635

$$$$
