
     RDKit          3D

 23 24  0  0  0  0  0  0  0  0999 V2000
   35.8560   29.1500   49.7750 C   0  0  0  0  0  0  0  0  0  0  0  0
   34.7990   29.6990   50.4340 C   0  0  0  0  0  0  0  0  0  0  0  0
   33.6280   29.1070   49.9420 C   0  0  0  0  0  0  0  0  0  0  0  0
   34.0750   28.2050   48.9810 C   0  0  0  0  0  0  0  0  0  0  0  0
   35.3670   28.2780   48.9330 O   0  0  0  0  0  0  0  0  0  0  0  0
   33.2120   27.3250   48.1650 C   0  0  0  0  0  0  0  0  0  0  0  0
   31.9670   27.2550   48.4600 O   0  0  0  0  0  0  0  0  0  0  0  0
   33.7660   26.5990   47.1070 N   0  0  0  0  0  0  0  0  0  0  0  0
   37.2310   29.5360   50.0380 C   0  0  0  0  0  0  0  0  0  0  0  0
   37.8430   28.9750   50.9560 O   0  0  0  0  0  0  0  0  0  0  0  0
   37.7920   30.5760   49.1820 C   0  0  0  0  0  0  0  0  0  0  0  0
   38.1290   31.7680   49.8320 C   0  0  0  0  0  0  0  0  0  0  0  0
   38.6700   32.7990   49.0580 C   0  0  0  0  0  0  0  0  0  0  0  0
   38.8330   32.5750   47.7220 N   0  0  0  0  0  0  0  0  0  0  0  0
   38.5000   31.4210   47.1360 C   0  0  0  0  0  0  0  0  0  0  0  0
   37.9770   30.4180   47.8640 N   0  0  0  0  0  0  0  0  0  0  0  0
   34.8543   30.4714   51.2152 H   0  0  0  0  0  0  0  0  0  0  0  0
   32.5905   29.3094   50.2464 H   0  0  0  0  0  0  0  0  0  0  0  0
   34.7714   26.6794   46.8980 H   0  0  0  0  0  0  0  0  0  0  0  0
   33.1689   25.9836   46.5363 H   0  0  0  0  0  0  0  0  0  0  0  0
   37.9738   31.8899   50.9142 H   0  0  0  0  0  0  0  0  0  0  0  0
   38.9550   33.7598   49.5115 H   0  0  0  0  0  0  0  0  0  0  0  0
   38.6541   31.2909   46.0546 H   0  0  0  0  0  0  0  0  0  0  0  0
  1  9  1  0
  1  2  2  0
  3  2  1  0
  4  3  2  0
  5  4  1  0
  5  1  1  0
  6  7  2  0
  6  4  1  0
  8  6  1  0
  9 10  2  0
 11 12  2  0
 11  9  1  0
 13 12  1  0
 14 13  2  0
 15 14  1  0
 15 16  2  0
 16 11  1  0
  2 17  1  0
  3 18  1  0
  8 19  1  0
  8 20  1  0
 12 21  1  0
 13 22  1  0
 15 23  1  0
M  ISO  5  17  14  18  14  21  14  22  14  23  14
M  END
>  <minimizedAffinity>  (1) 
-4.74890661

>  <minimizedRMSD>  (1) 
0.66381067

$$$$
