
     RDKit          3D

 42 45  0  0  1  0  0  0  0  0999 V2000
   32.9760   29.3140   46.4330 C   0  0  0  0  0  0  0  0  0  0  0  0
   32.6730   28.3080   45.7180 O   0  0  0  0  0  0  0  0  0  0  0  0
   35.2860   29.4770   49.1560 C   0  0  0  0  0  0  0  0  0  0  0  0
   34.7250   28.2530   49.4330 C   0  0  0  0  0  0  0  0  0  0  0  0
   33.7580   27.9990   48.4440 C   0  0  0  0  0  0  0  0  0  0  0  0
   33.8020   29.1030   47.6240 C   0  0  0  0  0  0  0  0  0  0  0  0
   34.7070   29.9430   48.0750 O   0  0  0  0  0  0  0  0  0  0  0  0
   36.3330   30.0570   49.9840 C   0  0  0  0  0  0  0  0  0  0  0  0
   36.4230   29.7180   51.1730 O   0  0  0  0  0  0  0  0  0  0  0  0
   37.2100   31.0030   49.3520 C   0  0  0  0  0  0  0  0  0  0  0  0
   37.2370   32.2920   49.8670 C   0  0  0  0  0  0  0  0  0  0  0  0
   38.0780   33.2370   49.2700 C   0  0  0  0  0  0  0  0  0  0  0  0
   38.8330   32.8310   48.2000 N   0  0  0  0  0  0  0  0  0  0  0  0
   38.7890   31.5870   47.7260 C   0  0  0  0  0  0  0  0  0  0  0  0
   37.9840   30.6690   48.2910 N   0  0  0  0  0  0  0  0  0  0  0  0
   32.5030   30.6760   46.0540 C   0  0  1  0  0  0  0  0  0  0  0  0
   32.5570   30.8620   44.4860 C   0  0  0  0  0  0  0  0  0  0  0  0
   31.3130   30.9260   45.2730 C   0  0  1  0  0  0  0  0  0  0  0  0
   30.2570   29.9640   44.9100 C   0  0  0  0  0  0  0  0  0  0  0  0
   29.2470   29.7230   46.0270 C   0  0  0  0  0  0  0  0  0  0  0  0
   27.8940   30.3000   45.5890 C   0  0  0  0  0  0  0  0  0  0  0  0
   28.0810   31.6490   45.2950 O   0  0  0  0  0  0  0  0  0  0  0  0
   28.7040   31.7430   44.0500 C   0  0  0  0  0  0  0  0  0  0  0  0
   29.4840   30.4940   43.7190 C   0  0  0  0  0  0  0  0  0  0  0  0
   34.9848   27.5932   50.2740 H   0  0  0  0  0  0  0  0  0  0  0  0
   33.1107   27.1148   48.3475 H   0  0  0  0  0  0  0  0  0  0  0  0
   36.6091   32.5649   50.7280 H   0  0  0  0  0  0  0  0  0  0  0  0
   38.1317   34.2694   49.6457 H   0  0  0  0  0  0  0  0  0  0  0  0
   39.4156   31.3081   46.8660 H   0  0  0  0  0  0  0  0  0  0  0  0
   32.8494   31.1332   46.9926 H   0  0  0  0  0  0  0  0  0  0  0  0
   32.7591   30.0046   43.8272 H   0  0  0  0  0  0  0  0  0  0  0  0
   33.0879   31.5144   43.7771 H   0  0  0  0  0  0  0  0  0  0  0  0
   30.5147   31.6554   45.4744 H   0  0  0  0  0  0  0  0  0  0  0  0
   30.7693   29.0150   44.6933 H   0  0  0  0  0  0  0  0  0  0  0  0
   29.1481   28.6432   46.2119 H   0  0  0  0  0  0  0  0  0  0  0  0
   29.5841   30.2111   46.9534 H   0  0  0  0  0  0  0  0  0  0  0  0
   27.5323   29.7691   44.6961 H   0  0  0  0  0  0  0  0  0  0  0  0
   27.1486   30.1810   46.3891 H   0  0  0  0  0  0  0  0  0  0  0  0
   27.9359   31.8984   43.2781 H   0  0  0  0  0  0  0  0  0  0  0  0
   29.4079   32.5877   44.0823 H   0  0  0  0  0  0  0  0  0  0  0  0
   28.7817   29.7182   43.3799 H   0  0  0  0  0  0  0  0  0  0  0  0
   30.2108   30.7502   42.9340 H   0  0  0  0  0  0  0  0  0  0  0  0
  1  6  1  0
  2  1  2  0
  3  4  2  0
  3  8  1  0
  5  4  1  0
  6  7  1  0
  6  5  2  0
  7  3  1  0
  8  9  2  0
 10 11  2  0
 10  8  1  0
 12 11  1  0
 13 12  2  0
 14 13  1  0
 14 15  2  0
 15 10  1  0
 16  1  1  0
 17 18  1  0
 17 16  1  0
 18 16  1  0
 19 18  1  0
 19 20  1  0
 21 20  1  0
 22 21  1  0
 23 22  1  0
 24 23  1  0
 24 19  1  0
  4 25  1  0
  5 26  1  0
 11 27  1  0
 12 28  1  0
 14 29  1  0
 16 30  1  1
 17 31  1  0
 17 32  1  0
 18 33  1  1
 19 34  1  0
 20 35  1  0
 20 36  1  0
 21 37  1  0
 21 38  1  0
 23 39  1  0
 23 40  1  0
 24 41  1  0
 24 42  1  0
M  ISO  8  25  14  26  14  27  14  28  14  29  14  30  13  31  13  32  13
M  ISO  8  33  13  34  13  35  13  36  13  37  13  38  13  39  13  40  13
M  ISO  2  41  13  42  13
M  END
>  <minimizedAffinity>  (1) 
-5.4300766

>  <minimizedRMSD>  (1) 
4.19465637

$$$$
