
     RDKit          3D

 36 38  0  0  0  0  0  0  0  0999 V2000
   38.5000   31.7210   48.2730 Br  0  0  0  0  0  0  0  0  0  0  0  0
   37.3510   31.1160   46.9090 C   0  0  0  0  0  0  0  0  0  0  0  0
   36.2800   30.3750   47.3140 C   0  0  0  0  0  0  0  0  0  0  0  0
   35.3820   29.8890   46.3640 C   0  0  0  0  0  0  0  0  0  0  0  0
   35.5900   30.1660   45.0180 C   0  0  0  0  0  0  0  0  0  0  0  0
   36.6760   30.9080   44.6830 C   0  0  0  0  0  0  0  0  0  0  0  0
   37.5750   31.3990   45.6000 C   0  0  0  0  0  0  0  0  0  0  0  0
   36.8020   29.4550   49.6160 C   0  0  0  0  0  0  0  0  0  0  0  0
   35.9210   29.9970   48.6890 C   0  0  0  0  0  0  0  0  0  0  0  0
   34.5710   30.2030   49.0990 C   0  0  0  0  0  0  0  0  0  0  0  0
   34.2420   29.8490   50.3810 N   0  0  0  0  0  0  0  0  0  0  0  0
   35.1460   29.3280   51.2290 C   0  0  0  0  0  0  0  0  0  0  0  0
   36.4190   29.1300   50.8520 N   0  0  0  0  0  0  0  0  0  0  0  0
   38.7070   32.1720   45.2610 N   0  0  0  0  0  0  0  0  0  0  0  0
   40.3320   31.8060   44.9370 S   0  0  0  0  0  0  0  0  0  0  0  0
   40.7920   30.6490   45.7760 O   0  0  0  0  0  0  0  0  0  0  0  0
   41.1970   32.9890   45.3090 O   0  0  0  0  0  0  0  0  0  0  0  0
   40.5090   31.4410   43.3050 O   0  0  0  0  0  0  0  0  0  0  0  0
   40.3310   30.1140   42.9250 C   0  0  0  0  0  0  0  0  0  0  0  0
   41.1620   29.5930   41.9390 C   0  0  0  0  0  0  0  0  0  0  0  0
   40.9300   28.2620   41.6060 C   0  0  0  0  0  0  0  0  0  0  0  0
   39.9680   27.4800   42.1770 N   0  0  0  0  0  0  0  0  0  0  0  0
   39.1870   28.0440   43.1340 C   0  0  0  0  0  0  0  0  0  0  0  0
   39.4020   29.3130   43.4570 N   0  0  0  0  0  0  0  0  0  0  0  0
   34.5144   29.2901   46.6781 H   0  0  0  0  0  0  0  0  0  0  0  0
   34.8965   29.7956   44.2487 H   0  0  0  0  0  0  0  0  0  0  0  0
   36.8463   31.1287   43.6189 H   0  0  0  0  0  0  0  0  0  0  0  0
   37.8487   29.2884   49.3217 H   0  0  0  0  0  0  0  0  0  0  0  0
   33.8236   30.6291   48.4135 H   0  0  0  0  0  0  0  0  0  0  0  0
   34.8369   29.0592   52.2499 H   0  0  0  0  0  0  0  0  0  0  0  0
   38.5012   33.1791   45.1961 H   0  0  0  0  0  0  0  0  0  0  0  0
   40.7004   30.8794   46.7345 H   0  0  0  0  0  0  0  0  0  0  0  0
   41.2502   33.0618   46.2949 H   0  0  0  0  0  0  0  0  0  0  0  0
   41.9482   30.1916   41.4558 H   0  0  0  0  0  0  0  0  0  0  0  0
   41.5649   27.8094   40.8300 H   0  0  0  0  0  0  0  0  0  0  0  0
   38.3952   27.4630   43.6295 H   0  0  0  0  0  0  0  0  0  0  0  0
  2  3  2  0
  2  1  1  0
  3  9  1  0
  4  3  1  0
  5  4  2  0
  6  5  1  0
  6  7  2  0
  7  2  1  0
  8 13  2  0
  9 10  2  0
  9  8  1  0
 10 11  1  0
 11 12  2  0
 13 12  1  0
 14  7  1  0
 15 14  1  0
 15 17  1  0
 15 16  1  0
 18 15  1  0
 19 18  1  0
 19 24  1  0
 20 19  2  0
 21 20  1  0
 21 22  2  0
 22 23  1  0
 23 24  2  0
  4 25  1  0
  5 26  1  0
  6 27  1  0
  8 28  1  0
 10 29  1  0
 12 30  1  0
 14 31  1  0
 16 32  1  0
 17 33  1  0
 20 34  1  0
 21 35  1  0
 23 36  1  0
M  ISO  8  25  14  26  14  27  14  28  14  29  14  30  14  32   3  33   3
M  ISO  3  34  14  35  14  36  14
M  END
>  <minimizedAffinity>  (1) 
-6.06494522

>  <minimizedRMSD>  (1) 
3.50663519

$$$$
