
     RDKit          3D

 27 28  0  0  1  0  0  0  0  0999 V2000
   37.8930   30.6120   46.1950 C   0  0  0  0  0  0  0  0  0  0  0  0
   39.0180   30.4800   45.4030 C   0  0  0  0  0  0  0  0  0  0  0  0
   38.8660   30.1820   44.0520 C   0  0  0  0  0  0  0  0  0  0  0  0
   37.5800   30.0360   43.5950 N   0  0  0  0  0  0  0  0  0  0  0  0
   36.5040   30.1680   44.3880 C   0  0  0  0  0  0  0  0  0  0  0  0
   36.6540   30.4560   45.6870 N   0  0  0  0  0  0  0  0  0  0  0  0
   41.0470   31.8080   45.5550 C   0  0  0  0  0  0  0  0  0  0  0  0
   40.7880   32.9220   44.9560 O   0  0  0  0  0  0  0  0  0  0  0  0
   40.3400   30.6190   45.8180 N   0  0  0  0  0  0  0  0  0  0  0  0
   38.2260   30.9090   47.5090 O   0  0  0  0  0  0  0  0  0  0  0  0
   38.5450   30.3210   49.7460 N   0  0  0  0  0  0  0  0  0  0  0  0
   37.7530   30.5340   50.9330 C   0  0  0  0  0  0  0  0  0  0  0  0
   36.5270   31.3040   50.5090 C   0  0  0  0  0  0  0  0  0  0  0  0
   36.3490   30.9410   49.0510 C   0  0  0  0  0  0  0  0  0  0  0  0
   37.6470   30.3080   48.6240 C   0  0  1  0  0  0  0  0  0  0  0  0
   39.7328   30.0692   43.3842 H   0  0  0  0  0  0  0  0  0  0  0  0
   35.4953   30.0390   43.9685 H   0  0  0  0  0  0  0  0  0  0  0  0
   42.0700   31.7811   45.9585 H   0  0  0  0  0  0  0  0  0  0  0  0
   40.8031   29.8480   46.3200 H   0  0  0  0  0  0  0  0  0  0  0  0
   39.2303   31.0825   49.6392 H   0  0  0  0  0  0  0  0  0  0  0  0
   37.4605   29.5683   51.3710 H   0  0  0  0  0  0  0  0  0  0  0  0
   38.3233   31.0886   51.6927 H   0  0  0  0  0  0  0  0  0  0  0  0
   35.6500   30.9969   51.0977 H   0  0  0  0  0  0  0  0  0  0  0  0
   36.6346   32.3877   50.6641 H   0  0  0  0  0  0  0  0  0  0  0  0
   35.5186   30.2295   48.9321 H   0  0  0  0  0  0  0  0  0  0  0  0
   36.1092   31.8240   48.4404 H   0  0  0  0  0  0  0  0  0  0  0  0
   37.4329   29.2763   48.3081 H   0  0  0  0  0  0  0  0  0  0  0  0
  1 10  1  0
  2  9  1  0
  2  1  2  0
  3  2  1  0
  4  3  2  0
  4  5  1  0
  5  6  2  0
  6  1  1  0
  7  9  1  0
  8  7  2  0
 11 12  1  0
 13 12  1  0
 14 13  1  0
 15 10  1  0
 15 14  1  0
 15 11  1  0
  3 16  1  0
  5 17  1  0
  7 18  1  0
  9 19  1  0
 11 20  1  0
 12 21  1  0
 12 22  1  0
 13 23  1  0
 13 24  1  0
 14 25  1  0
 14 26  1  0
 15 27  1  6
M  ISO  8  16  14  17  14  18   6  20   5  21  13  22  13  23  13  24  13
M  ISO  3  25  13  26  13  27  13
M  END
>  <minimizedAffinity>  (1) 
-4.76319981

>  <minimizedRMSD>  (1) 
5.08222294

$$$$
