
     RDKit          3D

 44 46  0  0  0  0  0  0  0  0999 V2000
   38.4860   31.7400   48.1460 Br  0  0  0  0  0  0  0  0  0  0  0  0
   37.3320   31.1200   46.8000 C   0  0  0  0  0  0  0  0  0  0  0  0
   36.2720   30.3750   47.2250 C   0  0  0  0  0  0  0  0  0  0  0  0
   35.3570   29.8680   46.2940 C   0  0  0  0  0  0  0  0  0  0  0  0
   35.5480   30.1370   44.9380 C   0  0  0  0  0  0  0  0  0  0  0  0
   36.6290   30.8880   44.5870 C   0  0  0  0  0  0  0  0  0  0  0  0
   37.5310   31.3900   45.4820 C   0  0  0  0  0  0  0  0  0  0  0  0
   36.8280   29.4400   49.5180 C   0  0  0  0  0  0  0  0  0  0  0  0
   35.9270   30.0030   48.6010 C   0  0  0  0  0  0  0  0  0  0  0  0
   34.5990   30.2250   49.0390 C   0  0  0  0  0  0  0  0  0  0  0  0
   34.2980   29.8680   50.3340 N   0  0  0  0  0  0  0  0  0  0  0  0
   35.1910   29.3390   51.1570 C   0  0  0  0  0  0  0  0  0  0  0  0
   36.4520   29.1220   50.7600 N   0  0  0  0  0  0  0  0  0  0  0  0
   38.6560   32.1700   45.1320 N   0  0  0  0  0  0  0  0  0  0  0  0
   40.2710   31.8040   44.7440 S   0  0  0  0  0  0  0  0  0  0  0  0
   40.7600   30.6250   45.5180 O   0  0  0  0  0  0  0  0  0  0  0  0
   41.1540   32.9770   45.1420 O   0  0  0  0  0  0  0  0  0  0  0  0
   40.3930   31.5360   43.0880 O   0  0  0  0  0  0  0  0  0  0  0  0
   40.1090   30.2200   42.8220 C   0  0  0  0  0  0  0  0  0  0  0  0
   38.9010   30.0400   41.9320 C   0  0  0  0  0  0  0  0  0  0  0  0
   39.2640   29.7210   40.5010 C   0  0  0  0  0  0  0  0  0  0  0  0
   39.8440   28.3300   40.4650 C   0  0  0  0  0  0  0  0  0  0  0  0
   40.7620   28.1680   41.6680 C   0  0  0  0  0  0  0  0  0  0  0  0
   41.2690   29.5040   42.1700 C   0  0  0  0  0  0  0  0  0  0  0  0
   34.4990   29.2656   46.6271 H   0  0  0  0  0  0  0  0  0  0  0  0
   34.8495   29.7557   44.1786 H   0  0  0  0  0  0  0  0  0  0  0  0
   36.7849   31.1030   43.5195 H   0  0  0  0  0  0  0  0  0  0  0  0
   37.8671   29.2564   49.2072 H   0  0  0  0  0  0  0  0  0  0  0  0
   33.8409   30.6636   48.3735 H   0  0  0  0  0  0  0  0  0  0  0  0
   34.8927   29.0738   52.1820 H   0  0  0  0  0  0  0  0  0  0  0  0
   38.4542   33.1797   45.1062 H   0  0  0  0  0  0  0  0  0  0  0  0
   40.6827   30.8114   46.4872 H   0  0  0  0  0  0  0  0  0  0  0  0
   41.1987   33.0364   46.1292 H   0  0  0  0  0  0  0  0  0  0  0  0
   39.8996   29.7828   43.8094 H   0  0  0  0  0  0  0  0  0  0  0  0
   38.2914   29.2158   42.3310 H   0  0  0  0  0  0  0  0  0  0  0  0
   38.3512   30.9927   41.9272 H   0  0  0  0  0  0  0  0  0  0  0  0
   38.3649   29.7667   39.8690 H   0  0  0  0  0  0  0  0  0  0  0  0
   39.9957   30.4494   40.1215 H   0  0  0  0  0  0  0  0  0  0  0  0
   39.0340   27.5872   40.5116 H   0  0  0  0  0  0  0  0  0  0  0  0
   40.4075   28.1766   39.5328 H   0  0  0  0  0  0  0  0  0  0  0  0
   40.2057   27.6712   42.4765 H   0  0  0  0  0  0  0  0  0  0  0  0
   41.6294   27.5664   41.3587 H   0  0  0  0  0  0  0  0  0  0  0  0
   42.0732   29.3477   42.9041 H   0  0  0  0  0  0  0  0  0  0  0  0
   41.6716   30.1006   41.3381 H   0  0  0  0  0  0  0  0  0  0  0  0
  2  3  2  0
  2  1  1  0
  3  9  1  0
  4  3  1  0
  5  4  2  0
  6  5  1  0
  6  7  2  0
  7  2  1  0
  8 13  2  0
  9 10  2  0
  9  8  1  0
 10 11  1  0
 11 12  2  0
 13 12  1  0
 14  7  1  0
 15 14  1  0
 15 17  1  0
 15 16  1  0
 18 15  1  0
 19 18  1  0
 20 19  1  0
 21 20  1  0
 22 21  1  0
 22 23  1  0
 23 24  1  0
 24 19  1  0
  4 25  1  0
  5 26  1  0
  6 27  1  0
  8 28  1  0
 10 29  1  0
 12 30  1  0
 14 31  1  0
 16 32  1  0
 17 33  1  0
 19 34  1  0
 20 35  1  0
 20 36  1  0
 21 37  1  0
 21 38  1  0
 22 39  1  0
 22 40  1  0
 23 41  1  0
 23 42  1  0
 24 43  1  0
 24 44  1  0
M  ISO  8  25  14  26  14  27  14  28  14  29  14  30  14  32   3  33   3
M  ISO  8  34  13  35  13  36  13  37  13  38  13  39  13  40  13  41  13
M  ISO  3  42  13  43  13  44  13
M  END
>  <minimizedAffinity>  (1) 
-5.7026124

>  <minimizedRMSD>  (1) 
2.89984894

$$$$
