
     RDKit          3D

 26 27  0  0  0  0  0  0  0  0999 V2000
   37.0330   31.0440   49.6240 C   0  0  0  0  0  0  0  0  0  0  0  0
   36.4630   29.8670   49.1210 C   0  0  0  0  0  0  0  0  0  0  0  0
   36.3430   28.7520   49.9250 C   0  0  0  0  0  0  0  0  0  0  0  0
   36.7980   28.8540   51.2090 N   0  0  0  0  0  0  0  0  0  0  0  0
   37.3480   30.0000   51.6860 C   0  0  0  0  0  0  0  0  0  0  0  0
   37.4530   31.0590   50.8950 N   0  0  0  0  0  0  0  0  0  0  0  0
   34.6330   29.3540   47.5890 C   0  0  0  0  0  0  0  0  0  0  0  0
   33.6140   29.1210   48.3330 O   0  0  0  0  0  0  0  0  0  0  0  0
   35.9780   29.7060   47.8070 N   0  0  0  0  0  0  0  0  0  0  0  0
   37.0640   32.0360   48.6800 O   0  0  0  0  0  0  0  0  0  0  0  0
   38.9280   32.5450   47.1440 C   0  0  0  0  0  0  0  0  0  0  0  0
   38.2000   32.7270   48.3030 C   0  0  0  0  0  0  0  0  0  0  0  0
   38.5780   33.6800   49.2350 C   0  0  0  0  0  0  0  0  0  0  0  0
   39.7070   34.4580   48.9920 C   0  0  0  0  0  0  0  0  0  0  0  0
   40.4380   34.2700   47.8230 C   0  0  0  0  0  0  0  0  0  0  0  0
   40.0330   33.3090   46.9120 C   0  0  0  0  0  0  0  0  0  0  0  0
   38.0750   30.7330   45.5030 N   0  0  0  0  0  0  0  0  0  0  0  0
   38.4570   31.5360   46.2440 C   0  0  0  0  0  0  0  0  0  0  0  0
   35.8991   27.8191   49.5474 H   0  0  0  0  0  0  0  0  0  0  0  0
   37.7053   30.0498   52.7252 H   0  0  0  0  0  0  0  0  0  0  0  0
   34.3978   29.2542   46.5191 H   0  0  0  0  0  0  0  0  0  0  0  0
   36.6092   29.8463   47.0052 H   0  0  0  0  0  0  0  0  0  0  0  0
   37.9931   33.8204   50.1560 H   0  0  0  0  0  0  0  0  0  0  0  0
   40.0201   35.2190   49.7220 H   0  0  0  0  0  0  0  0  0  0  0  0
   41.3312   34.8804   47.6240 H   0  0  0  0  0  0  0  0  0  0  0  0
   40.6110   33.1599   45.9881 H   0  0  0  0  0  0  0  0  0  0  0  0
  1  6  1  0
  2  1  2  0
  2  3  1  0
  3  4  2  0
  4  5  1  0
  6  5  2  0
  7  9  1  0
  7  8  2  0
  9  2  1  0
 10  1  1  0
 11 12  2  0
 12 10  1  0
 12 13  1  0
 14 13  2  0
 15 14  1  0
 16 11  1  0
 16 15  2  0
 17 18  3  0
 18 11  1  0
  3 19  1  0
  5 20  1  0
  7 21  1  0
  9 22  1  0
 13 23  1  0
 14 24  1  0
 15 25  1  0
 16 26  1  0
M  ISO  7  19  14  20  14  21   6  23  14  24  14  25  14  26  14
M  END
>  <minimizedAffinity>  (1) 
-4.45023108

>  <minimizedRMSD>  (1) 
6.13102198

$$$$
