
     RDKit          3D

 31 32  0  0  0  0  0  0  0  0999 V2000
   38.4740   31.6700   48.2790 Br  0  0  0  0  0  0  0  0  0  0  0  0
   37.3220   31.0480   46.9280 C   0  0  0  0  0  0  0  0  0  0  0  0
   36.2450   30.3190   47.3380 C   0  0  0  0  0  0  0  0  0  0  0  0
   35.3490   29.8250   46.3930 C   0  0  0  0  0  0  0  0  0  0  0  0
   35.5660   30.0860   45.0390 C   0  0  0  0  0  0  0  0  0  0  0  0
   36.6560   30.8190   44.7020 C   0  0  0  0  0  0  0  0  0  0  0  0
   37.5550   31.3160   45.6140 C   0  0  0  0  0  0  0  0  0  0  0  0
   36.7600   29.4330   49.6520 C   0  0  0  0  0  0  0  0  0  0  0  0
   35.8830   29.9630   48.7170 C   0  0  0  0  0  0  0  0  0  0  0  0
   34.5290   30.1810   49.1150 C   0  0  0  0  0  0  0  0  0  0  0  0
   34.2100   29.8440   50.4020 N   0  0  0  0  0  0  0  0  0  0  0  0
   35.0880   29.3400   51.2570 C   0  0  0  0  0  0  0  0  0  0  0  0
   36.3600   29.1320   50.8950 N   0  0  0  0  0  0  0  0  0  0  0  0
   38.6890   32.0770   45.2600 N   0  0  0  0  0  0  0  0  0  0  0  0
   40.3080   31.6940   44.9390 S   0  0  0  0  0  0  0  0  0  0  0  0
   40.8190   30.6770   45.9250 O   0  0  0  0  0  0  0  0  0  0  0  0
   41.1840   32.9150   45.0980 O   0  0  0  0  0  0  0  0  0  0  0  0
   40.4400   31.0750   43.3790 O   0  0  0  0  0  0  0  0  0  0  0  0
   39.7640   31.8100   42.4360 C   0  0  0  0  0  0  0  0  0  0  0  0
   40.4250   31.6730   41.2140 F   0  0  0  0  0  0  0  0  0  0  0  0
   38.4940   31.2990   42.2590 F   0  0  0  0  0  0  0  0  0  0  0  0
   39.7630   33.1330   42.7570 F   0  0  0  0  0  0  0  0  0  0  0  0
   34.4775   29.2340   46.7110 H   0  0  0  0  0  0  0  0  0  0  0  0
   34.8752   29.7093   44.2703 H   0  0  0  0  0  0  0  0  0  0  0  0
   36.8304   31.0278   43.6362 H   0  0  0  0  0  0  0  0  0  0  0  0
   37.8075   29.2558   49.3666 H   0  0  0  0  0  0  0  0  0  0  0  0
   33.7820   30.5978   48.4234 H   0  0  0  0  0  0  0  0  0  0  0  0
   34.7671   29.0889   52.2788 H   0  0  0  0  0  0  0  0  0  0  0  0
   38.4894   33.0842   45.1791 H   0  0  0  0  0  0  0  0  0  0  0  0
   40.6566   31.0002   46.8465 H   0  0  0  0  0  0  0  0  0  0  0  0
   41.3180   33.1018   46.0609 H   0  0  0  0  0  0  0  0  0  0  0  0
  2  3  2  0
  2  1  1  0
  3  9  1  0
  4  3  1  0
  5  4  2  0
  6  5  1  0
  6  7  2  0
  7  2  1  0
  8 13  2  0
  9 10  2  0
  9  8  1  0
 10 11  1  0
 11 12  2  0
 13 12  1  0
 14  7  1  0
 15 17  1  0
 15 14  1  0
 15 16  1  0
 18 15  1  0
 19 22  1  0
 19 18  1  0
 20 19  1  0
 21 19  1  0
  4 23  1  0
  5 24  1  0
  6 25  1  0
  8 26  1  0
 10 27  1  0
 12 28  1  0
 14 29  1  0
 16 30  1  0
 17 31  1  0
M  ISO  8  23  14  24  14  25  14  26  14  27  14  28  14  30   3  31   3
M  END
>  <minimizedAffinity>  (1) 
-5.5034132

>  <minimizedRMSD>  (1) 
2.50099587

$$$$
