
     RDKit          3D

 45 48  0  0  0  0  0  0  0  0999 V2000
   38.1780   32.2060   47.2930 C   0  0  0  0  0  0  0  0  0  0  0  0
   37.8000   32.6450   48.5480 C   0  0  0  0  0  0  0  0  0  0  0  0
   38.5590   33.5770   49.2380 C   0  0  0  0  0  0  0  0  0  0  0  0
   39.7190   34.0780   48.6520 C   0  0  0  0  0  0  0  0  0  0  0  0
   40.1030   33.6420   47.3920 C   0  0  0  0  0  0  0  0  0  0  0  0
   39.3110   32.7130   46.7530 C   0  0  0  0  0  0  0  0  0  0  0  0
   39.7360   32.2540   45.3980 C   0  0  0  0  0  0  0  0  0  0  0  0
   40.5540   31.2240   45.0460 C   0  0  0  0  0  0  0  0  0  0  0  0
   40.6340   31.2100   43.6630 C   0  0  0  0  0  0  0  0  0  0  0  0
   39.8350   32.2660   43.2510 C   0  0  0  0  0  0  0  0  0  0  0  0
   39.3150   32.8670   44.3040 O   0  0  0  0  0  0  0  0  0  0  0  0
   36.6760   30.4730   46.1350 N   0  0  0  0  0  0  0  0  0  0  0  0
   37.3430   31.2510   46.6610 C   0  0  0  0  0  0  0  0  0  0  0  0
   36.6720   32.2300   49.2490 O   0  0  0  0  0  0  0  0  0  0  0  0
   36.6430   31.1780   50.1000 C   0  0  0  0  0  0  0  0  0  0  0  0
   35.5380   30.3410   49.8560 C   0  0  0  0  0  0  0  0  0  0  0  0
   35.3350   29.2100   50.6250 C   0  0  0  0  0  0  0  0  0  0  0  0
   36.2400   28.9510   51.6090 N   0  0  0  0  0  0  0  0  0  0  0  0
   37.3020   29.7740   51.8270 C   0  0  0  0  0  0  0  0  0  0  0  0
   37.4810   30.8490   51.0850 N   0  0  0  0  0  0  0  0  0  0  0  0
   34.1980   29.4420   48.0390 C   0  0  0  0  0  0  0  0  0  0  0  0
   34.6520   28.2340   47.8670 O   0  0  0  0  0  0  0  0  0  0  0  0
   34.5610   30.5380   48.8630 N   0  0  0  0  0  0  0  0  0  0  0  0
   33.1170   29.4460   47.1090 N   0  0  0  0  0  0  0  0  0  0  0  0
   32.9030   30.5710   46.2180 C   0  0  0  0  0  0  0  0  0  0  0  0
   32.8870   29.8460   44.8680 C   0  0  0  0  0  0  0  0  0  0  0  0
   31.9230   28.7190   45.1790 C   0  0  0  0  0  0  0  0  0  0  0  0
   31.9980   28.5900   46.6890 C   0  0  0  0  0  0  0  0  0  0  0  0
   38.2488   33.9172   50.2370 H   0  0  0  0  0  0  0  0  0  0  0  0
   40.3304   34.8190   49.1879 H   0  0  0  0  0  0  0  0  0  0  0  0
   41.0162   34.0280   46.9155 H   0  0  0  0  0  0  0  0  0  0  0  0
   41.0590   30.5299   45.7339 H   0  0  0  0  0  0  0  0  0  0  0  0
   41.2055   30.5144   43.0309 H   0  0  0  0  0  0  0  0  0  0  0  0
   39.6612   32.5582   42.2049 H   0  0  0  0  0  0  0  0  0  0  0  0
   34.4762   28.5456   50.4489 H   0  0  0  0  0  0  0  0  0  0  0  0
   38.0172   29.5401   52.6293 H   0  0  0  0  0  0  0  0  0  0  0  0
   34.1183   31.4594   48.7369 H   0  0  0  0  0  0  0  0  0  0  0  0
   31.9470   31.0758   46.4210 H   0  0  0  0  0  0  0  0  0  0  0  0
   33.6487   31.3753   46.3018 H   0  0  0  0  0  0  0  0  0  0  0  0
   33.8835   29.4666   44.5977 H   0  0  0  0  0  0  0  0  0  0  0  0
   32.6013   30.4737   44.0110 H   0  0  0  0  0  0  0  0  0  0  0  0
   30.9028   28.9751   44.8571 H   0  0  0  0  0  0  0  0  0  0  0  0
   32.1766   27.7842   44.6576 H   0  0  0  0  0  0  0  0  0  0  0  0
   31.0597   28.9326   47.1498 H   0  0  0  0  0  0  0  0  0  0  0  0
   32.1487   27.5454   46.9991 H   0  0  0  0  0  0  0  0  0  0  0  0
  1  2  2  0
  2  3  1  0
  2 14  1  0
  4  3  2  0
  5  4  1  0
  6  1  1  0
  6  5  2  0
  7  6  1  0
  8  7  2  0
  9  8  1  0
 10  9  2  0
 10 11  1  0
 11  7  1  0
 12 13  3  0
 13  1  1  0
 14 15  1  0
 15 20  2  0
 16 15  1  0
 16 17  2  0
 17 18  1  0
 18 19  2  0
 20 19  1  0
 21 23  1  0
 22 21  2  0
 23 16  1  0
 24 21  1  0
 25 24  1  0
 26 27  1  0
 26 25  1  0
 27 28  1  0
 28 24  1  0
  3 29  1  0
  4 30  1  0
  5 31  1  0
  8 32  1  0
  9 33  1  0
 10 34  1  0
 17 35  1  0
 19 36  1  0
 23 37  1  0
 25 38  1  0
 25 39  1  0
 26 40  1  0
 26 41  1  0
 27 42  1  0
 27 43  1  0
 28 44  1  0
 28 45  1  0
M  ISO  8  29  14  30  14  31  14  32  14  33  14  34  14  35  14  36  14
M  ISO  8  38  13  39  13  40  13  41  13  42  13  43  13  44  13  45  13
M  END
>  <minimizedAffinity>  (1) 
-6.21465254

>  <minimizedRMSD>  (1) 
0.292680502

$$$$
