
     RDKit          3D

 34 36  0  0  0  0  0  0  0  0999 V2000
   38.2740   32.2980   47.3940 C   0  0  0  0  0  0  0  0  0  0  0  0
   37.9170   32.7420   48.6500 C   0  0  0  0  0  0  0  0  0  0  0  0
   38.6790   33.6970   49.3090 C   0  0  0  0  0  0  0  0  0  0  0  0
   39.8130   34.2010   48.6750 C   0  0  0  0  0  0  0  0  0  0  0  0
   40.1670   33.7590   47.4230 C   0  0  0  0  0  0  0  0  0  0  0  0
   39.3790   32.8050   46.8040 C   0  0  0  0  0  0  0  0  0  0  0  0
   39.7730   32.3370   45.4530 C   0  0  0  0  0  0  0  0  0  0  0  0
   40.6220   31.3340   45.0930 C   0  0  0  0  0  0  0  0  0  0  0  0
   40.6520   31.2930   43.7010 C   0  0  0  0  0  0  0  0  0  0  0  0
   39.8010   32.2980   43.3030 C   0  0  0  0  0  0  0  0  0  0  0  0
   39.2880   32.9070   44.3570 O   0  0  0  0  0  0  0  0  0  0  0  0
   36.7570   30.5310   46.2920 N   0  0  0  0  0  0  0  0  0  0  0  0
   37.4290   31.3120   46.7910 C   0  0  0  0  0  0  0  0  0  0  0  0
   36.8150   32.3250   49.3960 O   0  0  0  0  0  0  0  0  0  0  0  0
   36.7840   31.2140   50.1600 C   0  0  0  0  0  0  0  0  0  0  0  0
   35.6510   30.4360   49.9470 C   0  0  0  0  0  0  0  0  0  0  0  0
   35.4310   29.2580   50.6320 C   0  0  0  0  0  0  0  0  0  0  0  0
   36.3840   28.8890   51.5330 N   0  0  0  0  0  0  0  0  0  0  0  0
   37.4920   29.6540   51.7380 C   0  0  0  0  0  0  0  0  0  0  0  0
   37.6750   30.7850   51.0610 N   0  0  0  0  0  0  0  0  0  0  0  0
   34.1410   29.7480   48.1300 C   0  0  0  0  0  0  0  0  0  0  0  0
   34.5490   28.5580   47.8500 O   0  0  0  0  0  0  0  0  0  0  0  0
   34.6220   30.7380   49.0360 N   0  0  0  0  0  0  0  0  0  0  0  0
   33.0210   29.9680   47.3260 O   0  0  0  0  0  0  0  0  0  0  0  0
   38.3935   34.0488   50.3114 H   0  0  0  0  0  0  0  0  0  0  0  0
   40.4296   34.9586   49.1808 H   0  0  0  0  0  0  0  0  0  0  0  0
   41.0615   34.1568   46.9215 H   0  0  0  0  0  0  0  0  0  0  0  0
   41.1809   30.6774   45.7760 H   0  0  0  0  0  0  0  0  0  0  0  0
   41.2286   30.6085   43.0615 H   0  0  0  0  0  0  0  0  0  0  0  0
   39.5795   32.5572   42.2572 H   0  0  0  0  0  0  0  0  0  0  0  0
   34.5320   28.6482   50.4592 H   0  0  0  0  0  0  0  0  0  0  0  0
   38.2452   29.3329   52.4725 H   0  0  0  0  0  0  0  0  0  0  0  0
   34.2125   31.6830   49.0236 H   0  0  0  0  0  0  0  0  0  0  0  0
   32.7102   29.2615   46.7060 H   0  0  0  0  0  0  0  0  0  0  0  0
  1  2  2  0
  2  3  1  0
  2 14  1  0
  4  3  2  0
  5  4  1  0
  6  1  1  0
  6  5  2  0
  7  6  1  0
  8  7  2  0
  9  8  1  0
 10  9  2  0
 10 11  1  0
 11  7  1  0
 12 13  3  0
 13  1  1  0
 14 15  1  0
 15 20  1  0
 16 15  2  0
 16 17  1  0
 17 18  2  0
 18 19  1  0
 20 19  2  0
 21 23  1  0
 22 21  2  0
 23 16  1  0
 24 21  1  0
  3 25  1  0
  4 26  1  0
  5 27  1  0
  8 28  1  0
  9 29  1  0
 10 30  1  0
 17 31  1  0
 19 32  1  0
 23 33  1  0
 24 34  1  0
M  ISO  8  25  14  26  14  27  14  28  14  29  14  30  14  31  14  32  14
M  ISO  1  34   3
M  END
>  <minimizedAffinity>  (1) 
-6.0234642

>  <minimizedRMSD>  (1) 
0.0177649148

$$$$
