
     RDKit          3D

 39 41  0  0  0  0  0  0  0  0999 V2000
   36.6750   32.2330   49.2620 O   0  0  0  0  0  0  0  0  0  0  0  0
   38.1920   32.2240   47.3110 C   0  0  0  0  0  0  0  0  0  0  0  0
   37.7990   32.6490   48.5640 C   0  0  0  0  0  0  0  0  0  0  0  0
   38.5610   33.5840   49.2450 C   0  0  0  0  0  0  0  0  0  0  0  0
   39.7160   34.0870   48.6620 C   0  0  0  0  0  0  0  0  0  0  0  0
   40.0960   33.6560   47.4150 C   0  0  0  0  0  0  0  0  0  0  0  0
   39.3250   32.7280   46.7570 C   0  0  0  0  0  0  0  0  0  0  0  0
   39.7440   32.2730   45.4150 C   0  0  0  0  0  0  0  0  0  0  0  0
   40.5800   31.2350   45.0700 C   0  0  0  0  0  0  0  0  0  0  0  0
   40.6500   31.2240   43.6740 C   0  0  0  0  0  0  0  0  0  0  0  0
   39.8530   32.2570   43.2650 C   0  0  0  0  0  0  0  0  0  0  0  0
   39.3250   32.8670   44.3100 O   0  0  0  0  0  0  0  0  0  0  0  0
   36.6780   30.4870   46.1420 N   0  0  0  0  0  0  0  0  0  0  0  0
   37.3570   31.2580   46.6660 C   0  0  0  0  0  0  0  0  0  0  0  0
   36.6470   31.1750   50.1070 C   0  0  0  0  0  0  0  0  0  0  0  0
   35.5490   30.3430   49.8700 C   0  0  0  0  0  0  0  0  0  0  0  0
   35.3460   29.2050   50.6350 C   0  0  0  0  0  0  0  0  0  0  0  0
   36.2560   28.9400   51.6130 N   0  0  0  0  0  0  0  0  0  0  0  0
   37.3190   29.7630   51.8270 C   0  0  0  0  0  0  0  0  0  0  0  0
   37.4950   30.8410   51.0910 N   0  0  0  0  0  0  0  0  0  0  0  0
   34.2000   29.4600   48.0390 C   0  0  0  0  0  0  0  0  0  0  0  0
   34.6680   28.2730   47.8530 O   0  0  0  0  0  0  0  0  0  0  0  0
   34.5690   30.5400   48.8880 N   0  0  0  0  0  0  0  0  0  0  0  0
   33.1170   29.5800   47.1730 O   0  0  0  0  0  0  0  0  0  0  0  0
   31.9430   27.7010   45.6610 O   0  0  0  0  0  0  0  0  0  0  0  0
   31.9100   28.3680   47.0310 P   0  0  0  0  0  0  0  0  0  0  0  0
   31.9970   27.1920   48.2100 O   0  0  0  0  0  0  0  0  0  0  0  0
   30.4110   29.1850   47.0920 O   0  0  0  0  0  0  0  0  0  0  0  0
   38.2522   33.9265   50.2437 H   0  0  0  0  0  0  0  0  0  0  0  0
   40.3256   34.8294   49.1980 H   0  0  0  0  0  0  0  0  0  0  0  0
   41.0099   34.0502   46.9466 H   0  0  0  0  0  0  0  0  0  0  0  0
   41.0931   30.5479   45.7589 H   0  0  0  0  0  0  0  0  0  0  0  0
   41.2237   30.5321   43.0399 H   0  0  0  0  0  0  0  0  0  0  0  0
   39.6771   32.5391   42.2164 H   0  0  0  0  0  0  0  0  0  0  0  0
   34.4852   28.5431   50.4593 H   0  0  0  0  0  0  0  0  0  0  0  0
   38.0392   29.5250   52.6237 H   0  0  0  0  0  0  0  0  0  0  0  0
   34.1190   31.4604   48.7817 H   0  0  0  0  0  0  0  0  0  0  0  0
   31.9655   27.6174   49.1034 H   0  0  0  0  0  0  0  0  0  0  0  0
   30.1507   29.3269   48.0366 H   0  0  0  0  0  0  0  0  0  0  0  0
  1 15  1  0
  2  3  2  0
  3  4  1  0
  3  1  1  0
  5  4  2  0
  6  5  1  0
  7  2  1  0
  7  6  2  0
  8  7  1  0
  9  8  2  0
 10  9  1  0
 11 10  2  0
 11 12  1  0
 12  8  1  0
 13 14  3  0
 14  2  1  0
 15 20  1  0
 16 15  2  0
 16 17  1  0
 17 18  2  0
 18 19  1  0
 20 19  2  0
 21 23  1  0
 22 21  2  0
 23 16  1  0
 24 21  1  0
 25 26  2  0
 26 28  1  0
 26 24  1  0
 26 27  1  0
  4 29  1  0
  5 30  1  0
  6 31  1  0
  9 32  1  0
 10 33  1  0
 11 34  1  0
 17 35  1  0
 19 36  1  0
 23 37  1  0
 27 38  1  0
 28 39  1  0
M  ISO  8  29  14  30  14  31  14  32  14  33  14  34  14  35  14  36  14
M  ISO  2  38   3  39   3
M  END
>  <minimizedAffinity>  (1) 
-5.8983655

>  <minimizedRMSD>  (1) 
0.334700823

$$$$
