
     RDKit          3D

 37 39  0  0  1  0  0  0  0  0999 V2000
   33.3280   28.8240   46.9760 N   0  0  0  0  0  0  0  0  0  0  0  0
   33.6450   27.8650   47.9790 C   0  0  0  0  0  0  0  0  0  0  0  0
   34.6260   28.2360   49.0120 C   0  0  0  0  0  0  0  0  0  0  0  0
   35.6470   29.2440   48.6710 C   0  0  0  0  0  0  0  0  0  0  0  0
   35.2840   30.1440   47.5330 C   0  0  0  0  0  0  0  0  0  0  0  0
   34.5720   29.3380   46.4380 C   0  0  0  0  0  0  0  0  0  0  0  0
   32.0310   29.2310   46.5520 C   0  0  0  0  0  0  0  0  0  0  0  0
   31.7470   30.2620   45.6530 C   0  0  0  0  0  0  0  0  0  0  0  0
   30.4140   30.5190   45.3540 C   0  0  0  0  0  0  0  0  0  0  0  0
   29.4500   29.7640   45.9450 N   0  0  0  0  0  0  0  0  0  0  0  0
   29.7600   28.7780   46.8070 C   0  0  0  0  0  0  0  0  0  0  0  0
   31.0440   28.5100   47.1120 N   0  0  0  0  0  0  0  0  0  0  0  0
   37.1450   30.9450   49.7500 C   0  0  2  0  0  0  0  0  0  0  0  0
   35.8890   30.1420   49.8840 C   0  0  2  0  0  0  0  0  0  0  0  0
   36.0860   29.3380   51.1300 C   0  0  0  0  0  0  0  0  0  0  0  0
   37.0410   30.0310   51.8790 O   0  0  0  0  0  0  0  0  0  0  0  0
   37.9450   30.5760   51.0000 C   0  0  0  0  0  0  0  0  0  0  0  0
   36.9070   32.3080   49.8090 O   0  0  0  0  0  0  0  0  0  0  0  0
   32.7075   27.6117   48.4957 H   0  0  0  0  0  0  0  0  0  0  0  0
   34.1272   27.0441   47.4280 H   0  0  0  0  0  0  0  0  0  0  0  0
   34.0622   28.6212   49.8744 H   0  0  0  0  0  0  0  0  0  0  0  0
   35.1999   27.3142   49.1876 H   0  0  0  0  0  0  0  0  0  0  0  0
   36.5336   28.6667   48.3698 H   0  0  0  0  0  0  0  0  0  0  0  0
   34.6147   30.9384   47.8950 H   0  0  0  0  0  0  0  0  0  0  0  0
   36.1994   30.5906   47.1175 H   0  0  0  0  0  0  0  0  0  0  0  0
   35.2112   28.5016   46.1188 H   0  0  0  0  0  0  0  0  0  0  0  0
   34.3679   29.9823   45.5701 H   0  0  0  0  0  0  0  0  0  0  0  0
   32.5542   30.8528   45.1954 H   0  0  0  0  0  0  0  0  0  0  0  0
   30.1435   31.3203   44.6506 H   0  0  0  0  0  0  0  0  0  0  0  0
   28.9561   28.1848   47.2672 H   0  0  0  0  0  0  0  0  0  0  0  0
   37.6386   30.7362   48.7894 H   0  0  0  0  0  0  0  0  0  0  0  0
   34.9992   30.7864   49.9389 H   0  0  0  0  0  0  0  0  0  0  0  0
   35.1422   29.2600   51.6896 H   0  0  0  0  0  0  0  0  0  0  0  0
   36.4126   28.3121   50.9044 H   0  0  0  0  0  0  0  0  0  0  0  0
   38.7265   29.8429   50.7514 H   0  0  0  0  0  0  0  0  0  0  0  0
   38.4480   31.4542   51.4311 H   0  0  0  0  0  0  0  0  0  0  0  0
   36.8571   32.5936   50.7556 H   0  0  0  0  0  0  0  0  0  0  0  0
  1  2  1  0
  2  3  1  0
  4  3  1  0
  5  4  1  0
  6  1  1  0
  6  5  1  0
  7  1  1  0
  7 12  1  0
  8  7  2  0
  9  8  1  0
  9 10  2  0
 10 11  1  0
 11 12  2  0
 13 18  1  0
 13 14  1  0
 13 17  1  0
 14  4  1  0
 14 15  1  0
 15 16  1  0
 17 16  1  0
  2 19  1  0
  2 20  1  0
  3 21  1  0
  3 22  1  0
  4 23  1  0
  5 24  1  0
  5 25  1  0
  6 26  1  0
  6 27  1  0
  8 28  1  0
  9 29  1  0
 11 30  1  0
 13 31  1  6
 14 32  1  1
 15 33  1  0
 15 34  1  0
 17 35  1  0
 17 36  1  0
 18 37  1  0
M  ISO  8  19  13  20  13  21  13  22  13  23  13  24  13  25  13  26  13
M  ISO  8  27  13  28  14  29  14  30  14  31  13  32  13  33  13  34  13
M  ISO  3  35  13  36  13  37   3
M  END
>  <minimizedAffinity>  (1) 
-5.06892824

>  <minimizedRMSD>  (1) 
3.90860915

$$$$
