
     RDKit          3D

 27 28  0  0  0  0  0  0  0  0999 V2000
   36.9460   29.9750   48.4930 N   0  0  0  0  0  0  0  0  0  0  0  0
   37.6180   30.0470   49.7450 C   0  0  0  0  0  0  0  0  0  0  0  0
   38.3020   31.3030   50.0950 C   0  0  0  0  0  0  0  0  0  0  0  0
   38.7970   32.1560   48.9990 C   0  0  0  0  0  0  0  0  0  0  0  0
   38.0890   31.9480   47.6830 C   0  0  0  0  0  0  0  0  0  0  0  0
   37.8420   30.4600   47.4680 C   0  0  0  0  0  0  0  0  0  0  0  0
   35.6130   29.5040   48.2800 C   0  0  0  0  0  0  0  0  0  0  0  0
   34.7810   29.9310   47.2330 C   0  0  0  0  0  0  0  0  0  0  0  0
   33.5030   29.3800   47.1550 C   0  0  0  0  0  0  0  0  0  0  0  0
   33.1380   28.4650   48.0920 N   0  0  0  0  0  0  0  0  0  0  0  0
   33.9670   28.0820   49.0810 C   0  0  0  0  0  0  0  0  0  0  0  0
   35.2030   28.6080   49.1670 N   0  0  0  0  0  0  0  0  0  0  0  0
   38.5440   33.5990   49.3580 C   0  0  0  0  0  0  0  0  0  0  0  0
   39.5700   34.2920   49.3940 O   0  0  0  0  0  0  0  0  0  0  0  0
   36.8704   29.8532   50.5283 H   0  0  0  0  0  0  0  0  0  0  0  0
   38.4288   29.3082   49.6626 H   0  0  0  0  0  0  0  0  0  0  0  0
   37.5952   31.9061   50.6838 H   0  0  0  0  0  0  0  0  0  0  0  0
   39.2124   30.9799   50.6211 H   0  0  0  0  0  0  0  0  0  0  0  0
   39.8586   31.8938   48.8799 H   0  0  0  0  0  0  0  0  0  0  0  0
   37.1269   32.4811   47.6961 H   0  0  0  0  0  0  0  0  0  0  0  0
   38.7134   32.3376   46.8655 H   0  0  0  0  0  0  0  0  0  0  0  0
   37.3892   30.3013   46.4781 H   0  0  0  0  0  0  0  0  0  0  0  0
   38.7959   29.9150   47.5223 H   0  0  0  0  0  0  0  0  0  0  0  0
   35.1257   30.6747   46.4995 H   0  0  0  0  0  0  0  0  0  0  0  0
   32.8079   29.6777   46.3561 H   0  0  0  0  0  0  0  0  0  0  0  0
   33.6339   27.3382   49.8198 H   0  0  0  0  0  0  0  0  0  0  0  0
   37.5411   33.9989   49.5684 H   0  0  0  0  0  0  0  0  0  0  0  0
  1  2  1  0
  2  3  1  0
  4 13  1  0
  4  3  1  0
  5  4  1  0
  6  5  1  0
  6  1  1  0
  7  1  1  0
  7 12  1  0
  8  7  2  0
  9  8  1  0
  9 10  2  0
 10 11  1  0
 11 12  2  0
 13 14  2  0
  2 15  1  0
  2 16  1  0
  3 17  1  0
  3 18  1  0
  4 19  1  0
  5 20  1  0
  5 21  1  0
  6 22  1  0
  6 23  1  0
  8 24  1  0
  9 25  1  0
 11 26  1  0
 13 27  1  0
M  ISO  8  15  13  16  13  17  13  18  13  19  13  20  13  21  13  22  13
M  ISO  5  23  13  24  14  25  14  26  14  27   6
M  END
>  <minimizedAffinity>  (1) 
-4.88327932

>  <minimizedRMSD>  (1) 
1.15722835

$$$$
