
     RDKit          3D

 37 39  0  0  1  0  0  0  0  0999 V2000
   32.7820   28.0670   47.9940 N   0  0  0  0  0  0  0  0  0  0  0  0
   33.3600   28.2290   49.2970 C   0  0  0  0  0  0  0  0  0  0  0  0
   34.4340   29.2140   49.4580 C   0  0  0  0  0  0  0  0  0  0  0  0
   35.3300   29.4290   48.2830 C   0  0  0  0  0  0  0  0  0  0  0  0
   34.6660   29.1660   46.9640 C   0  0  0  0  0  0  0  0  0  0  0  0
   33.8520   27.8770   47.0590 C   0  0  0  0  0  0  0  0  0  0  0  0
   31.3880   28.0900   47.6780 C   0  0  0  0  0  0  0  0  0  0  0  0
   30.8170   28.7720   46.5980 C   0  0  0  0  0  0  0  0  0  0  0  0
   29.4430   28.6820   46.4470 C   0  0  0  0  0  0  0  0  0  0  0  0
   28.7100   27.9510   47.3300 N   0  0  0  0  0  0  0  0  0  0  0  0
   29.3070   27.3090   48.3570 C   0  0  0  0  0  0  0  0  0  0  0  0
   30.6280   27.3810   48.5260 N   0  0  0  0  0  0  0  0  0  0  0  0
   35.8480   30.7680   48.3410 N   0  0  0  0  0  0  0  0  0  0  0  0
   37.0240   31.0150   47.5770 C   0  0  0  0  0  0  0  0  0  0  0  0
   38.1520   31.1510   48.6040 C   0  0  0  0  0  0  0  0  0  0  0  0
   37.4350   31.8320   49.7430 C   0  0  0  0  0  0  0  0  0  0  0  0
   36.0580   31.2190   49.6800 C   0  0  0  0  0  0  0  0  0  0  0  0
   32.5480   28.5163   49.9812 H   0  0  0  0  0  0  0  0  0  0  0  0
   33.8417   27.2622   49.5050 H   0  0  0  0  0  0  0  0  0  0  0  0
   33.9667   30.1795   49.7016 H   0  0  0  0  0  0  0  0  0  0  0  0
   35.0842   28.8058   50.2458 H   0  0  0  0  0  0  0  0  0  0  0  0
   36.1472   28.6953   48.3454 H   0  0  0  0  0  0  0  0  0  0  0  0
   35.4317   29.0606   46.1813 H   0  0  0  0  0  0  0  0  0  0  0  0
   34.0009   30.0050   46.7115 H   0  0  0  0  0  0  0  0  0  0  0  0
   33.4380   27.6289   46.0706 H   0  0  0  0  0  0  0  0  0  0  0  0
   34.4986   27.0539   47.3973 H   0  0  0  0  0  0  0  0  0  0  0  0
   31.4334   29.3553   45.8981 H   0  0  0  0  0  0  0  0  0  0  0  0
   28.9452   29.2007   45.6145 H   0  0  0  0  0  0  0  0  0  0  0  0
   28.6986   26.7215   49.0603 H   0  0  0  0  0  0  0  0  0  0  0  0
   37.2234   30.1757   46.8945 H   0  0  0  0  0  0  0  0  0  0  0  0
   36.9263   31.9159   46.9535 H   0  0  0  0  0  0  0  0  0  0  0  0
   38.5432   30.1679   48.9049 H   0  0  0  0  0  0  0  0  0  0  0  0
   39.0328   31.6973   48.2356 H   0  0  0  0  0  0  0  0  0  0  0  0
   37.9223   31.6152   50.7050 H   0  0  0  0  0  0  0  0  0  0  0  0
   37.4292   32.9290   49.6622 H   0  0  0  0  0  0  0  0  0  0  0  0
   35.3001   31.9705   49.9461 H   0  0  0  0  0  0  0  0  0  0  0  0
   35.9749   30.3811   50.3879 H   0  0  0  0  0  0  0  0  0  0  0  0
  1  2  1  0
  2  3  1  0
  4 13  1  0
  4  3  1  0
  5  6  1  0
  5  4  1  0
  6  1  1  0
  7  1  1  0
  7 12  1  0
  8  7  2  0
  9  8  1  0
  9 10  2  0
 10 11  1  0
 11 12  2  0
 13 14  1  0
 13 17  1  0
 14 15  1  0
 15 16  1  0
 17 16  1  0
  2 18  1  0
  2 19  1  0
  3 20  1  0
  3 21  1  0
  4 22  1  0
  5 23  1  0
  5 24  1  0
  6 25  1  0
  6 26  1  0
  8 27  1  0
  9 28  1  0
 11 29  1  0
 14 30  1  0
 14 31  1  0
 15 32  1  0
 15 33  1  0
 16 34  1  0
 16 35  1  0
 17 36  1  0
 17 37  1  0
M  ISO  8  18  13  19  13  20  13  21  13  22  13  23  13  24  13  25  13
M  ISO  8  26  13  27  14  28  14  29  14  30  13  31  13  32  13  33  13
M  ISO  4  34  13  35  13  36  13  37  13
M  END
>  <minimizedAffinity>  (1) 
-4.37790489

>  <minimizedRMSD>  (1) 
4.03882694

$$$$
