
     RDKit          3D

 54 58  0  0  0  0  0  0  0  0999 V2000
   32.7250   28.1120   47.4320 N   0  0  0  0  0  0  0  0  0  0  0  0
   33.3990   27.6040   48.5770 C   0  0  0  0  0  0  0  0  0  0  0  0
   34.5610   28.3790   49.0660 C   0  0  0  0  0  0  0  0  0  0  0  0
   35.4270   28.9770   48.0510 C   0  0  0  0  0  0  0  0  0  0  0  0
   34.6430   29.4430   46.8100 C   0  0  0  0  0  0  0  0  0  0  0  0
   33.7160   28.2810   46.4050 C   0  0  0  0  0  0  0  0  0  0  0  0
   35.8890   30.6770   49.7590 C   0  0  0  0  0  0  0  0  0  0  0  0
   36.1780   30.1760   48.5010 C   0  0  0  0  0  0  0  0  0  0  0  0
   37.0920   30.7340   47.6470 C   0  0  0  0  0  0  0  0  0  0  0  0
   37.7660   31.8740   48.0730 C   0  0  0  0  0  0  0  0  0  0  0  0
   37.4810   32.3780   49.3220 C   0  0  0  0  0  0  0  0  0  0  0  0
   36.5530   31.8110   50.1920 C   0  0  0  0  0  0  0  0  0  0  0  0
   38.2570   33.5230   49.5680 O   0  0  0  0  0  0  0  0  0  0  0  0
   39.2790   33.4770   48.5760 C   0  0  0  0  0  0  0  0  0  0  0  0
   38.7340   32.7120   47.5250 O   0  0  0  0  0  0  0  0  0  0  0  0
   31.3320   28.4100   47.2850 C   0  0  0  0  0  0  0  0  0  0  0  0
   30.7800   29.2970   46.3650 C   0  0  0  0  0  0  0  0  0  0  0  0
   29.3950   29.4480   46.3800 C   0  0  0  0  0  0  0  0  0  0  0  0
   28.6580   28.7280   47.2830 N   0  0  0  0  0  0  0  0  0  0  0  0
   29.2310   27.8870   48.1490 C   0  0  0  0  0  0  0  0  0  0  0  0
   30.5500   27.7290   48.1520 N   0  0  0  0  0  0  0  0  0  0  0  0
   28.3670   27.1360   49.1040 C   0  0  0  0  0  0  0  0  0  0  0  0
   28.7830   27.3290   50.5460 C   0  0  0  0  0  0  0  0  0  0  0  0
   27.5840   26.8630   51.3770 C   0  0  0  0  0  0  0  0  0  0  0  0
   26.6000   28.0050   51.3460 C   0  0  0  0  0  0  0  0  0  0  0  0
   26.3540   28.4120   49.9290 C   0  0  0  0  0  0  0  0  0  0  0  0
   26.9190   27.4610   48.9020 C   0  0  0  0  0  0  0  0  0  0  0  0
   32.6673   27.5486   49.3965 H   0  0  0  0  0  0  0  0  0  0  0  0
   33.8120   26.6346   48.2613 H   0  0  0  0  0  0  0  0  0  0  0  0
   34.1763   29.1934   49.6974 H   0  0  0  0  0  0  0  0  0  0  0  0
   35.1941   27.6490   49.5917 H   0  0  0  0  0  0  0  0  0  0  0  0
   36.1241   28.1562   47.8268 H   0  0  0  0  0  0  0  0  0  0  0  0
   34.0474   30.3356   47.0518 H   0  0  0  0  0  0  0  0  0  0  0  0
   35.3256   29.7071   45.9889 H   0  0  0  0  0  0  0  0  0  0  0  0
   33.2243   28.5140   45.4490 H   0  0  0  0  0  0  0  0  0  0  0  0
   34.2993   27.3559   46.2868 H   0  0  0  0  0  0  0  0  0  0  0  0
   35.1457   30.1829   50.4019 H   0  0  0  0  0  0  0  0  0  0  0  0
   37.2866   30.2953   46.6572 H   0  0  0  0  0  0  0  0  0  0  0  0
   36.3560   32.2468   51.1826 H   0  0  0  0  0  0  0  0  0  0  0  0
   39.5260   34.4909   48.2283 H   0  0  0  0  0  0  0  0  0  0  0  0
   40.2114   33.0408   48.9637 H   0  0  0  0  0  0  0  0  0  0  0  0
   31.4102   29.8547   45.6566 H   0  0  0  0  0  0  0  0  0  0  0  0
   28.9007   30.1350   45.6774 H   0  0  0  0  0  0  0  0  0  0  0  0
   28.5084   26.0683   48.8806 H   0  0  0  0  0  0  0  0  0  0  0  0
   29.6708   26.7215   50.7757 H   0  0  0  0  0  0  0  0  0  0  0  0
   29.0494   28.3746   50.7601 H   0  0  0  0  0  0  0  0  0  0  0  0
   27.1381   25.9600   50.9346 H   0  0  0  0  0  0  0  0  0  0  0  0
   27.8771   26.6064   52.4057 H   0  0  0  0  0  0  0  0  0  0  0  0
   25.6530   27.6856   51.8055 H   0  0  0  0  0  0  0  0  0  0  0  0
   27.0102   28.8579   51.9067 H   0  0  0  0  0  0  0  0  0  0  0  0
   25.2671   28.4803   49.7740 H   0  0  0  0  0  0  0  0  0  0  0  0
   26.8680   29.3736   49.7839 H   0  0  0  0  0  0  0  0  0  0  0  0
   26.8022   27.9166   47.9076 H   0  0  0  0  0  0  0  0  0  0  0  0
   26.3638   26.5168   49.0033 H   0  0  0  0  0  0  0  0  0  0  0  0
  1  2  1  0
  2  3  1  0
  4  8  1  0
  4  3  1  0
  5  4  1  0
  6  5  1  0
  6  1  1  0
  7 12  2  0
  8  7  1  0
  9 10  1  0
  9  8  2  0
 10 11  2  0
 11 13  1  0
 11 12  1  0
 14 13  1  0
 15 10  1  0
 15 14  1  0
 16  1  1  0
 16 21  2  0
 17 18  2  0
 17 16  1  0
 18 19  1  0
 19 20  2  0
 20 21  1  0
 20 22  1  0
 22 23  1  0
 23 24  1  0
 25 24  1  0
 26 25  1  0
 27 22  1  0
 27 26  1  0
  2 28  1  0
  2 29  1  0
  3 30  1  0
  3 31  1  0
  4 32  1  0
  5 33  1  0
  5 34  1  0
  6 35  1  0
  6 36  1  0
  7 37  1  0
  9 38  1  0
 12 39  1  0
 14 40  1  0
 14 41  1  0
 17 42  1  0
 18 43  1  0
 22 44  1  0
 23 45  1  0
 23 46  1  0
 24 47  1  0
 24 48  1  0
 25 49  1  0
 25 50  1  0
 26 51  1  0
 26 52  1  0
 27 53  1  0
 27 54  1  0
M  ISO  8  28  13  29  13  30  13  31  13  32  13  33  13  34  13  35  13
M  ISO  8  36  13  37  14  38  14  39  14  40  13  41  13  42  14  43  14
M  ISO  8  44  13  45  13  46  13  47  13  48  13  49  13  50  13  51  13
M  ISO  3  52  13  53  13  54  13
M  END
>  <minimizedAffinity>  (1) 
-8.0153265

>  <minimizedRMSD>  (1) 
0.640202224

$$$$
