
     RDKit          3D

 47 51  0  0  1  0  0  0  0  0999 V2000
   32.7290   28.1650   47.3720 N   0  0  0  0  0  0  0  0  0  0  0  0
   33.3460   27.6730   48.5560 C   0  0  0  0  0  0  0  0  0  0  0  0
   34.5180   28.4240   49.0620 C   0  0  0  0  0  0  0  0  0  0  0  0
   35.4330   28.9770   48.0630 C   0  0  0  0  0  0  0  0  0  0  0  0
   34.7020   29.4280   46.7840 C   0  0  0  0  0  0  0  0  0  0  0  0
   33.7610   28.2830   46.3770 C   0  0  0  0  0  0  0  0  0  0  0  0
   35.9240   30.6660   49.7720 C   0  0  0  0  0  0  0  0  0  0  0  0
   36.1930   30.1730   48.5090 C   0  0  0  0  0  0  0  0  0  0  0  0
   37.0950   30.7360   47.6470 C   0  0  0  0  0  0  0  0  0  0  0  0
   37.7810   31.8770   48.0680 C   0  0  0  0  0  0  0  0  0  0  0  0
   37.5120   32.3660   49.3220 C   0  0  0  0  0  0  0  0  0  0  0  0
   36.5970   31.7960   50.2030 C   0  0  0  0  0  0  0  0  0  0  0  0
   38.2930   33.5120   49.5690 O   0  0  0  0  0  0  0  0  0  0  0  0
   39.2960   33.4770   48.5560 C   0  0  0  0  0  0  0  0  0  0  0  0
   38.7420   32.7170   47.5120 O   0  0  0  0  0  0  0  0  0  0  0  0
   31.3510   28.4900   47.1720 C   0  0  0  0  0  0  0  0  0  0  0  0
   30.8050   29.0590   46.0220 C   0  0  0  0  0  0  0  0  0  0  0  0
   29.4350   29.3040   46.0160 C   0  0  0  0  0  0  0  0  0  0  0  0
   28.7100   28.9820   47.1130 N   0  0  0  0  0  0  0  0  0  0  0  0
   29.2590   28.4340   48.2110 C   0  0  0  0  0  0  0  0  0  0  0  0
   30.5710   28.1950   48.2280 N   0  0  0  0  0  0  0  0  0  0  0  0
   28.4180   28.1100   49.3590 C   0  0  0  0  0  0  0  0  0  0  0  0
   28.9350   27.3860   50.4130 C   0  0  0  0  0  0  0  0  0  0  0  0
   28.1980   27.0390   51.5410 C   0  0  0  0  0  0  0  0  0  0  0  0
   26.8830   27.4500   51.5910 C   0  0  0  0  0  0  0  0  0  0  0  0
   26.3700   28.1840   50.5160 C   0  0  0  0  0  0  0  0  0  0  0  0
   27.1200   28.5060   49.4250 N   0  0  0  0  0  0  0  0  0  0  0  0
   32.5852   27.6694   49.3505 H   0  0  0  0  0  0  0  0  0  0  0  0
   33.7360   26.6807   48.2853 H   0  0  0  0  0  0  0  0  0  0  0  0
   34.1399   29.2620   49.6660 H   0  0  0  0  0  0  0  0  0  0  0  0
   35.1136   27.6846   49.6175 H   0  0  0  0  0  0  0  0  0  0  0  0
   36.1198   28.1365   47.8846 H   0  0  0  0  0  0  0  0  0  0  0  0
   34.1219   30.3413   46.9825 H   0  0  0  0  0  0  0  0  0  0  0  0
   35.4189   29.6516   45.9802 H   0  0  0  0  0  0  0  0  0  0  0  0
   33.3095   28.5037   45.3985 H   0  0  0  0  0  0  0  0  0  0  0  0
   34.3236   27.3406   46.3039 H   0  0  0  0  0  0  0  0  0  0  0  0
   35.1888   30.1695   50.4224 H   0  0  0  0  0  0  0  0  0  0  0  0
   37.2741   30.3024   46.6521 H   0  0  0  0  0  0  0  0  0  0  0  0
   36.4166   32.2256   51.1995 H   0  0  0  0  0  0  0  0  0  0  0  0
   39.5297   34.4946   48.2098 H   0  0  0  0  0  0  0  0  0  0  0  0
   40.2368   33.0426   48.9251 H   0  0  0  0  0  0  0  0  0  0  0  0
   31.4330   29.3048   45.1529 H   0  0  0  0  0  0  0  0  0  0  0  0
   28.9500   29.7512   45.1358 H   0  0  0  0  0  0  0  0  0  0  0  0
   29.9860   27.0659   50.3589 H   0  0  0  0  0  0  0  0  0  0  0  0
   28.6471   26.4593   52.3609 H   0  0  0  0  0  0  0  0  0  0  0  0
   26.2507   27.2061   52.4574 H   0  0  0  0  0  0  0  0  0  0  0  0
   25.3212   28.5137   50.5530 H   0  0  0  0  0  0  0  0  0  0  0  0
  1  2  1  0
  2  3  1  0
  4  8  1  0
  4  3  1  0
  5  4  1  0
  6  5  1  0
  6  1  1  0
  7 12  2  0
  8  7  1  0
  9 10  1  0
  9  8  2  0
 10 11  2  0
 11 13  1  0
 11 12  1  0
 14 13  1  0
 15 10  1  0
 15 14  1  0
 16  1  1  0
 16 21  1  0
 17 16  2  0
 18 17  1  0
 18 19  2  0
 19 20  1  0
 20 21  2  0
 20 22  1  0
 22 27  1  0
 22 23  2  0
 23 24  1  0
 24 25  2  0
 26 25  1  0
 27 26  2  0
  2 28  1  0
  2 29  1  0
  3 30  1  0
  3 31  1  0
  4 32  1  0
  5 33  1  0
  5 34  1  0
  6 35  1  0
  6 36  1  0
  7 37  1  0
  9 38  1  0
 12 39  1  0
 14 40  1  0
 14 41  1  0
 17 42  1  0
 18 43  1  0
 23 44  1  0
 24 45  1  0
 25 46  1  0
 26 47  1  0
M  ISO  8  28  13  29  13  30  13  31  13  32  13  33  13  34  13  35  13
M  ISO  8  36  13  37  14  38  14  39  14  40  13  41  13  42  14  43  14
M  ISO  4  44  14  45  14  46  14  47  14
M  END
>  <minimizedAffinity>  (1) 
-7.77526188

>  <minimizedRMSD>  (1) 
0.592412949

$$$$
