
     RDKit          3D

 44 47  0  0  0  0  0  0  0  0999 V2000
   31.6040   27.9150   47.5580 N   0  0  0  0  0  0  0  0  0  0  0  0
   32.5500   26.9760   48.0530 C   0  0  0  0  0  0  0  0  0  0  0  0
   33.8850   27.4990   48.4180 C   0  0  0  0  0  0  0  0  0  0  0  0
   34.4390   28.5560   47.5730 C   0  0  0  0  0  0  0  0  0  0  0  0
   33.3490   29.4930   47.0220 C   0  0  0  0  0  0  0  0  0  0  0  0
   32.2280   28.6090   46.4610 C   0  0  0  0  0  0  0  0  0  0  0  0
   35.5460   29.3340   49.6270 C   0  0  0  0  0  0  0  0  0  0  0  0
   35.4070   29.4540   48.2560 C   0  0  0  0  0  0  0  0  0  0  0  0
   36.0880   30.3720   47.5050 C   0  0  0  0  0  0  0  0  0  0  0  0
   36.9720   31.2340   48.1540 C   0  0  0  0  0  0  0  0  0  0  0  0
   37.1040   31.1090   49.5160 C   0  0  0  0  0  0  0  0  0  0  0  0
   36.4140   30.1780   50.2890 C   0  0  0  0  0  0  0  0  0  0  0  0
   38.0310   32.0550   50.0000 O   0  0  0  0  0  0  0  0  0  0  0  0
   38.7360   32.4730   48.8240 C   0  0  0  0  0  0  0  0  0  0  0  0
   37.8220   32.2650   47.7710 O   0  0  0  0  0  0  0  0  0  0  0  0
   30.2750   28.1600   48.0300 C   0  0  0  0  0  0  0  0  0  0  0  0
   29.2960   28.8970   47.3680 C   0  0  0  0  0  0  0  0  0  0  0  0
   28.0600   29.0210   47.9890 C   0  0  0  0  0  0  0  0  0  0  0  0
   27.8670   28.4170   49.2090 N   0  0  0  0  0  0  0  0  0  0  0  0
   28.8360   27.7180   49.8090 C   0  0  0  0  0  0  0  0  0  0  0  0
   30.0250   27.5900   49.2270 N   0  0  0  0  0  0  0  0  0  0  0  0
   28.5590   27.0880   51.1330 C   0  0  0  0  0  0  0  0  0  0  0  0
   27.0940   27.3030   51.5080 C   0  0  0  0  0  0  0  0  0  0  0  0
   32.1181   26.5116   48.9517 H   0  0  0  0  0  0  0  0  0  0  0  0
   32.7319   26.2847   47.2169 H   0  0  0  0  0  0  0  0  0  0  0  0
   33.8175   27.8945   49.4422 H   0  0  0  0  0  0  0  0  0  0  0  0
   34.5690   26.6465   48.2934 H   0  0  0  0  0  0  0  0  0  0  0  0
   34.9467   27.9852   46.7815 H   0  0  0  0  0  0  0  0  0  0  0  0
   32.9577   30.1304   47.8286 H   0  0  0  0  0  0  0  0  0  0  0  0
   33.7580   30.1473   46.2381 H   0  0  0  0  0  0  0  0  0  0  0  0
   31.4841   29.2346   45.9459 H   0  0  0  0  0  0  0  0  0  0  0  0
   32.6409   27.8859   45.7423 H   0  0  0  0  0  0  0  0  0  0  0  0
   34.9727   28.5765   50.1816 H   0  0  0  0  0  0  0  0  0  0  0  0
   35.9422   30.4292   46.4162 H   0  0  0  0  0  0  0  0  0  0  0  0
   36.5548   30.1183   51.3783 H   0  0  0  0  0  0  0  0  0  0  0  0
   39.0132   33.5352   48.8940 H   0  0  0  0  0  0  0  0  0  0  0  0
   39.6740   31.9170   48.6792 H   0  0  0  0  0  0  0  0  0  0  0  0
   29.4941   29.3627   46.3913 H   0  0  0  0  0  0  0  0  0  0  0  0
   27.2495   29.5925   47.5131 H   0  0  0  0  0  0  0  0  0  0  0  0
   28.7674   26.0095   51.0757 H   0  0  0  0  0  0  0  0  0  0  0  0
   29.2024   27.5480   51.8975 H   0  0  0  0  0  0  0  0  0  0  0  0
   26.9942   27.3176   52.6034 H   0  0  0  0  0  0  0  0  0  0  0  0
   26.7468   28.2617   51.0953 H   0  0  0  0  0  0  0  0  0  0  0  0
   26.4859   26.4845   51.0953 H   0  0  0  0  0  0  0  0  0  0  0  0
  1 16  1  0
  1  2  1  0
  2  3  1  0
  4  8  1  0
  4  3  1  0
  5  4  1  0
  6  5  1  0
  6  1  1  0
  7 12  2  0
  8  7  1  0
  9 10  1  0
  9  8  2  0
 10 11  2  0
 11 13  1  0
 11 12  1  0
 14 13  1  0
 15 10  1  0
 15 14  1  0
 16 21  2  0
 17 18  2  0
 17 16  1  0
 18 19  1  0
 19 20  2  0
 20 22  1  0
 21 20  1  0
 22 23  1  0
  2 24  1  0
  2 25  1  0
  3 26  1  0
  3 27  1  0
  4 28  1  0
  5 29  1  0
  5 30  1  0
  6 31  1  0
  6 32  1  0
  7 33  1  0
  9 34  1  0
 12 35  1  0
 14 36  1  0
 14 37  1  0
 17 38  1  0
 18 39  1  0
 22 40  1  0
 22 41  1  0
 23 42  1  0
 23 43  1  0
 23 44  1  0
M  ISO  8  24  13  25  13  26  13  27  13  28  13  29  13  30  13  31  13
M  ISO  8  32  13  33  14  34  14  35  14  36  13  37  13  38  14  39  14
M  ISO  5  40   8  41   8  42   8  43   8  44   8
M  END
>  <minimizedAffinity>  (1) 
-6.85796547

>  <minimizedRMSD>  (1) 
1.63044095

$$$$
