
     RDKit          3D

 40 43  0  0  0  0  0  0  0  0999 V2000
   31.6660   27.9640   47.5830 N   0  0  0  0  0  0  0  0  0  0  0  0
   32.6580   27.1300   48.1690 C   0  0  0  0  0  0  0  0  0  0  0  0
   33.9580   27.7640   48.4860 C   0  0  0  0  0  0  0  0  0  0  0  0
   34.4640   28.7430   47.5260 C   0  0  0  0  0  0  0  0  0  0  0  0
   33.3310   29.5620   46.8810 C   0  0  0  0  0  0  0  0  0  0  0  0
   32.2580   28.5620   46.4190 C   0  0  0  0  0  0  0  0  0  0  0  0
   35.2860   30.0200   49.4540 C   0  0  0  0  0  0  0  0  0  0  0  0
   35.3880   29.7550   48.0980 C   0  0  0  0  0  0  0  0  0  0  0  0
   36.2690   30.3850   47.2620 C   0  0  0  0  0  0  0  0  0  0  0  0
   37.1120   31.3530   47.8150 C   0  0  0  0  0  0  0  0  0  0  0  0
   37.0100   31.6170   49.1570 C   0  0  0  0  0  0  0  0  0  0  0  0
   36.1150   30.9770   50.0100 C   0  0  0  0  0  0  0  0  0  0  0  0
   37.9360   32.6140   49.5190 O   0  0  0  0  0  0  0  0  0  0  0  0
   38.8250   32.6920   48.4150 C   0  0  0  0  0  0  0  0  0  0  0  0
   38.1080   32.1850   47.3170 O   0  0  0  0  0  0  0  0  0  0  0  0
   30.3260   28.1890   48.0330 C   0  0  0  0  0  0  0  0  0  0  0  0
   29.3520   28.9160   47.3550 C   0  0  0  0  0  0  0  0  0  0  0  0
   28.0980   29.0220   47.9630 C   0  0  0  0  0  0  0  0  0  0  0  0
   27.8970   28.4220   49.1620 N   0  0  0  0  0  0  0  0  0  0  0  0
   28.8600   27.7260   49.7920 C   0  0  0  0  0  0  0  0  0  0  0  0
   30.0620   27.6160   49.2250 N   0  0  0  0  0  0  0  0  0  0  0  0
   28.5890   27.0990   51.0840 C   0  0  0  0  0  0  0  0  0  0  0  0
   27.3790   26.9490   51.4530 O   0  0  0  0  0  0  0  0  0  0  0  0
   32.2452   26.7295   49.1066 H   0  0  0  0  0  0  0  0  0  0  0  0
   32.8852   26.3713   47.4056 H   0  0  0  0  0  0  0  0  0  0  0  0
   33.8529   28.2722   49.4559 H   0  0  0  0  0  0  0  0  0  0  0  0
   34.6899   26.9429   48.4734 H   0  0  0  0  0  0  0  0  0  0  0  0
   34.9986   28.1110   46.8016 H   0  0  0  0  0  0  0  0  0  0  0  0
   32.9045   30.2605   47.6160 H   0  0  0  0  0  0  0  0  0  0  0  0
   33.7080   30.1521   46.0327 H   0  0  0  0  0  0  0  0  0  0  0  0
   31.4860   29.0873   45.8376 H   0  0  0  0  0  0  0  0  0  0  0  0
   32.7117   27.7865   45.7843 H   0  0  0  0  0  0  0  0  0  0  0  0
   34.5587   29.4789   50.0771 H   0  0  0  0  0  0  0  0  0  0  0  0
   36.3124   30.1380   46.1910 H   0  0  0  0  0  0  0  0  0  0  0  0
   36.0692   31.2223   51.0813 H   0  0  0  0  0  0  0  0  0  0  0  0
   39.1200   33.7358   48.2323 H   0  0  0  0  0  0  0  0  0  0  0  0
   39.7495   32.1239   48.5954 H   0  0  0  0  0  0  0  0  0  0  0  0
   29.5601   29.3867   46.3828 H   0  0  0  0  0  0  0  0  0  0  0  0
   27.2869   29.5834   47.4763 H   0  0  0  0  0  0  0  0  0  0  0  0
   29.4157   26.7624   51.7268 H   0  0  0  0  0  0  0  0  0  0  0  0
  1 16  1  0
  1  2  1  0
  2  3  1  0
  4  8  1  0
  4  3  1  0
  5  4  1  0
  6  5  1  0
  6  1  1  0
  7 12  2  0
  8  7  1  0
  9 10  1  0
  9  8  2  0
 10 11  2  0
 11 13  1  0
 11 12  1  0
 14 13  1  0
 15 10  1  0
 15 14  1  0
 16 21  2  0
 17 18  2  0
 17 16  1  0
 18 19  1  0
 19 20  2  0
 20 22  1  0
 21 20  1  0
 22 23  2  0
  2 24  1  0
  2 25  1  0
  3 26  1  0
  3 27  1  0
  4 28  1  0
  5 29  1  0
  5 30  1  0
  6 31  1  0
  6 32  1  0
  7 33  1  0
  9 34  1  0
 12 35  1  0
 14 36  1  0
 14 37  1  0
 17 38  1  0
 18 39  1  0
 22 40  1  0
M  ISO  8  24  13  25  13  26  13  27  13  28  13  29  13  30  13  31  13
M  ISO  8  32  13  33  14  34  14  35  14  36  13  37  13  38  14  39  14
M  ISO  1  40   6
M  END
>  <minimizedAffinity>  (1) 
-6.68427801

>  <minimizedRMSD>  (1) 
1.46436417

$$$$
