
     RDKit          3D

 30 32  0  0  0  0  0  0  0  0999 V2000
   35.7010   29.4140   48.1980 C   0  0  0  0  0  0  0  0  0  0  0  0
   36.0660   30.2780   47.1560 C   0  0  0  0  0  0  0  0  0  0  0  0
   35.3730   30.1500   45.9620 C   0  0  0  0  0  0  0  0  0  0  0  0
   34.3970   29.2250   45.8420 N   0  0  0  0  0  0  0  0  0  0  0  0
   34.0690   28.4060   46.8690 C   0  0  0  0  0  0  0  0  0  0  0  0
   34.7230   28.4930   48.0640 N   0  0  0  0  0  0  0  0  0  0  0  0
   37.1040   31.2090   47.3940 N   0  0  0  0  0  0  0  0  0  0  0  0
   37.0850   32.0690   48.4320 C   0  0  0  0  0  0  0  0  0  0  0  0
   38.1220   32.9780   48.6340 C   0  0  0  0  0  0  0  0  0  0  0  0
   39.1220   32.8880   47.6810 C   0  0  0  0  0  0  0  0  0  0  0  0
   40.0760   33.7110   47.8490 O   0  0  0  0  0  0  0  0  0  0  0  0
   39.1810   32.0490   46.6320 N   0  0  0  0  0  0  0  0  0  0  0  0
   38.1300   31.2010   46.5160 C   0  0  0  0  0  0  0  0  0  0  0  0
   38.1780   30.4030   45.5270 O   0  0  0  0  0  0  0  0  0  0  0  0
   33.7010   29.8150   50.3740 Cl  0  0  0  0  0  0  0  0  0  0  0  0
   35.4230   29.5670   50.6020 C   0  0  0  0  0  0  0  0  0  0  0  0
   36.3000   29.3910   49.5210 C   0  0  0  0  0  0  0  0  0  0  0  0
   37.6740   29.1970   49.7180 C   0  0  0  0  0  0  0  0  0  0  0  0
   38.0710   29.1940   51.0350 C   0  0  0  0  0  0  0  0  0  0  0  0
   37.3130   29.3550   52.1600 C   0  0  0  0  0  0  0  0  0  0  0  0
   35.9830   29.5390   51.8830 C   0  0  0  0  0  0  0  0  0  0  0  0
   35.6187   30.8029   45.1115 H   0  0  0  0  0  0  0  0  0  0  0  0
   33.2679   27.6634   46.7392 H   0  0  0  0  0  0  0  0  0  0  0  0
   36.2363   32.0530   49.1317 H   0  0  0  0  0  0  0  0  0  0  0  0
   38.1437   33.6954   49.4676 H   0  0  0  0  0  0  0  0  0  0  0  0
   39.9666   32.0506   45.9659 H   0  0  0  0  0  0  0  0  0  0  0  0
   38.3792   29.0581   48.8853 H   0  0  0  0  0  0  0  0  0  0  0  0
   39.1468   29.0409   51.2058 H   0  0  0  0  0  0  0  0  0  0  0  0
   37.7258   29.3387   53.1795 H   0  0  0  0  0  0  0  0  0  0  0  0
   35.3023   29.6755   52.7362 H   0  0  0  0  0  0  0  0  0  0  0  0
  1 17  1  0
  2  7  1  0
  2  1  1  0
  3  2  2  0
  4  3  1  0
  4  5  2  0
  5  6  1  0
  6  1  2  0
  7  8  1  0
  8  9  2  0
 10 11  2  0
 10  9  1  0
 12 10  1  0
 13 12  1  0
 13  7  1  0
 14 13  2  0
 15 16  1  0
 16 21  2  0
 17 18  2  0
 17 16  1  0
 18 19  1  0
 19 20  2  0
 21 20  1  0
  3 22  1  0
  5 23  1  0
  8 24  1  0
  9 25  1  0
 12 26  1  0
 18 27  1  0
 19 28  1  0
 20 29  1  0
 21 30  1  0
M  ISO  8  22  14  23  14  24  14  25  14  26   9  27  14  28  14  29  14
M  ISO  1  30  14
M  END
>  <minimizedAffinity>  (1) 
-4.28839636

>  <minimizedRMSD>  (1) 
1.53883576

$$$$
