
     RDKit          3D

 30 32  0  0  0  0  0  0  0  0999 V2000
   35.0670   28.8340   50.2990 C   0  0  0  0  0  0  0  0  0  0  0  0
   36.1690   29.6690   49.9760 C   0  0  0  0  0  0  0  0  0  0  0  0
   36.1510   30.3710   48.7820 C   0  0  0  0  0  0  0  0  0  0  0  0
   35.0470   30.2180   47.9640 N   0  0  0  0  0  0  0  0  0  0  0  0
   34.0190   29.4210   48.2960 C   0  0  0  0  0  0  0  0  0  0  0  0
   34.0250   28.7420   49.4390 N   0  0  0  0  0  0  0  0  0  0  0  0
   32.9750   29.3950   47.3440 N   0  0  0  0  0  0  0  0  0  0  0  0
   37.1830   31.2270   48.2420 C   0  0  0  0  0  0  0  0  0  0  0  0
   37.7770   32.4190   48.5530 C   0  0  0  0  0  0  0  0  0  0  0  0
   38.8150   32.9650   47.8440 C   0  0  0  0  0  0  0  0  0  0  0  0
   39.3560   32.3500   46.7370 C   0  0  0  0  0  0  0  0  0  0  0  0
   40.3560   32.9730   46.1290 N   0  0  0  0  0  0  0  0  0  0  0  0
   40.9290   32.4100   45.0280 C   0  0  0  0  0  0  0  0  0  0  0  0
   40.4050   31.1990   44.6180 C   0  0  0  0  0  0  0  0  0  0  0  0
   39.3570   30.5560   45.2630 C   0  0  0  0  0  0  0  0  0  0  0  0
   38.7940   31.1460   46.3750 C   0  0  0  0  0  0  0  0  0  0  0  0
   37.7470   30.6150   47.1090 C   0  0  0  0  0  0  0  0  0  0  0  0
   37.3140   29.7460   50.9220 C   0  0  0  0  0  0  0  0  0  0  0  0
   38.5340   29.6210   50.2730 F   0  0  0  0  0  0  0  0  0  0  0  0
   37.2670   30.9420   51.5680 F   0  0  0  0  0  0  0  0  0  0  0  0
   37.2660   28.7410   51.8780 F   0  0  0  0  0  0  0  0  0  0  0  0
   35.0597   28.2660   51.2410 H   0  0  0  0  0  0  0  0  0  0  0  0
   32.1419   28.8123   47.5091 H   0  0  0  0  0  0  0  0  0  0  0  0
   33.0472   29.9588   46.4850 H   0  0  0  0  0  0  0  0  0  0  0  0
   37.3988   32.9729   49.4248 H   0  0  0  0  0  0  0  0  0  0  0  0
   39.2310   33.9294   48.1710 H   0  0  0  0  0  0  0  0  0  0  0  0
   41.7619   32.8926   44.4957 H   0  0  0  0  0  0  0  0  0  0  0  0
   40.8426   30.7175   43.7311 H   0  0  0  0  0  0  0  0  0  0  0  0
   38.9815   29.5907   44.8926 H   0  0  0  0  0  0  0  0  0  0  0  0
   37.3289   29.6508   46.7842 H   0  0  0  0  0  0  0  0  0  0  0  0
  2  1  2  0
  2 18  1  0
  3  2  1  0
  4  5  1  0
  4  3  2  0
  5  6  2  0
  6  1  1  0
  7  5  1  0
  8  9  2  0
  8  3  1  0
 10  9  1  0
 11 10  2  0
 12 11  1  0
 13 12  2  0
 14 13  1  0
 14 15  2  0
 15 16  1  0
 16 11  1  0
 16 17  2  0
 17  8  1  0
 18 20  1  0
 18 21  1  0
 19 18  1  0
  1 22  1  0
  7 23  1  0
  7 24  1  0
  9 25  1  0
 10 26  1  0
 13 27  1  0
 14 28  1  0
 15 29  1  0
 17 30  1  0
M  ISO  7  22  14  25  14  26  14  27  14  28  14  29  14  30  14
M  END
>  <minimizedAffinity>  (1) 
-7.13728571

>  <minimizedRMSD>  (1) 
1.2794652

$$$$
