
     RDKit          3D

 26 27  0  0  0  0  0  0  0  0999 V2000
   35.4120   28.7080   49.7120 C   0  0  0  0  0  0  0  0  0  0  0  0
   36.4580   29.6820   49.6460 C   0  0  0  0  0  0  0  0  0  0  0  0
   36.3640   30.7090   48.7200 C   0  0  0  0  0  0  0  0  0  0  0  0
   35.2480   30.7170   47.9130 N   0  0  0  0  0  0  0  0  0  0  0  0
   34.2770   29.7820   47.9980 C   0  0  0  0  0  0  0  0  0  0  0  0
   34.3460   28.7800   48.8890 N   0  0  0  0  0  0  0  0  0  0  0  0
   33.2550   29.9570   47.0540 N   0  0  0  0  0  0  0  0  0  0  0  0
   38.2760   31.8350   47.5700 C   0  0  0  0  0  0  0  0  0  0  0  0
   37.3530   31.7670   48.6190 C   0  0  0  0  0  0  0  0  0  0  0  0
   37.4950   32.7480   49.5730 C   0  0  0  0  0  0  0  0  0  0  0  0
   38.4600   33.7380   49.5320 C   0  0  0  0  0  0  0  0  0  0  0  0
   39.3500   33.7500   48.4560 C   0  0  0  0  0  0  0  0  0  0  0  0
   39.2690   32.7890   47.4540 C   0  0  0  0  0  0  0  0  0  0  0  0
   38.0870   30.0380   45.6990 N   0  0  0  0  0  0  0  0  0  0  0  0
   38.1760   30.8340   46.5390 C   0  0  0  0  0  0  0  0  0  0  0  0
   37.6040   29.5420   50.5950 C   0  0  0  0  0  0  0  0  0  0  0  0
   38.7820   29.9340   50.0000 F   0  0  0  0  0  0  0  0  0  0  0  0
   37.3590   30.3370   51.6830 F   0  0  0  0  0  0  0  0  0  0  0  0
   37.7720   28.2430   51.0430 F   0  0  0  0  0  0  0  0  0  0  0  0
   35.4782   27.8894   50.4438 H   0  0  0  0  0  0  0  0  0  0  0  0
   32.4613   29.3012   47.0268 H   0  0  0  0  0  0  0  0  0  0  0  0
   33.2980   30.7414   46.3878 H   0  0  0  0  0  0  0  0  0  0  0  0
   36.7964   32.7448   50.4227 H   0  0  0  0  0  0  0  0  0  0  0  0
   38.5247   34.4962   50.3263 H   0  0  0  0  0  0  0  0  0  0  0  0
   40.1246   34.5291   48.4003 H   0  0  0  0  0  0  0  0  0  0  0  0
   39.9669   32.7883   46.6038 H   0  0  0  0  0  0  0  0  0  0  0  0
  2  1  2  0
  2 16  1  0
  3  2  1  0
  4  5  1  0
  4  3  2  0
  5  6  2  0
  6  1  1  0
  7  5  1  0
  8  9  2  0
  9  3  1  0
  9 10  1  0
 11 10  2  0
 12 11  1  0
 13  8  1  0
 13 12  2  0
 14 15  3  0
 15  8  1  0
 16 19  1  0
 16 18  1  0
 17 16  1  0
  1 20  1  0
  7 21  1  0
  7 22  1  0
 10 23  1  0
 11 24  1  0
 12 25  1  0
 13 26  1  0
M  ISO  5  20  14  23  14  24  14  25  14  26  14
M  END
>  <minimizedAffinity>  (1) 
-5.94874048

>  <minimizedRMSD>  (1) 
1.7024672

$$$$
