
     RDKit          3D

 21 21  0  0  0  0  0  0  0  0999 V2000
   35.0090   29.7350   50.1700 C   0  0  0  0  0  0  0  0  0  0  0  0
   36.3730   29.9850   49.9120 C   0  0  0  0  0  0  0  0  0  0  0  0
   36.7420   30.4230   48.6280 C   0  0  0  0  0  0  0  0  0  0  0  0
   35.7220   30.5730   47.7120 N   0  0  0  0  0  0  0  0  0  0  0  0
   34.4330   30.3190   48.0140 C   0  0  0  0  0  0  0  0  0  0  0  0
   34.0630   29.8990   49.2400 N   0  0  0  0  0  0  0  0  0  0  0  0
   33.5860   30.5690   46.9080 N   0  0  0  0  0  0  0  0  0  0  0  0
   37.3710   29.7820   51.0070 C   0  0  0  0  0  0  0  0  0  0  0  0
   38.0780   28.6040   50.8470 F   0  0  0  0  0  0  0  0  0  0  0  0
   38.2680   30.8290   50.9430 F   0  0  0  0  0  0  0  0  0  0  0  0
   36.7920   29.7970   52.2620 F   0  0  0  0  0  0  0  0  0  0  0  0
   38.1450   30.6980   48.3200 C   0  0  0  0  0  0  0  0  0  0  0  0
   38.2830   32.1650   47.9630 C   0  0  0  0  0  0  0  0  0  0  0  0
   34.7131   29.3927   51.1727 H   0  0  0  0  0  0  0  0  0  0  0  0
   32.5706   30.4180   46.9924 H   0  0  0  0  0  0  0  0  0  0  0  0
   33.9850   30.9020   46.0187 H   0  0  0  0  0  0  0  0  0  0  0  0
   38.7686   30.4697   49.1969 H   0  0  0  0  0  0  0  0  0  0  0  0
   38.4741   30.0733   47.4765 H   0  0  0  0  0  0  0  0  0  0  0  0
   38.3392   32.7629   48.8846 H   0  0  0  0  0  0  0  0  0  0  0  0
   39.1991   32.3141   47.3727 H   0  0  0  0  0  0  0  0  0  0  0  0
   37.4107   32.4823   47.3727 H   0  0  0  0  0  0  0  0  0  0  0  0
  2  1  2  0
  2  8  1  0
  3  2  1  0
  4  5  1  0
  4  3  2  0
  5  6  2  0
  6  1  1  0
  7  5  1  0
  8 11  1  0
  9  8  1  0
 10  8  1  0
 12  3  1  0
 13 12  1  0
  1 14  1  0
  7 15  1  0
  7 16  1  0
 12 17  1  0
 12 18  1  0
 13 19  1  0
 13 20  1  0
 13 21  1  0
M  ISO  6  14  14  17   8  18   8  19   8  20   8  21   8
M  END
>  <minimizedAffinity>  (1) 
-5.02279472

>  <minimizedRMSD>  (1) 
1.63295627

$$$$
