
     RDKit          3D

 17 17  0  0  0  0  0  0  0  0999 V2000
   35.4500   29.1160   50.3630 C   0  0  0  0  0  0  0  0  0  0  0  0
   36.2080   30.0920   49.6780 C   0  0  0  0  0  0  0  0  0  0  0  0
   36.0280   30.2600   48.2950 C   0  0  0  0  0  0  0  0  0  0  0  0
   35.1030   29.4420   47.6980 N   0  0  0  0  0  0  0  0  0  0  0  0
   34.3930   28.5200   48.3720 C   0  0  0  0  0  0  0  0  0  0  0  0
   34.5530   28.3470   49.6880 N   0  0  0  0  0  0  0  0  0  0  0  0
   33.5030   27.8050   47.5190 N   0  0  0  0  0  0  0  0  0  0  0  0
   36.7800   31.2280   47.6170 N   0  0  0  0  0  0  0  0  0  0  0  0
   37.1780   30.9120   50.4660 C   0  0  0  0  0  0  0  0  0  0  0  0
   38.4520   30.8300   49.9450 F   0  0  0  0  0  0  0  0  0  0  0  0
   36.7610   32.2350   50.3890 F   0  0  0  0  0  0  0  0  0  0  0  0
   37.2230   30.5560   51.7930 F   0  0  0  0  0  0  0  0  0  0  0  0
   35.5855   28.9773   51.4458 H   0  0  0  0  0  0  0  0  0  0  0  0
   32.8981   27.0676   47.9079 H   0  0  0  0  0  0  0  0  0  0  0  0
   33.4647   28.0256   46.5136 H   0  0  0  0  0  0  0  0  0  0  0  0
   36.6559   31.3595   46.6030 H   0  0  0  0  0  0  0  0  0  0  0  0
   37.4571   31.8083   48.1325 H   0  0  0  0  0  0  0  0  0  0  0  0
  2  1  2  0
  2  9  1  0
  3  2  1  0
  4  3  2  0
  4  5  1  0
  5  6  2  0
  6  1  1  0
  7  5  1  0
  8  3  1  0
  9 12  1  0
 10  9  1  0
 11  9  1  0
  1 13  1  0
  7 14  1  0
  7 15  1  0
  8 16  1  0
  8 17  1  0
M  ISO  1  13  14
M  END
>  <minimizedAffinity>  (1) 
-4.66857576

>  <minimizedRMSD>  (1) 
0.274522156

$$$$
