
     RDKit          3D

 37 39  0  0  1  0  0  0  0  0999 V2000
   37.0470   31.3310   48.5790 C   0  0  0  0  0  0  0  0  0  0  0  0
   37.1910   32.3040   49.5790 C   0  0  0  0  0  0  0  0  0  0  0  0
   38.1260   33.3110   49.4190 C   0  0  0  0  0  0  0  0  0  0  0  0
   38.9090   33.3500   48.2770 C   0  0  0  0  0  0  0  0  0  0  0  0
   38.7390   32.3790   47.3190 C   0  0  0  0  0  0  0  0  0  0  0  0
   37.8230   31.4020   47.4880 N   0  0  0  0  0  0  0  0  0  0  0  0
   35.1770   28.5550   50.2910 C   0  0  0  0  0  0  0  0  0  0  0  0
   36.2010   29.5010   49.9960 C   0  0  0  0  0  0  0  0  0  0  0  0
   36.0270   30.3550   48.9090 C   0  0  0  0  0  0  0  0  0  0  0  0
   34.8680   30.2310   48.1810 N   0  0  0  0  0  0  0  0  0  0  0  0
   33.9220   29.3140   48.5020 C   0  0  0  0  0  0  0  0  0  0  0  0
   34.0660   28.4840   49.5390 N   0  0  0  0  0  0  0  0  0  0  0  0
   32.8230   29.3860   47.6000 N   0  0  0  0  0  0  0  0  0  0  0  0
   37.4100   29.5400   50.8570 C   0  0  0  0  0  0  0  0  0  0  0  0
   38.5500   29.8330   50.1240 F   0  0  0  0  0  0  0  0  0  0  0  0
   37.2420   30.5060   51.8090 F   0  0  0  0  0  0  0  0  0  0  0  0
   37.6450   28.3390   51.5110 F   0  0  0  0  0  0  0  0  0  0  0  0
   38.7820   32.7890   44.8680 C   0  0  1  0  0  0  0  0  0  0  0  0
   39.5590   32.3850   46.0800 C   0  0  2  0  0  0  0  0  0  0  0  0
   40.0310   31.0910   45.7640 O   0  0  0  0  0  0  0  0  0  0  0  0
   40.6430   31.3660   44.5400 C   0  0  0  0  0  0  0  0  0  0  0  0
   39.5340   32.0320   43.7750 C   0  0  2  0  0  0  0  0  0  0  0  0
   37.4730   32.3030   44.8810 O   0  0  0  0  0  0  0  0  0  0  0  0
   40.0310   32.9570   42.8410 O   0  0  0  0  0  0  0  0  0  0  0  0
   36.5656   32.2667   50.4831 H   0  0  0  0  0  0  0  0  0  0  0  0
   38.2474   34.0791   50.1970 H   0  0  0  0  0  0  0  0  0  0  0  0
   39.6555   34.1460   48.1388 H   0  0  0  0  0  0  0  0  0  0  0  0
   35.2978   27.8736   51.1461 H   0  0  0  0  0  0  0  0  0  0  0  0
   32.0209   28.7499   47.7137 H   0  0  0  0  0  0  0  0  0  0  0  0
   32.8299   30.0742   46.8337 H   0  0  0  0  0  0  0  0  0  0  0  0
   38.7089   33.8818   44.7657 H   0  0  0  0  0  0  0  0  0  0  0  0
   40.3679   33.0974   46.2996 H   0  0  0  0  0  0  0  0  0  0  0  0
   41.5023   32.0411   44.6662 H   0  0  0  0  0  0  0  0  0  0  0  0
   41.0523   30.4756   44.0403 H   0  0  0  0  0  0  0  0  0  0  0  0
   38.9266   31.3117   43.2074 H   0  0  0  0  0  0  0  0  0  0  0  0
   37.1718   32.1912   45.8174 H   0  0  0  0  0  0  0  0  0  0  0  0
   40.4413   33.7207   43.3191 H   0  0  0  0  0  0  0  0  0  0  0  0
  1  9  1  0
  1  2  2  0
  3  2  1  0
  4  3  2  0
  5  6  2  0
  5  4  1  0
  6  1  1  0
  8  7  2  0
  8 14  1  0
  9  8  1  0
 10 11  1  0
 10  9  2  0
 11 12  2  0
 12  7  1  0
 13 11  1  0
 14 17  1  0
 14 16  1  0
 15 14  1  0
 18 23  1  0
 18 19  1  0
 19  5  1  0
 20 19  1  0
 21 20  1  0
 22 24  1  0
 22 21  1  0
 22 18  1  0
  2 25  1  0
  3 26  1  0
  4 27  1  0
  7 28  1  0
 13 29  1  0
 13 30  1  0
 18 31  1  6
 19 32  1  1
 21 33  1  0
 21 34  1  0
 22 35  1  6
 23 36  1  0
 24 37  1  0
M  ISO  8  25  14  26  14  27  14  28  14  31  13  32  13  33  13  34  13
M  ISO  3  35  13  36   3  37   3
M  END
>  <minimizedAffinity>  (1) 
-7.62529469

>  <minimizedRMSD>  (1) 
0.612074912

$$$$
