
     RDKit          3D

 28 29  0  0  0  0  0  0  0  0999 V2000
   35.2120   28.5680   49.8460 C   0  0  0  0  0  0  0  0  0  0  0  0
   36.2590   29.5250   49.6950 C   0  0  0  0  0  0  0  0  0  0  0  0
   36.1390   30.4900   48.6990 C   0  0  0  0  0  0  0  0  0  0  0  0
   35.0130   30.4630   47.9180 N   0  0  0  0  0  0  0  0  0  0  0  0
   34.0370   29.5360   48.0930 C   0  0  0  0  0  0  0  0  0  0  0  0
   34.1290   28.5980   49.0420 N   0  0  0  0  0  0  0  0  0  0  0  0
   32.9760   29.7140   47.1700 N   0  0  0  0  0  0  0  0  0  0  0  0
   37.1850   31.4760   48.5210 C   0  0  0  0  0  0  0  0  0  0  0  0
   37.2180   32.4080   49.5630 C   0  0  0  0  0  0  0  0  0  0  0  0
   38.1660   33.4210   49.5400 C   0  0  0  0  0  0  0  0  0  0  0  0
   39.0590   33.5020   48.5020 C   0  0  0  0  0  0  0  0  0  0  0  0
   38.9990   32.5650   47.4860 C   0  0  0  0  0  0  0  0  0  0  0  0
   38.0700   31.5860   47.5260 N   0  0  0  0  0  0  0  0  0  0  0  0
   39.3360   32.5130   44.9980 C   0  0  0  0  0  0  0  0  0  0  0  0
   38.1010   32.6710   44.7840 O   0  0  0  0  0  0  0  0  0  0  0  0
   39.8190   32.4550   46.3170 N   0  0  0  0  0  0  0  0  0  0  0  0
   37.4280   29.4380   50.6140 C   0  0  0  0  0  0  0  0  0  0  0  0
   38.5870   29.8580   49.9670 F   0  0  0  0  0  0  0  0  0  0  0  0
   37.2100   30.2600   51.6750 F   0  0  0  0  0  0  0  0  0  0  0  0
   37.6510   28.1660   51.0860 F   0  0  0  0  0  0  0  0  0  0  0  0
   35.2885   27.7969   50.6267 H   0  0  0  0  0  0  0  0  0  0  0  0
   32.1652   29.0790   47.1886 H   0  0  0  0  0  0  0  0  0  0  0  0
   33.0158   30.4783   46.4807 H   0  0  0  0  0  0  0  0  0  0  0  0
   36.4994   32.3388   50.3929 H   0  0  0  0  0  0  0  0  0  0  0  0
   38.2014   34.1594   50.3545 H   0  0  0  0  0  0  0  0  0  0  0  0
   39.8135   34.3021   48.4777 H   0  0  0  0  0  0  0  0  0  0  0  0
   40.0334   32.4208   44.1523 H   0  0  0  0  0  0  0  0  0  0  0  0
   40.8318   32.3245   46.4518 H   0  0  0  0  0  0  0  0  0  0  0  0
  2  1  2  0
  2 17  1  0
  3  2  1  0
  4  5  1  0
  4  3  2  0
  5  6  2  0
  6  1  1  0
  7  5  1  0
  8  3  1  0
  8  9  2  0
 10  9  1  0
 11 10  2  0
 12 13  2  0
 12 11  1  0
 13  8  1  0
 14 16  1  0
 15 14  2  0
 16 12  1  0
 17 20  1  0
 17 19  1  0
 18 17  1  0
  1 21  1  0
  7 22  1  0
  7 23  1  0
  9 24  1  0
 10 25  1  0
 11 26  1  0
 14 27  1  0
 16 28  1  0
M  ISO  5  21  14  24  14  25  14  26  14  27   6
M  END
>  <minimizedAffinity>  (1) 
-6.99179316

>  <minimizedRMSD>  (1) 
0.268698812

$$$$
