
     RDKit          3D

 25 26  0  0  0  0  0  0  0  0999 V2000
   35.2010   28.6230   50.1410 C   0  0  0  0  0  0  0  0  0  0  0  0
   36.2490   29.5620   49.9160 C   0  0  0  0  0  0  0  0  0  0  0  0
   36.1270   30.4480   48.8460 C   0  0  0  0  0  0  0  0  0  0  0  0
   35.0020   30.3680   48.0710 N   0  0  0  0  0  0  0  0  0  0  0  0
   34.0240   29.4540   48.3250 C   0  0  0  0  0  0  0  0  0  0  0  0
   34.1150   28.5900   49.3440 N   0  0  0  0  0  0  0  0  0  0  0  0
   32.9620   29.5770   47.3740 N   0  0  0  0  0  0  0  0  0  0  0  0
   37.1760   31.4130   48.5900 C   0  0  0  0  0  0  0  0  0  0  0  0
   37.1940   32.4400   49.5440 C   0  0  0  0  0  0  0  0  0  0  0  0
   38.1460   33.4420   49.4310 C   0  0  0  0  0  0  0  0  0  0  0  0
   39.0540   33.4300   48.4060 C   0  0  0  0  0  0  0  0  0  0  0  0
   39.0070   32.4000   47.4800 C   0  0  0  0  0  0  0  0  0  0  0  0
   38.0760   31.4260   47.5950 N   0  0  0  0  0  0  0  0  0  0  0  0
   39.8510   32.2480   46.3910 O   0  0  0  0  0  0  0  0  0  0  0  0
   37.4130   29.5450   50.8260 C   0  0  0  0  0  0  0  0  0  0  0  0
   38.5930   29.8340   50.1320 F   0  0  0  0  0  0  0  0  0  0  0  0
   37.2420   30.4830   51.7940 F   0  0  0  0  0  0  0  0  0  0  0  0
   37.6120   28.3070   51.4280 F   0  0  0  0  0  0  0  0  0  0  0  0
   35.2798   27.9140   50.9784 H   0  0  0  0  0  0  0  0  0  0  0  0
   32.1442   28.9534   47.4317 H   0  0  0  0  0  0  0  0  0  0  0  0
   33.0153   30.2891   46.6317 H   0  0  0  0  0  0  0  0  0  0  0  0
   36.4655   32.4509   50.3681 H   0  0  0  0  0  0  0  0  0  0  0  0
   38.1720   34.2545   50.1721 H   0  0  0  0  0  0  0  0  0  0  0  0
   39.8088   34.2254   48.3190 H   0  0  0  0  0  0  0  0  0  0  0  0
   40.5660   32.9117   46.2224 H   0  0  0  0  0  0  0  0  0  0  0  0
  2  1  2  0
  2 15  1  0
  3  2  1  0
  4  5  1  0
  4  3  2  0
  5  6  2  0
  6  1  1  0
  7  5  1  0
  8  3  1  0
  8  9  2  0
 10  9  1  0
 11 10  2  0
 12 13  2  0
 12 11  1  0
 13  8  1  0
 14 12  1  0
 15 18  1  0
 15 17  1  0
 16 15  1  0
  1 19  1  0
  7 20  1  0
  7 21  1  0
  9 22  1  0
 10 23  1  0
 11 24  1  0
 14 25  1  0
M  ISO  5  19  14  22  14  23  14  24  14  25   3
M  END
>  <minimizedAffinity>  (1) 
-6.3448391

>  <minimizedRMSD>  (1) 
0.127909034

$$$$
