
     RDKit          3D

 34 36  0  0  0  0  0  0  0  0999 V2000
   36.8960   31.2760   48.5630 C   0  0  0  0  0  0  0  0  0  0  0  0
   37.0970   32.1420   49.6370 C   0  0  0  0  0  0  0  0  0  0  0  0
   38.0150   33.1820   49.4900 C   0  0  0  0  0  0  0  0  0  0  0  0
   38.7040   33.3410   48.2970 C   0  0  0  0  0  0  0  0  0  0  0  0
   38.4800   32.4680   47.2580 C   0  0  0  0  0  0  0  0  0  0  0  0
   37.5960   31.4850   47.4310 N   0  0  0  0  0  0  0  0  0  0  0  0
   35.1980   28.3450   50.1730 C   0  0  0  0  0  0  0  0  0  0  0  0
   36.1730   29.3390   49.8990 C   0  0  0  0  0  0  0  0  0  0  0  0
   35.9260   30.2530   48.8680 C   0  0  0  0  0  0  0  0  0  0  0  0
   34.7520   30.1400   48.1780 N   0  0  0  0  0  0  0  0  0  0  0  0
   33.8430   29.1660   48.4770 C   0  0  0  0  0  0  0  0  0  0  0  0
   34.0570   28.2840   49.4560 N   0  0  0  0  0  0  0  0  0  0  0  0
   32.7070   29.2440   47.6370 N   0  0  0  0  0  0  0  0  0  0  0  0
   37.4140   29.3670   50.7150 C   0  0  0  0  0  0  0  0  0  0  0  0
   38.5080   29.8170   49.9780 F   0  0  0  0  0  0  0  0  0  0  0  0
   37.2380   30.2030   51.7610 F   0  0  0  0  0  0  0  0  0  0  0  0
   37.7590   28.1150   51.2160 F   0  0  0  0  0  0  0  0  0  0  0  0
   39.1570   32.5750   45.9740 C   0  0  0  0  0  0  0  0  0  0  0  0
   40.5130   32.5020   45.7520 C   0  0  0  0  0  0  0  0  0  0  0  0
   40.7840   32.6430   44.4050 C   0  0  0  0  0  0  0  0  0  0  0  0
   39.5440   32.8030   43.8300 N   0  0  0  0  0  0  0  0  0  0  0  0
   38.6070   32.7600   44.7620 N   0  0  0  0  0  0  0  0  0  0  0  0
   39.2980   32.9930   42.3990 C   0  0  0  0  0  0  0  0  0  0  0  0
   36.5444   32.0082   50.5787 H   0  0  0  0  0  0  0  0  0  0  0  0
   38.1929   33.8781   50.3229 H   0  0  0  0  0  0  0  0  0  0  0  0
   39.4269   34.1621   48.1821 H   0  0  0  0  0  0  0  0  0  0  0  0
   35.3744   27.6168   50.9783 H   0  0  0  0  0  0  0  0  0  0  0  0
   31.9366   28.5696   47.7488 H   0  0  0  0  0  0  0  0  0  0  0  0
   32.6505   29.9752   46.9137 H   0  0  0  0  0  0  0  0  0  0  0  0
   41.2717   32.3529   46.5344 H   0  0  0  0  0  0  0  0  0  0  0  0
   41.7646   32.6303   43.9068 H   0  0  0  0  0  0  0  0  0  0  0  0
   38.4343   33.6601   42.2608 H   0  0  0  0  0  0  0  0  0  0  0  0
   40.1864   33.4416   41.9306 H   0  0  0  0  0  0  0  0  0  0  0  0
   39.0884   32.0200   41.9306 H   0  0  0  0  0  0  0  0  0  0  0  0
  1  9  1  0
  1  2  2  0
  3  2  1  0
  4  3  2  0
  5  6  2  0
  5  4  1  0
  6  1  1  0
  8  7  2  0
  8 14  1  0
  9  8  1  0
 10 11  1  0
 10  9  2  0
 11 12  2  0
 12  7  1  0
 13 11  1  0
 14 17  1  0
 14 16  1  0
 15 14  1  0
 18  5  1  0
 19 18  1  0
 20 19  2  0
 21 20  1  0
 21 22  1  0
 22 18  2  0
 23 21  1  0
  2 24  1  0
  3 25  1  0
  4 26  1  0
  7 27  1  0
 13 28  1  0
 13 29  1  0
 19 30  1  0
 20 31  1  0
 23 32  1  0
 23 33  1  0
 23 34  1  0
M  ISO  8  24  14  25  14  26  14  27  14  30  14  31  14  32   8  33   8
M  ISO  1  34   8
M  END
>  <minimizedAffinity>  (1) 
-7.02534676

>  <minimizedRMSD>  (1) 
0.825246036

$$$$
