
     RDKit          3D

 15 15  0  0  0  0  0  0  0  0999 V2000
   37.3440   29.8620   51.2810 C   0  0  0  0  0  0  0  0  0  0  0  0
   38.0050   30.9270   50.6350 C   0  0  0  0  0  0  0  0  0  0  0  0
   37.3500   31.5640   49.5780 C   0  0  0  0  0  0  0  0  0  0  0  0
   36.1180   31.1220   49.2330 N   0  0  0  0  0  0  0  0  0  0  0  0
   35.5100   30.0950   49.8740 C   0  0  0  0  0  0  0  0  0  0  0  0
   36.1250   29.4810   50.8840 N   0  0  0  0  0  0  0  0  0  0  0  0
   38.0220   32.6940   48.8740 C   0  0  0  0  0  0  0  0  0  0  0  0
   39.3260   32.6670   49.3020 F   0  0  0  0  0  0  0  0  0  0  0  0
   38.0090   32.5480   47.5000 F   0  0  0  0  0  0  0  0  0  0  0  0
   37.4710   33.9160   49.2220 F   0  0  0  0  0  0  0  0  0  0  0  0
   38.0070   29.2050   52.3650 N   0  0  0  0  0  0  0  0  0  0  0  0
   39.0078   31.2472   50.9542 H   0  0  0  0  0  0  0  0  0  0  0  0
   34.5077   29.7677   49.5604 H   0  0  0  0  0  0  0  0  0  0  0  0
   37.5458   28.4243   52.8535 H   0  0  0  0  0  0  0  0  0  0  0  0
   38.9456   29.5127   52.6570 H   0  0  0  0  0  0  0  0  0  0  0  0
  1 11  1  0
  2  1  2  0
  3  2  1  0
  4  3  2  0
  4  5  1  0
  5  6  2  0
  6  1  1  0
  7 10  1  0
  7  8  1  0
  7  3  1  0
  9  7  1  0
  2 12  1  0
  5 13  1  0
 11 14  1  0
 11 15  1  0
M  ISO  2  12  14  13  14
M  END
>  <minimizedAffinity>  (1) 
-4.39225578

>  <minimizedRMSD>  (1) 
0.685636103

$$$$
