
     RDKit          3D

 30 32  0  0  0  0  0  0  0  0999 V2000
   38.9690   31.9120   46.5400 C   0  0  0  0  0  0  0  0  0  0  0  0
   39.1590   32.9940   47.3430 C   0  0  0  0  0  0  0  0  0  0  0  0
   38.5890   32.7860   48.5940 C   0  0  0  0  0  0  0  0  0  0  0  0
   38.0550   31.5450   48.5070 N   0  0  0  0  0  0  0  0  0  0  0  0
   38.2800   31.0410   47.3060 N   0  0  0  0  0  0  0  0  0  0  0  0
   35.3990   30.4880   47.5240 Cl  0  0  0  0  0  0  0  0  0  0  0  0
   36.1060   30.2580   49.1100 C   0  0  0  0  0  0  0  0  0  0  0  0
   37.3410   30.7850   49.4750 C   0  0  0  0  0  0  0  0  0  0  0  0
   37.9150   30.6180   50.7100 C   0  0  0  0  0  0  0  0  0  0  0  0
   37.2290   29.8760   51.6720 C   0  0  0  0  0  0  0  0  0  0  0  0
   35.9990   29.3420   51.3320 C   0  0  0  0  0  0  0  0  0  0  0  0
   35.4340   29.5170   50.0870 C   0  0  0  0  0  0  0  0  0  0  0  0
   39.4030   31.7230   45.1680 C   0  0  0  0  0  0  0  0  0  0  0  0
   38.8820   32.5820   44.1730 C   0  0  0  0  0  0  0  0  0  0  0  0
   39.2890   32.4100   42.8560 C   0  0  0  0  0  0  0  0  0  0  0  0
   40.1760   31.4140   42.5950 N   0  0  0  0  0  0  0  0  0  0  0  0
   40.6690   30.5970   43.5550 C   0  0  0  0  0  0  0  0  0  0  0  0
   40.2700   30.7680   44.8300 N   0  0  0  0  0  0  0  0  0  0  0  0
   38.7480   33.3070   41.8050 C   0  0  0  0  0  0  0  0  0  0  0  0
   39.4080   34.4980   41.9410 F   0  0  0  0  0  0  0  0  0  0  0  0
   38.9620   32.8070   40.5220 F   0  0  0  0  0  0  0  0  0  0  0  0
   37.3860   33.5490   41.9820 F   0  0  0  0  0  0  0  0  0  0  0  0
   39.6912   33.9088   47.0432 H   0  0  0  0  0  0  0  0  0  0  0  0
   38.5751   33.4709   49.4547 H   0  0  0  0  0  0  0  0  0  0  0  0
   38.8963   31.0602   50.9371 H   0  0  0  0  0  0  0  0  0  0  0  0
   37.6549   29.7198   52.6741 H   0  0  0  0  0  0  0  0  0  0  0  0
   35.4509   28.7553   52.0839 H   0  0  0  0  0  0  0  0  0  0  0  0
   34.4531   29.0731   49.8617 H   0  0  0  0  0  0  0  0  0  0  0  0
   38.1658   33.3739   44.4376 H   0  0  0  0  0  0  0  0  0  0  0  0
   41.3861   29.8037   43.2972 H   0  0  0  0  0  0  0  0  0  0  0  0
  1  5  2  0
  1  2  1  0
  2  3  2  0
  4  3  1  0
  4  8  1  0
  5  4  1  0
  6  7  1  0
  7  8  2  0
  7 12  1  0
  8  9  1  0
  9 10  2  0
 11 10  1  0
 12 11  2  0
 13  1  1  0
 14 13  2  0
 15 14  1  0
 16 15  2  0
 16 17  1  0
 17 18  2  0
 18 13  1  0
 19 20  1  0
 19 22  1  0
 19 15  1  0
 21 19  1  0
  2 23  1  0
  3 24  1  0
  9 25  1  0
 10 26  1  0
 11 27  1  0
 12 28  1  0
 14 29  1  0
 17 30  1  0
M  ISO  8  23  14  24  14  25  14  26  14  27  14  28  14  29  14  30  14
M  END
>  <minimizedAffinity>  (1) 
-6.47495556

>  <minimizedRMSD>  (1) 
7.62734938

$$$$
