
     RDKit          3D

 30 32  0  0  0  0  0  0  0  0999 V2000
   38.8060   30.8120   45.7110 C   0  0  0  0  0  0  0  0  0  0  0  0
   40.0280   31.3900   45.9220 C   0  0  0  0  0  0  0  0  0  0  0  0
   40.8020   31.2860   44.7660 C   0  0  0  0  0  0  0  0  0  0  0  0
   39.9850   30.6270   43.8790 N   0  0  0  0  0  0  0  0  0  0  0  0
   38.8360   30.3610   44.4420 N   0  0  0  0  0  0  0  0  0  0  0  0
   39.1850   32.6280   41.7930 Cl  0  0  0  0  0  0  0  0  0  0  0  0
   40.1740   31.2120   41.5360 C   0  0  0  0  0  0  0  0  0  0  0  0
   40.4810   30.3560   42.5730 C   0  0  0  0  0  0  0  0  0  0  0  0
   41.2680   29.2480   42.3160 C   0  0  0  0  0  0  0  0  0  0  0  0
   41.7810   28.9320   41.0580 C   0  0  0  0  0  0  0  0  0  0  0  0
   41.4680   29.7900   40.0410 C   0  0  0  0  0  0  0  0  0  0  0  0
   42.0880   29.4340   38.4510 Cl  0  0  0  0  0  0  0  0  0  0  0  0
   40.6840   30.9010   40.2750 C   0  0  0  0  0  0  0  0  0  0  0  0
   37.6930   30.7010   46.6570 C   0  0  0  0  0  0  0  0  0  0  0  0
   37.9620   30.9530   48.0280 C   0  0  0  0  0  0  0  0  0  0  0  0
   36.9160   30.8520   48.9420 C   0  0  0  0  0  0  0  0  0  0  0  0
   35.6980   30.5170   48.4600 N   0  0  0  0  0  0  0  0  0  0  0  0
   35.4550   30.2790   47.1510 C   0  0  0  0  0  0  0  0  0  0  0  0
   36.4680   30.3780   46.2710 N   0  0  0  0  0  0  0  0  0  0  0  0
   37.1910   31.1140   50.3810 C   0  0  0  0  0  0  0  0  0  0  0  0
   36.6810   32.3790   50.6360 F   0  0  0  0  0  0  0  0  0  0  0  0
   36.5560   30.2060   51.2090 F   0  0  0  0  0  0  0  0  0  0  0  0
   38.5500   31.1460   50.6590 F   0  0  0  0  0  0  0  0  0  0  0  0
   40.3510   31.8645   46.8603 H   0  0  0  0  0  0  0  0  0  0  0  0
   41.8279   31.6475   44.6025 H   0  0  0  0  0  0  0  0  0  0  0  0
   41.5035   28.5756   43.1541 H   0  0  0  0  0  0  0  0  0  0  0  0
   42.4038   28.0404   40.8932 H   0  0  0  0  0  0  0  0  0  0  0  0
   40.4514   31.5691   39.4327 H   0  0  0  0  0  0  0  0  0  0  0  0
   38.9751   31.2223   48.3613 H   0  0  0  0  0  0  0  0  0  0  0  0
   34.4444   30.0086   46.8109 H   0  0  0  0  0  0  0  0  0  0  0  0
  1  2  1  0
  1 14  1  0
  3  2  2  0
  4  5  1  0
  4  3  1  0
  5  1  2  0
  7  6  1  0
  7  8  2  0
  8  4  1  0
  9  8  1  0
 10  9  2  0
 11 13  2  0
 11 10  1  0
 12 11  1  0
 13  7  1  0
 14 15  2  0
 15 16  1  0
 16 20  1  0
 17 16  2  0
 18 17  1  0
 19 14  1  0
 19 18  2  0
 20 21  1  0
 20 23  1  0
 20 22  1  0
  2 24  1  0
  3 25  1  0
  9 26  1  0
 10 27  1  0
 13 28  1  0
 15 29  1  0
 18 30  1  0
M  ISO  7  24  14  25  14  26  14  27  14  28  14  29  14  30  14
M  END
>  <minimizedAffinity>  (1) 
-6.45774269

>  <minimizedRMSD>  (1) 
1.30445731

$$$$
