
     RDKit          3D

 40 43  0  0  1  0  0  0  0  0999 V2000
   38.8890   30.8890   45.7750 C   0  0  0  0  0  0  0  0  0  0  0  0
   40.1150   31.4280   46.0570 C   0  0  0  0  0  0  0  0  0  0  0  0
   40.9380   31.3960   44.9400 C   0  0  0  0  0  0  0  0  0  0  0  0
   40.1470   30.8170   43.9890 N   0  0  0  0  0  0  0  0  0  0  0  0
   38.9620   30.5240   44.4720 N   0  0  0  0  0  0  0  0  0  0  0  0
   37.7510   30.7340   46.6610 C   0  0  0  0  0  0  0  0  0  0  0  0
   37.9680   30.9630   48.0460 C   0  0  0  0  0  0  0  0  0  0  0  0
   36.8830   30.8160   48.9060 C   0  0  0  0  0  0  0  0  0  0  0  0
   35.6870   30.4640   48.3710 N   0  0  0  0  0  0  0  0  0  0  0  0
   35.5090   30.2520   47.0460 C   0  0  0  0  0  0  0  0  0  0  0  0
   36.5530   30.3910   46.2040 N   0  0  0  0  0  0  0  0  0  0  0  0
   37.0960   31.0540   50.3690 C   0  0  0  0  0  0  0  0  0  0  0  0
   36.5670   32.2900   50.6190 F   0  0  0  0  0  0  0  0  0  0  0  0
   36.4200   30.1120   51.1480 F   0  0  0  0  0  0  0  0  0  0  0  0
   38.4410   31.0430   50.7050 F   0  0  0  0  0  0  0  0  0  0  0  0
   40.4870   30.5310   42.6010 C   0  0  0  0  0  0  0  0  0  0  0  0
   40.0320   31.3550   41.5580 C   0  0  0  0  0  0  0  0  0  0  0  0
   40.3960   31.0380   40.2830 C   0  0  0  0  0  0  0  0  0  0  0  0
   41.2160   29.8940   40.0430 C   0  0  0  0  0  0  0  0  0  0  0  0
   41.4730   29.2450   41.7590 S   0  0  0  0  0  0  0  0  0  0  0  0
   42.9020   30.0510   38.3430 C   0  0  2  0  0  0  0  0  0  0  0  0
   41.7830   29.2540   38.9370 C   0  0  1  0  0  0  0  0  0  0  0  0
   42.4350   28.0700   39.3530 O   0  0  0  0  0  0  0  0  0  0  0  0
   43.1370   27.6630   38.2150 C   0  0  0  0  0  0  0  0  0  0  0  0
   43.7600   28.9400   37.7300 C   0  0  2  0  0  0  0  0  0  0  0  0
   43.6400   30.6130   39.3780 O   0  0  0  0  0  0  0  0  0  0  0  0
   45.0940   29.0590   38.0700 O   0  0  0  0  0  0  0  0  0  0  0  0
   40.4085   31.8322   47.0370 H   0  0  0  0  0  0  0  0  0  0  0  0
   41.9748   31.7506   44.8440 H   0  0  0  0  0  0  0  0  0  0  0  0
   38.9603   31.2470   48.4264 H   0  0  0  0  0  0  0  0  0  0  0  0
   34.5193   29.9682   46.6587 H   0  0  0  0  0  0  0  0  0  0  0  0
   39.3999   32.2313   41.7643 H   0  0  0  0  0  0  0  0  0  0  0  0
   40.0590   31.6616   39.4418 H   0  0  0  0  0  0  0  0  0  0  0  0
   42.5822   30.8456   37.6528 H   0  0  0  0  0  0  0  0  0  0  0  0
   40.9565   29.0964   38.2285 H   0  0  0  0  0  0  0  0  0  0  0  0
   43.9064   26.9192   38.4697 H   0  0  0  0  0  0  0  0  0  0  0  0
   42.4990   27.1777   37.4617 H   0  0  0  0  0  0  0  0  0  0  0  0
   43.7710   28.9844   36.6309 H   0  0  0  0  0  0  0  0  0  0  0  0
   43.2622   30.3253   40.2467 H   0  0  0  0  0  0  0  0  0  0  0  0
   45.1838   29.0670   39.0559 H   0  0  0  0  0  0  0  0  0  0  0  0
  1  2  1  0
  1  6  1  0
  3  2  2  0
  4  5  1  0
  4  3  1  0
  5  1  2  0
  6  7  2  0
  7  8  1  0
  8 12  1  0
  9  8  2  0
 10  9  1  0
 11  6  1  0
 11 10  2  0
 12 13  1  0
 12 15  1  0
 12 14  1  0
 16  4  1  0
 17 16  2  0
 18 17  1  0
 19 18  2  0
 19 20  1  0
 20 16  1  0
 21 22  1  0
 21 26  1  0
 22 23  1  0
 22 19  1  0
 24 23  1  0
 25 27  1  0
 25 24  1  0
 25 21  1  0
  2 28  1  0
  3 29  1  0
  7 30  1  0
 10 31  1  0
 17 32  1  0
 18 33  1  0
 21 34  1  6
 22 35  1  6
 24 36  1  0
 24 37  1  0
 25 38  1  6
 26 39  1  0
 27 40  1  0
M  ISO  8  28  14  29  14  30  14  31  14  32  14  33  14  34  13  35  13
M  ISO  5  36  13  37  13  38  13  39   3  40   3
M  END
>  <minimizedAffinity>  (1) 
-6.69703484

>  <minimizedRMSD>  (1) 
0.789599895

$$$$
