
     RDKit          3D

 28 30  0  0  0  0  0  0  0  0999 V2000
   38.9110   30.8960   45.7630 C   0  0  0  0  0  0  0  0  0  0  0  0
   40.1140   31.5290   46.0270 C   0  0  0  0  0  0  0  0  0  0  0  0
   40.9420   31.4690   44.9200 C   0  0  0  0  0  0  0  0  0  0  0  0
   40.2090   30.7980   44.0150 N   0  0  0  0  0  0  0  0  0  0  0  0
   39.0160   30.4550   44.4960 N   0  0  0  0  0  0  0  0  0  0  0  0
   37.7880   30.7500   46.6720 C   0  0  0  0  0  0  0  0  0  0  0  0
   38.0050   30.9860   48.0530 C   0  0  0  0  0  0  0  0  0  0  0  0
   36.9210   30.8430   48.9150 C   0  0  0  0  0  0  0  0  0  0  0  0
   35.7170   30.4860   48.3770 N   0  0  0  0  0  0  0  0  0  0  0  0
   35.5410   30.2680   47.0550 C   0  0  0  0  0  0  0  0  0  0  0  0
   36.5840   30.4030   46.2110 N   0  0  0  0  0  0  0  0  0  0  0  0
   37.1240   31.0860   50.3680 C   0  0  0  0  0  0  0  0  0  0  0  0
   36.5960   32.3070   50.6270 F   0  0  0  0  0  0  0  0  0  0  0  0
   36.4640   30.1370   51.1500 F   0  0  0  0  0  0  0  0  0  0  0  0
   38.4790   31.0690   50.7030 F   0  0  0  0  0  0  0  0  0  0  0  0
   40.5630   30.4300   42.6370 C   0  0  0  0  0  0  0  0  0  0  0  0
   40.1990   31.2080   41.5360 C   0  0  0  0  0  0  0  0  0  0  0  0
   40.5470   30.8260   40.2990 C   0  0  0  0  0  0  0  0  0  0  0  0
   41.2880   29.6210   40.1350 C   0  0  0  0  0  0  0  0  0  0  0  0
   41.4770   29.0330   41.8860 S   0  0  0  0  0  0  0  0  0  0  0  0
   41.7970   28.9440   39.0730 O   0  0  0  0  0  0  0  0  0  0  0  0
   40.3743   32.0109   46.9809 H   0  0  0  0  0  0  0  0  0  0  0  0
   41.9585   31.8741   44.8074 H   0  0  0  0  0  0  0  0  0  0  0  0
   38.9974   31.2727   48.4311 H   0  0  0  0  0  0  0  0  0  0  0  0
   34.5515   29.9817   46.6691 H   0  0  0  0  0  0  0  0  0  0  0  0
   39.6261   32.1353   41.6839 H   0  0  0  0  0  0  0  0  0  0  0  0
   40.2651   31.4328   39.4259 H   0  0  0  0  0  0  0  0  0  0  0  0
   42.2921   28.0987   39.2160 H   0  0  0  0  0  0  0  0  0  0  0  0
  1  2  1  0
  1  6  1  0
  3  2  2  0
  4  5  1  0
  4  3  1  0
  5  1  2  0
  6  7  2  0
  7  8  1  0
  8 12  1  0
  9  8  2  0
 10  9  1  0
 11  6  1  0
 11 10  2  0
 12 13  1  0
 12 15  1  0
 12 14  1  0
 16  4  1  0
 17 16  2  0
 18 17  1  0
 19 18  2  0
 19 20  1  0
 20 16  1  0
 21 19  1  0
  2 22  1  0
  3 23  1  0
  7 24  1  0
 10 25  1  0
 17 26  1  0
 18 27  1  0
 21 28  1  0
M  ISO  7  22  14  23  14  24  14  25  14  26  14  27  14  28   3
M  END
>  <minimizedAffinity>  (1) 
-6.12192678

>  <minimizedRMSD>  (1) 
0.00851902273

$$$$
