
     RDKit          3D

 40 41  0  0  1  0  0  0  0  0999 V2000
   37.3950   31.2770   44.9610 C   0  0  2  0  0  0  0  0  0  0  0  0
   38.7350   31.0700   44.3750 C   0  0  0  0  0  0  0  0  0  0  0  0
   39.7800   30.7190   45.4120 C   0  0  0  0  0  0  0  0  0  0  0  0
   39.8760   31.7370   46.5120 C   0  0  0  0  0  0  0  0  0  0  0  0
   38.5460   32.2990   46.9280 C   0  0  0  0  0  0  0  0  0  0  0  0
   37.3920   31.4210   46.4490 C   0  0  2  0  0  0  0  0  0  0  0  0
   36.4290   30.2250   44.6100 C   0  0  0  0  0  0  0  0  0  0  0  0
   36.8400   29.3470   43.5800 C   0  0  0  0  0  0  0  0  0  0  0  0
   35.9500   28.3290   43.2490 C   0  0  0  0  0  0  0  0  0  0  0  0
   34.7620   28.2230   43.9050 N   0  0  0  0  0  0  0  0  0  0  0  0
   34.4110   29.0940   44.8900 C   0  0  0  0  0  0  0  0  0  0  0  0
   35.2440   30.0510   45.2040 N   0  0  0  0  0  0  0  0  0  0  0  0
   37.4010   30.2730   47.2470 N   0  0  0  0  0  0  0  0  0  0  0  0
   36.2600   30.2140   48.5120 S   0  0  0  0  0  0  0  0  0  0  0  0
   34.9710   30.8020   47.9590 O   0  0  0  0  0  0  0  0  0  0  0  0
   35.9820   28.8190   48.9890 O   0  0  0  0  0  0  0  0  0  0  0  0
   36.6780   31.1630   49.8140 O   0  0  0  0  0  0  0  0  0  0  0  0
   37.8200   30.7290   50.4560 C   0  0  0  0  0  0  0  0  0  0  0  0
   37.3900   30.0690   51.7540 C   0  0  0  0  0  0  0  0  0  0  0  0
   37.0832   32.2301   44.5090 H   0  0  0  0  0  0  0  0  0  0  0  0
   38.6762   30.2504   43.6437 H   0  0  0  0  0  0  0  0  0  0  0  0
   39.0404   32.0158   43.9036 H   0  0  0  0  0  0  0  0  0  0  0  0
   39.5216   29.7461   45.8556 H   0  0  0  0  0  0  0  0  0  0  0  0
   40.7544   30.6904   44.9025 H   0  0  0  0  0  0  0  0  0  0  0  0
   40.3415   31.2605   47.3874 H   0  0  0  0  0  0  0  0  0  0  0  0
   40.4741   32.5752   46.1251 H   0  0  0  0  0  0  0  0  0  0  0  0
   38.5133   32.3646   48.0256 H   0  0  0  0  0  0  0  0  0  0  0  0
   38.4344   33.2940   46.4724 H   0  0  0  0  0  0  0  0  0  0  0  0
   36.3969   31.8670   46.5935 H   0  0  0  0  0  0  0  0  0  0  0  0
   37.8076   29.4620   43.0697 H   0  0  0  0  0  0  0  0  0  0  0  0
   36.2069   27.6100   42.4571 H   0  0  0  0  0  0  0  0  0  0  0  0
   33.4471   28.9948   45.4106 H   0  0  0  0  0  0  0  0  0  0  0  0
   37.2289   29.4642   46.6329 H   0  0  0  0  0  0  0  0  0  0  0  0
   34.3825   31.0704   48.7085 H   0  0  0  0  0  0  0  0  0  0  0  0
   35.9789   28.8032   49.9789 H   0  0  0  0  0  0  0  0  0  0  0  0
   38.3534   30.0035   49.8243 H   0  0  0  0  0  0  0  0  0  0  0  0
   38.4970   31.5727   50.6557 H   0  0  0  0  0  0  0  0  0  0  0  0
   37.7701   30.6525   52.6055 H   0  0  0  0  0  0  0  0  0  0  0  0
   36.2916   30.0285   51.7984 H   0  0  0  0  0  0  0  0  0  0  0  0
   37.7967   29.0479   51.7984 H   0  0  0  0  0  0  0  0  0  0  0  0
  1  6  1  0
  2  1  1  0
  2  3  1  0
  3  4  1  0
  4  5  1  0
  6  5  1  0
  6 13  1  0
  7  1  1  0
  7 12  1  0
  8  7  2  0
  9  8  1  0
  9 10  2  0
 10 11  1  0
 11 12  2  0
 13 14  1  0
 14 16  1  0
 14 17  1  0
 15 14  1  0
 17 18  1  0
 18 19  1  0
  1 20  1  6
  2 21  1  0
  2 22  1  0
  3 23  1  0
  3 24  1  0
  4 25  1  0
  4 26  1  0
  5 27  1  0
  5 28  1  0
  6 29  1  6
  8 30  1  0
  9 31  1  0
 11 32  1  0
 13 33  1  0
 15 34  1  0
 16 35  1  0
 18 36  1  0
 18 37  1  0
 19 38  1  0
 19 39  1  0
 19 40  1  0
M  ISO  8  20  13  21  13  22  13  23  13  24  13  25  13  26  13  27  13
M  ISO  8  28  13  29  13  30  14  31  14  32  14  33   5  34   3  35   3
M  ISO  5  36   8  37   8  38   8  39   8  40   8
M  END
>  <minimizedAffinity>  (1) 
-4.33633518

>  <minimizedRMSD>  (1) 
3.28635454

$$$$
