
     RDKit          3D

 31 33  0  0  0  0  0  0  0  0999 V2000
   38.9090   30.9000   45.7880 C   0  0  0  0  0  0  0  0  0  0  0  0
   40.0980   31.5280   46.0380 C   0  0  0  0  0  0  0  0  0  0  0  0
   40.9420   31.4680   44.9310 C   0  0  0  0  0  0  0  0  0  0  0  0
   40.2090   30.7890   44.0340 N   0  0  0  0  0  0  0  0  0  0  0  0
   39.0170   30.4500   44.5200 N   0  0  0  0  0  0  0  0  0  0  0  0
   37.7690   30.7450   46.6820 C   0  0  0  0  0  0  0  0  0  0  0  0
   38.0010   30.9710   48.0690 C   0  0  0  0  0  0  0  0  0  0  0  0
   36.9180   30.8230   48.9280 C   0  0  0  0  0  0  0  0  0  0  0  0
   35.7100   30.4730   48.3930 N   0  0  0  0  0  0  0  0  0  0  0  0
   35.5290   30.2670   47.0690 C   0  0  0  0  0  0  0  0  0  0  0  0
   36.5640   30.4060   46.2230 N   0  0  0  0  0  0  0  0  0  0  0  0
   37.1210   31.0500   50.3850 C   0  0  0  0  0  0  0  0  0  0  0  0
   36.6030   32.2980   50.6400 F   0  0  0  0  0  0  0  0  0  0  0  0
   36.4560   30.1150   51.1680 F   0  0  0  0  0  0  0  0  0  0  0  0
   38.4760   31.0590   50.7180 F   0  0  0  0  0  0  0  0  0  0  0  0
   40.5740   30.4160   42.6630 C   0  0  0  0  0  0  0  0  0  0  0  0
   40.1920   31.1910   41.5610 C   0  0  0  0  0  0  0  0  0  0  0  0
   40.5270   30.8350   40.3250 C   0  0  0  0  0  0  0  0  0  0  0  0
   41.2910   29.6400   40.1260 C   0  0  0  0  0  0  0  0  0  0  0  0
   41.4930   29.0520   41.9010 S   0  0  0  0  0  0  0  0  0  0  0  0
   43.0280   29.3240   38.4330 C   0  0  0  0  0  0  0  0  0  0  0  0
   43.6510   30.3450   38.7720 O   0  0  0  0  0  0  0  0  0  0  0  0
   41.8310   28.9270   39.0870 N   0  0  0  0  0  0  0  0  0  0  0  0
   40.3546   32.0169   46.9894 H   0  0  0  0  0  0  0  0  0  0  0  0
   41.9575   31.8759   44.8195 H   0  0  0  0  0  0  0  0  0  0  0  0
   38.9961   31.2511   48.4450 H   0  0  0  0  0  0  0  0  0  0  0  0
   34.5371   29.9863   46.6852 H   0  0  0  0  0  0  0  0  0  0  0  0
   39.6059   32.1081   41.7206 H   0  0  0  0  0  0  0  0  0  0  0  0
   40.2214   31.4503   39.4659 H   0  0  0  0  0  0  0  0  0  0  0  0
   43.4139   28.7117   37.6046 H   0  0  0  0  0  0  0  0  0  0  0  0
   41.3515   28.0726   38.7691 H   0  0  0  0  0  0  0  0  0  0  0  0
  1  2  1  0
  1  6  1  0
  3  2  2  0
  4  5  1  0
  4  3  1  0
  5  1  2  0
  6  7  2  0
  7  8  1  0
  8 12  1  0
  9  8  2  0
 10  9  1  0
 11  6  1  0
 11 10  2  0
 12 13  1  0
 12 15  1  0
 12 14  1  0
 16  4  1  0
 17 16  2  0
 18 17  1  0
 19 18  2  0
 19 20  1  0
 20 16  1  0
 21 22  2  0
 21 23  1  0
 23 19  1  0
  2 24  1  0
  3 25  1  0
  7 26  1  0
 10 27  1  0
 17 28  1  0
 18 29  1  0
 21 30  1  0
 23 31  1  0
M  ISO  7  24  14  25  14  26  14  27  14  28  14  29  14  30   6
M  END
>  <minimizedAffinity>  (1) 
-6.10471916

>  <minimizedRMSD>  (1) 
0.109080583

$$$$
