
     RDKit          3D

 26 27  0  0  0  0  0  0  0  0999 V2000
   38.9820   32.4750   47.9370 O   0  0  0  0  0  0  0  0  0  0  0  0
   38.4570   31.4560   46.9940 P   0  0  2  0  0  0  0  0  0  0  0  0
   37.3950   32.1990   45.8840 O   0  0  0  0  0  0  0  0  0  0  0  0
   37.6880   30.1310   47.7200 O   0  0  0  0  0  0  0  0  0  0  0  0
   37.3360   30.1370   51.4110 C   0  0  0  0  0  0  0  0  0  0  0  0
   37.9560   30.3880   50.1830 C   0  0  0  0  0  0  0  0  0  0  0  0
   37.2990   30.0000   49.0180 C   0  0  0  0  0  0  0  0  0  0  0  0
   36.0790   29.3930   49.1320 N   0  0  0  0  0  0  0  0  0  0  0  0
   35.5140   29.1690   50.3290 C   0  0  0  0  0  0  0  0  0  0  0  0
   36.1390   29.5390   51.4640 N   0  0  0  0  0  0  0  0  0  0  0  0
   39.7520   30.8860   46.0540 O   0  0  0  0  0  0  0  0  0  0  0  0
   40.8520   32.6090   44.3040 F   0  0  0  0  0  0  0  0  0  0  0  0
   40.2670   31.4390   43.8850 C   0  0  0  0  0  0  0  0  0  0  0  0
   39.6780   30.5010   44.7390 C   0  0  0  0  0  0  0  0  0  0  0  0
   39.1370   29.3790   44.1420 C   0  0  0  0  0  0  0  0  0  0  0  0
   39.1800   29.2070   42.7880 C   0  0  0  0  0  0  0  0  0  0  0  0
   39.7540   30.1210   41.9640 C   0  0  0  0  0  0  0  0  0  0  0  0
   40.3100   31.2620   42.5170 C   0  0  0  0  0  0  0  0  0  0  0  0
   36.6922   32.6907   46.3783 H   0  0  0  0  0  0  0  0  0  0  0  0
   37.8372   30.4341   52.3440 H   0  0  0  0  0  0  0  0  0  0  0  0
   38.9388   30.8800   50.1383 H   0  0  0  0  0  0  0  0  0  0  0  0
   34.5310   28.6785   50.3838 H   0  0  0  0  0  0  0  0  0  0  0  0
   38.6627   28.6097   44.7690 H   0  0  0  0  0  0  0  0  0  0  0  0
   38.7360   28.3002   42.3514 H   0  0  0  0  0  0  0  0  0  0  0  0
   39.7768   29.9578   40.8764 H   0  0  0  0  0  0  0  0  0  0  0  0
   40.7809   32.0193   41.8730 H   0  0  0  0  0  0  0  0  0  0  0  0
  2  4  1  0
  2  1  2  0
  3  2  1  0
  4  7  1  0
  5 10  2  0
  6  5  1  0
  7  8  1  0
  7  6  2  0
  8  9  2  0
  9 10  1  0
 11  2  1  0
 13 12  1  0
 13 14  2  0
 14 11  1  0
 15 14  1  0
 16 15  2  0
 17 18  2  0
 17 16  1  0
 18 13  1  0
  3 19  1  0
  5 20  1  0
  6 21  1  0
  9 22  1  0
 15 23  1  0
 16 24  1  0
 17 25  1  0
 18 26  1  0
M  ISO  8  19   3  20  14  21  14  22  14  23  14  24  14  25  14  26  14
M  END
>  <minimizedAffinity>  (1) 
-5.36508036

>  <minimizedRMSD>  (1) 
2.78694749

$$$$
