
     RDKit          3D

 26 27  0  0  0  0  0  0  0  0999 V2000
   39.1400   32.7010   48.1090 O   0  0  0  0  0  0  0  0  0  0  0  0
   38.6430   31.7140   47.1130 P   0  0  2  0  0  0  0  0  0  0  0  0
   37.5000   32.4350   46.0860 O   0  0  0  0  0  0  0  0  0  0  0  0
   38.0060   30.2970   47.7880 O   0  0  0  0  0  0  0  0  0  0  0  0
   37.3000   30.1890   51.4260 C   0  0  0  0  0  0  0  0  0  0  0  0
   38.0100   30.5030   50.2530 C   0  0  0  0  0  0  0  0  0  0  0  0
   37.5030   30.1080   49.0220 C   0  0  0  0  0  0  0  0  0  0  0  0
   36.3230   29.4260   49.0320 N   0  0  0  0  0  0  0  0  0  0  0  0
   35.6640   29.1390   50.1630 C   0  0  0  0  0  0  0  0  0  0  0  0
   36.1480   29.5170   51.3510 N   0  0  0  0  0  0  0  0  0  0  0  0
   39.9720   31.2900   46.1320 O   0  0  0  0  0  0  0  0  0  0  0  0
   39.8960   30.9530   44.8060 C   0  0  0  0  0  0  0  0  0  0  0  0
   39.2570   29.7320   44.5650 C   0  0  0  0  0  0  0  0  0  0  0  0
   39.0900   29.2340   43.2890 C   0  0  0  0  0  0  0  0  0  0  0  0
   39.5590   29.9420   42.1900 C   0  0  0  0  0  0  0  0  0  0  0  0
   40.1970   31.1590   42.4240 C   0  0  0  0  0  0  0  0  0  0  0  0
   40.3560   31.6430   43.7040 C   0  0  0  0  0  0  0  0  0  0  0  0
   36.8001   32.8765   46.6295 H   0  0  0  0  0  0  0  0  0  0  0  0
   37.6937   30.4971   52.4058 H   0  0  0  0  0  0  0  0  0  0  0  0
   38.9587   31.0567   50.3103 H   0  0  0  0  0  0  0  0  0  0  0  0
   34.7142   28.5863   50.1137 H   0  0  0  0  0  0  0  0  0  0  0  0
   38.8763   29.1515   45.4183 H   0  0  0  0  0  0  0  0  0  0  0  0
   38.5819   28.2696   43.1412 H   0  0  0  0  0  0  0  0  0  0  0  0
   39.4311   29.5550   41.1683 H   0  0  0  0  0  0  0  0  0  0  0  0
   40.5795   31.7421   41.5733 H   0  0  0  0  0  0  0  0  0  0  0  0
   40.8644   32.6073   43.8513 H   0  0  0  0  0  0  0  0  0  0  0  0
  2  4  1  0
  2  1  2  0
  3  2  1  0
  4  7  1  0
  6  5  2  0
  7  8  2  0
  7  6  1  0
  8  9  1  0
  9 10  2  0
 10  5  1  0
 11  2  1  0
 12 11  1  0
 13 12  2  0
 14 13  1  0
 15 16  1  0
 15 14  2  0
 16 17  2  0
 17 12  1  0
  3 18  1  0
  5 19  1  0
  6 20  1  0
  9 21  1  0
 13 22  1  0
 14 23  1  0
 15 24  1  0
 16 25  1  0
 17 26  1  0
M  ISO  8  18   3  19  14  20  14  21  14  22  14  23  14  24  14  25  14
M  ISO  1  26  14
M  END
>  <minimizedAffinity>  (1) 
-5.21488714

>  <minimizedRMSD>  (1) 
2.71010303

$$$$
