
     RDKit          3D

 19 19  0  0  0  0  0  0  0  0999 V2000
   37.3680   30.2560   51.2800 C   0  0  0  0  0  0  0  0  0  0  0  0
   38.0700   30.6020   50.1250 C   0  0  0  0  0  0  0  0  0  0  0  0
   37.5650   30.1940   48.8990 C   0  0  0  0  0  0  0  0  0  0  0  0
   36.4110   29.4760   48.8810 N   0  0  0  0  0  0  0  0  0  0  0  0
   35.7550   29.1580   50.0250 C   0  0  0  0  0  0  0  0  0  0  0  0
   36.2380   29.5500   51.2230 N   0  0  0  0  0  0  0  0  0  0  0  0
   38.0660   30.4070   47.6600 O   0  0  0  0  0  0  0  0  0  0  0  0
   39.1020   32.8300   48.0290 O   0  0  0  0  0  0  0  0  0  0  0  0
   38.7620   31.7930   47.0130 P   0  0  2  0  0  0  0  0  0  0  0  0
   37.7280   32.4740   45.8340 O   0  0  0  0  0  0  0  0  0  0  0  0
   40.1980   31.3830   46.2080 O   0  0  0  0  0  0  0  0  0  0  0  0
   40.6310   32.4000   45.3570 C   0  0  0  0  0  0  0  0  0  0  0  0
   37.7553   30.5726   52.2597 H   0  0  0  0  0  0  0  0  0  0  0  0
   39.0014   31.1842   50.1850 H   0  0  0  0  0  0  0  0  0  0  0  0
   34.8226   28.5764   49.9761 H   0  0  0  0  0  0  0  0  0  0  0  0
   36.9909   32.9595   46.2824 H   0  0  0  0  0  0  0  0  0  0  0  0
   40.9927   33.2494   45.9551 H   0  0  0  0  0  0  0  0  0  0  0  0
   41.4473   32.0244   44.7224 H   0  0  0  0  0  0  0  0  0  0  0  0
   39.7945   32.7281   44.7224 H   0  0  0  0  0  0  0  0  0  0  0  0
  2  1  2  0
  3  2  1  0
  4  3  2  0
  4  5  1  0
  5  6  2  0
  6  1  1  0
  7  3  1  0
  9  7  1  0
  9  8  2  0
 10  9  1  0
 11  9  1  0
 12 11  1  0
  1 13  1  0
  2 14  1  0
  5 15  1  0
 10 16  1  0
 12 17  1  0
 12 18  1  0
 12 19  1  0
M  ISO  7  13  14  14  14  15  14  16   3  17   8  18   8  19   8
M  END
>  <minimizedAffinity>  (1) 
-4.52269793

>  <minimizedRMSD>  (1) 
0.227071151

$$$$
