
     RDKit          3D

 37 39  0  0  1  0  0  0  0  0999 V2000
   36.7270   29.4760   44.1890 Cl  0  0  0  0  0  0  0  0  0  0  0  0
   38.3570   29.8400   43.6130 C   0  0  0  0  0  0  0  0  0  0  0  0
   39.3750   30.3510   44.4290 C   0  0  0  0  0  0  0  0  0  0  0  0
   40.6100   30.5920   43.8500 C   0  0  0  0  0  0  0  0  0  0  0  0
   40.8160   30.3330   42.5050 C   0  0  0  0  0  0  0  0  0  0  0  0
   39.8410   29.8390   41.7000 C   0  0  0  0  0  0  0  0  0  0  0  0
   38.6300   29.6010   42.2660 C   0  0  0  0  0  0  0  0  0  0  0  0
   35.8260   30.6010   41.9270 O   0  0  0  0  0  0  0  0  0  0  0  0
   36.1970   29.3980   41.9190 C   0  0  0  0  0  0  0  0  0  0  0  0
   37.5340   29.0520   41.3880 C   0  0  2  0  0  0  0  0  0  0  0  0
   37.6350   27.5400   41.4490 C   0  0  0  0  0  0  0  0  0  0  0  0
   36.6230   27.2070   42.5200 C   0  0  0  0  0  0  0  0  0  0  0  0
   35.5640   28.1760   42.3440 N   0  0  0  0  0  0  0  0  0  0  0  0
   38.9680   30.5360   45.7270 O   0  0  0  0  0  0  0  0  0  0  0  0
   39.4940   32.6410   47.1340 O   0  0  0  0  0  0  0  0  0  0  0  0
   38.3800   31.9270   46.4550 P   0  0  1  0  0  0  0  0  0  0  0  0
   37.7930   32.9040   45.1740 O   0  0  0  0  0  0  0  0  0  0  0  0
   37.0960   31.5280   47.4870 O   0  0  0  0  0  0  0  0  0  0  0  0
   37.6350   30.5090   50.9830 C   0  0  0  0  0  0  0  0  0  0  0  0
   37.7440   31.3260   49.8560 C   0  0  0  0  0  0  0  0  0  0  0  0
   37.1230   30.9140   48.6710 C   0  0  0  0  0  0  0  0  0  0  0  0
   36.4400   29.7260   48.6870 N   0  0  0  0  0  0  0  0  0  0  0  0
   36.3600   28.9700   49.7970 C   0  0  0  0  0  0  0  0  0  0  0  0
   36.9600   29.3690   50.9410 N   0  0  0  0  0  0  0  0  0  0  0  0
   41.4321   30.9915   44.4620 H   0  0  0  0  0  0  0  0  0  0  0  0
   41.8071   30.5353   42.0729 H   0  0  0  0  0  0  0  0  0  0  0  0
   40.0243   29.6399   40.6338 H   0  0  0  0  0  0  0  0  0  0  0  0
   37.6477   29.4641   40.3745 H   0  0  0  0  0  0  0  0  0  0  0  0
   37.3654   27.0812   40.4863 H   0  0  0  0  0  0  0  0  0  0  0  0
   38.6484   27.1689   41.6621 H   0  0  0  0  0  0  0  0  0  0  0  0
   36.2390   26.1850   42.3855 H   0  0  0  0  0  0  0  0  0  0  0  0
   37.0588   27.2479   43.5292 H   0  0  0  0  0  0  0  0  0  0  0  0
   34.5565   28.0226   42.4931 H   0  0  0  0  0  0  0  0  0  0  0  0
   37.3209   33.6898   45.5479 H   0  0  0  0  0  0  0  0  0  0  0  0
   38.1178   30.8168   51.9222 H   0  0  0  0  0  0  0  0  0  0  0  0
   38.3048   32.2714   49.8983 H   0  0  0  0  0  0  0  0  0  0  0  0
   35.8031   28.0217   49.7737 H   0  0  0  0  0  0  0  0  0  0  0  0
  2  1  1  0
  2  3  2  0
  3 14  1  0
  4  3  1  0
  5  4  2  0
  6  7  2  0
  6  5  1  0
  7  2  1  0
  9  8  2  0
  9 13  1  0
 10 11  1  0
 10  9  1  0
 10  7  1  0
 11 12  1  0
 13 12  1  0
 14 16  1  0
 16 15  2  0
 16 18  1  0
 17 16  1  0
 18 21  1  0
 20 19  2  0
 21 22  2  0
 21 20  1  0
 22 23  1  0
 23 24  2  0
 24 19  1  0
  4 25  1  0
  5 26  1  0
  6 27  1  0
 10 28  1  6
 11 29  1  0
 11 30  1  0
 12 31  1  0
 12 32  1  0
 13 33  1  0
 17 34  1  0
 19 35  1  0
 20 36  1  0
 23 37  1  0
M  ISO  8  25  14  26  14  27  14  28  13  29  13  30  13  31  13  32  13
M  ISO  5  33  10  34   3  35  14  36  14  37  14
M  END
>  <minimizedAffinity>  (1) 
-4.95741272

>  <minimizedRMSD>  (1) 
0.299589872

$$$$
