
     RDKit          3D

 36 38  0  0  0  0  0  0  0  0999 V2000
   36.6500   29.5410   44.0450 Cl  0  0  0  0  0  0  0  0  0  0  0  0
   38.3020   29.9100   43.4920 C   0  0  0  0  0  0  0  0  0  0  0  0
   39.3140   30.3620   44.3200 C   0  0  0  0  0  0  0  0  0  0  0  0
   40.5430   30.6050   43.7440 C   0  0  0  0  0  0  0  0  0  0  0  0
   40.7560   30.4080   42.4030 C   0  0  0  0  0  0  0  0  0  0  0  0
   39.7660   29.9610   41.5680 C   0  0  0  0  0  0  0  0  0  0  0  0
   38.5430   29.7150   42.1200 C   0  0  0  0  0  0  0  0  0  0  0  0
   36.5830   31.6890   40.8630 Cl  0  0  0  0  0  0  0  0  0  0  0  0
   36.5000   29.9650   40.5880 C   0  0  0  0  0  0  0  0  0  0  0  0
   37.4720   29.2360   41.2410 C   0  0  0  0  0  0  0  0  0  0  0  0
   37.5270   27.8570   41.1140 C   0  0  0  0  0  0  0  0  0  0  0  0
   36.6020   27.1780   40.3230 C   0  0  0  0  0  0  0  0  0  0  0  0
   35.6220   27.9290   39.6660 C   0  0  0  0  0  0  0  0  0  0  0  0
   34.4300   27.1410   38.6570 Cl  0  0  0  0  0  0  0  0  0  0  0  0
   35.5820   29.3010   39.8040 C   0  0  0  0  0  0  0  0  0  0  0  0
   38.9180   30.5000   45.6180 O   0  0  0  0  0  0  0  0  0  0  0  0
   39.4670   32.5090   47.1370 O   0  0  0  0  0  0  0  0  0  0  0  0
   38.3370   31.8570   46.4240 P   0  0  1  0  0  0  0  0  0  0  0  0
   37.7660   32.8900   45.1920 O   0  0  0  0  0  0  0  0  0  0  0  0
   37.0570   31.4180   47.4330 O   0  0  0  0  0  0  0  0  0  0  0  0
   37.6080   30.5260   50.9810 C   0  0  0  0  0  0  0  0  0  0  0  0
   37.7150   31.3060   49.8150 C   0  0  0  0  0  0  0  0  0  0  0  0
   37.0910   30.8460   48.6530 C   0  0  0  0  0  0  0  0  0  0  0  0
   36.4120   29.6640   48.7170 N   0  0  0  0  0  0  0  0  0  0  0  0
   36.3330   28.9420   49.8570 C   0  0  0  0  0  0  0  0  0  0  0  0
   36.9370   29.3860   50.9840 N   0  0  0  0  0  0  0  0  0  0  0  0
   41.3705   30.9646   44.3732 H   0  0  0  0  0  0  0  0  0  0  0  0
   41.7523   30.6153   41.9854 H   0  0  0  0  0  0  0  0  0  0  0  0
   39.9501   29.8065   40.4946 H   0  0  0  0  0  0  0  0  0  0  0  0
   38.3089   27.2925   41.6431 H   0  0  0  0  0  0  0  0  0  0  0  0
   36.6415   26.0837   40.2185 H   0  0  0  0  0  0  0  0  0  0  0  0
   34.8039   29.8747   39.2791 H   0  0  0  0  0  0  0  0  0  0  0  0
   37.3295   33.6797   45.5994 H   0  0  0  0  0  0  0  0  0  0  0  0
   38.0912   30.8705   51.9072 H   0  0  0  0  0  0  0  0  0  0  0  0
   38.2751   32.2527   49.8183 H   0  0  0  0  0  0  0  0  0  0  0  0
   35.7773   27.9927   49.8688 H   0  0  0  0  0  0  0  0  0  0  0  0
  2  1  1  0
  2  3  2  0
  3 16  1  0
  4  3  1  0
  5  4  2  0
  6  7  2  0
  6  5  1  0
  7  2  1  0
  9  8  1  0
  9 10  2  0
 10  7  1  0
 11 10  1  0
 12 11  2  0
 13 15  2  0
 13 12  1  0
 14 13  1  0
 15  9  1  0
 16 18  1  0
 18 17  2  0
 18 20  1  0
 19 18  1  0
 20 23  1  0
 21 26  2  0
 22 21  1  0
 23 24  1  0
 23 22  2  0
 24 25  2  0
 25 26  1  0
  4 27  1  0
  5 28  1  0
  6 29  1  0
 11 30  1  0
 12 31  1  0
 15 32  1  0
 19 33  1  0
 21 34  1  0
 22 35  1  0
 25 36  1  0
M  ISO  8  27  14  28  14  29  14  30  14  31  14  32  14  33   3  34  14
M  ISO  2  35  14  36  14
M  END
>  <minimizedAffinity>  (1) 
-4.90225554

>  <minimizedRMSD>  (1) 
0.167668894

$$$$
