
     RDKit          3D

 29 30  0  0  0  0  0  0  0  0999 V2000
   39.4380   32.4840   47.0990 O   0  0  0  0  0  0  0  0  0  0  0  0
   38.3020   31.8240   46.4050 P   0  0  2  0  0  0  0  0  0  0  0  0
   37.7210   32.8480   45.1750 O   0  0  0  0  0  0  0  0  0  0  0  0
   37.0300   31.3980   47.4330 O   0  0  0  0  0  0  0  0  0  0  0  0
   37.6130   30.5320   50.9760 C   0  0  0  0  0  0  0  0  0  0  0  0
   37.7100   31.3010   49.8130 C   0  0  0  0  0  0  0  0  0  0  0  0
   37.0750   30.8330   48.6620 C   0  0  0  0  0  0  0  0  0  0  0  0
   36.3890   29.6390   48.7300 N   0  0  0  0  0  0  0  0  0  0  0  0
   36.3320   28.9410   49.8850 C   0  0  0  0  0  0  0  0  0  0  0  0
   36.9410   29.3880   50.9960 N   0  0  0  0  0  0  0  0  0  0  0  0
   38.8530   30.4400   45.6180 O   0  0  0  0  0  0  0  0  0  0  0  0
   36.6290   29.4430   44.0300 Cl  0  0  0  0  0  0  0  0  0  0  0  0
   38.2660   29.8330   43.4850 C   0  0  0  0  0  0  0  0  0  0  0  0
   39.2860   30.3110   44.3190 C   0  0  0  0  0  0  0  0  0  0  0  0
   40.5140   30.5710   43.7520 C   0  0  0  0  0  0  0  0  0  0  0  0
   40.7190   30.3650   42.4110 C   0  0  0  0  0  0  0  0  0  0  0  0
   39.7470   29.9030   41.5840 C   0  0  0  0  0  0  0  0  0  0  0  0
   38.5270   29.6380   42.1200 C   0  0  0  0  0  0  0  0  0  0  0  0
   37.4480   29.1280   41.2170 C   0  0  0  0  0  0  0  0  0  0  0  0
   37.2757   33.6329   45.5820 H   0  0  0  0  0  0  0  0  0  0  0  0
   38.1047   30.8829   51.8953 H   0  0  0  0  0  0  0  0  0  0  0  0
   38.2705   32.2475   49.8052 H   0  0  0  0  0  0  0  0  0  0  0  0
   35.7780   27.9912   49.9165 H   0  0  0  0  0  0  0  0  0  0  0  0
   41.3363   30.9465   44.3787 H   0  0  0  0  0  0  0  0  0  0  0  0
   41.7112   30.5831   41.9892 H   0  0  0  0  0  0  0  0  0  0  0  0
   39.9411   29.7478   40.5124 H   0  0  0  0  0  0  0  0  0  0  0  0
   36.6179   28.7356   41.8228 H   0  0  0  0  0  0  0  0  0  0  0  0
   37.0827   29.9488   40.5822 H   0  0  0  0  0  0  0  0  0  0  0  0
   37.8503   28.3247   40.5822 H   0  0  0  0  0  0  0  0  0  0  0  0
  2  1  2  0
  2  4  1  0
  3  2  1  0
  4  7  1  0
  5 10  2  0
  6  5  1  0
  7  8  1  0
  7  6  2  0
  8  9  2  0
  9 10  1  0
 11  2  1  0
 13 12  1  0
 13 14  2  0
 14 11  1  0
 15 14  1  0
 16 15  2  0
 17 18  2  0
 17 16  1  0
 18 13  1  0
 19 18  1  0
  3 20  1  0
  5 21  1  0
  6 22  1  0
  9 23  1  0
 15 24  1  0
 16 25  1  0
 17 26  1  0
 19 27  1  0
 19 28  1  0
 19 29  1  0
M  ISO  8  20   3  21  14  22  14  23  14  24  14  25  14  26  14  27   8
M  ISO  2  28   8  29   8
M  END
>  <minimizedAffinity>  (1) 
-4.89452362

>  <minimizedRMSD>  (1) 
0.00838542171

$$$$
