
     RDKit          3D

 27 28  0  0  0  0  0  0  0  0999 V2000
   39.4570   32.4380   47.0800 O   0  0  0  0  0  0  0  0  0  0  0  0
   38.3010   31.7940   46.3900 P   0  0  2  0  0  0  0  0  0  0  0  0
   37.7180   32.8380   45.1710 O   0  0  0  0  0  0  0  0  0  0  0  0
   37.0300   31.3940   47.4330 O   0  0  0  0  0  0  0  0  0  0  0  0
   37.6130   30.5290   50.9750 C   0  0  0  0  0  0  0  0  0  0  0  0
   37.7070   31.2970   49.8070 C   0  0  0  0  0  0  0  0  0  0  0  0
   37.0670   30.8180   48.6560 C   0  0  0  0  0  0  0  0  0  0  0  0
   36.3930   29.6390   48.7330 N   0  0  0  0  0  0  0  0  0  0  0  0
   36.3330   28.9370   49.8830 C   0  0  0  0  0  0  0  0  0  0  0  0
   36.9420   29.3890   50.9840 N   0  0  0  0  0  0  0  0  0  0  0  0
   38.8240   30.4270   45.5830 O   0  0  0  0  0  0  0  0  0  0  0  0
   36.6010   29.4310   43.9850 Cl  0  0  0  0  0  0  0  0  0  0  0  0
   38.2470   29.8170   43.4490 C   0  0  0  0  0  0  0  0  0  0  0  0
   39.2400   30.2870   44.2880 C   0  0  0  0  0  0  0  0  0  0  0  0
   40.4850   30.5480   43.7370 C   0  0  0  0  0  0  0  0  0  0  0  0
   40.7090   30.3410   42.3990 C   0  0  0  0  0  0  0  0  0  0  0  0
   39.7450   29.8790   41.5620 C   0  0  0  0  0  0  0  0  0  0  0  0
   38.5140   29.6180   42.0880 C   0  0  0  0  0  0  0  0  0  0  0  0
   37.2250   29.0050   40.9910 S   0  0  0  0  0  0  0  0  0  0  0  0
   37.2805   33.6215   45.5890 H   0  0  0  0  0  0  0  0  0  0  0  0
   38.1031   30.8782   51.8958 H   0  0  0  0  0  0  0  0  0  0  0  0
   38.2649   32.2449   49.7939 H   0  0  0  0  0  0  0  0  0  0  0  0
   35.7797   27.9868   49.9153 H   0  0  0  0  0  0  0  0  0  0  0  0
   41.2980   30.9232   44.3759 H   0  0  0  0  0  0  0  0  0  0  0  0
   41.7067   30.5574   41.9894 H   0  0  0  0  0  0  0  0  0  0  0  0
   39.9504   29.7202   40.4931 H   0  0  0  0  0  0  0  0  0  0  0  0
   36.1872   28.5115   41.7368 H   0  0  0  0  0  0  0  0  0  0  0  0
  2  1  2  0
  2  4  1  0
  3  2  1  0
  4  7  1  0
  5 10  2  0
  6  5  1  0
  7  8  1  0
  7  6  2  0
  8  9  2  0
  9 10  1  0
 11  2  1  0
 13 12  1  0
 13 14  2  0
 14 11  1  0
 15 14  1  0
 16 15  2  0
 17 18  2  0
 17 16  1  0
 18 13  1  0
 19 18  1  0
  3 20  1  0
  5 21  1  0
  6 22  1  0
  9 23  1  0
 15 24  1  0
 16 25  1  0
 17 26  1  0
 19 27  1  0
M  ISO  8  20   3  21  14  22  14  23  14  24  14  25  14  26  14  27  11
M  END
>  <minimizedAffinity>  (1) 
-4.87559605

>  <minimizedRMSD>  (1) 
0.0317034237

$$$$
