
     RDKit          3D

 32 33  0  0  0  0  0  0  0  0999 V2000
   36.7380   29.4130   43.9560 Cl  0  0  0  0  0  0  0  0  0  0  0  0
   38.3750   29.8450   43.4640 C   0  0  0  0  0  0  0  0  0  0  0  0
   39.3310   30.3460   44.3290 C   0  0  0  0  0  0  0  0  0  0  0  0
   40.5900   30.6550   43.8140 C   0  0  0  0  0  0  0  0  0  0  0  0
   40.8530   30.4600   42.4840 C   0  0  0  0  0  0  0  0  0  0  0  0
   39.9120   29.9620   41.6120 C   0  0  0  0  0  0  0  0  0  0  0  0
   38.6630   29.6560   42.1220 C   0  0  0  0  0  0  0  0  0  0  0  0
   38.8750   30.4660   45.6080 O   0  0  0  0  0  0  0  0  0  0  0  0
   39.4130   32.5020   47.1140 O   0  0  0  0  0  0  0  0  0  0  0  0
   38.2910   31.8220   46.4110 P   0  0  1  0  0  0  0  0  0  0  0  0
   37.7010   32.8380   45.1810 O   0  0  0  0  0  0  0  0  0  0  0  0
   37.0090   31.3710   47.4240 O   0  0  0  0  0  0  0  0  0  0  0  0
   37.6050   30.5310   50.9730 C   0  0  0  0  0  0  0  0  0  0  0  0
   37.6920   31.2870   49.8010 C   0  0  0  0  0  0  0  0  0  0  0  0
   37.0600   30.8180   48.6540 C   0  0  0  0  0  0  0  0  0  0  0  0
   36.3850   29.6370   48.7430 N   0  0  0  0  0  0  0  0  0  0  0  0
   36.3210   28.9320   49.8940 C   0  0  0  0  0  0  0  0  0  0  0  0
   36.9350   29.3900   51.0000 N   0  0  0  0  0  0  0  0  0  0  0  0
   37.8590   29.1750   41.1180 O   0  0  0  0  0  0  0  0  0  0  0  0
   38.5210   26.6350   41.3250 O   0  0  0  0  0  0  0  0  0  0  0  0
   37.8140   27.6460   40.4350 P   0  0  0  0  0  0  0  0  0  0  0  0
   38.3840   27.5680   38.8470 O   0  0  0  0  0  0  0  0  0  0  0  0
   36.1720   27.1480   40.4080 O   0  0  0  0  0  0  0  0  0  0  0  0
   41.3718   31.0554   44.4762 H   0  0  0  0  0  0  0  0  0  0  0  0
   41.8525   30.7105   42.0990 H   0  0  0  0  0  0  0  0  0  0  0  0
   40.1447   29.8126   40.5473 H   0  0  0  0  0  0  0  0  0  0  0  0
   37.2476   33.6188   45.5871 H   0  0  0  0  0  0  0  0  0  0  0  0
   38.1009   30.8897   51.8870 H   0  0  0  0  0  0  0  0  0  0  0  0
   38.2497   32.2350   49.7857 H   0  0  0  0  0  0  0  0  0  0  0  0
   35.7663   27.9827   49.9267 H   0  0  0  0  0  0  0  0  0  0  0  0
   39.3648   27.4338   38.8547 H   0  0  0  0  0  0  0  0  0  0  0  0
   35.8422   27.0480   41.3361 H   0  0  0  0  0  0  0  0  0  0  0  0
  2  1  1  0
  2  3  2  0
  3  8  1  0
  4  3  1  0
  5  4  2  0
  6  7  2  0
  6  5  1  0
  7  2  1  0
  8 10  1  0
 10  9  2  0
 10 12  1  0
 11 10  1  0
 12 15  1  0
 13 18  2  0
 14 13  1  0
 15 16  1  0
 15 14  2  0
 16 17  2  0
 17 18  1  0
 19  7  1  0
 21 19  1  0
 21 20  2  0
 22 21  1  0
 23 21  1  0
  4 24  1  0
  5 25  1  0
  6 26  1  0
 11 27  1  0
 13 28  1  0
 14 29  1  0
 17 30  1  0
 22 31  1  0
 23 32  1  0
M  ISO  8  24  14  25  14  26  14  27   3  28  14  29  14  30  14  31   3
M  ISO  1  32   3
M  END
>  <minimizedAffinity>  (1) 
-4.64183426

>  <minimizedRMSD>  (1) 
0.468383402

$$$$
