
     RDKit          3D

 21 22  0  0  0  0  0  0  0  0999 V2000
   38.2560   33.4630   49.5470 Cl  0  0  0  0  0  0  0  0  0  0  0  0
   38.6560   32.5490   48.1210 C   0  0  0  0  0  0  0  0  0  0  0  0
   38.0830   31.3040   48.0810 C   0  0  0  0  0  0  0  0  0  0  0  0
   38.3380   30.4790   46.9740 C   0  0  0  0  0  0  0  0  0  0  0  0
   39.1380   30.8910   45.9500 C   0  0  0  0  0  0  0  0  0  0  0  0
   39.7050   32.1440   46.0080 C   0  0  0  0  0  0  0  0  0  0  0  0
   40.7320   32.7020   44.7150 Cl  0  0  0  0  0  0  0  0  0  0  0  0
   39.4610   32.9470   47.0790 C   0  0  0  0  0  0  0  0  0  0  0  0
   37.7840   29.9810   50.1430 C   0  0  0  0  0  0  0  0  0  0  0  0
   37.1940   30.6540   49.0620 C   0  0  0  0  0  0  0  0  0  0  0  0
   35.7910   30.6740   48.9690 C   0  0  0  0  0  0  0  0  0  0  0  0
   35.0780   30.0380   49.9360 N   0  0  0  0  0  0  0  0  0  0  0  0
   35.6890   29.3930   50.9730 C   0  0  0  0  0  0  0  0  0  0  0  0
   37.0460   29.3670   51.0730 N   0  0  0  0  0  0  0  0  0  0  0  0
   39.9950   34.2250   47.2100 O   0  0  0  0  0  0  0  0  0  0  0  0
   37.8825   29.4786   46.9321 H   0  0  0  0  0  0  0  0  0  0  0  0
   39.3277   30.2319   45.0900 H   0  0  0  0  0  0  0  0  0  0  0  0
   38.8806   29.9583   50.2270 H   0  0  0  0  0  0  0  0  0  0  0  0
   35.2856   31.1889   48.1386 H   0  0  0  0  0  0  0  0  0  0  0  0
   35.0776   28.8889   51.7359 H   0  0  0  0  0  0  0  0  0  0  0  0
   39.7860   34.7692   48.0102 H   0  0  0  0  0  0  0  0  0  0  0  0
  2  1  1  0
  3  2  2  0
  3 10  1  0
  4  3  1  0
  5  6  1  0
  5  4  2  0
  6  8  2  0
  7  6  1  0
  8 15  1  0
  8  2  1  0
  9 14  2  0
 10  9  1  0
 11 10  2  0
 11 12  1  0
 12 13  2  0
 13 14  1  0
  4 16  1  0
  5 17  1  0
  9 18  1  0
 11 19  1  0
 13 20  1  0
 15 21  1  0
M  ISO  6  16  14  17  14  18  14  19  14  20  14  21   3
M  END
>  <minimizedAffinity>  (1) 
-5.98244715

>  <minimizedRMSD>  (1) 
0.0111859059

$$$$
