
     RDKit          3D

 30 32  0  0  0  0  0  0  0  0999 V2000
   38.1910   31.2140   48.4850 Cl  0  0  0  0  0  0  0  0  0  0  0  0
   37.1430   30.7500   47.1710 C   0  0  0  0  0  0  0  0  0  0  0  0
   35.9800   30.1480   47.5740 C   0  0  0  0  0  0  0  0  0  0  0  0
   35.0690   29.7360   46.5880 C   0  0  0  0  0  0  0  0  0  0  0  0
   35.3160   29.9220   45.2640 C   0  0  0  0  0  0  0  0  0  0  0  0
   36.4920   30.5310   44.8780 C   0  0  0  0  0  0  0  0  0  0  0  0
   36.8420   30.7860   43.1890 Cl  0  0  0  0  0  0  0  0  0  0  0  0
   37.3810   30.9320   45.8210 C   0  0  0  0  0  0  0  0  0  0  0  0
   36.4530   29.3970   49.8780 C   0  0  0  0  0  0  0  0  0  0  0  0
   35.5100   29.8480   48.9320 C   0  0  0  0  0  0  0  0  0  0  0  0
   34.1710   29.9850   49.3430 C   0  0  0  0  0  0  0  0  0  0  0  0
   33.8590   29.6760   50.6270 N   0  0  0  0  0  0  0  0  0  0  0  0
   34.8010   29.2440   51.5100 C   0  0  0  0  0  0  0  0  0  0  0  0
   36.0900   29.1060   51.1310 N   0  0  0  0  0  0  0  0  0  0  0  0
   38.6500   31.5840   45.5120 C   0  0  0  0  0  0  0  0  0  0  0  0
   38.7580   32.9190   45.1370 C   0  0  0  0  0  0  0  0  0  0  0  0
   40.0210   33.4070   44.8740 C   0  0  0  0  0  0  0  0  0  0  0  0
   41.1620   32.6480   44.9620 C   0  0  0  0  0  0  0  0  0  0  0  0
   41.0750   31.3250   45.3320 C   0  0  0  0  0  0  0  0  0  0  0  0
   39.8250   30.8380   45.5930 C   0  0  0  0  0  0  0  0  0  0  0  0
   34.1310   29.2501   46.8948 H   0  0  0  0  0  0  0  0  0  0  0  0
   34.5869   29.5909   44.5098 H   0  0  0  0  0  0  0  0  0  0  0  0
   37.5056   29.2826   49.5798 H   0  0  0  0  0  0  0  0  0  0  0  0
   33.3980   30.3332   48.6422 H   0  0  0  0  0  0  0  0  0  0  0  0
   34.5091   29.0048   52.5432 H   0  0  0  0  0  0  0  0  0  0  0  0
   37.8692   33.5617   45.0533 H   0  0  0  0  0  0  0  0  0  0  0  0
   40.1196   34.4617   44.5776 H   0  0  0  0  0  0  0  0  0  0  0  0
   42.1415   33.0954   44.7377 H   0  0  0  0  0  0  0  0  0  0  0  0
   41.9693   30.6898   45.4137 H   0  0  0  0  0  0  0  0  0  0  0  0
   39.7399   29.7818   45.8881 H   0  0  0  0  0  0  0  0  0  0  0  0
  2  3  2  0
  2  1  1  0
  3 10  1  0
  4  3  1  0
  5  4  2  0
  6  5  1  0
  6  8  2  0
  7  6  1  0
  8  2  1  0
  9 14  2  0
 10 11  2  0
 10  9  1  0
 11 12  1  0
 12 13  2  0
 14 13  1  0
 15 20  1  0
 15  8  1  0
 16 15  2  0
 17 18  2  0
 17 16  1  0
 18 19  1  0
 19 20  2  0
  4 21  1  0
  5 22  1  0
  9 23  1  0
 11 24  1  0
 13 25  1  0
 16 26  1  0
 17 27  1  0
 18 28  1  0
 19 29  1  0
 20 30  1  0
M  ISO  8  21  14  22  14  23  14  24  14  25  14  26  14  27  14  28  14
M  ISO  2  29  14  30  14
M  END
>  <minimizedAffinity>  (1) 
-5.33935499

>  <minimizedRMSD>  (1) 
3.38157248

$$$$
