
     RDKit          3D

 26 27  0  0  0  0  0  0  0  0999 V2000
   37.1990   30.9410   49.0440 Cl  0  0  0  0  0  0  0  0  0  0  0  0
   37.0850   31.0140   47.3250 C   0  0  0  0  0  0  0  0  0  0  0  0
   36.0230   30.3170   46.8300 C   0  0  0  0  0  0  0  0  0  0  0  0
   35.8260   30.3060   45.4260 C   0  0  0  0  0  0  0  0  0  0  0  0
   36.6670   30.9690   44.5850 C   0  0  0  0  0  0  0  0  0  0  0  0
   37.7330   31.6670   45.1140 C   0  0  0  0  0  0  0  0  0  0  0  0
   38.8340   32.5240   44.0850 Cl  0  0  0  0  0  0  0  0  0  0  0  0
   37.9180   31.6750   46.4600 C   0  0  0  0  0  0  0  0  0  0  0  0
   35.3730   28.8980   48.7360 C   0  0  0  0  0  0  0  0  0  0  0  0
   34.9870   29.5300   47.5320 C   0  0  0  0  0  0  0  0  0  0  0  0
   33.6870   29.3830   47.0790 C   0  0  0  0  0  0  0  0  0  0  0  0
   32.8400   28.6240   47.8340 N   0  0  0  0  0  0  0  0  0  0  0  0
   33.2290   28.0290   48.9790 C   0  0  0  0  0  0  0  0  0  0  0  0
   34.5150   28.1660   49.4400 N   0  0  0  0  0  0  0  0  0  0  0  0
   39.0300   32.3960   47.1090 C   0  0  0  0  0  0  0  0  0  0  0  0
   39.9830   32.9840   46.6030 O   0  0  0  0  0  0  0  0  0  0  0  0
   39.2250   32.5600   48.4990 O   0  0  0  0  0  0  0  0  0  0  0  0
   39.1320   33.7930   49.1340 C   0  0  0  0  0  0  0  0  0  0  0  0
   39.8120   34.7560   48.3950 F   0  0  0  0  0  0  0  0  0  0  0  0
   37.7930   34.1340   49.1510 F   0  0  0  0  0  0  0  0  0  0  0  0
   39.6130   33.7970   50.4230 F   0  0  0  0  0  0  0  0  0  0  0  0
   34.9748   29.7495   45.0068 H   0  0  0  0  0  0  0  0  0  0  0  0
   36.4987   30.9483   43.4982 H   0  0  0  0  0  0  0  0  0  0  0  0
   36.4051   29.0143   49.0982 H   0  0  0  0  0  0  0  0  0  0  0  0
   33.3497   29.8594   46.1467 H   0  0  0  0  0  0  0  0  0  0  0  0
   32.5078   27.4266   49.5508 H   0  0  0  0  0  0  0  0  0  0  0  0
  2  1  1  0
  3  2  2  0
  3 10  1  0
  4  3  1  0
  5  6  1  0
  5  4  2  0
  6  8  2  0
  7  6  1  0
  8 15  1  0
  8  2  1  0
  9 14  2  0
 10  9  1  0
 11 10  2  0
 11 12  1  0
 12 13  2  0
 13 14  1  0
 15 17  1  0
 16 15  2  0
 17 18  1  0
 18 20  1  0
 18 21  1  0
 19 18  1  0
  4 22  1  0
  5 23  1  0
  9 24  1  0
 11 25  1  0
 13 26  1  0
M  ISO  5  22  14  23  14  24  14  25  14  26  14
M  END
>  <minimizedAffinity>  (1) 
-5.85281897

>  <minimizedRMSD>  (1) 
1.97943294

$$$$
