
     RDKit          3D

 24 26  0  0  0  0  0  0  0  0999 V2000
   38.9290   32.2780   47.4340 C   0  0  0  0  0  0  0  0  0  0  0  0
   38.3710   32.1950   48.6930 C   0  0  0  0  0  0  0  0  0  0  0  0
   38.7170   33.2680   49.5350 C   0  0  0  0  0  0  0  0  0  0  0  0
   39.5200   34.2690   49.1220 N   0  0  0  0  0  0  0  0  0  0  0  0
   40.0440   34.3070   47.8780 C   0  0  0  0  0  0  0  0  0  0  0  0
   39.7360   33.2980   47.0470 N   0  0  0  0  0  0  0  0  0  0  0  0
   38.5170   31.2430   46.4080 C   0  0  0  0  0  0  0  0  0  0  0  0
   38.6780   31.4640   44.9920 C   0  0  0  0  0  0  0  0  0  0  0  0
   39.7690   30.6930   45.6830 C   0  0  0  0  0  0  0  0  0  0  0  0
   37.5650   31.1730   49.2140 C   0  0  0  0  0  0  0  0  0  0  0  0
   37.9500   30.2560   50.1510 C   0  0  0  0  0  0  0  0  0  0  0  0
   37.1340   29.3120   50.6090 C   0  0  0  0  0  0  0  0  0  0  0  0
   35.8660   29.2930   50.0950 C   0  0  0  0  0  0  0  0  0  0  0  0
   35.9100   30.6810   48.9370 S   0  0  0  0  0  0  0  0  0  0  0  0
   38.3204   33.2907   50.5608 H   0  0  0  0  0  0  0  0  0  0  0  0
   40.6974   35.1320   47.5579 H   0  0  0  0  0  0  0  0  0  0  0  0
   37.6427   30.8901   46.9746 H   0  0  0  0  0  0  0  0  0  0  0  0
   38.8841   32.4797   44.6235 H   0  0  0  0  0  0  0  0  0  0  0  0
   38.0440   31.2602   44.1165 H   0  0  0  0  0  0  0  0  0  0  0  0
   39.8867   29.6130   45.5105 H   0  0  0  0  0  0  0  0  0  0  0  0
   40.8597   30.7800   45.7959 H   0  0  0  0  0  0  0  0  0  0  0  0
   38.9771   30.3008   50.5422 H   0  0  0  0  0  0  0  0  0  0  0  0
   37.4618   28.5821   51.3639 H   0  0  0  0  0  0  0  0  0  0  0  0
   35.0352   28.6102   50.3263 H   0  0  0  0  0  0  0  0  0  0  0  0
  1  2  1  0
  2 10  1  0
  2  3  2  0
  4  3  1  0
  5  4  2  0
  6  1  2  0
  6  5  1  0
  7  1  1  0
  8  9  1  0
  8  7  1  0
  9  7  1  0
 10 11  2  0
 11 12  1  0
 13 12  2  0
 14 10  1  0
 14 13  1  0
  3 15  1  0
  5 16  1  0
  7 17  1  0
  8 18  1  0
  8 19  1  0
  9 20  1  0
  9 21  1  0
 11 22  1  0
 12 23  1  0
 13 24  1  0
M  ISO  8  15  14  16  14  17  13  18  13  19  13  20  13  21  13  22  14
M  ISO  2  23  14  24  14
M  END
>  <minimizedAffinity>  (1) 
-4.84750557

>  <minimizedRMSD>  (1) 
4.10761309

$$$$
