
     RDKit          3D

 19 20  0  0  0  0  0  0  0  0999 V2000
   37.1690   31.0030   48.8940 C   0  0  0  0  0  0  0  0  0  0  0  0
   37.5700   32.3330   49.1760 C   0  0  0  0  0  0  0  0  0  0  0  0
   38.5190   32.8530   48.3070 C   0  0  0  0  0  0  0  0  0  0  0  0
   38.9770   32.0920   47.2940 N   0  0  0  0  0  0  0  0  0  0  0  0
   38.5790   30.8290   47.0450 C   0  0  0  0  0  0  0  0  0  0  0  0
   37.6630   30.2780   47.8590 N   0  0  0  0  0  0  0  0  0  0  0  0
   36.0780   30.4750   49.8200 C   0  0  0  0  0  0  0  0  0  0  0  0
   35.7690   29.0620   49.8170 C   0  0  0  0  0  0  0  0  0  0  0  0
   36.6990   29.5590   50.8940 C   0  0  0  0  0  0  0  0  0  0  0  0
   37.0580   33.0780   50.2430 N   0  0  0  0  0  0  0  0  0  0  0  0
   38.8941   33.8779   48.4442 H   0  0  0  0  0  0  0  0  0  0  0  0
   38.9933   30.2636   46.1972 H   0  0  0  0  0  0  0  0  0  0  0  0
   35.4257   31.3585   49.7570 H   0  0  0  0  0  0  0  0  0  0  0  0
   34.7563   28.7283   50.0873 H   0  0  0  0  0  0  0  0  0  0  0  0
   35.8401   28.2698   49.0572 H   0  0  0  0  0  0  0  0  0  0  0  0
   37.7703   29.3110   50.8659 H   0  0  0  0  0  0  0  0  0  0  0  0
   36.7340   29.5293   51.9930 H   0  0  0  0  0  0  0  0  0  0  0  0
   37.3851   34.0416   50.4021 H   0  0  0  0  0  0  0  0  0  0  0  0
   36.3538   32.6631   50.8697 H   0  0  0  0  0  0  0  0  0  0  0  0
  1  2  2  0
  1  7  1  0
  2 10  1  0
  3  2  1  0
  4  3  2  0
  5  4  1  0
  5  6  2  0
  6  1  1  0
  7  9  1  0
  8  7  1  0
  8  9  1  0
  3 11  1  0
  5 12  1  0
  7 13  1  0
  8 14  1  0
  8 15  1  0
  9 16  1  0
  9 17  1  0
 10 18  1  0
 10 19  1  0
M  ISO  7  11  14  12  14  13  13  14  13  15  13  16  13  17  13
M  END
>  <minimizedAffinity>  (1) 
-3.75176191

>  <minimizedRMSD>  (1) 
0.552100062

$$$$
