
     RDKit          3D

 37 40  0  0  0  0  0  0  0  0999 V2000
   37.7310   30.1630   48.8840 C   0  0  0  0  0  0  0  0  0  0  0  0
   38.7170   32.1680   47.7480 C   0  0  0  0  0  0  0  0  0  0  0  0
   38.1540   30.8850   47.6990 C   0  0  0  0  0  0  0  0  0  0  0  0
   37.9690   30.3890   46.4360 C   0  0  0  0  0  0  0  0  0  0  0  0
   38.3080   31.0980   45.3330 N   0  0  0  0  0  0  0  0  0  0  0  0
   38.8500   32.3380   45.4090 C   0  0  0  0  0  0  0  0  0  0  0  0
   39.0550   32.8740   46.6160 N   0  0  0  0  0  0  0  0  0  0  0  0
   39.0310   32.7330   49.1280 C   0  0  0  0  0  0  0  0  0  0  0  0
   39.3510   34.0930   49.3290 C   0  0  0  0  0  0  0  0  0  0  0  0
   37.8820   33.7430   49.5020 C   0  0  0  0  0  0  0  0  0  0  0  0
   36.3840   30.3270   49.4060 C   0  0  0  0  0  0  0  0  0  0  0  0
   34.7870   28.2140   49.0720 C   0  0  0  0  0  0  0  0  0  0  0  0
   35.3080   29.4750   48.9100 C   0  0  0  0  0  0  0  0  0  0  0  0
   34.5450   30.2260   47.9920 C   0  0  0  0  0  0  0  0  0  0  0  0
   33.4070   29.7430   47.3370 C   0  0  0  0  0  0  0  0  0  0  0  0
   32.5150   30.2100   46.4480 N   0  0  0  0  0  0  0  0  0  0  0  0
   31.5950   29.3040   46.1500 C   0  0  0  0  0  0  0  0  0  0  0  0
   31.8570   28.1520   46.8620 C   0  0  0  0  0  0  0  0  0  0  0  0
   32.9850   28.4620   47.5870 C   0  0  0  0  0  0  0  0  0  0  0  0
   33.6950   27.6870   48.4740 C   0  0  0  0  0  0  0  0  0  0  0  0
   38.4195   30.4521   49.6918 H   0  0  0  0  0  0  0  0  0  0  0  0
   37.7418   29.1144   48.5520 H   0  0  0  0  0  0  0  0  0  0  0  0
   37.5328   29.3866   46.3139 H   0  0  0  0  0  0  0  0  0  0  0  0
   39.1156   32.8916   44.4963 H   0  0  0  0  0  0  0  0  0  0  0  0
   39.5450   31.8383   49.5091 H   0  0  0  0  0  0  0  0  0  0  0  0
   39.9412   34.3800   50.2118 H   0  0  0  0  0  0  0  0  0  0  0  0
   39.8749   34.8374   48.7114 H   0  0  0  0  0  0  0  0  0  0  0  0
   37.1356   34.0518   48.7553 H   0  0  0  0  0  0  0  0  0  0  0  0
   37.1121   33.8416   50.2814 H   0  0  0  0  0  0  0  0  0  0  0  0
   36.4415   30.1681   50.4929 H   0  0  0  0  0  0  0  0  0  0  0  0
   36.0958   31.3309   49.0608 H   0  0  0  0  0  0  0  0  0  0  0  0
   35.3220   27.5548   49.7715 H   0  0  0  0  0  0  0  0  0  0  0  0
   34.8647   31.2564   47.7775 H   0  0  0  0  0  0  0  0  0  0  0  0
   32.5427   31.1580   46.0463 H   0  0  0  0  0  0  0  0  0  0  0  0
   30.7591   29.4472   45.4494 H   0  0  0  0  0  0  0  0  0  0  0  0
   31.2954   27.2062   46.8525 H   0  0  0  0  0  0  0  0  0  0  0  0
   33.3798   26.6561   48.6931 H   0  0  0  0  0  0  0  0  0  0  0  0
  1 11  1  0
  2  8  1  0
  3  2  1  0
  3  1  1  0
  4  3  2  0
  5  6  2  0
  5  4  1  0
  6  7  1  0
  7  2  2  0
  8  9  1  0
  8 10  1  0
  9 10  1  0
 13 12  2  0
 13 11  1  0
 14 13  1  0
 15 19  1  0
 15 14  2  0
 16 15  1  0
 17 16  1  0
 17 18  2  0
 18 19  1  0
 19 20  2  0
 20 12  1  0
  1 21  1  0
  1 22  1  0
  4 23  1  0
  6 24  1  0
  8 25  1  0
  9 26  1  0
  9 27  1  0
 10 28  1  0
 10 29  1  0
 11 30  1  0
 11 31  1  0
 12 32  1  0
 14 33  1  0
 16 34  1  0
 17 35  1  0
 18 36  1  0
 20 37  1  0
M  ISO  8  21   8  22   8  23  14  24  14  25  13  26  13  27  13  28  13
M  ISO  8  29  13  30   8  31   8  32  14  33  14  34   9  35  14  36  14
M  ISO  1  37  14
M  END
>  <minimizedAffinity>  (1) 
-5.77982044

>  <minimizedRMSD>  (1) 
6.63935757

$$$$
