
     RDKit          3D

 37 38  0  0  1  0  0  0  0  0999 V2000
   37.4310   31.3320   45.4020 C   0  0  2  0  0  0  0  0  0  0  0  0
   38.3400   30.8110   44.3640 C   0  0  0  0  0  0  0  0  0  0  0  0
   39.6560   30.3220   44.9280 C   0  0  0  0  0  0  0  0  0  0  0  0
   40.3720   31.3520   45.7540 C   0  0  0  0  0  0  0  0  0  0  0  0
   39.4530   32.2160   46.5750 C   0  0  0  0  0  0  0  0  0  0  0  0
   38.0760   31.5740   46.7270 C   0  0  2  0  0  0  0  0  0  0  0  0
   36.2430   30.4930   45.6260 C   0  0  0  0  0  0  0  0  0  0  0  0
   35.8810   29.6680   44.5380 C   0  0  0  0  0  0  0  0  0  0  0  0
   34.7780   28.8420   44.7340 C   0  0  0  0  0  0  0  0  0  0  0  0
   34.1180   28.8660   45.9290 N   0  0  0  0  0  0  0  0  0  0  0  0
   34.5030   29.6780   46.9440 C   0  0  0  0  0  0  0  0  0  0  0  0
   35.5400   30.4550   46.7640 N   0  0  0  0  0  0  0  0  0  0  0  0
   38.2260   30.5340   47.6220 N   0  0  0  0  0  0  0  0  0  0  0  0
   37.6690   30.7300   49.2000 S   0  0  0  0  0  0  0  0  0  0  0  0
   38.9080   30.9590   50.0570 O   0  0  0  0  0  0  0  0  0  0  0  0
   36.7660   31.9170   49.3620 O   0  0  0  0  0  0  0  0  0  0  0  0
   36.9170   29.3790   49.8260 O   0  0  0  0  0  0  0  0  0  0  0  0
   36.7860   29.4180   51.2020 C   0  0  0  0  0  0  0  0  0  0  0  0
   37.7500   28.6440   51.7870 F   0  0  0  0  0  0  0  0  0  0  0  0
   37.0170   30.7170   51.6000 F   0  0  0  0  0  0  0  0  0  0  0  0
   35.5090   29.0990   51.6420 F   0  0  0  0  0  0  0  0  0  0  0  0
   37.1251   32.2988   44.9758 H   0  0  0  0  0  0  0  0  0  0  0  0
   38.5445   31.6142   43.6407 H   0  0  0  0  0  0  0  0  0  0  0  0
   37.8432   29.9515   43.8902 H   0  0  0  0  0  0  0  0  0  0  0  0
   39.4592   29.4437   45.5603 H   0  0  0  0  0  0  0  0  0  0  0  0
   40.3060   30.0828   44.0734 H   0  0  0  0  0  0  0  0  0  0  0  0
   41.0610   30.8323   46.4360 H   0  0  0  0  0  0  0  0  0  0  0  0
   40.8970   32.0174   45.0529 H   0  0  0  0  0  0  0  0  0  0  0  0
   39.8932   32.3602   47.5727 H   0  0  0  0  0  0  0  0  0  0  0  0
   39.3313   33.1804   46.0601 H   0  0  0  0  0  0  0  0  0  0  0  0
   37.3122   32.2275   47.1737 H   0  0  0  0  0  0  0  0  0  0  0  0
   36.4389   29.6778   43.5900 H   0  0  0  0  0  0  0  0  0  0  0  0
   34.4394   28.1726   43.9295 H   0  0  0  0  0  0  0  0  0  0  0  0
   33.9555   29.6834   47.8980 H   0  0  0  0  0  0  0  0  0  0  0  0
   37.7325   29.7212   47.2262 H   0  0  0  0  0  0  0  0  0  0  0  0
   38.6601   30.9132   51.0144 H   0  0  0  0  0  0  0  0  0  0  0  0
   36.6284   32.0979   50.3256 H   0  0  0  0  0  0  0  0  0  0  0  0
  1  7  1  0
  1  6  1  0
  2  3  1  0
  2  1  1  0
  3  4  1  0
  4  5  1  0
  5  6  1  0
  6 13  1  0
  7 12  2  0
  8  9  2  0
  8  7  1  0
  9 10  1  0
 10 11  2  0
 12 11  1  0
 13 14  1  0
 14 16  1  0
 14 17  1  0
 14 15  1  0
 17 18  1  0
 18 20  1  0
 18 21  1  0
 18 19  1  0
  1 22  1  6
  2 23  1  0
  2 24  1  0
  3 25  1  0
  3 26  1  0
  4 27  1  0
  4 28  1  0
  5 29  1  0
  5 30  1  0
  6 31  1  1
  8 32  1  0
  9 33  1  0
 11 34  1  0
 13 35  1  0
 15 36  1  0
 16 37  1  0
M  ISO  8  22  13  23  13  24  13  25  13  26  13  27  13  28  13  29  13
M  ISO  8  30  13  31  13  32  14  33  14  34  14  35   5  36   3  37   3
M  END
>  <minimizedAffinity>  (1) 
-5.70531321

>  <minimizedRMSD>  (1) 
2.75485325

$$$$
