
     RDKit          3D

 34 36  0  0  0  0  0  0  0  0999 V2000
   37.1060   29.8310   47.0790 C   0  0  0  0  0  0  0  0  0  0  0  0
   34.6790   30.0060   47.5930 C   0  0  0  0  0  0  0  0  0  0  0  0
   35.7340   30.0310   46.7010 C   0  0  0  0  0  0  0  0  0  0  0  0
   35.3250   30.1940   45.4050 C   0  0  0  0  0  0  0  0  0  0  0  0
   34.0440   30.3140   45.0370 N   0  0  0  0  0  0  0  0  0  0  0  0
   33.0430   30.2850   45.9120 C   0  0  0  0  0  0  0  0  0  0  0  0
   33.3570   30.1300   47.1940 N   0  0  0  0  0  0  0  0  0  0  0  0
   35.0050   29.9680   49.0900 C   0  0  0  0  0  0  0  0  0  0  0  0
   34.0540   29.6180   50.0540 C   0  0  0  0  0  0  0  0  0  0  0  0
   34.8810   28.4580   49.5360 C   0  0  0  0  0  0  0  0  0  0  0  0
   38.0670   30.9030   46.7410 C   0  0  0  0  0  0  0  0  0  0  0  0
   39.6230   33.0710   46.0680 F   0  0  0  0  0  0  0  0  0  0  0  0
   39.1780   32.9160   47.3430 C   0  0  0  0  0  0  0  0  0  0  0  0
   38.3820   31.8560   47.7910 C   0  0  0  0  0  0  0  0  0  0  0  0
   38.0290   31.8470   49.1220 C   0  0  0  0  0  0  0  0  0  0  0  0
   38.4420   32.8390   49.9730 C   0  0  0  0  0  0  0  0  0  0  0  0
   39.2340   33.8930   49.5230 C   0  0  0  0  0  0  0  0  0  0  0  0
   39.5970   33.9170   48.1940 C   0  0  0  0  0  0  0  0  0  0  0  0
   40.3850   34.9880   47.7940 O   0  0  0  0  0  0  0  0  0  0  0  0
   37.1316   29.6967   48.1705 H   0  0  0  0  0  0  0  0  0  0  0  0
   37.4361   28.9612   46.4921 H   0  0  0  0  0  0  0  0  0  0  0  0
   36.0946   30.2284   44.6198 H   0  0  0  0  0  0  0  0  0  0  0  0
   31.9967   30.3853   45.5876 H   0  0  0  0  0  0  0  0  0  0  0  0
   35.7035   30.8178   49.0937 H   0  0  0  0  0  0  0  0  0  0  0  0
   34.1964   29.9543   51.0916 H   0  0  0  0  0  0  0  0  0  0  0  0
   32.9691   29.7856   50.1242 H   0  0  0  0  0  0  0  0  0  0  0  0
   34.4421   27.7036   48.8665 H   0  0  0  0  0  0  0  0  0  0  0  0
   35.5346   27.6764   49.9506 H   0  0  0  0  0  0  0  0  0  0  0  0
   39.0078   30.4221   46.4351 H   0  0  0  0  0  0  0  0  0  0  0  0
   37.5740   31.4938   45.9549 H   0  0  0  0  0  0  0  0  0  0  0  0
   37.4042   31.0288   49.5094 H   0  0  0  0  0  0  0  0  0  0  0  0
   38.1425   32.8022   51.0308 H   0  0  0  0  0  0  0  0  0  0  0  0
   39.5613   34.6861   50.2113 H   0  0  0  0  0  0  0  0  0  0  0  0
   40.6547   35.6770   48.4518 H   0  0  0  0  0  0  0  0  0  0  0  0
  2  8  1  0
  3  1  1  0
  3  2  1  0
  4  3  2  0
  5  4  1  0
  5  6  2  0
  6  7  1  0
  7  2  2  0
  8 10  1  0
  8  9  1  0
 10  9  1  0
 11  1  1  0
 11 14  1  0
 12 13  1  0
 13 14  2  0
 13 18  1  0
 14 15  1  0
 15 16  2  0
 17 16  1  0
 18 17  2  0
 19 18  1  0
  1 20  1  0
  1 21  1  0
  4 22  1  0
  6 23  1  0
  8 24  1  0
  9 25  1  0
  9 26  1  0
 10 27  1  0
 10 28  1  0
 11 29  1  0
 11 30  1  0
 15 31  1  0
 16 32  1  0
 17 33  1  0
 19 34  1  0
M  ISO  8  20   8  21   8  22  14  23  14  24  13  25  13  26  13  27  13
M  ISO  7  28  13  29   8  30   8  31  14  32  14  33  14  34   3
M  END
>  <minimizedAffinity>  (1) 
-4.84476042

>  <minimizedRMSD>  (1) 
0.685943604

$$$$
