
     RDKit          3D

 41 44  0  0  0  0  0  0  0  0999 V2000
   37.8820   30.4790   47.0360 C   0  0  0  0  0  0  0  0  0  0  0  0
   38.4480   30.1210   44.3450 F   0  0  0  0  0  0  0  0  0  0  0  0
   38.9740   31.1670   45.0450 C   0  0  0  0  0  0  0  0  0  0  0  0
   38.7500   31.4140   46.4050 C   0  0  0  0  0  0  0  0  0  0  0  0
   39.3860   32.4930   46.9200 C   0  0  0  0  0  0  0  0  0  0  0  0
   40.1930   33.3140   46.1990 C   0  0  0  0  0  0  0  0  0  0  0  0
   40.4050   33.0610   44.8560 C   0  0  0  0  0  0  0  0  0  0  0  0
   39.7820   31.9620   44.2770 C   0  0  0  0  0  0  0  0  0  0  0  0
   40.0550   31.7600   42.9200 O   0  0  0  0  0  0  0  0  0  0  0  0
   39.2810   32.3480   41.9270 C   0  0  0  0  0  0  0  0  0  0  0  0
   38.8300   33.6120   41.5490 C   0  0  0  0  0  0  0  0  0  0  0  0
   38.0730   33.4170   40.4120 C   0  0  0  0  0  0  0  0  0  0  0  0
   38.0680   32.1120   40.1210 N   0  0  0  0  0  0  0  0  0  0  0  0
   38.7870   31.4620   41.0200 N   0  0  0  0  0  0  0  0  0  0  0  0
   36.6360   31.0000   47.6400 C   0  0  0  0  0  0  0  0  0  0  0  0
   35.7010   29.6140   49.4360 C   0  0  0  0  0  0  0  0  0  0  0  0
   35.6950   30.0500   48.1400 C   0  0  0  0  0  0  0  0  0  0  0  0
   34.7520   29.4410   47.3790 C   0  0  0  0  0  0  0  0  0  0  0  0
   33.9120   28.5090   47.8360 N   0  0  0  0  0  0  0  0  0  0  0  0
   33.9240   28.0890   49.0850 C   0  0  0  0  0  0  0  0  0  0  0  0
   34.8190   28.6360   49.9070 N   0  0  0  0  0  0  0  0  0  0  0  0
   36.5770   30.2940   50.4910 C   0  0  0  0  0  0  0  0  0  0  0  0
   36.8910   29.7120   51.7080 C   0  0  0  0  0  0  0  0  0  0  0  0
   37.8900   29.4040   50.6000 C   0  0  0  0  0  0  0  0  0  0  0  0
   38.4545   29.9865   47.8359 H   0  0  0  0  0  0  0  0  0  0  0  0
   37.5437   29.8196   46.2231 H   0  0  0  0  0  0  0  0  0  0  0  0
   39.2403   32.7182   47.9868 H   0  0  0  0  0  0  0  0  0  0  0  0
   40.6759   34.1766   46.6814 H   0  0  0  0  0  0  0  0  0  0  0  0
   41.0543   33.7171   44.2576 H   0  0  0  0  0  0  0  0  0  0  0  0
   39.0354   34.5678   42.0533 H   0  0  0  0  0  0  0  0  0  0  0  0
   37.5593   34.2039   39.8403 H   0  0  0  0  0  0  0  0  0  0  0  0
   37.5808   31.6811   39.3223 H   0  0  0  0  0  0  0  0  0  0  0  0
   36.9242   31.6503   48.4791 H   0  0  0  0  0  0  0  0  0  0  0  0
   36.1131   31.5010   46.8120 H   0  0  0  0  0  0  0  0  0  0  0  0
   34.6744   29.7325   46.3212 H   0  0  0  0  0  0  0  0  0  0  0  0
   33.2228   27.3172   49.4353 H   0  0  0  0  0  0  0  0  0  0  0  0
   36.2306   31.3213   50.3049 H   0  0  0  0  0  0  0  0  0  0  0  0
   37.2033   30.3576   52.5421 H   0  0  0  0  0  0  0  0  0  0  0  0
   36.3182   29.0654   52.3890 H   0  0  0  0  0  0  0  0  0  0  0  0
   37.9404   28.4057   50.1408 H   0  0  0  0  0  0  0  0  0  0  0  0
   38.9694   29.5134   50.4186 H   0  0  0  0  0  0  0  0  0  0  0  0
  1 15  1  0
  2  3  1  0
  3  4  2  0
  4  5  1  0
  4  1  1  0
  6  5  2  0
  7  6  1  0
  8  7  2  0
  8  3  1  0
  9  8  1  0
 10  9  1  0
 11 10  1  0
 12 11  2  0
 13 12  1  0
 13 14  1  0
 14 10  2  0
 15 17  1  0
 16 21  1  0
 16 22  1  0
 17 16  2  0
 18 19  2  0
 18 17  1  0
 19 20  1  0
 20 21  2  0
 22 24  1  0
 22 23  1  0
 24 23  1  0
  1 25  1  0
  1 26  1  0
  5 27  1  0
  6 28  1  0
  7 29  1  0
 11 30  1  0
 12 31  1  0
 13 32  1  0
 15 33  1  0
 15 34  1  0
 18 35  1  0
 20 36  1  0
 22 37  1  0
 23 38  1  0
 23 39  1  0
 24 40  1  0
 24 41  1  0
M  ISO  8  25   8  26   8  27  14  28  14  29  14  30  14  31  14  32   9
M  ISO  8  33   8  34   8  35  14  36  14  37  13  38  13  39  13  40  13
M  ISO  1  41  13
M  END
>  <minimizedAffinity>  (1) 
-5.87269354

>  <minimizedRMSD>  (1) 
4.13121748

$$$$
