
     RDKit          3D

 49 52  0  0  0  0  0  0  0  0999 V2000
   33.0220   28.6260   44.3310 C   0  0  0  0  0  0  0  0  0  0  0  0
   35.1390   29.5660   45.8570 F   0  0  0  0  0  0  0  0  0  0  0  0
   34.1700   28.7780   46.4080 C   0  0  0  0  0  0  0  0  0  0  0  0
   33.0690   28.2580   45.7080 C   0  0  0  0  0  0  0  0  0  0  0  0
   32.2340   27.4770   46.4340 C   0  0  0  0  0  0  0  0  0  0  0  0
   32.4080   27.1970   47.7480 C   0  0  0  0  0  0  0  0  0  0  0  0
   33.4950   27.7170   48.4260 C   0  0  0  0  0  0  0  0  0  0  0  0
   34.3930   28.5210   47.7330 C   0  0  0  0  0  0  0  0  0  0  0  0
   35.4820   29.0060   48.4590 O   0  0  0  0  0  0  0  0  0  0  0  0
   38.3450   30.3350   50.1800 N   0  0  0  0  0  0  0  0  0  0  0  0
   37.9970   30.5000   48.7620 C   0  0  0  0  0  0  0  0  0  0  0  0
   36.5950   31.0510   48.6230 C   0  0  0  0  0  0  0  0  0  0  0  0
   35.5630   30.1040   49.2690 C   0  0  0  0  0  0  0  0  0  0  0  0
   36.0740   29.7530   50.6600 C   0  0  0  0  0  0  0  0  0  0  0  0
   37.4840   29.2530   50.6500 C   0  0  0  0  0  0  0  0  0  0  0  0
   31.7560   29.2070   43.8310 C   0  0  0  0  0  0  0  0  0  0  0  0
   30.3410   31.0810   44.5450 C   0  0  0  0  0  0  0  0  0  0  0  0
   31.5250   30.5960   44.0610 C   0  0  0  0  0  0  0  0  0  0  0  0
   32.4210   31.5670   43.7670 C   0  0  0  0  0  0  0  0  0  0  0  0
   32.1870   32.8750   43.9260 N   0  0  0  0  0  0  0  0  0  0  0  0
   31.0440   33.3370   44.3900 C   0  0  0  0  0  0  0  0  0  0  0  0
   30.1000   32.4510   44.7070 N   0  0  0  0  0  0  0  0  0  0  0  0
   29.2680   30.1400   45.0840 C   0  0  0  0  0  0  0  0  0  0  0  0
   27.9440   30.5120   45.2590 C   0  0  0  0  0  0  0  0  0  0  0  0
   28.2400   29.9280   43.8890 C   0  0  0  0  0  0  0  0  0  0  0  0
   33.8171   29.3663   44.1586 H   0  0  0  0  0  0  0  0  0  0  0  0
   33.1386   27.6812   43.7799 H   0  0  0  0  0  0  0  0  0  0  0  0
   31.3605   27.0432   45.9253 H   0  0  0  0  0  0  0  0  0  0  0  0
   31.6853   26.5567   48.2749 H   0  0  0  0  0  0  0  0  0  0  0  0
   33.6465   27.4987   49.4934 H   0  0  0  0  0  0  0  0  0  0  0  0
   38.1571   31.2020   50.7033 H   0  0  0  0  0  0  0  0  0  0  0  0
   38.7080   31.1961   48.2931 H   0  0  0  0  0  0  0  0  0  0  0  0
   38.0453   29.5191   48.2666 H   0  0  0  0  0  0  0  0  0  0  0  0
   36.5430   32.0317   49.1185 H   0  0  0  0  0  0  0  0  0  0  0  0
   36.3606   31.1475   47.5526 H   0  0  0  0  0  0  0  0  0  0  0  0
   34.5622   30.5485   49.3728 H   0  0  0  0  0  0  0  0  0  0  0  0
   36.0247   30.6533   51.2902 H   0  0  0  0  0  0  0  0  0  0  0  0
   35.4387   28.9453   51.0524 H   0  0  0  0  0  0  0  0  0  0  0  0
   37.5685   28.3889   49.9746 H   0  0  0  0  0  0  0  0  0  0  0  0
   37.7842   28.9382   51.6603 H   0  0  0  0  0  0  0  0  0  0  0  0
   30.9315   28.6544   44.3052 H   0  0  0  0  0  0  0  0  0  0  0  0
   31.8219   29.1146   42.7369 H   0  0  0  0  0  0  0  0  0  0  0  0
   33.4018   31.2622   43.3732 H   0  0  0  0  0  0  0  0  0  0  0  0
   30.8744   34.4170   44.5117 H   0  0  0  0  0  0  0  0  0  0  0  0
   29.9153   29.5981   45.7892 H   0  0  0  0  0  0  0  0  0  0  0  0
   27.3181   29.9380   45.9581 H   0  0  0  0  0  0  0  0  0  0  0  0
   27.4769   31.4565   45.5749 H   0  0  0  0  0  0  0  0  0  0  0  0
   28.2699   30.5659   42.9933 H   0  0  0  0  0  0  0  0  0  0  0  0
   27.8800   29.1023   43.2577 H   0  0  0  0  0  0  0  0  0  0  0  0
  1  4  1  0
  2  3  1  0
  3  8  2  0
  4  3  1  0
  4  5  2  0
  5  6  1  0
  6  7  2  0
  8  7  1  0
  8  9  1  0
  9 13  1  0
 10 15  1  0
 11 10  1  0
 12 11  1  0
 12 13  1  0
 13 14  1  0
 15 14  1  0
 16 18  1  0
 16  1  1  0
 17 22  1  0
 17 23  1  0
 18 17  2  0
 19 20  2  0
 19 18  1  0
 20 21  1  0
 21 22  2  0
 23 24  1  0
 25 23  1  0
 25 24  1  0
  1 26  1  0
  1 27  1  0
  5 28  1  0
  6 29  1  0
  7 30  1  0
 10 31  1  0
 11 32  1  0
 11 33  1  0
 12 34  1  0
 12 35  1  0
 13 36  1  0
 14 37  1  0
 14 38  1  0
 15 39  1  0
 15 40  1  0
 16 41  1  0
 16 42  1  0
 19 43  1  0
 21 44  1  0
 23 45  1  0
 24 46  1  0
 24 47  1  0
 25 48  1  0
 25 49  1  0
M  ISO  8  26   8  27   8  28  14  29  14  30  14  31   5  32  13  33  13
M  ISO  8  34  13  35  13  36  13  37  13  38  13  39  13  40  13  41   8
M  ISO  8  42   8  43  14  44  14  45  13  46  13  47  13  48  13  49  13
M  END
>  <minimizedAffinity>  (1) 
-4.6895957

>  <minimizedRMSD>  (1) 
6.68037605

$$$$
