
     RDKit          3D

 40 41  0  0  1  0  0  0  0  0999 V2000
   36.9510   30.8980   45.0430 C   0  0  2  0  0  0  0  0  0  0  0  0
   37.8420   30.3410   44.0380 C   0  0  0  0  0  0  0  0  0  0  0  0
   39.1400   29.8020   44.6360 C   0  0  0  0  0  0  0  0  0  0  0  0
   39.8900   30.8600   45.4040 C   0  0  0  0  0  0  0  0  0  0  0  0
   38.9880   31.7940   46.1820 C   0  0  0  0  0  0  0  0  0  0  0  0
   37.6090   31.1900   46.3650 C   0  0  2  0  0  0  0  0  0  0  0  0
   35.7370   30.1220   45.3290 C   0  0  0  0  0  0  0  0  0  0  0  0
   35.4090   29.1900   44.3400 C   0  0  0  0  0  0  0  0  0  0  0  0
   34.2800   28.4170   44.5660 C   0  0  0  0  0  0  0  0  0  0  0  0
   33.5600   28.6000   45.7140 N   0  0  0  0  0  0  0  0  0  0  0  0
   33.9120   29.5090   46.6370 C   0  0  0  0  0  0  0  0  0  0  0  0
   34.9730   30.2250   46.4090 N   0  0  0  0  0  0  0  0  0  0  0  0
   37.7280   30.1810   47.3140 N   0  0  0  0  0  0  0  0  0  0  0  0
   37.4450   30.6060   48.9400 S   0  0  0  0  0  0  0  0  0  0  0  0
   38.7260   30.2250   49.6700 O   0  0  0  0  0  0  0  0  0  0  0  0
   37.1330   32.0110   49.1620 O   0  0  0  0  0  0  0  0  0  0  0  0
   37.7650   33.1320   49.5190 C   0  0  0  0  0  0  0  0  0  0  0  0
   38.9080   33.0160   50.3070 F   0  0  0  0  0  0  0  0  0  0  0  0
   38.1690   34.0010   48.5170 F   0  0  0  0  0  0  0  0  0  0  0  0
   36.9090   33.8700   50.3720 F   0  0  0  0  0  0  0  0  0  0  0  0
   36.2530   29.6260   49.6190 O   0  0  0  0  0  0  0  0  0  0  0  0
   36.4140   29.4320   50.9740 C   0  0  0  0  0  0  0  0  0  0  0  0
   37.4240   28.5410   51.2110 F   0  0  0  0  0  0  0  0  0  0  0  0
   36.8200   30.6230   51.4980 F   0  0  0  0  0  0  0  0  0  0  0  0
   35.2360   29.1090   51.6450 F   0  0  0  0  0  0  0  0  0  0  0  0
   36.6593   31.8343   44.5447 H   0  0  0  0  0  0  0  0  0  0  0  0
   38.0896   31.1289   43.3115 H   0  0  0  0  0  0  0  0  0  0  0  0
   37.3202   29.4981   43.5613 H   0  0  0  0  0  0  0  0  0  0  0  0
   38.8996   28.9722   45.3169 H   0  0  0  0  0  0  0  0  0  0  0  0
   39.7810   29.4645   43.8082 H   0  0  0  0  0  0  0  0  0  0  0  0
   40.5686   30.3614   46.1117 H   0  0  0  0  0  0  0  0  0  0  0  0
   40.4317   31.4718   44.6676 H   0  0  0  0  0  0  0  0  0  0  0  0
   39.4322   31.9827   47.1705 H   0  0  0  0  0  0  0  0  0  0  0  0
   38.8873   32.7338   45.6192 H   0  0  0  0  0  0  0  0  0  0  0  0
   36.8666   31.8840   46.7860 H   0  0  0  0  0  0  0  0  0  0  0  0
   36.0153   29.0757   43.4293 H   0  0  0  0  0  0  0  0  0  0  0  0
   33.9665   27.6635   43.8285 H   0  0  0  0  0  0  0  0  0  0  0  0
   33.3223   29.6436   47.5558 H   0  0  0  0  0  0  0  0  0  0  0  0
   37.0563   29.4408   47.0655 H   0  0  0  0  0  0  0  0  0  0  0  0
   38.5747   30.2700   50.6473 H   0  0  0  0  0  0  0  0  0  0  0  0
  1  7  1  0
  1  6  1  0
  2  3  1  0
  2  1  1  0
  3  4  1  0
  4  5  1  0
  5  6  1  0
  6 13  1  0
  7 12  2  0
  8  9  2  0
  8  7  1  0
  9 10  1  0
 10 11  2  0
 12 11  1  0
 13 14  1  0
 14 16  1  0
 14 21  1  0
 14 15  1  0
 16 17  1  0
 17 18  1  0
 17 20  1  0
 19 17  1  0
 21 22  1  0
 22 23  1  0
 22 24  1  0
 22 25  1  0
  1 26  1  6
  2 27  1  0
  2 28  1  0
  3 29  1  0
  3 30  1  0
  4 31  1  0
  4 32  1  0
  5 33  1  0
  5 34  1  0
  6 35  1  1
  8 36  1  0
  9 37  1  0
 11 38  1  0
 13 39  1  0
 15 40  1  0
M  ISO  8  26  13  27  13  28  13  29  13  30  13  31  13  32  13  33  13
M  ISO  7  34  13  35  13  36  14  37  14  38  14  39   5  40   3
M  END
>  <minimizedAffinity>  (1) 
-5.67801523

>  <minimizedRMSD>  (1) 
0.787403286

$$$$
