
     RDKit          3D

 49 51  0  0  1  0  0  0  0  0999 V2000
   32.8360   28.7630   45.5800 C   0  0  2  0  0  0  0  0  0  0  0  0
   33.2200   28.0530   44.3680 C   0  0  0  0  0  0  0  0  0  0  0  0
   34.7310   27.9330   44.1980 C   0  0  0  0  0  0  0  0  0  0  0  0
   35.4250   29.2650   44.2220 C   0  0  0  0  0  0  0  0  0  0  0  0
   34.8200   30.2480   45.1850 C   0  0  0  0  0  0  0  0  0  0  0  0
   33.9540   29.5440   46.2210 C   0  0  2  0  0  0  0  0  0  0  0  0
   32.2280   27.9410   46.6310 C   0  0  0  0  0  0  0  0  0  0  0  0
   32.2080   26.5700   46.3490 C   0  0  0  0  0  0  0  0  0  0  0  0
   31.6600   25.7430   47.3160 C   0  0  0  0  0  0  0  0  0  0  0  0
   31.1740   26.2860   48.4720 N   0  0  0  0  0  0  0  0  0  0  0  0
   31.2120   27.6080   48.7020 C   0  0  0  0  0  0  0  0  0  0  0  0
   31.7310   28.3720   47.7840 N   0  0  0  0  0  0  0  0  0  0  0  0
   34.8230   28.8940   47.0940 N   0  0  0  0  0  0  0  0  0  0  0  0
   35.5630   29.8220   48.3040 S   0  0  1  0  0  0  0  0  0  0  0  0
   36.4460   28.8500   49.0750 O   0  0  0  0  0  0  0  0  0  0  0  0
   36.3960   30.9090   47.7880 O   0  0  0  0  0  0  0  0  0  0  0  0
   37.9830   32.5270   48.6740 C   0  0  0  0  0  0  0  0  0  0  0  0
   37.4820   31.6840   47.6680 C   0  0  0  0  0  0  0  0  0  0  0  0
   38.2240   31.7210   46.5030 C   0  0  0  0  0  0  0  0  0  0  0  0
   39.3480   32.5030   46.3350 C   0  0  0  0  0  0  0  0  0  0  0  0
   39.7510   33.2930   47.3880 C   0  0  0  0  0  0  0  0  0  0  0  0
   39.0910   33.3400   48.5970 C   0  0  0  0  0  0  0  0  0  0  0  0
   37.2550   32.5200   49.8770 O   0  0  0  0  0  0  0  0  0  0  0  0
   39.4620   34.1130   49.6680 O   0  0  0  0  0  0  0  0  0  0  0  0
   34.4570   30.4040   49.4280 O   0  0  0  0  0  0  0  0  0  0  0  0
   34.1380   29.4720   50.3990 C   0  0  0  0  0  0  0  0  0  0  0  0
   34.1340   28.2170   49.8570 F   0  0  0  0  0  0  0  0  0  0  0  0
   35.1520   29.5010   51.3420 F   0  0  0  0  0  0  0  0  0  0  0  0
   32.9670   29.7640   51.0860 F   0  0  0  0  0  0  0  0  0  0  0  0
   32.0731   29.4471   45.1800 H   0  0  0  0  0  0  0  0  0  0  0  0
   32.7903   27.0410   44.4041 H   0  0  0  0  0  0  0  0  0  0  0  0
   32.8389   28.6321   43.5140 H   0  0  0  0  0  0  0  0  0  0  0  0
   34.9390   27.4452   43.2343 H   0  0  0  0  0  0  0  0  0  0  0  0
   35.1146   27.3434   45.0437 H   0  0  0  0  0  0  0  0  0  0  0  0
   36.4755   29.1035   44.5057 H   0  0  0  0  0  0  0  0  0  0  0  0
   35.3219   29.6977   43.2160 H   0  0  0  0  0  0  0  0  0  0  0  0
   35.6276   30.7886   45.7003 H   0  0  0  0  0  0  0  0  0  0  0  0
   34.1861   30.9454   44.6178 H   0  0  0  0  0  0  0  0  0  0  0  0
   33.3638   30.2284   46.8481 H   0  0  0  0  0  0  0  0  0  0  0  0
   32.6078   26.1690   45.4059 H   0  0  0  0  0  0  0  0  0  0  0  0
   31.6164   24.6558   47.1542 H   0  0  0  0  0  0  0  0  0  0  0  0
   30.8171   28.0327   49.6367 H   0  0  0  0  0  0  0  0  0  0  0  0
   34.2884   28.1482   47.5618 H   0  0  0  0  0  0  0  0  0  0  0  0
   36.3196   28.9892   50.0470 H   0  0  0  0  0  0  0  0  0  0  0  0
   37.9000   31.0910   45.6615 H   0  0  0  0  0  0  0  0  0  0  0  0
   39.9061   32.4955   45.3871 H   0  0  0  0  0  0  0  0  0  0  0  0
   40.6460   33.9191   47.2577 H   0  0  0  0  0  0  0  0  0  0  0  0
   37.5449   33.0879   50.6343 H   0  0  0  0  0  0  0  0  0  0  0  0
   38.9315   34.0885   50.5035 H   0  0  0  0  0  0  0  0  0  0  0  0
  1  6  1  0
  1  7  1  0
  2  1  1  0
  3  4  1  0
  3  2  1  0
  4  5  1  0
  5  6  1  0
  6 13  1  0
  7 12  1  0
  8  7  2  0
  8  9  1  0
  9 10  2  0
 10 11  1  0
 12 11  2  0
 13 14  1  0
 14 16  1  6
 14 15  1  0
 14 25  1  0
 17 23  1  0
 18 16  1  0
 18 17  2  0
 19 18  1  0
 20 19  2  0
 20 21  1  0
 21 22  2  0
 22 17  1  0
 22 24  1  0
 25 26  1  0
 26 29  1  0
 26 28  1  0
 27 26  1  0
  1 30  1  6
  2 31  1  0
  2 32  1  0
  3 33  1  0
  3 34  1  0
  4 35  1  0
  4 36  1  0
  5 37  1  0
  5 38  1  0
  6 39  1  1
  8 40  1  0
  9 41  1  0
 11 42  1  0
 13 43  1  0
 15 44  1  0
 19 45  1  0
 20 46  1  0
 21 47  1  0
 23 48  1  0
 24 49  1  0
M  ISO  8  30  13  31  13  32  13  33  13  34  13  35  13  36  13  37  13
M  ISO  8  38  13  39  13  40  14  41  14  42  14  43   5  44   3  45  14
M  ISO  4  46  14  47  14  48   3  49   3
M  END
>  <minimizedAffinity>  (1) 
-5.51972675

>  <minimizedRMSD>  (1) 
4.67182684

$$$$
