
     RDKit          3D

 19 20  0  0  1  0  0  0  0  0999 V2000
   36.0370   30.4640   49.7430 C   0  0  1  0  0  0  0  0  0  0  0  0
   36.0070   29.0280   49.4860 C   0  0  1  0  0  0  0  0  0  0  0  0
   36.5400   29.5010   50.8060 C   0  0  0  0  0  0  0  0  0  0  0  0
   37.1290   31.3240   49.1670 C   0  0  0  0  0  0  0  0  0  0  0  0
   37.3400   32.5790   49.7650 C   0  0  0  0  0  0  0  0  0  0  0  0
   38.3400   33.3710   49.2020 C   0  0  0  0  0  0  0  0  0  0  0  0
   39.0400   32.8950   48.1300 N   0  0  0  0  0  0  0  0  0  0  0  0
   38.8100   31.6790   47.5780 C   0  0  0  0  0  0  0  0  0  0  0  0
   37.8420   30.8900   48.1080 N   0  0  0  0  0  0  0  0  0  0  0  0
   34.7240   28.2810   49.5010 C   0  0  0  0  0  0  0  0  0  0  0  0
   33.7560   28.9830   49.8240 O   0  0  0  0  0  0  0  0  0  0  0  0
   35.2664   31.2420   49.6386 H   0  0  0  0  0  0  0  0  0  0  0  0
   36.3859   28.4100   48.6586 H   0  0  0  0  0  0  0  0  0  0  0  0
   37.6149   29.4309   51.0290 H   0  0  0  0  0  0  0  0  0  0  0  0
   36.3162   29.3052   51.8650 H   0  0  0  0  0  0  0  0  0  0  0  0
   36.7490   32.9172   50.6289 H   0  0  0  0  0  0  0  0  0  0  0  0
   38.5622   34.3658   49.6156 H   0  0  0  0  0  0  0  0  0  0  0  0
   39.3988   31.3371   46.7140 H   0  0  0  0  0  0  0  0  0  0  0  0
   34.6415   27.2130   49.2508 H   0  0  0  0  0  0  0  0  0  0  0  0
  1  3  1  0
  2 10  1  0
  2  1  1  0
  2  3  1  0
  4  1  1  0
  4  5  2  0
  6  5  1  0
  7  6  2  0
  8  9  2  0
  8  7  1  0
  9  4  1  0
 10 11  2  0
  1 12  1  1
  2 13  1  6
  3 14  1  0
  3 15  1  0
  5 16  1  0
  6 17  1  0
  8 18  1  0
 10 19  1  0
M  ISO  8  12  13  13  13  14  13  15  13  16  14  17  14  18  14  19   6
M  END
>  <minimizedAffinity>  (1) 
-4.44564295

>  <minimizedRMSD>  (1) 
0.550582349

$$$$
