
     RDKit          3D

 40 43  0  0  1  0  0  0  0  0999 V2000
   32.2750   28.8710   47.0520 C   0  0  2  0  0  0  0  0  0  0  0  0
   33.1600   27.7190   47.4980 C   0  0  2  0  0  0  0  0  0  0  0  0
   32.4630   27.0870   48.4880 O   0  0  0  0  0  0  0  0  0  0  0  0
   31.1300   27.3140   48.3600 C   0  0  0  0  0  0  0  0  0  0  0  0
   30.9100   28.1780   47.1400 C   0  0  1  0  0  0  0  0  0  0  0  0
   34.5030   29.5720   48.7090 C   0  0  1  0  0  0  0  0  0  0  0  0
   34.4340   28.3130   48.0060 C   0  0  1  0  0  0  0  0  0  0  0  0
   34.8070   28.2600   49.4510 C   0  0  0  0  0  0  0  0  0  0  0  0
   35.7370   30.4580   48.6040 C   0  0  0  0  0  0  0  0  0  0  0  0
   36.0990   31.1810   49.7510 C   0  0  0  0  0  0  0  0  0  0  0  0
   37.2100   31.9840   49.6130 C   0  0  0  0  0  0  0  0  0  0  0  0
   37.8910   32.0470   48.4210 N   0  0  0  0  0  0  0  0  0  0  0  0
   37.5050   31.3310   47.3420 C   0  0  0  0  0  0  0  0  0  0  0  0
   36.4120   30.5220   47.4280 N   0  0  0  0  0  0  0  0  0  0  0  0
   32.5350   29.3140   45.7700 O   0  0  0  0  0  0  0  0  0  0  0  0
   29.8850   29.0760   47.2450 O   0  0  0  0  0  0  0  0  0  0  0  0
   28.6480   28.9280   47.8120 C   0  0  0  0  0  0  0  0  0  0  0  0
   28.2640   29.3620   49.0670 C   0  0  0  0  0  0  0  0  0  0  0  0
   26.9880   29.1690   49.5620 C   0  0  0  0  0  0  0  0  0  0  0  0
   26.1110   28.5130   48.7240 C   0  0  0  0  0  0  0  0  0  0  0  0
   26.4130   28.0490   47.4600 C   0  0  0  0  0  0  0  0  0  0  0  0
   27.7180   28.2770   47.0250 C   0  0  0  0  0  0  0  0  0  0  0  0
   32.3983   29.7878   47.6472 H   0  0  0  0  0  0  0  0  0  0  0  0
   33.4084   27.0029   46.7008 H   0  0  0  0  0  0  0  0  0  0  0  0
   30.6000   26.3578   48.2389 H   0  0  0  0  0  0  0  0  0  0  0  0
   30.7443   27.8203   49.2571 H   0  0  0  0  0  0  0  0  0  0  0  0
   30.6037   27.6024   46.2541 H   0  0  0  0  0  0  0  0  0  0  0  0
   33.7965   30.4134   48.7630 H   0  0  0  0  0  0  0  0  0  0  0  0
   34.8962   27.9471   47.0773 H   0  0  0  0  0  0  0  0  0  0  0  0
   35.8358   28.0150   49.7536 H   0  0  0  0  0  0  0  0  0  0  0  0
   34.4334   27.7499   50.3511 H   0  0  0  0  0  0  0  0  0  0  0  0
   35.5357   31.1115   50.6933 H   0  0  0  0  0  0  0  0  0  0  0  0
   37.5565   32.5826   50.4683 H   0  0  0  0  0  0  0  0  0  0  0  0
   38.0694   31.4008   46.4004 H   0  0  0  0  0  0  0  0  0  0  0  0
   33.0357   30.1671   45.8108 H   0  0  0  0  0  0  0  0  0  0  0  0
   29.0023   29.8809   49.6959 H   0  0  0  0  0  0  0  0  0  0  0  0
   26.6906   29.5170   50.5622 H   0  0  0  0  0  0  0  0  0  0  0  0
   25.0882   28.3461   49.0929 H   0  0  0  0  0  0  0  0  0  0  0  0
   25.6706   27.5316   46.8346 H   0  0  0  0  0  0  0  0  0  0  0  0
   28.0158   27.9280   46.0252 H   0  0  0  0  0  0  0  0  0  0  0  0
  1  5  1  0
  1  2  1  0
  2  7  1  0
  2  3  1  0
  4  3  1  0
  5 16  1  0
  5  4  1  0
  6  8  1  0
  7  6  1  0
  7  8  1  0
  9  6  1  0
  9 10  2  0
 11 10  1  0
 12 11  2  0
 13 14  2  0
 13 12  1  0
 14  9  1  0
 15  1  1  0
 16 17  1  0
 17 18  2  0
 18 19  1  0
 20 19  2  0
 21 20  1  0
 22 21  2  0
 22 17  1  0
  1 23  1  1
  2 24  1  6
  4 25  1  0
  4 26  1  0
  5 27  1  6
  6 28  1  1
  7 29  1  6
  8 30  1  0
  8 31  1  0
 10 32  1  0
 11 33  1  0
 13 34  1  0
 15 35  1  0
 18 36  1  0
 19 37  1  0
 20 38  1  0
 21 39  1  0
 22 40  1  0
M  ISO  8  23  13  24  13  25  13  26  13  27  13  28  13  29  13  30  13
M  ISO  8  31  13  32  14  33  14  34  14  35   3  36  14  37  14  38  14
M  ISO  2  39  14  40  14
M  END
>  <minimizedAffinity>  (1) 
-5.77906704

>  <minimizedRMSD>  (1) 
2.73458481

$$$$
