
     RDKit          3D

 43 47  0  0  1  0  0  0  0  0999 V2000
   33.6470   28.9520   47.1460 C   0  0  2  0  0  0  0  0  0  0  0  0
   34.3380   28.0970   48.1980 C   0  0  2  0  0  0  0  0  0  0  0  0
   33.4270   27.9160   49.1900 O   0  0  0  0  0  0  0  0  0  0  0  0
   32.1550   28.0670   48.7100 C   0  0  0  0  0  0  0  0  0  0  0  0
   32.2440   28.3400   47.2220 C   0  0  1  0  0  0  0  0  0  0  0  0
   35.5030   30.2720   48.9720 C   0  0  1  0  0  0  0  0  0  0  0  0
   35.5340   28.8600   48.6700 C   0  0  1  0  0  0  0  0  0  0  0  0
   35.6980   29.2480   50.1030 C   0  0  0  0  0  0  0  0  0  0  0  0
   36.7350   31.1450   48.7860 C   0  0  0  0  0  0  0  0  0  0  0  0
   36.9570   32.1500   49.7270 C   0  0  0  0  0  0  0  0  0  0  0  0
   38.0810   32.9320   49.4900 C   0  0  0  0  0  0  0  0  0  0  0  0
   38.8860   32.7110   48.4090 N   0  0  0  0  0  0  0  0  0  0  0  0
   38.6280   31.7160   47.5170 C   0  0  0  0  0  0  0  0  0  0  0  0
   37.5350   30.9230   47.7110 N   0  0  0  0  0  0  0  0  0  0  0  0
   34.1900   28.8200   45.8830 O   0  0  0  0  0  0  0  0  0  0  0  0
   31.2890   29.1860   46.7330 O   0  0  0  0  0  0  0  0  0  0  0  0
   28.9820   28.9710   47.6540 C   0  0  0  0  0  0  0  0  0  0  0  0
   29.9250   28.9340   46.6490 C   0  0  0  0  0  0  0  0  0  0  0  0
   29.5370   28.6080   45.3490 C   0  0  0  0  0  0  0  0  0  0  0  0
   28.2280   28.3220   45.0490 C   0  0  0  0  0  0  0  0  0  0  0  0
   27.2970   28.3660   46.0740 C   0  0  0  0  0  0  0  0  0  0  0  0
   27.6620   28.6890   47.3790 C   0  0  0  0  0  0  0  0  0  0  0  0
   26.0600   28.0430   45.5260 O   0  0  0  0  0  0  0  0  0  0  0  0
   26.1380   28.0970   44.1110 C   0  0  0  0  0  0  0  0  0  0  0  0
   27.5450   27.9740   43.8920 O   0  0  0  0  0  0  0  0  0  0  0  0
   33.7169   30.0353   47.3239 H   0  0  0  0  0  0  0  0  0  0  0  0
   34.6765   27.1177   47.8285 H   0  0  0  0  0  0  0  0  0  0  0  0
   31.5779   27.1473   48.8867 H   0  0  0  0  0  0  0  0  0  0  0  0
   31.6505   28.9001   49.2213 H   0  0  0  0  0  0  0  0  0  0  0  0
   32.0752   27.4433   46.6076 H   0  0  0  0  0  0  0  0  0  0  0  0
   34.7965   31.0607   48.6741 H   0  0  0  0  0  0  0  0  0  0  0  0
   36.1236   28.2575   47.9634 H   0  0  0  0  0  0  0  0  0  0  0  0
   36.6733   29.1452   50.6013 H   0  0  0  0  0  0  0  0  0  0  0  0
   35.2001   29.0086   51.0542 H   0  0  0  0  0  0  0  0  0  0  0  0
   36.2939   32.3112   50.5898 H   0  0  0  0  0  0  0  0  0  0  0  0
   38.3275   33.7460   50.1876 H   0  0  0  0  0  0  0  0  0  0  0  0
   39.2900   31.5538   46.6536 H   0  0  0  0  0  0  0  0  0  0  0  0
   35.1492   28.5868   45.9589 H   0  0  0  0  0  0  0  0  0  0  0  0
   29.2850   29.2268   48.6800 H   0  0  0  0  0  0  0  0  0  0  0  0
   30.2930   28.5796   44.5505 H   0  0  0  0  0  0  0  0  0  0  0  0
   26.9070   28.7184   48.1784 H   0  0  0  0  0  0  0  0  0  0  0  0
   25.5861   27.2661   43.6472 H   0  0  0  0  0  0  0  0  0  0  0  0
   25.6964   29.0049   43.6744 H   0  0  0  0  0  0  0  0  0  0  0  0
  1  5  1  0
  1  2  1  0
  2  7  1  0
  2  3  1  0
  4  3  1  0
  5  4  1  0
  6  8  1  0
  7  6  1  0
  7  8  1  0
  9  6  1  0
  9 10  2  0
 11 10  1  0
 12 11  2  0
 13 14  2  0
 13 12  1  0
 14  9  1  0
 15  1  1  0
 16  5  1  0
 18 16  1  0
 18 17  2  0
 19 18  1  0
 20 19  2  0
 20 21  1  0
 21 22  2  0
 22 17  1  0
 23 21  1  0
 24 23  1  0
 25 24  1  0
 25 20  1  0
  1 26  1  1
  2 27  1  6
  4 28  1  0
  4 29  1  0
  5 30  1  6
  6 31  1  1
  7 32  1  6
  8 33  1  0
  8 34  1  0
 10 35  1  0
 11 36  1  0
 13 37  1  0
 15 38  1  0
 17 39  1  0
 19 40  1  0
 22 41  1  0
 24 42  1  0
 24 43  1  0
M  ISO  8  26  13  27  13  28  13  29  13  30  13  31  13  32  13  33  13
M  ISO  8  34  13  35  14  36  14  37  14  38   3  39  14  40  14  41  14
M  ISO  2  42  13  43  13
M  END
>  <minimizedAffinity>  (1) 
-5.74552298

>  <minimizedRMSD>  (1) 
1.82136846

$$$$
