
     RDKit          3D

 37 40  0  0  1  0  0  0  0  0999 V2000
   32.2370   28.8180   47.0160 C   0  0  2  0  0  0  0  0  0  0  0  0
   33.1060   27.6820   47.5340 C   0  0  2  0  0  0  0  0  0  0  0  0
   32.3730   27.0940   48.5300 O   0  0  0  0  0  0  0  0  0  0  0  0
   31.0500   27.3460   48.3610 C   0  0  0  0  0  0  0  0  0  0  0  0
   30.8790   28.1310   47.0950 C   0  0  1  0  0  0  0  0  0  0  0  0
   34.4610   29.5330   48.7190 C   0  0  1  0  0  0  0  0  0  0  0  0
   34.3840   28.2490   48.0530 C   0  0  1  0  0  0  0  0  0  0  0  0
   34.7260   28.2430   49.5070 C   0  0  0  0  0  0  0  0  0  0  0  0
   35.6820   30.4060   48.6140 C   0  0  0  0  0  0  0  0  0  0  0  0
   36.0650   31.1410   49.7370 C   0  0  0  0  0  0  0  0  0  0  0  0
   37.1710   31.9440   49.5930 C   0  0  0  0  0  0  0  0  0  0  0  0
   37.8450   32.0020   48.3990 N   0  0  0  0  0  0  0  0  0  0  0  0
   37.4420   31.2700   47.3270 C   0  0  0  0  0  0  0  0  0  0  0  0
   36.3540   30.4650   47.4280 N   0  0  0  0  0  0  0  0  0  0  0  0
   32.5340   29.1820   45.7160 O   0  0  0  0  0  0  0  0  0  0  0  0
   29.8460   29.0480   47.1500 O   0  0  0  0  0  0  0  0  0  0  0  0
   28.5110   28.2510   47.6750 C   0  0  0  0  0  0  0  0  0  0  0  0
   27.9130   29.5980   48.1020 C   0  0  0  0  0  0  0  0  0  0  0  0
   26.6840   29.6270   48.6690 C   0  0  0  0  0  0  0  0  0  0  0  0
   25.9820   28.3760   48.8510 C   0  0  0  0  0  0  0  0  0  0  0  0
   27.2370   27.1290   48.1340 S   0  0  0  0  0  0  0  0  0  0  0  0
   32.3431   29.7623   47.5700 H   0  0  0  0  0  0  0  0  0  0  0  0
   33.3691   26.9467   46.7594 H   0  0  0  0  0  0  0  0  0  0  0  0
   30.4969   26.3979   48.2885 H   0  0  0  0  0  0  0  0  0  0  0  0
   30.6602   27.9167   49.2168 H   0  0  0  0  0  0  0  0  0  0  0  0
   30.6095   27.5138   46.2253 H   0  0  0  0  0  0  0  0  0  0  0  0
   33.7677   30.3870   48.7310 H   0  0  0  0  0  0  0  0  0  0  0  0
   34.8606   27.8326   47.1533 H   0  0  0  0  0  0  0  0  0  0  0  0
   35.7440   27.9917   49.8395 H   0  0  0  0  0  0  0  0  0  0  0  0
   34.3243   27.7705   50.4155 H   0  0  0  0  0  0  0  0  0  0  0  0
   35.5117   31.0808   50.6858 H   0  0  0  0  0  0  0  0  0  0  0  0
   37.5199   32.5470   50.4443 H   0  0  0  0  0  0  0  0  0  0  0  0
   37.9968   31.3299   46.3791 H   0  0  0  0  0  0  0  0  0  0  0  0
   33.1599   29.9490   45.7229 H   0  0  0  0  0  0  0  0  0  0  0  0
   28.4768   30.5301   47.9491 H   0  0  0  0  0  0  0  0  0  0  0  0
   26.2307   30.5786   48.9835 H   0  0  0  0  0  0  0  0  0  0  0  0
   24.9889   28.1919   49.2867 H   0  0  0  0  0  0  0  0  0  0  0  0
  1  5  1  0
  1  2  1  0
  2  7  1  0
  2  3  1  0
  4  3  1  0
  5 16  1  0
  5  4  1  0
  6  8  1  0
  7  6  1  0
  7  8  1  0
  9  6  1  0
  9 10  2  0
 11 10  1  0
 12 11  2  0
 13 14  2  0
 13 12  1  0
 14  9  1  0
 15  1  1  0
 16 17  1  0
 17 18  2  0
 17 21  1  0
 18 19  1  0
 19 20  2  0
 21 20  1  0
  1 22  1  1
  2 23  1  6
  4 24  1  0
  4 25  1  0
  5 26  1  6
  6 27  1  1
  7 28  1  6
  8 29  1  0
  8 30  1  0
 10 31  1  0
 11 32  1  0
 13 33  1  0
 15 34  1  0
 18 35  1  0
 19 36  1  0
 20 37  1  0
M  ISO  8  22  13  23  13  24  13  25  13  26  13  27  13  28  13  29  13
M  ISO  8  30  13  31  14  32  14  33  14  34   3  35  14  36  14  37  14
M  END
>  <minimizedAffinity>  (1) 
-5.45366764

>  <minimizedRMSD>  (1) 
2.66057754

$$$$
