
     RDKit          3D

 41 44  0  0  1  0  0  0  0  0999 V2000
   33.7820   28.8370   47.2290 C   0  0  2  0  0  0  0  0  0  0  0  0
   34.4880   28.0900   48.3500 C   0  0  2  0  0  0  0  0  0  0  0  0
   33.5510   27.9310   49.3320 O   0  0  0  0  0  0  0  0  0  0  0  0
   32.2970   27.9820   48.8130 C   0  0  0  0  0  0  0  0  0  0  0  0
   32.4070   28.1640   47.3150 C   0  0  1  0  0  0  0  0  0  0  0  0
   35.5390   30.3730   48.9570 C   0  0  1  0  0  0  0  0  0  0  0  0
   35.6290   28.9410   48.8040 C   0  0  1  0  0  0  0  0  0  0  0  0
   35.7040   29.4820   50.1950 C   0  0  0  0  0  0  0  0  0  0  0  0
   36.7510   31.2640   48.7430 C   0  0  0  0  0  0  0  0  0  0  0  0
   37.0140   32.2380   49.7060 C   0  0  0  0  0  0  0  0  0  0  0  0
   38.1180   33.0390   49.4480 C   0  0  0  0  0  0  0  0  0  0  0  0
   38.8740   32.8560   48.3140 N   0  0  0  0  0  0  0  0  0  0  0  0
   38.5780   31.8970   47.4100 C   0  0  0  0  0  0  0  0  0  0  0  0
   37.5080   31.0940   47.6260 N   0  0  0  0  0  0  0  0  0  0  0  0
   34.3610   28.6480   45.9870 O   0  0  0  0  0  0  0  0  0  0  0  0
   31.4280   28.9460   46.7650 O   0  0  0  0  0  0  0  0  0  0  0  0
   30.1400   28.5450   47.0550 C   0  0  2  0  0  0  0  0  0  0  0  0
   29.7450   27.2810   46.3120 C   0  0  0  0  0  0  0  0  0  0  0  0
   28.2420   27.4900   46.2190 C   0  0  0  0  0  0  0  0  0  0  0  0
   28.0300   28.8470   46.0780 O   0  0  0  0  0  0  0  0  0  0  0  0
   29.1820   29.5300   46.4330 C   0  0  0  0  0  0  0  0  0  0  0  0
   33.7964   29.9316   47.3364 H   0  0  0  0  0  0  0  0  0  0  0  0
   34.8889   27.1095   48.0537 H   0  0  0  0  0  0  0  0  0  0  0  0
   31.7646   27.0455   49.0353 H   0  0  0  0  0  0  0  0  0  0  0  0
   31.7387   28.8201   49.2555 H   0  0  0  0  0  0  0  0  0  0  0  0
   32.2924   27.2250   46.7537 H   0  0  0  0  0  0  0  0  0  0  0  0
   34.8252   31.1009   48.5439 H   0  0  0  0  0  0  0  0  0  0  0  0
   36.2732   28.2894   48.1954 H   0  0  0  0  0  0  0  0  0  0  0  0
   36.6539   29.4669   50.7496 H   0  0  0  0  0  0  0  0  0  0  0  0
   35.1633   29.3249   51.1400 H   0  0  0  0  0  0  0  0  0  0  0  0
   36.3919   32.3624   50.6046 H   0  0  0  0  0  0  0  0  0  0  0  0
   38.3919   33.8310   50.1605 H   0  0  0  0  0  0  0  0  0  0  0  0
   39.1975   31.7695   46.5100 H   0  0  0  0  0  0  0  0  0  0  0  0
   35.2958   28.3429   46.1017 H   0  0  0  0  0  0  0  0  0  0  0  0
   30.1024   28.4355   48.1489 H   0  0  0  0  0  0  0  0  0  0  0  0
   30.2124   27.2287   45.3176 H   0  0  0  0  0  0  0  0  0  0  0  0
   30.0538   26.3427   46.7960 H   0  0  0  0  0  0  0  0  0  0  0  0
   27.8392   26.9524   45.3479 H   0  0  0  0  0  0  0  0  0  0  0  0
   27.7364   27.1054   47.1170 H   0  0  0  0  0  0  0  0  0  0  0  0
   29.6386   29.9801   45.5392 H   0  0  0  0  0  0  0  0  0  0  0  0
   28.9439   30.3319   47.1473 H   0  0  0  0  0  0  0  0  0  0  0  0
  1  5  1  0
  1  2  1  0
  2  7  1  0
  2  3  1  0
  4  3  1  0
  5  4  1  0
  6  8  1  0
  7  6  1  0
  7  8  1  0
  9  6  1  0
  9 10  2  0
 11 10  1  0
 12 11  2  0
 13 14  2  0
 13 12  1  0
 14  9  1  0
 15  1  1  0
 16  5  1  0
 17 16  1  0
 18 17  1  0
 19 18  1  0
 20 19  1  0
 20 21  1  0
 21 17  1  0
  1 22  1  1
  2 23  1  6
  4 24  1  0
  4 25  1  0
  5 26  1  6
  6 27  1  1
  7 28  1  6
  8 29  1  0
  8 30  1  0
 10 31  1  0
 11 32  1  0
 13 33  1  0
 15 34  1  0
 17 35  1  1
 18 36  1  0
 18 37  1  0
 19 38  1  0
 19 39  1  0
 21 40  1  0
 21 41  1  0
M  ISO  8  22  13  23  13  24  13  25  13  26  13  27  13  28  13  29  13
M  ISO  8  30  13  31  14  32  14  33  14  34   3  35  13  36  13  37  13
M  ISO  4  38  13  39  13  40  13  41  13
M  END
>  <minimizedAffinity>  (1) 
-5.07414103

>  <minimizedRMSD>  (1) 
1.21249318

$$$$
