
     RDKit          3D

 33 35  0  0  1  0  0  0  0  0999 V2000
   35.6440   30.3980   49.0600 C   0  0  1  0  0  0  0  0  0  0  0  0
   35.7320   28.9810   48.7970 C   0  0  1  0  0  0  0  0  0  0  0  0
   35.8870   29.4170   50.2170 C   0  0  0  0  0  0  0  0  0  0  0  0
   33.8720   28.9190   47.2410 C   0  0  2  0  0  0  0  0  0  0  0  0
   34.5720   28.1500   48.3490 C   0  0  2  0  0  0  0  0  0  0  0  0
   33.6400   28.0040   49.3380 O   0  0  0  0  0  0  0  0  0  0  0  0
   32.3820   28.0840   48.8320 C   0  0  0  0  0  0  0  0  0  0  0  0
   32.4880   28.2690   47.3330 C   0  0  1  0  0  0  0  0  0  0  0  0
   34.4350   28.7370   45.9940 O   0  0  0  0  0  0  0  0  0  0  0  0
   31.5140   29.0540   46.7840 O   0  0  0  0  0  0  0  0  0  0  0  0
   30.7250   28.2240   45.9780 C   0  0  0  0  0  0  0  0  0  0  0  0
   36.8330   31.3150   48.8370 C   0  0  0  0  0  0  0  0  0  0  0  0
   37.0360   32.3430   49.7570 C   0  0  0  0  0  0  0  0  0  0  0  0
   38.1200   33.1680   49.4890 C   0  0  0  0  0  0  0  0  0  0  0  0
   38.9080   32.9620   48.4010 N   0  0  0  0  0  0  0  0  0  0  0  0
   38.6790   31.9450   47.5240 C   0  0  0  0  0  0  0  0  0  0  0  0
   37.6240   31.1130   47.7510 N   0  0  0  0  0  0  0  0  0  0  0  0
   34.9034   31.1486   48.7467 H   0  0  0  0  0  0  0  0  0  0  0  0
   36.3419   28.3836   48.1033 H   0  0  0  0  0  0  0  0  0  0  0  0
   36.8683   29.3692   50.7118 H   0  0  0  0  0  0  0  0  0  0  0  0
   35.4043   29.1847   51.1777 H   0  0  0  0  0  0  0  0  0  0  0  0
   33.9080   30.0121   47.3585 H   0  0  0  0  0  0  0  0  0  0  0  0
   34.9512   27.1632   48.0452 H   0  0  0  0  0  0  0  0  0  0  0  0
   31.8309   27.1586   49.0553 H   0  0  0  0  0  0  0  0  0  0  0  0
   31.8433   28.9304   49.2830 H   0  0  0  0  0  0  0  0  0  0  0  0
   32.3593   27.3332   46.7693 H   0  0  0  0  0  0  0  0  0  0  0  0
   35.3720   28.4341   46.0960 H   0  0  0  0  0  0  0  0  0  0  0  0
   30.1072   27.5741   46.6151 H   0  0  0  0  0  0  0  0  0  0  0  0
   30.0731   28.8418   45.3429 H   0  0  0  0  0  0  0  0  0  0  0  0
   31.3750   27.6042   45.3429 H   0  0  0  0  0  0  0  0  0  0  0  0
   36.3848   32.4896   50.6313 H   0  0  0  0  0  0  0  0  0  0  0  0
   38.3450   34.0028   50.1690 H   0  0  0  0  0  0  0  0  0  0  0  0
   39.3320   31.7985   46.6510 H   0  0  0  0  0  0  0  0  0  0  0  0
  1  3  1  0
  2  1  1  0
  2  3  1  0
  4  8  1  0
  4  5  1  0
  5  2  1  0
  5  6  1  0
  7  6  1  0
  8  7  1  0
  9  4  1  0
 10  8  1  0
 11 10  1  0
 12  1  1  0
 12 13  2  0
 14 13  1  0
 15 14  2  0
 16 17  2  0
 16 15  1  0
 17 12  1  0
  1 18  1  1
  2 19  1  6
  3 20  1  0
  3 21  1  0
  4 22  1  1
  5 23  1  6
  7 24  1  0
  7 25  1  0
  8 26  1  6
  9 27  1  0
 11 28  1  0
 11 29  1  0
 11 30  1  0
 13 31  1  0
 14 32  1  0
 16 33  1  0
M  ISO  8  18  13  19  13  20  13  21  13  22  13  23  13  24  13  25  13
M  ISO  8  26  13  27   3  28   8  29   8  30   8  31  14  32  14  33  14
M  END
>  <minimizedAffinity>  (1) 
-4.67647505

>  <minimizedRMSD>  (1) 
0.244804353

$$$$
