
     RDKit          3D

 33 35  0  0  1  0  0  0  0  0999 V2000
   36.7300   30.4270   46.8380 N   0  0  0  0  0  0  0  0  0  0  0  0
   35.8090   30.3510   45.7110 C   0  0  0  0  0  0  0  0  0  0  0  0
   36.4860   30.4540   44.3930 C   0  0  0  0  0  0  0  0  0  0  0  0
   37.8460   30.0350   44.5080 N   0  0  0  0  0  0  0  0  0  0  0  0
   38.5210   31.0650   45.2870 C   0  0  0  0  0  0  0  0  0  0  0  0
   38.1290   30.7980   46.7150 C   0  0  1  0  0  0  0  0  0  0  0  0
   37.0310   29.4360   49.0760 C   0  0  0  0  0  0  0  0  0  0  0  0
   36.2580   30.1250   48.1400 C   0  0  0  0  0  0  0  0  0  0  0  0
   34.9830   30.5150   48.5320 C   0  0  0  0  0  0  0  0  0  0  0  0
   34.5780   30.1920   49.8160 N   0  0  0  0  0  0  0  0  0  0  0  0
   35.3610   29.5300   50.6690 C   0  0  0  0  0  0  0  0  0  0  0  0
   36.6140   29.1340   50.3190 N   0  0  0  0  0  0  0  0  0  0  0  0
   38.4590   31.9570   47.5940 C   0  0  0  0  0  0  0  0  0  0  0  0
   39.4700   32.8510   47.3160 C   0  0  0  0  0  0  0  0  0  0  0  0
   39.7680   33.9140   48.1250 C   0  0  0  0  0  0  0  0  0  0  0  0
   39.0480   34.1340   49.2820 C   0  0  0  0  0  0  0  0  0  0  0  0
   38.0400   33.2280   49.5410 C   0  0  0  0  0  0  0  0  0  0  0  0
   37.7680   32.1890   48.7250 N   0  0  0  0  0  0  0  0  0  0  0  0
   35.2789   29.3883   45.7573 H   0  0  0  0  0  0  0  0  0  0  0  0
   35.1218   31.2060   45.7927 H   0  0  0  0  0  0  0  0  0  0  0  0
   36.4545   31.4980   44.0480 H   0  0  0  0  0  0  0  0  0  0  0  0
   35.9687   29.8062   43.6700 H   0  0  0  0  0  0  0  0  0  0  0  0
   37.9008   29.1273   44.9918 H   0  0  0  0  0  0  0  0  0  0  0  0
   39.6116   30.9884   45.1653 H   0  0  0  0  0  0  0  0  0  0  0  0
   38.2369   32.0776   44.9645 H   0  0  0  0  0  0  0  0  0  0  0  0
   38.7225   29.9361   47.0541 H   0  0  0  0  0  0  0  0  0  0  0  0
   38.0423   29.1209   48.7794 H   0  0  0  0  0  0  0  0  0  0  0  0
   34.3188   31.0612   47.8461 H   0  0  0  0  0  0  0  0  0  0  0  0
   34.9853   29.2995   51.6768 H   0  0  0  0  0  0  0  0  0  0  0  0
   40.0646   32.7037   46.4024 H   0  0  0  0  0  0  0  0  0  0  0  0
   40.5859   34.5969   47.8517 H   0  0  0  0  0  0  0  0  0  0  0  0
   39.2639   34.9774   49.9543 H   0  0  0  0  0  0  0  0  0  0  0  0
   37.4338   33.3583   50.4496 H   0  0  0  0  0  0  0  0  0  0  0  0
  1  8  1  0
  2  1  1  0
  3  4  1  0
  3  2  1  0
  4  5  1  0
  5  6  1  0
  6  1  1  0
  6 13  1  0
  7 12  2  0
  8  9  2  0
  8  7  1  0
  9 10  1  0
 10 11  2  0
 12 11  1  0
 13 18  1  0
 14 13  2  0
 14 15  1  0
 15 16  2  0
 16 17  1  0
 18 17  2  0
  2 19  1  0
  2 20  1  0
  3 21  1  0
  3 22  1  0
  4 23  1  0
  5 24  1  0
  5 25  1  0
  6 26  1  1
  7 27  1  0
  9 28  1  0
 11 29  1  0
 14 30  1  0
 15 31  1  0
 16 32  1  0
 17 33  1  0
M  ISO  8  19  13  20  13  21  13  22  13  23   5  24  13  25  13  26  13
M  ISO  7  27  14  28  14  29  14  30  14  31  14  32  14  33  14
M  END
>  <minimizedAffinity>  (1) 
-4.86771297

>  <minimizedRMSD>  (1) 
2.55556417

$$$$
