
     RDKit          3D

 38 41  0  0  1  0  0  0  0  0999 V2000
   35.5680   30.1310   46.4600 N   0  0  0  0  0  0  0  0  0  0  0  0
   34.3050   30.2470   45.7110 C   0  0  0  0  0  0  0  0  0  0  0  0
   34.4740   30.0620   44.2540 C   0  0  0  0  0  0  0  0  0  0  0  0
   35.6860   29.3520   43.9550 N   0  0  0  0  0  0  0  0  0  0  0  0
   36.7790   30.2410   44.3280 C   0  0  0  0  0  0  0  0  0  0  0  0
   36.8640   30.1710   45.8270 C   0  0  1  0  0  0  0  0  0  0  0  0
   38.7440   31.8660   45.6210 C   0  0  0  0  0  0  0  0  0  0  0  0
   37.7500   31.2350   46.3650 C   0  0  0  0  0  0  0  0  0  0  0  0
   37.6440   31.6800   47.6710 C   0  0  0  0  0  0  0  0  0  0  0  0
   38.4060   32.6520   48.2690 C   0  0  0  0  0  0  0  0  0  0  0  0
   38.3860   33.1530   49.5120 N   0  0  0  0  0  0  0  0  0  0  0  0
   39.3590   34.0940   49.5550 C   0  0  0  0  0  0  0  0  0  0  0  0
   39.9900   34.1750   48.3210 C   0  0  0  0  0  0  0  0  0  0  0  0
   39.3740   33.2490   47.5020 C   0  0  0  0  0  0  0  0  0  0  0  0
   39.5380   32.8560   46.1890 C   0  0  0  0  0  0  0  0  0  0  0  0
   36.4220   29.1670   48.5600 C   0  0  0  0  0  0  0  0  0  0  0  0
   35.5150   29.9750   47.8640 C   0  0  0  0  0  0  0  0  0  0  0  0
   34.5480   30.6280   48.6190 C   0  0  0  0  0  0  0  0  0  0  0  0
   34.5390   30.4440   49.9810 N   0  0  0  0  0  0  0  0  0  0  0  0
   35.4370   29.6530   50.5950 C   0  0  0  0  0  0  0  0  0  0  0  0
   36.3850   29.0080   49.8990 N   0  0  0  0  0  0  0  0  0  0  0  0
   33.6068   29.4823   46.0820 H   0  0  0  0  0  0  0  0  0  0  0  0
   33.9229   31.2663   45.8694 H   0  0  0  0  0  0  0  0  0  0  0  0
   33.6187   29.4909   43.8638 H   0  0  0  0  0  0  0  0  0  0  0  0
   34.5275   31.0542   43.7821 H   0  0  0  0  0  0  0  0  0  0  0  0
   35.7329   28.4796   44.5006 H   0  0  0  0  0  0  0  0  0  0  0  0
   37.7217   29.9019   43.8738 H   0  0  0  0  0  0  0  0  0  0  0  0
   36.6047   31.2691   43.9780 H   0  0  0  0  0  0  0  0  0  0  0  0
   37.3326   29.2095   46.0839 H   0  0  0  0  0  0  0  0  0  0  0  0
   38.9028   31.5777   44.5714 H   0  0  0  0  0  0  0  0  0  0  0  0
   36.8702   31.2064   48.2931 H   0  0  0  0  0  0  0  0  0  0  0  0
   37.7572   32.8777   50.2799 H   0  0  0  0  0  0  0  0  0  0  0  0
   39.6115   34.7029   50.4356 H   0  0  0  0  0  0  0  0  0  0  0  0
   40.8185   34.8455   48.0488 H   0  0  0  0  0  0  0  0  0  0  0  0
   40.3153   33.3375   45.5775 H   0  0  0  0  0  0  0  0  0  0  0  0
   37.1996   28.6381   47.9894 H   0  0  0  0  0  0  0  0  0  0  0  0
   33.8046   31.2792   48.1361 H   0  0  0  0  0  0  0  0  0  0  0  0
   35.3932   29.5329   51.6875 H   0  0  0  0  0  0  0  0  0  0  0  0
  1 17  1  0
  2  1  1  0
  3  2  1  0
  4  3  1  0
  4  5  1  0
  5  6  1  0
  6  8  1  0
  6  1  1  0
  7 15  2  0
  7  8  1  0
  8  9  2  0
  9 10  1  0
 10 11  1  0
 11 12  1  0
 13 12  2  0
 14 10  2  0
 14 13  1  0
 15 14  1  0
 16 21  2  0
 17 16  1  0
 17 18  2  0
 18 19  1  0
 19 20  2  0
 21 20  1  0
  2 22  1  0
  2 23  1  0
  3 24  1  0
  3 25  1  0
  4 26  1  0
  5 27  1  0
  5 28  1  0
  6 29  1  6
  7 30  1  0
  9 31  1  0
 11 32  1  0
 12 33  1  0
 13 34  1  0
 15 35  1  0
 16 36  1  0
 18 37  1  0
 20 38  1  0
M  ISO  8  22  13  23  13  24  13  25  13  26   5  27  13  28  13  29  13
M  ISO  8  30  14  31  14  32   9  33  14  34  14  35  14  36  14  37  14
M  ISO  1  38  14
M  END
>  <minimizedAffinity>  (1) 
-4.81038475

>  <minimizedRMSD>  (1) 
4.11728716

$$$$
