
     RDKit          3D

 25 26  0  0  1  0  0  0  0  0999 V2000
   37.5500   31.3680   48.2210 N   0  0  0  0  0  0  0  0  0  0  0  0
   37.2710   31.0260   46.8110 C   0  0  0  0  0  0  0  0  0  0  0  0
   38.2700   31.5860   45.8720 C   0  0  0  0  0  0  0  0  0  0  0  0
   39.5060   31.8230   46.5400 N   0  0  0  0  0  0  0  0  0  0  0  0
   39.2520   32.9440   47.4620 C   0  0  0  0  0  0  0  0  0  0  0  0
   38.5050   32.3650   48.6290 C   0  0  1  0  0  0  0  0  0  0  0  0
   37.4890   30.1350   50.3600 C   0  0  0  0  0  0  0  0  0  0  0  0
   36.8200   30.6600   49.2290 C   0  0  0  0  0  0  0  0  0  0  0  0
   35.4460   30.4700   49.1230 C   0  0  0  0  0  0  0  0  0  0  0  0
   34.8130   29.7800   50.1250 N   0  0  0  0  0  0  0  0  0  0  0  0
   35.4760   29.2980   51.1780 C   0  0  0  0  0  0  0  0  0  0  0  0
   36.8200   29.4600   51.3230 N   0  0  0  0  0  0  0  0  0  0  0  0
   37.9110   33.4410   49.3060 O   0  0  0  0  0  0  0  0  0  0  0  0
   37.2697   29.9307   46.7095 H   0  0  0  0  0  0  0  0  0  0  0  0
   36.2951   31.4631   46.5529 H   0  0  0  0  0  0  0  0  0  0  0  0
   37.8913   32.5349   45.4643 H   0  0  0  0  0  0  0  0  0  0  0  0
   38.4379   30.8638   45.0595 H   0  0  0  0  0  0  0  0  0  0  0  0
   39.7973   30.9856   47.0643 H   0  0  0  0  0  0  0  0  0  0  0  0
   40.2024   33.3843   47.7980 H   0  0  0  0  0  0  0  0  0  0  0  0
   38.6750   33.7427   46.9729 H   0  0  0  0  0  0  0  0  0  0  0  0
   39.1910   31.8297   49.3019 H   0  0  0  0  0  0  0  0  0  0  0  0
   38.5751   30.2786   50.4583 H   0  0  0  0  0  0  0  0  0  0  0  0
   34.8844   30.8612   48.2618 H   0  0  0  0  0  0  0  0  0  0  0  0
   34.9188   28.7523   51.9537 H   0  0  0  0  0  0  0  0  0  0  0  0
   37.9889   33.2998   50.2828 H   0  0  0  0  0  0  0  0  0  0  0  0
  1  6  1  0
  1  8  1  0
  2  1  1  0
  3  4  1  0
  3  2  1  0
  4  5  1  0
  5  6  1  0
  6 13  1  0
  7 12  2  0
  8  7  1  0
  9  8  2  0
  9 10  1  0
 10 11  2  0
 11 12  1  0
  2 14  1  0
  2 15  1  0
  3 16  1  0
  3 17  1  0
  4 18  1  0
  5 19  1  0
  5 20  1  0
  6 21  1  1
  7 22  1  0
  9 23  1  0
 11 24  1  0
 13 25  1  0
M  ISO  8  14  13  15  13  16  13  17  13  18   5  19  13  20  13  21  13
M  ISO  4  22  14  23  14  24  14  25   3
M  END
>  <minimizedAffinity>  (1) 
-4.30769253

>  <minimizedRMSD>  (1) 
0.241101444

$$$$
