
     RDKit          3D

 20 20  0  0  0  0  0  0  0  0999 V2000
   34.3440   30.1380   49.4110 O   0  0  0  0  0  0  0  0  0  0  0  0
   35.6640   30.3740   49.7800 C   0  0  0  0  0  0  0  0  0  0  0  0
   36.2720   29.9420   50.9710 C   0  0  0  0  0  0  0  0  0  0  0  0
   37.6020   30.2600   51.1890 C   0  0  0  0  0  0  0  0  0  0  0  0
   38.2540   30.9760   50.2370 N   0  0  0  0  0  0  0  0  0  0  0  0
   37.6600   31.3870   49.0930 C   0  0  0  0  0  0  0  0  0  0  0  0
   36.3520   31.0820   48.8640 N   0  0  0  0  0  0  0  0  0  0  0  0
   34.7590   27.4990   49.1190 O   0  0  0  0  0  0  0  0  0  0  0  0
   33.8520   28.6410   48.7160 P   0  0  1  0  0  0  0  0  0  0  0  0
   32.2670   28.3770   49.2400 O   0  0  0  0  0  0  0  0  0  0  0  0
   33.9460   28.7590   47.0270 O   0  0  0  0  0  0  0  0  0  0  0  0
   33.8010   29.9630   46.3500 C   0  0  0  0  0  0  0  0  0  0  0  0
   34.5320   30.0530   45.3080 O   0  0  0  0  0  0  0  0  0  0  0  0
   32.9760   31.0640   46.6540 N   0  0  0  0  0  0  0  0  0  0  0  0
   35.7036   29.3636   51.7142 H   0  0  0  0  0  0  0  0  0  0  0  0
   38.1161   29.9415   52.1078 H   0  0  0  0  0  0  0  0  0  0  0  0
   38.2306   31.9649   48.3510 H   0  0  0  0  0  0  0  0  0  0  0  0
   32.2430   28.3730   50.2297 H   0  0  0  0  0  0  0  0  0  0  0  0
   32.9816   31.8952   46.0457 H   0  0  0  0  0  0  0  0  0  0  0  0
   32.3673   31.0377   47.4845 H   0  0  0  0  0  0  0  0  0  0  0  0
  1  2  1  0
  2  3  2  0
  3  4  1  0
  5  4  2  0
  6  5  1  0
  7  6  2  0
  7  2  1  0
  9  8  2  0
  9 10  1  0
  9  1  1  0
 11  9  1  0
 12 14  1  0
 12 11  1  0
 13 12  2  0
  3 15  1  0
  4 16  1  0
  6 17  1  0
 10 18  1  0
 14 19  1  0
 14 20  1  0
M  ISO  4  15  14  16  14  17  14  18   3
M  END
>  <minimizedAffinity>  (1) 
-4.10923529

>  <minimizedRMSD>  (1) 
2.11435938

$$$$
