
     RDKit          3D

 31 33  0  0  1  0  0  0  0  0999 V2000
   37.1620   30.8090   47.7530 C   0  0  0  0  0  0  0  0  0  0  0  0
   36.3960   30.3460   46.6960 C   0  0  0  0  0  0  0  0  0  0  0  0
   36.8600   30.9480   45.5340 C   0  0  0  0  0  0  0  0  0  0  0  0
   37.8740   31.7410   45.9230 N   0  0  0  0  0  0  0  0  0  0  0  0
   38.0870   31.6830   47.2630 N   0  0  0  0  0  0  0  0  0  0  0  0
   37.5260   30.1900   51.4450 C   0  0  0  0  0  0  0  0  0  0  0  0
   37.8660   30.6500   50.1730 C   0  0  0  0  0  0  0  0  0  0  0  0
   36.9500   30.3900   49.1290 C   0  0  0  0  0  0  0  0  0  0  0  0
   35.7820   29.7030   49.4220 N   0  0  0  0  0  0  0  0  0  0  0  0
   35.5310   29.2910   50.6950 C   0  0  0  0  0  0  0  0  0  0  0  0
   36.3890   29.5290   51.6930 N   0  0  0  0  0  0  0  0  0  0  0  0
   37.8550   32.8660   43.8380 N   0  0  0  0  0  0  0  0  0  0  0  0
   38.6510   32.5710   44.9850 C   0  0  2  0  0  0  0  0  0  0  0  0
   40.0020   31.9960   44.7380 C   0  0  0  0  0  0  0  0  0  0  0  0
   40.2640   31.5040   43.4250 N   0  0  0  0  0  0  0  0  0  0  0  0
   39.6450   32.2690   42.3610 C   0  0  0  0  0  0  0  0  0  0  0  0
   38.1570   32.1720   42.6430 C   0  0  0  0  0  0  0  0  0  0  0  0
   35.5659   29.6276   46.7650 H   0  0  0  0  0  0  0  0  0  0  0  0
   36.4789   30.8063   44.5119 H   0  0  0  0  0  0  0  0  0  0  0  0
   38.2200   30.3780   52.2775 H   0  0  0  0  0  0  0  0  0  0  0  0
   38.8060   31.1914   49.9905 H   0  0  0  0  0  0  0  0  0  0  0  0
   34.5983   28.7483   50.9083 H   0  0  0  0  0  0  0  0  0  0  0  0
   36.8757   32.6561   44.0787 H   0  0  0  0  0  0  0  0  0  0  0  0
   38.8855   33.5515   45.4251 H   0  0  0  0  0  0  0  0  0  0  0  0
   40.7417   32.7815   44.9522 H   0  0  0  0  0  0  0  0  0  0  0  0
   40.0619   31.1136   45.3920 H   0  0  0  0  0  0  0  0  0  0  0  0
   41.2831   31.5122   43.2760 H   0  0  0  0  0  0  0  0  0  0  0  0
   39.8843   31.8345   41.3792 H   0  0  0  0  0  0  0  0  0  0  0  0
   39.9993   33.3100   42.3321 H   0  0  0  0  0  0  0  0  0  0  0  0
   37.5963   32.6184   41.8086 H   0  0  0  0  0  0  0  0  0  0  0  0
   37.8738   31.1147   42.7526 H   0  0  0  0  0  0  0  0  0  0  0  0
  1  8  1  0
  2  1  1  0
  3  4  1  0
  3  2  2  0
  4  5  1  0
  5  1  2  0
  6 11  2  0
  7  6  1  0
  8  9  1  0
  8  7  2  0
  9 10  2  0
 10 11  1  0
 12 13  1  0
 13  4  1  0
 14 13  1  0
 15 14  1  0
 16 17  1  0
 16 15  1  0
 17 12  1  0
  2 18  1  0
  3 19  1  0
  6 20  1  0
  7 21  1  0
 10 22  1  0
 12 23  1  0
 13 24  1  1
 14 25  1  0
 14 26  1  0
 15 27  1  0
 16 28  1  0
 16 29  1  0
 17 30  1  0
 17 31  1  0
M  ISO  8  18  14  19  14  20  14  21  14  22  14  23   5  24  13  25  13
M  ISO  6  26  13  27   5  28  13  29  13  30  13  31  13
M  END
>  <minimizedAffinity>  (1) 
-5.14403486

>  <minimizedRMSD>  (1) 
4.09402847

$$$$
