
     RDKit          3D

 36 38  0  0  0  0  0  0  0  0999 V2000
   37.6850   31.0330   47.9340 C   0  0  0  0  0  0  0  0  0  0  0  0
   37.0290   30.7660   46.7610 C   0  0  0  0  0  0  0  0  0  0  0  0
   37.6870   31.4120   45.7260 C   0  0  0  0  0  0  0  0  0  0  0  0
   38.7260   32.0520   46.3190 N   0  0  0  0  0  0  0  0  0  0  0  0
   38.7160   31.8220   47.6340 N   0  0  0  0  0  0  0  0  0  0  0  0
   37.4170   30.1390   51.5780 C   0  0  0  0  0  0  0  0  0  0  0  0
   37.9180   30.6920   50.4070 C   0  0  0  0  0  0  0  0  0  0  0  0
   37.2410   30.5000   49.2000 C   0  0  0  0  0  0  0  0  0  0  0  0
   36.1080   29.7610   49.2800 N   0  0  0  0  0  0  0  0  0  0  0  0
   35.6360   29.2310   50.4290 C   0  0  0  0  0  0  0  0  0  0  0  0
   36.2960   29.4260   51.5700 N   0  0  0  0  0  0  0  0  0  0  0  0
   39.7020   32.8730   45.5880 C   0  0  0  0  0  0  0  0  0  0  0  0
   40.6450   31.9750   44.8510 C   0  0  0  0  0  0  0  0  0  0  0  0
   40.3780   31.8090   43.4650 N   0  0  0  0  0  0  0  0  0  0  0  0
   39.4960   32.7260   42.8540 C   0  0  0  0  0  0  0  0  0  0  0  0
   38.2220   32.1130   42.3240 C   0  0  0  0  0  0  0  0  0  0  0  0
   38.4870   30.9120   41.6310 O   0  0  0  0  0  0  0  0  0  0  0  0
   38.9730   30.0310   42.5980 C   0  0  0  0  0  0  0  0  0  0  0  0
   40.3530   30.4820   42.9720 C   0  0  0  0  0  0  0  0  0  0  0  0
   36.1289   30.1421   46.6577 H   0  0  0  0  0  0  0  0  0  0  0  0
   37.4243   31.4069   44.6578 H   0  0  0  0  0  0  0  0  0  0  0  0
   37.9554   30.2933   52.5248 H   0  0  0  0  0  0  0  0  0  0  0  0
   38.8470   31.2807   50.4296 H   0  0  0  0  0  0  0  0  0  0  0  0
   34.7086   28.6395   50.4230 H   0  0  0  0  0  0  0  0  0  0  0  0
   39.1751   33.5208   44.8719 H   0  0  0  0  0  0  0  0  0  0  0  0
   40.2645   33.4981   46.2971 H   0  0  0  0  0  0  0  0  0  0  0  0
   41.6581   32.3912   44.9530 H   0  0  0  0  0  0  0  0  0  0  0  0
   40.5260   30.9787   45.3018 H   0  0  0  0  0  0  0  0  0  0  0  0
   39.2258   33.4901   43.5977 H   0  0  0  0  0  0  0  0  0  0  0  0
   40.0285   33.1399   41.9850 H   0  0  0  0  0  0  0  0  0  0  0  0
   37.5477   31.9005   43.1667 H   0  0  0  0  0  0  0  0  0  0  0  0
   37.7556   32.8240   41.6261 H   0  0  0  0  0  0  0  0  0  0  0  0
   38.3202   30.0488   43.4831 H   0  0  0  0  0  0  0  0  0  0  0  0
   38.9961   29.0033   42.2065 H   0  0  0  0  0  0  0  0  0  0  0  0
   40.7444   29.8099   43.7499 H   0  0  0  0  0  0  0  0  0  0  0  0
   40.9705   30.4533   42.0622 H   0  0  0  0  0  0  0  0  0  0  0  0
  1  8  1  0
  2  1  1  0
  3  4  1  0
  3  2  2  0
  4  5  1  0
  5  1  2  0
  7  6  2  0
  8  9  2  0
  8  7  1  0
  9 10  1  0
 10 11  2  0
 11  6  1  0
 12  4  1  0
 13 12  1  0
 14 13  1  0
 15 14  1  0
 16 15  1  0
 17 16  1  0
 17 18  1  0
 18 19  1  0
 19 14  1  0
  2 20  1  0
  3 21  1  0
  6 22  1  0
  7 23  1  0
 10 24  1  0
 12 25  1  0
 12 26  1  0
 13 27  1  0
 13 28  1  0
 15 29  1  0
 15 30  1  0
 16 31  1  0
 16 32  1  0
 18 33  1  0
 18 34  1  0
 19 35  1  0
 19 36  1  0
M  ISO  8  20  14  21  14  22  14  23  14  24  14  25   8  26   8  27   8
M  ISO  8  28   8  29  13  30  13  31  13  32  13  33  13  34  13  35  13
M  ISO  1  36  13
M  END
>  <minimizedAffinity>  (1) 
-5.19289112

>  <minimizedRMSD>  (1) 
2.82219887

$$$$
