
     RDKit          3D

 46 49  0  0  1  0  0  0  0  0999 V2000
   40.4400   31.8140   44.5650 C   0  0  0  0  0  0  0  0  0  0  0  0
   40.0320   31.8480   43.2040 N   0  0  0  0  0  0  0  0  0  0  0  0
   39.4000   33.0380   42.7860 C   0  0  0  0  0  0  0  0  0  0  0  0
   37.9930   32.9310   42.3390 C   0  0  0  0  0  0  0  0  0  0  0  0
   37.7570   31.7860   41.6080 O   0  0  0  0  0  0  0  0  0  0  0  0
   38.1150   30.6890   42.3110 C   0  0  0  0  0  0  0  0  0  0  0  0
   39.5910   30.6640   42.6180 C   0  0  1  0  0  0  0  0  0  0  0  0
   39.9320   27.4660   42.4440 Cl  0  0  0  0  0  0  0  0  0  0  0  0
   40.6320   28.6470   41.3680 C   0  0  0  0  0  0  0  0  0  0  0  0
   40.3190   29.9380   41.6190 C   0  0  0  0  0  0  0  0  0  0  0  0
   40.9010   30.7940   40.6620 C   0  0  0  0  0  0  0  0  0  0  0  0
   41.6870   30.3750   39.6100 C   0  0  0  0  0  0  0  0  0  0  0  0
   41.9370   29.0320   39.4580 C   0  0  0  0  0  0  0  0  0  0  0  0
   41.4010   28.1370   40.3540 C   0  0  0  0  0  0  0  0  0  0  0  0
   39.7780   32.6820   45.5280 C   0  0  0  0  0  0  0  0  0  0  0  0
   37.6960   31.0000   47.9150 C   0  0  0  0  0  0  0  0  0  0  0  0
   36.9570   30.8130   46.7610 C   0  0  0  0  0  0  0  0  0  0  0  0
   37.6680   31.4290   45.7250 C   0  0  0  0  0  0  0  0  0  0  0  0
   38.7620   31.9410   46.2780 N   0  0  0  0  0  0  0  0  0  0  0  0
   38.7780   31.6840   47.5870 N   0  0  0  0  0  0  0  0  0  0  0  0
   37.4410   30.1600   51.5650 C   0  0  0  0  0  0  0  0  0  0  0  0
   37.9470   30.6960   50.3870 C   0  0  0  0  0  0  0  0  0  0  0  0
   37.2740   30.4940   49.1950 C   0  0  0  0  0  0  0  0  0  0  0  0
   36.1310   29.7580   49.2910 N   0  0  0  0  0  0  0  0  0  0  0  0
   35.6490   29.2440   50.4350 C   0  0  0  0  0  0  0  0  0  0  0  0
   36.3170   29.4520   51.5720 N   0  0  0  0  0  0  0  0  0  0  0  0
   41.5100   32.0683   44.5859 H   0  0  0  0  0  0  0  0  0  0  0  0
   40.1653   30.8011   44.8946 H   0  0  0  0  0  0  0  0  0  0  0  0
   39.4271   33.7423   43.6305 H   0  0  0  0  0  0  0  0  0  0  0  0
   39.9588   33.3602   41.8950 H   0  0  0  0  0  0  0  0  0  0  0  0
   37.3409   32.9247   43.2249 H   0  0  0  0  0  0  0  0  0  0  0  0
   37.7826   33.7925   41.6881 H   0  0  0  0  0  0  0  0  0  0  0  0
   37.5562   30.6778   43.2584 H   0  0  0  0  0  0  0  0  0  0  0  0
   37.8832   29.8055   41.6981 H   0  0  0  0  0  0  0  0  0  0  0  0
   39.8652   30.0243   43.4698 H   0  0  0  0  0  0  0  0  0  0  0  0
   40.7146   31.8735   40.7619 H   0  0  0  0  0  0  0  0  0  0  0  0
   42.1079   31.1046   38.9026 H   0  0  0  0  0  0  0  0  0  0  0  0
   42.5614   28.6756   38.6255 H   0  0  0  0  0  0  0  0  0  0  0  0
   41.5819   27.0560   40.2609 H   0  0  0  0  0  0  0  0  0  0  0  0
   40.5260   33.0803   46.2294 H   0  0  0  0  0  0  0  0  0  0  0  0
   39.2884   33.5043   44.9856 H   0  0  0  0  0  0  0  0  0  0  0  0
   35.9970   30.2831   46.6744 H   0  0  0  0  0  0  0  0  0  0  0  0
   37.3789   31.4792   44.6649 H   0  0  0  0  0  0  0  0  0  0  0  0
   37.9811   30.3250   52.5090 H   0  0  0  0  0  0  0  0  0  0  0  0
   38.8796   31.2791   50.4021 H   0  0  0  0  0  0  0  0  0  0  0  0
   34.7169   28.6599   50.4347 H   0  0  0  0  0  0  0  0  0  0  0  0
  1 15  1  0
  2  1  1  0
  3  2  1  0
  4  3  1  0
  5  6  1  0
  5  4  1  0
  6  7  1  0
  7  2  1  0
  9 10  2  0
  9  8  1  0
 10  7  1  0
 11 10  1  0
 12 11  2  0
 13 12  1  0
 13 14  2  0
 14  9  1  0
 15 19  1  0
 16 23  1  0
 17 16  1  0
 18 19  1  0
 18 17  2  0
 19 20  1  0
 20 16  2  0
 21 26  2  0
 22 21  1  0
 23 24  1  0
 23 22  2  0
 24 25  2  0
 25 26  1  0
  1 27  1  0
  1 28  1  0
  3 29  1  0
  3 30  1  0
  4 31  1  0
  4 32  1  0
  6 33  1  0
  6 34  1  0
  7 35  1  1
 11 36  1  0
 12 37  1  0
 13 38  1  0
 14 39  1  0
 15 40  1  0
 15 41  1  0
 17 42  1  0
 18 43  1  0
 21 44  1  0
 22 45  1  0
 25 46  1  0
M  ISO  8  27   8  28   8  29  13  30  13  31  13  32  13  33  13  34  13
M  ISO  8  35  13  36  14  37  14  38  14  39  14  40   8  41   8  42  14
M  ISO  4  43  14  44  14  45  14  46  14
M  END
>  <minimizedAffinity>  (1) 
-5.94598913

>  <minimizedRMSD>  (1) 
1.0310241

$$$$
