
     RDKit          3D

 49 52  0  0  1  0  0  0  0  0999 V2000
   40.4210   31.7440   44.3230 C   0  0  0  0  0  0  0  0  0  0  0  0
   39.9690   31.9110   43.0120 N   0  0  0  0  0  0  0  0  0  0  0  0
   39.3390   33.0990   42.6810 C   0  0  0  0  0  0  0  0  0  0  0  0
   37.9210   33.0010   42.2460 C   0  0  0  0  0  0  0  0  0  0  0  0
   37.7020   31.9320   41.3970 O   0  0  0  0  0  0  0  0  0  0  0  0
   38.1360   30.7570   41.9700 C   0  0  0  0  0  0  0  0  0  0  0  0
   39.5710   30.7570   42.2670 C   0  0  1  0  0  0  0  0  0  0  0  0
   40.0990   29.4880   40.1270 C   0  0  1  0  0  0  0  0  0  0  0  0
   40.5010   30.5780   41.0740 C   0  0  2  0  0  0  0  0  0  0  0  0
   41.6930   29.9890   41.6040 O   0  0  0  0  0  0  0  0  0  0  0  0
   41.3710   28.6750   41.9030 C   0  0  0  0  0  0  0  0  0  0  0  0
   40.2880   28.2120   40.9590 C   0  0  2  0  0  0  0  0  0  0  0  0
   38.8580   29.4800   39.6040 O   0  0  0  0  0  0  0  0  0  0  0  0
   40.6700   27.1370   40.1740 O   0  0  0  0  0  0  0  0  0  0  0  0
   39.8500   32.5890   45.3570 C   0  0  0  0  0  0  0  0  0  0  0  0
   37.7580   30.9610   47.7760 C   0  0  0  0  0  0  0  0  0  0  0  0
   36.9990   30.8000   46.6330 C   0  0  0  0  0  0  0  0  0  0  0  0
   37.7040   31.3930   45.5860 C   0  0  0  0  0  0  0  0  0  0  0  0
   38.8290   31.8780   46.1130 N   0  0  0  0  0  0  0  0  0  0  0  0
   38.8660   31.6200   47.4340 N   0  0  0  0  0  0  0  0  0  0  0  0
   37.4740   30.2140   51.4480 C   0  0  0  0  0  0  0  0  0  0  0  0
   37.9760   30.7500   50.2640 C   0  0  0  0  0  0  0  0  0  0  0  0
   37.3420   30.4690   49.0650 C   0  0  0  0  0  0  0  0  0  0  0  0
   36.2540   29.6660   49.1580 N   0  0  0  0  0  0  0  0  0  0  0  0
   35.7750   29.1500   50.3090 C   0  0  0  0  0  0  0  0  0  0  0  0
   36.3960   29.4320   51.4480 N   0  0  0  0  0  0  0  0  0  0  0  0
   41.5066   31.9212   44.3191 H   0  0  0  0  0  0  0  0  0  0  0  0
   40.1024   30.7268   44.5945 H   0  0  0  0  0  0  0  0  0  0  0  0
   39.3725   33.7523   43.5653 H   0  0  0  0  0  0  0  0  0  0  0  0
   39.8849   33.4833   41.8068 H   0  0  0  0  0  0  0  0  0  0  0  0
   37.2861   32.8808   43.1362 H   0  0  0  0  0  0  0  0  0  0  0  0
   37.6749   33.9214   41.6962 H   0  0  0  0  0  0  0  0  0  0  0  0
   37.5844   30.6009   42.9088 H   0  0  0  0  0  0  0  0  0  0  0  0
   37.9516   29.9510   41.2445 H   0  0  0  0  0  0  0  0  0  0  0  0
   39.6899   29.8503   42.8784 H   0  0  0  0  0  0  0  0  0  0  0  0
   40.7103   29.6148   39.2213 H   0  0  0  0  0  0  0  0  0  0  0  0
   40.5451   31.5568   40.5740 H   0  0  0  0  0  0  0  0  0  0  0  0
   42.2613   28.0400   41.7840 H   0  0  0  0  0  0  0  0  0  0  0  0
   41.0162   28.6045   42.9418 H   0  0  0  0  0  0  0  0  0  0  0  0
   39.3843   27.8363   41.4611 H   0  0  0  0  0  0  0  0  0  0  0  0
   38.1914   29.4757   40.3360 H   0  0  0  0  0  0  0  0  0  0  0  0
   40.9382   26.3823   40.7559 H   0  0  0  0  0  0  0  0  0  0  0  0
   40.6491   32.9061   46.0432 H   0  0  0  0  0  0  0  0  0  0  0  0
   39.3834   33.4613   44.8760 H   0  0  0  0  0  0  0  0  0  0  0  0
   36.0225   30.2985   46.5621 H   0  0  0  0  0  0  0  0  0  0  0  0
   37.3932   31.4496   44.5323 H   0  0  0  0  0  0  0  0  0  0  0  0
   37.9770   30.4407   52.3996 H   0  0  0  0  0  0  0  0  0  0  0  0
   38.8693   31.3916   50.2813 H   0  0  0  0  0  0  0  0  0  0  0  0
   34.8836   28.5055   50.3037 H   0  0  0  0  0  0  0  0  0  0  0  0
  1 15  1  0
  2  1  1  0
  3  2  1  0
  4  3  1  0
  5  6  1  0
  5  4  1  0
  6  7  1  0
  7  2  1  0
  8 13  1  0
  8 12  1  0
  8  9  1  0
  9 10  1  0
  9  7  1  0
 10 11  1  0
 12 14  1  0
 12 11  1  0
 15 19  1  0
 16 23  1  0
 17 16  1  0
 18 19  1  0
 18 17  2  0
 19 20  1  0
 20 16  2  0
 21 26  2  0
 22 21  1  0
 23 24  1  0
 23 22  2  0
 24 25  2  0
 25 26  1  0
  1 27  1  0
  1 28  1  0
  3 29  1  0
  3 30  1  0
  4 31  1  0
  4 32  1  0
  6 33  1  0
  6 34  1  0
  7 35  1  1
  8 36  1  6
  9 37  1  6
 11 38  1  0
 11 39  1  0
 12 40  1  1
 13 41  1  0
 14 42  1  0
 15 43  1  0
 15 44  1  0
 17 45  1  0
 18 46  1  0
 21 47  1  0
 22 48  1  0
 25 49  1  0
M  ISO  8  27   8  28   8  29  13  30  13  31  13  32  13  33  13  34  13
M  ISO  8  35  13  36  13  37  13  38  13  39  13  40  13  41   3  42   3
M  ISO  7  43   8  44   8  45  14  46  14  47  14  48  14  49  14
M  END
>  <minimizedAffinity>  (1) 
-5.79485035

>  <minimizedRMSD>  (1) 
1.68831944

$$$$
