
     RDKit          3D

 39 41  0  0  1  0  0  0  0  0999 V2000
   39.8320   32.7010   45.5340 C   0  0  0  0  0  0  0  0  0  0  0  0
   37.7310   30.9900   47.8900 C   0  0  0  0  0  0  0  0  0  0  0  0
   37.0340   30.7730   46.7160 C   0  0  0  0  0  0  0  0  0  0  0  0
   37.7570   31.3980   45.6920 C   0  0  0  0  0  0  0  0  0  0  0  0
   38.8230   31.9490   46.2660 N   0  0  0  0  0  0  0  0  0  0  0  0
   38.8170   31.7100   47.5860 N   0  0  0  0  0  0  0  0  0  0  0  0
   37.4030   30.1620   51.5320 C   0  0  0  0  0  0  0  0  0  0  0  0
   37.9290   30.6990   50.3750 C   0  0  0  0  0  0  0  0  0  0  0  0
   37.2870   30.4880   49.1680 C   0  0  0  0  0  0  0  0  0  0  0  0
   36.1640   29.7470   49.2430 N   0  0  0  0  0  0  0  0  0  0  0  0
   35.6510   29.2240   50.3740 C   0  0  0  0  0  0  0  0  0  0  0  0
   36.2810   29.4380   51.5190 N   0  0  0  0  0  0  0  0  0  0  0  0
   40.4720   31.8790   44.5190 C   0  0  0  0  0  0  0  0  0  0  0  0
   40.1480   32.1080   43.1830 N   0  0  0  0  0  0  0  0  0  0  0  0
   39.3170   33.2100   42.9010 C   0  0  0  0  0  0  0  0  0  0  0  0
   38.0000   32.9150   42.2780 C   0  0  0  0  0  0  0  0  0  0  0  0
   38.0840   31.9230   41.2960 O   0  0  0  0  0  0  0  0  0  0  0  0
   38.6820   30.8000   41.7840 C   0  0  0  0  0  0  0  0  0  0  0  0
   40.0650   31.0730   42.2590 C   0  0  2  0  0  0  0  0  0  0  0  0
   40.6280   29.7480   42.7460 C   0  0  0  0  0  0  0  0  0  0  0  0
   39.3529   33.5631   45.0470 H   0  0  0  0  0  0  0  0  0  0  0  0
   40.6012   33.0338   46.2464 H   0  0  0  0  0  0  0  0  0  0  0  0
   36.0917   30.2160   46.6069 H   0  0  0  0  0  0  0  0  0  0  0  0
   37.4950   31.4274   44.6241 H   0  0  0  0  0  0  0  0  0  0  0  0
   37.9200   30.3343   52.4875 H   0  0  0  0  0  0  0  0  0  0  0  0
   38.8546   31.2922   50.4122 H   0  0  0  0  0  0  0  0  0  0  0  0
   34.7256   28.6300   50.3466 H   0  0  0  0  0  0  0  0  0  0  0  0
   41.5578   32.0231   44.6202 H   0  0  0  0  0  0  0  0  0  0  0  0
   40.1005   30.8630   44.7183 H   0  0  0  0  0  0  0  0  0  0  0  0
   39.1265   33.7342   43.8491 H   0  0  0  0  0  0  0  0  0  0  0  0
   39.8648   33.7986   42.1503 H   0  0  0  0  0  0  0  0  0  0  0  0
   37.3061   32.5778   43.0621 H   0  0  0  0  0  0  0  0  0  0  0  0
   37.6446   33.8365   41.7937 H   0  0  0  0  0  0  0  0  0  0  0  0
   38.0859   30.4159   42.6249 H   0  0  0  0  0  0  0  0  0  0  0  0
   38.7392   30.0618   40.9705 H   0  0  0  0  0  0  0  0  0  0  0  0
   40.6834   31.4576   41.4346 H   0  0  0  0  0  0  0  0  0  0  0  0
   40.6339   29.7342   43.8459 H   0  0  0  0  0  0  0  0  0  0  0  0
   40.0022   28.9242   42.3723 H   0  0  0  0  0  0  0  0  0  0  0  0
   41.6554   29.6266   42.3723 H   0  0  0  0  0  0  0  0  0  0  0  0
  1  5  1  0
  2  9  1  0
  3  2  1  0
  4  5  1  0
  4  3  2  0
  5  6  1  0
  6  2  2  0
  8  7  2  0
  9 10  2  0
  9  8  1  0
 10 11  1  0
 11 12  2  0
 12  7  1  0
 13  1  1  0
 14 13  1  0
 15 14  1  0
 16 15  1  0
 17 18  1  0
 17 16  1  0
 18 19  1  0
 19 20  1  0
 19 14  1  0
  1 21  1  0
  1 22  1  0
  3 23  1  0
  4 24  1  0
  7 25  1  0
  8 26  1  0
 11 27  1  0
 13 28  1  0
 13 29  1  0
 15 30  1  0
 15 31  1  0
 16 32  1  0
 16 33  1  0
 18 34  1  0
 18 35  1  0
 19 36  1  6
 20 37  1  0
 20 38  1  0
 20 39  1  0
M  ISO  8  21   8  22   8  23  14  24  14  25  14  26  14  27  14  28   8
M  ISO  8  29   8  30  13  31  13  32  13  33  13  34  13  35  13  36  13
M  ISO  3  37   8  38   8  39   8
M  END
>  <minimizedAffinity>  (1) 
-5.31197357

>  <minimizedRMSD>  (1) 
0.578601658

$$$$
