
     RDKit          3D

 25 26  0  0  1  0  0  0  0  0999 V2000
   36.7050   29.5810   48.8960 N   0  0  0  0  0  0  0  0  0  0  0  0
   37.2940   28.9250   50.0570 C   0  0  0  0  0  0  0  0  0  0  0  0
   37.9900   29.8630   50.9990 C   0  0  1  0  0  0  0  0  0  0  0  0
   38.6160   30.9910   50.4210 N   0  0  0  0  0  0  0  0  0  0  0  0
   37.8120   31.6080   49.3660 C   0  0  0  0  0  0  0  0  0  0  0  0
   37.6190   30.5060   48.3360 C   0  0  0  0  0  0  0  0  0  0  0  0
   35.3920   29.2790   48.4510 C   0  0  0  0  0  0  0  0  0  0  0  0
   34.8010   29.9530   47.3670 C   0  0  0  0  0  0  0  0  0  0  0  0
   33.5060   29.6290   46.9630 C   0  0  0  0  0  0  0  0  0  0  0  0
   32.8680   28.6460   47.6660 N   0  0  0  0  0  0  0  0  0  0  0  0
   33.4740   28.0100   48.7180 C   0  0  0  0  0  0  0  0  0  0  0  0
   34.7050   28.3220   49.0980 N   0  0  0  0  0  0  0  0  0  0  0  0
   37.1360   30.2840   52.0200 O   0  0  0  0  0  0  0  0  0  0  0  0
   36.4922   28.4123   50.6086 H   0  0  0  0  0  0  0  0  0  0  0  0
   38.0575   28.2301   49.6772 H   0  0  0  0  0  0  0  0  0  0  0  0
   38.8110   29.2474   51.3952 H   0  0  0  0  0  0  0  0  0  0  0  0
   38.7817   31.6897   51.1594 H   0  0  0  0  0  0  0  0  0  0  0  0
   36.8422   31.9429   49.7626 H   0  0  0  0  0  0  0  0  0  0  0  0
   38.2971   32.4979   48.9386 H   0  0  0  0  0  0  0  0  0  0  0  0
   38.5786   30.0110   48.1262 H   0  0  0  0  0  0  0  0  0  0  0  0
   37.2386   30.9132   47.3876 H   0  0  0  0  0  0  0  0  0  0  0  0
   35.3613   30.7372   46.8369 H   0  0  0  0  0  0  0  0  0  0  0  0
   33.0211   30.1405   46.1185 H   0  0  0  0  0  0  0  0  0  0  0  0
   32.9270   27.2236   49.2587 H   0  0  0  0  0  0  0  0  0  0  0  0
   37.5464   30.0817   52.8979 H   0  0  0  0  0  0  0  0  0  0  0  0
  1  2  1  0
  2  3  1  0
  3 13  1  0
  4  3  1  0
  5  4  1  0
  6  1  1  0
  6  5  1  0
  7  1  1  0
  7 12  1  0
  8  7  2  0
  9  8  1  0
  9 10  2  0
 10 11  1  0
 11 12  2  0
  2 14  1  0
  2 15  1  0
  3 16  1  1
  4 17  1  0
  5 18  1  0
  5 19  1  0
  6 20  1  0
  6 21  1  0
  8 22  1  0
  9 23  1  0
 11 24  1  0
 13 25  1  0
M  ISO  8  14  13  15  13  16  13  17   5  18  13  19  13  20  13  21  13
M  ISO  4  22  14  23  14  24  14  25   3
M  END
>  <minimizedAffinity>  (1) 
-4.16130257

>  <minimizedRMSD>  (1) 
0.278989613

$$$$
