
     RDKit          3D

 26 27  0  0  1  0  0  0  0  0999 V2000
   36.7020   29.6390   48.8390 N   0  0  0  0  0  0  0  0  0  0  0  0
   37.3600   28.9400   49.9330 C   0  0  0  0  0  0  0  0  0  0  0  0
   38.0610   29.8450   50.8920 C   0  0  1  0  0  0  0  0  0  0  0  0
   38.6050   31.0340   50.3710 N   0  0  0  0  0  0  0  0  0  0  0  0
   37.7640   31.6770   49.3690 C   0  0  0  0  0  0  0  0  0  0  0  0
   37.5630   30.6460   48.2920 C   0  0  0  0  0  0  0  0  0  0  0  0
   35.3790   29.3320   48.4020 C   0  0  0  0  0  0  0  0  0  0  0  0
   34.7610   29.9970   47.3230 C   0  0  0  0  0  0  0  0  0  0  0  0
   33.4690   29.6140   46.9850 C   0  0  0  0  0  0  0  0  0  0  0  0
   32.8640   28.6190   47.7090 N   0  0  0  0  0  0  0  0  0  0  0  0
   33.5010   28.0150   48.7350 C   0  0  0  0  0  0  0  0  0  0  0  0
   34.7450   28.3500   49.0940 N   0  0  0  0  0  0  0  0  0  0  0  0
   37.0820   30.2200   51.9230 N   0  0  0  0  0  0  0  0  0  0  0  0
   36.5999   28.3696   50.4870 H   0  0  0  0  0  0  0  0  0  0  0  0
   38.1278   28.2930   49.4838 H   0  0  0  0  0  0  0  0  0  0  0  0
   38.9286   29.2729   51.2525 H   0  0  0  0  0  0  0  0  0  0  0  0
   38.7461   31.6945   51.1487 H   0  0  0  0  0  0  0  0  0  0  0  0
   36.7981   31.9685   49.8074 H   0  0  0  0  0  0  0  0  0  0  0  0
   38.2267   32.5939   48.9752 H   0  0  0  0  0  0  0  0  0  0  0  0
   38.5288   30.2040   48.0058 H   0  0  0  0  0  0  0  0  0  0  0  0
   37.1210   31.0968   47.3912 H   0  0  0  0  0  0  0  0  0  0  0  0
   35.2832   30.7907   46.7687 H   0  0  0  0  0  0  0  0  0  0  0  0
   32.9409   30.1002   46.1515 H   0  0  0  0  0  0  0  0  0  0  0  0
   32.9805   27.2227   49.2930 H   0  0  0  0  0  0  0  0  0  0  0  0
   37.4893   30.0640   52.8561 H   0  0  0  0  0  0  0  0  0  0  0  0
   36.8363   31.2147   51.8176 H   0  0  0  0  0  0  0  0  0  0  0  0
  1  2  1  0
  2  3  1  0
  3 13  1  0
  4  3  1  0
  5  4  1  0
  6  1  1  0
  6  5  1  0
  7  1  1  0
  7 12  1  0
  8  7  2  0
  9  8  1  0
  9 10  2  0
 10 11  1  0
 11 12  2  0
  2 14  1  0
  2 15  1  0
  3 16  1  1
  4 17  1  0
  5 18  1  0
  5 19  1  0
  6 20  1  0
  6 21  1  0
  8 22  1  0
  9 23  1  0
 11 24  1  0
 13 25  1  0
 13 26  1  0
M  ISO  8  14  13  15  13  16  13  17   5  18  13  19  13  20  13  21  13
M  ISO  5  22  14  23  14  24  14  25   5  26   5
M  END
>  <minimizedAffinity>  (1) 
-3.93277907

>  <minimizedRMSD>  (1) 
0.375650018

$$$$
