
     RDKit          3D

 44 47  0  0  1  0  0  0  0  0999 V2000
   31.5780   29.8630   45.9070 N   0  0  0  0  0  0  0  0  0  0  0  0
   32.9270   30.3540   45.6470 C   0  0  0  0  0  0  0  0  0  0  0  0
   33.8720   29.3300   45.1960 C   0  0  2  0  0  0  0  0  0  0  0  0
   33.7540   28.0720   45.9830 N   0  0  0  0  0  0  0  0  0  0  0  0
   32.3430   27.6510   45.9070 C   0  0  0  0  0  0  0  0  0  0  0  0
   31.6270   28.7030   46.7250 C   0  0  0  0  0  0  0  0  0  0  0  0
   34.7120   30.2140   47.9020 Cl  0  0  0  0  0  0  0  0  0  0  0  0
   35.7680   30.2320   46.4870 C   0  0  0  0  0  0  0  0  0  0  0  0
   35.2350   29.8230   45.2950 C   0  0  0  0  0  0  0  0  0  0  0  0
   35.9470   29.7800   44.0850 C   0  0  0  0  0  0  0  0  0  0  0  0
   37.2830   30.2010   44.1640 C   0  0  0  0  0  0  0  0  0  0  0  0
   37.8350   30.6240   45.3790 C   0  0  0  0  0  0  0  0  0  0  0  0
   37.0750   30.6310   46.5110 C   0  0  0  0  0  0  0  0  0  0  0  0
   37.6040   31.0620   47.7990 C   0  0  0  0  0  0  0  0  0  0  0  0
   37.6950   30.3880   48.9970 C   0  0  0  0  0  0  0  0  0  0  0  0
   38.2480   31.0270   50.0860 C   0  0  0  0  0  0  0  0  0  0  0  0
   38.7150   32.3220   50.0190 C   0  0  0  0  0  0  0  0  0  0  0  0
   38.6310   33.0110   48.8220 C   0  0  0  0  0  0  0  0  0  0  0  0
   38.0740   32.3770   47.7140 C   0  0  0  0  0  0  0  0  0  0  0  0
   30.4200   30.5030   45.3990 C   0  0  0  0  0  0  0  0  0  0  0  0
   29.1300   30.0150   45.6390 C   0  0  0  0  0  0  0  0  0  0  0  0
   28.0510   30.7010   45.1040 C   0  0  0  0  0  0  0  0  0  0  0  0
   28.3080   31.8420   44.3570 N   0  0  0  0  0  0  0  0  0  0  0  0
   29.5710   32.2710   44.1560 C   0  0  0  0  0  0  0  0  0  0  0  0
   30.6080   31.6270   44.6590 N   0  0  0  0  0  0  0  0  0  0  0  0
   32.8658   31.1304   44.8702 H   0  0  0  0  0  0  0  0  0  0  0  0
   33.3113   30.7324   46.6057 H   0  0  0  0  0  0  0  0  0  0  0  0
   33.6245   29.1059   44.1479 H   0  0  0  0  0  0  0  0  0  0  0  0
   34.3629   27.3446   45.5818 H   0  0  0  0  0  0  0  0  0  0  0  0
   31.9867   27.6498   44.8663 H   0  0  0  0  0  0  0  0  0  0  0  0
   32.1762   26.6283   46.2763 H   0  0  0  0  0  0  0  0  0  0  0  0
   32.1821   28.9110   47.6516 H   0  0  0  0  0  0  0  0  0  0  0  0
   30.6198   28.3716   47.0179 H   0  0  0  0  0  0  0  0  0  0  0  0
   35.4902   29.4408   43.1436 H   0  0  0  0  0  0  0  0  0  0  0  0
   37.9062   30.1987   43.2576 H   0  0  0  0  0  0  0  0  0  0  0  0
   38.8843   30.9515   45.4205 H   0  0  0  0  0  0  0  0  0  0  0  0
   37.3312   29.3535   49.0834 H   0  0  0  0  0  0  0  0  0  0  0  0
   38.3190   30.4851   51.0406 H   0  0  0  0  0  0  0  0  0  0  0  0
   39.1499   32.8027   50.9077 H   0  0  0  0  0  0  0  0  0  0  0  0
   38.9989   34.0449   48.7466 H   0  0  0  0  0  0  0  0  0  0  0  0
   38.0026   32.9177   46.7588 H   0  0  0  0  0  0  0  0  0  0  0  0
   28.9760   29.1063   46.2395 H   0  0  0  0  0  0  0  0  0  0  0  0
   27.0209   30.3512   45.2668 H   0  0  0  0  0  0  0  0  0  0  0  0
   29.7410   33.1790   43.5588 H   0  0  0  0  0  0  0  0  0  0  0  0
  1  6  1  0
  2  1  1  0
  3  9  1  0
  3  2  1  0
  3  4  1  0
  5  4  1  0
  5  6  1  0
  8 13  2  0
  8  7  1  0
  9  8  1  0
 10 11  1  0
 10  9  2  0
 11 12  2  0
 12 13  1  0
 13 14  1  0
 14 15  2  0
 15 16  1  0
 17 16  2  0
 18 17  1  0
 19 14  1  0
 19 18  2  0
 20 21  2  0
 20  1  1  0
 22 21  1  0
 23 22  2  0
 24 23  1  0
 24 25  2  0
 25 20  1  0
  2 26  1  0
  2 27  1  0
  3 28  1  6
  4 29  1  0
  5 30  1  0
  5 31  1  0
  6 32  1  0
  6 33  1  0
 10 34  1  0
 11 35  1  0
 12 36  1  0
 15 37  1  0
 16 38  1  0
 17 39  1  0
 18 40  1  0
 19 41  1  0
 21 42  1  0
 22 43  1  0
 24 44  1  0
M  ISO  8  26  13  27  13  28  13  29   5  30  13  31  13  32  13  33  13
M  ISO  8  34  14  35  14  36  14  37  14  38  14  39  14  40  14  41  14
M  ISO  3  42  14  43  14  44  14
M  END
>  <minimizedAffinity>  (1) 
-5.7918644

>  <minimizedRMSD>  (1) 
4.15722036

$$$$
