
     RDKit          3D

 41 44  0  0  1  0  0  0  0  0999 V2000
   31.1410   27.8990   47.4180 N   0  0  0  0  0  0  0  0  0  0  0  0
   32.2340   28.5820   48.1060 C   0  0  0  0  0  0  0  0  0  0  0  0
   33.5150   28.5460   47.4010 C   0  0  2  0  0  0  0  0  0  0  0  0
   33.8090   27.1920   46.8510 N   0  0  0  0  0  0  0  0  0  0  0  0
   32.6600   26.8140   46.0050 C   0  0  0  0  0  0  0  0  0  0  0  0
   31.5540   26.6010   47.0160 C   0  0  0  0  0  0  0  0  0  0  0  0
   35.5660   30.3470   46.2250 Cl  0  0  0  0  0  0  0  0  0  0  0  0
   35.5880   29.7860   47.8980 C   0  0  0  0  0  0  0  0  0  0  0  0
   34.5950   28.9320   48.2930 C   0  0  0  0  0  0  0  0  0  0  0  0
   34.4810   28.4010   49.5880 C   0  0  0  0  0  0  0  0  0  0  0  0
   35.4770   28.7990   50.4910 C   0  0  0  0  0  0  0  0  0  0  0  0
   36.4980   29.6690   50.0950 C   0  0  0  0  0  0  0  0  0  0  0  0
   36.5370   30.1480   48.8090 C   0  0  0  0  0  0  0  0  0  0  0  0
   37.5760   31.0560   48.3470 C   0  0  0  0  0  0  0  0  0  0  0  0
   38.5250   30.7380   47.3780 C   0  0  0  0  0  0  0  0  0  0  0  0
   39.3470   31.7690   47.1640 N   0  0  0  0  0  0  0  0  0  0  0  0
   38.9090   32.7360   48.0040 C   0  0  0  0  0  0  0  0  0  0  0  0
   37.8490   32.3170   48.7170 N   0  0  0  0  0  0  0  0  0  0  0  0
   29.8710   28.4940   47.2240 C   0  0  0  0  0  0  0  0  0  0  0  0
   29.4480   28.9530   45.9720 C   0  0  0  0  0  0  0  0  0  0  0  0
   28.1840   29.5230   45.8640 C   0  0  0  0  0  0  0  0  0  0  0  0
   27.4080   29.6050   47.0120 N   0  0  0  0  0  0  0  0  0  0  0  0
   27.8600   29.1490   48.1950 C   0  0  0  0  0  0  0  0  0  0  0  0
   29.0640   28.6010   48.3130 N   0  0  0  0  0  0  0  0  0  0  0  0
   31.9477   29.6351   48.2436 H   0  0  0  0  0  0  0  0  0  0  0  0
   32.3861   28.0482   49.0557 H   0  0  0  0  0  0  0  0  0  0  0  0
   33.4406   29.2568   46.5648 H   0  0  0  0  0  0  0  0  0  0  0  0
   34.6706   27.2182   46.2871 H   0  0  0  0  0  0  0  0  0  0  0  0
   32.4039   27.6200   45.3016 H   0  0  0  0  0  0  0  0  0  0  0  0
   32.8529   25.9307   45.3784 H   0  0  0  0  0  0  0  0  0  0  0  0
   30.7151   26.0573   46.5570 H   0  0  0  0  0  0  0  0  0  0  0  0
   31.8985   26.0027   47.8724 H   0  0  0  0  0  0  0  0  0  0  0  0
   33.6663   27.7196   49.8743 H   0  0  0  0  0  0  0  0  0  0  0  0
   35.4551   28.4222   51.5242 H   0  0  0  0  0  0  0  0  0  0  0  0
   37.2721   29.9703   50.8161 H   0  0  0  0  0  0  0  0  0  0  0  0
   38.5888   29.7699   46.8597 H   0  0  0  0  0  0  0  0  0  0  0  0
   40.1381   31.8174   46.5062 H   0  0  0  0  0  0  0  0  0  0  0  0
   39.3615   33.7348   48.0918 H   0  0  0  0  0  0  0  0  0  0  0  0
   30.1014   28.8649   45.0915 H   0  0  0  0  0  0  0  0  0  0  0  0
   27.8109   29.8971   44.8992 H   0  0  0  0  0  0  0  0  0  0  0  0
   27.2177   29.2321   49.0841 H   0  0  0  0  0  0  0  0  0  0  0  0
  1  2  1  0
  3  2  1  0
  3  9  1  0
  4  3  1  0
  5  4  1  0
  5  6  1  0
  6  1  1  0
  7  8  1  0
  8  9  2  0
  8 13  1  0
  9 10  1  0
 10 11  2  0
 12 11  1  0
 13 12  2  0
 14 18  1  0
 14 13  1  0
 15 14  2  0
 16 15  1  0
 16 17  1  0
 17 18  2  0
 19  1  1  0
 19 24  1  0
 20 19  2  0
 21 20  1  0
 21 22  2  0
 22 23  1  0
 23 24  2  0
  2 25  1  0
  2 26  1  0
  3 27  1  6
  4 28  1  0
  5 29  1  0
  5 30  1  0
  6 31  1  0
  6 32  1  0
 10 33  1  0
 11 34  1  0
 12 35  1  0
 15 36  1  0
 16 37  1  0
 17 38  1  0
 20 39  1  0
 21 40  1  0
 23 41  1  0
M  ISO  8  25  13  26  13  27  13  28   5  29  13  30  13  31  13  32  13
M  ISO  8  33  14  34  14  35  14  36  14  37   9  38  14  39  14  40  14
M  ISO  1  41  14
M  END
>  <minimizedAffinity>  (1) 
-5.7269969

>  <minimizedRMSD>  (1) 
4.04044628

$$$$
