
     RDKit          3D

 50 54  0  0  1  0  0  0  0  0999 V2000
   31.4540   28.5530   46.7760 N   0  0  0  0  0  0  0  0  0  0  0  0
   32.6490   29.3900   46.7060 C   0  0  0  0  0  0  0  0  0  0  0  0
   33.6860   28.9050   45.7980 C   0  0  2  0  0  0  0  0  0  0  0  0
   33.9020   27.4360   45.9270 N   0  0  0  0  0  0  0  0  0  0  0  0
   32.5920   26.7880   45.7350 C   0  0  0  0  0  0  0  0  0  0  0  0
   31.8230   27.1950   46.9730 C   0  0  0  0  0  0  0  0  0  0  0  0
   35.4710   29.2060   43.4430 Cl  0  0  0  0  0  0  0  0  0  0  0  0
   35.8490   29.8280   45.0500 C   0  0  0  0  0  0  0  0  0  0  0  0
   34.9410   29.5910   46.0470 C   0  0  0  0  0  0  0  0  0  0  0  0
   35.0960   30.0240   47.3750 C   0  0  0  0  0  0  0  0  0  0  0  0
   36.2770   30.7360   47.6390 C   0  0  0  0  0  0  0  0  0  0  0  0
   37.2120   30.9790   46.6250 C   0  0  0  0  0  0  0  0  0  0  0  0
   36.9820   30.5250   45.3550 C   0  0  0  0  0  0  0  0  0  0  0  0
   37.9160   30.7500   44.2600 C   0  0  0  0  0  0  0  0  0  0  0  0
   39.0630   29.9870   44.2630 C   0  0  0  0  0  0  0  0  0  0  0  0
   40.0310   30.0850   43.3030 C   0  0  0  0  0  0  0  0  0  0  0  0
   39.8570   30.9980   42.2700 C   0  0  0  0  0  0  0  0  0  0  0  0
   38.7090   31.7680   42.2580 C   0  0  0  0  0  0  0  0  0  0  0  0
   38.5200   32.6910   41.2260 C   0  0  0  0  0  0  0  0  0  0  0  0
   37.3630   33.4560   41.2270 C   0  0  0  0  0  0  0  0  0  0  0  0
   36.4130   33.3200   42.2210 C   0  0  0  0  0  0  0  0  0  0  0  0
   36.5850   32.4090   43.2550 C   0  0  0  0  0  0  0  0  0  0  0  0
   37.7330   31.6640   43.2330 C   0  0  0  0  0  0  0  0  0  0  0  0
   30.1450   29.0790   46.6690 C   0  0  0  0  0  0  0  0  0  0  0  0
   29.7260   29.8130   45.5540 C   0  0  0  0  0  0  0  0  0  0  0  0
   28.4250   30.2920   45.5270 C   0  0  0  0  0  0  0  0  0  0  0  0
   27.6030   30.0170   46.6110 N   0  0  0  0  0  0  0  0  0  0  0  0
   28.0560   29.3050   47.6640 C   0  0  0  0  0  0  0  0  0  0  0  0
   29.2970   28.8390   47.7050 N   0  0  0  0  0  0  0  0  0  0  0  0
   32.3448   30.3932   46.3729 H   0  0  0  0  0  0  0  0  0  0  0  0
   33.0915   29.3819   47.7131 H   0  0  0  0  0  0  0  0  0  0  0  0
   33.3378   29.1156   44.7760 H   0  0  0  0  0  0  0  0  0  0  0  0
   34.5654   27.1118   45.2089 H   0  0  0  0  0  0  0  0  0  0  0  0
   32.0983   27.1577   44.8242 H   0  0  0  0  0  0  0  0  0  0  0  0
   32.6633   25.6975   45.6093 H   0  0  0  0  0  0  0  0  0  0  0  0
   32.4573   27.0970   47.8664 H   0  0  0  0  0  0  0  0  0  0  0  0
   30.9410   26.5562   47.1276 H   0  0  0  0  0  0  0  0  0  0  0  0
   34.3452   29.8196   48.1525 H   0  0  0  0  0  0  0  0  0  0  0  0
   36.4705   31.1080   48.6560 H   0  0  0  0  0  0  0  0  0  0  0  0
   38.1334   31.5361   46.8502 H   0  0  0  0  0  0  0  0  0  0  0  0
   39.2070   29.2629   45.0785 H   0  0  0  0  0  0  0  0  0  0  0  0
   40.9304   29.4533   43.3473 H   0  0  0  0  0  0  0  0  0  0  0  0
   40.6151   31.1055   41.4802 H   0  0  0  0  0  0  0  0  0  0  0  0
   39.2714   32.8082   40.4312 H   0  0  0  0  0  0  0  0  0  0  0  0
   37.1985   34.1855   40.4203 H   0  0  0  0  0  0  0  0  0  0  0  0
   35.5067   33.9427   42.1929 H   0  0  0  0  0  0  0  0  0  0  0  0
   35.8359   32.2920   44.0520 H   0  0  0  0  0  0  0  0  0  0  0  0
   30.4135   30.0058   44.7172 H   0  0  0  0  0  0  0  0  0  0  0  0
   28.0546   30.8739   44.6701 H   0  0  0  0  0  0  0  0  0  0  0  0
   27.3798   29.1064   48.5086 H   0  0  0  0  0  0  0  0  0  0  0  0
  1  6  1  0
  2  1  1  0
  3  4  1  0
  3  9  1  0
  3  2  1  0
  5  4  1  0
  5  6  1  0
  7  8  1  0
  8 13  2  0
  8  9  1  0
  9 10  2  0
 10 11  1  0
 12 11  2  0
 13 12  1  0
 14 15  2  0
 14 13  1  0
 16 15  1  0
 17 16  2  0
 18 17  1  0
 18 23  2  0
 19 20  2  0
 19 18  1  0
 20 21  1  0
 21 22  2  0
 23 22  1  0
 23 14  1  0
 24  1  1  0
 24 29  1  0
 25 24  2  0
 26 25  1  0
 26 27  2  0
 27 28  1  0
 28 29  2  0
  2 30  1  0
  2 31  1  0
  3 32  1  6
  4 33  1  0
  5 34  1  0
  5 35  1  0
  6 36  1  0
  6 37  1  0
 10 38  1  0
 11 39  1  0
 12 40  1  0
 15 41  1  0
 16 42  1  0
 17 43  1  0
 19 44  1  0
 20 45  1  0
 21 46  1  0
 22 47  1  0
 25 48  1  0
 26 49  1  0
 28 50  1  0
M  ISO  8  30  13  31  13  32  13  33   5  34  13  35  13  36  13  37  13
M  ISO  8  38  14  39  14  40  14  41  14  42  14  43  14  44  14  45  14
M  ISO  5  46  14  47  14  48  14  49  14  50  14
M  END
>  <minimizedAffinity>  (1) 
-5.34978771

>  <minimizedRMSD>  (1) 
6.3074379

$$$$
