
     RDKit          3D

 37 39  0  0  1  0  0  0  0  0999 V2000
   32.8410   30.2370   45.4850 N   0  0  0  0  0  0  0  0  0  0  0  0
   33.4280   30.2620   46.8250 C   0  0  0  0  0  0  0  0  0  0  0  0
   34.8820   30.4240   46.8460 C   0  0  2  0  0  0  0  0  0  0  0  0
   35.5550   29.6560   45.8080 N   0  0  0  0  0  0  0  0  0  0  0  0
   34.9540   29.8740   44.5250 C   0  0  0  0  0  0  0  0  0  0  0  0
   33.5490   29.3230   44.6530 C   0  0  0  0  0  0  0  0  0  0  0  0
   37.4720   31.6960   47.5550 Cl  0  0  0  0  0  0  0  0  0  0  0  0
   36.5740   30.6220   48.6310 C   0  0  0  0  0  0  0  0  0  0  0  0
   35.4070   30.0830   48.1590 C   0  0  0  0  0  0  0  0  0  0  0  0
   34.5820   29.2140   48.8900 C   0  0  0  0  0  0  0  0  0  0  0  0
   35.0380   28.9060   50.1810 C   0  0  0  0  0  0  0  0  0  0  0  0
   36.2300   29.4490   50.6720 C   0  0  0  0  0  0  0  0  0  0  0  0
   36.9760   30.2940   49.8940 C   0  0  0  0  0  0  0  0  0  0  0  0
   38.2460   30.9010   50.3580 C   0  0  0  0  0  0  0  0  0  0  0  0
   31.7200   31.0210   45.1280 C   0  0  0  0  0  0  0  0  0  0  0  0
   31.8310   32.3800   44.8190 C   0  0  0  0  0  0  0  0  0  0  0  0
   30.6830   33.0820   44.4780 C   0  0  0  0  0  0  0  0  0  0  0  0
   29.4810   32.3930   44.4610 N   0  0  0  0  0  0  0  0  0  0  0  0
   29.4270   31.0790   44.7670 C   0  0  0  0  0  0  0  0  0  0  0  0
   30.5110   30.3980   45.0940 N   0  0  0  0  0  0  0  0  0  0  0  0
   32.9807   31.0993   47.3808 H   0  0  0  0  0  0  0  0  0  0  0  0
   33.2151   29.2829   47.2789 H   0  0  0  0  0  0  0  0  0  0  0  0
   35.0891   31.4831   46.6331 H   0  0  0  0  0  0  0  0  0  0  0  0
   36.5439   29.9411   45.7678 H   0  0  0  0  0  0  0  0  0  0  0  0
   35.5098   29.3382   43.7414 H   0  0  0  0  0  0  0  0  0  0  0  0
   34.9573   30.9369   44.2418 H   0  0  0  0  0  0  0  0  0  0  0  0
   33.0723   29.2592   43.6637 H   0  0  0  0  0  0  0  0  0  0  0  0
   33.5520   28.3095   45.0806 H   0  0  0  0  0  0  0  0  0  0  0  0
   33.6466   28.8044   48.4810 H   0  0  0  0  0  0  0  0  0  0  0  0
   34.4494   28.2276   50.8161 H   0  0  0  0  0  0  0  0  0  0  0  0
   36.5696   29.1963   51.6873 H   0  0  0  0  0  0  0  0  0  0  0  0
   38.2672   30.9112   51.4577 H   0  0  0  0  0  0  0  0  0  0  0  0
   39.0940   30.3108   49.9803 H   0  0  0  0  0  0  0  0  0  0  0  0
   38.3194   31.9315   49.9803 H   0  0  0  0  0  0  0  0  0  0  0  0
   32.8088   32.8831   44.8456 H   0  0  0  0  0  0  0  0  0  0  0  0
   30.7262   34.1525   44.2289 H   0  0  0  0  0  0  0  0  0  0  0  0
   28.4561   30.5625   44.7435 H   0  0  0  0  0  0  0  0  0  0  0  0
  1  2  1  0
  2  3  1  0
  3  9  1  0
  4  3  1  0
  5  6  1  0
  5  4  1  0
  6  1  1  0
  7  8  1  0
  8 13  2  0
  9  8  1  0
  9 10  2  0
 10 11  1  0
 11 12  2  0
 13 14  1  0
 13 12  1  0
 15  1  1  0
 16 15  2  0
 17 16  1  0
 18 17  2  0
 18 19  1  0
 19 20  2  0
 20 15  1  0
  2 21  1  0
  2 22  1  0
  3 23  1  6
  4 24  1  0
  5 25  1  0
  5 26  1  0
  6 27  1  0
  6 28  1  0
 10 29  1  0
 11 30  1  0
 12 31  1  0
 14 32  1  0
 14 33  1  0
 14 34  1  0
 16 35  1  0
 17 36  1  0
 19 37  1  0
M  ISO  8  21  13  22  13  23  13  24   5  25  13  26  13  27  13  28  13
M  ISO  8  29  14  30  14  31  14  32   8  33   8  34   8  35  14  36  14
M  ISO  1  37  14
M  END
>  <minimizedAffinity>  (1) 
-5.1239562

>  <minimizedRMSD>  (1) 
1.79575706

$$$$
