
     RDKit          3D

 12 12  0  0  0  0  0  0  0  0999 V2000
   37.2630   30.1820   51.4310 C   0  0  0  0  0  0  0  0  0  0  0  0
   38.0950   30.7560   50.4500 C   0  0  0  0  0  0  0  0  0  0  0  0
   37.8070   30.4950   49.1040 C   0  0  0  0  0  0  0  0  0  0  0  0
   36.7420   29.7010   48.8240 N   0  0  0  0  0  0  0  0  0  0  0  0
   35.9670   29.1670   49.7850 C   0  0  0  0  0  0  0  0  0  0  0  0
   36.2270   29.4070   51.0760 N   0  0  0  0  0  0  0  0  0  0  0  0
   34.8210   28.3140   49.4880 C   0  0  0  0  0  0  0  0  0  0  0  0
   33.6280   28.7110   49.5610 O   0  0  0  0  0  0  0  0  0  0  0  0
   37.4641   30.3705   52.4959 H   0  0  0  0  0  0  0  0  0  0  0  0
   38.9471   31.3915   50.7329 H   0  0  0  0  0  0  0  0  0  0  0  0
   38.4246   30.9202   48.2991 H   0  0  0  0  0  0  0  0  0  0  0  0
   35.0082   27.2731   49.1855 H   0  0  0  0  0  0  0  0  0  0  0  0
  2  1  2  0
  3  2  1  0
  4  3  2  0
  4  5  1  0
  5  6  2  0
  6  1  1  0
  7  8  2  0
  7  5  1  0
  1  9  1  0
  2 10  1  0
  3 11  1  0
  7 12  1  0
M  ISO  4   9  14  10  14  11  14  12   6
M  END
>  <minimizedAffinity>  (1) 
-3.31589007

>  <minimizedRMSD>  (1) 
0.233646214

$$$$
