
     RDKit          3D

 22 23  0  0  0  0  0  0  0  0999 V2000
   34.3770   28.7870   49.2260 C   0  0  0  0  0  0  0  0  0  0  0  0
   33.3520   28.8920   49.9650 O   0  0  0  0  0  0  0  0  0  0  0  0
   33.6200   30.4690   46.9440 Cl  0  0  0  0  0  0  0  0  0  0  0  0
   33.6710   28.7020   46.8700 C   0  0  0  0  0  0  0  0  0  0  0  0
   34.0470   28.0130   48.0250 C   0  0  0  0  0  0  0  0  0  0  0  0
   34.0760   26.6380   47.9310 C   0  0  0  0  0  0  0  0  0  0  0  0
   33.7490   25.9960   46.7550 C   0  0  0  0  0  0  0  0  0  0  0  0
   33.3840   26.7220   45.6430 C   0  0  0  0  0  0  0  0  0  0  0  0
   32.9470   25.9920   44.0930 Cl  0  0  0  0  0  0  0  0  0  0  0  0
   33.3300   28.1020   45.6550 C   0  0  0  0  0  0  0  0  0  0  0  0
   37.1240   30.0140   51.2720 C   0  0  0  0  0  0  0  0  0  0  0  0
   38.0600   30.4770   50.3380 C   0  0  0  0  0  0  0  0  0  0  0  0
   37.7310   30.3600   48.9870 C   0  0  0  0  0  0  0  0  0  0  0  0
   36.5330   29.8090   48.6740 N   0  0  0  0  0  0  0  0  0  0  0  0
   35.6560   29.3750   49.5840 C   0  0  0  0  0  0  0  0  0  0  0  0
   35.9670   29.4860   50.8710 N   0  0  0  0  0  0  0  0  0  0  0  0
   34.3650   26.0424   48.8094 H   0  0  0  0  0  0  0  0  0  0  0  0
   33.7799   24.8976   46.7049 H   0  0  0  0  0  0  0  0  0  0  0  0
   33.0390   28.6875   44.7704 H   0  0  0  0  0  0  0  0  0  0  0  0
   37.3457   30.0868   52.3470 H   0  0  0  0  0  0  0  0  0  0  0  0
   39.0169   30.9156   50.6572 H   0  0  0  0  0  0  0  0  0  0  0  0
   38.4210   30.7035   48.2022 H   0  0  0  0  0  0  0  0  0  0  0  0
  1 15  1  0
  1  2  2  0
  4  3  1  0
  4  5  2  0
  5  1  1  0
  6  5  1  0
  7  6  2  0
  8 10  2  0
  8  7  1  0
  9  8  1  0
 10  4  1  0
 12 11  2  0
 13 12  1  0
 14 13  2  0
 14 15  1  0
 15 16  2  0
 16 11  1  0
  6 17  1  0
  7 18  1  0
 10 19  1  0
 11 20  1  0
 12 21  1  0
 13 22  1  0
M  ISO  6  17  14  18  14  19  14  20  14  21  14  22  14
M  END
>  <minimizedAffinity>  (1) 
-4.30305767

>  <minimizedRMSD>  (1) 
2.34644508

$$$$
