
     RDKit          3D

 32 34  0  0  0  0  0  0  0  0999 V2000
   35.6830   29.9520   50.0870 C   0  0  0  0  0  0  0  0  0  0  0  0
   36.4430   29.6160   51.2020 C   0  0  0  0  0  0  0  0  0  0  0  0
   37.6210   30.3480   50.9780 C   0  0  0  0  0  0  0  0  0  0  0  0
   37.5150   31.0490   49.8040 C   0  0  0  0  0  0  0  0  0  0  0  0
   36.3340   30.7870   49.2920 O   0  0  0  0  0  0  0  0  0  0  0  0
   38.5170   31.9280   49.2170 C   0  0  0  0  0  0  0  0  0  0  0  0
   38.3300   33.3850   49.5750 C   0  0  0  0  0  0  0  0  0  0  0  0
   39.3920   34.0270   48.6920 C   0  0  0  0  0  0  0  0  0  0  0  0
   39.5240   33.1080   47.4850 C   0  0  0  0  0  0  0  0  0  0  0  0
   38.4690   32.0260   47.7050 C   0  0  0  0  0  0  0  0  0  0  0  0
   34.3250   29.4280   49.8470 C   0  0  0  0  0  0  0  0  0  0  0  0
   33.4690   29.5810   50.7360 O   0  0  0  0  0  0  0  0  0  0  0  0
   33.8080   26.7460   47.4350 C   0  0  0  0  0  0  0  0  0  0  0  0
   33.4710   27.4310   46.2680 C   0  0  0  0  0  0  0  0  0  0  0  0
   33.4170   28.8110   46.2900 C   0  0  0  0  0  0  0  0  0  0  0  0
   33.6990   29.4280   47.4640 N   0  0  0  0  0  0  0  0  0  0  0  0
   34.0260   28.7530   48.5970 C   0  0  0  0  0  0  0  0  0  0  0  0
   34.0760   27.4160   48.5620 N   0  0  0  0  0  0  0  0  0  0  0  0
   36.1884   28.9509   52.0403 H   0  0  0  0  0  0  0  0  0  0  0  0
   38.4965   30.3575   51.6439 H   0  0  0  0  0  0  0  0  0  0  0  0
   39.4357   31.4652   49.6066 H   0  0  0  0  0  0  0  0  0  0  0  0
   37.3207   33.7396   49.3191 H   0  0  0  0  0  0  0  0  0  0  0  0
   38.4288   33.6096   50.6473 H   0  0  0  0  0  0  0  0  0  0  0  0
   39.0748   35.0322   48.3775 H   0  0  0  0  0  0  0  0  0  0  0  0
   40.3483   34.1453   49.2226 H   0  0  0  0  0  0  0  0  0  0  0  0
   40.5303   32.6658   47.4423 H   0  0  0  0  0  0  0  0  0  0  0  0
   39.3788   33.6442   46.5356 H   0  0  0  0  0  0  0  0  0  0  0  0
   37.4781   32.3410   47.3461 H   0  0  0  0  0  0  0  0  0  0  0  0
   38.6500   31.0820   47.1701 H   0  0  0  0  0  0  0  0  0  0  0  0
   33.8539   25.6470   47.4291 H   0  0  0  0  0  0  0  0  0  0  0  0
   33.2510   26.8795   45.3420 H   0  0  0  0  0  0  0  0  0  0  0  0
   33.1554   29.3870   45.3901 H   0  0  0  0  0  0  0  0  0  0  0  0
  1  2  2  0
  3  2  1  0
  4  3  2  0
  5  4  1  0
  5  1  1  0
  6  7  1  0
  6  4  1  0
  8  7  1  0
  9 10  1  0
  9  8  1  0
 10  6  1  0
 11  1  1  0
 11 12  2  0
 13 18  2  0
 14 15  2  0
 14 13  1  0
 15 16  1  0
 16 17  2  0
 17 11  1  0
 18 17  1  0
  2 19  1  0
  3 20  1  0
  6 21  1  0
  7 22  1  0
  7 23  1  0
  8 24  1  0
  8 25  1  0
  9 26  1  0
  9 27  1  0
 10 28  1  0
 10 29  1  0
 13 30  1  0
 14 31  1  0
 15 32  1  0
M  ISO  8  19  14  20  14  21  13  22  13  23  13  24  13  25  13  26  13
M  ISO  6  27  13  28  13  29  13  30  14  31  14  32  14
M  END
>  <minimizedAffinity>  (1) 
-5.66592979

>  <minimizedRMSD>  (1) 
2.18353128

$$$$
