
     RDKit          3D

 22 23  0  0  0  0  0  0  0  0999 V2000
   35.2170   30.3550   49.0230 C   0  0  0  0  0  0  0  0  0  0  0  0
   34.4300   29.9910   49.9390 O   0  0  0  0  0  0  0  0  0  0  0  0
   33.1940   30.0600   46.0210 C   0  0  0  0  0  0  0  0  0  0  0  0
   34.1360   29.9990   44.9980 C   0  0  0  0  0  0  0  0  0  0  0  0
   35.4960   30.0580   45.3340 C   0  0  0  0  0  0  0  0  0  0  0  0
   35.7990   30.1730   46.6490 N   0  0  0  0  0  0  0  0  0  0  0  0
   34.8650   30.2300   47.6100 C   0  0  0  0  0  0  0  0  0  0  0  0
   33.5670   30.1730   47.2940 N   0  0  0  0  0  0  0  0  0  0  0  0
   36.5120   30.9130   49.4150 C   0  0  0  0  0  0  0  0  0  0  0  0
   37.4280   30.2630   50.2220 C   0  0  0  0  0  0  0  0  0  0  0  0
   38.4810   31.1820   50.3040 C   0  0  0  0  0  0  0  0  0  0  0  0
   38.1570   32.3040   49.5680 C   0  0  0  0  0  0  0  0  0  0  0  0
   36.9690   32.1000   49.0520 O   0  0  0  0  0  0  0  0  0  0  0  0
   38.9920   33.5320   49.3810 C   0  0  0  0  0  0  0  0  0  0  0  0
   32.1232   30.0141   45.7734 H   0  0  0  0  0  0  0  0  0  0  0  0
   33.8202   29.9065   43.9484 H   0  0  0  0  0  0  0  0  0  0  0  0
   36.2810   30.0129   44.5647 H   0  0  0  0  0  0  0  0  0  0  0  0
   37.3487   29.2685   50.6854 H   0  0  0  0  0  0  0  0  0  0  0  0
   39.4158   31.0339   50.8645 H   0  0  0  0  0  0  0  0  0  0  0  0
   39.2694   33.9400   50.3642 H   0  0  0  0  0  0  0  0  0  0  0  0
   39.9028   33.2742   48.8207 H   0  0  0  0  0  0  0  0  0  0  0  0
   38.4174   34.2843   48.8207 H   0  0  0  0  0  0  0  0  0  0  0  0
  1  9  1  0
  1  2  2  0
  3  8  2  0
  4  5  2  0
  4  3  1  0
  5  6  1  0
  6  7  2  0
  7  1  1  0
  8  7  1  0
  9 10  2  0
 10 11  1  0
 12 11  2  0
 13  9  1  0
 13 12  1  0
 14 12  1  0
  3 15  1  0
  4 16  1  0
  5 17  1  0
 10 18  1  0
 11 19  1  0
 14 20  1  0
 14 21  1  0
 14 22  1  0
M  ISO  8  15  14  16  14  17  14  18  14  19  14  20   8  21   8  22   8
M  END
>  <minimizedAffinity>  (1) 
-4.45454645

>  <minimizedRMSD>  (1) 
0.183552295

$$$$
