
     RDKit          3D

 45 50  0  0  0  0  0  0  0  0999 V2000
   34.2160   29.3410   49.8760 C   0  0  0  0  0  0  0  0  0  0  0  0
   33.6340   29.6720   50.9240 O   0  0  0  0  0  0  0  0  0  0  0  0
   31.7670   27.2200   48.2160 C   0  0  0  0  0  0  0  0  0  0  0  0
   32.2940   27.0690   46.9370 C   0  0  0  0  0  0  0  0  0  0  0  0
   33.4790   27.6850   46.6290 C   0  0  0  0  0  0  0  0  0  0  0  0
   34.0890   28.4130   47.5790 N   0  0  0  0  0  0  0  0  0  0  0  0
   33.5630   28.5540   48.8330 C   0  0  0  0  0  0  0  0  0  0  0  0
   32.4070   27.9500   49.1260 N   0  0  0  0  0  0  0  0  0  0  0  0
   34.6400   28.7680   44.7860 C   0  0  0  0  0  0  0  0  0  0  0  0
   34.1310   27.6030   45.3260 C   0  0  0  0  0  0  0  0  0  0  0  0
   34.2670   26.4330   44.6080 C   0  0  0  0  0  0  0  0  0  0  0  0
   34.8990   26.4480   43.3820 C   0  0  0  0  0  0  0  0  0  0  0  0
   35.1480   25.4530   42.5110 N   0  0  0  0  0  0  0  0  0  0  0  0
   35.7940   25.9260   41.4340 C   0  0  0  0  0  0  0  0  0  0  0  0
   35.9570   27.2420   41.6270 N   0  0  0  0  0  0  0  0  0  0  0  0
   35.4150   27.6010   42.8220 C   0  0  0  0  0  0  0  0  0  0  0  0
   35.2820   28.7880   43.5420 C   0  0  0  0  0  0  0  0  0  0  0  0
   35.6070   29.7680   49.6960 C   0  0  0  0  0  0  0  0  0  0  0  0
   36.5810   29.6630   50.6750 C   0  0  0  0  0  0  0  0  0  0  0  0
   37.7100   30.1840   50.0490 C   0  0  0  0  0  0  0  0  0  0  0  0
   37.3890   30.5680   48.7720 C   0  0  0  0  0  0  0  0  0  0  0  0
   36.1070   30.3000   48.5940 O   0  0  0  0  0  0  0  0  0  0  0  0
   38.7630   32.4350   47.9820 C   0  0  0  0  0  0  0  0  0  0  0  0
   38.2720   31.1610   47.7740 C   0  0  0  0  0  0  0  0  0  0  0  0
   38.5960   30.4360   46.6470 C   0  0  0  0  0  0  0  0  0  0  0  0
   39.4380   30.9750   45.6740 C   0  0  0  0  0  0  0  0  0  0  0  0
   39.9250   30.5340   44.5030 N   0  0  0  0  0  0  0  0  0  0  0  0
   40.6910   31.5120   44.0110 N   0  0  0  0  0  0  0  0  0  0  0  0
   40.6900   32.5670   44.8660 C   0  0  0  0  0  0  0  0  0  0  0  0
   39.8940   32.2490   45.9410 C   0  0  0  0  0  0  0  0  0  0  0  0
   39.6120   33.0230   47.0370 C   0  0  0  0  0  0  0  0  0  0  0  0
   30.8157   26.7330   48.4763 H   0  0  0  0  0  0  0  0  0  0  0  0
   31.7673   26.4641   46.1842 H   0  0  0  0  0  0  0  0  0  0  0  0
   34.5380   29.7071   45.3496 H   0  0  0  0  0  0  0  0  0  0  0  0
   33.8720   25.4894   45.0126 H   0  0  0  0  0  0  0  0  0  0  0  0
   34.8807   24.4682   42.6510 H   0  0  0  0  0  0  0  0  0  0  0  0
   36.1259   25.3452   40.5608 H   0  0  0  0  0  0  0  0  0  0  0  0
   35.6777   29.7308   43.1364 H   0  0  0  0  0  0  0  0  0  0  0  0
   36.4859   29.2656   51.6963 H   0  0  0  0  0  0  0  0  0  0  0  0
   38.7058   30.2738   50.5077 H   0  0  0  0  0  0  0  0  0  0  0  0
   38.4865   32.9884   48.8915 H   0  0  0  0  0  0  0  0  0  0  0  0
   38.1870   29.4236   46.5138 H   0  0  0  0  0  0  0  0  0  0  0  0
   39.7431   29.6183   44.0679 H   0  0  0  0  0  0  0  0  0  0  0  0
   41.2326   33.5131   44.7231 H   0  0  0  0  0  0  0  0  0  0  0  0
   40.0239   34.0349   47.1648 H   0  0  0  0  0  0  0  0  0  0  0  0
  1  2  2  0
  3  8  2  0
  4  3  1  0
  5  4  2  0
  5  6  1  0
  6  7  2  0
  7  8  1  0
  7  1  1  0
  9 10  2  0
 10  5  1  0
 11 10  1  0
 12 11  2  0
 13 12  1  0
 14 15  2  0
 14 13  1  0
 15 16  1  0
 16 12  1  0
 16 17  2  0
 17  9  1  0
 18  1  1  0
 18 19  2  0
 20 19  1  0
 21 20  2  0
 22 21  1  0
 22 18  1  0
 24 23  2  0
 24 21  1  0
 25 24  1  0
 26 30  1  0
 26 25  2  0
 27 26  1  0
 28 27  1  0
 28 29  2  0
 29 30  1  0
 30 31  2  0
 31 23  1  0
  3 32  1  0
  4 33  1  0
  9 34  1  0
 11 35  1  0
 13 36  1  0
 14 37  1  0
 17 38  1  0
 19 39  1  0
 20 40  1  0
 23 41  1  0
 25 42  1  0
 27 43  1  0
 29 44  1  0
 31 45  1  0
M  ISO  8  32  14  33  14  34  14  35  14  36   9  37  14  38  14  39  14
M  ISO  6  40  14  41  14  42  14  43   9  44  14  45  14
M  END
>  <minimizedAffinity>  (1) 
-6.8202014

>  <minimizedRMSD>  (1) 
2.00579381

$$$$
