
     RDKit          3D

 43 46  0  0  1  0  0  0  0  0999 V2000
   32.1910   29.5950   45.9480 C   0  0  0  0  0  0  0  0  0  0  0  0
   31.6340   29.3720   44.7140 C   0  0  0  0  0  0  0  0  0  0  0  0
   30.7310   28.3900   44.7960 N   0  0  0  0  0  0  0  0  0  0  0  0
   30.6900   27.9650   46.0800 C   0  0  0  0  0  0  0  0  0  0  0  0
   31.5830   28.7070   46.7670 N   0  0  0  0  0  0  0  0  0  0  0  0
   33.1650   30.5100   46.3480 O   0  0  0  0  0  0  0  0  0  0  0  0
   35.7330   30.1860   46.3810 O   0  0  0  0  0  0  0  0  0  0  0  0
   34.4970   29.8870   47.2050 P   0  0  2  0  0  0  0  0  0  0  0  0
   34.3030   28.2110   47.4560 O   0  0  0  0  0  0  0  0  0  0  0  0
   34.5560   30.5980   48.7550 O   0  0  0  0  0  0  0  0  0  0  0  0
   35.6680   30.4710   49.5840 C   0  0  0  0  0  0  0  0  0  0  0  0
   35.8170   29.5180   50.5930 C   0  0  0  0  0  0  0  0  0  0  0  0
   36.9920   29.5330   51.3240 C   0  0  0  0  0  0  0  0  0  0  0  0
   37.9500   30.4490   51.0550 N   0  0  0  0  0  0  0  0  0  0  0  0
   37.7700   31.3790   50.0480 C   0  0  0  0  0  0  0  0  0  0  0  0
   36.6230   31.3650   49.3330 N   0  0  0  0  0  0  0  0  0  0  0  0
   29.8020   26.8820   46.5560 C   0  0  0  0  0  0  0  0  0  0  0  0
   29.0550   27.2590   47.7850 C   0  0  0  0  0  0  0  0  0  0  0  0
   27.9030   27.9040   47.7760 C   0  0  0  0  0  0  0  0  0  0  0  0
   27.1900   28.2650   48.9470 N   0  0  0  0  0  0  0  0  0  0  0  0
   26.0410   28.5070   49.7450 C   0  0  0  0  0  0  0  0  0  0  0  0
   24.8250   28.4960   49.3770 O   0  0  0  0  0  0  0  0  0  0  0  0
   26.7770   28.7400   50.9890 C   0  0  0  0  0  0  0  0  0  0  0  0
   27.9830   28.6300   50.1350 C   0  0  1  0  0  0  0  0  0  0  0  0
   28.8650   27.0630   50.5160 S   0  0  0  0  0  0  0  0  0  0  0  0
   29.7950   26.8050   48.9840 C   0  0  0  0  0  0  0  0  0  0  0  0
   27.3160   28.2740   46.4970 C   0  0  0  0  0  0  0  0  0  0  0  0
   26.6890   29.3450   46.2920 O   0  0  0  0  0  0  0  0  0  0  0  0
   26.8850   28.3300   45.1870 O   0  0  0  0  0  0  0  0  0  0  0  0
   31.8919   29.9192   43.7953 H   0  0  0  0  0  0  0  0  0  0  0  0
   30.1654   28.0213   44.0181 H   0  0  0  0  0  0  0  0  0  0  0  0
   34.2813   28.0232   48.4278 H   0  0  0  0  0  0  0  0  0  0  0  0
   35.0276   28.7804   50.8000 H   0  0  0  0  0  0  0  0  0  0  0  0
   37.1474   28.7972   52.1268 H   0  0  0  0  0  0  0  0  0  0  0  0
   38.5515   32.1221   49.8311 H   0  0  0  0  0  0  0  0  0  0  0  0
   29.0786   26.6441   45.7622 H   0  0  0  0  0  0  0  0  0  0  0  0
   30.4329   26.0147   46.8004 H   0  0  0  0  0  0  0  0  0  0  0  0
   26.6175   29.7253   51.4512 H   0  0  0  0  0  0  0  0  0  0  0  0
   26.6267   28.1407   51.8991 H   0  0  0  0  0  0  0  0  0  0  0  0
   28.6953   29.4681   50.1532 H   0  0  0  0  0  0  0  0  0  0  0  0
   30.0105   25.7314   48.8793 H   0  0  0  0  0  0  0  0  0  0  0  0
   30.7180   27.3997   49.0506 H   0  0  0  0  0  0  0  0  0  0  0  0
   26.3733   29.1149   44.8674 H   0  0  0  0  0  0  0  0  0  0  0  0
  1  6  1  0
  1  5  1  0
  2  3  1  0
  2  1  2  0
  3  4  1  0
  4 17  1  0
  4  5  2  0
  6  8  1  0
  8  7  2  0
  8  9  1  0
  8 10  1  0
 10 11  1  0
 11 12  2  0
 12 13  1  0
 14 13  2  0
 15 14  1  0
 16 11  1  0
 16 15  2  0
 17 18  1  0
 18 26  1  0
 19 18  2  0
 19 20  1  0
 20 21  1  0
 20 24  1  0
 21 23  1  0
 22 21  2  0
 24 25  1  0
 24 23  1  0
 26 25  1  0
 27 19  1  0
 28 27  2  0
 29 27  1  0
  2 30  1  0
  3 31  1  0
  9 32  1  0
 12 33  1  0
 13 34  1  0
 15 35  1  0
 17 36  1  0
 17 37  1  0
 23 38  1  0
 23 39  1  0
 24 40  1  6
 26 41  1  0
 26 42  1  0
 29 43  1  0
M  ISO  8  30  14  31   9  32   3  33  14  34  14  35  14  36   8  37   8
M  ISO  6  38  13  39  13  40  13  41  13  42  13  43   3
M  END
>  <minimizedAffinity>  (1) 
-5.70981741

>  <minimizedRMSD>  (1) 
1.34143806

$$$$
