
     RDKit          3D

 38 42  0  0  0  0  0  0  0  0999 V2000
   35.6040   29.6850   49.6700 C   0  0  0  0  0  0  0  0  0  0  0  0
   36.5990   29.5000   50.6070 C   0  0  0  0  0  0  0  0  0  0  0  0
   37.7260   30.0530   50.0100 C   0  0  0  0  0  0  0  0  0  0  0  0
   37.3820   30.5360   48.7750 C   0  0  0  0  0  0  0  0  0  0  0  0
   36.0980   30.2970   48.6040 O   0  0  0  0  0  0  0  0  0  0  0  0
   38.7840   32.4450   48.1160 C   0  0  0  0  0  0  0  0  0  0  0  0
   38.2540   31.1980   47.8050 C   0  0  0  0  0  0  0  0  0  0  0  0
   38.5250   30.5650   46.6050 C   0  0  0  0  0  0  0  0  0  0  0  0
   39.3500   31.1770   45.6700 C   0  0  0  0  0  0  0  0  0  0  0  0
   39.7970   30.8350   44.4470 N   0  0  0  0  0  0  0  0  0  0  0  0
   40.5730   31.8360   44.0210 N   0  0  0  0  0  0  0  0  0  0  0  0
   40.6280   32.8090   44.9540 C   0  0  0  0  0  0  0  0  0  0  0  0
   39.8520   32.4150   46.0280 C   0  0  0  0  0  0  0  0  0  0  0  0
   39.6180   33.0890   47.1980 C   0  0  0  0  0  0  0  0  0  0  0  0
   34.2250   29.2690   49.8290 C   0  0  0  0  0  0  0  0  0  0  0  0
   33.6250   29.5830   50.8840 O   0  0  0  0  0  0  0  0  0  0  0  0
   31.7470   27.2050   48.1240 C   0  0  0  0  0  0  0  0  0  0  0  0
   32.2800   27.0670   46.8580 C   0  0  0  0  0  0  0  0  0  0  0  0
   33.4930   27.6680   46.5420 C   0  0  0  0  0  0  0  0  0  0  0  0
   34.0750   28.3660   47.5400 N   0  0  0  0  0  0  0  0  0  0  0  0
   33.5570   28.5020   48.7760 C   0  0  0  0  0  0  0  0  0  0  0  0
   32.3890   27.9100   49.0470 N   0  0  0  0  0  0  0  0  0  0  0  0
   34.0830   27.5350   45.1980 C   0  0  0  0  0  0  0  0  0  0  0  0
   34.0470   26.3960   44.5040 C   0  0  0  0  0  0  0  0  0  0  0  0
   34.9220   26.7900   42.9100 S   0  0  0  0  0  0  0  0  0  0  0  0
   35.1910   28.5640   43.5390 C   0  0  0  0  0  0  0  0  0  0  0  0
   34.6930   28.4720   44.5340 N   0  0  0  0  0  0  0  0  0  0  0  0
   36.5193   29.0255   51.5962 H   0  0  0  0  0  0  0  0  0  0  0  0
   38.7304   30.0958   50.4565 H   0  0  0  0  0  0  0  0  0  0  0  0
   38.5483   32.9219   49.0788 H   0  0  0  0  0  0  0  0  0  0  0  0
   38.0877   29.5784   46.3917 H   0  0  0  0  0  0  0  0  0  0  0  0
   39.5817   29.9666   43.9366 H   0  0  0  0  0  0  0  0  0  0  0  0
   41.1914   33.7504   44.8741 H   0  0  0  0  0  0  0  0  0  0  0  0
   40.0593   34.0758   47.4019 H   0  0  0  0  0  0  0  0  0  0  0  0
   30.7862   26.7286   48.3687 H   0  0  0  0  0  0  0  0  0  0  0  0
   31.7437   26.4802   46.0977 H   0  0  0  0  0  0  0  0  0  0  0  0
   33.5997   25.4377   44.8067 H   0  0  0  0  0  0  0  0  0  0  0  0
   35.6881   29.4231   43.0649 H   0  0  0  0  0  0  0  0  0  0  0  0
  1 15  1  0
  1  2  2  0
  3  2  1  0
  4  3  2  0
  5  4  1  0
  5  1  1  0
  7  6  2  0
  7  4  1  0
  8  7  1  0
  9 13  1  0
  9  8  2  0
 10  9  1  0
 11 10  1  0
 11 12  2  0
 12 13  1  0
 13 14  2  0
 14  6  1  0
 15 16  2  0
 17 22  2  0
 18 17  1  0
 19 18  2  0
 19 20  1  0
 20 21  2  0
 21 22  1  0
 21 15  1  0
 23 19  1  0
 24 23  2  0
 25 26  1  0
 25 24  1  0
 26 27  2  0
 27 23  1  0
  2 28  1  0
  3 29  1  0
  6 30  1  0
  8 31  1  0
 10 32  1  0
 12 33  1  0
 14 34  1  0
 17 35  1  0
 18 36  1  0
 24 37  1  0
 26 38  1  0
M  ISO  8  28  14  29  14  30  14  31  14  32   9  33  14  34  14  35  14
M  ISO  3  36  14  37  14  38  14
M  END
>  <minimizedAffinity>  (1) 
-6.42971706

>  <minimizedRMSD>  (1) 
1.48191273

$$$$
