
     RDKit          3D

 39 43  0  0  0  0  0  0  0  0999 V2000
   35.5120   29.5450   49.6540 C   0  0  0  0  0  0  0  0  0  0  0  0
   36.5420   29.1760   50.5020 C   0  0  0  0  0  0  0  0  0  0  0  0
   37.6750   29.6820   49.8660 C   0  0  0  0  0  0  0  0  0  0  0  0
   37.3040   30.3090   48.7100 C   0  0  0  0  0  0  0  0  0  0  0  0
   35.9990   30.2110   48.6080 O   0  0  0  0  0  0  0  0  0  0  0  0
   38.5930   32.2670   47.9940 C   0  0  0  0  0  0  0  0  0  0  0  0
   38.1710   30.9770   47.7400 C   0  0  0  0  0  0  0  0  0  0  0  0
   38.5440   30.2950   46.5930 C   0  0  0  0  0  0  0  0  0  0  0  0
   39.3660   30.9140   45.6620 C   0  0  0  0  0  0  0  0  0  0  0  0
   39.8960   30.5330   44.4730 N   0  0  0  0  0  0  0  0  0  0  0  0
   40.6160   31.5680   44.0300 N   0  0  0  0  0  0  0  0  0  0  0  0
   40.5510   32.5810   44.9040 C   0  0  0  0  0  0  0  0  0  0  0  0
   39.7590   32.1930   45.9580 C   0  0  0  0  0  0  0  0  0  0  0  0
   39.4230   32.9270   47.0830 C   0  0  0  0  0  0  0  0  0  0  0  0
   34.1130   29.2410   49.8870 C   0  0  0  0  0  0  0  0  0  0  0  0
   33.5220   29.8270   50.8210 O   0  0  0  0  0  0  0  0  0  0  0  0
   31.4330   27.2220   48.4600 C   0  0  0  0  0  0  0  0  0  0  0  0
   32.0790   26.4660   47.4810 C   0  0  0  0  0  0  0  0  0  0  0  0
   33.4270   26.6480   47.3120 C   0  0  0  0  0  0  0  0  0  0  0  0
   34.0780   27.5350   48.0800 N   0  0  0  0  0  0  0  0  0  0  0  0
   33.4320   28.2700   49.0360 C   0  0  0  0  0  0  0  0  0  0  0  0
   32.1100   28.0910   49.2020 N   0  0  0  0  0  0  0  0  0  0  0  0
   34.1120   25.8610   46.2900 C   0  0  0  0  0  0  0  0  0  0  0  0
   34.3280   26.1430   44.9590 C   0  0  0  0  0  0  0  0  0  0  0  0
   35.0160   25.1070   44.4080 N   0  0  0  0  0  0  0  0  0  0  0  0
   35.2300   24.1830   45.3880 C   0  0  0  0  0  0  0  0  0  0  0  0
   34.6750   24.6640   46.5060 N   0  0  0  0  0  0  0  0  0  0  0  0
   36.4814   28.6186   51.4484 H   0  0  0  0  0  0  0  0  0  0  0  0
   38.7065   29.5907   50.2370 H   0  0  0  0  0  0  0  0  0  0  0  0
   38.2753   32.7767   48.9156 H   0  0  0  0  0  0  0  0  0  0  0  0
   38.1902   29.2677   46.4212 H   0  0  0  0  0  0  0  0  0  0  0  0
   39.7686   29.6249   44.0040 H   0  0  0  0  0  0  0  0  0  0  0  0
   41.0469   33.5569   44.7965 H   0  0  0  0  0  0  0  0  0  0  0  0
   39.7825   33.9534   47.2477 H   0  0  0  0  0  0  0  0  0  0  0  0
   30.3517   27.0969   48.6189 H   0  0  0  0  0  0  0  0  0  0  0  0
   31.5230   25.7454   46.8633 H   0  0  0  0  0  0  0  0  0  0  0  0
   34.0001   27.0510   44.4318 H   0  0  0  0  0  0  0  0  0  0  0  0
   35.3206   25.0335   43.4268 H   0  0  0  0  0  0  0  0  0  0  0  0
   35.7585   23.2244   45.2797 H   0  0  0  0  0  0  0  0  0  0  0  0
  1 15  1  0
  1  2  2  0
  3  2  1  0
  4  3  2  0
  5  4  1  0
  5  1  1  0
  7  6  2  0
  7  4  1  0
  8  7  1  0
  9 13  1  0
  9  8  2  0
 10  9  1  0
 11 10  1  0
 11 12  2  0
 12 13  1  0
 13 14  2  0
 14  6  1  0
 15 16  2  0
 17 22  2  0
 18 17  1  0
 19 18  2  0
 19 20  1  0
 20 21  2  0
 21 22  1  0
 21 15  1  0
 23 27  1  0
 23 19  1  0
 24 23  2  0
 25 24  1  0
 25 26  1  0
 26 27  2  0
  2 28  1  0
  3 29  1  0
  6 30  1  0
  8 31  1  0
 10 32  1  0
 12 33  1  0
 14 34  1  0
 17 35  1  0
 18 36  1  0
 24 37  1  0
 25 38  1  0
 26 39  1  0
M  ISO  8  28  14  29  14  30  14  31  14  32   9  33  14  34  14  35  14
M  ISO  4  36  14  37  14  38   9  39  14
M  END
>  <minimizedAffinity>  (1) 
-6.42727852

>  <minimizedRMSD>  (1) 
0.423841774

$$$$
