
     RDKit          3D

 33 35  0  0  1  0  0  0  0  0999 V2000
   38.9540   32.7210   45.4630 C   0  0  2  0  0  0  0  0  0  0  0  0
   40.3350   32.8250   45.9110 C   0  0  0  0  0  0  0  0  0  0  0  0
   39.4820   31.5660   46.1730 C   0  0  1  0  0  0  0  0  0  0  0  0
   37.7830   30.8410   47.8110 C   0  0  0  0  0  0  0  0  0  0  0  0
   37.0720   30.4140   46.8680 O   0  0  0  0  0  0  0  0  0  0  0  0
   39.0810   31.4210   47.5760 N   0  0  0  0  0  0  0  0  0  0  0  0
   37.3940   30.8000   49.1890 N   0  0  0  0  0  0  0  0  0  0  0  0
   38.0950   30.6880   50.4540 C   0  0  0  0  0  0  0  0  0  0  0  0
   37.3760   29.6870   51.3020 C   0  0  0  0  0  0  0  0  0  0  0  0
   35.9920   29.6580   50.6870 C   0  0  0  0  0  0  0  0  0  0  0  0
   36.0600   30.8650   49.7620 C   0  0  0  0  0  0  0  0  0  0  0  0
   36.9450   32.3770   42.3780 C   0  0  0  0  0  0  0  0  0  0  0  0
   37.9460   32.3390   41.3680 C   0  0  0  0  0  0  0  0  0  0  0  0
   39.3170   32.4330   41.7880 C   0  0  0  0  0  0  0  0  0  0  0  0
   39.5890   32.5540   43.1040 N   0  0  0  0  0  0  0  0  0  0  0  0
   38.5840   32.5870   44.0220 C   0  0  0  0  0  0  0  0  0  0  0  0
   37.2660   32.5010   43.6890 N   0  0  0  0  0  0  0  0  0  0  0  0
   38.0865   33.3831   45.6007 H   0  0  0  0  0  0  0  0  0  0  0  0
   41.1590   32.7962   45.1828 H   0  0  0  0  0  0  0  0  0  0  0  0
   40.9144   33.5284   46.5270 H   0  0  0  0  0  0  0  0  0  0  0  0
   39.5416   30.4885   45.9597 H   0  0  0  0  0  0  0  0  0  0  0  0
   39.6927   31.7171   48.3500 H   0  0  0  0  0  0  0  0  0  0  0  0
   39.1280   30.3533   50.2785 H   0  0  0  0  0  0  0  0  0  0  0  0
   38.1219   31.6642   50.9603 H   0  0  0  0  0  0  0  0  0  0  0  0
   37.8567   28.6994   51.2426 H   0  0  0  0  0  0  0  0  0  0  0  0
   37.3719   29.9451   52.3713 H   0  0  0  0  0  0  0  0  0  0  0  0
   35.8188   28.7280   50.1256 H   0  0  0  0  0  0  0  0  0  0  0  0
   35.1703   29.6922   51.4175 H   0  0  0  0  0  0  0  0  0  0  0  0
   35.9235   31.7984   50.3278 H   0  0  0  0  0  0  0  0  0  0  0  0
   35.2711   30.8536   48.9955 H   0  0  0  0  0  0  0  0  0  0  0  0
   35.8863   32.3041   42.0885 H   0  0  0  0  0  0  0  0  0  0  0  0
   37.6804   32.2413   40.3050 H   0  0  0  0  0  0  0  0  0  0  0  0
   40.1312   32.4067   41.0489 H   0  0  0  0  0  0  0  0  0  0  0  0
  1  2  1  0
  1  3  1  0
  2  3  1  0
  3  6  1  0
  4  7  1  0
  5  4  2  0
  6  4  1  0
  7 11  1  0
  7  8  1  0
  8  9  1  0
 10  9  1  0
 11 10  1  0
 12 17  2  0
 13 14  2  0
 13 12  1  0
 14 15  1  0
 15 16  2  0
 16  1  1  0
 17 16  1  0
  1 18  1  1
  2 19  1  0
  2 20  1  0
  3 21  1  6
  6 22  1  0
  8 23  1  0
  8 24  1  0
  9 25  1  0
  9 26  1  0
 10 27  1  0
 10 28  1  0
 11 29  1  0
 11 30  1  0
 12 31  1  0
 13 32  1  0
 14 33  1  0
M  ISO  8  18  13  19  13  20  13  21  13  23  13  24  13  25  13  26  13
M  ISO  7  27  13  28  13  29  13  30  13  31  14  32  14  33  14
M  END
>  <minimizedAffinity>  (1) 
-5.46332264

>  <minimizedRMSD>  (1) 
3.28945422

$$$$
