
     RDKit          3D

 36 38  0  0  1  0  0  0  0  0999 V2000
   38.0580   31.7570   44.2390 C   0  0  2  0  0  0  0  0  0  0  0  0
   38.0380   30.3000   44.2210 C   0  0  0  0  0  0  0  0  0  0  0  0
   36.9800   31.1230   44.9810 C   0  0  1  0  0  0  0  0  0  0  0  0
   36.0550   30.4070   47.1560 C   0  0  0  0  0  0  0  0  0  0  0  0
   35.1640   29.7650   46.5510 O   0  0  0  0  0  0  0  0  0  0  0  0
   37.1180   31.0510   46.4330 N   0  0  0  0  0  0  0  0  0  0  0  0
   36.0630   30.5340   48.5940 N   0  0  0  0  0  0  0  0  0  0  0  0
   34.9590   30.5500   49.5440 C   0  0  0  0  0  0  0  0  0  0  0  0
   35.1310   29.2930   50.3830 C   0  0  0  0  0  0  0  0  0  0  0  0
   36.3520   29.5890   51.2610 C   0  0  0  0  0  0  0  0  0  0  0  0
   37.5550   29.7290   50.3880 C   0  0  0  0  0  0  0  0  0  0  0  0
   37.3670   30.6700   49.2400 C   0  0  0  0  0  0  0  0  0  0  0  0
   36.1380   33.5900   41.6520 C   0  0  0  0  0  0  0  0  0  0  0  0
   37.1800   34.1030   40.8360 C   0  0  0  0  0  0  0  0  0  0  0  0
   38.5450   33.8180   41.1790 C   0  0  0  0  0  0  0  0  0  0  0  0
   38.7650   33.0600   42.2850 N   0  0  0  0  0  0  0  0  0  0  0  0
   37.7320   32.5900   43.0370 C   0  0  0  0  0  0  0  0  0  0  0  0
   36.4350   32.8300   42.7560 N   0  0  0  0  0  0  0  0  0  0  0  0
   38.8526   32.4758   44.4876 H   0  0  0  0  0  0  0  0  0  0  0  0
   37.7667   29.7594   43.3022 H   0  0  0  0  0  0  0  0  0  0  0  0
   38.7460   29.4973   44.4748 H   0  0  0  0  0  0  0  0  0  0  0  0
   35.8851   31.2290   44.9876 H   0  0  0  0  0  0  0  0  0  0  0  0
   37.9385   31.4432   46.9166 H   0  0  0  0  0  0  0  0  0  0  0  0
   35.0104   31.4467   50.1790 H   0  0  0  0  0  0  0  0  0  0  0  0
   33.9830   30.5736   49.0371 H   0  0  0  0  0  0  0  0  0  0  0  0
   34.2400   29.1128   51.0023 H   0  0  0  0  0  0  0  0  0  0  0  0
   35.2643   28.3913   49.7673 H   0  0  0  0  0  0  0  0  0  0  0  0
   36.1887   30.5240   51.8169 H   0  0  0  0  0  0  0  0  0  0  0  0
   36.5045   28.7666   51.9755 H   0  0  0  0  0  0  0  0  0  0  0  0
   38.3887   30.0970   51.0041 H   0  0  0  0  0  0  0  0  0  0  0  0
   37.7531   28.7365   49.9571 H   0  0  0  0  0  0  0  0  0  0  0  0
   38.1499   30.4718   48.4932 H   0  0  0  0  0  0  0  0  0  0  0  0
   37.4291   31.6925   49.6408 H   0  0  0  0  0  0  0  0  0  0  0  0
   35.0888   33.8022   41.3989 H   0  0  0  0  0  0  0  0  0  0  0  0
   36.9445   34.7121   39.9508 H   0  0  0  0  0  0  0  0  0  0  0  0
   39.3790   34.1981   40.5708 H   0  0  0  0  0  0  0  0  0  0  0  0
  1  3  1  0
  2  1  1  0
  2  3  1  0
  3  6  1  0
  4  7  1  0
  5  4  2  0
  6  4  1  0
  7 12  1  0
  7  8  1  0
  8  9  1  0
  9 10  1  0
 11 10  1  0
 12 11  1  0
 13 18  2  0
 14 15  2  0
 14 13  1  0
 15 16  1  0
 16 17  2  0
 17  1  1  0
 18 17  1  0
  1 19  1  1
  2 20  1  0
  2 21  1  0
  3 22  1  1
  6 23  1  0
  8 24  1  0
  8 25  1  0
  9 26  1  0
  9 27  1  0
 10 28  1  0
 10 29  1  0
 11 30  1  0
 11 31  1  0
 12 32  1  0
 12 33  1  0
 13 34  1  0
 14 35  1  0
 15 36  1  0
M  ISO  8  19  13  20  13  21  13  22  13  24  13  25  13  26  13  27  13
M  ISO  8  28  13  29  13  30  13  31  13  32  13  33  13  34  14  35  14
M  ISO  1  36  14
M  END
>  <minimizedAffinity>  (1) 
-5.17099905

>  <minimizedRMSD>  (1) 
4.00199747

$$$$
