
     RDKit          3D

 34 36  0  0  1  0  0  0  0  0999 V2000
   39.7420   32.0390   46.1230 C   0  0  2  0  0  0  0  0  0  0  0  0
   40.2570   33.3250   45.6710 C   0  0  0  0  0  0  0  0  0  0  0  0
   39.1380   32.5860   44.9160 C   0  0  1  0  0  0  0  0  0  0  0  0
   37.4670   30.6270   48.6810 C   0  0  0  0  0  0  0  0  0  0  0  0
   37.3940   31.6810   49.6300 C   0  0  0  0  0  0  0  0  0  0  0  0
   38.1440   32.8780   49.3660 C   0  0  0  0  0  0  0  0  0  0  0  0
   38.8790   32.9390   48.2300 N   0  0  0  0  0  0  0  0  0  0  0  0
   38.9100   31.8960   47.3570 C   0  0  0  0  0  0  0  0  0  0  0  0
   38.2250   30.7510   47.5570 N   0  0  0  0  0  0  0  0  0  0  0  0
   38.8320   30.8740   43.1590 C   0  0  0  0  0  0  0  0  0  0  0  0
   37.7400   30.5530   43.6910 O   0  0  0  0  0  0  0  0  0  0  0  0
   39.5760   32.0090   43.6420 N   0  0  0  0  0  0  0  0  0  0  0  0
   39.4630   30.1400   42.0050 C   0  0  0  0  0  0  0  0  0  0  0  0
   40.2800   28.9870   42.5480 C   0  0  0  0  0  0  0  0  0  0  0  0
   41.4700   28.9160   41.6510 C   0  0  0  0  0  0  0  0  0  0  0  0
   41.3570   30.0280   40.6350 C   0  0  0  0  0  0  0  0  0  0  0  0
   40.3650   31.0180   41.2090 C   0  0  0  0  0  0  0  0  0  0  0  0
   40.2442   31.0941   46.3779 H   0  0  0  0  0  0  0  0  0  0  0  0
   40.0338   34.2421   46.2359 H   0  0  0  0  0  0  0  0  0  0  0  0
   41.2459   33.7326   45.4143 H   0  0  0  0  0  0  0  0  0  0  0  0
   38.1068   32.7929   44.5938 H   0  0  0  0  0  0  0  0  0  0  0  0
   36.9038   29.6985   48.8564 H   0  0  0  0  0  0  0  0  0  0  0  0
   36.7823   31.5841   50.5391 H   0  0  0  0  0  0  0  0  0  0  0  0
   38.1217   33.7237   50.0690 H   0  0  0  0  0  0  0  0  0  0  0  0
   40.3748   32.3952   43.1189 H   0  0  0  0  0  0  0  0  0  0  0  0
   38.6540   29.7889   41.3475 H   0  0  0  0  0  0  0  0  0  0  0  0
   40.5869   29.1830   43.5860 H   0  0  0  0  0  0  0  0  0  0  0  0
   39.7129   28.0446   42.5652 H   0  0  0  0  0  0  0  0  0  0  0  0
   42.3899   29.0416   42.2409 H   0  0  0  0  0  0  0  0  0  0  0  0
   41.5093   27.9398   41.1456 H   0  0  0  0  0  0  0  0  0  0  0  0
   40.9916   29.6334   39.6754 H   0  0  0  0  0  0  0  0  0  0  0  0
   42.3321   30.4996   40.4434 H   0  0  0  0  0  0  0  0  0  0  0  0
   40.8667   31.7585   41.8493 H   0  0  0  0  0  0  0  0  0  0  0  0
   39.8407   31.6093   40.4439 H   0  0  0  0  0  0  0  0  0  0  0  0
  1  8  1  0
  2  1  1  0
  3  2  1  0
  3  1  1  0
  4  5  2  0
  6  5  1  0
  7  6  2  0
  8  9  2  0
  8  7  1  0
  9  4  1  0
 10 12  1  0
 10 11  2  0
 12  3  1  0
 13 14  1  0
 13 10  1  0
 15 14  1  0
 16 17  1  0
 16 15  1  0
 17 13  1  0
  1 18  1  6
  2 19  1  0
  2 20  1  0
  3 21  1  1
  4 22  1  0
  5 23  1  0
  6 24  1  0
 12 25  1  0
 13 26  1  0
 14 27  1  0
 14 28  1  0
 15 29  1  0
 15 30  1  0
 16 31  1  0
 16 32  1  0
 17 33  1  0
 17 34  1  0
M  ISO  8  18  13  19  13  20  13  21  13  22  14  23  14  24  14  26  13
M  ISO  8  27  13  28  13  29  13  30  13  31  13  32  13  33  13  34  13
M  END
>  <minimizedAffinity>  (1) 
-4.91536236

>  <minimizedRMSD>  (1) 
7.35953903

$$$$
