
     RDKit          3D

 27 29  0  0  1  0  0  0  0  0999 V2000
   39.7480   32.0510   46.3570 C   0  0  2  0  0  0  0  0  0  0  0  0
   40.1710   33.3070   45.7510 C   0  0  0  0  0  0  0  0  0  0  0  0
   39.1870   32.3560   45.0430 C   0  0  1  0  0  0  0  0  0  0  0  0
   37.2720   30.8460   48.8290 C   0  0  0  0  0  0  0  0  0  0  0  0
   37.1900   31.9310   49.7400 C   0  0  0  0  0  0  0  0  0  0  0  0
   38.0120   33.0770   49.4660 C   0  0  0  0  0  0  0  0  0  0  0  0
   38.8130   33.0700   48.3720 N   0  0  0  0  0  0  0  0  0  0  0  0
   38.8420   31.9940   47.5410 C   0  0  0  0  0  0  0  0  0  0  0  0
   38.0940   30.8840   47.7390 N   0  0  0  0  0  0  0  0  0  0  0  0
   39.2850   30.3340   43.6280 C   0  0  0  0  0  0  0  0  0  0  0  0
   38.2800   29.8910   44.2370 O   0  0  0  0  0  0  0  0  0  0  0  0
   39.7780   31.6570   43.8980 N   0  0  0  0  0  0  0  0  0  0  0  0
   39.9830   29.5000   42.6210 C   0  0  0  0  0  0  0  0  0  0  0  0
   39.1570   28.4290   42.0060 C   0  0  0  0  0  0  0  0  0  0  0  0
   40.2900   27.6780   40.9000 S   0  0  0  0  0  0  0  0  0  0  0  0
   41.7180   28.8470   41.3640 C   0  0  0  0  0  0  0  0  0  0  0  0
   41.2380   29.6560   42.2630 N   0  0  0  0  0  0  0  0  0  0  0  0
   40.3181   31.2114   46.7813 H   0  0  0  0  0  0  0  0  0  0  0  0
   39.8192   34.2660   46.1590 H   0  0  0  0  0  0  0  0  0  0  0  0
   41.1338   33.7752   45.4987 H   0  0  0  0  0  0  0  0  0  0  0  0
   38.1685   32.4048   44.6302 H   0  0  0  0  0  0  0  0  0  0  0  0
   36.6574   29.9509   49.0054 H   0  0  0  0  0  0  0  0  0  0  0  0
   36.5267   31.8961   50.6168 H   0  0  0  0  0  0  0  0  0  0  0  0
   37.9918   33.9495   50.1356 H   0  0  0  0  0  0  0  0  0  0  0  0
   40.5090   32.0915   43.3168 H   0  0  0  0  0  0  0  0  0  0  0  0
   38.1042   28.1731   42.1962 H   0  0  0  0  0  0  0  0  0  0  0  0
   42.7395   28.8402   40.9560 H   0  0  0  0  0  0  0  0  0  0  0  0
  1  8  1  0
  2  1  1  0
  3  2  1  0
  3  1  1  0
  4  5  2  0
  6  5  1  0
  7  6  2  0
  8  9  2  0
  8  7  1  0
  9  4  1  0
 10 12  1  0
 10 11  2  0
 12  3  1  0
 13 10  1  0
 14 13  2  0
 15 16  1  0
 15 14  1  0
 16 17  2  0
 17 13  1  0
  1 18  1  6
  2 19  1  0
  2 20  1  0
  3 21  1  1
  4 22  1  0
  5 23  1  0
  6 24  1  0
 12 25  1  0
 14 26  1  0
 16 27  1  0
M  ISO  8  18  13  19  13  20  13  21  13  22  14  23  14  24  14  26  14
M  ISO  1  27  14
M  END
>  <minimizedAffinity>  (1) 
-4.86525536

>  <minimizedRMSD>  (1) 
7.53894806

$$$$
