
     RDKit          3D

 33 35  0  0  0  0  0  0  0  0999 V2000
   31.9290   29.1990   46.1940 C   0  0  0  0  0  0  0  0  0  0  0  0
   31.1730   28.5370   45.2570 C   0  0  0  0  0  0  0  0  0  0  0  0
   30.1840   27.9020   45.8630 N   0  0  0  0  0  0  0  0  0  0  0  0
   30.2590   28.1250   47.1910 C   0  0  0  0  0  0  0  0  0  0  0  0
   31.3360   28.9220   47.3680 N   0  0  0  0  0  0  0  0  0  0  0  0
   31.0900   27.9980   49.8610 F   0  0  0  0  0  0  0  0  0  0  0  0
   29.8370   27.5820   49.5580 C   0  0  0  0  0  0  0  0  0  0  0  0
   29.3760   27.6240   48.2480 C   0  0  0  0  0  0  0  0  0  0  0  0
   28.0970   27.2130   47.8600 C   0  0  0  0  0  0  0  0  0  0  0  0
   27.2470   26.7350   48.8590 C   0  0  0  0  0  0  0  0  0  0  0  0
   27.7220   26.6990   50.1540 C   0  0  0  0  0  0  0  0  0  0  0  0
   28.9830   27.1040   50.5420 C   0  0  0  0  0  0  0  0  0  0  0  0
   33.0670   29.9960   46.0340 O   0  0  0  0  0  0  0  0  0  0  0  0
   35.6350   29.9060   46.1190 O   0  0  0  0  0  0  0  0  0  0  0  0
   34.4130   29.6130   46.9720 P   0  0  2  0  0  0  0  0  0  0  0  0
   34.3720   27.9840   47.4360 O   0  0  0  0  0  0  0  0  0  0  0  0
   34.3960   30.5230   48.4240 O   0  0  0  0  0  0  0  0  0  0  0  0
   35.3940   30.4050   49.3800 C   0  0  0  0  0  0  0  0  0  0  0  0
   35.4320   29.4830   50.4260 C   0  0  0  0  0  0  0  0  0  0  0  0
   36.5140   29.5160   51.2870 C   0  0  0  0  0  0  0  0  0  0  0  0
   37.4920   30.4200   51.0990 N   0  0  0  0  0  0  0  0  0  0  0  0
   37.4300   31.3180   50.0590 C   0  0  0  0  0  0  0  0  0  0  0  0
   36.3840   31.3030   49.2080 N   0  0  0  0  0  0  0  0  0  0  0  0
   31.3609   28.5355   44.1732 H   0  0  0  0  0  0  0  0  0  0  0  0
   29.4689   27.3275   45.3945 H   0  0  0  0  0  0  0  0  0  0  0  0
   27.7736   27.2643   46.8099 H   0  0  0  0  0  0  0  0  0  0  0  0
   26.2278   26.3968   48.6206 H   0  0  0  0  0  0  0  0  0  0  0  0
   27.0460   26.3196   50.9344 H   0  0  0  0  0  0  0  0  0  0  0  0
   29.3000   27.0499   51.5940 H   0  0  0  0  0  0  0  0  0  0  0  0
   34.3704   27.9223   48.4241 H   0  0  0  0  0  0  0  0  0  0  0  0
   34.6235   28.7497   50.5624 H   0  0  0  0  0  0  0  0  0  0  0  0
   36.5745   28.8045   52.1237 H   0  0  0  0  0  0  0  0  0  0  0  0
   38.2376   32.0520   49.9208 H   0  0  0  0  0  0  0  0  0  0  0  0
  1  5  1  0
  2  3  1  0
  2  1  2  0
  3  4  1  0
  4  5  2  0
  4  8  1  0
  7  6  1  0
  7 12  2  0
  8  7  1  0
  9  8  2  0
  9 10  1  0
 10 11  2  0
 11 12  1  0
 13  1  1  0
 13 15  1  0
 15 14  2  0
 15 16  1  0
 15 17  1  0
 17 18  1  0
 18 19  2  0
 19 20  1  0
 21 20  2  0
 22 21  1  0
 23 18  1  0
 23 22  2  0
  2 24  1  0
  3 25  1  0
  9 26  1  0
 10 27  1  0
 11 28  1  0
 12 29  1  0
 16 30  1  0
 19 31  1  0
 20 32  1  0
 22 33  1  0
M  ISO  8  24  14  25   9  26  14  27  14  28  14  29  14  30   3  31  14
M  ISO  2  32  14  33  14
M  END
>  <minimizedAffinity>  (1) 
-5.29555273

>  <minimizedRMSD>  (1) 
1.41641378

$$$$
