
     RDKit          3D

 43 47  0  0  1  0  0  0  0  0999 V2000
   39.1080   31.5150   43.3500 C   0  0  0  0  0  0  0  0  0  0  0  0
   40.0870   30.5660   43.4820 C   0  0  0  0  0  0  0  0  0  0  0  0
   40.8140   30.2070   42.3640 C   0  0  0  0  0  0  0  0  0  0  0  0
   40.5140   30.8190   41.1780 C   0  0  0  0  0  0  0  0  0  0  0  0
   39.5300   31.7770   41.0310 C   0  0  0  0  0  0  0  0  0  0  0  0
   38.8610   32.0820   42.1550 N   0  0  0  0  0  0  0  0  0  0  0  0
   39.8160   32.0100   38.6430 C   0  0  0  0  0  0  0  0  0  0  0  0
   39.1840   32.4530   39.7870 C   0  0  0  0  0  0  0  0  0  0  0  0
   38.2720   33.4870   39.7460 C   0  0  0  0  0  0  0  0  0  0  0  0
   38.0140   34.0630   38.5020 C   0  0  0  0  0  0  0  0  0  0  0  0
   37.1640   35.0840   38.2110 N   0  0  0  0  0  0  0  0  0  0  0  0
   37.2600   35.2850   36.8740 C   0  0  0  0  0  0  0  0  0  0  0  0
   38.1560   34.4000   36.3590 N   0  0  0  0  0  0  0  0  0  0  0  0
   38.6430   33.6260   37.3430 C   0  0  0  0  0  0  0  0  0  0  0  0
   39.5650   32.5790   37.4070 C   0  0  0  0  0  0  0  0  0  0  0  0
   38.3330   31.8830   44.5410 C   0  0  0  0  0  0  0  0  0  0  0  0
   37.1530   32.3360   44.4370 O   0  0  0  0  0  0  0  0  0  0  0  0
   38.9420   31.7200   45.8360 N   0  0  0  0  0  0  0  0  0  0  0  0
   38.4490   31.1800   48.2150 C   0  0  2  0  0  0  0  0  0  0  0  0
   38.7380   32.6220   48.1660 C   0  0  0  0  0  0  0  0  0  0  0  0
   38.0730   31.8570   46.9970 C   0  0  1  0  0  0  0  0  0  0  0  0
   35.1140   30.2380   49.5090 C   0  0  0  0  0  0  0  0  0  0  0  0
   35.4360   29.5560   50.7250 C   0  0  0  0  0  0  0  0  0  0  0  0
   36.8350   29.4480   51.0670 C   0  0  0  0  0  0  0  0  0  0  0  0
   37.7790   29.9870   50.2400 N   0  0  0  0  0  0  0  0  0  0  0  0
   37.3760   30.6230   49.0960 C   0  0  0  0  0  0  0  0  0  0  0  0
   36.0610   30.7660   48.7010 N   0  0  0  0  0  0  0  0  0  0  0  0
   40.2897   30.0999   44.4575 H   0  0  0  0  0  0  0  0  0  0  0  0
   41.6108   29.4512   42.4254 H   0  0  0  0  0  0  0  0  0  0  0  0
   41.0915   30.5307   40.2873 H   0  0  0  0  0  0  0  0  0  0  0  0
   40.5379   31.1832   38.7156 H   0  0  0  0  0  0  0  0  0  0  0  0
   37.7687   33.8429   40.6571 H   0  0  0  0  0  0  0  0  0  0  0  0
   36.5675   35.6004   38.8731 H   0  0  0  0  0  0  0  0  0  0  0  0
   36.7042   36.0404   36.2991 H   0  0  0  0  0  0  0  0  0  0  0  0
   40.0761   32.2177   36.5024 H   0  0  0  0  0  0  0  0  0  0  0  0
   39.9465   31.5158   45.9366 H   0  0  0  0  0  0  0  0  0  0  0  0
   39.0805   30.3099   48.4479 H   0  0  0  0  0  0  0  0  0  0  0  0
   38.1543   33.3290   48.7739 H   0  0  0  0  0  0  0  0  0  0  0  0
   39.6249   33.2596   48.2961 H   0  0  0  0  0  0  0  0  0  0  0  0
   37.1405   31.9068   46.4156 H   0  0  0  0  0  0  0  0  0  0  0  0
   34.0570   30.3364   49.2208 H   0  0  0  0  0  0  0  0  0  0  0  0
   34.6526   29.1327   51.3708 H   0  0  0  0  0  0  0  0  0  0  0  0
   37.1393   28.9334   51.9904 H   0  0  0  0  0  0  0  0  0  0  0  0
  1  2  2  0
  1 16  1  0
  3  2  1  0
  4  3  2  0
  5  4  1  0
  5  6  2  0
  6  1  1  0
  7  8  2  0
  8  5  1  0
  9  8  1  0
 10  9  2  0
 11 10  1  0
 12 11  1  0
 13 12  2  0
 13 14  1  0
 14 15  2  0
 14 10  1  0
 15  7  1  0
 16 18  1  0
 17 16  2  0
 18 21  1  0
 19 26  1  0
 20 19  1  0
 21 20  1  0
 21 19  1  0
 22 23  2  0
 23 24  1  0
 25 24  2  0
 26 25  1  0
 27 26  2  0
 27 22  1  0
  2 28  1  0
  3 29  1  0
  4 30  1  0
  7 31  1  0
  9 32  1  0
 11 33  1  0
 12 34  1  0
 15 35  1  0
 18 36  1  0
 19 37  1  6
 20 38  1  0
 20 39  1  0
 21 40  1  6
 22 41  1  0
 23 42  1  0
 24 43  1  0
M  ISO  8  28  14  29  14  30  14  31  14  32  14  33   9  34  14  35  14
M  ISO  7  37  13  38  13  39  13  40  13  41  14  42  14  43  14
M  END
>  <minimizedAffinity>  (1) 
-5.4351716

>  <minimizedRMSD>  (1) 
1.05827713

$$$$
