
     RDKit          3D

 43 46  0  0  1  0  0  0  0  0999 V2000
   38.7330   31.4830   44.0780 C   0  0  0  0  0  0  0  0  0  0  0  0
   39.9940   30.9560   44.1070 C   0  0  0  0  0  0  0  0  0  0  0  0
   40.6610   30.8790   42.9020 C   0  0  0  0  0  0  0  0  0  0  0  0
   40.0470   31.3210   41.7710 C   0  0  0  0  0  0  0  0  0  0  0  0
   38.7810   31.8550   41.7290 C   0  0  0  0  0  0  0  0  0  0  0  0
   38.1950   31.8980   42.9260 N   0  0  0  0  0  0  0  0  0  0  0  0
   37.1950   31.6010   39.7660 C   0  0  0  0  0  0  0  0  0  0  0  0
   37.9990   32.3090   40.6220 C   0  0  0  0  0  0  0  0  0  0  0  0
   38.0660   33.6730   40.3120 C   0  0  0  0  0  0  0  0  0  0  0  0
   37.4190   34.3060   39.2780 C   0  0  0  0  0  0  0  0  0  0  0  0
   36.6220   33.5500   38.4520 C   0  0  0  0  0  0  0  0  0  0  0  0
   36.5280   32.2040   38.7170 C   0  0  0  0  0  0  0  0  0  0  0  0
   37.0550   29.8930   39.9100 S   0  0  0  0  0  0  0  0  0  0  0  0
   38.2920   29.1180   39.6100 O   0  0  0  0  0  0  0  0  0  0  0  0
   36.4270   29.4120   41.1810 O   0  0  0  0  0  0  0  0  0  0  0  0
   37.9710   31.5810   45.3480 C   0  0  0  0  0  0  0  0  0  0  0  0
   36.9330   30.8860   45.5400 O   0  0  0  0  0  0  0  0  0  0  0  0
   38.4530   32.4860   46.3450 N   0  0  0  0  0  0  0  0  0  0  0  0
   38.4640   31.5130   48.6430 C   0  0  2  0  0  0  0  0  0  0  0  0
   38.7680   32.9450   48.7900 C   0  0  0  0  0  0  0  0  0  0  0  0
   37.8540   32.3860   47.6720 C   0  0  1  0  0  0  0  0  0  0  0  0
   35.6610   29.5710   50.0540 C   0  0  0  0  0  0  0  0  0  0  0  0
   36.0650   29.3930   51.4160 C   0  0  0  0  0  0  0  0  0  0  0  0
   37.3200   29.9700   51.8100 C   0  0  0  0  0  0  0  0  0  0  0  0
   38.0530   30.6460   50.8930 N   0  0  0  0  0  0  0  0  0  0  0  0
   37.6110   30.7780   49.6130 C   0  0  0  0  0  0  0  0  0  0  0  0
   36.4170   30.2520   49.1610 N   0  0  0  0  0  0  0  0  0  0  0  0
   40.4539   30.6105   45.0446 H   0  0  0  0  0  0  0  0  0  0  0  0
   41.6789   30.4645   42.8559 H   0  0  0  0  0  0  0  0  0  0  0  0
   40.6023   31.2458   40.8245 H   0  0  0  0  0  0  0  0  0  0  0  0
   38.6981   34.2987   40.9592 H   0  0  0  0  0  0  0  0  0  0  0  0
   37.5357   35.3877   39.1159 H   0  0  0  0  0  0  0  0  0  0  0  0
   36.0794   34.0048   37.6101 H   0  0  0  0  0  0  0  0  0  0  0  0
   35.8956   31.5816   38.0669 H   0  0  0  0  0  0  0  0  0  0  0  0
   36.1724   29.6206   38.8982 H   0  0  0  0  0  0  0  0  0  0  0  0
   39.1885   33.1761   46.1362 H   0  0  0  0  0  0  0  0  0  0  0  0
   39.1109   30.6256   48.5785 H   0  0  0  0  0  0  0  0  0  0  0  0
   38.3415   33.5237   49.6226 H   0  0  0  0  0  0  0  0  0  0  0  0
   39.6757   33.5643   48.8398 H   0  0  0  0  0  0  0  0  0  0  0  0
   36.8201   32.5139   47.3188 H   0  0  0  0  0  0  0  0  0  0  0  0
   34.7048   29.1402   49.7222 H   0  0  0  0  0  0  0  0  0  0  0  0
   35.4403   28.8375   52.1309 H   0  0  0  0  0  0  0  0  0  0  0  0
   37.6814   29.8643   52.8435 H   0  0  0  0  0  0  0  0  0  0  0  0
  1  2  2  0
  1 16  1  0
  3  2  1  0
  4  3  2  0
  5  4  1  0
  5  6  2  0
  6  1  1  0
  7 13  1  0
  7  8  2  0
  8  5  1  0
  9  8  1  0
 10  9  2  0
 11 12  2  0
 11 10  1  0
 12  7  1  0
 13 15  2  0
 14 13  2  0
 16 17  2  0
 16 18  1  0
 18 21  1  0
 19 20  1  0
 19 26  1  0
 21 19  1  0
 21 20  1  0
 22 23  2  0
 23 24  1  0
 25 24  2  0
 26 25  1  0
 27 26  2  0
 27 22  1  0
  2 28  1  0
  3 29  1  0
  4 30  1  0
  9 31  1  0
 10 32  1  0
 11 33  1  0
 12 34  1  0
 13 35  1  0
 18 36  1  0
 19 37  1  6
 20 38  1  0
 20 39  1  0
 21 40  1  6
 22 41  1  0
 23 42  1  0
 24 43  1  0
M  ISO  8  28  14  29  14  30  14  31  14  32  14  33  14  34  14  35  11
M  ISO  7  37  13  38  13  39  13  40  13  41  14  42  14  43  14
M  END
>  <minimizedAffinity>  (1) 
-5.38218737

>  <minimizedRMSD>  (1) 
2.28525901

$$$$
