
     RDKit          3D

 40 43  0  0  1  0  0  0  0  0999 V2000
   38.4180   31.8180   44.6040 C   0  0  0  0  0  0  0  0  0  0  0  0
   37.3180   32.4000   44.5600 O   0  0  0  0  0  0  0  0  0  0  0  0
   39.0210   31.4680   45.8740 N   0  0  0  0  0  0  0  0  0  0  0  0
   39.1650   31.4540   43.3790 C   0  0  0  0  0  0  0  0  0  0  0  0
   40.1580   30.5150   43.4560 C   0  0  0  0  0  0  0  0  0  0  0  0
   40.8390   30.2090   42.2870 C   0  0  0  0  0  0  0  0  0  0  0  0
   40.4860   30.8540   41.1360 C   0  0  0  0  0  0  0  0  0  0  0  0
   39.4850   31.8030   41.0520 C   0  0  0  0  0  0  0  0  0  0  0  0
   38.8560   32.0630   42.2110 N   0  0  0  0  0  0  0  0  0  0  0  0
   39.0850   32.5070   39.8400 C   0  0  0  0  0  0  0  0  0  0  0  0
   39.5670   32.0000   38.6540 C   0  0  0  0  0  0  0  0  0  0  0  0
   39.2540   32.5860   37.4350 C   0  0  0  0  0  0  0  0  0  0  0  0
   38.4280   33.7130   37.4830 C   0  0  0  0  0  0  0  0  0  0  0  0
   37.9480   34.2180   38.6710 C   0  0  0  0  0  0  0  0  0  0  0  0
   38.2740   33.6150   39.8650 C   0  0  0  0  0  0  0  0  0  0  0  0
   38.7090   31.1370   48.3220 C   0  0  2  0  0  0  0  0  0  0  0  0
   38.7070   32.5910   48.0920 C   0  0  0  0  0  0  0  0  0  0  0  0
   38.1780   31.5690   47.0520 C   0  0  1  0  0  0  0  0  0  0  0  0
   35.9150   29.1700   49.7660 C   0  0  0  0  0  0  0  0  0  0  0  0
   36.1260   29.3350   51.1730 C   0  0  0  0  0  0  0  0  0  0  0  0
   37.2480   30.1450   51.5890 C   0  0  0  0  0  0  0  0  0  0  0  0
   38.0550   30.7140   50.6430 N   0  0  0  0  0  0  0  0  0  0  0  0
   37.7820   30.5070   49.3190 C   0  0  0  0  0  0  0  0  0  0  0  0
   36.7280   29.7460   48.8540 N   0  0  0  0  0  0  0  0  0  0  0  0
   40.0023   31.1617   45.9383 H   0  0  0  0  0  0  0  0  0  0  0  0
   40.4062   30.0224   44.4077 H   0  0  0  0  0  0  0  0  0  0  0  0
   41.6467   29.4623   42.2869 H   0  0  0  0  0  0  0  0  0  0  0  0
   41.0340   30.6017   40.2162 H   0  0  0  0  0  0  0  0  0  0  0  0
   40.2144   31.1109   38.6728 H   0  0  0  0  0  0  0  0  0  0  0  0
   39.6349   32.1857   36.4838 H   0  0  0  0  0  0  0  0  0  0  0  0
   38.1528   34.2121   36.5422 H   0  0  0  0  0  0  0  0  0  0  0  0
   37.3009   35.1075   38.6659 H   0  0  0  0  0  0  0  0  0  0  0  0
   37.8934   34.0118   40.8177 H   0  0  0  0  0  0  0  0  0  0  0  0
   39.5043   30.4385   48.6215 H   0  0  0  0  0  0  0  0  0  0  0  0
   38.0096   33.2419   48.6397 H   0  0  0  0  0  0  0  0  0  0  0  0
   39.4530   33.3993   48.1045 H   0  0  0  0  0  0  0  0  0  0  0  0
   37.2414   31.3585   46.5149 H   0  0  0  0  0  0  0  0  0  0  0  0
   35.0690   28.5584   49.4192 H   0  0  0  0  0  0  0  0  0  0  0  0
   35.4590   28.8628   51.9093 H   0  0  0  0  0  0  0  0  0  0  0  0
   37.4514   30.3027   52.6585 H   0  0  0  0  0  0  0  0  0  0  0  0
  1  3  1  0
  2  1  2  0
  3 18  1  0
  4  5  2  0
  4  1  1  0
  6  5  1  0
  7  6  2  0
  8  7  1  0
  8  9  2  0
  9  4  1  0
 10 15  1  0
 10  8  1  0
 11 10  2  0
 12 13  2  0
 12 11  1  0
 13 14  1  0
 14 15  2  0
 16 23  1  0
 17 16  1  0
 18 17  1  0
 18 16  1  0
 19 20  2  0
 20 21  1  0
 22 21  2  0
 23 22  1  0
 24 23  2  0
 24 19  1  0
  3 25  1  0
  5 26  1  0
  6 27  1  0
  7 28  1  0
 11 29  1  0
 12 30  1  0
 13 31  1  0
 14 32  1  0
 15 33  1  0
 16 34  1  6
 17 35  1  0
 17 36  1  0
 18 37  1  6
 19 38  1  0
 20 39  1  0
 21 40  1  0
M  ISO  8  26  14  27  14  28  14  29  14  30  14  31  14  32  14  33  14
M  ISO  7  34  13  35  13  36  13  37  13  38  14  39  14  40  14
M  END
>  <minimizedAffinity>  (1) 
-5.37683392

>  <minimizedRMSD>  (1) 
0.883484125

$$$$
