
     RDKit          3D

 33 35  0  0  1  0  0  0  0  0999 V2000
   38.4350   31.1190   48.2090 C   0  0  2  0  0  0  0  0  0  0  0  0
   38.7030   32.5610   48.1000 C   0  0  0  0  0  0  0  0  0  0  0  0
   38.0660   31.7340   46.9560 C   0  0  1  0  0  0  0  0  0  0  0  0
   35.0850   30.2370   49.5130 C   0  0  0  0  0  0  0  0  0  0  0  0
   35.3990   29.5530   50.7320 C   0  0  0  0  0  0  0  0  0  0  0  0
   36.7980   29.4230   51.0730 C   0  0  0  0  0  0  0  0  0  0  0  0
   37.7450   29.9450   50.2400 N   0  0  0  0  0  0  0  0  0  0  0  0
   37.3520   30.5830   49.0960 C   0  0  0  0  0  0  0  0  0  0  0  0
   36.0390   30.7460   48.7050 N   0  0  0  0  0  0  0  0  0  0  0  0
   38.4120   31.8530   44.5220 C   0  0  0  0  0  0  0  0  0  0  0  0
   37.3010   32.4510   44.4020 O   0  0  0  0  0  0  0  0  0  0  0  0
   38.9470   31.5530   45.8130 N   0  0  0  0  0  0  0  0  0  0  0  0
   39.1750   31.4540   43.3280 C   0  0  0  0  0  0  0  0  0  0  0  0
   40.1840   30.5410   43.4820 C   0  0  0  0  0  0  0  0  0  0  0  0
   40.9050   30.1460   42.3740 C   0  0  0  0  0  0  0  0  0  0  0  0
   40.5690   30.6950   41.1580 C   0  0  0  0  0  0  0  0  0  0  0  0
   39.5520   31.6190   40.9910 C   0  0  0  0  0  0  0  0  0  0  0  0
   38.9070   31.9450   42.1130 N   0  0  0  0  0  0  0  0  0  0  0  0
   39.2160   32.1930   39.6600 C   0  0  0  0  0  0  0  0  0  0  0  0
   39.0776   30.2722   48.4918 H   0  0  0  0  0  0  0  0  0  0  0  0
   38.1001   33.2851   48.6677 H   0  0  0  0  0  0  0  0  0  0  0  0
   39.5783   33.2174   48.2139 H   0  0  0  0  0  0  0  0  0  0  0  0
   37.1416   31.7459   46.3599 H   0  0  0  0  0  0  0  0  0  0  0  0
   34.0294   30.3514   49.2254 H   0  0  0  0  0  0  0  0  0  0  0  0
   34.6099   29.1444   51.3804 H   0  0  0  0  0  0  0  0  0  0  0  0
   37.0971   28.9070   51.9973 H   0  0  0  0  0  0  0  0  0  0  0  0
   39.9156   31.2226   45.9290 H   0  0  0  0  0  0  0  0  0  0  0  0
   40.4163   30.1285   44.4749 H   0  0  0  0  0  0  0  0  0  0  0  0
   41.7227   29.4152   42.4601 H   0  0  0  0  0  0  0  0  0  0  0  0
   41.1393   30.3828   40.2707 H   0  0  0  0  0  0  0  0  0  0  0  0
   38.6645   33.1351   39.7956 H   0  0  0  0  0  0  0  0  0  0  0  0
   40.1426   32.3879   39.1002 H   0  0  0  0  0  0  0  0  0  0  0  0
   38.5924   31.4804   39.1002 H   0  0  0  0  0  0  0  0  0  0  0  0
  1  8  1  0
  2  1  1  0
  3  2  1  0
  3  1  1  0
  4  5  2  0
  5  6  1  0
  7  6  2  0
  8  7  1  0
  9  8  2  0
  9  4  1  0
 10 12  1  0
 11 10  2  0
 12  3  1  0
 13 14  2  0
 13 10  1  0
 15 14  1  0
 16 15  2  0
 17 16  1  0
 17 18  2  0
 18 13  1  0
 19 17  1  0
  1 20  1  6
  2 21  1  0
  2 22  1  0
  3 23  1  6
  4 24  1  0
  5 25  1  0
  6 26  1  0
 12 27  1  0
 14 28  1  0
 15 29  1  0
 16 30  1  0
 19 31  1  0
 19 32  1  0
 19 33  1  0
M  ISO  8  20  13  21  13  22  13  23  13  24  14  25  14  26  14  28  14
M  ISO  5  29  14  30  14  31   8  32   8  33   8
M  END
>  <minimizedAffinity>  (1) 
-5.13197708

>  <minimizedRMSD>  (1) 
0.0348371007

$$$$
