
     RDKit          3D

 39 41  0  0  0  0  0  0  0  0999 V2000
   35.5210   29.9370   46.2860 O   0  0  0  0  0  0  0  0  0  0  0  0
   34.3450   29.6380   47.2000 P   0  0  1  0  0  0  0  0  0  0  0  0
   34.3280   27.9740   47.6050 O   0  0  0  0  0  0  0  0  0  0  0  0
   34.4280   30.5030   48.6580 O   0  0  0  0  0  0  0  0  0  0  0  0
   35.5160   30.4030   49.5300 C   0  0  0  0  0  0  0  0  0  0  0  0
   35.6660   29.4770   50.5630 C   0  0  0  0  0  0  0  0  0  0  0  0
   36.8180   29.5390   51.3170 C   0  0  0  0  0  0  0  0  0  0  0  0
   37.7570   30.4730   51.0480 N   0  0  0  0  0  0  0  0  0  0  0  0
   37.5730   31.3650   50.0250 C   0  0  0  0  0  0  0  0  0  0  0  0
   36.4540   31.3390   49.2580 N   0  0  0  0  0  0  0  0  0  0  0  0
   32.9510   30.0410   46.3490 O   0  0  0  0  0  0  0  0  0  0  0  0
   31.8970   29.1200   46.3680 C   0  0  0  0  0  0  0  0  0  0  0  0
   31.2180   28.5450   45.3020 C   0  0  0  0  0  0  0  0  0  0  0  0
   30.2900   27.7250   45.8110 N   0  0  0  0  0  0  0  0  0  0  0  0
   30.3460   27.7520   47.1520 C   0  0  0  0  0  0  0  0  0  0  0  0
   31.3290   28.6060   47.4940 N   0  0  0  0  0  0  0  0  0  0  0  0
   29.5330   27.0260   48.1610 C   0  0  0  0  0  0  0  0  0  0  0  0
   29.9050   27.5020   49.5480 C   0  0  0  0  0  0  0  0  0  0  0  0
   28.9500   27.0290   50.5960 C   0  0  0  0  0  0  0  0  0  0  0  0
   27.5120   27.2450   50.2490 C   0  0  0  0  0  0  0  0  0  0  0  0
   27.2190   26.6360   48.9160 C   0  0  0  0  0  0  0  0  0  0  0  0
   28.0760   27.3050   47.8610 C   0  0  0  0  0  0  0  0  0  0  0  0
   34.3270   27.8741   48.5899 H   0  0  0  0  0  0  0  0  0  0  0  0
   34.8914   28.7235   50.7685 H   0  0  0  0  0  0  0  0  0  0  0  0
   36.9736   28.8262   52.1402 H   0  0  0  0  0  0  0  0  0  0  0  0
   38.3484   32.1180   49.8210 H   0  0  0  0  0  0  0  0  0  0  0  0
   31.4078   28.7295   44.2343 H   0  0  0  0  0  0  0  0  0  0  0  0
   29.6320   27.1585   45.2569 H   0  0  0  0  0  0  0  0  0  0  0  0
   29.7188   25.9427   48.1179 H   0  0  0  0  0  0  0  0  0  0  0  0
   30.9094   27.1255   49.7916 H   0  0  0  0  0  0  0  0  0  0  0  0
   29.8730   28.6015   49.5415 H   0  0  0  0  0  0  0  0  0  0  0  0
   29.1108   25.9518   50.7499 H   0  0  0  0  0  0  0  0  0  0  0  0
   29.1517   27.6205   51.5012 H   0  0  0  0  0  0  0  0  0  0  0  0
   26.8766   26.7744   51.0137 H   0  0  0  0  0  0  0  0  0  0  0  0
   27.3046   28.3246   50.2100 H   0  0  0  0  0  0  0  0  0  0  0  0
   27.4458   25.5600   48.9457 H   0  0  0  0  0  0  0  0  0  0  0  0
   26.1559   26.7777   48.6716 H   0  0  0  0  0  0  0  0  0  0  0  0
   27.8978   28.3904   47.8748 H   0  0  0  0  0  0  0  0  0  0  0  0
   27.8186   26.9098   46.8672 H   0  0  0  0  0  0  0  0  0  0  0  0
  2  1  2  0
  2  3  1  0
  2  4  1  0
  4  5  1  0
  5  6  2  0
  6  7  1  0
  8  7  2  0
  9  8  1  0
 10  5  1  0
 10  9  2  0
 11 12  1  0
 11  2  1  0
 12 16  1  0
 13 14  1  0
 13 12  2  0
 14 15  1  0
 15 16  2  0
 15 17  1  0
 17 18  1  0
 18 19  1  0
 20 19  1  0
 21 20  1  0
 22 17  1  0
 22 21  1  0
  3 23  1  0
  6 24  1  0
  7 25  1  0
  9 26  1  0
 13 27  1  0
 14 28  1  0
 17 29  1  0
 18 30  1  0
 18 31  1  0
 19 32  1  0
 19 33  1  0
 20 34  1  0
 20 35  1  0
 21 36  1  0
 21 37  1  0
 22 38  1  0
 22 39  1  0
M  ISO  8  23   3  24  14  25  14  26  14  27  14  28   9  29  13  30  13
M  ISO  8  31  13  32  13  33  13  34  13  35  13  36  13  37  13  38  13
M  ISO  1  39  13
M  END
>  <minimizedAffinity>  (1) 
-5.21637917

>  <minimizedRMSD>  (1) 
1.03630149

$$$$
