
     RDKit          3D

 31 33  0  0  1  0  0  0  0  0999 V2000
   38.4340   31.0840   48.1770 C   0  0  2  0  0  0  0  0  0  0  0  0
   38.7310   32.5190   48.0630 C   0  0  0  0  0  0  0  0  0  0  0  0
   38.0740   31.6960   46.9210 C   0  0  1  0  0  0  0  0  0  0  0  0
   35.0920   30.2420   49.5010 C   0  0  0  0  0  0  0  0  0  0  0  0
   35.4060   29.5570   50.7190 C   0  0  0  0  0  0  0  0  0  0  0  0
   36.8010   29.4130   51.0510 C   0  0  0  0  0  0  0  0  0  0  0  0
   37.7330   29.9240   50.2110 N   0  0  0  0  0  0  0  0  0  0  0  0
   37.3660   30.5640   49.0710 C   0  0  0  0  0  0  0  0  0  0  0  0
   36.0520   30.7390   48.6890 N   0  0  0  0  0  0  0  0  0  0  0  0
   38.4300   31.8330   44.4840 C   0  0  0  0  0  0  0  0  0  0  0  0
   37.3350   32.4620   44.3750 O   0  0  0  0  0  0  0  0  0  0  0  0
   38.9510   31.5040   45.7770 N   0  0  0  0  0  0  0  0  0  0  0  0
   39.1890   31.4300   43.2910 C   0  0  0  0  0  0  0  0  0  0  0  0
   40.2060   30.5280   43.4510 C   0  0  0  0  0  0  0  0  0  0  0  0
   40.9270   30.1330   42.3390 C   0  0  0  0  0  0  0  0  0  0  0  0
   40.5760   30.6780   41.1250 C   0  0  0  0  0  0  0  0  0  0  0  0
   39.5460   31.5930   40.9510 C   0  0  0  0  0  0  0  0  0  0  0  0
   38.9070   31.9140   42.0810 N   0  0  0  0  0  0  0  0  0  0  0  0
   39.1590   32.2460   39.3550 S   0  0  0  0  0  0  0  0  0  0  0  0
   39.0600   30.2251   48.4605 H   0  0  0  0  0  0  0  0  0  0  0  0
   38.1435   33.2574   48.6283 H   0  0  0  0  0  0  0  0  0  0  0  0
   39.6191   33.1586   48.1731 H   0  0  0  0  0  0  0  0  0  0  0  0
   37.1485   31.7152   46.3268 H   0  0  0  0  0  0  0  0  0  0  0  0
   34.0367   30.3677   49.2173 H   0  0  0  0  0  0  0  0  0  0  0  0
   34.6165   29.1580   51.3728 H   0  0  0  0  0  0  0  0  0  0  0  0
   37.1046   28.8957   51.9731 H   0  0  0  0  0  0  0  0  0  0  0  0
   39.9097   31.1453   45.8921 H   0  0  0  0  0  0  0  0  0  0  0  0
   40.4454   30.1247   44.4460 H   0  0  0  0  0  0  0  0  0  0  0  0
   41.7513   29.4093   42.4218 H   0  0  0  0  0  0  0  0  0  0  0  0
   41.1471   30.3695   40.2369 H   0  0  0  0  0  0  0  0  0  0  0  0
   38.4643   33.4182   39.4974 H   0  0  0  0  0  0  0  0  0  0  0  0
  1  8  1  0
  2  1  1  0
  3  2  1  0
  3  1  1  0
  4  5  2  0
  5  6  1  0
  7  6  2  0
  8  7  1  0
  9  8  2  0
  9  4  1  0
 10 12  1  0
 11 10  2  0
 12  3  1  0
 13 14  2  0
 13 10  1  0
 15 14  1  0
 16 15  2  0
 17 16  1  0
 17 18  2  0
 18 13  1  0
 19 17  1  0
  1 20  1  6
  2 21  1  0
  2 22  1  0
  3 23  1  6
  4 24  1  0
  5 25  1  0
  6 26  1  0
 12 27  1  0
 14 28  1  0
 15 29  1  0
 16 30  1  0
 19 31  1  0
M  ISO  8  20  13  21  13  22  13  23  13  24  14  25  14  26  14  28  14
M  ISO  3  29  14  30  14  31  11
M  END
>  <minimizedAffinity>  (1) 
-5.11336851

>  <minimizedRMSD>  (1) 
0.0708028153

$$$$
