
     RDKit          3D

 37 40  0  0  1  0  0  0  0  0999 V2000
   38.4390   31.1180   48.1940 C   0  0  2  0  0  0  0  0  0  0  0  0
   38.7020   32.5640   48.1170 C   0  0  0  0  0  0  0  0  0  0  0  0
   38.0530   31.7590   46.9610 C   0  0  1  0  0  0  0  0  0  0  0  0
   35.1030   30.2130   49.5380 C   0  0  0  0  0  0  0  0  0  0  0  0
   35.4400   29.5370   50.7490 C   0  0  0  0  0  0  0  0  0  0  0  0
   36.8420   29.4160   51.0800 C   0  0  0  0  0  0  0  0  0  0  0  0
   37.7670   29.9430   50.2350 N   0  0  0  0  0  0  0  0  0  0  0  0
   37.3670   30.5750   49.0960 C   0  0  0  0  0  0  0  0  0  0  0  0
   36.0480   30.7260   48.7200 N   0  0  0  0  0  0  0  0  0  0  0  0
   38.3470   31.9030   44.5110 C   0  0  0  0  0  0  0  0  0  0  0  0
   37.2330   32.4640   44.4150 O   0  0  0  0  0  0  0  0  0  0  0  0
   38.9270   31.6210   45.8080 N   0  0  0  0  0  0  0  0  0  0  0  0
   39.1350   31.4950   43.3140 C   0  0  0  0  0  0  0  0  0  0  0  0
   40.1090   30.5440   43.4550 C   0  0  0  0  0  0  0  0  0  0  0  0
   40.8180   30.2050   42.3120 C   0  0  0  0  0  0  0  0  0  0  0  0
   40.5040   30.8320   41.1290 C   0  0  0  0  0  0  0  0  0  0  0  0
   39.5150   31.7930   40.9950 C   0  0  0  0  0  0  0  0  0  0  0  0
   38.8620   32.0820   42.1280 N   0  0  0  0  0  0  0  0  0  0  0  0
   39.2130   32.4390   39.7000 C   0  0  0  0  0  0  0  0  0  0  0  0
   38.3090   33.6130   39.6480 C   0  0  0  0  0  0  0  0  0  0  0  0
   37.8170   32.2970   39.1410 C   0  0  0  0  0  0  0  0  0  0  0  0
   39.0838   30.2616   48.4406 H   0  0  0  0  0  0  0  0  0  0  0  0
   38.1037   33.2726   48.7086 H   0  0  0  0  0  0  0  0  0  0  0  0
   39.5763   33.2209   48.2359 H   0  0  0  0  0  0  0  0  0  0  0  0
   37.1210   31.7737   46.3769 H   0  0  0  0  0  0  0  0  0  0  0  0
   34.0433   30.3194   49.2627 H   0  0  0  0  0  0  0  0  0  0  0  0
   34.6613   29.1231   51.4065 H   0  0  0  0  0  0  0  0  0  0  0  0
   37.1556   28.9049   52.0022 H   0  0  0  0  0  0  0  0  0  0  0  0
   39.9118   31.3363   45.9084 H   0  0  0  0  0  0  0  0  0  0  0  0
   40.3191   30.0721   44.4262 H   0  0  0  0  0  0  0  0  0  0  0  0
   41.6162   29.4491   42.3511 H   0  0  0  0  0  0  0  0  0  0  0  0
   41.0749   30.5525   40.2312 H   0  0  0  0  0  0  0  0  0  0  0  0
   40.2326   32.2390   39.3390 H   0  0  0  0  0  0  0  0  0  0  0  0
   37.8979   34.0288   40.5797 H   0  0  0  0  0  0  0  0  0  0  0  0
   38.3820   34.6253   39.2238 H   0  0  0  0  0  0  0  0  0  0  0  0
   37.0515   31.7403   39.7015 H   0  0  0  0  0  0  0  0  0  0  0  0
   37.3850   31.9338   38.1968 H   0  0  0  0  0  0  0  0  0  0  0  0
  1  8  1  0
  2  1  1  0
  3  2  1  0
  3  1  1  0
  4  5  2  0
  5  6  1  0
  7  6  2  0
  8  7  1  0
  9  8  2  0
  9  4  1  0
 10 12  1  0
 11 10  2  0
 12  3  1  0
 13 14  2  0
 13 10  1  0
 15 14  1  0
 16 15  2  0
 17 16  1  0
 17 18  2  0
 18 13  1  0
 19 17  1  0
 20 19  1  0
 21 20  1  0
 21 19  1  0
  1 22  1  6
  2 23  1  0
  2 24  1  0
  3 25  1  6
  4 26  1  0
  5 27  1  0
  6 28  1  0
 12 29  1  0
 14 30  1  0
 15 31  1  0
 16 32  1  0
 19 33  1  0
 20 34  1  0
 20 35  1  0
 21 36  1  0
 21 37  1  0
M  ISO  8  22  13  23  13  24  13  25  13  26  14  27  14  28  14  30  14
M  ISO  7  31  14  32  14  33  13  34  13  35  13  36  13  37  13
M  END
>  <minimizedAffinity>  (1) 
-5.02417946

>  <minimizedRMSD>  (1) 
0.131870732

$$$$
