
     RDKit          3D

 27 29  0  0  0  0  0  0  0  0999 V2000
   38.6880   31.6460   49.0140 Cl  0  0  0  0  0  0  0  0  0  0  0  0
   37.3500   30.9140   48.1670 C   0  0  0  0  0  0  0  0  0  0  0  0
   37.3450   30.9030   46.7950 C   0  0  0  0  0  0  0  0  0  0  0  0
   36.3120   30.3410   46.1000 C   0  0  0  0  0  0  0  0  0  0  0  0
   35.2400   29.7660   46.7750 C   0  0  0  0  0  0  0  0  0  0  0  0
   35.2250   29.7680   48.1680 C   0  0  0  0  0  0  0  0  0  0  0  0
   33.9090   29.0880   49.0920 Cl  0  0  0  0  0  0  0  0  0  0  0  0
   36.2970   30.3500   48.8430 C   0  0  0  0  0  0  0  0  0  0  0  0
   39.3680   33.1550   44.7310 C   0  0  0  0  0  0  0  0  0  0  0  0
   40.6310   32.5370   44.7270 C   0  0  0  0  0  0  0  0  0  0  0  0
   40.7520   31.3400   45.4490 C   0  0  0  0  0  0  0  0  0  0  0  0
   39.6650   30.8570   46.0970 N   0  0  0  0  0  0  0  0  0  0  0  0
   38.4530   31.4950   46.0720 C   0  0  0  0  0  0  0  0  0  0  0  0
   38.3070   32.6500   45.3850 N   0  0  0  0  0  0  0  0  0  0  0  0
   36.4160   30.4340   50.3230 C   0  0  0  0  0  0  0  0  0  0  0  0
   37.2810   29.2870   50.8640 C   0  0  0  0  0  0  0  0  0  0  0  0
   35.8480   29.4920   51.2690 C   0  0  0  0  0  0  0  0  0  0  0  0
   36.3279   30.3431   45.0001 H   0  0  0  0  0  0  0  0  0  0  0  0
   34.4101   29.3130   46.2128 H   0  0  0  0  0  0  0  0  0  0  0  0
   39.2420   34.0948   44.1735 H   0  0  0  0  0  0  0  0  0  0  0  0
   41.4834   32.9711   44.1839 H   0  0  0  0  0  0  0  0  0  0  0  0
   41.7117   30.8038   45.4881 H   0  0  0  0  0  0  0  0  0  0  0  0
   36.3465   31.5318   50.3160 H   0  0  0  0  0  0  0  0  0  0  0  0
   37.5622   28.4455   50.2137 H   0  0  0  0  0  0  0  0  0  0  0  0
   38.2478   29.1961   51.3808 H   0  0  0  0  0  0  0  0  0  0  0  0
   35.6152   29.8236   52.2917 H   0  0  0  0  0  0  0  0  0  0  0  0
   34.9547   28.8501   51.2625 H   0  0  0  0  0  0  0  0  0  0  0  0
  2  8  2  0
  2  1  1  0
  3  2  1  0
  4  5  1  0
  4  3  2  0
  5  6  2  0
  6  8  1  0
  6  7  1  0
  8 15  1  0
  9 14  2  0
 10  9  1  0
 10 11  2  0
 11 12  1  0
 13 12  2  0
 13  3  1  0
 14 13  1  0
 15 16  1  0
 15 17  1  0
 16 17  1  0
  4 18  1  0
  5 19  1  0
  9 20  1  0
 10 21  1  0
 11 22  1  0
 15 23  1  0
 16 24  1  0
 16 25  1  0
 17 26  1  0
 17 27  1  0
M  ISO  8  18  14  19  14  20  14  21  14  22  14  23  13  24  13  25  13
M  ISO  2  26  13  27  13
M  END
>  <minimizedAffinity>  (1) 
-6.02829361

>  <minimizedRMSD>  (1) 
3.12646365

$$$$
