
     RDKit          3D

 37 39  0  0  0  0  0  0  0  0999 V2000
   37.3540   30.1670   51.6000 C   0  0  0  0  0  0  0  0  0  0  0  0
   38.0930   30.8530   50.6220 C   0  0  0  0  0  0  0  0  0  0  0  0
   37.7400   30.7230   49.2750 C   0  0  0  0  0  0  0  0  0  0  0  0
   36.6660   29.9040   49.0390 N   0  0  0  0  0  0  0  0  0  0  0  0
   35.9830   29.2660   49.9800 C   0  0  0  0  0  0  0  0  0  0  0  0
   36.3340   29.4030   51.2610 N   0  0  0  0  0  0  0  0  0  0  0  0
   38.9470   33.6260   49.3070 Cl  0  0  0  0  0  0  0  0  0  0  0  0
   38.9320   32.5400   47.9460 C   0  0  0  0  0  0  0  0  0  0  0  0
   38.3580   31.3100   48.1070 C   0  0  0  0  0  0  0  0  0  0  0  0
   38.3850   30.5610   46.9500 C   0  0  0  0  0  0  0  0  0  0  0  0
   38.9240   30.9960   45.7730 C   0  0  0  0  0  0  0  0  0  0  0  0
   39.4840   32.2400   45.6780 C   0  0  0  0  0  0  0  0  0  0  0  0
   39.4870   33.0350   46.8000 C   0  0  0  0  0  0  0  0  0  0  0  0
   34.8790   28.4460   49.5280 C   0  0  0  0  0  0  0  0  0  0  0  0
   34.2820   28.7580   48.4080 C   0  0  0  0  0  0  0  0  0  0  0  0
   33.1520   28.0710   47.7670 C   0  0  0  0  0  0  0  0  0  0  0  0
   33.5970   26.9270   46.9170 C   0  0  0  0  0  0  0  0  0  0  0  0
   33.7880   25.6200   47.3480 C   0  0  0  0  0  0  0  0  0  0  0  0
   34.2040   24.6510   46.4570 C   0  0  0  0  0  0  0  0  0  0  0  0
   34.4430   24.9560   45.1040 C   0  0  0  0  0  0  0  0  0  0  0  0
   34.2540   26.2580   44.6710 C   0  0  0  0  0  0  0  0  0  0  0  0
   33.8390   27.2230   45.5650 C   0  0  0  0  0  0  0  0  0  0  0  0
   37.6291   30.2682   52.6602 H   0  0  0  0  0  0  0  0  0  0  0  0
   38.9429   31.4876   50.9134 H   0  0  0  0  0  0  0  0  0  0  0  0
   37.9462   29.5527   46.9764 H   0  0  0  0  0  0  0  0  0  0  0  0
   38.9075   30.3383   44.8914 H   0  0  0  0  0  0  0  0  0  0  0  0
   39.9192   32.5942   44.7319 H   0  0  0  0  0  0  0  0  0  0  0  0
   39.9251   34.0437   46.7754 H   0  0  0  0  0  0  0  0  0  0  0  0
   34.5489   27.5769   50.1159 H   0  0  0  0  0  0  0  0  0  0  0  0
   34.6725   29.6414   47.8816 H   0  0  0  0  0  0  0  0  0  0  0  0
   32.4788   27.6904   48.5493 H   0  0  0  0  0  0  0  0  0  0  0  0
   32.6404   28.7961   47.1170 H   0  0  0  0  0  0  0  0  0  0  0  0
   33.6075   25.3570   48.4007 H   0  0  0  0  0  0  0  0  0  0  0  0
   34.3516   23.6202   46.8115 H   0  0  0  0  0  0  0  0  0  0  0  0
   34.7737   24.1750   44.4035 H   0  0  0  0  0  0  0  0  0  0  0  0
   34.4341   26.5214   43.6183 H   0  0  0  0  0  0  0  0  0  0  0  0
   33.6934   28.2537   45.2093 H   0  0  0  0  0  0  0  0  0  0  0  0
  2  1  2  0
  3  2  1  0
  4  3  2  0
  4  5  1  0
  5  6  2  0
  6  1  1  0
  8  9  2  0
  8  7  1  0
  9  3  1  0
 10  9  1  0
 11 10  2  0
 12 11  1  0
 12 13  2  0
 13  8  1  0
 14  5  1  0
 15 14  2  0
 16 15  1  0
 17 18  2  0
 17 16  1  0
 19 18  1  0
 20 19  2  0
 21 20  1  0
 21 22  2  0
 22 17  1  0
  1 23  1  0
  2 24  1  0
 10 25  1  0
 11 26  1  0
 12 27  1  0
 13 28  1  0
 14 29  1  0
 15 30  1  0
 16 31  1  0
 16 32  1  0
 18 33  1  0
 19 34  1  0
 20 35  1  0
 21 36  1  0
 22 37  1  0
M  ISO  8  23  14  24  14  25  14  26  14  27  14  28  14  31   8  32   8
M  ISO  5  33  14  34  14  35  14  36  14  37  14
M  END
>  <minimizedAffinity>  (1) 
-6.74262619

>  <minimizedRMSD>  (1) 
0.852387071

$$$$
