
     RDKit          3D

 44 46  0  0  1  0  0  0  0  0999 V2000
   37.7540   30.5210   51.0400 C   0  0  0  0  0  0  0  0  0  0  0  0
   38.1270   31.2600   49.8770 C   0  0  0  0  0  0  0  0  0  0  0  0
   37.4300   31.0150   48.6750 C   0  0  0  0  0  0  0  0  0  0  0  0
   36.4350   30.0840   48.6920 N   0  0  0  0  0  0  0  0  0  0  0  0
   36.1270   29.4150   49.8210 C   0  0  0  0  0  0  0  0  0  0  0  0
   36.7670   29.6200   50.9850 N   0  0  0  0  0  0  0  0  0  0  0  0
   37.5730   30.8490   46.2750 C   0  0  2  0  0  0  0  0  0  0  0  0
   37.7840   31.7630   47.4400 C   0  0  2  0  0  0  0  0  0  0  0  0
   39.1040   32.1630   47.5900 O   0  0  0  0  0  0  0  0  0  0  0  0
   39.7110   32.6350   46.4630 C   0  0  0  0  0  0  0  0  0  0  0  0
   38.8560   32.6480   45.2290 C   0  0  2  0  0  0  0  0  0  0  0  0
   38.3600   31.2250   45.0410 C   0  0  2  0  0  0  0  0  0  0  0  0
   36.2190   30.8670   45.9360 O   0  0  0  0  0  0  0  0  0  0  0  0
   39.6900   32.9740   44.1540 O   0  0  0  0  0  0  0  0  0  0  0  0
   37.6470   31.1000   43.8690 O   0  0  0  0  0  0  0  0  0  0  0  0
   35.0530   28.4400   49.7030 C   0  0  0  0  0  0  0  0  0  0  0  0
   34.4460   28.3280   48.5680 C   0  0  0  0  0  0  0  0  0  0  0  0
   33.3510   27.4160   48.1970 C   0  0  0  0  0  0  0  0  0  0  0  0
   33.7160   26.4460   47.1190 C   0  0  0  0  0  0  0  0  0  0  0  0
   33.9440   25.0990   47.2870 C   0  0  0  0  0  0  0  0  0  0  0  0
   34.2740   24.3220   46.1880 C   0  0  0  0  0  0  0  0  0  0  0  0
   34.3850   24.8610   44.9130 C   0  0  0  0  0  0  0  0  0  0  0  0
   34.1600   26.2050   44.7400 C   0  0  0  0  0  0  0  0  0  0  0  0
   33.8280   26.9930   45.8380 C   0  0  0  0  0  0  0  0  0  0  0  0
   38.2826   30.6939   51.9891 H   0  0  0  0  0  0  0  0  0  0  0  0
   38.9379   32.0022   49.9170 H   0  0  0  0  0  0  0  0  0  0  0  0
   37.9234   29.8563   46.5941 H   0  0  0  0  0  0  0  0  0  0  0  0
   37.1653   32.6559   47.2671 H   0  0  0  0  0  0  0  0  0  0  0  0
   40.0381   33.6666   46.6602 H   0  0  0  0  0  0  0  0  0  0  0  0
   40.5386   31.9420   46.2513 H   0  0  0  0  0  0  0  0  0  0  0  0
   38.0193   33.3587   45.2990 H   0  0  0  0  0  0  0  0  0  0  0  0
   39.1986   30.5211   44.9354 H   0  0  0  0  0  0  0  0  0  0  0  0
   35.6723   30.8743   46.7613 H   0  0  0  0  0  0  0  0  0  0  0  0
   40.5547   33.3120   44.4978 H   0  0  0  0  0  0  0  0  0  0  0  0
   36.6940   30.9329   44.0787 H   0  0  0  0  0  0  0  0  0  0  0  0
   34.7649   27.8133   50.5598 H   0  0  0  0  0  0  0  0  0  0  0  0
   34.7935   29.0040   47.7728 H   0  0  0  0  0  0  0  0  0  0  0  0
   33.0551   26.8469   49.0907 H   0  0  0  0  0  0  0  0  0  0  0  0
   32.5327   28.0384   47.8059 H   0  0  0  0  0  0  0  0  0  0  0  0
   33.8649   24.6432   48.2850 H   0  0  0  0  0  0  0  0  0  0  0  0
   34.4534   23.2460   46.3298 H   0  0  0  0  0  0  0  0  0  0  0  0
   34.6485   24.2229   44.0566 H   0  0  0  0  0  0  0  0  0  0  0  0
   34.2417   26.6556   43.7399 H   0  0  0  0  0  0  0  0  0  0  0  0
   33.6500   28.0690   45.6945 H   0  0  0  0  0  0  0  0  0  0  0  0
  2  1  2  0
  3  4  2  0
  3  2  1  0
  4  5  1  0
  5  6  2  0
  6  1  1  0
  7 13  1  0
  7  8  1  0
  8  9  1  0
  8  3  1  0
 10  9  1  0
 11 14  1  0
 11 10  1  0
 12 15  1  0
 12 11  1  0
 12  7  1  0
 16  5  1  0
 17 16  2  0
 18 17  1  0
 19 20  2  0
 19 18  1  0
 21 20  1  0
 22 21  2  0
 23 22  1  0
 23 24  2  0
 24 19  1  0
  1 25  1  0
  2 26  1  0
  7 27  1  1
  8 28  1  6
 10 29  1  0
 10 30  1  0
 11 31  1  1
 12 32  1  6
 13 33  1  0
 14 34  1  0
 15 35  1  0
 16 36  1  0
 17 37  1  0
 18 38  1  0
 18 39  1  0
 20 40  1  0
 21 41  1  0
 22 42  1  0
 23 43  1  0
 24 44  1  0
M  ISO  8  25  14  26  14  27  13  28  13  29  13  30  13  31  13  32  13
M  ISO  8  33   3  34   3  35   3  38   8  39   8  40  14  41  14  42  14
M  ISO  2  43  14  44  14
M  END
>  <minimizedAffinity>  (1) 
-6.44252348

>  <minimizedRMSD>  (1) 
1.06298959

$$$$
