
     RDKit          3D

 43 45  0  0  0  0  0  0  0  0999 V2000
   36.6350   29.6210   49.6010 C   0  0  0  0  0  0  0  0  0  0  0  0
   35.5420   29.3280   48.9450 C   0  0  0  0  0  0  0  0  0  0  0  0
   37.9800   33.0190   49.4160 C   0  0  0  0  0  0  0  0  0  0  0  0
   38.8040   32.9360   48.2760 C   0  0  0  0  0  0  0  0  0  0  0  0
   38.8740   31.7030   47.5970 C   0  0  0  0  0  0  0  0  0  0  0  0
   38.1440   30.6710   48.0830 N   0  0  0  0  0  0  0  0  0  0  0  0
   37.3670   30.7850   49.1780 C   0  0  0  0  0  0  0  0  0  0  0  0
   37.2990   31.9670   49.8280 N   0  0  0  0  0  0  0  0  0  0  0  0
   39.6900   31.4430   46.3820 C   0  0  0  0  0  0  0  0  0  0  0  0
   38.9090   30.6960   45.3270 C   0  0  0  0  0  0  0  0  0  0  0  0
   39.8330   30.6380   44.1040 C   0  0  0  0  0  0  0  0  0  0  0  0
   39.9530   31.9940   43.4540 C   0  0  0  0  0  0  0  0  0  0  0  0
   39.4660   33.0250   44.4350 C   0  0  0  0  0  0  0  0  0  0  0  0
   40.1740   32.7430   45.7540 C   0  0  0  0  0  0  0  0  0  0  0  0
   34.6230   28.1980   49.1810 C   0  0  0  0  0  0  0  0  0  0  0  0
   34.0990   27.6120   47.9120 C   0  0  0  0  0  0  0  0  0  0  0  0
   33.7600   26.2960   47.7360 C   0  0  0  0  0  0  0  0  0  0  0  0
   33.2830   25.8490   46.5200 C   0  0  0  0  0  0  0  0  0  0  0  0
   33.1350   26.7360   45.4360 C   0  0  0  0  0  0  0  0  0  0  0  0
   33.4720   28.0500   45.6060 C   0  0  0  0  0  0  0  0  0  0  0  0
   33.9480   28.4780   46.8360 C   0  0  0  0  0  0  0  0  0  0  0  0
   36.9806   29.0023   50.4423 H   0  0  0  0  0  0  0  0  0  0  0  0
   35.2763   30.0044   48.1192 H   0  0  0  0  0  0  0  0  0  0  0  0
   37.9040   33.9682   49.9666 H   0  0  0  0  0  0  0  0  0  0  0  0
   39.3759   33.8081   47.9262 H   0  0  0  0  0  0  0  0  0  0  0  0
   40.5429   30.8342   46.7167 H   0  0  0  0  0  0  0  0  0  0  0  0
   38.6656   29.6811   45.6744 H   0  0  0  0  0  0  0  0  0  0  0  0
   37.9542   31.1912   45.0963 H   0  0  0  0  0  0  0  0  0  0  0  0
   40.8308   30.3018   44.4223 H   0  0  0  0  0  0  0  0  0  0  0  0
   39.4051   29.9353   43.3738 H   0  0  0  0  0  0  0  0  0  0  0  0
   41.0036   32.1921   43.1951 H   0  0  0  0  0  0  0  0  0  0  0  0
   39.3533   32.0303   42.5326 H   0  0  0  0  0  0  0  0  0  0  0  0
   39.7163   34.0352   44.0788 H   0  0  0  0  0  0  0  0  0  0  0  0
   38.3736   32.9736   44.5534 H   0  0  0  0  0  0  0  0  0  0  0  0
   41.2560   32.6696   45.5700 H   0  0  0  0  0  0  0  0  0  0  0  0
   39.9490   33.5658   46.4485 H   0  0  0  0  0  0  0  0  0  0  0  0
   35.1617   27.4151   49.7349 H   0  0  0  0  0  0  0  0  0  0  0  0
   33.7640   28.5798   49.7523 H   0  0  0  0  0  0  0  0  0  0  0  0
   33.8690   25.5890   48.5716 H   0  0  0  0  0  0  0  0  0  0  0  0
   33.0158   24.7891   46.3965 H   0  0  0  0  0  0  0  0  0  0  0  0
   32.7544   26.3773   44.4683 H   0  0  0  0  0  0  0  0  0  0  0  0
   33.3664   28.7618   44.7740 H   0  0  0  0  0  0  0  0  0  0  0  0
   34.2147   29.5375   46.9641 H   0  0  0  0  0  0  0  0  0  0  0  0
  2 15  1  0
  2  1  2  0
  3  8  2  0
  4  3  1  0
  5  6  1  0
  5  4  2  0
  6  7  2  0
  7  1  1  0
  7  8  1  0
  9  5  1  0
 10  9  1  0
 11 10  1  0
 12 11  1  0
 12 13  1  0
 13 14  1  0
 14  9  1  0
 16 15  1  0
 17 16  2  0
 18 17  1  0
 19 20  1  0
 19 18  2  0
 20 21  2  0
 21 16  1  0
  1 22  1  0
  2 23  1  0
  3 24  1  0
  4 25  1  0
  9 26  1  0
 10 27  1  0
 10 28  1  0
 11 29  1  0
 11 30  1  0
 12 31  1  0
 12 32  1  0
 13 33  1  0
 13 34  1  0
 14 35  1  0
 14 36  1  0
 15 37  1  0
 15 38  1  0
 17 39  1  0
 18 40  1  0
 19 41  1  0
 20 42  1  0
 21 43  1  0
M  ISO  8  24  14  25  14  26  13  27  13  28  13  29  13  30  13  31  13
M  ISO  8  32  13  33  13  34  13  35  13  36  13  37   8  38   8  39  14
M  ISO  4  40  14  41  14  42  14  43  14
M  END
>  <minimizedAffinity>  (1) 
-6.40290308

>  <minimizedRMSD>  (1) 
2.4115088

$$$$
