
     RDKit          3D

 40 42  0  0  1  0  0  0  0  0999 V2000
   38.1420   31.0950   50.3850 C   0  0  0  0  0  0  0  0  0  0  0  0
   38.4450   31.6510   49.1230 C   0  0  0  0  0  0  0  0  0  0  0  0
   37.7110   31.1780   48.0150 C   0  0  0  0  0  0  0  0  0  0  0  0
   36.7570   30.2170   48.2240 N   0  0  0  0  0  0  0  0  0  0  0  0
   36.5220   29.7330   49.4590 C   0  0  0  0  0  0  0  0  0  0  0  0
   37.2030   30.1590   50.5440 N   0  0  0  0  0  0  0  0  0  0  0  0
   39.4080   32.2300   46.5740 C   0  0  1  0  0  0  0  0  0  0  0  0
   38.0100   31.7450   46.6790 C   0  0  1  0  0  0  0  0  0  0  0  0
   37.7710   30.8550   45.6540 O   0  0  0  0  0  0  0  0  0  0  0  0
   38.9770   30.3440   45.2270 C   0  0  0  0  0  0  0  0  0  0  0  0
   40.1000   31.1230   45.8180 C   0  0  1  0  0  0  0  0  0  0  0  0
   39.4940   33.4190   45.8620 O   0  0  0  0  0  0  0  0  0  0  0  0
   40.9630   31.6330   44.8570 O   0  0  0  0  0  0  0  0  0  0  0  0
   35.4970   28.7170   49.5400 C   0  0  0  0  0  0  0  0  0  0  0  0
   34.6610   28.5760   48.5720 C   0  0  0  0  0  0  0  0  0  0  0  0
   33.5550   27.6220   48.4170 C   0  0  0  0  0  0  0  0  0  0  0  0
   33.7400   26.6810   47.2650 C   0  0  0  0  0  0  0  0  0  0  0  0
   33.8340   25.3020   47.3700 C   0  0  0  0  0  0  0  0  0  0  0  0
   34.0030   24.5400   46.2220 C   0  0  0  0  0  0  0  0  0  0  0  0
   34.0820   25.1290   44.9610 C   0  0  0  0  0  0  0  0  0  0  0  0
   33.9890   26.5060   44.8590 C   0  0  0  0  0  0  0  0  0  0  0  0
   33.8200   27.2690   46.0090 C   0  0  0  0  0  0  0  0  0  0  0  0
   38.6983   31.4448   51.2671 H   0  0  0  0  0  0  0  0  0  0  0  0
   39.2217   32.4215   49.0084 H   0  0  0  0  0  0  0  0  0  0  0  0
   39.8485   32.4435   47.5591 H   0  0  0  0  0  0  0  0  0  0  0  0
   37.3215   32.5964   46.5732 H   0  0  0  0  0  0  0  0  0  0  0  0
   39.0585   29.2928   45.5407 H   0  0  0  0  0  0  0  0  0  0  0  0
   39.0292   30.4120   44.1303 H   0  0  0  0  0  0  0  0  0  0  0  0
   40.7412   30.4964   46.4553 H   0  0  0  0  0  0  0  0  0  0  0  0
   39.5490   34.1789   46.4941 H   0  0  0  0  0  0  0  0  0  0  0  0
   41.7242   32.0828   45.3024 H   0  0  0  0  0  0  0  0  0  0  0  0
   35.4319   28.0673   50.4252 H   0  0  0  0  0  0  0  0  0  0  0  0
   34.7949   29.2757   47.7339 H   0  0  0  0  0  0  0  0  0  0  0  0
   33.4720   27.0307   49.3408 H   0  0  0  0  0  0  0  0  0  0  0  0
   32.6457   28.2076   48.2163 H   0  0  0  0  0  0  0  0  0  0  0  0
   33.7752   24.8155   48.3548 H   0  0  0  0  0  0  0  0  0  0  0  0
   34.0763   23.4459   46.3094 H   0  0  0  0  0  0  0  0  0  0  0  0
   34.2160   24.5095   44.0619 H   0  0  0  0  0  0  0  0  0  0  0  0
   34.0484   26.9936   43.8748 H   0  0  0  0  0  0  0  0  0  0  0  0
   33.7480   28.3632   45.9222 H   0  0  0  0  0  0  0  0  0  0  0  0
  1  6  2  0
  2  1  1  0
  3  4  1  0
  3  2  2  0
  4  5  2  0
  5 14  1  0
  5  6  1  0
  7 12  1  0
  7  8  1  0
  8  3  1  0
  9  8  1  0
 10  9  1  0
 10 11  1  0
 11 13  1  0
 11  7  1  0
 15 14  2  0
 16 15  1  0
 17 18  2  0
 17 16  1  0
 19 18  1  0
 20 19  2  0
 21 20  1  0
 21 22  2  0
 22 17  1  0
  1 23  1  0
  2 24  1  0
  7 25  1  1
  8 26  1  6
 10 27  1  0
 10 28  1  0
 11 29  1  1
 12 30  1  0
 13 31  1  0
 14 32  1  0
 15 33  1  0
 16 34  1  0
 16 35  1  0
 18 36  1  0
 19 37  1  0
 20 38  1  0
 21 39  1  0
 22 40  1  0
M  ISO  8  23  14  24  14  25  13  26  13  27  13  28  13  29  13  30   3
M  ISO  8  31   3  34   8  35   8  36  14  37  14  38  14  39  14  40  14
M  END
>  <minimizedAffinity>  (1) 
-6.26027203

>  <minimizedRMSD>  (1) 
1.52981639

$$$$
