
     RDKit          3D

 35 37  0  0  0  0  0  0  0  0999 V2000
   36.8230   29.4600   49.5290 C   0  0  0  0  0  0  0  0  0  0  0  0
   35.5930   29.3050   49.1310 C   0  0  0  0  0  0  0  0  0  0  0  0
   38.3640   32.7760   49.5850 C   0  0  0  0  0  0  0  0  0  0  0  0
   38.8870   32.8780   48.2760 C   0  0  0  0  0  0  0  0  0  0  0  0
   38.6810   31.7770   47.4180 C   0  0  0  0  0  0  0  0  0  0  0  0
   38.0040   30.7070   47.8960 N   0  0  0  0  0  0  0  0  0  0  0  0
   37.5260   30.6660   49.1550 C   0  0  0  0  0  0  0  0  0  0  0  0
   37.7100   31.7040   49.9940 N   0  0  0  0  0  0  0  0  0  0  0  0
   39.2060   31.8420   46.0590 C   0  0  0  0  0  0  0  0  0  0  0  0
   40.3190   31.1060   45.7290 C   0  0  0  0  0  0  0  0  0  0  0  0
   40.7040   31.2670   44.4010 C   0  0  0  0  0  0  0  0  0  0  0  0
   40.0720   32.0510   43.5180 N   0  0  0  0  0  0  0  0  0  0  0  0
   38.9980   32.7380   43.9030 C   0  0  0  0  0  0  0  0  0  0  0  0
   38.5630   32.6330   45.1830 N   0  0  0  0  0  0  0  0  0  0  0  0
   34.7020   28.1670   49.3940 C   0  0  0  0  0  0  0  0  0  0  0  0
   33.9060   27.7830   48.1800 C   0  0  0  0  0  0  0  0  0  0  0  0
   33.7110   26.5010   47.7360 C   0  0  0  0  0  0  0  0  0  0  0  0
   32.9620   26.2440   46.6060 C   0  0  0  0  0  0  0  0  0  0  0  0
   32.3810   27.3030   45.8840 C   0  0  0  0  0  0  0  0  0  0  0  0
   32.5690   28.5860   46.3190 C   0  0  0  0  0  0  0  0  0  0  0  0
   33.3200   28.8220   47.4480 C   0  0  0  0  0  0  0  0  0  0  0  0
   37.3171   28.6885   50.1377 H   0  0  0  0  0  0  0  0  0  0  0  0
   35.1716   30.1220   48.5270 H   0  0  0  0  0  0  0  0  0  0  0  0
   38.5058   33.6139   50.2835 H   0  0  0  0  0  0  0  0  0  0  0  0
   39.4297   33.7744   47.9415 H   0  0  0  0  0  0  0  0  0  0  0  0
   40.8504   30.4570   46.4406 H   0  0  0  0  0  0  0  0  0  0  0  0
   41.5879   30.7123   44.0530 H   0  0  0  0  0  0  0  0  0  0  0  0
   38.4682   33.3852   43.1886 H   0  0  0  0  0  0  0  0  0  0  0  0
   35.3097   27.3053   49.7073 H   0  0  0  0  0  0  0  0  0  0  0  0
   33.9957   28.4640   50.1832 H   0  0  0  0  0  0  0  0  0  0  0  0
   34.1592   25.6629   48.2898 H   0  0  0  0  0  0  0  0  0  0  0  0
   32.8185   25.2071   46.2681 H   0  0  0  0  0  0  0  0  0  0  0  0
   31.7840   27.1017   44.9823 H   0  0  0  0  0  0  0  0  0  0  0  0
   32.1214   29.4265   45.7683 H   0  0  0  0  0  0  0  0  0  0  0  0
   33.4641   29.8590   47.7853 H   0  0  0  0  0  0  0  0  0  0  0  0
  2 15  1  0
  2  1  2  0
  3  8  2  0
  4  3  1  0
  5  6  1  0
  5  4  2  0
  6  7  2  0
  7  1  1  0
  7  8  1  0
  9  5  1  0
 10  9  2  0
 11 10  1  0
 12 13  1  0
 12 11  2  0
 13 14  2  0
 14  9  1  0
 16 15  1  0
 17 16  2  0
 18 17  1  0
 19 20  1  0
 19 18  2  0
 20 21  2  0
 21 16  1  0
  1 22  1  0
  2 23  1  0
  3 24  1  0
  4 25  1  0
 10 26  1  0
 11 27  1  0
 13 28  1  0
 15 29  1  0
 15 30  1  0
 17 31  1  0
 18 32  1  0
 19 33  1  0
 20 34  1  0
 21 35  1  0
M  ISO  8  24  14  25  14  26  14  27  14  28  14  29   8  30   8  31  14
M  ISO  4  32  14  33  14  34  14  35  14
M  END
>  <minimizedAffinity>  (1) 
-6.17589474

>  <minimizedRMSD>  (1) 
2.55835199

$$$$
