
     RDKit          3D

 30 31  0  0  0  0  0  0  0  0999 V2000
   33.1930   27.5940   47.9900 C   0  0  0  0  0  0  0  0  0  0  0  0
   33.6270   26.5200   47.0420 C   0  0  0  0  0  0  0  0  0  0  0  0
   33.8320   25.1920   47.3740 C   0  0  0  0  0  0  0  0  0  0  0  0
   34.2310   24.2880   46.4100 C   0  0  0  0  0  0  0  0  0  0  0  0
   34.4350   24.6840   45.0930 C   0  0  0  0  0  0  0  0  0  0  0  0
   34.2340   25.9930   44.7560 C   0  0  0  0  0  0  0  0  0  0  0  0
   33.8350   26.9040   45.7120 C   0  0  0  0  0  0  0  0  0  0  0  0
   34.9260   28.3020   49.6330 C   0  0  0  0  0  0  0  0  0  0  0  0
   34.3130   28.3990   48.4960 C   0  0  0  0  0  0  0  0  0  0  0  0
   37.4700   30.2850   51.3520 C   0  0  0  0  0  0  0  0  0  0  0  0
   38.1260   30.9180   50.2750 C   0  0  0  0  0  0  0  0  0  0  0  0
   37.6620   30.6410   48.9730 C   0  0  0  0  0  0  0  0  0  0  0  0
   36.6040   29.7740   48.8240 N   0  0  0  0  0  0  0  0  0  0  0  0
   36.0310   29.2080   49.9060 C   0  0  0  0  0  0  0  0  0  0  0  0
   36.4570   29.4590   51.1650 N   0  0  0  0  0  0  0  0  0  0  0  0
   38.2900   31.2640   47.7840 C   0  0  0  0  0  0  0  0  0  0  0  0
   37.3740   31.9820   47.0340 F   0  0  0  0  0  0  0  0  0  0  0  0
   39.2750   32.1160   48.2060 F   0  0  0  0  0  0  0  0  0  0  0  0
   38.7950   30.3050   46.9150 F   0  0  0  0  0  0  0  0  0  0  0  0
   32.6853   27.1231   48.8447 H   0  0  0  0  0  0  0  0  0  0  0  0
   32.5243   28.2705   47.4375 H   0  0  0  0  0  0  0  0  0  0  0  0
   33.6764   24.8557   48.4097 H   0  0  0  0  0  0  0  0  0  0  0  0
   34.3903   23.2359   46.6888 H   0  0  0  0  0  0  0  0  0  0  0  0
   34.7534   23.9546   44.3337 H   0  0  0  0  0  0  0  0  0  0  0  0
   34.3910   26.3216   43.7181 H   0  0  0  0  0  0  0  0  0  0  0  0
   33.6771   27.9536   45.4233 H   0  0  0  0  0  0  0  0  0  0  0  0
   34.6179   27.5513   50.3756 H   0  0  0  0  0  0  0  0  0  0  0  0
   34.6788   29.1870   47.8212 H   0  0  0  0  0  0  0  0  0  0  0  0
   37.8127   30.4856   52.3778 H   0  0  0  0  0  0  0  0  0  0  0  0
   38.9695   31.6032   50.4453 H   0  0  0  0  0  0  0  0  0  0  0  0
  1  9  1  0
  2  3  2  0
  2  1  1  0
  4  3  1  0
  5  4  2  0
  6  5  1  0
  6  7  2  0
  7  2  1  0
  8 14  1  0
  9  8  2  0
 11 10  2  0
 12 11  1  0
 13 12  2  0
 13 14  1  0
 14 15  2  0
 15 10  1  0
 16 18  1  0
 16 12  1  0
 17 16  1  0
 19 16  1  0
  1 20  1  0
  1 21  1  0
  3 22  1  0
  4 23  1  0
  5 24  1  0
  6 25  1  0
  7 26  1  0
  8 27  1  0
  9 28  1  0
 10 29  1  0
 11 30  1  0
M  ISO  8  20   8  21   8  22  14  23  14  24  14  25  14  26  14  29  14
M  ISO  1  30  14
M  END
>  <minimizedAffinity>  (1) 
-5.52893877

>  <minimizedRMSD>  (1) 
0.384235531

$$$$
