
     RDKit          3D

 33 34  0  0  0  0  0  0  0  0999 V2000
   33.2850   27.3620   48.0250 C   0  0  0  0  0  0  0  0  0  0  0  0
   33.7090   26.3200   47.0460 C   0  0  0  0  0  0  0  0  0  0  0  0
   33.9510   24.9910   47.3350 C   0  0  0  0  0  0  0  0  0  0  0  0
   34.3380   24.1270   46.3290 C   0  0  0  0  0  0  0  0  0  0  0  0
   34.4980   24.5550   45.0140 C   0  0  0  0  0  0  0  0  0  0  0  0
   34.2590   25.8810   44.7150 C   0  0  0  0  0  0  0  0  0  0  0  0
   33.8710   26.7390   45.7270 C   0  0  0  0  0  0  0  0  0  0  0  0
   34.8370   28.3250   49.7360 C   0  0  0  0  0  0  0  0  0  0  0  0
   34.3910   28.1790   48.5340 C   0  0  0  0  0  0  0  0  0  0  0  0
   37.4500   30.3010   51.3600 C   0  0  0  0  0  0  0  0  0  0  0  0
   38.1320   30.8480   50.2500 C   0  0  0  0  0  0  0  0  0  0  0  0
   37.6530   30.5120   48.9590 C   0  0  0  0  0  0  0  0  0  0  0  0
   36.5720   29.6850   48.8680 N   0  0  0  0  0  0  0  0  0  0  0  0
   35.9690   29.1970   49.9690 C   0  0  0  0  0  0  0  0  0  0  0  0
   36.3950   29.4950   51.2150 N   0  0  0  0  0  0  0  0  0  0  0  0
   38.3310   31.0600   47.7560 C   0  0  0  0  0  0  0  0  0  0  0  0
   38.7960   32.4940   47.9610 C   0  0  0  0  0  0  0  0  0  0  0  0
   32.8024   26.8615   48.8774 H   0  0  0  0  0  0  0  0  0  0  0  0
   32.6016   28.0415   47.4947 H   0  0  0  0  0  0  0  0  0  0  0  0
   33.8357   24.6213   48.3646 H   0  0  0  0  0  0  0  0  0  0  0  0
   34.5250   23.0710   46.5739 H   0  0  0  0  0  0  0  0  0  0  0  0
   34.8088   23.8502   44.2287 H   0  0  0  0  0  0  0  0  0  0  0  0
   34.3757   26.2501   43.6854 H   0  0  0  0  0  0  0  0  0  0  0  0
   33.6826   27.7945   45.4813 H   0  0  0  0  0  0  0  0  0  0  0  0
   34.3626   27.7931   50.5739 H   0  0  0  0  0  0  0  0  0  0  0  0
   34.9261   28.7605   47.7688 H   0  0  0  0  0  0  0  0  0  0  0  0
   37.7985   30.5464   52.3741 H   0  0  0  0  0  0  0  0  0  0  0  0
   39.0011   31.5091   50.3826 H   0  0  0  0  0  0  0  0  0  0  0  0
   37.6282   31.0331   46.9102 H   0  0  0  0  0  0  0  0  0  0  0  0
   39.2194   30.4421   47.5584 H   0  0  0  0  0  0  0  0  0  0  0  0
   38.8650   32.7067   49.0380 H   0  0  0  0  0  0  0  0  0  0  0  0
   39.7840   32.6290   47.4966 H   0  0  0  0  0  0  0  0  0  0  0  0
   38.0753   33.1831   47.4966 H   0  0  0  0  0  0  0  0  0  0  0  0
  1  9  1  0
  2  3  2  0
  2  1  1  0
  4  3  1  0
  5  4  2  0
  6  5  1  0
  6  7  2  0
  7  2  1  0
  8 14  1  0
  9  8  2  0
 11 10  2  0
 12 11  1  0
 13 12  2  0
 13 14  1  0
 14 15  2  0
 15 10  1  0
 16 17  1  0
 16 12  1  0
  1 18  1  0
  1 19  1  0
  3 20  1  0
  4 21  1  0
  5 22  1  0
  6 23  1  0
  7 24  1  0
  8 25  1  0
  9 26  1  0
 10 27  1  0
 11 28  1  0
 16 29  1  0
 16 30  1  0
 17 31  1  0
 17 32  1  0
 17 33  1  0
M  ISO  8  18   8  19   8  20  14  21  14  22  14  23  14  24  14  27  14
M  ISO  6  28  14  29   8  30   8  31   8  32   8  33   8
M  END
>  <minimizedAffinity>  (1) 
-5.2313323

>  <minimizedRMSD>  (1) 
0.399144918

$$$$
