
     RDKit          3D

 29 30  0  0  0  0  0  0  0  0999 V2000
   35.6440   30.0970   46.3040 O   0  0  0  0  0  0  0  0  0  0  0  0
   34.4670   29.7510   47.1940 P   0  0  1  0  0  0  0  0  0  0  0  0
   34.4230   28.0870   47.5260 O   0  0  0  0  0  0  0  0  0  0  0  0
   34.5350   30.5650   48.6890 O   0  0  0  0  0  0  0  0  0  0  0  0
   35.6350   30.4590   49.5380 C   0  0  0  0  0  0  0  0  0  0  0  0
   35.7850   29.5330   50.5790 C   0  0  0  0  0  0  0  0  0  0  0  0
   36.9500   29.5800   51.3180 C   0  0  0  0  0  0  0  0  0  0  0  0
   37.8950   30.4940   51.0270 N   0  0  0  0  0  0  0  0  0  0  0  0
   37.7190   31.3850   50.0030 C   0  0  0  0  0  0  0  0  0  0  0  0
   36.5810   31.3620   49.2600 N   0  0  0  0  0  0  0  0  0  0  0  0
   33.0790   30.2200   46.3490 O   0  0  0  0  0  0  0  0  0  0  0  0
   32.0040   29.3080   46.3120 C   0  0  0  0  0  0  0  0  0  0  0  0
   31.1530   29.0030   45.2840 C   0  0  0  0  0  0  0  0  0  0  0  0
   30.2950   28.0740   45.7350 N   0  0  0  0  0  0  0  0  0  0  0  0
   30.5720   27.7770   47.0190 C   0  0  0  0  0  0  0  0  0  0  0  0
   31.6220   28.5370   47.3700 N   0  0  0  0  0  0  0  0  0  0  0  0
   29.9290   26.8280   47.9640 C   0  0  0  0  0  0  0  0  0  0  0  0
   30.0730   27.3320   49.4050 C   0  0  0  0  0  0  0  0  0  0  0  0
   34.4193   27.9460   48.5059 H   0  0  0  0  0  0  0  0  0  0  0  0
   35.0010   28.7937   50.7998 H   0  0  0  0  0  0  0  0  0  0  0  0
   37.1063   28.8710   52.1444 H   0  0  0  0  0  0  0  0  0  0  0  0
   38.5029   32.1238   49.7801 H   0  0  0  0  0  0  0  0  0  0  0  0
   31.1692   29.4389   44.2742 H   0  0  0  0  0  0  0  0  0  0  0  0
   29.5369   27.6509   45.1808 H   0  0  0  0  0  0  0  0  0  0  0  0
   28.8611   26.7370   47.7164 H   0  0  0  0  0  0  0  0  0  0  0  0
   30.4209   25.8480   47.8769 H   0  0  0  0  0  0  0  0  0  0  0  0
   29.8397   26.5154   50.1041 H   0  0  0  0  0  0  0  0  0  0  0  0
   31.1049   27.6743   49.5723 H   0  0  0  0  0  0  0  0  0  0  0  0
   29.3777   28.1678   49.5723 H   0  0  0  0  0  0  0  0  0  0  0  0
  2  1  2  0
  2  3  1  0
  2  4  1  0
  4  5  1  0
  5  6  2  0
  6  7  1  0
  8  7  2  0
  9  8  1  0
 10  5  1  0
 10  9  2  0
 11  2  1  0
 12 11  1  0
 12 16  1  0
 13 14  1  0
 13 12  2  0
 14 15  1  0
 15 16  2  0
 15 17  1  0
 17 18  1  0
  3 19  1  0
  6 20  1  0
  7 21  1  0
  9 22  1  0
 13 23  1  0
 14 24  1  0
 17 25  1  0
 17 26  1  0
 18 27  1  0
 18 28  1  0
 18 29  1  0
M  ISO  8  19   3  20  14  21  14  22  14  23  14  24   9  25   8  26   8
M  ISO  3  27   8  28   8  29   8
M  END
>  <minimizedAffinity>  (1) 
-4.02846241

>  <minimizedRMSD>  (1) 
0.548889041

$$$$
