
     RDKit          3D

 40 43  0  0  0  0  0  0  0  0999 V2000
   32.8560   27.7700   48.6250 C   0  0  0  0  0  0  0  0  0  0  0  0
   33.2350   26.9490   47.4460 C   0  0  0  0  0  0  0  0  0  0  0  0
   33.7940   25.6780   47.5780 C   0  0  0  0  0  0  0  0  0  0  0  0
   34.1550   24.9270   46.4970 C   0  0  0  0  0  0  0  0  0  0  0  0
   33.9740   25.4110   45.2200 C   0  0  0  0  0  0  0  0  0  0  0  0
   33.4320   26.6420   45.0900 C   0  0  0  0  0  0  0  0  0  0  0  0
   33.0510   27.4360   46.1630 C   0  0  0  0  0  0  0  0  0  0  0  0
   32.4660   28.7580   45.9170 C   0  0  0  0  0  0  0  0  0  0  0  0
   33.2840   29.8830   45.6710 C   0  0  0  0  0  0  0  0  0  0  0  0
   32.0640   31.2690   45.4320 S   0  0  0  0  0  0  0  0  0  0  0  0
   30.6390   30.0520   45.7160 C   0  0  0  0  0  0  0  0  0  0  0  0
   31.2220   29.1270   45.8810 N   0  0  0  0  0  0  0  0  0  0  0  0
   35.2360   28.3200   49.0520 C   0  0  0  0  0  0  0  0  0  0  0  0
   33.9560   28.5800   49.1750 C   0  0  0  0  0  0  0  0  0  0  0  0
   37.2900   30.1280   51.4690 C   0  0  0  0  0  0  0  0  0  0  0  0
   38.0160   30.9990   50.6340 C   0  0  0  0  0  0  0  0  0  0  0  0
   37.7740   30.9350   49.2490 C   0  0  0  0  0  0  0  0  0  0  0  0
   36.8490   30.0340   48.7860 N   0  0  0  0  0  0  0  0  0  0  0  0
   36.1870   29.2260   49.6560 C   0  0  0  0  0  0  0  0  0  0  0  0
   36.4030   29.2720   50.9700 N   0  0  0  0  0  0  0  0  0  0  0  0
   38.4630   31.7920   48.2720 C   0  0  0  0  0  0  0  0  0  0  0  0
   38.7980   31.3620   47.0140 C   0  0  0  0  0  0  0  0  0  0  0  0
   39.4340   32.4340   46.3680 C   0  0  0  0  0  0  0  0  0  0  0  0
   39.4540   33.4640   47.2640 N   0  0  0  0  0  0  0  0  0  0  0  0
   38.8690   33.0610   48.3940 N   0  0  0  0  0  0  0  0  0  0  0  0
   32.4968   27.0941   49.4150 H   0  0  0  0  0  0  0  0  0  0  0  0
   32.0838   28.4753   48.2841 H   0  0  0  0  0  0  0  0  0  0  0  0
   33.9490   25.2673   48.5866 H   0  0  0  0  0  0  0  0  0  0  0  0
   34.5932   23.9292   46.6464 H   0  0  0  0  0  0  0  0  0  0  0  0
   34.2600   24.8176   44.3391 H   0  0  0  0  0  0  0  0  0  0  0  0
   33.2841   27.0380   44.0745 H   0  0  0  0  0  0  0  0  0  0  0  0
   34.3823   29.9293   45.6303 H   0  0  0  0  0  0  0  0  0  0  0  0
   29.5515   30.2173   45.7165 H   0  0  0  0  0  0  0  0  0  0  0  0
   35.5783   27.4316   48.5011 H   0  0  0  0  0  0  0  0  0  0  0  0
   33.6799   29.4832   49.7390 H   0  0  0  0  0  0  0  0  0  0  0  0
   37.4599   30.1562   52.5554 H   0  0  0  0  0  0  0  0  0  0  0  0
   38.7483   31.7063   51.0506 H   0  0  0  0  0  0  0  0  0  0  0  0
   38.6049   30.3652   46.5907 H   0  0  0  0  0  0  0  0  0  0  0  0
   39.8360   32.4424   45.3441 H   0  0  0  0  0  0  0  0  0  0  0  0
   39.8545   34.3979   47.0957 H   0  0  0  0  0  0  0  0  0  0  0  0
  1 14  1  0
  2  3  2  0
  2  1  1  0
  4  3  1  0
  5  4  2  0
  6  5  1  0
  6  7  2  0
  7  2  1  0
  8  7  1  0
  9  8  2  0
 10  9  1  0
 10 11  1  0
 11 12  2  0
 12  8  1  0
 13 14  2  0
 13 19  1  0
 16 15  2  0
 17 16  1  0
 18 17  2  0
 18 19  1  0
 19 20  2  0
 20 15  1  0
 21 25  2  0
 21 17  1  0
 22 21  1  0
 23 22  2  0
 23 24  1  0
 24 25  1  0
  1 26  1  0
  1 27  1  0
  3 28  1  0
  4 29  1  0
  5 30  1  0
  6 31  1  0
  9 32  1  0
 11 33  1  0
 13 34  1  0
 14 35  1  0
 15 36  1  0
 16 37  1  0
 22 38  1  0
 23 39  1  0
 24 40  1  0
M  ISO  8  26   8  27   8  28  14  29  14  30  14  31  14  32  14  33  14
M  ISO  5  36  14  37  14  38  14  39  14  40   9
M  END
>  <minimizedAffinity>  (1) 
-6.3333025

>  <minimizedRMSD>  (1) 
1.15418732

$$$$
