
     RDKit          3D

 24 25  0  0  0  0  0  0  0  0999 V2000
   35.6270   30.1580   46.4310 O   0  0  0  0  0  0  0  0  0  0  0  0
   34.4330   29.8520   47.2990 P   0  0  1  0  0  0  0  0  0  0  0  0
   34.2740   28.1780   47.5580 O   0  0  0  0  0  0  0  0  0  0  0  0
   34.5480   30.5900   48.8330 O   0  0  0  0  0  0  0  0  0  0  0  0
   35.6830   30.4700   49.6220 C   0  0  0  0  0  0  0  0  0  0  0  0
   35.8970   29.5180   50.6400 C   0  0  0  0  0  0  0  0  0  0  0  0
   37.0950   29.5570   51.3170 C   0  0  0  0  0  0  0  0  0  0  0  0
   38.0190   30.4860   50.9990 N   0  0  0  0  0  0  0  0  0  0  0  0
   37.7830   31.3950   50.0060 C   0  0  0  0  0  0  0  0  0  0  0  0
   36.6190   31.3840   49.3230 N   0  0  0  0  0  0  0  0  0  0  0  0
   33.0710   30.4500   46.4820 O   0  0  0  0  0  0  0  0  0  0  0  0
   32.0860   29.5340   46.1250 C   0  0  0  0  0  0  0  0  0  0  0  0
   31.4610   29.3070   44.9090 C   0  0  0  0  0  0  0  0  0  0  0  0
   30.5850   28.3240   45.0550 N   0  0  0  0  0  0  0  0  0  0  0  0
   30.6030   27.8900   46.3210 C   0  0  0  0  0  0  0  0  0  0  0  0
   31.5240   28.6310   46.9770 N   0  0  0  0  0  0  0  0  0  0  0  0
   29.5930   26.5830   46.9780 S   0  0  0  0  0  0  0  0  0  0  0  0
   34.2566   27.9948   48.5307 H   0  0  0  0  0  0  0  0  0  0  0  0
   35.1308   28.7678   50.8854 H   0  0  0  0  0  0  0  0  0  0  0  0
   37.2984   28.8303   52.1173 H   0  0  0  0  0  0  0  0  0  0  0  0
   38.5504   32.1440   49.7607 H   0  0  0  0  0  0  0  0  0  0  0  0
   31.6598   29.8536   43.9754 H   0  0  0  0  0  0  0  0  0  0  0  0
   29.9820   27.9506   44.3081 H   0  0  0  0  0  0  0  0  0  0  0  0
   29.6254   26.6250   48.3470 H   0  0  0  0  0  0  0  0  0  0  0  0
  2  1  2  0
  2  3  1  0
  2  4  1  0
  4  5  1  0
  5  6  2  0
  6  7  1  0
  8  7  2  0
  9  8  1  0
 10  5  1  0
 10  9  2  0
 11  2  1  0
 12 11  1  0
 12 16  1  0
 13 14  1  0
 13 12  2  0
 14 15  1  0
 15 16  2  0
 15 17  1  0
  3 18  1  0
  6 19  1  0
  7 20  1  0
  9 21  1  0
 13 22  1  0
 14 23  1  0
 17 24  1  0
M  ISO  7  18   3  19  14  20  14  21  14  22  14  23   9  24  11
M  END
>  <minimizedAffinity>  (1) 
-3.90910625

>  <minimizedRMSD>  (1) 
0.0862872452

$$$$
