
     RDKit          3D

 25 26  0  0  0  0  0  0  0  0999 V2000
   35.5330   30.0800   46.3730 O   0  0  0  0  0  0  0  0  0  0  0  0
   34.3690   29.7620   47.3060 P   0  0  1  0  0  0  0  0  0  0  0  0
   34.2910   28.0940   47.6320 O   0  0  0  0  0  0  0  0  0  0  0  0
   34.5030   30.5670   48.8070 O   0  0  0  0  0  0  0  0  0  0  0  0
   35.6480   30.4600   49.5990 C   0  0  0  0  0  0  0  0  0  0  0  0
   35.8680   29.5280   50.6200 C   0  0  0  0  0  0  0  0  0  0  0  0
   37.0710   29.5810   51.2940 C   0  0  0  0  0  0  0  0  0  0  0  0
   37.9970   30.5170   50.9610 N   0  0  0  0  0  0  0  0  0  0  0  0
   37.7460   31.4090   49.9590 C   0  0  0  0  0  0  0  0  0  0  0  0
   36.5790   31.3880   49.2750 N   0  0  0  0  0  0  0  0  0  0  0  0
   32.9630   30.2800   46.5240 O   0  0  0  0  0  0  0  0  0  0  0  0
   31.9860   29.3040   46.2680 C   0  0  0  0  0  0  0  0  0  0  0  0
   31.3150   29.0270   45.0940 C   0  0  0  0  0  0  0  0  0  0  0  0
   30.4790   28.0160   45.3170 N   0  0  0  0  0  0  0  0  0  0  0  0
   30.5770   27.6200   46.5940 C   0  0  0  0  0  0  0  0  0  0  0  0
   31.5050   28.4160   47.1700 N   0  0  0  0  0  0  0  0  0  0  0  0
   29.9300   26.6040   47.3590 N   0  0  0  0  0  0  0  0  0  0  0  0
   34.2842   27.9491   48.6113 H   0  0  0  0  0  0  0  0  0  0  0  0
   35.1062   28.7772   50.8769 H   0  0  0  0  0  0  0  0  0  0  0  0
   37.2802   28.8643   52.1019 H   0  0  0  0  0  0  0  0  0  0  0  0
   38.5077   32.1600   49.7025 H   0  0  0  0  0  0  0  0  0  0  0  0
   31.4486   29.5525   44.1369 H   0  0  0  0  0  0  0  0  0  0  0  0
   29.8511   27.6003   44.6142 H   0  0  0  0  0  0  0  0  0  0  0  0
   30.1696   26.4762   48.3526 H   0  0  0  0  0  0  0  0  0  0  0  0
   29.2233   25.9984   46.9177 H   0  0  0  0  0  0  0  0  0  0  0  0
  2  1  2  0
  2  3  1  0
  2  4  1  0
  4  5  1  0
  5  6  2  0
  6  7  1  0
  8  7  2  0
  9  8  1  0
 10  5  1  0
 10  9  2  0
 11  2  1  0
 12 11  1  0
 12 16  1  0
 13 14  1  0
 13 12  2  0
 14 15  1  0
 15 16  2  0
 15 17  1  0
  3 18  1  0
  6 19  1  0
  7 20  1  0
  9 21  1  0
 13 22  1  0
 14 23  1  0
 17 24  1  0
 17 25  1  0
M  ISO  6  18   3  19  14  20  14  21  14  22  14  23   9
M  END
>  <minimizedAffinity>  (1) 
-3.90733981

>  <minimizedRMSD>  (1) 
0.313321769

$$$$
