
     RDKit          3D

 38 40  0  0  1  0  0  0  0  0999 V2000
   35.1250   29.9590   46.6760 C   0  0  0  0  0  0  0  0  0  0  0  0
   36.3960   30.5960   46.7260 C   0  0  0  0  0  0  0  0  0  0  0  0
   37.0720   30.7000   45.5220 C   0  0  0  0  0  0  0  0  0  0  0  0
   36.5110   30.2050   44.3800 N   0  0  0  0  0  0  0  0  0  0  0  0
   35.3070   29.6120   44.3840 C   0  0  0  0  0  0  0  0  0  0  0  0
   34.6180   29.4910   45.5310 N   0  0  0  0  0  0  0  0  0  0  0  0
   36.8250   31.0300   48.0140 N   0  0  0  0  0  0  0  0  0  0  0  0
   37.4180   32.2160   48.6000 C   0  0  0  0  0  0  0  0  0  0  0  0
   38.6000   31.6590   49.3710 C   0  0  0  0  0  0  0  0  0  0  0  0
   38.1210   30.2920   49.8340 C   0  0  0  0  0  0  0  0  0  0  0  0
   36.7510   30.1660   49.1610 C   0  0  1  0  0  0  0  0  0  0  0  0
   35.6480   30.3110   50.1120 C   0  0  0  0  0  0  0  0  0  0  0  0
   35.2040   29.1450   50.9230 C   0  0  0  0  0  0  0  0  0  0  0  0
   38.3780   31.3170   45.4320 C   0  0  0  0  0  0  0  0  0  0  0  0
   38.4880   32.5890   44.9820 C   0  0  0  0  0  0  0  0  0  0  0  0
   39.7050   33.2400   44.8690 C   0  0  0  0  0  0  0  0  0  0  0  0
   40.8410   32.5360   45.2380 C   0  0  0  0  0  0  0  0  0  0  0  0
   40.8140   31.2260   45.7100 C   0  0  0  0  0  0  0  0  0  0  0  0
   39.5500   30.6510   45.7910 C   0  0  0  0  0  0  0  0  0  0  0  0
   34.5443   29.8487   47.6037 H   0  0  0  0  0  0  0  0  0  0  0  0
   34.8833   29.2241   43.4459 H   0  0  0  0  0  0  0  0  0  0  0  0
   37.7493   32.9188   47.8213 H   0  0  0  0  0  0  0  0  0  0  0  0
   36.7184   32.7855   49.2295 H   0  0  0  0  0  0  0  0  0  0  0  0
   39.4825   31.5653   48.7211 H   0  0  0  0  0  0  0  0  0  0  0  0
   38.9064   32.3069   50.2054 H   0  0  0  0  0  0  0  0  0  0  0  0
   38.8030   29.4979   49.4959 H   0  0  0  0  0  0  0  0  0  0  0  0
   38.0789   30.1933   50.9288 H   0  0  0  0  0  0  0  0  0  0  0  0
   36.5040   29.1616   48.7867 H   0  0  0  0  0  0  0  0  0  0  0  0
   35.9430   31.0974   50.8223 H   0  0  0  0  0  0  0  0  0  0  0  0
   34.7818   30.5118   49.4644 H   0  0  0  0  0  0  0  0  0  0  0  0
   35.2957   29.3859   51.9924 H   0  0  0  0  0  0  0  0  0  0  0  0
   34.1547   28.9132   50.6881 H   0  0  0  0  0  0  0  0  0  0  0  0
   35.8334   28.2740   50.6881 H   0  0  0  0  0  0  0  0  0  0  0  0
   37.5731   33.1276   44.6943 H   0  0  0  0  0  0  0  0  0  0  0  0
   39.7679   34.2747   44.5010 H   0  0  0  0  0  0  0  0  0  0  0  0
   41.8156   33.0390   45.1534 H   0  0  0  0  0  0  0  0  0  0  0  0
   41.7272   30.6846   45.9982 H   0  0  0  0  0  0  0  0  0  0  0  0
   39.4704   29.6169   46.1574 H   0  0  0  0  0  0  0  0  0  0  0  0
  1  2  2  0
  2  7  1  0
  3  2  1  0
  4  5  1  0
  4  3  2  0
  5  6  2  0
  6  1  1  0
  7  8  1  0
  7 11  1  0
  8  9  1  0
  9 10  1  0
 11 10  1  0
 11 12  1  0
 12 13  1  0
 14  3  1  0
 14 19  1  0
 15 14  2  0
 16 15  1  0
 16 17  2  0
 17 18  1  0
 18 19  2  0
  1 20  1  0
  5 21  1  0
  8 22  1  0
  8 23  1  0
  9 24  1  0
  9 25  1  0
 10 26  1  0
 10 27  1  0
 11 28  1  6
 12 29  1  0
 12 30  1  0
 13 31  1  0
 13 32  1  0
 13 33  1  0
 15 34  1  0
 16 35  1  0
 17 36  1  0
 18 37  1  0
 19 38  1  0
M  ISO  8  20  14  21  14  22  13  23  13  24  13  25  13  26  13  27  13
M  ISO  8  28  13  29   8  30   8  31   8  32   8  33   8  34  14  35  14
M  ISO  3  36  14  37  14  38  14
M  END
>  <minimizedAffinity>  (1) 
-5.69725847

>  <minimizedRMSD>  (1) 
0.777337492

$$$$
