
     RDKit          3D

 34 36  0  0  1  0  0  0  0  0999 V2000
   34.8110   29.8880   46.9990 C   0  0  0  0  0  0  0  0  0  0  0  0
   36.1110   30.4680   47.0170 C   0  0  0  0  0  0  0  0  0  0  0  0
   36.7520   30.6200   45.7830 C   0  0  0  0  0  0  0  0  0  0  0  0
   36.1150   30.2130   44.6420 N   0  0  0  0  0  0  0  0  0  0  0  0
   34.8820   29.6670   44.6800 C   0  0  0  0  0  0  0  0  0  0  0  0
   34.2390   29.5080   45.8390 N   0  0  0  0  0  0  0  0  0  0  0  0
   36.6120   30.8240   48.2920 N   0  0  0  0  0  0  0  0  0  0  0  0
   37.0780   32.0210   48.9910 C   0  0  0  0  0  0  0  0  0  0  0  0
   38.4190   31.5600   49.5550 C   0  0  0  0  0  0  0  0  0  0  0  0
   38.1890   30.0840   49.8740 C   0  0  0  0  0  0  0  0  0  0  0  0
   36.7810   29.8290   49.3440 C   0  0  1  0  0  0  0  0  0  0  0  0
   35.8120   29.9290   50.3870 N   0  0  0  0  0  0  0  0  0  0  0  0
   38.0770   31.2010   45.6750 C   0  0  0  0  0  0  0  0  0  0  0  0
   38.1750   32.4920   45.2100 C   0  0  0  0  0  0  0  0  0  0  0  0
   39.4030   33.1220   45.0760 C   0  0  0  0  0  0  0  0  0  0  0  0
   40.5320   32.3990   45.4290 C   0  0  0  0  0  0  0  0  0  0  0  0
   40.4890   31.0950   45.9040 C   0  0  0  0  0  0  0  0  0  0  0  0
   39.2170   30.5180   46.0150 C   0  0  0  0  0  0  0  0  0  0  0  0
   34.2660   29.7481   47.9442 H   0  0  0  0  0  0  0  0  0  0  0  0
   34.4002   29.3487   43.7438 H   0  0  0  0  0  0  0  0  0  0  0  0
   37.2056   32.8646   48.2967 H   0  0  0  0  0  0  0  0  0  0  0  0
   36.3781   32.3871   49.7566 H   0  0  0  0  0  0  0  0  0  0  0  0
   39.2199   31.6803   48.8106 H   0  0  0  0  0  0  0  0  0  0  0  0
   38.7349   32.1419   50.4334 H   0  0  0  0  0  0  0  0  0  0  0  0
   38.9254   29.4496   49.3590 H   0  0  0  0  0  0  0  0  0  0  0  0
   38.2963   29.8517   50.9438 H   0  0  0  0  0  0  0  0  0  0  0  0
   36.6396   28.8119   48.9497 H   0  0  0  0  0  0  0  0  0  0  0  0
   36.2848   29.8802   51.3008 H   0  0  0  0  0  0  0  0  0  0  0  0
   35.3122   30.8260   50.3065 H   0  0  0  0  0  0  0  0  0  0  0  0
   37.2587   33.0367   44.9384 H   0  0  0  0  0  0  0  0  0  0  0  0
   39.4784   34.1546   44.7043 H   0  0  0  0  0  0  0  0  0  0  0  0
   41.5140   32.8842   45.3274 H   0  0  0  0  0  0  0  0  0  0  0  0
   41.4020   30.5459   46.1777 H   0  0  0  0  0  0  0  0  0  0  0  0
   39.1299   29.4861   46.3860 H   0  0  0  0  0  0  0  0  0  0  0  0
  1  2  2  0
  2  7  1  0
  3  2  1  0
  4  5  1  0
  4  3  2  0
  5  6  2  0
  6  1  1  0
  7  8  1  0
  7 11  1  0
  8  9  1  0
  9 10  1  0
 11 10  1  0
 11 12  1  0
 13  3  1  0
 13 18  1  0
 14 13  2  0
 15 14  1  0
 15 16  2  0
 16 17  1  0
 17 18  2  0
  1 19  1  0
  5 20  1  0
  8 21  1  0
  8 22  1  0
  9 23  1  0
  9 24  1  0
 10 25  1  0
 10 26  1  0
 11 27  1  6
 12 28  1  0
 12 29  1  0
 14 30  1  0
 15 31  1  0
 16 32  1  0
 17 33  1  0
 18 34  1  0
M  ISO  8  19  14  20  14  21  13  22  13  23  13  24  13  25  13  26  13
M  ISO  8  27  13  28   5  29   5  30  14  31  14  32  14  33  14  34  14
M  END
>  <minimizedAffinity>  (1) 
-5.275774

>  <minimizedRMSD>  (1) 
0.613446414

$$$$
