
     RDKit          3D

 36 38  0  0  1  0  0  0  0  0999 V2000
   34.9250   29.9670   46.9140 C   0  0  0  0  0  0  0  0  0  0  0  0
   36.2330   30.5450   46.9290 C   0  0  0  0  0  0  0  0  0  0  0  0
   36.8830   30.6770   45.6910 C   0  0  0  0  0  0  0  0  0  0  0  0
   36.2480   30.2580   44.5650 N   0  0  0  0  0  0  0  0  0  0  0  0
   35.0150   29.7190   44.5950 C   0  0  0  0  0  0  0  0  0  0  0  0
   34.3640   29.5770   45.7580 N   0  0  0  0  0  0  0  0  0  0  0  0
   36.7310   30.9140   48.2060 N   0  0  0  0  0  0  0  0  0  0  0  0
   37.1490   32.1340   48.9000 C   0  0  0  0  0  0  0  0  0  0  0  0
   38.5080   31.7070   49.4670 C   0  0  0  0  0  0  0  0  0  0  0  0
   38.3310   30.2280   49.7790 C   0  0  0  0  0  0  0  0  0  0  0  0
   36.9570   29.9010   49.2480 C   0  0  1  0  0  0  0  0  0  0  0  0
   34.9300   29.2560   50.5710 C   0  0  0  0  0  0  0  0  0  0  0  0
   34.6630   28.2280   49.8800 O   0  0  0  0  0  0  0  0  0  0  0  0
   36.0260   30.1270   50.3330 N   0  0  0  0  0  0  0  0  0  0  0  0
   38.1960   31.2450   45.5850 C   0  0  0  0  0  0  0  0  0  0  0  0
   38.3270   32.5490   45.1880 C   0  0  0  0  0  0  0  0  0  0  0  0
   39.5580   33.1720   45.0630 C   0  0  0  0  0  0  0  0  0  0  0  0
   40.6880   32.4250   45.3580 C   0  0  0  0  0  0  0  0  0  0  0  0
   40.6310   31.1010   45.7660 C   0  0  0  0  0  0  0  0  0  0  0  0
   39.3530   30.5580   45.8630 C   0  0  0  0  0  0  0  0  0  0  0  0
   34.3738   29.8408   47.8575 H   0  0  0  0  0  0  0  0  0  0  0  0
   34.5384   29.3929   43.6588 H   0  0  0  0  0  0  0  0  0  0  0  0
   37.2510   32.9788   48.2030 H   0  0  0  0  0  0  0  0  0  0  0  0
   36.4354   32.4874   49.6589 H   0  0  0  0  0  0  0  0  0  0  0  0
   39.3056   31.8568   48.7244 H   0  0  0  0  0  0  0  0  0  0  0  0
   38.8001   32.2932   50.3508 H   0  0  0  0  0  0  0  0  0  0  0  0
   39.0993   29.6271   49.2704 H   0  0  0  0  0  0  0  0  0  0  0  0
   38.4319   30.0082   50.8521 H   0  0  0  0  0  0  0  0  0  0  0  0
   36.8470   28.8746   48.8680 H   0  0  0  0  0  0  0  0  0  0  0  0
   34.2653   29.4905   51.4155 H   0  0  0  0  0  0  0  0  0  0  0  0
   36.1621   30.9413   50.9489 H   0  0  0  0  0  0  0  0  0  0  0  0
   37.4182   33.1250   44.9591 H   0  0  0  0  0  0  0  0  0  0  0  0
   39.6360   34.2211   44.7414 H   0  0  0  0  0  0  0  0  0  0  0  0
   41.6738   32.9040   45.2642 H   0  0  0  0  0  0  0  0  0  0  0  0
   41.5351   30.5188   45.9975 H   0  0  0  0  0  0  0  0  0  0  0  0
   39.2634   29.5095   46.1834 H   0  0  0  0  0  0  0  0  0  0  0  0
  1  2  2  0
  2  7  1  0
  3  2  1  0
  4  5  1  0
  4  3  2  0
  5  6  2  0
  6  1  1  0
  7  8  1  0
  7 11  1  0
  8  9  1  0
  9 10  1  0
 11 10  1  0
 11 14  1  0
 13 12  2  0
 14 12  1  0
 15  3  1  0
 15 20  1  0
 16 15  2  0
 17 16  1  0
 17 18  2  0
 18 19  1  0
 19 20  2  0
  1 21  1  0
  5 22  1  0
  8 23  1  0
  8 24  1  0
  9 25  1  0
  9 26  1  0
 10 27  1  0
 10 28  1  0
 11 29  1  6
 12 30  1  0
 14 31  1  0
 16 32  1  0
 17 33  1  0
 18 34  1  0
 19 35  1  0
 20 36  1  0
M  ISO  8  21  14  22  14  23  13  24  13  25  13  26  13  27  13  28  13
M  ISO  7  29  13  30   6  32  14  33  14  34  14  35  14  36  14
M  END
>  <minimizedAffinity>  (1) 
-5.55084705

>  <minimizedRMSD>  (1) 
0.889017105

$$$$
