
     RDKit          3D

 38 40  0  0  1  0  0  0  0  0999 V2000
   35.0300   30.0220   46.7380 C   0  0  0  0  0  0  0  0  0  0  0  0
   36.3420   30.5670   46.8450 C   0  0  0  0  0  0  0  0  0  0  0  0
   37.0600   30.7200   45.6560 C   0  0  0  0  0  0  0  0  0  0  0  0
   36.4900   30.3510   44.4820 N   0  0  0  0  0  0  0  0  0  0  0  0
   35.2530   29.8420   44.4240 C   0  0  0  0  0  0  0  0  0  0  0  0
   34.5270   29.6780   45.5420 N   0  0  0  0  0  0  0  0  0  0  0  0
   36.7710   30.8840   48.1730 N   0  0  0  0  0  0  0  0  0  0  0  0
   37.1820   32.0640   48.9190 C   0  0  0  0  0  0  0  0  0  0  0  0
   38.4800   31.5650   49.5670 C   0  0  0  0  0  0  0  0  0  0  0  0
   38.2290   30.0770   49.8100 C   0  0  0  0  0  0  0  0  0  0  0  0
   36.8870   29.8250   49.2020 C   0  0  1  0  0  0  0  0  0  0  0  0
   34.7920   29.1830   50.3940 C   0  0  0  0  0  0  0  0  0  0  0  0
   34.5620   28.1600   49.6900 O   0  0  0  0  0  0  0  0  0  0  0  0
   35.8750   30.0990   50.2140 N   0  0  0  0  0  0  0  0  0  0  0  0
   38.3920   31.2660   45.6500 C   0  0  0  0  0  0  0  0  0  0  0  0
   38.5870   32.5270   46.1660 C   0  0  0  0  0  0  0  0  0  0  0  0
   39.8300   33.1330   46.2050 C   0  0  0  0  0  0  0  0  0  0  0  0
   40.8990   32.4270   45.7040 C   0  0  0  0  0  0  0  0  0  0  0  0
   40.7790   31.1620   45.1740 C   0  0  0  0  0  0  0  0  0  0  0  0
   39.4980   30.6260   45.1710 C   0  0  0  0  0  0  0  0  0  0  0  0
   39.2750   29.3090   44.6360 N   0  0  0  0  0  0  0  0  0  0  0  0
   34.4231   29.8817   47.6446 H   0  0  0  0  0  0  0  0  0  0  0  0
   34.8271   29.5553   43.4511 H   0  0  0  0  0  0  0  0  0  0  0  0
   37.3665   32.9192   48.2522 H   0  0  0  0  0  0  0  0  0  0  0  0
   36.4313   32.4321   49.6338 H   0  0  0  0  0  0  0  0  0  0  0  0
   39.3351   31.7112   48.8906 H   0  0  0  0  0  0  0  0  0  0  0  0
   38.7253   32.1077   50.4918 H   0  0  0  0  0  0  0  0  0  0  0  0
   39.0005   29.4663   49.3183 H   0  0  0  0  0  0  0  0  0  0  0  0
   38.2630   29.8138   50.8775 H   0  0  0  0  0  0  0  0  0  0  0  0
   36.7677   28.8026   48.8141 H   0  0  0  0  0  0  0  0  0  0  0  0
   34.0959   29.3879   51.2207 H   0  0  0  0  0  0  0  0  0  0  0  0
   35.9394   30.9466   50.7956 H   0  0  0  0  0  0  0  0  0  0  0  0
   37.7198   33.0749   46.5633 H   0  0  0  0  0  0  0  0  0  0  0  0
   39.9589   34.1429   46.6216 H   0  0  0  0  0  0  0  0  0  0  0  0
   41.8946   32.8942   45.7279 H   0  0  0  0  0  0  0  0  0  0  0  0
   41.6441   30.6102   44.7776 H   0  0  0  0  0  0  0  0  0  0  0  0
   38.3261   28.9085   44.6323 H   0  0  0  0  0  0  0  0  0  0  0  0
   40.0643   28.7667   44.2568 H   0  0  0  0  0  0  0  0  0  0  0  0
  1  2  2  0
  2  7  1  0
  3  2  1  0
  4  3  2  0
  5  4  1  0
  5  6  2  0
  6  1  1  0
  7  8  1  0
  7 11  1  0
  8  9  1  0
  9 10  1  0
 11 10  1  0
 11 14  1  0
 13 12  2  0
 14 12  1  0
 15  3  1  0
 15 16  2  0
 16 17  1  0
 18 17  2  0
 19 18  1  0
 20 19  2  0
 20 15  1  0
 21 20  1  0
  1 22  1  0
  5 23  1  0
  8 24  1  0
  8 25  1  0
  9 26  1  0
  9 27  1  0
 10 28  1  0
 10 29  1  0
 11 30  1  6
 12 31  1  0
 14 32  1  0
 16 33  1  0
 17 34  1  0
 18 35  1  0
 19 36  1  0
 21 37  1  0
 21 38  1  0
M  ISO  8  22  14  23  14  24  13  25  13  26  13  27  13  28  13  29  13
M  ISO  6  30  13  31   6  33  14  34  14  35  14  36  14
M  END
>  <minimizedAffinity>  (1) 
-5.76219511

>  <minimizedRMSD>  (1) 
0.571022451

$$$$
