
     RDKit          3D

 23 24  0  0  1  0  0  0  0  0999 V2000
   38.2810   32.0750   48.4160 O   0  0  0  0  0  0  0  0  0  0  0  0
   38.5030   32.3360   47.0780 C   0  0  0  0  0  0  0  0  0  0  0  0
   39.7240   32.9730   46.8460 C   0  0  0  0  0  0  0  0  0  0  0  0
   40.0740   33.2940   45.5440 C   0  0  0  0  0  0  0  0  0  0  0  0
   39.2050   32.9690   44.5560 N   0  0  0  0  0  0  0  0  0  0  0  0
   38.0170   32.3490   44.7880 C   0  0  0  0  0  0  0  0  0  0  0  0
   37.6880   32.0450   46.0380 N   0  0  0  0  0  0  0  0  0  0  0  0
   37.4160   31.1200   50.3880 C   0  0  1  0  0  0  0  0  0  0  0  0
   37.1780   31.3520   48.9090 C   0  0  2  0  0  0  0  0  0  0  0  0
   37.1440   29.9300   48.4160 C   0  0  0  0  0  0  0  0  0  0  0  0
   36.5330   29.1770   49.4130 O   0  0  0  0  0  0  0  0  0  0  0  0
   36.6440   29.8430   50.6020 C   0  0  0  0  0  0  0  0  0  0  0  0
   38.7540   30.8590   50.5690 O   0  0  0  0  0  0  0  0  0  0  0  0
   40.3962   33.2157   47.6822 H   0  0  0  0  0  0  0  0  0  0  0  0
   41.0265   33.7964   45.3197 H   0  0  0  0  0  0  0  0  0  0  0  0
   37.3411   32.1039   43.9555 H   0  0  0  0  0  0  0  0  0  0  0  0
   37.1301   31.9517   51.0487 H   0  0  0  0  0  0  0  0  0  0  0  0
   36.2830   31.9216   48.6184 H   0  0  0  0  0  0  0  0  0  0  0  0
   36.5646   29.8657   47.4832 H   0  0  0  0  0  0  0  0  0  0  0  0
   38.1580   29.5595   48.2050 H   0  0  0  0  0  0  0  0  0  0  0  0
   37.1743   29.2106   51.3292 H   0  0  0  0  0  0  0  0  0  0  0  0
   35.6410   30.0791   50.9870 H   0  0  0  0  0  0  0  0  0  0  0  0
   38.9545   30.8199   51.5377 H   0  0  0  0  0  0  0  0  0  0  0  0
  2  1  1  0
  3  2  2  0
  4  3  1  0
  5  6  1  0
  5  4  2  0
  6  7  2  0
  7  2  1  0
  8 13  1  0
  8 12  1  0
  9  1  1  0
  9  8  1  0
 10  9  1  0
 10 11  1  0
 11 12  1  0
  3 14  1  0
  4 15  1  0
  6 16  1  0
  8 17  1  1
  9 18  1  1
 10 19  1  0
 10 20  1  0
 12 21  1  0
 12 22  1  0
 13 23  1  0
M  ISO  8  14  14  15  14  16  14  17  13  18  13  19  13  20  13  21  13
M  ISO  2  22  13  23   3
M  END
>  <minimizedAffinity>  (1) 
-4.50091648

>  <minimizedRMSD>  (1) 
5.00341272

$$$$
