
     RDKit          3D

 39 41  0  0  1  0  0  0  0  0999 V2000
   34.8210   30.0760   46.8670 C   0  0  0  0  0  0  0  0  0  0  0  0
   36.1570   30.5690   46.9440 C   0  0  0  0  0  0  0  0  0  0  0  0
   36.8390   30.7390   45.7380 C   0  0  0  0  0  0  0  0  0  0  0  0
   36.2130   30.4330   44.5750 N   0  0  0  0  0  0  0  0  0  0  0  0
   34.9560   29.9710   44.5430 C   0  0  0  0  0  0  0  0  0  0  0  0
   34.2670   29.7950   45.6760 N   0  0  0  0  0  0  0  0  0  0  0  0
   36.6440   30.8240   48.2670 N   0  0  0  0  0  0  0  0  0  0  0  0
   37.0620   31.9730   49.0580 C   0  0  0  0  0  0  0  0  0  0  0  0
   38.4010   31.4780   49.6140 C   0  0  0  0  0  0  0  0  0  0  0  0
   38.2030   29.9680   49.7810 C   0  0  0  0  0  0  0  0  0  0  0  0
   36.8380   29.7150   49.2260 C   0  0  1  0  0  0  0  0  0  0  0  0
   34.7790   28.9910   50.4270 C   0  0  0  0  0  0  0  0  0  0  0  0
   34.4790   28.0670   49.6170 O   0  0  0  0  0  0  0  0  0  0  0  0
   35.8710   29.9060   50.3010 N   0  0  0  0  0  0  0  0  0  0  0  0
   38.1890   31.2350   45.7030 C   0  0  0  0  0  0  0  0  0  0  0  0
   38.4530   32.4620   46.2730 C   0  0  0  0  0  0  0  0  0  0  0  0
   39.7170   33.0220   46.2940 C   0  0  0  0  0  0  0  0  0  0  0  0
   40.7370   32.3040   45.7120 C   0  0  0  0  0  0  0  0  0  0  0  0
   40.5480   31.0730   45.1240 C   0  0  0  0  0  0  0  0  0  0  0  0
   39.2500   30.5830   45.1470 C   0  0  0  0  0  0  0  0  0  0  0  0
   38.9980   29.2450   44.5160 C   0  0  0  0  0  0  0  0  0  0  0  0
   34.2404   29.9249   47.7890 H   0  0  0  0  0  0  0  0  0  0  0  0
   34.4864   29.7344   43.5768 H   0  0  0  0  0  0  0  0  0  0  0  0
   37.1913   32.8682   48.4320 H   0  0  0  0  0  0  0  0  0  0  0  0
   36.3384   32.2794   49.8277 H   0  0  0  0  0  0  0  0  0  0  0  0
   39.2183   31.6887   48.9085 H   0  0  0  0  0  0  0  0  0  0  0  0
   38.6751   31.9740   50.5568 H   0  0  0  0  0  0  0  0  0  0  0  0
   38.9638   29.4097   49.2159 H   0  0  0  0  0  0  0  0  0  0  0  0
   38.2999   29.6429   50.8274 H   0  0  0  0  0  0  0  0  0  0  0  0
   36.7246   28.7127   48.7871 H   0  0  0  0  0  0  0  0  0  0  0  0
   34.1381   29.1015   51.3141 H   0  0  0  0  0  0  0  0  0  0  0  0
   35.9732   30.6900   50.9612 H   0  0  0  0  0  0  0  0  0  0  0  0
   37.6225   33.0195   46.7307 H   0  0  0  0  0  0  0  0  0  0  0  0
   39.9002   34.0026   46.7575 H   0  0  0  0  0  0  0  0  0  0  0  0
   41.7498   32.7332   45.7167 H   0  0  0  0  0  0  0  0  0  0  0  0
   41.3754   30.5126   44.6643 H   0  0  0  0  0  0  0  0  0  0  0  0
   38.8557   28.4895   45.3028 H   0  0  0  0  0  0  0  0  0  0  0  0
   38.0942   29.2986   43.8913 H   0  0  0  0  0  0  0  0  0  0  0  0
   39.8594   28.9661   43.8913 H   0  0  0  0  0  0  0  0  0  0  0  0
  1  2  2  0
  2  7  1  0
  3  2  1  0
  4  3  2  0
  5  4  1  0
  5  6  2  0
  6  1  1  0
  7  8  1  0
  7 11  1  0
  8  9  1  0
  9 10  1  0
 11 10  1  0
 11 14  1  0
 13 12  2  0
 14 12  1  0
 15  3  1  0
 15 16  2  0
 16 17  1  0
 18 17  2  0
 19 20  2  0
 19 18  1  0
 20 15  1  0
 21 20  1  0
  1 22  1  0
  5 23  1  0
  8 24  1  0
  8 25  1  0
  9 26  1  0
  9 27  1  0
 10 28  1  0
 10 29  1  0
 11 30  1  6
 12 31  1  0
 14 32  1  0
 16 33  1  0
 17 34  1  0
 18 35  1  0
 19 36  1  0
 21 37  1  0
 21 38  1  0
 21 39  1  0
M  ISO  8  22  14  23  14  24  13  25  13  26  13  27  13  28  13  29  13
M  ISO  8  30  13  31   6  33  14  34  14  35  14  36  14  37   8  38   8
M  ISO  1  39   8
M  END
>  <minimizedAffinity>  (1) 
-5.48856354

>  <minimizedRMSD>  (1) 
0.615989149

$$$$
