
     RDKit          3D

 28 29  0  0  1  0  0  0  0  0999 V2000
   36.9620   29.5520   49.7780 C   0  0  1  0  0  0  0  0  0  0  0  0
   36.0050   30.6950   49.7520 C   0  0  1  0  0  0  0  0  0  0  0  0
   36.6460   31.9320   49.9840 O   0  0  0  0  0  0  0  0  0  0  0  0
   37.4780   32.2370   48.8850 C   0  0  0  0  0  0  0  0  0  0  0  0
   38.4820   31.1200   48.7040 C   0  0  1  0  0  0  0  0  0  0  0  0
   38.3740   30.1460   49.8620 C   0  0  1  0  0  0  0  0  0  0  0  0
   36.8150   28.7450   50.8980 O   0  0  0  0  0  0  0  0  0  0  0  0
   38.2330   30.4190   47.5200 O   0  0  0  0  0  0  0  0  0  0  0  0
   38.4390   30.9090   51.0380 O   0  0  0  0  0  0  0  0  0  0  0  0
   35.3670   30.8720   48.4840 O   0  0  0  0  0  0  0  0  0  0  0  0
   34.4060   29.9240   48.1840 C   0  0  0  0  0  0  0  0  0  0  0  0
   33.8630   30.1280   46.9190 C   0  0  0  0  0  0  0  0  0  0  0  0
   32.8730   29.2480   46.4640 C   0  0  0  0  0  0  0  0  0  0  0  0
   32.4940   28.2290   47.3010 N   0  0  0  0  0  0  0  0  0  0  0  0
   33.0460   28.0660   48.5240 C   0  0  0  0  0  0  0  0  0  0  0  0
   33.9900   28.8960   48.9680 N   0  0  0  0  0  0  0  0  0  0  0  0
   36.7784   28.9432   48.8804 H   0  0  0  0  0  0  0  0  0  0  0  0
   35.2805   30.4352   50.5379 H   0  0  0  0  0  0  0  0  0  0  0  0
   36.8670   32.3349   47.9756 H   0  0  0  0  0  0  0  0  0  0  0  0
   38.0050   33.1849   49.0689 H   0  0  0  0  0  0  0  0  0  0  0  0
   39.4868   31.5658   48.6641 H   0  0  0  0  0  0  0  0  0  0  0  0
   39.1538   29.3704   49.8427 H   0  0  0  0  0  0  0  0  0  0  0  0
   36.9150   29.2940   51.7157 H   0  0  0  0  0  0  0  0  0  0  0  0
   37.9097   29.5088   47.7371 H   0  0  0  0  0  0  0  0  0  0  0  0
   38.3879   30.3091   51.8239 H   0  0  0  0  0  0  0  0  0  0  0  0
   34.2043   30.9631   46.2895 H   0  0  0  0  0  0  0  0  0  0  0  0
   32.4156   29.3695   45.4710 H   0  0  0  0  0  0  0  0  0  0  0  0
   32.7111   27.2355   49.1629 H   0  0  0  0  0  0  0  0  0  0  0  0
  1  6  1  0
  1  7  1  0
  2 10  1  0
  2  1  1  0
  2  3  1  0
  4  3  1  0
  5  8  1  0
  5  4  1  0
  5  6  1  0
  6  9  1  0
 11 10  1  0
 11 16  1  0
 12 11  2  0
 13 12  1  0
 13 14  2  0
 14 15  1  0
 15 16  2  0
  1 17  1  6
  2 18  1  1
  4 19  1  0
  4 20  1  0
  5 21  1  6
  6 22  1  1
  7 23  1  0
  8 24  1  0
  9 25  1  0
 12 26  1  0
 13 27  1  0
 15 28  1  0
M  ISO  8  17  13  18  13  19  13  20  13  21  13  22  13  23   3  24   3
M  ISO  4  25   3  26  14  27  14  28  14
M  END
>  <minimizedAffinity>  (1) 
-4.17676115

>  <minimizedRMSD>  (1) 
4.81291914

$$$$
