
     RDKit          3D

 23 24  0  0  0  0  0  0  0  0999 V2000
   38.3660   31.5700   47.8820 C   0  0  0  0  0  0  0  0  0  0  0  0
   37.6920   31.8440   49.0580 C   0  0  0  0  0  0  0  0  0  0  0  0
   38.0150   33.0710   49.6370 C   0  0  0  0  0  0  0  0  0  0  0  0
   38.9470   33.9330   49.0560 C   0  0  0  0  0  0  0  0  0  0  0  0
   39.5740   33.5740   47.8770 C   0  0  0  0  0  0  0  0  0  0  0  0
   39.2740   32.3590   47.2720 C   0  0  0  0  0  0  0  0  0  0  0  0
   35.4410   30.8700   49.1250 C   0  0  0  0  0  0  0  0  0  0  0  0
   36.7390   30.9660   49.6520 C   0  0  0  0  0  0  0  0  0  0  0  0
   37.0270   30.1720   50.7600 C   0  0  0  0  0  0  0  0  0  0  0  0
   36.0540   29.3580   51.2670 N   0  0  0  0  0  0  0  0  0  0  0  0
   34.8230   29.2970   50.7300 C   0  0  0  0  0  0  0  0  0  0  0  0
   34.5090   30.0610   49.6470 N   0  0  0  0  0  0  0  0  0  0  0  0
   38.3080   30.2600   51.2900 O   0  0  0  0  0  0  0  0  0  0  0  0
   38.1050   30.3580   47.2270 O   0  0  0  0  0  0  0  0  0  0  0  0
   39.9190   32.0230   46.0860 O   0  0  0  0  0  0  0  0  0  0  0  0
   37.5230   33.3671   50.5752 H   0  0  0  0  0  0  0  0  0  0  0  0
   39.1819   34.8951   49.5348 H   0  0  0  0  0  0  0  0  0  0  0  0
   40.3103   34.2500   47.4178 H   0  0  0  0  0  0  0  0  0  0  0  0
   35.1791   31.4826   48.2497 H   0  0  0  0  0  0  0  0  0  0  0  0
   34.0669   28.6279   51.1667 H   0  0  0  0  0  0  0  0  0  0  0  0
   38.5565   29.7137   52.0774 H   0  0  0  0  0  0  0  0  0  0  0  0
   38.5753   30.1398   46.3836 H   0  0  0  0  0  0  0  0  0  0  0  0
   39.7186   31.1620   45.6403 H   0  0  0  0  0  0  0  0  0  0  0  0
  1  2  2  0
  2  3  1  0
  2  8  1  0
  4  3  2  0
  5  4  1  0
  6  5  2  0
  6  1  1  0
  7 12  2  0
  7  8  1  0
  8  9  2  0
  9 10  1  0
  9 13  1  0
 11 10  2  0
 12 11  1  0
 14  1  1  0
 15  6  1  0
  3 16  1  0
  4 17  1  0
  5 18  1  0
  7 19  1  0
 11 20  1  0
 13 21  1  0
 14 22  1  0
 15 23  1  0
M  ISO  8  16  14  17  14  18  14  19  14  20  14  21   3  22   3  23   3
M  END
>  <minimizedAffinity>  (1) 
-5.76917648

>  <minimizedRMSD>  (1) 
0.832317293

$$$$
