
     RDKit          3D

 24 25  0  0  0  0  0  0  0  0999 V2000
   38.3430   31.5450   47.8380 C   0  0  0  0  0  0  0  0  0  0  0  0
   37.6270   31.7980   48.9910 C   0  0  0  0  0  0  0  0  0  0  0  0
   37.9390   33.0220   49.6010 C   0  0  0  0  0  0  0  0  0  0  0  0
   38.8960   33.8900   49.0670 C   0  0  0  0  0  0  0  0  0  0  0  0
   39.5610   33.5380   47.8990 C   0  0  0  0  0  0  0  0  0  0  0  0
   39.2790   32.3400   47.2700 C   0  0  0  0  0  0  0  0  0  0  0  0
   35.3780   30.8340   48.9570 C   0  0  0  0  0  0  0  0  0  0  0  0
   36.6510   30.9260   49.5470 C   0  0  0  0  0  0  0  0  0  0  0  0
   36.8880   30.1410   50.6670 C   0  0  0  0  0  0  0  0  0  0  0  0
   35.8970   29.3340   51.1340 N   0  0  0  0  0  0  0  0  0  0  0  0
   34.6820   29.2800   50.5280 C   0  0  0  0  0  0  0  0  0  0  0  0
   34.4190   30.0360   49.4290 N   0  0  0  0  0  0  0  0  0  0  0  0
   38.1540   30.1850   51.3150 N   0  0  0  0  0  0  0  0  0  0  0  0
   38.1000   30.3440   47.1580 O   0  0  0  0  0  0  0  0  0  0  0  0
   39.9580   32.0210   46.1130 O   0  0  0  0  0  0  0  0  0  0  0  0
   37.4158   33.3070   50.5257 H   0  0  0  0  0  0  0  0  0  0  0  0
   39.1206   34.8435   49.5673 H   0  0  0  0  0  0  0  0  0  0  0  0
   40.3153   34.2158   47.4729 H   0  0  0  0  0  0  0  0  0  0  0  0
   35.1639   31.4461   48.0685 H   0  0  0  0  0  0  0  0  0  0  0  0
   33.9023   28.6171   50.9312 H   0  0  0  0  0  0  0  0  0  0  0  0
   38.3278   29.6017   52.1459 H   0  0  0  0  0  0  0  0  0  0  0  0
   38.8967   30.8002   50.9531 H   0  0  0  0  0  0  0  0  0  0  0  0
   38.5983   30.1353   46.3284 H   0  0  0  0  0  0  0  0  0  0  0  0
   40.6327   32.6460   45.7467 H   0  0  0  0  0  0  0  0  0  0  0  0
  1  2  2  0
  2  8  1  0
  2  3  1  0
  4  3  2  0
  5  4  1  0
  6  1  1  0
  6  5  2  0
  7 12  2  0
  7  8  1  0
  8  9  2  0
  9 10  1  0
  9 13  1  0
 11 10  2  0
 12 11  1  0
 14  1  1  0
 15  6  1  0
  3 16  1  0
  4 17  1  0
  5 18  1  0
  7 19  1  0
 11 20  1  0
 13 21  1  0
 13 22  1  0
 14 23  1  0
 15 24  1  0
M  ISO  7  16  14  17  14  18  14  19  14  20  14  23   3  24   3
M  END
>  <minimizedAffinity>  (1) 
-5.70256901

>  <minimizedRMSD>  (1) 
0.943183064

$$$$
