
     RDKit          3D

 19 20  0  0  0  0  0  0  0  0999 V2000
   37.4190   30.8860   48.9550 C   0  0  0  0  0  0  0  0  0  0  0  0
   38.3520   31.0940   47.9400 C   0  0  0  0  0  0  0  0  0  0  0  0
   38.9190   32.3540   47.8200 C   0  0  0  0  0  0  0  0  0  0  0  0
   38.5350   33.3140   48.6970 N   0  0  0  0  0  0  0  0  0  0  0  0
   37.6260   33.0950   49.6810 C   0  0  0  0  0  0  0  0  0  0  0  0
   37.0760   31.8870   49.8050 N   0  0  0  0  0  0  0  0  0  0  0  0
   36.9350   29.5890   48.9600 O   0  0  0  0  0  0  0  0  0  0  0  0
   35.6510   29.1970   48.7110 C   0  0  0  0  0  0  0  0  0  0  0  0
   35.1220   29.7950   47.5620 C   0  0  0  0  0  0  0  0  0  0  0  0
   33.8150   29.5130   47.1490 C   0  0  0  0  0  0  0  0  0  0  0  0
   33.0870   28.6440   47.8980 N   0  0  0  0  0  0  0  0  0  0  0  0
   33.6080   28.0670   49.0130 C   0  0  0  0  0  0  0  0  0  0  0  0
   34.8520   28.3420   49.3970 N   0  0  0  0  0  0  0  0  0  0  0  0
   38.6307   30.2811   47.2533 H   0  0  0  0  0  0  0  0  0  0  0  0
   39.6595   32.5685   47.0353 H   0  0  0  0  0  0  0  0  0  0  0  0
   37.3460   33.9062   50.3692 H   0  0  0  0  0  0  0  0  0  0  0  0
   35.7393   30.4934   46.9778 H   0  0  0  0  0  0  0  0  0  0  0  0
   33.3909   29.9795   46.2476 H   0  0  0  0  0  0  0  0  0  0  0  0
   32.9968   27.3676   49.6022 H   0  0  0  0  0  0  0  0  0  0  0  0
  1  7  1  0
  1  6  1  0
  2  1  2  0
  3  2  1  0
  3  4  2  0
  4  5  1  0
  5  6  2  0
  8  7  1  0
  8 13  1  0
  9  8  2  0
 10  9  1  0
 10 11  2  0
 11 12  1  0
 12 13  2  0
  2 14  1  0
  3 15  1  0
  5 16  1  0
  9 17  1  0
 10 18  1  0
 12 19  1  0
M  ISO  6  14  14  15  14  16  14  17  14  18  14  19  14
M  END
>  <minimizedAffinity>  (1) 
-4.17369223

>  <minimizedRMSD>  (1) 
5.16272068

$$$$
