
     RDKit          3D

 18 19  0  0  0  0  0  0  0  0999 V2000
   36.7550   31.2170   49.9880 C   0  0  0  0  0  0  0  0  0  0  0  0
   35.5050   30.8010   49.5240 C   0  0  0  0  0  0  0  0  0  0  0  0
   34.9070   29.7160   50.1620 C   0  0  0  0  0  0  0  0  0  0  0  0
   35.5690   29.1200   51.2000 N   0  0  0  0  0  0  0  0  0  0  0  0
   36.7790   29.5510   51.6200 C   0  0  0  0  0  0  0  0  0  0  0  0
   37.3710   30.5980   51.0150 N   0  0  0  0  0  0  0  0  0  0  0  0
   37.2320   32.3030   49.2640 O   0  0  0  0  0  0  0  0  0  0  0  0
   38.6120   32.5390   49.2710 C   0  0  0  0  0  0  0  0  0  0  0  0
   39.1470   33.0620   47.9280 C   0  0  0  0  0  0  0  0  0  0  0  0
   39.1930   33.8870   49.1910 C   0  0  0  0  0  0  0  0  0  0  0  0
   35.0102   31.3117   48.6848 H   0  0  0  0  0  0  0  0  0  0  0  0
   33.9230   29.3465   49.8376 H   0  0  0  0  0  0  0  0  0  0  0  0
   37.2813   29.0454   52.4579 H   0  0  0  0  0  0  0  0  0  0  0  0
   38.7954   31.7155   49.9768 H   0  0  0  0  0  0  0  0  0  0  0  0
   38.4521   33.3249   47.1168 H   0  0  0  0  0  0  0  0  0  0  0  0
   39.8770   32.7194   47.1798 H   0  0  0  0  0  0  0  0  0  0  0  0
   40.1608   34.0918   49.6721 H   0  0  0  0  0  0  0  0  0  0  0  0
   38.8360   34.8915   49.4623 H   0  0  0  0  0  0  0  0  0  0  0  0
  1  6  1  0
  2  1  2  0
  2  3  1  0
  3  4  2  0
  4  5  1  0
  6  5  2  0
  7  8  1  0
  7  1  1  0
  9 10  1  0
  9  8  1  0
 10  8  1  0
  2 11  1  0
  3 12  1  0
  5 13  1  0
  8 14  1  0
  9 15  1  0
  9 16  1  0
 10 17  1  0
 10 18  1  0
M  ISO  8  11  14  12  14  13  14  14  13  15  13  16  13  17  13  18  13
M  END
>  <minimizedAffinity>  (1) 
-3.93146086

>  <minimizedRMSD>  (1) 
4.48694706

$$$$
