
     RDKit          3D

 39 41  0  0  1  0  0  0  0  0999 V2000
   37.9470   31.4090   47.8490 C   0  0  0  0  0  0  0  0  0  0  0  0
   37.1250   31.5090   48.9760 C   0  0  0  0  0  0  0  0  0  0  0  0
   37.3580   32.6260   49.7800 C   0  0  0  0  0  0  0  0  0  0  0  0
   38.3530   33.5610   49.4510 C   0  0  0  0  0  0  0  0  0  0  0  0
   39.1210   33.3690   48.3010 C   0  0  0  0  0  0  0  0  0  0  0  0
   38.9120   32.2830   47.4970 C   0  0  0  0  0  0  0  0  0  0  0  0
   35.0010   30.3960   48.4910 C   0  0  0  0  0  0  0  0  0  0  0  0
   36.1110   30.5550   49.3080 C   0  0  0  0  0  0  0  0  0  0  0  0
   36.1900   29.7470   50.4560 C   0  0  0  0  0  0  0  0  0  0  0  0
   35.1840   28.8650   50.6980 N   0  0  0  0  0  0  0  0  0  0  0  0
   34.1230   28.7430   49.8780 C   0  0  0  0  0  0  0  0  0  0  0  0
   34.0320   29.5000   48.7850 N   0  0  0  0  0  0  0  0  0  0  0  0
   37.3520   29.8630   51.3760 C   0  0  0  0  0  0  0  0  0  0  0  0
   37.7700   30.3130   46.9950 O   0  0  0  0  0  0  0  0  0  0  0  0
   39.6890   32.1280   46.3760 O   0  0  0  0  0  0  0  0  0  0  0  0
   40.7030   32.3480   44.2450 N   0  0  0  0  0  0  0  0  0  0  0  0
   39.6600   32.7840   45.1710 C   0  0  1  0  0  0  0  0  0  0  0  0
   38.3450   32.6760   44.4330 C   0  0  0  0  0  0  0  0  0  0  0  0
   38.4490   31.5370   43.5440 N   0  0  0  0  0  0  0  0  0  0  0  0
   39.2490   30.4660   44.1270 C   0  0  0  0  0  0  0  0  0  0  0  0
   40.6940   30.8860   44.1380 C   0  0  0  0  0  0  0  0  0  0  0  0
   36.7525   32.7764   50.6860 H   0  0  0  0  0  0  0  0  0  0  0  0
   38.5257   34.4368   50.0937 H   0  0  0  0  0  0  0  0  0  0  0  0
   39.9017   34.0984   48.0393 H   0  0  0  0  0  0  0  0  0  0  0  0
   34.9072   31.0121   47.5846 H   0  0  0  0  0  0  0  0  0  0  0  0
   33.3299   28.0172   50.1107 H   0  0  0  0  0  0  0  0  0  0  0  0
   37.0000   29.8279   52.4176 H   0  0  0  0  0  0  0  0  0  0  0  0
   38.0471   29.0298   51.1956 H   0  0  0  0  0  0  0  0  0  0  0  0
   37.8687   30.8172   51.1956 H   0  0  0  0  0  0  0  0  0  0  0  0
   38.3376   30.2163   46.1896 H   0  0  0  0  0  0  0  0  0  0  0  0
   40.5299   32.7597   43.3169 H   0  0  0  0  0  0  0  0  0  0  0  0
   39.8263   33.8290   45.4714 H   0  0  0  0  0  0  0  0  0  0  0  0
   37.5226   32.5234   45.1474 H   0  0  0  0  0  0  0  0  0  0  0  0
   38.1358   33.5964   43.8680 H   0  0  0  0  0  0  0  0  0  0  0  0
   38.8891   31.8404   42.6635 H   0  0  0  0  0  0  0  0  0  0  0  0
   38.9130   30.2729   45.1565 H   0  0  0  0  0  0  0  0  0  0  0  0
   39.1327   29.5483   43.5318 H   0  0  0  0  0  0  0  0  0  0  0  0
   41.2129   30.4390   44.9988 H   0  0  0  0  0  0  0  0  0  0  0  0
   41.2120   30.5511   43.2272 H   0  0  0  0  0  0  0  0  0  0  0  0
  1  2  2  0
  2  8  1  0
  2  3  1  0
  4  3  2  0
  5  4  1  0
  6  1  1  0
  6  5  2  0
  7 12  2  0
  7  8  1  0
  8  9  2  0
  9 10  1  0
  9 13  1  0
 11 10  2  0
 12 11  1  0
 14  1  1  0
 15  6  1  0
 16 17  1  0
 17 15  1  0
 18 17  1  0
 19 20  1  0
 19 18  1  0
 20 21  1  0
 21 16  1  0
  3 22  1  0
  4 23  1  0
  5 24  1  0
  7 25  1  0
 11 26  1  0
 13 27  1  0
 13 28  1  0
 13 29  1  0
 14 30  1  0
 16 31  1  0
 17 32  1  1
 18 33  1  0
 18 34  1  0
 19 35  1  0
 20 36  1  0
 20 37  1  0
 21 38  1  0
 21 39  1  0
M  ISO  8  22  14  23  14  24  14  25  14  26  14  27   8  28   8  29   8
M  ISO  8  30   3  31   5  32  13  33  13  34  13  35   5  36  13  37  13
M  ISO  2  38  13  39  13
M  END
>  <minimizedAffinity>  (1) 
-6.53277159

>  <minimizedRMSD>  (1) 
2.12299943

$$$$
