
     RDKit          3D

 28 29  0  0  0  0  0  0  0  0999 V2000
   38.0440   31.3330   47.6390 C   0  0  0  0  0  0  0  0  0  0  0  0
   37.0940   31.3070   48.6650 C   0  0  0  0  0  0  0  0  0  0  0  0
   37.2010   32.3600   49.5760 C   0  0  0  0  0  0  0  0  0  0  0  0
   38.1900   33.3490   49.4500 C   0  0  0  0  0  0  0  0  0  0  0  0
   39.0850   33.2790   48.3890 C   0  0  0  0  0  0  0  0  0  0  0  0
   39.0040   32.2470   47.4700 C   0  0  0  0  0  0  0  0  0  0  0  0
   34.9390   30.3410   47.9860 C   0  0  0  0  0  0  0  0  0  0  0  0
   36.0860   30.3000   48.7960 C   0  0  0  0  0  0  0  0  0  0  0  0
   36.1970   29.2570   49.7150 C   0  0  0  0  0  0  0  0  0  0  0  0
   35.1880   28.3400   49.7730 N   0  0  0  0  0  0  0  0  0  0  0  0
   34.0960   28.4140   48.9740 C   0  0  0  0  0  0  0  0  0  0  0  0
   33.9790   29.4040   48.0910 N   0  0  0  0  0  0  0  0  0  0  0  0
   37.3750   29.1550   50.5970 C   0  0  0  0  0  0  0  0  0  0  0  0
   38.0040   30.3120   46.6830 O   0  0  0  0  0  0  0  0  0  0  0  0
   39.9130   32.2180   46.4340 O   0  0  0  0  0  0  0  0  0  0  0  0
   39.9520   33.2100   45.4190 C   0  0  0  0  0  0  0  0  0  0  0  0
   36.4916   32.4163   50.4148 H   0  0  0  0  0  0  0  0  0  0  0  0
   38.2554   34.1681   50.1813 H   0  0  0  0  0  0  0  0  0  0  0  0
   39.8629   34.0488   48.2788 H   0  0  0  0  0  0  0  0  0  0  0  0
   34.8236   31.1532   47.2532 H   0  0  0  0  0  0  0  0  0  0  0  0
   33.3044   27.6545   49.0550 H   0  0  0  0  0  0  0  0  0  0  0  0
   37.0500   29.1831   51.6475 H   0  0  0  0  0  0  0  0  0  0  0  0
   37.8992   28.2081   50.4006 H   0  0  0  0  0  0  0  0  0  0  0  0
   38.0542   29.9977   50.4006 H   0  0  0  0  0  0  0  0  0  0  0  0
   38.6620   30.3004   45.9434 H   0  0  0  0  0  0  0  0  0  0  0  0
   39.9912   34.2070   45.8820 H   0  0  0  0  0  0  0  0  0  0  0  0
   40.8450   33.0605   44.7943 H   0  0  0  0  0  0  0  0  0  0  0  0
   39.0501   33.1311   44.7943 H   0  0  0  0  0  0  0  0  0  0  0  0
  1  2  2  0
  2  8  1  0
  2  3  1  0
  4  3  2  0
  5  4  1  0
  6  1  1  0
  6  5  2  0
  7 12  2  0
  7  8  1  0
  8  9  2  0
  9 10  1  0
  9 13  1  0
 11 10  2  0
 12 11  1  0
 14  1  1  0
 15  6  1  0
 16 15  1  0
  3 17  1  0
  4 18  1  0
  5 19  1  0
  7 20  1  0
 11 21  1  0
 13 22  1  0
 13 23  1  0
 13 24  1  0
 14 25  1  0
 16 26  1  0
 16 27  1  0
 16 28  1  0
M  ISO  8  17  14  18  14  19  14  20  14  21  14  22   8  23   8  24   8
M  ISO  4  25   3  26   8  27   8  28   8
M  END
>  <minimizedAffinity>  (1) 
-5.81213474

>  <minimizedRMSD>  (1) 
0.313513577

$$$$
