
     RDKit          3D

 40 43  0  0  0  0  0  0  0  0999 V2000
   38.0780   31.3190   47.7910 C   0  0  0  0  0  0  0  0  0  0  0  0
   37.0860   31.3140   48.7540 C   0  0  0  0  0  0  0  0  0  0  0  0
   37.1230   32.4180   49.6180 C   0  0  0  0  0  0  0  0  0  0  0  0
   38.0930   33.4250   49.4930 C   0  0  0  0  0  0  0  0  0  0  0  0
   39.0570   33.3290   48.4730 C   0  0  0  0  0  0  0  0  0  0  0  0
   39.0310   32.2430   47.6140 C   0  0  0  0  0  0  0  0  0  0  0  0
   34.9600   30.3050   48.0690 C   0  0  0  0  0  0  0  0  0  0  0  0
   36.1020   30.2960   48.8840 C   0  0  0  0  0  0  0  0  0  0  0  0
   36.2150   29.2460   49.8150 C   0  0  0  0  0  0  0  0  0  0  0  0
   35.2250   28.3190   49.8670 N   0  0  0  0  0  0  0  0  0  0  0  0
   34.1390   28.3770   49.0510 C   0  0  0  0  0  0  0  0  0  0  0  0
   34.0110   29.3660   48.1590 N   0  0  0  0  0  0  0  0  0  0  0  0
   37.4030   29.1870   50.7040 C   0  0  0  0  0  0  0  0  0  0  0  0
   38.1250   30.2610   46.8840 O   0  0  0  0  0  0  0  0  0  0  0  0
   40.0090   32.2260   46.6460 O   0  0  0  0  0  0  0  0  0  0  0  0
   40.5230   31.1180   44.4680 C   0  0  0  0  0  0  0  0  0  0  0  0
   39.8380   31.9830   45.3150 C   0  0  0  0  0  0  0  0  0  0  0  0
   38.8080   32.7480   44.7860 C   0  0  0  0  0  0  0  0  0  0  0  0
   38.4510   32.6650   43.4300 C   0  0  0  0  0  0  0  0  0  0  0  0
   37.5380   33.2520   42.6530 N   0  0  0  0  0  0  0  0  0  0  0  0
   37.6300   32.7960   41.3940 C   0  0  0  0  0  0  0  0  0  0  0  0
   38.6460   31.8840   41.3900 N   0  0  0  0  0  0  0  0  0  0  0  0
   39.1530   31.8000   42.6340 C   0  0  0  0  0  0  0  0  0  0  0  0
   40.1890   31.0190   43.1270 C   0  0  0  0  0  0  0  0  0  0  0  0
   40.9310   30.1140   42.3190 N   0  0  0  0  0  0  0  0  0  0  0  0
   36.3705   32.4971   50.4164 H   0  0  0  0  0  0  0  0  0  0  0  0
   38.0992   34.2799   50.1852 H   0  0  0  0  0  0  0  0  0  0  0  0
   39.8241   34.1091   48.3588 H   0  0  0  0  0  0  0  0  0  0  0  0
   34.8407   31.1117   47.3307 H   0  0  0  0  0  0  0  0  0  0  0  0
   33.3593   27.6046   49.1248 H   0  0  0  0  0  0  0  0  0  0  0  0
   37.0762   29.2032   51.7542 H   0  0  0  0  0  0  0  0  0  0  0  0
   37.9618   28.2600   50.5082 H   0  0  0  0  0  0  0  0  0  0  0  0
   38.0509   30.0541   50.5082 H   0  0  0  0  0  0  0  0  0  0  0  0
   38.8250   30.2396   46.1842 H   0  0  0  0  0  0  0  0  0  0  0  0
   41.3423   30.5032   44.8689 H   0  0  0  0  0  0  0  0  0  0  0  0
   38.2578   33.4361   45.4446 H   0  0  0  0  0  0  0  0  0  0  0  0
   36.8584   33.9560   42.9745 H   0  0  0  0  0  0  0  0  0  0  0  0
   37.0104   33.0970   40.5364 H   0  0  0  0  0  0  0  0  0  0  0  0
   41.6912   29.5570   42.7346 H   0  0  0  0  0  0  0  0  0  0  0  0
   40.7082   30.0156   41.3182 H   0  0  0  0  0  0  0  0  0  0  0  0
  1  2  2  0
  2  8  1  0
  2  3  1  0
  4  3  2  0
  5  4  1  0
  6  1  1  0
  6  5  2  0
  7 12  2  0
  7  8  1  0
  8  9  2  0
  9 10  1  0
  9 13  1  0
 11 10  2  0
 12 11  1  0
 14  1  1  0
 15  6  1  0
 16 17  2  0
 17 15  1  0
 18 17  1  0
 19 18  2  0
 20 19  1  0
 21 20  1  0
 22 21  2  0
 22 23  1  0
 23 24  2  0
 23 19  1  0
 24 16  1  0
 25 24  1  0
  3 26  1  0
  4 27  1  0
  5 28  1  0
  7 29  1  0
 11 30  1  0
 13 31  1  0
 13 32  1  0
 13 33  1  0
 14 34  1  0
 16 35  1  0
 18 36  1  0
 20 37  1  0
 21 38  1  0
 25 39  1  0
 25 40  1  0
M  ISO  8  26  14  27  14  28  14  29  14  30  14  31   8  32   8  33   8
M  ISO  5  34   3  35  14  36  14  37   9  38  14
M  END
>  <minimizedAffinity>  (1) 
-7.25372934

>  <minimizedRMSD>  (1) 
0.0589148626

$$$$
