
     RDKit          3D

 25 26  0  0  0  0  0  0  0  0999 V2000
   37.9760   30.5390   47.7130 C   0  0  0  0  0  0  0  0  0  0  0  0
   37.3120   30.1890   51.4130 C   0  0  0  0  0  0  0  0  0  0  0  0
   37.9750   30.5980   50.2330 C   0  0  0  0  0  0  0  0  0  0  0  0
   37.4070   30.1970   49.0370 C   0  0  0  0  0  0  0  0  0  0  0  0
   36.2710   29.4520   49.0690 N   0  0  0  0  0  0  0  0  0  0  0  0
   35.6630   29.0780   50.2040 C   0  0  0  0  0  0  0  0  0  0  0  0
   36.1900   29.4510   51.3930 N   0  0  0  0  0  0  0  0  0  0  0  0
   38.3020   32.0160   47.6420 C   0  0  0  0  0  0  0  0  0  0  0  0
   38.7210   32.3980   46.2440 C   0  0  0  0  0  0  0  0  0  0  0  0
   39.9910   32.9170   46.0350 C   0  0  0  0  0  0  0  0  0  0  0  0
   40.3520   33.2610   44.7410 C   0  0  0  0  0  0  0  0  0  0  0  0
   39.4610   33.0850   43.6890 C   0  0  0  0  0  0  0  0  0  0  0  0
   38.2140   32.5660   43.9510 C   0  0  0  0  0  0  0  0  0  0  0  0
   37.8520   32.2290   45.2060 N   0  0  0  0  0  0  0  0  0  0  0  0
   38.8956   29.9571   47.5529 H   0  0  0  0  0  0  0  0  0  0  0  0
   37.2360   30.3000   46.9350 H   0  0  0  0  0  0  0  0  0  0  0  0
   37.7315   30.4868   52.3853 H   0  0  0  0  0  0  0  0  0  0  0  0
   38.8933   31.2027   50.2643 H   0  0  0  0  0  0  0  0  0  0  0  0
   34.7445   28.4737   50.1688 H   0  0  0  0  0  0  0  0  0  0  0  0
   37.4119   32.5972   47.9246 H   0  0  0  0  0  0  0  0  0  0  0  0
   39.1304   32.2311   48.3330 H   0  0  0  0  0  0  0  0  0  0  0  0
   40.6916   33.0517   46.8723 H   0  0  0  0  0  0  0  0  0  0  0  0
   41.3516   33.6765   44.5456 H   0  0  0  0  0  0  0  0  0  0  0  0
   39.7484   33.3565   42.6625 H   0  0  0  0  0  0  0  0  0  0  0  0
   37.5017   32.4238   43.1249 H   0  0  0  0  0  0  0  0  0  0  0  0
  1  4  1  0
  3  2  2  0
  4  5  2  0
  4  3  1  0
  5  6  1  0
  6  7  2  0
  7  2  1  0
  8  1  1  0
  9  8  1  0
 10  9  2  0
 11 10  1  0
 12 13  1  0
 12 11  2  0
 13 14  2  0
 14  9  1  0
  1 15  1  0
  1 16  1  0
  2 17  1  0
  3 18  1  0
  6 19  1  0
  8 20  1  0
  8 21  1  0
 10 22  1  0
 11 23  1  0
 12 24  1  0
 13 25  1  0
M  ISO  8  15   8  16   8  17  14  18  14  19  14  20   8  21   8  22  14
M  ISO  3  23  14  24  14  25  14
M  END
>  <minimizedAffinity>  (1) 
-5.22407103

>  <minimizedRMSD>  (1) 
1.26036012

$$$$
