
     RDKit          3D

 40 42  0  0  1  0  0  0  0  0999 V2000
   36.1070   30.6020   48.9060 C   0  0  2  0  0  0  0  0  0  0  0  0
   36.9590   31.4240   49.8280 C   0  0  0  0  0  0  0  0  0  0  0  0
   37.7100   30.5810   50.8380 C   0  0  0  0  0  0  0  0  0  0  0  0
   36.7450   29.7220   51.6550 C   0  0  0  0  0  0  0  0  0  0  0  0
   35.5650   29.2120   50.8590 C   0  0  0  0  0  0  0  0  0  0  0  0
   35.9650   29.1920   49.3750 C   0  0  1  0  0  0  0  0  0  0  0  0
   36.6570   30.6010   47.5260 C   0  0  0  0  0  0  0  0  0  0  0  0
   38.0520   30.8150   47.4280 C   0  0  0  0  0  0  0  0  0  0  0  0
   38.5890   30.8110   46.1340 C   0  0  0  0  0  0  0  0  0  0  0  0
   37.7480   30.6030   45.0630 N   0  0  0  0  0  0  0  0  0  0  0  0
   36.4060   30.4000   45.2170 C   0  0  0  0  0  0  0  0  0  0  0  0
   35.8860   30.4040   46.4580 N   0  0  0  0  0  0  0  0  0  0  0  0
   33.8330   28.0050   48.7250 C   0  0  0  0  0  0  0  0  0  0  0  0
   32.9380   28.4530   49.5530 O   0  0  0  0  0  0  0  0  0  0  0  0
   35.1840   28.3570   48.5390 N   0  0  0  0  0  0  0  0  0  0  0  0
   30.7540   28.1320   48.1610 Cl  0  0  0  0  0  0  0  0  0  0  0  0
   31.7800   26.8560   47.6190 C   0  0  0  0  0  0  0  0  0  0  0  0
   33.0930   26.9680   47.9640 C   0  0  0  0  0  0  0  0  0  0  0  0
   33.8750   25.8980   47.4910 C   0  0  0  0  0  0  0  0  0  0  0  0
   33.4380   24.8180   46.7520 C   0  0  0  0  0  0  0  0  0  0  0  0
   32.1010   24.8010   46.4590 C   0  0  0  0  0  0  0  0  0  0  0  0
   31.2840   25.8140   46.8900 C   0  0  0  0  0  0  0  0  0  0  0  0
   29.5630   25.8330   46.5330 Cl  0  0  0  0  0  0  0  0  0  0  0  0
   35.1121   31.0712   48.9064 H   0  0  0  0  0  0  0  0  0  0  0  0
   37.6889   31.9850   49.2259 H   0  0  0  0  0  0  0  0  0  0  0  0
   36.2908   32.0953   50.3873 H   0  0  0  0  0  0  0  0  0  0  0  0
   38.4150   29.9248   50.3066 H   0  0  0  0  0  0  0  0  0  0  0  0
   38.2509   31.2508   51.5227 H   0  0  0  0  0  0  0  0  0  0  0  0
   37.2983   28.8569   52.0493 H   0  0  0  0  0  0  0  0  0  0  0  0
   36.3423   30.3613   52.4544 H   0  0  0  0  0  0  0  0  0  0  0  0
   35.3037   28.1956   51.1888 H   0  0  0  0  0  0  0  0  0  0  0  0
   34.6920   29.8639   51.0103 H   0  0  0  0  0  0  0  0  0  0  0  0
   36.9407   28.6908   49.2919 H   0  0  0  0  0  0  0  0  0  0  0  0
   38.6794   30.9754   48.3172 H   0  0  0  0  0  0  0  0  0  0  0  0
   39.6657   30.9715   45.9757 H   0  0  0  0  0  0  0  0  0  0  0  0
   35.7611   30.2360   44.3411 H   0  0  0  0  0  0  0  0  0  0  0  0
   35.6526   27.9667   47.7090 H   0  0  0  0  0  0  0  0  0  0  0  0
   34.9470   25.9255   47.7361 H   0  0  0  0  0  0  0  0  0  0  0  0
   34.1202   24.0217   46.4196 H   0  0  0  0  0  0  0  0  0  0  0  0
   31.6798   23.9698   45.8744 H   0  0  0  0  0  0  0  0  0  0  0  0
  1  6  1  0
  1  2  1  0
  2  3  1  0
  3  4  1  0
  5  4  1  0
  6  5  1  0
  7  1  1  0
  8  7  2  0
  9  8  1  0
 10 11  1  0
 10  9  2  0
 11 12  2  0
 12  7  1  0
 13 14  2  0
 15 13  1  0
 15  6  1  0
 17 18  2  0
 17 16  1  0
 18 13  1  0
 19 18  1  0
 20 19  2  0
 21 20  1  0
 21 22  2  0
 22 17  1  0
 23 22  1  0
  1 24  1  6
  2 25  1  0
  2 26  1  0
  3 27  1  0
  3 28  1  0
  4 29  1  0
  4 30  1  0
  5 31  1  0
  5 32  1  0
  6 33  1  1
  8 34  1  0
  9 35  1  0
 11 36  1  0
 15 37  1  0
 19 38  1  0
 20 39  1  0
 21 40  1  0
M  ISO  8  24  13  25  13  26  13  27  13  28  13  29  13  30  13  31  13
M  ISO  8  32  13  33  13  34  14  35  14  36  14  38  14  39  14  40  14
M  END
>  <minimizedAffinity>  (1) 
-6.18892288

>  <minimizedRMSD>  (1) 
0.971373916

$$$$
