
     RDKit          3D

 46 48  0  0  1  0  0  0  0  0999 V2000
   36.3730   30.7010   49.0020 C   0  0  2  0  0  0  0  0  0  0  0  0
   37.2650   31.6270   49.7690 C   0  0  0  0  0  0  0  0  0  0  0  0
   38.1630   30.9060   50.7490 C   0  0  0  0  0  0  0  0  0  0  0  0
   37.3420   30.0580   51.7120 C   0  0  0  0  0  0  0  0  0  0  0  0
   36.1430   29.4010   51.0830 C   0  0  0  0  0  0  0  0  0  0  0  0
   36.3660   29.3200   49.5650 C   0  0  1  0  0  0  0  0  0  0  0  0
   36.7790   30.6310   47.5710 C   0  0  0  0  0  0  0  0  0  0  0  0
   38.1440   30.8020   47.3170 C   0  0  0  0  0  0  0  0  0  0  0  0
   38.5440   30.7340   45.9770 C   0  0  0  0  0  0  0  0  0  0  0  0
   37.5950   30.5070   45.0070 N   0  0  0  0  0  0  0  0  0  0  0  0
   36.2680   30.3440   45.3140 C   0  0  0  0  0  0  0  0  0  0  0  0
   35.8800   30.4110   46.5990 N   0  0  0  0  0  0  0  0  0  0  0  0
   34.1340   28.2510   49.0290 C   0  0  0  0  0  0  0  0  0  0  0  0
   33.2800   28.9060   49.6930 O   0  0  0  0  0  0  0  0  0  0  0  0
   35.5400   28.3870   48.8920 N   0  0  0  0  0  0  0  0  0  0  0  0
   33.2480   27.2410   48.3890 C   0  0  0  0  0  0  0  0  0  0  0  0
   31.8320   27.6790   48.7040 C   0  0  0  0  0  0  0  0  0  0  0  0
   30.8910   26.7030   48.0370 C   0  0  0  0  0  0  0  0  0  0  0  0
   31.6330   25.4860   47.5360 C   0  0  0  0  0  0  0  0  0  0  0  0
   32.6830   25.8550   46.5040 C   0  0  0  0  0  0  0  0  0  0  0  0
   33.3990   27.1480   46.9050 C   0  0  0  0  0  0  0  0  0  0  0  0
   35.3583   31.1174   49.0856 H   0  0  0  0  0  0  0  0  0  0  0  0
   37.8956   32.1774   49.0553 H   0  0  0  0  0  0  0  0  0  0  0  0
   36.6181   32.3007   50.3500 H   0  0  0  0  0  0  0  0  0  0  0  0
   38.8535   30.2544   50.1934 H   0  0  0  0  0  0  0  0  0  0  0  0
   38.7247   31.6535   51.3284 H   0  0  0  0  0  0  0  0  0  0  0  0
   37.9929   29.2708   52.1202 H   0  0  0  0  0  0  0  0  0  0  0  0
   36.9605   30.7383   52.4877 H   0  0  0  0  0  0  0  0  0  0  0  0
   36.0180   28.3881   51.4934 H   0  0  0  0  0  0  0  0  0  0  0  0
   35.2379   29.9878   51.2982 H   0  0  0  0  0  0  0  0  0  0  0  0
   37.3577   28.8816   49.3796 H   0  0  0  0  0  0  0  0  0  0  0  0
   38.8655   30.9806   48.1279 H   0  0  0  0  0  0  0  0  0  0  0  0
   39.6020   30.8603   45.7036 H   0  0  0  0  0  0  0  0  0  0  0  0
   35.5307   30.1608   44.5185 H   0  0  0  0  0  0  0  0  0  0  0  0
   36.0064   27.7427   48.2376 H   0  0  0  0  0  0  0  0  0  0  0  0
   33.5095   26.2463   48.7790 H   0  0  0  0  0  0  0  0  0  0  0  0
   31.6706   27.6712   49.7921 H   0  0  0  0  0  0  0  0  0  0  0  0
   31.6532   28.7000   48.3357 H   0  0  0  0  0  0  0  0  0  0  0  0
   30.1291   26.3850   48.7639 H   0  0  0  0  0  0  0  0  0  0  0  0
   30.4211   27.2034   47.1775 H   0  0  0  0  0  0  0  0  0  0  0  0
   32.1268   24.9940   48.3870 H   0  0  0  0  0  0  0  0  0  0  0  0
   30.9054   24.8124   47.0597 H   0  0  0  0  0  0  0  0  0  0  0  0
   32.1964   25.9986   45.5280 H   0  0  0  0  0  0  0  0  0  0  0  0
   33.4227   25.0431   46.4435 H   0  0  0  0  0  0  0  0  0  0  0  0
   34.4626   27.1007   46.6285 H   0  0  0  0  0  0  0  0  0  0  0  0
   32.9753   28.0256   46.3947 H   0  0  0  0  0  0  0  0  0  0  0  0
  1  6  1  0
  1  2  1  0
  2  3  1  0
  3  4  1  0
  5  4  1  0
  6  5  1  0
  7  1  1  0
  8  7  2  0
  9  8  1  0
 10 11  1  0
 10  9  2  0
 11 12  2  0
 12  7  1  0
 13 14  2  0
 15 13  1  0
 15  6  1  0
 16 17  1  0
 16 13  1  0
 18 17  1  0
 19 18  1  0
 20 21  1  0
 20 19  1  0
 21 16  1  0
  1 22  1  6
  2 23  1  0
  2 24  1  0
  3 25  1  0
  3 26  1  0
  4 27  1  0
  4 28  1  0
  5 29  1  0
  5 30  1  0
  6 31  1  1
  8 32  1  0
  9 33  1  0
 11 34  1  0
 15 35  1  0
 16 36  1  0
 17 37  1  0
 17 38  1  0
 18 39  1  0
 18 40  1  0
 19 41  1  0
 19 42  1  0
 20 43  1  0
 20 44  1  0
 21 45  1  0
 21 46  1  0
M  ISO  8  22  13  23  13  24  13  25  13  26  13  27  13  28  13  29  13
M  ISO  8  30  13  31  13  32  14  33  14  34  14  36  13  37  13  38  13
M  ISO  8  39  13  40  13  41  13  42  13  43  13  44  13  45  13  46  13
M  END
>  <minimizedAffinity>  (1) 
-6.1488924

>  <minimizedRMSD>  (1) 
0.785579979

$$$$
