
     RDKit          3D

 37 39  0  0  1  0  0  0  0  0999 V2000
   36.2950   30.7000   48.9850 C   0  0  2  0  0  0  0  0  0  0  0  0
   37.2650   31.5770   49.7150 C   0  0  0  0  0  0  0  0  0  0  0  0
   38.1610   30.8070   50.6620 C   0  0  0  0  0  0  0  0  0  0  0  0
   37.3100   30.0330   51.6690 C   0  0  0  0  0  0  0  0  0  0  0  0
   36.0620   29.4320   51.0800 C   0  0  0  0  0  0  0  0  0  0  0  0
   36.2430   29.3210   49.5540 C   0  0  1  0  0  0  0  0  0  0  0  0
   36.6430   30.6050   47.5420 C   0  0  0  0  0  0  0  0  0  0  0  0
   38.0100   30.7890   47.2310 C   0  0  0  0  0  0  0  0  0  0  0  0
   38.3520   30.6980   45.8780 C   0  0  0  0  0  0  0  0  0  0  0  0
   37.3710   30.4420   44.9500 N   0  0  0  0  0  0  0  0  0  0  0  0
   36.0550   30.2690   45.3100 C   0  0  0  0  0  0  0  0  0  0  0  0
   35.7150   30.3560   46.6110 N   0  0  0  0  0  0  0  0  0  0  0  0
   33.9400   28.3440   49.1100 C   0  0  0  0  0  0  0  0  0  0  0  0
   33.1490   29.0190   49.8320 O   0  0  0  0  0  0  0  0  0  0  0  0
   35.3450   28.4330   48.9110 N   0  0  0  0  0  0  0  0  0  0  0  0
   33.1620   27.3150   48.3950 C   0  0  0  0  0  0  0  0  0  0  0  0
   33.5920   26.3440   47.5230 C   0  0  0  0  0  0  0  0  0  0  0  0
   32.5580   25.5830   47.0720 N   0  0  0  0  0  0  0  0  0  0  0  0
   31.4630   26.0750   47.6640 C   0  0  0  0  0  0  0  0  0  0  0  0
   31.8210   27.1040   48.4500 N   0  0  0  0  0  0  0  0  0  0  0  0
   35.3071   31.1691   49.1034 H   0  0  0  0  0  0  0  0  0  0  0  0
   37.8963   32.0925   48.9762 H   0  0  0  0  0  0  0  0  0  0  0  0
   36.6787   32.2851   50.3190 H   0  0  0  0  0  0  0  0  0  0  0  0
   38.7783   30.1010   50.0872 H   0  0  0  0  0  0  0  0  0  0  0  0
   38.8091   31.5129   51.2021 H   0  0  0  0  0  0  0  0  0  0  0  0
   37.9219   29.2199   52.0867 H   0  0  0  0  0  0  0  0  0  0  0  0
   36.9862   30.7543   52.4338 H   0  0  0  0  0  0  0  0  0  0  0  0
   35.8949   28.4322   51.5071 H   0  0  0  0  0  0  0  0  0  0  0  0
   35.1940   30.0673   51.3103 H   0  0  0  0  0  0  0  0  0  0  0  0
   37.2030   28.8261   49.3455 H   0  0  0  0  0  0  0  0  0  0  0  0
   38.7612   30.9920   48.0085 H   0  0  0  0  0  0  0  0  0  0  0  0
   39.3965   30.8301   45.5594 H   0  0  0  0  0  0  0  0  0  0  0  0
   35.2906   30.0625   44.5465 H   0  0  0  0  0  0  0  0  0  0  0  0
   35.7542   27.7820   48.2257 H   0  0  0  0  0  0  0  0  0  0  0  0
   34.6414   26.1998   47.2264 H   0  0  0  0  0  0  0  0  0  0  0  0
   32.6076   24.7932   46.4127 H   0  0  0  0  0  0  0  0  0  0  0  0
   30.4382   25.6986   47.5291 H   0  0  0  0  0  0  0  0  0  0  0  0
  1  6  1  0
  1  2  1  0
  2  3  1  0
  3  4  1  0
  5  4  1  0
  6  5  1  0
  7  1  1  0
  8  7  2  0
  9  8  1  0
 10 11  1  0
 10  9  2  0
 11 12  2  0
 12  7  1  0
 13 14  2  0
 15 13  1  0
 15  6  1  0
 16 20  1  0
 16 13  1  0
 17 16  2  0
 18 17  1  0
 18 19  1  0
 19 20  2  0
  1 21  1  6
  2 22  1  0
  2 23  1  0
  3 24  1  0
  3 25  1  0
  4 26  1  0
  4 27  1  0
  5 28  1  0
  5 29  1  0
  6 30  1  1
  8 31  1  0
  9 32  1  0
 11 33  1  0
 15 34  1  0
 17 35  1  0
 18 36  1  0
 19 37  1  0
M  ISO  8  21  13  22  13  23  13  24  13  25  13  26  13  27  13  28  13
M  ISO  8  29  13  30  13  31  14  32  14  33  14  35  14  36   9  37  14
M  END
>  <minimizedAffinity>  (1) 
-5.76291847

>  <minimizedRMSD>  (1) 
0.452001393

$$$$
