
     RDKit          3D

 30 31  0  0  0  0  0  0  0  0999 V2000
   35.2310   29.2360   50.5810 C   0  0  0  0  0  0  0  0  0  0  0  0
   34.0420   29.4080   49.9600 C   0  0  0  0  0  0  0  0  0  0  0  0
   34.2350   28.5510   48.9120 O   0  0  0  0  0  0  0  0  0  0  0  0
   33.2030   27.7150   48.5600 C   0  0  0  0  0  0  0  0  0  0  0  0
   33.5730   26.6530   47.7390 C   0  0  0  0  0  0  0  0  0  0  0  0
   32.6310   25.7380   47.3120 C   0  0  0  0  0  0  0  0  0  0  0  0
   31.3430   25.9250   47.7290 N   0  0  0  0  0  0  0  0  0  0  0  0
   31.0000   26.9690   48.5310 C   0  0  0  0  0  0  0  0  0  0  0  0
   31.9140   27.8260   48.9240 N   0  0  0  0  0  0  0  0  0  0  0  0
   36.4740   28.9330   49.8260 C   0  0  0  0  0  0  0  0  0  0  0  0
   38.0160   30.6040   51.4940 F   0  0  0  0  0  0  0  0  0  0  0  0
   37.8950   30.8430   50.1450 C   0  0  0  0  0  0  0  0  0  0  0  0
   37.1660   30.0890   49.2120 C   0  0  0  0  0  0  0  0  0  0  0  0
   37.2020   30.5360   47.9110 C   0  0  0  0  0  0  0  0  0  0  0  0
   37.8960   31.6510   47.5070 C   0  0  0  0  0  0  0  0  0  0  0  0
   38.6090   32.3790   48.4580 C   0  0  0  0  0  0  0  0  0  0  0  0
   38.5950   31.9520   49.7840 C   0  0  0  0  0  0  0  0  0  0  0  0
   35.4262   30.1652   51.1364 H   0  0  0  0  0  0  0  0  0  0  0  0
   35.0672   28.3042   51.1422 H   0  0  0  0  0  0  0  0  0  0  0  0
   33.1957   29.1040   50.5935 H   0  0  0  0  0  0  0  0  0  0  0  0
   33.7896   30.4440   49.6897 H   0  0  0  0  0  0  0  0  0  0  0  0
   34.6224   26.5422   47.4285 H   0  0  0  0  0  0  0  0  0  0  0  0
   32.9060   24.8935   46.6630 H   0  0  0  0  0  0  0  0  0  0  0  0
   29.9551   27.0955   48.8508 H   0  0  0  0  0  0  0  0  0  0  0  0
   37.1783   28.4503   50.5195 H   0  0  0  0  0  0  0  0  0  0  0  0
   36.1591   28.2985   48.9845 H   0  0  0  0  0  0  0  0  0  0  0  0
   36.6437   29.9687   47.1517 H   0  0  0  0  0  0  0  0  0  0  0  0
   37.8890   31.9634   46.4523 H   0  0  0  0  0  0  0  0  0  0  0  0
   39.1739   33.2766   48.1661 H   0  0  0  0  0  0  0  0  0  0  0  0
   39.1543   32.5160   50.5449 H   0  0  0  0  0  0  0  0  0  0  0  0
  2  1  1  0
  3  2  1  0
  4  3  1  0
  4  9  1  0
  5  4  2  0
  6  7  2  0
  6  5  1  0
  7  8  1  0
  8  9  2  0
 10  1  1  0
 12 11  1  0
 13 10  1  0
 13 12  2  0
 14 13  1  0
 15 14  2  0
 15 16  1  0
 16 17  2  0
 17 12  1  0
  1 18  1  0
  1 19  1  0
  2 20  1  0
  2 21  1  0
  5 22  1  0
  6 23  1  0
  8 24  1  0
 10 25  1  0
 10 26  1  0
 14 27  1  0
 15 28  1  0
 16 29  1  0
 17 30  1  0
M  ISO  8  18   8  19   8  20   8  21   8  22  14  23  14  24  14  25   8
M  ISO  5  26   8  27  14  28  14  29  14  30  14
M  END
>  <minimizedAffinity>  (1) 
-5.30664825

>  <minimizedRMSD>  (1) 
5.83425665

$$$$
