
     RDKit          3D

 35 38  0  0  1  0  0  0  0  0999 V2000
   37.5630   31.9940   48.1980 C   0  0  1  0  0  0  0  0  0  0  0  0
   38.7930   32.7390   48.5220 C   0  0  0  0  0  0  0  0  0  0  0  0
   38.9490   31.5540   47.6440 C   0  0  2  0  0  0  0  0  0  0  0  0
   39.3280   31.9660   46.2680 C   0  0  0  0  0  0  0  0  0  0  0  0
   39.7750   33.2910   46.2610 C   0  0  0  0  0  0  0  0  0  0  0  0
   40.2650   33.8680   45.1070 C   0  0  0  0  0  0  0  0  0  0  0  0
   40.3290   33.1460   43.9140 C   0  0  0  0  0  0  0  0  0  0  0  0
   39.8830   31.8460   43.9490 C   0  0  0  0  0  0  0  0  0  0  0  0
   39.8680   31.0140   42.8510 C   0  0  0  0  0  0  0  0  0  0  0  0
   39.4110   29.7120   42.8650 C   0  0  0  0  0  0  0  0  0  0  0  0
   38.9340   29.1950   44.0530 C   0  0  0  0  0  0  0  0  0  0  0  0
   38.9400   30.0060   45.1610 C   0  0  0  0  0  0  0  0  0  0  0  0
   39.4040   31.2960   45.0990 C   0  0  0  0  0  0  0  0  0  0  0  0
   35.2380   29.6470   50.0140 C   0  0  0  0  0  0  0  0  0  0  0  0
   35.7490   30.5390   49.0190 C   0  0  0  0  0  0  0  0  0  0  0  0
   37.0120   31.0590   49.2000 C   0  0  0  0  0  0  0  0  0  0  0  0
   37.6940   30.6770   50.3330 N   0  0  0  0  0  0  0  0  0  0  0  0
   37.1940   29.8400   51.2500 C   0  0  0  0  0  0  0  0  0  0  0  0
   35.9590   29.3130   51.1020 N   0  0  0  0  0  0  0  0  0  0  0  0
   38.0150   29.5330   52.3740 N   0  0  0  0  0  0  0  0  0  0  0  0
   36.5803   32.2923   47.8040 H   0  0  0  0  0  0  0  0  0  0  0  0
   38.9413   33.7451   48.1027 H   0  0  0  0  0  0  0  0  0  0  0  0
   39.2638   33.0478   49.4670 H   0  0  0  0  0  0  0  0  0  0  0  0
   39.4754   30.5882   47.6285 H   0  0  0  0  0  0  0  0  0  0  0  0
   39.7355   33.8816   47.1882 H   0  0  0  0  0  0  0  0  0  0  0  0
   40.6102   34.9122   45.1276 H   0  0  0  0  0  0  0  0  0  0  0  0
   40.7182   33.5963   42.9889 H   0  0  0  0  0  0  0  0  0  0  0  0
   40.2459   31.4147   41.8988 H   0  0  0  0  0  0  0  0  0  0  0  0
   39.4264   29.1003   41.9509 H   0  0  0  0  0  0  0  0  0  0  0  0
   38.5596   28.1623   44.1103 H   0  0  0  0  0  0  0  0  0  0  0  0
   38.5652   29.6137   46.1179 H   0  0  0  0  0  0  0  0  0  0  0  0
   34.2309   29.2231   49.8875 H   0  0  0  0  0  0  0  0  0  0  0  0
   35.1504   30.8022   48.1344 H   0  0  0  0  0  0  0  0  0  0  0  0
   37.6704   28.8934   53.1041 H   0  0  0  0  0  0  0  0  0  0  0  0
   38.9529   29.9508   52.4561 H   0  0  0  0  0  0  0  0  0  0  0  0
  1  2  1  0
  1 16  1  0
  3  1  1  0
  3  2  1  0
  4  3  1  0
  5  4  2  0
  6  5  1  0
  7  8  1  0
  7  6  2  0
  8 13  2  0
  9 10  2  0
  9  8  1  0
 10 11  1  0
 11 12  2  0
 13 12  1  0
 13  4  1  0
 14 19  2  0
 15 16  2  0
 15 14  1  0
 16 17  1  0
 17 18  2  0
 18 20  1  0
 19 18  1  0
  1 21  1  6
  2 22  1  0
  2 23  1  0
  3 24  1  1
  5 25  1  0
  6 26  1  0
  7 27  1  0
  9 28  1  0
 10 29  1  0
 11 30  1  0
 12 31  1  0
 14 32  1  0
 15 33  1  0
 20 34  1  0
 20 35  1  0
M  ISO  8  21  13  22  13  23  13  24  13  25  14  26  14  27  14  28  14
M  ISO  5  29  14  30  14  31  14  32  14  33  14
M  END
>  <minimizedAffinity>  (1) 
-6.5344944

>  <minimizedRMSD>  (1) 
0.314803541

$$$$
