
     RDKit          3D

 41 44  0  0  1  0  0  0  0  0999 V2000
   36.8100   31.2560   47.2560 C   0  0  1  0  0  0  0  0  0  0  0  0
   37.9310   31.9230   47.9710 C   0  0  0  0  0  0  0  0  0  0  0  0
   38.3380   30.8160   47.1290 C   0  0  2  0  0  0  0  0  0  0  0  0
   39.0670   31.2970   45.9070 C   0  0  0  0  0  0  0  0  0  0  0  0
   39.5720   32.5880   46.1320 C   0  0  0  0  0  0  0  0  0  0  0  0
   40.3630   33.1860   45.1840 C   0  0  0  0  0  0  0  0  0  0  0  0
   40.6840   32.5380   43.9860 C   0  0  0  0  0  0  0  0  0  0  0  0
   40.1690   31.2650   43.7980 C   0  0  0  0  0  0  0  0  0  0  0  0
   40.3920   30.5210   42.6750 C   0  0  0  0  0  0  0  0  0  0  0  0
   39.8860   29.2650   42.4650 C   0  0  0  0  0  0  0  0  0  0  0  0
   39.0950   28.7110   43.4520 C   0  0  0  0  0  0  0  0  0  0  0  0
   38.8600   29.4460   44.5900 C   0  0  0  0  0  0  0  0  0  0  0  0
   39.3960   30.7110   44.7530 C   0  0  0  0  0  0  0  0  0  0  0  0
   34.3750   28.5110   48.1390 C   0  0  0  0  0  0  0  0  0  0  0  0
   35.1310   29.4470   47.3730 C   0  0  0  0  0  0  0  0  0  0  0  0
   36.0140   30.2600   48.0190 C   0  0  0  0  0  0  0  0  0  0  0  0
   36.1010   30.1050   49.3890 N   0  0  0  0  0  0  0  0  0  0  0  0
   35.3870   29.2240   50.0930 C   0  0  0  0  0  0  0  0  0  0  0  0
   34.5140   28.4120   49.4860 N   0  0  0  0  0  0  0  0  0  0  0  0
   35.6010   29.1740   51.5820 C   0  0  0  0  0  0  0  0  0  0  0  0
   37.0260   29.7020   51.8480 C   0  0  0  0  0  0  0  0  0  0  0  0
   38.0100   28.8710   51.2320 N   0  0  0  0  0  0  0  0  0  0  0  0
   35.9865   31.6046   46.6155 H   0  0  0  0  0  0  0  0  0  0  0  0
   38.2148   32.9456   47.6816 H   0  0  0  0  0  0  0  0  0  0  0  0
   38.1032   32.1497   49.0335 H   0  0  0  0  0  0  0  0  0  0  0  0
   38.8685   29.8584   47.2367 H   0  0  0  0  0  0  0  0  0  0  0  0
   39.3339   33.1183   47.0659 H   0  0  0  0  0  0  0  0  0  0  0  0
   40.7536   34.1974   45.3697 H   0  0  0  0  0  0  0  0  0  0  0  0
   41.3179   33.0183   43.2261 H   0  0  0  0  0  0  0  0  0  0  0  0
   41.0202   30.9595   41.8856 H   0  0  0  0  0  0  0  0  0  0  0  0
   40.1034   28.7145   41.5378 H   0  0  0  0  0  0  0  0  0  0  0  0
   38.6635   27.7064   43.3308 H   0  0  0  0  0  0  0  0  0  0  0  0
   38.2331   29.0196   45.3870 H   0  0  0  0  0  0  0  0  0  0  0  0
   33.6602   27.8517   47.6247 H   0  0  0  0  0  0  0  0  0  0  0  0
   35.0039   29.5115   46.2823 H   0  0  0  0  0  0  0  0  0  0  0  0
   34.8612   29.8085   52.0920 H   0  0  0  0  0  0  0  0  0  0  0  0
   35.4837   28.1485   51.9624 H   0  0  0  0  0  0  0  0  0  0  0  0
   37.1123   30.7208   51.4422 H   0  0  0  0  0  0  0  0  0  0  0  0
   37.2001   29.6999   52.9341 H   0  0  0  0  0  0  0  0  0  0  0  0
   38.5667   28.4008   51.9599 H   0  0  0  0  0  0  0  0  0  0  0  0
   37.5440   28.1638   50.6458 H   0  0  0  0  0  0  0  0  0  0  0  0
  1  2  1  0
  1 16  1  0
  3  1  1  0
  3  2  1  0
  4  5  2  0
  4  3  1  0
  6  5  1  0
  7  6  2  0
  8  7  1  0
  8 13  2  0
  9  8  1  0
 10  9  2  0
 10 11  1  0
 11 12  2  0
 12 13  1  0
 13  4  1  0
 14 19  2  0
 15 16  2  0
 15 14  1  0
 16 17  1  0
 17 18  2  0
 18 20  1  0
 19 18  1  0
 20 21  1  0
 22 21  1  0
  1 23  1  6
  2 24  1  0
  2 25  1  0
  3 26  1  1
  5 27  1  0
  6 28  1  0
  7 29  1  0
  9 30  1  0
 10 31  1  0
 11 32  1  0
 12 33  1  0
 14 34  1  0
 15 35  1  0
 20 36  1  0
 20 37  1  0
 21 38  1  0
 21 39  1  0
 22 40  1  0
 22 41  1  0
M  ISO  8  23  13  24  13  25  13  26  13  27  14  28  14  29  14  30  14
M  ISO  8  31  14  32  14  33  14  34  14  35  14  36   8  37   8  38   8
M  ISO  3  39   8  40   5  41   5
M  END
>  <minimizedAffinity>  (1) 
-5.84497499

>  <minimizedRMSD>  (1) 
0.26109305

$$$$
