
     RDKit          3D

 32 34  0  0  1  0  0  0  0  0999 V2000
   36.6990   31.0600   48.3800 C   0  0  0  0  0  0  0  0  0  0  0  0
   36.5080   31.5330   49.7020 C   0  0  0  0  0  0  0  0  0  0  0  0
   37.2710   32.5730   50.2450 C   0  0  0  0  0  0  0  0  0  0  0  0
   38.2480   33.1560   49.4460 C   0  0  0  0  0  0  0  0  0  0  0  0
   38.4150   32.6740   48.1540 C   0  0  0  0  0  0  0  0  0  0  0  0
   37.6640   31.6470   47.6220 C   0  0  0  0  0  0  0  0  0  0  0  0
   38.1180   31.2770   46.3100 C   0  0  0  0  0  0  0  0  0  0  0  0
   37.9240   32.1550   45.2310 C   0  0  0  0  0  0  0  0  0  0  0  0
   38.3450   32.0060   43.9310 C   0  0  0  0  0  0  0  0  0  0  0  0
   39.0380   30.8690   43.6290 N   0  0  0  0  0  0  0  0  0  0  0  0
   39.2500   30.0030   44.6110 C   0  0  0  0  0  0  0  0  0  0  0  0
   38.7850   30.3080   45.7650 N   0  0  0  0  0  0  0  0  0  0  0  0
   35.8370   29.9880   47.9300 C   0  0  0  0  0  0  0  0  0  0  0  0
   35.9270   28.9020   48.6290 O   0  0  0  0  0  0  0  0  0  0  0  0
   32.7320   30.6050   46.1670 C   0  0  0  0  0  0  0  0  0  0  0  0
   33.0220   30.3150   44.8450 C   0  0  0  0  0  0  0  0  0  0  0  0
   34.2970   29.8860   44.5540 C   0  0  0  0  0  0  0  0  0  0  0  0
   35.2490   29.7510   45.5460 N   0  0  0  0  0  0  0  0  0  0  0  0
   34.9210   30.0460   46.8080 C   0  0  0  0  0  0  0  0  0  0  0  0
   33.6670   30.4660   47.0930 N   0  0  0  0  0  0  0  0  0  0  0  0
   35.7311   31.0653   50.3246 H   0  0  0  0  0  0  0  0  0  0  0  0
   37.1024   32.9195   51.2753 H   0  0  0  0  0  0  0  0  0  0  0  0
   38.8725   33.9775   49.8270 H   0  0  0  0  0  0  0  0  0  0  0  0
   39.1874   33.1361   47.5216 H   0  0  0  0  0  0  0  0  0  0  0  0
   37.3658   33.0763   45.4540 H   0  0  0  0  0  0  0  0  0  0  0  0
   38.1329   32.7691   43.1677 H   0  0  0  0  0  0  0  0  0  0  0  0
   39.8001   29.0655   44.4421 H   0  0  0  0  0  0  0  0  0  0  0  0
   36.6346   29.6259   47.2647 H   0  0  0  0  0  0  0  0  0  0  0  0
   35.9083   29.1274   49.5928 H   0  0  0  0  0  0  0  0  0  0  0  0
   31.7260   30.9504   46.4474 H   0  0  0  0  0  0  0  0  0  0  0  0
   32.2623   30.4233   44.0569 H   0  0  0  0  0  0  0  0  0  0  0  0
   34.5625   29.6465   43.5137 H   0  0  0  0  0  0  0  0  0  0  0  0
  1  2  2  0
  2  3  1  0
  4  3  2  0
  5  4  1  0
  6  5  2  0
  6  1  1  0
  7  6  1  0
  8  7  2  0
  9  8  1  0
 10  9  2  0
 10 11  1  0
 11 12  2  0
 12  7  1  0
 13  1  1  0
 13 14  1  0
 15 20  2  0
 16 15  1  0
 17 16  2  0
 17 18  1  0
 18 19  2  0
 19 20  1  0
 19 13  1  0
  2 21  1  0
  3 22  1  0
  4 23  1  0
  5 24  1  0
  8 25  1  0
  9 26  1  0
 11 27  1  0
 13 28  1  0
 14 29  1  0
 15 30  1  0
 16 31  1  0
 17 32  1  0
M  ISO  8  21  14  22  14  23  14  24  14  25  14  26  14  27  14  28   8
M  ISO  4  29   3  30  14  31  14  32  14
M  END
>  <minimizedAffinity>  (1) 
-5.36746883

>  <minimizedRMSD>  (1) 
1.80948758

$$$$
