
     RDKit          3D

 31 33  0  0  1  0  0  0  0  0999 V2000
   37.1760   31.3030   48.3830 C   0  0  0  0  0  0  0  0  0  0  0  0
   36.8760   31.9820   49.5860 C   0  0  0  0  0  0  0  0  0  0  0  0
   37.5800   33.0890   50.0380 C   0  0  0  0  0  0  0  0  0  0  0  0
   38.6330   33.5500   49.2620 C   0  0  0  0  0  0  0  0  0  0  0  0
   38.9100   32.8760   48.0960 C   0  0  0  0  0  0  0  0  0  0  0  0
   38.2110   31.7670   47.6380 C   0  0  0  0  0  0  0  0  0  0  0  0
   38.7070   31.2140   46.3990 C   0  0  0  0  0  0  0  0  0  0  0  0
   38.7020   31.8950   45.2010 C   0  0  0  0  0  0  0  0  0  0  0  0
   39.1880   31.1940   44.1320 C   0  0  0  0  0  0  0  0  0  0  0  0
   39.5110   30.0270   44.6870 N   0  0  0  0  0  0  0  0  0  0  0  0
   39.2230   30.0980   45.9360 N   0  0  0  0  0  0  0  0  0  0  0  0
   36.3300   30.1800   48.0330 C   0  0  0  0  0  0  0  0  0  0  0  0
   36.5100   29.1270   48.7550 O   0  0  0  0  0  0  0  0  0  0  0  0
   33.0650   30.4360   46.4570 C   0  0  0  0  0  0  0  0  0  0  0  0
   33.3190   30.2940   45.1040 C   0  0  0  0  0  0  0  0  0  0  0  0
   34.6280   30.0920   44.7400 C   0  0  0  0  0  0  0  0  0  0  0  0
   35.6430   30.0340   45.6720 N   0  0  0  0  0  0  0  0  0  0  0  0
   35.3430   30.1800   46.9680 C   0  0  0  0  0  0  0  0  0  0  0  0
   34.0710   30.3730   47.3160 N   0  0  0  0  0  0  0  0  0  0  0  0
   36.0391   31.6128   50.1969 H   0  0  0  0  0  0  0  0  0  0  0  0
   37.3114   33.5854   50.9822 H   0  0  0  0  0  0  0  0  0  0  0  0
   39.2259   34.4243   49.5686 H   0  0  0  0  0  0  0  0  0  0  0  0
   39.7458   33.2418   47.4815 H   0  0  0  0  0  0  0  0  0  0  0  0
   38.3338   32.9276   45.1110 H   0  0  0  0  0  0  0  0  0  0  0  0
   39.2867   31.5121   43.0836 H   0  0  0  0  0  0  0  0  0  0  0  0
   39.9181   29.2147   44.2019 H   0  0  0  0  0  0  0  0  0  0  0  0
   37.0937   29.8253   47.3252 H   0  0  0  0  0  0  0  0  0  0  0  0
   36.4680   29.3727   49.7131 H   0  0  0  0  0  0  0  0  0  0  0  0
   32.0379   30.5995   46.8153 H   0  0  0  0  0  0  0  0  0  0  0  0
   32.5127   30.3406   44.3572 H   0  0  0  0  0  0  0  0  0  0  0  0
   34.8738   29.9731   43.6744 H   0  0  0  0  0  0  0  0  0  0  0  0
  1  2  2  0
  2  3  1  0
  4  3  2  0
  5  4  1  0
  6  5  2  0
  6  1  1  0
  7  6  1  0
  8  7  1  0
  9 10  1  0
  9  8  2  0
 10 11  1  0
 11  7  2  0
 12  1  1  0
 12 13  1  0
 14 19  2  0
 15 14  1  0
 16 15  2  0
 16 17  1  0
 17 18  2  0
 18 19  1  0
 18 12  1  0
  2 20  1  0
  3 21  1  0
  4 22  1  0
  5 23  1  0
  8 24  1  0
  9 25  1  0
 10 26  1  0
 12 27  1  0
 13 28  1  0
 14 29  1  0
 15 30  1  0
 16 31  1  0
M  ISO  8  20  14  21  14  22  14  23  14  24  14  25  14  26   9  27   8
M  ISO  4  28   3  29  14  30  14  31  14
M  END
>  <minimizedAffinity>  (1) 
-5.23232317

>  <minimizedRMSD>  (1) 
2.27647328

$$$$
