
     RDKit          3D

 21 21  0  0  0  0  0  0  0  0999 V2000
   35.7740   30.1580   49.8810 C   0  0  0  0  0  0  0  0  0  0  0  0
   36.5190   29.4390   50.7080 C   0  0  0  0  0  0  0  0  0  0  0  0
   37.2930   30.0250   51.8420 C   0  0  0  0  0  0  0  0  0  0  0  0
   38.1520   29.1110   52.4440 O   0  0  0  0  0  0  0  0  0  0  0  0
   36.5630   31.3010   49.8720 O   0  0  0  0  0  0  0  0  0  0  0  0
   37.2530   31.5840   48.7190 C   0  0  0  0  0  0  0  0  0  0  0  0
   38.3000   32.4760   48.9170 C   0  0  0  0  0  0  0  0  0  0  0  0
   39.0930   32.8560   47.8310 C   0  0  0  0  0  0  0  0  0  0  0  0
   38.7710   32.3050   46.6000 N   0  0  0  0  0  0  0  0  0  0  0  0
   37.7470   31.4400   46.4430 C   0  0  0  0  0  0  0  0  0  0  0  0
   37.0180   31.1020   47.4890 N   0  0  0  0  0  0  0  0  0  0  0  0
   35.6916   29.6984   48.8850 H   0  0  0  0  0  0  0  0  0  0  0  0
   34.7210   30.2951   50.1682 H   0  0  0  0  0  0  0  0  0  0  0  0
   35.8402   28.6996   51.1580 H   0  0  0  0  0  0  0  0  0  0  0  0
   37.3305   29.1161   50.0392 H   0  0  0  0  0  0  0  0  0  0  0  0
   37.8888   30.8677   51.4613 H   0  0  0  0  0  0  0  0  0  0  0  0
   36.5677   30.3460   52.6042 H   0  0  0  0  0  0  0  0  0  0  0  0
   38.0792   29.1885   53.4283 H   0  0  0  0  0  0  0  0  0  0  0  0
   38.5028   32.8795   49.9200 H   0  0  0  0  0  0  0  0  0  0  0  0
   39.9318   33.5581   47.9470 H   0  0  0  0  0  0  0  0  0  0  0  0
   37.5223   31.0205   45.4513 H   0  0  0  0  0  0  0  0  0  0  0  0
  1  2  1  0
  2  3  1  0
  3  4  1  0
  5  1  1  0
  6  7  2  0
  6  5  1  0
  8  7  1  0
  9  8  2  0
 10  9  1  0
 10 11  2  0
 11  6  1  0
  1 12  1  0
  1 13  1  0
  2 14  1  0
  2 15  1  0
  3 16  1  0
  3 17  1  0
  4 18  1  0
  7 19  1  0
  8 20  1  0
 10 21  1  0
M  ISO  8  12   8  13   8  14   8  15   8  16   8  17   8  18   3  19  14
M  ISO  2  20  14  21  14
M  END
>  <minimizedAffinity>  (1) 
-3.70416999

>  <minimizedRMSD>  (1) 
0.314386785

$$$$
