
     RDKit          3D

 38 40  0  0  1  0  0  0  0  0999 V2000
   37.0600   30.9650   49.0700 C   0  0  0  0  0  0  0  0  0  0  0  0
   36.8190   31.9230   50.0490 C   0  0  0  0  0  0  0  0  0  0  0  0
   37.4400   33.1570   50.0620 C   0  0  0  0  0  0  0  0  0  0  0  0
   38.3510   33.4780   49.0600 C   0  0  0  0  0  0  0  0  0  0  0  0
   38.5820   32.5240   48.0960 C   0  0  0  0  0  0  0  0  0  0  0  0
   37.9450   31.2950   48.1080 C   0  0  0  0  0  0  0  0  0  0  0  0
   36.3600   29.7000   49.1430 C   0  0  0  0  0  0  0  0  0  0  0  0
   36.8780   28.8530   49.9760 O   0  0  0  0  0  0  0  0  0  0  0  0
   33.6090   30.1510   46.8380 C   0  0  0  0  0  0  0  0  0  0  0  0
   32.9510   28.9180   46.8480 C   0  0  0  0  0  0  0  0  0  0  0  0
   33.4600   27.9310   47.6530 C   0  0  0  0  0  0  0  0  0  0  0  0
   34.5660   28.1660   48.4050 N   0  0  0  0  0  0  0  0  0  0  0  0
   35.1750   29.3380   48.3840 C   0  0  0  0  0  0  0  0  0  0  0  0
   34.6840   30.3200   47.5950 N   0  0  0  0  0  0  0  0  0  0  0  0
   38.3090   30.4140   47.0230 C   0  0  0  0  0  0  0  0  0  0  0  0
   38.8780   30.7560   45.8780 C   0  0  0  0  0  0  0  0  0  0  0  0
   39.3070   29.9690   44.7140 C   0  0  0  0  0  0  0  0  0  0  0  0
   39.4580   30.8570   43.5330 C   0  0  0  0  0  0  0  0  0  0  0  0
   39.1940   32.2240   43.3980 C   0  0  0  0  0  0  0  0  0  0  0  0
   39.4990   32.5340   42.1260 N   0  0  0  0  0  0  0  0  0  0  0  0
   39.9320   31.4350   41.4820 C   0  0  0  0  0  0  0  0  0  0  0  0
   39.9110   30.4030   42.3330 N   0  0  0  0  0  0  0  0  0  0  0  0
   36.1016   31.6876   50.8490 H   0  0  0  0  0  0  0  0  0  0  0  0
   37.2159   33.8811   50.8591 H   0  0  0  0  0  0  0  0  0  0  0  0
   38.8635   34.4511   49.0397 H   0  0  0  0  0  0  0  0  0  0  0  0
   39.2963   32.7451   47.2892 H   0  0  0  0  0  0  0  0  0  0  0  0
   36.9977   29.3008   48.3405 H   0  0  0  0  0  0  0  0  0  0  0  0
   36.6969   29.1491   50.9031 H   0  0  0  0  0  0  0  0  0  0  0  0
   33.2385   30.9732   46.2081 H   0  0  0  0  0  0  0  0  0  0  0  0
   32.0563   28.7452   46.2319 H   0  0  0  0  0  0  0  0  0  0  0  0
   32.9709   26.9464   47.6895 H   0  0  0  0  0  0  0  0  0  0  0  0
   38.0901   29.3452   47.1631 H   0  0  0  0  0  0  0  0  0  0  0  0
   39.0654   31.8354   45.7791 H   0  0  0  0  0  0  0  0  0  0  0  0
   40.2712   29.4875   44.9343 H   0  0  0  0  0  0  0  0  0  0  0  0
   38.5499   29.2013   44.4962 H   0  0  0  0  0  0  0  0  0  0  0  0
   38.8146   32.9055   44.1736 H   0  0  0  0  0  0  0  0  0  0  0  0
   39.4140   33.4714   41.7076 H   0  0  0  0  0  0  0  0  0  0  0  0
   40.2505   31.3921   40.4300 H   0  0  0  0  0  0  0  0  0  0  0  0
  1  7  1  0
  1  2  2  0
  2  3  1  0
  4  3  2  0
  5  6  2  0
  5  4  1  0
  6  1  1  0
  7  8  1  0
  9 10  2  0
  9 14  1  0
 10 11  1  0
 11 12  2  0
 13 12  1  0
 13  7  1  0
 14 13  2  0
 15  6  1  0
 16 15  2  0
 17 16  1  0
 18 17  1  0
 19 18  2  0
 20 19  1  0
 21 20  1  0
 21 22  2  0
 22 18  1  0
  2 23  1  0
  3 24  1  0
  4 25  1  0
  5 26  1  0
  7 27  1  0
  8 28  1  0
  9 29  1  0
 10 30  1  0
 11 31  1  0
 15 32  1  0
 16 33  1  0
 17 34  1  0
 17 35  1  0
 19 36  1  0
 20 37  1  0
 21 38  1  0
M  ISO  8  23  14  24  14  25  14  26  14  27   8  28   3  29  14  30  14
M  ISO  6  31  14  34   8  35   8  36  14  37   9  38  14
M  END
>  <minimizedAffinity>  (1) 
-5.83344889

>  <minimizedRMSD>  (1) 
2.46269846

$$$$
