
     RDKit          3D

 46 48  0  0  1  0  0  0  0  0999 V2000
   37.7570   31.1500   48.8350 C   0  0  0  0  0  0  0  0  0  0  0  0
   37.7170   32.1570   49.8040 C   0  0  0  0  0  0  0  0  0  0  0  0
   38.3460   33.3790   49.6110 C   0  0  0  0  0  0  0  0  0  0  0  0
   39.0380   33.6190   48.4250 C   0  0  0  0  0  0  0  0  0  0  0  0
   39.0670   32.6220   47.4880 C   0  0  0  0  0  0  0  0  0  0  0  0
   38.4300   31.4120   47.7100 C   0  0  0  0  0  0  0  0  0  0  0  0
   37.1320   29.8640   49.0490 C   0  0  2  0  0  0  0  0  0  0  0  0
   34.0310   30.1660   47.1770 C   0  0  0  0  0  0  0  0  0  0  0  0
   33.3320   29.0190   47.5000 C   0  0  0  0  0  0  0  0  0  0  0  0
   33.8930   28.1520   48.4190 C   0  0  0  0  0  0  0  0  0  0  0  0
   35.1160   28.4550   48.9750 N   0  0  0  0  0  0  0  0  0  0  0  0
   35.7340   29.5640   48.6250 C   0  0  0  0  0  0  0  0  0  0  0  0
   35.2020   30.4230   47.7310 N   0  0  0  0  0  0  0  0  0  0  0  0
   37.6600   29.2110   50.0230 O   0  0  0  0  0  0  0  0  0  0  0  0
   38.5700   30.4400   46.6500 C   0  0  0  0  0  0  0  0  0  0  0  0
   38.9500   30.7480   45.4050 C   0  0  0  0  0  0  0  0  0  0  0  0
   39.1690   29.8330   44.2600 C   0  0  0  0  0  0  0  0  0  0  0  0
   40.4080   30.5230   43.1600 S   0  0  0  0  0  0  0  0  0  0  0  0
   41.2180   29.2570   42.1540 C   0  0  0  0  0  0  0  0  0  0  0  0
   41.4820   29.7870   40.7840 C   0  0  0  0  0  0  0  0  0  0  0  0
   41.8990   28.7650   39.7850 C   0  0  0  0  0  0  0  0  0  0  0  0
   41.2770   27.5450   39.8750 O   0  0  0  0  0  0  0  0  0  0  0  0
   40.1700   27.4970   40.6910 C   0  0  0  0  0  0  0  0  0  0  0  0
   40.3880   28.0190   42.0720 C   0  0  0  0  0  0  0  0  0  0  0  0
   37.1733   31.9762   50.7430 H   0  0  0  0  0  0  0  0  0  0  0  0
   38.2987   34.1542   50.3900 H   0  0  0  0  0  0  0  0  0  0  0  0
   39.5446   34.5792   48.2479 H   0  0  0  0  0  0  0  0  0  0  0  0
   39.6053   32.7842   46.5425 H   0  0  0  0  0  0  0  0  0  0  0  0
   37.4030   29.3463   48.1171 H   0  0  0  0  0  0  0  0  0  0  0  0
   33.6071   30.8739   46.4495 H   0  0  0  0  0  0  0  0  0  0  0  0
   32.3571   28.8019   47.0392 H   0  0  0  0  0  0  0  0  0  0  0  0
   33.3674   27.2286   48.7036 H   0  0  0  0  0  0  0  0  0  0  0  0
   37.3510   29.5931   50.8824 H   0  0  0  0  0  0  0  0  0  0  0  0
   38.3516   29.3867   46.8800 H   0  0  0  0  0  0  0  0  0  0  0  0
   39.1217   31.8161   45.2058 H   0  0  0  0  0  0  0  0  0  0  0  0
   39.5141   28.8574   44.6328 H   0  0  0  0  0  0  0  0  0  0  0  0
   38.2248   29.7063   43.7101 H   0  0  0  0  0  0  0  0  0  0  0  0
   42.1724   28.9964   42.6348 H   0  0  0  0  0  0  0  0  0  0  0  0
   40.5608   30.2650   40.4194 H   0  0  0  0  0  0  0  0  0  0  0  0
   42.3264   30.4852   40.8813 H   0  0  0  0  0  0  0  0  0  0  0  0
   42.9802   28.6007   39.9033 H   0  0  0  0  0  0  0  0  0  0  0  0
   41.6094   29.1733   38.8055 H   0  0  0  0  0  0  0  0  0  0  0  0
   39.3729   28.0924   40.2219 H   0  0  0  0  0  0  0  0  0  0  0  0
   39.9106   26.4335   40.7991 H   0  0  0  0  0  0  0  0  0  0  0  0
   39.4045   28.2375   42.5136 H   0  0  0  0  0  0  0  0  0  0  0  0
   40.9449   27.2388   42.6115 H   0  0  0  0  0  0  0  0  0  0  0  0
  1  7  1  0
  1  2  2  0
  3  2  1  0
  4  3  2  0
  5  6  2  0
  5  4  1  0
  6  1  1  0
  7 14  1  0
  8  9  2  0
  8 13  1  0
  9 10  1  0
 10 11  2  0
 12 11  1  0
 12  7  1  0
 13 12  2  0
 15  6  1  0
 16 15  2  0
 17 16  1  0
 18 17  1  0
 19 18  1  0
 20 19  1  0
 21 22  1  0
 21 20  1  0
 22 23  1  0
 23 24  1  0
 24 19  1  0
  2 25  1  0
  3 26  1  0
  4 27  1  0
  5 28  1  0
  7 29  1  6
  8 30  1  0
  9 31  1  0
 10 32  1  0
 14 33  1  0
 15 34  1  0
 16 35  1  0
 17 36  1  0
 17 37  1  0
 19 38  1  0
 20 39  1  0
 20 40  1  0
 21 41  1  0
 21 42  1  0
 23 43  1  0
 23 44  1  0
 24 45  1  0
 24 46  1  0
M  ISO  8  25  14  26  14  27  14  28  14  29   8  30  14  31  14  32  14
M  ISO  8  33   3  36   8  37   8  38  13  39  13  40  13  41  13  42  13
M  ISO  4  43  13  44  13  45  13  46  13
M  END
>  <minimizedAffinity>  (1) 
-6.02979708

>  <minimizedRMSD>  (1) 
1.24859047

$$$$
