
     RDKit          3D

 24 25  0  0  1  0  0  0  0  0999 V2000
   36.2610   30.0180   49.1640 O   0  0  0  0  0  0  0  0  0  0  0  0
   38.0760   33.1640   49.3650 C   0  0  0  0  0  0  0  0  0  0  0  0
   38.9450   32.9800   48.2640 C   0  0  0  0  0  0  0  0  0  0  0  0
   38.8680   31.8030   47.5150 C   0  0  0  0  0  0  0  0  0  0  0  0
   37.9330   30.8750   47.9030 N   0  0  0  0  0  0  0  0  0  0  0  0
   37.1180   31.0780   48.9580 C   0  0  0  0  0  0  0  0  0  0  0  0
   37.1960   32.2220   49.6810 N   0  0  0  0  0  0  0  0  0  0  0  0
   34.1600   30.2110   47.9370 C   0  0  2  0  0  0  0  0  0  0  0  0
   34.8850   30.3540   49.2340 C   0  0  1  0  0  0  0  0  0  0  0  0
   34.3030   29.4060   50.0710 O   0  0  0  0  0  0  0  0  0  0  0  0
   34.3120   28.2600   49.2770 C   0  0  0  0  0  0  0  0  0  0  0  0
   33.6760   28.7580   47.9970 C   0  0  2  0  0  0  0  0  0  0  0  0
   34.9390   30.4560   46.8230 O   0  0  0  0  0  0  0  0  0  0  0  0
   34.1870   28.0450   46.9120 O   0  0  0  0  0  0  0  0  0  0  0  0
   38.1296   34.0880   49.9594 H   0  0  0  0  0  0  0  0  0  0  0  0
   39.6762   33.7581   47.9994 H   0  0  0  0  0  0  0  0  0  0  0  0
   39.5275   31.6274   46.6523 H   0  0  0  0  0  0  0  0  0  0  0  0
   33.3545   30.9517   47.8256 H   0  0  0  0  0  0  0  0  0  0  0  0
   34.8162   31.4018   49.5617 H   0  0  0  0  0  0  0  0  0  0  0  0
   35.3378   27.9038   49.1012 H   0  0  0  0  0  0  0  0  0  0  0  0
   33.7886   27.4041   49.7281 H   0  0  0  0  0  0  0  0  0  0  0  0
   32.5816   28.6508   47.9683 H   0  0  0  0  0  0  0  0  0  0  0  0
   35.8432   30.7404   47.1087 H   0  0  0  0  0  0  0  0  0  0  0  0
   34.7307   27.2864   47.2422 H   0  0  0  0  0  0  0  0  0  0  0  0
  2  7  2  0
  3  2  1  0
  4  5  1  0
  4  3  2  0
  5  6  2  0
  6  1  1  0
  6  7  1  0
  8 13  1  0
  8 12  1  0
  8  9  1  0
  9  1  1  0
  9 10  1  0
 11 10  1  0
 12 14  1  0
 12 11  1  0
  2 15  1  0
  3 16  1  0
  4 17  1  0
  8 18  1  1
  9 19  1  1
 11 20  1  0
 11 21  1  0
 12 22  1  1
 13 23  1  0
 14 24  1  0
M  ISO  8  15  14  16  14  17  14  18  13  19  13  20  13  21  13  22  13
M  ISO  2  23   3  24   3
M  END
>  <minimizedAffinity>  (1) 
-4.48382378

>  <minimizedRMSD>  (1) 
3.23819542

$$$$
