
     RDKit          3D

 23 24  0  0  1  0  0  0  0  0999 V2000
   38.8660   33.0500   48.4510 C   0  0  0  0  0  0  0  0  0  0  0  0
   39.1560   32.4690   47.1940 C   0  0  0  0  0  0  0  0  0  0  0  0
   38.7040   31.1620   46.9440 C   0  0  0  0  0  0  0  0  0  0  0  0
   38.0040   30.5210   47.9370 N   0  0  0  0  0  0  0  0  0  0  0  0
   37.7510   31.1230   49.1280 C   0  0  0  0  0  0  0  0  0  0  0  0
   38.1770   32.3740   49.3860 N   0  0  0  0  0  0  0  0  0  0  0  0
   37.0370   30.2970   49.9680 O   0  0  0  0  0  0  0  0  0  0  0  0
   35.1380   30.3920   48.5190 N   0  0  0  0  0  0  0  0  0  0  0  0
   34.2150   29.2960   48.3580 C   0  0  0  0  0  0  0  0  0  0  0  0
   34.7300   28.2770   49.3420 C   0  0  0  0  0  0  0  0  0  0  0  0
   35.0830   29.1360   50.5400 C   0  0  0  0  0  0  0  0  0  0  0  0
   35.6200   30.3860   49.8630 C   0  0  1  0  0  0  0  0  0  0  0  0
   39.2103   34.0722   48.6666 H   0  0  0  0  0  0  0  0  0  0  0  0
   39.7208   33.0260   46.4319 H   0  0  0  0  0  0  0  0  0  0  0  0
   38.9047   30.6673   45.9822 H   0  0  0  0  0  0  0  0  0  0  0  0
   34.6570   31.2822   48.3266 H   0  0  0  0  0  0  0  0  0  0  0  0
   33.1884   29.6030   48.6066 H   0  0  0  0  0  0  0  0  0  0  0  0
   34.1645   28.9177   47.3263 H   0  0  0  0  0  0  0  0  0  0  0  0
   33.9539   27.5397   49.5951 H   0  0  0  0  0  0  0  0  0  0  0  0
   35.5742   27.6836   48.9609 H   0  0  0  0  0  0  0  0  0  0  0  0
   34.1959   29.3587   51.1511 H   0  0  0  0  0  0  0  0  0  0  0  0
   35.7887   28.6645   51.2398 H   0  0  0  0  0  0  0  0  0  0  0  0
   35.2928   31.3331   50.3168 H   0  0  0  0  0  0  0  0  0  0  0  0
  1  6  2  0
  2  1  1  0
  3  2  2  0
  3  4  1  0
  4  5  2  0
  5  6  1  0
  5  7  1  0
  8 12  1  0
  9  8  1  0
  9 10  1  0
 10 11  1  0
 12  7  1  0
 12 11  1  0
  1 13  1  0
  2 14  1  0
  3 15  1  0
  8 16  1  0
  9 17  1  0
  9 18  1  0
 10 19  1  0
 10 20  1  0
 11 21  1  0
 11 22  1  0
 12 23  1  1
M  ISO  8  13  14  14  14  15  14  16   5  17  13  18  13  19  13  20  13
M  ISO  3  21  13  22  13  23  13
M  END
>  <minimizedAffinity>  (1) 
-4.23096848

>  <minimizedRMSD>  (1) 
3.39348817

$$$$
