
     RDKit          3D

 23 24  0  0  1  0  0  0  0  0999 V2000
   35.3680   28.8010   48.4850 O   0  0  0  0  0  0  0  0  0  0  0  0
   37.2960   30.1360   51.2630 C   0  0  0  0  0  0  0  0  0  0  0  0
   38.2350   30.9050   50.5490 C   0  0  0  0  0  0  0  0  0  0  0  0
   38.1640   30.9310   49.1460 C   0  0  0  0  0  0  0  0  0  0  0  0
   37.1700   30.1940   48.5660 N   0  0  0  0  0  0  0  0  0  0  0  0
   36.2870   29.4690   49.2720 C   0  0  0  0  0  0  0  0  0  0  0  0
   36.3450   29.4370   50.6210 N   0  0  0  0  0  0  0  0  0  0  0  0
   33.7580   29.9030   47.1660 C   0  0  2  0  0  0  0  0  0  0  0  0
   33.9890   29.1130   48.4340 C   0  0  1  0  0  0  0  0  0  0  0  0
   33.1460   27.8700   48.1850 C   0  0  0  0  0  0  0  0  0  0  0  0
   33.3050   27.6820   46.7930 O   0  0  0  0  0  0  0  0  0  0  0  0
   32.9530   28.9360   46.3230 C   0  0  0  0  0  0  0  0  0  0  0  0
   34.9140   30.3370   46.5670 O   0  0  0  0  0  0  0  0  0  0  0  0
   37.3417   30.1072   52.3617 H   0  0  0  0  0  0  0  0  0  0  0  0
   39.0108   31.4756   51.0805 H   0  0  0  0  0  0  0  0  0  0  0  0
   38.8742   31.5163   48.5435 H   0  0  0  0  0  0  0  0  0  0  0  0
   33.2355   30.8552   47.3399 H   0  0  0  0  0  0  0  0  0  0  0  0
   33.7273   29.6151   49.3771 H   0  0  0  0  0  0  0  0  0  0  0  0
   33.5281   27.0077   48.7511 H   0  0  0  0  0  0  0  0  0  0  0  0
   32.0978   27.9738   48.5020 H   0  0  0  0  0  0  0  0  0  0  0  0
   33.2138   29.0388   45.2593 H   0  0  0  0  0  0  0  0  0  0  0  0
   31.8711   29.1198   46.3980 H   0  0  0  0  0  0  0  0  0  0  0  0
   35.5734   30.5845   47.2628 H   0  0  0  0  0  0  0  0  0  0  0  0
  1  6  1  0
  3  2  2  0
  4  3  1  0
  5  4  2  0
  5  6  1  0
  6  7  2  0
  7  2  1  0
  8 13  1  0
  8  9  1  0
  9  1  1  0
 10  9  1  0
 11 10  1  0
 12 11  1  0
 12  8  1  0
  2 14  1  0
  3 15  1  0
  4 16  1  0
  8 17  1  1
  9 18  1  1
 10 19  1  0
 10 20  1  0
 12 21  1  0
 12 22  1  0
 13 23  1  0
M  ISO  8  14  14  15  14  16  14  17  13  18  13  19  13  20  13  21  13
M  ISO  2  22  13  23   3
M  END
>  <minimizedAffinity>  (1) 
-3.8765552

>  <minimizedRMSD>  (1) 
2.65558934

$$$$
