
     RDKit          3D

 27 28  0  0  0  0  0  0  0  0999 V2000
   33.8540   28.8150   49.0750 C   0  0  0  0  0  0  0  0  0  0  0  0
   32.9000   27.7380   48.6130 C   0  0  0  0  0  0  0  0  0  0  0  0
   33.3790   26.9760   47.4550 C   0  0  0  0  0  0  0  0  0  0  0  0
   33.4970   27.7410   46.3020 C   0  0  0  0  0  0  0  0  0  0  0  0
   33.9380   27.1970   45.0920 C   0  0  0  0  0  0  0  0  0  0  0  0
   34.2700   25.8500   45.0340 C   0  0  0  0  0  0  0  0  0  0  0  0
   34.1420   25.1190   46.1910 C   0  0  0  0  0  0  0  0  0  0  0  0
   33.7090   25.6390   47.3910 C   0  0  0  0  0  0  0  0  0  0  0  0
   35.0640   28.2460   49.5320 O   0  0  0  0  0  0  0  0  0  0  0  0
   37.4280   30.2930   51.3620 C   0  0  0  0  0  0  0  0  0  0  0  0
   38.1480   30.8580   50.3160 C   0  0  0  0  0  0  0  0  0  0  0  0
   37.7830   30.5040   49.0240 C   0  0  0  0  0  0  0  0  0  0  0  0
   36.7430   29.6280   48.8820 N   0  0  0  0  0  0  0  0  0  0  0  0
   36.0680   29.1010   49.9290 C   0  0  0  0  0  0  0  0  0  0  0  0
   36.4330   29.4530   51.1720 N   0  0  0  0  0  0  0  0  0  0  0  0
   33.3891   29.3822   49.8948 H   0  0  0  0  0  0  0  0  0  0  0  0
   34.0736   29.4811   48.2276 H   0  0  0  0  0  0  0  0  0  0  0  0
   32.7389   27.0376   49.4458 H   0  0  0  0  0  0  0  0  0  0  0  0
   31.9743   28.2440   48.3013 H   0  0  0  0  0  0  0  0  0  0  0  0
   33.2352   28.8086   46.3420 H   0  0  0  0  0  0  0  0  0  0  0  0
   34.0211   27.8292   44.1957 H   0  0  0  0  0  0  0  0  0  0  0  0
   34.6212   25.3867   44.1002 H   0  0  0  0  0  0  0  0  0  0  0  0
   34.4019   24.0507   46.1565 H   0  0  0  0  0  0  0  0  0  0  0  0
   33.6280   24.9990   48.2820 H   0  0  0  0  0  0  0  0  0  0  0  0
   37.7018   30.5596   52.3935 H   0  0  0  0  0  0  0  0  0  0  0  0
   38.9749   31.5585   50.5044 H   0  0  0  0  0  0  0  0  0  0  0  0
   38.3099   30.9123   48.1490 H   0  0  0  0  0  0  0  0  0  0  0  0
  1  9  1  0
  2  1  1  0
  3  2  1  0
  4  3  2  0
  5  4  1  0
  6  5  2  0
  6  7  1  0
  7  8  2  0
  8  3  1  0
  9 14  1  0
 11 10  2  0
 12 11  1  0
 13 12  2  0
 13 14  1  0
 14 15  2  0
 15 10  1  0
  1 16  1  0
  1 17  1  0
  2 18  1  0
  2 19  1  0
  4 20  1  0
  5 21  1  0
  6 22  1  0
  7 23  1  0
  8 24  1  0
 10 25  1  0
 11 26  1  0
 12 27  1  0
M  ISO  8  16   8  17   8  18   8  19   8  20  14  21  14  22  14  23  14
M  ISO  4  24  14  25  14  26  14  27  14
M  END
>  <minimizedAffinity>  (1) 
-4.24060535

>  <minimizedRMSD>  (1) 
1.36808074

$$$$
