
     RDKit          3D

 21 21  0  0  0  0  0  0  0  0999 V2000
   33.8630   28.6960   48.7580 C   0  0  0  0  0  0  0  0  0  0  0  0
   33.0630   27.5260   48.2820 C   0  0  0  0  0  0  0  0  0  0  0  0
   30.5910   27.8750   48.2430 C   0  0  0  0  0  0  0  0  0  0  0  0
   30.4520   27.5700   49.4570 O   0  0  0  0  0  0  0  0  0  0  0  0
   31.8530   27.8750   47.5930 N   0  0  0  0  0  0  0  0  0  0  0  0
   34.7310   28.2900   49.8080 O   0  0  0  0  0  0  0  0  0  0  0  0
   37.3320   30.2270   51.4070 C   0  0  0  0  0  0  0  0  0  0  0  0
   38.0160   30.6540   50.2580 C   0  0  0  0  0  0  0  0  0  0  0  0
   37.5700   30.2680   48.9990 C   0  0  0  0  0  0  0  0  0  0  0  0
   36.4610   29.4770   48.9630 N   0  0  0  0  0  0  0  0  0  0  0  0
   35.8140   29.0760   50.0840 C   0  0  0  0  0  0  0  0  0  0  0  0
   36.2600   29.4580   51.3020 N   0  0  0  0  0  0  0  0  0  0  0  0
   33.1828   29.4774   49.1279 H   0  0  0  0  0  0  0  0  0  0  0  0
   34.4616   29.0906   47.9237 H   0  0  0  0  0  0  0  0  0  0  0  0
   33.6904   26.9359   47.5978 H   0  0  0  0  0  0  0  0  0  0  0  0
   32.7623   26.9657   49.1796 H   0  0  0  0  0  0  0  0  0  0  0  0
   29.6985   28.1526   47.6630 H   0  0  0  0  0  0  0  0  0  0  0  0
   31.9019   28.1332   46.5971 H   0  0  0  0  0  0  0  0  0  0  0  0
   37.6893   30.5335   52.4012 H   0  0  0  0  0  0  0  0  0  0  0  0
   38.9053   31.2943   50.3537 H   0  0  0  0  0  0  0  0  0  0  0  0
   38.0853   30.5845   48.0802 H   0  0  0  0  0  0  0  0  0  0  0  0
  1  6  1  0
  2  1  1  0
  3  4  2  0
  5  3  1  0
  5  2  1  0
  6 11  1  0
  8  7  2  0
  9  8  1  0
 10  9  2  0
 10 11  1  0
 11 12  2  0
 12  7  1  0
  1 13  1  0
  1 14  1  0
  2 15  1  0
  2 16  1  0
  3 17  1  0
  5 18  1  0
  7 19  1  0
  8 20  1  0
  9 21  1  0
M  ISO  8  13   8  14   8  15   8  16   8  17   6  19  14  20  14  21  14
M  END
>  <minimizedAffinity>  (1) 
-3.60355592

>  <minimizedRMSD>  (1) 
1.80473185

$$$$
