
     RDKit          3D

 19 19  0  0  0  0  0  0  0  0999 V2000
   34.7390   28.2930   49.8380 O   0  0  0  0  0  0  0  0  0  0  0  0
   37.3470   30.2340   51.4180 C   0  0  0  0  0  0  0  0  0  0  0  0
   38.0480   30.6690   50.2730 C   0  0  0  0  0  0  0  0  0  0  0  0
   37.5880   30.2710   49.0100 C   0  0  0  0  0  0  0  0  0  0  0  0
   36.4690   29.4750   48.9860 N   0  0  0  0  0  0  0  0  0  0  0  0
   35.8330   29.0840   50.1000 C   0  0  0  0  0  0  0  0  0  0  0  0
   36.2820   29.4710   51.3130 N   0  0  0  0  0  0  0  0  0  0  0  0
   34.0220   28.4890   48.6490 C   0  0  0  0  0  0  0  0  0  0  0  0
   33.7800   27.1820   47.9240 C   0  0  0  0  0  0  0  0  0  0  0  0
   33.7790   27.5110   46.4980 N   0  0  0  0  0  0  0  0  0  0  0  0
   37.6978   30.5386   52.4151 H   0  0  0  0  0  0  0  0  0  0  0  0
   38.9381   31.3080   50.3697 H   0  0  0  0  0  0  0  0  0  0  0  0
   38.0973   30.5804   48.0854 H   0  0  0  0  0  0  0  0  0  0  0  0
   33.0522   28.9496   48.8884 H   0  0  0  0  0  0  0  0  0  0  0  0
   34.6151   29.1427   47.9925 H   0  0  0  0  0  0  0  0  0  0  0  0
   34.5819   26.4640   48.1508 H   0  0  0  0  0  0  0  0  0  0  0  0
   32.8320   26.7173   48.2328 H   0  0  0  0  0  0  0  0  0  0  0  0
   33.7759   28.5344   46.3818 H   0  0  0  0  0  0  0  0  0  0  0  0
   34.6212   27.1176   46.0543 H   0  0  0  0  0  0  0  0  0  0  0  0
  1  6  1  0
  3  2  2  0
  4  3  1  0
  5  4  2  0
  5  6  1  0
  6  7  2  0
  7  2  1  0
  8  1  1  0
  9  8  1  0
 10  9  1  0
  2 11  1  0
  3 12  1  0
  4 13  1  0
  8 14  1  0
  8 15  1  0
  9 16  1  0
  9 17  1  0
 10 18  1  0
 10 19  1  0
M  ISO  8  11  14  12  14  13  14  14   8  15   8  16   8  17   8  18   5
M  ISO  1  19   5
M  END
>  <minimizedAffinity>  (1) 
-3.3105998

>  <minimizedRMSD>  (1) 
0.212200448

$$$$
