
     RDKit          3D

 26 27  0  0  0  0  0  0  0  0999 V2000
   33.7310   28.5950   48.6920 C   0  0  0  0  0  0  0  0  0  0  0  0
   32.8130   27.4750   48.3320 C   0  0  0  0  0  0  0  0  0  0  0  0
   31.3800   27.8920   48.3280 C   0  0  0  0  0  0  0  0  0  0  0  0
   30.6790   27.7650   49.5210 C   0  0  0  0  0  0  0  0  0  0  0  0
   29.3610   28.1150   49.6410 C   0  0  0  0  0  0  0  0  0  0  0  0
   28.7160   28.5950   48.5840 N   0  0  0  0  0  0  0  0  0  0  0  0
   29.3970   28.7210   47.4120 C   0  0  0  0  0  0  0  0  0  0  0  0
   30.6960   28.3830   47.2690 N   0  0  0  0  0  0  0  0  0  0  0  0
   34.6050   28.2140   49.7400 O   0  0  0  0  0  0  0  0  0  0  0  0
   37.2450   30.1460   51.2830 C   0  0  0  0  0  0  0  0  0  0  0  0
   37.9610   30.5540   50.1290 C   0  0  0  0  0  0  0  0  0  0  0  0
   37.4670   30.1230   48.8940 C   0  0  0  0  0  0  0  0  0  0  0  0
   36.3430   29.3480   48.8930 N   0  0  0  0  0  0  0  0  0  0  0  0
   35.7010   28.9880   50.0090 C   0  0  0  0  0  0  0  0  0  0  0  0
   36.1600   29.3930   51.2140 N   0  0  0  0  0  0  0  0  0  0  0  0
   38.1470   30.5070   47.7610 O   0  0  0  0  0  0  0  0  0  0  0  0
   33.1341   29.4599   49.0171 H   0  0  0  0  0  0  0  0  0  0  0  0
   34.3329   28.8545   47.8086 H   0  0  0  0  0  0  0  0  0  0  0  0
   33.0775   27.1103   47.3285 H   0  0  0  0  0  0  0  0  0  0  0  0
   32.9308   26.6879   49.0913 H   0  0  0  0  0  0  0  0  0  0  0  0
   31.2032   27.3680   50.4028 H   0  0  0  0  0  0  0  0  0  0  0  0
   28.8412   27.9998   50.6036 H   0  0  0  0  0  0  0  0  0  0  0  0
   28.8616   29.1184   46.5371 H   0  0  0  0  0  0  0  0  0  0  0  0
   37.6051   30.4675   52.2714 H   0  0  0  0  0  0  0  0  0  0  0  0
   38.8625   31.1800   50.2020 H   0  0  0  0  0  0  0  0  0  0  0  0
   37.8256   30.2201   46.8697 H   0  0  0  0  0  0  0  0  0  0  0  0
  1  9  1  0
  2  1  1  0
  3  2  1  0
  3  4  2  0
  4  5  1  0
  6  5  2  0
  7  6  1  0
  8  7  2  0
  8  3  1  0
  9 14  1  0
 11 10  2  0
 12 11  1  0
 13 12  2  0
 13 14  1  0
 14 15  2  0
 15 10  1  0
 16 12  1  0
  1 17  1  0
  1 18  1  0
  2 19  1  0
  2 20  1  0
  4 21  1  0
  5 22  1  0
  7 23  1  0
 10 24  1  0
 11 25  1  0
 16 26  1  0
M  ISO  8  17   8  18   8  19   8  20   8  21  14  22  14  23  14  24  14
M  ISO  2  25  14  26   3
M  END
>  <minimizedAffinity>  (1) 
-4.69509792

>  <minimizedRMSD>  (1) 
0.0565284528

$$$$
