
     RDKit          3D

 42 45  0  0  0  0  0  0  0  0999 V2000
   35.0490   28.3830   49.0740 O   0  0  0  0  0  0  0  0  0  0  0  0
   37.2740   30.1460   51.2970 C   0  0  0  0  0  0  0  0  0  0  0  0
   38.0530   30.8630   50.3560 C   0  0  0  0  0  0  0  0  0  0  0  0
   37.7570   30.6880   49.0150 C   0  0  0  0  0  0  0  0  0  0  0  0
   36.7290   29.8310   48.7190 N   0  0  0  0  0  0  0  0  0  0  0  0
   36.0050   29.1650   49.6260 C   0  0  0  0  0  0  0  0  0  0  0  0
   36.2940   29.3340   50.9300 N   0  0  0  0  0  0  0  0  0  0  0  0
   38.9260   33.3300   48.9320 F   0  0  0  0  0  0  0  0  0  0  0  0
   38.9840   32.5600   47.8620 C   0  0  0  0  0  0  0  0  0  0  0  0
   38.4320   31.3250   47.9130 C   0  0  0  0  0  0  0  0  0  0  0  0
   38.5500   30.6060   46.7340 C   0  0  0  0  0  0  0  0  0  0  0  0
   39.1730   31.0990   45.6080 C   0  0  0  0  0  0  0  0  0  0  0  0
   39.7200   32.3610   45.5980 C   0  0  0  0  0  0  0  0  0  0  0  0
   39.6190   33.0990   46.7530 C   0  0  0  0  0  0  0  0  0  0  0  0
   34.0770   28.9720   48.2240 C   0  0  0  0  0  0  0  0  0  0  0  0
   33.2800   27.9180   47.5280 C   0  0  0  0  0  0  0  0  0  0  0  0
   31.8400   27.9620   47.8800 C   0  0  0  0  0  0  0  0  0  0  0  0
   31.4650   27.7600   49.2090 C   0  0  0  0  0  0  0  0  0  0  0  0
   30.1720   27.7800   49.6300 C   0  0  0  0  0  0  0  0  0  0  0  0
   29.2240   28.0070   48.7200 N   0  0  0  0  0  0  0  0  0  0  0  0
   29.5750   28.2050   47.4220 C   0  0  0  0  0  0  0  0  0  0  0  0
   30.8430   28.1900   46.9770 N   0  0  0  0  0  0  0  0  0  0  0  0
   28.4850   28.4400   46.5160 C   0  0  0  0  0  0  0  0  0  0  0  0
   27.2830   27.7490   46.3250 C   0  0  0  0  0  0  0  0  0  0  0  0
   26.3870   28.1730   45.3830 C   0  0  0  0  0  0  0  0  0  0  0  0
   26.7210   29.3170   44.6240 C   0  0  0  0  0  0  0  0  0  0  0  0
   28.3550   29.8410   45.2370 S   0  0  0  0  0  0  0  0  0  0  0  0
   37.4902   30.2676   52.3687 H   0  0  0  0  0  0  0  0  0  0  0  0
   38.8629   31.5338   50.6787 H   0  0  0  0  0  0  0  0  0  0  0  0
   38.1255   29.5920   46.6952 H   0  0  0  0  0  0  0  0  0  0  0  0
   39.2337   30.4745   44.7045 H   0  0  0  0  0  0  0  0  0  0  0  0
   40.2175   32.7628   44.7030 H   0  0  0  0  0  0  0  0  0  0  0  0
   40.0405   34.1141   46.7977 H   0  0  0  0  0  0  0  0  0  0  0  0
   33.4016   29.5975   48.8261 H   0  0  0  0  0  0  0  0  0  0  0  0
   34.5908   29.5849   47.4688 H   0  0  0  0  0  0  0  0  0  0  0  0
   33.6804   26.9323   47.8074 H   0  0  0  0  0  0  0  0  0  0  0  0
   33.3628   28.0996   46.4463 H   0  0  0  0  0  0  0  0  0  0  0  0
   32.2542   27.5755   49.9527 H   0  0  0  0  0  0  0  0  0  0  0  0
   29.9164   27.6143   50.6870 H   0  0  0  0  0  0  0  0  0  0  0  0
   27.0582   26.8616   46.9349 H   0  0  0  0  0  0  0  0  0  0  0  0
   25.4378   27.6411   45.2215 H   0  0  0  0  0  0  0  0  0  0  0  0
   26.1223   29.7904   43.8319 H   0  0  0  0  0  0  0  0  0  0  0  0
  1  6  1  0
  3  2  2  0
  4  3  1  0
  5  4  2  0
  5  6  1  0
  6  7  2  0
  7  2  1  0
  9 10  2  0
  9  8  1  0
 10  4  1  0
 11 10  1  0
 12 11  2  0
 13 12  1  0
 13 14  2  0
 14  9  1  0
 15  1  1  0
 16 17  1  0
 16 15  1  0
 17 18  2  0
 18 19  1  0
 20 19  2  0
 21 20  1  0
 22 21  2  0
 22 17  1  0
 23 21  1  0
 24 23  2  0
 25 24  1  0
 26 27  1  0
 26 25  2  0
 27 23  1  0
  2 28  1  0
  3 29  1  0
 11 30  1  0
 12 31  1  0
 13 32  1  0
 14 33  1  0
 15 34  1  0
 15 35  1  0
 16 36  1  0
 16 37  1  0
 18 38  1  0
 19 39  1  0
 24 40  1  0
 25 41  1  0
 26 42  1  0
M  ISO  8  28  14  29  14  30  14  31  14  32  14  33  14  34   8  35   8
M  ISO  7  36   8  37   8  38  14  39  14  40  14  41  14  42  14
M  END
>  <minimizedAffinity>  (1) 
-6.7125411

>  <minimizedRMSD>  (1) 
1.11725283

$$$$
