
     RDKit          3D

 34 36  0  0  0  0  0  0  0  0999 V2000
   38.8590   31.9500   46.2620 C   0  0  0  0  0  0  0  0  0  0  0  0
   40.1350   31.4150   46.0820 C   0  0  0  0  0  0  0  0  0  0  0  0
   40.6700   31.3390   44.7850 C   0  0  0  0  0  0  0  0  0  0  0  0
   39.8720   31.8110   43.7560 N   0  0  0  0  0  0  0  0  0  0  0  0
   38.6410   32.3190   43.9880 C   0  0  0  0  0  0  0  0  0  0  0  0
   38.1580   32.3830   45.2070 N   0  0  0  0  0  0  0  0  0  0  0  0
   36.4780   32.8010   42.9140 C   0  0  0  0  0  0  0  0  0  0  0  0
   37.8570   32.7980   42.8540 C   0  0  0  0  0  0  0  0  0  0  0  0
   38.4640   33.2600   41.6900 C   0  0  0  0  0  0  0  0  0  0  0  0
   37.6760   33.7030   40.6430 C   0  0  0  0  0  0  0  0  0  0  0  0
   38.0360   34.1840   39.4440 N   0  0  0  0  0  0  0  0  0  0  0  0
   36.9000   34.4730   38.7920 C   0  0  0  0  0  0  0  0  0  0  0  0
   35.8660   34.1640   39.6030 N   0  0  0  0  0  0  0  0  0  0  0  0
   36.3190   33.6780   40.7720 C   0  0  0  0  0  0  0  0  0  0  0  0
   35.6460   33.2340   41.8920 C   0  0  0  0  0  0  0  0  0  0  0  0
   38.4960   31.9480   47.5910 O   0  0  0  0  0  0  0  0  0  0  0  0
   37.3140   31.2920   47.9070 C   0  0  0  0  0  0  0  0  0  0  0  0
   37.7950   30.4250   48.8130 C   0  0  0  0  0  0  0  0  0  0  0  0
   38.1050   30.9280   50.1850 C   0  0  0  0  0  0  0  0  0  0  0  0
   37.2590   29.9860   51.4680 S   0  0  0  0  0  0  0  0  0  0  0  0
   40.7152   31.0570   46.9452 H   0  0  0  0  0  0  0  0  0  0  0  0
   41.6718   30.9256   44.5964 H   0  0  0  0  0  0  0  0  0  0  0  0
   36.0056   32.4342   43.8372 H   0  0  0  0  0  0  0  0  0  0  0  0
   39.5605   33.2728   41.6033 H   0  0  0  0  0  0  0  0  0  0  0  0
   38.9964   34.3073   39.0927 H   0  0  0  0  0  0  0  0  0  0  0  0
   36.8243   34.8883   37.7762 H   0  0  0  0  0  0  0  0  0  0  0  0
   34.5486   33.2243   41.9675 H   0  0  0  0  0  0  0  0  0  0  0  0
   36.5674   31.9726   48.3422 H   0  0  0  0  0  0  0  0  0  0  0  0
   36.7788   30.8426   47.0575 H   0  0  0  0  0  0  0  0  0  0  0  0
   37.0508   29.6223   48.9217 H   0  0  0  0  0  0  0  0  0  0  0  0
   38.7731   30.1264   48.4078 H   0  0  0  0  0  0  0  0  0  0  0  0
   39.1900   30.8562   50.3511 H   0  0  0  0  0  0  0  0  0  0  0  0
   37.7564   31.9694   50.2478 H   0  0  0  0  0  0  0  0  0  0  0  0
   37.6590   30.4314   52.7003 H   0  0  0  0  0  0  0  0  0  0  0  0
  1 16  1  0
  2  1  2  0
  3  2  1  0
  4  5  1  0
  4  3  2  0
  5  6  2  0
  6  1  1  0
  8  7  2  0
  8  5  1  0
  9  8  1  0
 10 14  1  0
 10  9  2  0
 11 10  1  0
 12 11  1  0
 12 13  2  0
 13 14  1  0
 14 15  2  0
 15  7  1  0
 16 17  1  0
 17 18  1  0
 18 19  1  0
 19 20  1  0
  2 21  1  0
  3 22  1  0
  7 23  1  0
  9 24  1  0
 11 25  1  0
 12 26  1  0
 15 27  1  0
 17 28  1  0
 17 29  1  0
 18 30  1  0
 18 31  1  0
 19 32  1  0
 19 33  1  0
 20 34  1  0
M  ISO  8  21  14  22  14  23  14  24  14  25   9  26  14  27  14  28   8
M  ISO  6  29   8  30   8  31   8  32   8  33   8  34  11
M  END
>  <minimizedAffinity>  (1) 
-4.5740366

>  <minimizedRMSD>  (1) 
1.21830893

$$$$
