
     RDKit          3D

 36 37  0  0  0  0  0  0  0  0999 V2000
   38.5200   32.3340   46.3470 C   0  0  0  0  0  0  0  0  0  0  0  0
   39.8480   32.6850   46.2160 C   0  0  0  0  0  0  0  0  0  0  0  0
   40.3870   32.9960   44.9540 C   0  0  0  0  0  0  0  0  0  0  0  0
   39.5130   32.9240   43.8950 N   0  0  0  0  0  0  0  0  0  0  0  0
   38.2080   32.5740   44.0660 C   0  0  0  0  0  0  0  0  0  0  0  0
   37.7250   32.2850   45.2710 N   0  0  0  0  0  0  0  0  0  0  0  0
   37.4310   32.5420   42.8990 N   0  0  0  0  0  0  0  0  0  0  0  0
   36.0300   32.1840   42.9480 C   0  0  0  0  0  0  0  0  0  0  0  0
   35.2200   33.3330   42.3900 C   0  0  0  0  0  0  0  0  0  0  0  0
   35.6950   33.6270   40.9970 C   0  0  0  0  0  0  0  0  0  0  0  0
   37.1610   33.9890   40.9860 C   0  0  0  0  0  0  0  0  0  0  0  0
   38.0000   32.8660   41.5880 C   0  0  0  0  0  0  0  0  0  0  0  0
   38.1920   32.0700   47.6530 O   0  0  0  0  0  0  0  0  0  0  0  0
   37.1660   31.1480   47.8590 C   0  0  0  0  0  0  0  0  0  0  0  0
   37.7900   30.3590   48.7550 C   0  0  0  0  0  0  0  0  0  0  0  0
   38.0890   30.9250   50.1050 C   0  0  0  0  0  0  0  0  0  0  0  0
   37.2810   30.0140   51.4280 S   0  0  0  0  0  0  0  0  0  0  0  0
   40.4918   32.7221   47.1071 H   0  0  0  0  0  0  0  0  0  0  0  0
   41.4418   33.2791   44.8228 H   0  0  0  0  0  0  0  0  0  0  0  0
   35.8568   31.2807   42.3446 H   0  0  0  0  0  0  0  0  0  0  0  0
   35.7295   31.9810   43.9865 H   0  0  0  0  0  0  0  0  0  0  0  0
   34.1551   33.0582   42.3674 H   0  0  0  0  0  0  0  0  0  0  0  0
   35.3469   34.2228   43.0241 H   0  0  0  0  0  0  0  0  0  0  0  0
   35.5403   32.7368   40.3696 H   0  0  0  0  0  0  0  0  0  0  0  0
   35.1220   34.4807   40.6061 H   0  0  0  0  0  0  0  0  0  0  0  0
   37.4820   34.1626   39.9483 H   0  0  0  0  0  0  0  0  0  0  0  0
   37.3045   34.8984   41.5880 H   0  0  0  0  0  0  0  0  0  0  0  0
   37.9661   31.9812   40.9353 H   0  0  0  0  0  0  0  0  0  0  0  0
   39.0496   33.1794   41.6891 H   0  0  0  0  0  0  0  0  0  0  0  0
   36.2633   31.6176   48.2768 H   0  0  0  0  0  0  0  0  0  0  0  0
   36.7863   30.6437   46.9582 H   0  0  0  0  0  0  0  0  0  0  0  0
   37.1568   29.4723   48.9058 H   0  0  0  0  0  0  0  0  0  0  0  0
   38.7794   30.1722   48.3120 H   0  0  0  0  0  0  0  0  0  0  0  0
   39.1764   30.8933   50.2679 H   0  0  0  0  0  0  0  0  0  0  0  0
   37.7066   31.9562   50.1273 H   0  0  0  0  0  0  0  0  0  0  0  0
   37.7064   30.4936   52.6387 H   0  0  0  0  0  0  0  0  0  0  0  0
  1 13  1  0
  2  1  2  0
  3  2  1  0
  4  5  1  0
  4  3  2  0
  5  6  2  0
  6  1  1  0
  7  8  1  0
  7  5  1  0
  9  8  1  0
 10  9  1  0
 11 10  1  0
 11 12  1  0
 12  7  1  0
 13 14  1  0
 14 15  1  0
 15 16  1  0
 16 17  1  0
  2 18  1  0
  3 19  1  0
  8 20  1  0
  8 21  1  0
  9 22  1  0
  9 23  1  0
 10 24  1  0
 10 25  1  0
 11 26  1  0
 11 27  1  0
 12 28  1  0
 12 29  1  0
 14 30  1  0
 14 31  1  0
 15 32  1  0
 15 33  1  0
 16 34  1  0
 16 35  1  0
 17 36  1  0
M  ISO  8  18  14  19  14  20  13  21  13  22  13  23  13  24  13  25  13
M  ISO  8  26  13  27  13  28  13  29  13  30   8  31   8  32   8  33   8
M  ISO  3  34   8  35   8  36  11
M  END
>  <minimizedAffinity>  (1) 
-4.54421091

>  <minimizedRMSD>  (1) 
0.141547725

$$$$
