
     RDKit          3D

 20 21  0  0  0  0  0  0  0  0999 V2000
   38.3220   31.2830   50.2090 C   0  0  0  0  0  0  0  0  0  0  0  0
   38.4150   31.5660   48.8250 C   0  0  0  0  0  0  0  0  0  0  0  0
   37.4050   31.0970   47.9970 C   0  0  0  0  0  0  0  0  0  0  0  0
   36.3780   30.3930   48.5470 N   0  0  0  0  0  0  0  0  0  0  0  0
   36.3280   30.1450   49.8730 C   0  0  0  0  0  0  0  0  0  0  0  0
   37.2890   30.5840   50.6980 N   0  0  0  0  0  0  0  0  0  0  0  0
   37.4470   31.3580   46.5630 C   0  0  0  0  0  0  0  0  0  0  0  0
   36.8230   30.5890   45.6040 C   0  0  0  0  0  0  0  0  0  0  0  0
   37.1690   31.2540   44.4230 C   0  0  0  0  0  0  0  0  0  0  0  0
   37.9550   32.3470   44.7190 C   0  0  0  0  0  0  0  0  0  0  0  0
   38.0960   32.3690   46.0360 O   0  0  0  0  0  0  0  0  0  0  0  0
   35.1690   29.3730   50.3790 C   0  0  0  0  0  0  0  0  0  0  0  0
   35.2420   29.1120   51.7380 F   0  0  0  0  0  0  0  0  0  0  0  0
   33.9730   30.0860   50.1950 F   0  0  0  0  0  0  0  0  0  0  0  0
   34.9830   28.1820   49.7460 F   0  0  0  0  0  0  0  0  0  0  0  0
   39.1072   31.6413   50.8910 H   0  0  0  0  0  0  0  0  0  0  0  0
   39.2612   32.1396   48.4188 H   0  0  0  0  0  0  0  0  0  0  0  0
   36.2104   29.6847   45.7341 H   0  0  0  0  0  0  0  0  0  0  0  0
   36.8606   30.9507   43.4116 H   0  0  0  0  0  0  0  0  0  0  0  0
   38.3823   33.0623   44.0008 H   0  0  0  0  0  0  0  0  0  0  0  0
  1  6  2  0
  2  1  1  0
  3  4  1  0
  3  2  2  0
  4  5  2  0
  5 12  1  0
  5  6  1  0
  7  3  1  0
  8  7  2  0
  9 10  2  0
  9  8  1  0
 10 11  1  0
 11  7  1  0
 12 13  1  0
 14 12  1  0
 15 12  1  0
  1 16  1  0
  2 17  1  0
  8 18  1  0
  9 19  1  0
 10 20  1  0
M  ISO  5  16  14  17  14  18  14  19  14  20  14
M  END
>  <minimizedAffinity>  (1) 
-5.25575304

>  <minimizedRMSD>  (1) 
0.381635725

$$$$
