
     RDKit          3D

 32 34  0  0  0  0  0  0  0  0999 V2000
   36.4510   31.0690   49.1770 C   0  0  0  0  0  0  0  0  0  0  0  0
   37.1310   31.4600   47.9940 C   0  0  0  0  0  0  0  0  0  0  0  0
   36.7500   30.8780   46.7840 C   0  0  0  0  0  0  0  0  0  0  0  0
   35.7410   29.9610   46.7990 N   0  0  0  0  0  0  0  0  0  0  0  0
   35.1160   29.6100   47.9330 C   0  0  0  0  0  0  0  0  0  0  0  0
   35.4480   30.1460   49.1310 N   0  0  0  0  0  0  0  0  0  0  0  0
   34.0560   28.6330   47.8680 N   0  0  0  0  0  0  0  0  0  0  0  0
   32.8490   28.8560   47.0670 C   0  0  0  0  0  0  0  0  0  0  0  0
   32.1330   27.5520   47.0940 C   0  0  0  0  0  0  0  0  0  0  0  0
   33.1090   26.5560   47.6760 C   0  0  0  0  0  0  0  0  0  0  0  0
   34.0240   27.3600   48.5430 C   0  0  0  0  0  0  0  0  0  0  0  0
   37.4880   33.2920   50.1150 F   0  0  0  0  0  0  0  0  0  0  0  0
   38.3630   33.3310   49.0810 C   0  0  0  0  0  0  0  0  0  0  0  0
   38.2040   32.4480   48.0430 C   0  0  0  0  0  0  0  0  0  0  0  0
   39.0730   32.4470   46.9580 C   0  0  0  0  0  0  0  0  0  0  0  0
   40.1370   33.3430   46.8880 C   0  0  0  0  0  0  0  0  0  0  0  0
   40.2910   34.2300   47.9400 C   0  0  0  0  0  0  0  0  0  0  0  0
   39.4290   34.2340   49.0180 C   0  0  0  0  0  0  0  0  0  0  0  0
   36.7360   31.5152   50.1412 H   0  0  0  0  0  0  0  0  0  0  0  0
   37.2503   31.1518   45.8434 H   0  0  0  0  0  0  0  0  0  0  0  0
   33.1132   29.1324   46.0356 H   0  0  0  0  0  0  0  0  0  0  0  0
   32.2332   29.6777   47.4613 H   0  0  0  0  0  0  0  0  0  0  0  0
   31.2350   27.6215   47.7254 H   0  0  0  0  0  0  0  0  0  0  0  0
   31.8011   27.2524   46.0889 H   0  0  0  0  0  0  0  0  0  0  0  0
   32.5779   25.8001   48.2732 H   0  0  0  0  0  0  0  0  0  0  0  0
   33.6582   26.0142   46.8919 H   0  0  0  0  0  0  0  0  0  0  0  0
   35.0263   26.9091   48.5886 H   0  0  0  0  0  0  0  0  0  0  0  0
   33.6901   27.4269   49.5890 H   0  0  0  0  0  0  0  0  0  0  0  0
   38.9178   31.7267   46.1413 H   0  0  0  0  0  0  0  0  0  0  0  0
   40.8272   33.3459   46.0315 H   0  0  0  0  0  0  0  0  0  0  0  0
   41.1220   34.9503   47.9160 H   0  0  0  0  0  0  0  0  0  0  0  0
   39.5820   34.9542   49.8352 H   0  0  0  0  0  0  0  0  0  0  0  0
  2 14  1  0
  2  1  2  0
  3  4  2  0
  3  2  1  0
  4  5  1  0
  5  6  2  0
  6  1  1  0
  7  5  1  0
  7 11  1  0
  8  9  1  0
  8  7  1  0
  9 10  1  0
 10 11  1  0
 13 12  1  0
 14 13  2  0
 15 14  1  0
 16 15  2  0
 16 17  1  0
 17 18  2  0
 18 13  1  0
  1 19  1  0
  3 20  1  0
  8 21  1  0
  8 22  1  0
  9 23  1  0
  9 24  1  0
 10 25  1  0
 10 26  1  0
 11 27  1  0
 11 28  1  0
 15 29  1  0
 16 30  1  0
 17 31  1  0
 18 32  1  0
M  ISO  8  19  14  20  14  21  13  22  13  23  13  24  13  25  13  26  13
M  ISO  6  27  13  28  13  29  14  30  14  31  14  32  14
M  END
>  <minimizedAffinity>  (1) 
-5.35700703

>  <minimizedRMSD>  (1) 
2.64371037

$$$$
