
     RDKit          3D

 31 32  0  0  0  0  0  0  0  0999 V2000
   38.4760   32.3620   46.3340 C   0  0  0  0  0  0  0  0  0  0  0  0
   39.8320   32.6450   46.3080 C   0  0  0  0  0  0  0  0  0  0  0  0
   40.4780   32.9020   45.0850 C   0  0  0  0  0  0  0  0  0  0  0  0
   39.6940   32.8550   43.9650 N   0  0  0  0  0  0  0  0  0  0  0  0
   38.3590   32.5720   44.0320 C   0  0  0  0  0  0  0  0  0  0  0  0
   37.7660   32.3330   45.1770 N   0  0  0  0  0  0  0  0  0  0  0  0
   39.0340   34.0750   41.7110 F   0  0  0  0  0  0  0  0  0  0  0  0
   37.9330   33.2750   41.6700 C   0  0  0  0  0  0  0  0  0  0  0  0
   37.5870   32.5400   42.7800 C   0  0  0  0  0  0  0  0  0  0  0  0
   36.4540   31.7370   42.6880 C   0  0  0  0  0  0  0  0  0  0  0  0
   35.7280   31.7030   41.5170 C   0  0  0  0  0  0  0  0  0  0  0  0
   36.1030   32.4550   40.4200 C   0  0  0  0  0  0  0  0  0  0  0  0
   37.2270   33.2540   40.5010 C   0  0  0  0  0  0  0  0  0  0  0  0
   38.0090   32.1360   47.6120 O   0  0  0  0  0  0  0  0  0  0  0  0
   37.1030   31.1030   47.7720 C   0  0  0  0  0  0  0  0  0  0  0  0
   37.7820   30.3440   48.6340 C   0  0  0  0  0  0  0  0  0  0  0  0
   38.1120   30.9340   49.9670 C   0  0  0  0  0  0  0  0  0  0  0  0
   37.3040   30.0810   51.3200 S   0  0  0  0  0  0  0  0  0  0  0  0
   40.4053   32.6688   47.2465 H   0  0  0  0  0  0  0  0  0  0  0  0
   41.5532   33.1281   45.0323 H   0  0  0  0  0  0  0  0  0  0  0  0
   36.1382   31.1299   43.5492 H   0  0  0  0  0  0  0  0  0  0  0  0
   34.8337   31.0656   41.4545 H   0  0  0  0  0  0  0  0  0  0  0  0
   35.5129   32.4178   39.4924 H   0  0  0  0  0  0  0  0  0  0  0  0
   37.5470   33.8611   39.6413 H   0  0  0  0  0  0  0  0  0  0  0  0
   36.1511   31.4545   48.1966 H   0  0  0  0  0  0  0  0  0  0  0  0
   36.8003   30.5985   46.8426 H   0  0  0  0  0  0  0  0  0  0  0  0
   37.1857   29.4374   48.8143 H   0  0  0  0  0  0  0  0  0  0  0  0
   38.7574   30.1802   48.1526 H   0  0  0  0  0  0  0  0  0  0  0  0
   39.2004   30.8792   50.1164 H   0  0  0  0  0  0  0  0  0  0  0  0
   37.7531   31.9738   49.9682 H   0  0  0  0  0  0  0  0  0  0  0  0
   37.7688   30.5717   52.5117 H   0  0  0  0  0  0  0  0  0  0  0  0
  1 14  1  0
  2  1  2  0
  3  2  1  0
  4  5  1  0
  4  3  2  0
  5  6  2  0
  6  1  1  0
  8  7  1  0
  8  9  2  0
  9  5  1  0
 10  9  1  0
 11 10  2  0
 12 13  2  0
 12 11  1  0
 13  8  1  0
 14 15  1  0
 15 16  1  0
 16 17  1  0
 17 18  1  0
  2 19  1  0
  3 20  1  0
 10 21  1  0
 11 22  1  0
 12 23  1  0
 13 24  1  0
 15 25  1  0
 15 26  1  0
 16 27  1  0
 16 28  1  0
 17 29  1  0
 17 30  1  0
 18 31  1  0
M  ISO  8  19  14  20  14  21  14  22  14  23  14  24  14  25   8  26   8
M  ISO  5  27   8  28   8  29   8  30   8  31  11
M  END
>  <minimizedAffinity>  (1) 
-4.26395464

>  <minimizedRMSD>  (1) 
0.308234334

$$$$
