
     RDKit          3D

 36 39  0  0  0  0  0  0  0  0999 V2000
   35.8370   28.9260   49.3700 C   0  0  0  0  0  0  0  0  0  0  0  0
   35.8450   30.0920   48.6000 C   0  0  0  0  0  0  0  0  0  0  0  0
   34.7720   30.3190   47.7010 C   0  0  0  0  0  0  0  0  0  0  0  0
   33.7760   29.3850   47.6270 N   0  0  0  0  0  0  0  0  0  0  0  0
   33.8260   28.2720   48.4010 C   0  0  0  0  0  0  0  0  0  0  0  0
   34.8330   28.0360   49.2630 N   0  0  0  0  0  0  0  0  0  0  0  0
   32.7420   27.3240   48.2690 N   0  0  0  0  0  0  0  0  0  0  0  0
   31.3580   27.6330   48.5450 C   0  0  0  0  0  0  0  0  0  0  0  0
   30.5980   26.4600   48.0270 C   0  0  0  0  0  0  0  0  0  0  0  0
   31.5870   25.6150   47.2390 C   0  0  0  0  0  0  0  0  0  0  0  0
   32.9010   25.9340   47.8430 C   0  0  0  0  0  0  0  0  0  0  0  0
   36.8340   31.1320   48.5610 C   0  0  0  0  0  0  0  0  0  0  0  0
   36.7880   32.0300   49.5720 N   0  0  0  0  0  0  0  0  0  0  0  0
   37.6780   33.0320   49.6010 C   0  0  0  0  0  0  0  0  0  0  0  0
   38.6580   33.2380   48.6740 N   0  0  0  0  0  0  0  0  0  0  0  0
   38.7310   32.3630   47.6530 C   0  0  0  0  0  0  0  0  0  0  0  0
   39.6800   32.4690   46.6350 C   0  0  0  0  0  0  0  0  0  0  0  0
   39.7200   31.5500   45.5840 C   0  0  0  0  0  0  0  0  0  0  0  0
   38.7890   30.5060   45.5550 C   0  0  0  0  0  0  0  0  0  0  0  0
   37.8680   30.4350   46.5790 C   0  0  0  0  0  0  0  0  0  0  0  0
   37.8200   31.3350   47.6210 C   0  0  0  0  0  0  0  0  0  0  0  0
   36.6614   28.7331   50.0723 H   0  0  0  0  0  0  0  0  0  0  0  0
   34.7416   31.2250   47.0779 H   0  0  0  0  0  0  0  0  0  0  0  0
   31.1956   27.7537   49.6262 H   0  0  0  0  0  0  0  0  0  0  0  0
   31.0402   28.5754   48.0750 H   0  0  0  0  0  0  0  0  0  0  0  0
   30.1827   25.8777   48.8627 H   0  0  0  0  0  0  0  0  0  0  0  0
   29.7572   26.7802   47.3941 H   0  0  0  0  0  0  0  0  0  0  0  0
   31.5710   25.8880   46.1735 H   0  0  0  0  0  0  0  0  0  0  0  0
   31.3526   24.5412   47.2839 H   0  0  0  0  0  0  0  0  0  0  0  0
   33.1101   25.2793   48.7019 H   0  0  0  0  0  0  0  0  0  0  0  0
   33.7423   25.7880   47.1496 H   0  0  0  0  0  0  0  0  0  0  0  0
   37.6133   33.7437   50.4373 H   0  0  0  0  0  0  0  0  0  0  0  0
   40.4099   33.2915   46.6609 H   0  0  0  0  0  0  0  0  0  0  0  0
   40.4741   31.6458   44.7889 H   0  0  0  0  0  0  0  0  0  0  0  0
   38.7916   29.7656   44.7415 H   0  0  0  0  0  0  0  0  0  0  0  0
   37.1330   29.6167   46.5630 H   0  0  0  0  0  0  0  0  0  0  0  0
  2  1  2  0
  3  2  1  0
  4  3  2  0
  4  5  1  0
  5  6  2  0
  6  1  1  0
  7  5  1  0
  7  8  1  0
  9  8  1  0
 10 11  1  0
 10  9  1  0
 11  7  1  0
 12  2  1  0
 12 13  2  0
 13 14  1  0
 15 14  2  0
 16 15  1  0
 17 16  2  0
 18 17  1  0
 19 18  2  0
 19 20  1  0
 20 21  2  0
 21 16  1  0
 21 12  1  0
  1 22  1  0
  3 23  1  0
  8 24  1  0
  8 25  1  0
  9 26  1  0
  9 27  1  0
 10 28  1  0
 10 29  1  0
 11 30  1  0
 11 31  1  0
 14 32  1  0
 17 33  1  0
 18 34  1  0
 19 35  1  0
 20 36  1  0
M  ISO  8  22  14  23  14  24  13  25  13  26  13  27  13  28  13  29  13
M  ISO  7  30  13  31  13  32  14  33  14  34  14  35  14  36  14
M  END
>  <minimizedAffinity>  (1) 
-6.49392223

>  <minimizedRMSD>  (1) 
4.3849659

$$$$
