
     RDKit          3D

 27 27  0  0  0  0  0  0  0  0999 V2000
   38.4390   32.3270   46.2290 C   0  0  0  0  0  0  0  0  0  0  0  0
   39.7500   32.8010   46.1600 C   0  0  0  0  0  0  0  0  0  0  0  0
   40.3520   33.0300   44.9280 C   0  0  0  0  0  0  0  0  0  0  0  0
   39.5870   32.7650   43.8180 N   0  0  0  0  0  0  0  0  0  0  0  0
   38.3110   32.3040   43.9190 C   0  0  0  0  0  0  0  0  0  0  0  0
   37.7480   32.0900   45.0840 N   0  0  0  0  0  0  0  0  0  0  0  0
   37.9890   32.1520   47.5260 O   0  0  0  0  0  0  0  0  0  0  0  0
   37.0970   31.1240   47.7380 C   0  0  0  0  0  0  0  0  0  0  0  0
   37.8130   30.3890   48.6060 C   0  0  0  0  0  0  0  0  0  0  0  0
   38.1220   30.9650   49.9460 C   0  0  0  0  0  0  0  0  0  0  0  0
   37.2830   30.0840   51.2810 S   0  0  0  0  0  0  0  0  0  0  0  0
   37.5610   32.0450   42.7780 O   0  0  0  0  0  0  0  0  0  0  0  0
   35.2250   31.7260   41.6110 O   0  0  0  0  0  0  0  0  0  0  0  0
   35.8570   32.1290   42.9290 P   0  0  0  0  0  0  0  0  0  0  0  0
   35.3030   33.6390   43.3830 O   0  0  0  0  0  0  0  0  0  0  0  0
   35.3880   30.9480   44.0740 O   0  0  0  0  0  0  0  0  0  0  0  0
   40.3105   32.9946   47.0865 H   0  0  0  0  0  0  0  0  0  0  0  0
   41.3837   33.4027   44.8464 H   0  0  0  0  0  0  0  0  0  0  0  0
   36.1557   31.4815   48.1809 H   0  0  0  0  0  0  0  0  0  0  0  0
   36.7684   30.5931   46.8324 H   0  0  0  0  0  0  0  0  0  0  0  0
   37.2571   29.4550   48.7752 H   0  0  0  0  0  0  0  0  0  0  0  0
   38.7969   30.2894   48.1243 H   0  0  0  0  0  0  0  0  0  0  0  0
   39.2078   30.9093   50.1131 H   0  0  0  0  0  0  0  0  0  0  0  0
   37.7670   32.0061   49.9547 H   0  0  0  0  0  0  0  0  0  0  0  0
   37.7293   30.5526   52.4885 H   0  0  0  0  0  0  0  0  0  0  0  0
   35.2809   33.6991   44.3709 H   0  0  0  0  0  0  0  0  0  0  0  0
   35.5281   31.3008   44.9883 H   0  0  0  0  0  0  0  0  0  0  0  0
  1  7  1  0
  2  1  2  0
  3  2  1  0
  4  5  1  0
  4  3  2  0
  5  6  2  0
  6  1  1  0
  7  8  1  0
  8  9  1  0
  9 10  1  0
 10 11  1  0
 12 14  1  0
 12  5  1  0
 13 14  2  0
 14 15  1  0
 14 16  1  0
  2 17  1  0
  3 18  1  0
  8 19  1  0
  8 20  1  0
  9 21  1  0
  9 22  1  0
 10 23  1  0
 10 24  1  0
 11 25  1  0
 15 26  1  0
 16 27  1  0
M  ISO  8  17  14  18  14  19   8  20   8  21   8  22   8  23   8  24   8
M  ISO  3  25  11  26   3  27   3
M  END
>  <minimizedAffinity>  (1) 
-4.20262098

>  <minimizedRMSD>  (1) 
0.971152067

$$$$
