
     RDKit          3D

 30 32  0  0  0  0  0  0  0  0999 V2000
   38.0750   30.9840   47.8640 C   0  0  0  0  0  0  0  0  0  0  0  0
   38.9270   32.0400   47.7830 C   0  0  0  0  0  0  0  0  0  0  0  0
   39.4590   32.5150   46.5900 C   0  0  0  0  0  0  0  0  0  0  0  0
   39.1500   31.9310   45.4030 C   0  0  0  0  0  0  0  0  0  0  0  0
   38.2890   30.8650   45.5100 C   0  0  0  0  0  0  0  0  0  0  0  0
   37.7860   30.4240   46.6720 N   0  0  0  0  0  0  0  0  0  0  0  0
   37.9920   30.8390   50.3650 C   0  0  0  0  0  0  0  0  0  0  0  0
   37.5140   30.4800   49.0910 C   0  0  0  0  0  0  0  0  0  0  0  0
   36.4550   29.6020   49.0320 C   0  0  0  0  0  0  0  0  0  0  0  0
   35.9130   29.1170   50.1870 N   0  0  0  0  0  0  0  0  0  0  0  0
   36.4050   29.4900   51.3930 C   0  0  0  0  0  0  0  0  0  0  0  0
   37.4490   30.3530   51.4900 N   0  0  0  0  0  0  0  0  0  0  0  0
   39.6410   32.3470   44.1880 O   0  0  0  0  0  0  0  0  0  0  0  0
   38.6670   33.4970   41.5510 Cl  0  0  0  0  0  0  0  0  0  0  0  0
   39.6200   32.0470   41.9010 C   0  0  0  0  0  0  0  0  0  0  0  0
   40.0410   31.5740   43.1480 C   0  0  0  0  0  0  0  0  0  0  0  0
   40.7890   30.4140   43.1420 C   0  0  0  0  0  0  0  0  0  0  0  0
   41.1310   29.7190   42.0160 C   0  0  0  0  0  0  0  0  0  0  0  0
   40.7140   30.1880   40.7960 C   0  0  0  0  0  0  0  0  0  0  0  0
   39.9660   31.3430   40.7420 C   0  0  0  0  0  0  0  0  0  0  0  0
   39.2121   32.5483   48.7160 H   0  0  0  0  0  0  0  0  0  0  0  0
   40.1412   33.3777   46.6073 H   0  0  0  0  0  0  0  0  0  0  0  0
   37.9952   30.3427   44.5876 H   0  0  0  0  0  0  0  0  0  0  0  0
   38.8367   31.5396   50.4398 H   0  0  0  0  0  0  0  0  0  0  0  0
   36.0475   29.2927   48.0582 H   0  0  0  0  0  0  0  0  0  0  0  0
   35.9507   29.0866   52.3100 H   0  0  0  0  0  0  0  0  0  0  0  0
   41.1336   30.0219   44.1102 H   0  0  0  0  0  0  0  0  0  0  0  0
   41.7303   28.7993   42.0867 H   0  0  0  0  0  0  0  0  0  0  0  0
   40.9737   29.6486   39.8732 H   0  0  0  0  0  0  0  0  0  0  0  0
   39.6325   31.7213   39.7644 H   0  0  0  0  0  0  0  0  0  0  0  0
  1  8  1  0
  2  1  2  0
  3  2  1  0
  4  5  1  0
  4  3  2  0
  5  6  2  0
  6  1  1  0
  7 12  2  0
  8  7  1  0
  9  8  2  0
  9 10  1  0
 10 11  2  0
 11 12  1  0
 13  4  1  0
 14 15  1  0
 15 16  2  0
 16 13  1  0
 17 16  1  0
 18 17  2  0
 19 18  1  0
 20 19  2  0
 20 15  1  0
  2 21  1  0
  3 22  1  0
  5 23  1  0
  7 24  1  0
  9 25  1  0
 11 26  1  0
 17 27  1  0
 18 28  1  0
 19 29  1  0
 20 30  1  0
M  ISO  8  21  14  22  14  23  14  24  14  25  14  26  14  27  14  28  14
M  ISO  2  29  14  30  14
M  END
>  <minimizedAffinity>  (1) 
-5.6575799

>  <minimizedRMSD>  (1) 
2.84092879

$$$$
