
     RDKit          3D

 33 35  0  0  0  0  0  0  0  0999 V2000
   37.7130   31.0580   47.9620 C   0  0  0  0  0  0  0  0  0  0  0  0
   38.7810   31.8960   47.8910 C   0  0  0  0  0  0  0  0  0  0  0  0
   39.2690   32.4160   46.7020 C   0  0  0  0  0  0  0  0  0  0  0  0
   38.6660   32.0890   45.5050 C   0  0  0  0  0  0  0  0  0  0  0  0
   37.5780   31.2340   45.5990 C   0  0  0  0  0  0  0  0  0  0  0  0
   37.1410   30.7540   46.7800 N   0  0  0  0  0  0  0  0  0  0  0  0
   37.7900   30.7330   50.4560 C   0  0  0  0  0  0  0  0  0  0  0  0
   37.2030   30.5150   49.2080 C   0  0  0  0  0  0  0  0  0  0  0  0
   36.0540   29.7240   49.1590 C   0  0  0  0  0  0  0  0  0  0  0  0
   35.5560   29.2030   50.3190 N   0  0  0  0  0  0  0  0  0  0  0  0
   36.1570   29.4400   51.5010 C   0  0  0  0  0  0  0  0  0  0  0  0
   37.2730   30.2030   51.5810 N   0  0  0  0  0  0  0  0  0  0  0  0
   39.0740   32.5530   44.2640 O   0  0  0  0  0  0  0  0  0  0  0  0
   39.1730   31.9660   41.9850 C   0  0  0  0  0  0  0  0  0  0  0  0
   39.6150   31.7720   43.2800 C   0  0  0  0  0  0  0  0  0  0  0  0
   40.5750   30.8170   43.5530 C   0  0  0  0  0  0  0  0  0  0  0  0
   41.0760   30.0640   42.4950 C   0  0  0  0  0  0  0  0  0  0  0  0
   40.6520   30.2340   41.1860 C   0  0  0  0  0  0  0  0  0  0  0  0
   39.6870   31.2020   40.9370 C   0  0  0  0  0  0  0  0  0  0  0  0
   37.9580   33.1780   41.6500 S   0  0  0  0  0  0  0  0  0  0  0  0
   38.6420   34.3240   40.9630 O   0  0  0  0  0  0  0  0  0  0  0  0
   36.9470   32.6120   40.6990 O   0  0  0  0  0  0  0  0  0  0  0  0
   39.2853   32.1767   48.8274 H   0  0  0  0  0  0  0  0  0  0  0  0
   40.1381   33.0902   46.7131 H   0  0  0  0  0  0  0  0  0  0  0  0
   37.0540   30.9376   44.6783 H   0  0  0  0  0  0  0  0  0  0  0  0
   38.6965   31.3525   50.5219 H   0  0  0  0  0  0  0  0  0  0  0  0
   35.5563   29.5230   48.1989 H   0  0  0  0  0  0  0  0  0  0  0  0
   35.7333   29.0056   52.4185 H   0  0  0  0  0  0  0  0  0  0  0  0
   40.9343   30.6558   44.5801 H   0  0  0  0  0  0  0  0  0  0  0  0
   41.8406   29.3019   42.7064 H   0  0  0  0  0  0  0  0  0  0  0  0
   41.0662   29.6223   40.3710 H   0  0  0  0  0  0  0  0  0  0  0  0
   39.3272   31.3665   39.9106 H   0  0  0  0  0  0  0  0  0  0  0  0
   37.3450   33.5737   42.8096 H   0  0  0  0  0  0  0  0  0  0  0  0
  1  8  1  0
  2  1  2  0
  3  2  1  0
  4  5  1  0
  4  3  2  0
  5  6  2  0
  6  1  1  0
  7 12  2  0
  8  7  1  0
  9  8  2  0
  9 10  1  0
 10 11  2  0
 11 12  1  0
 13  4  1  0
 14 15  2  0
 15 16  1  0
 15 13  1  0
 17 16  2  0
 18 17  1  0
 19 18  2  0
 19 14  1  0
 20 14  1  0
 21 20  2  0
 22 20  2  0
  2 23  1  0
  3 24  1  0
  5 25  1  0
  7 26  1  0
  9 27  1  0
 11 28  1  0
 16 29  1  0
 17 30  1  0
 18 31  1  0
 19 32  1  0
 20 33  1  0
M  ISO  8  23  14  24  14  25  14  26  14  27  14  28  14  29  14  30  14
M  ISO  3  31  14  32  14  33  11
M  END
>  <minimizedAffinity>  (1) 
-5.58997297

>  <minimizedRMSD>  (1) 
3.64602685

$$$$
