
     RDKit          3D

 40 43  0  0  1  0  0  0  0  0999 V2000
   34.0230   28.8050   48.2800 C   0  0  0  0  0  0  0  0  0  0  0  0
   34.6520   28.3690   49.3930 C   0  0  0  0  0  0  0  0  0  0  0  0
   35.8880   28.7940   49.8160 C   0  0  0  0  0  0  0  0  0  0  0  0
   36.5660   29.7280   49.0870 C   0  0  0  0  0  0  0  0  0  0  0  0
   35.9260   30.1900   47.9290 C   0  0  0  0  0  0  0  0  0  0  0  0
   34.7090   29.7340   47.5630 N   0  0  0  0  0  0  0  0  0  0  0  0
   31.9070   27.4760   48.5790 C   0  0  0  0  0  0  0  0  0  0  0  0
   32.7270   28.3490   47.8480 C   0  0  0  0  0  0  0  0  0  0  0  0
   32.2300   28.7870   46.6320 C   0  0  0  0  0  0  0  0  0  0  0  0
   30.9960   28.3580   46.2100 N   0  0  0  0  0  0  0  0  0  0  0  0
   30.2640   27.5180   46.9680 C   0  0  0  0  0  0  0  0  0  0  0  0
   30.7120   27.0730   48.1500 N   0  0  0  0  0  0  0  0  0  0  0  0
   37.8220   30.2760   49.3600 O   0  0  0  0  0  0  0  0  0  0  0  0
   38.3880   31.2440   48.5430 C   0  0  0  0  0  0  0  0  0  0  0  0
   38.5050   32.4940   49.1400 C   0  0  0  0  0  0  0  0  0  0  0  0
   39.0830   33.3670   48.2160 C   0  0  0  0  0  0  0  0  0  0  0  0
   39.2870   32.6190   47.1200 N   0  0  0  0  0  0  0  0  0  0  0  0
   38.8870   31.3860   47.3000 N   0  0  0  0  0  0  0  0  0  0  0  0
   38.9440   32.7940   44.6820 C   0  0  1  0  0  0  0  0  0  0  0  0
   39.8710   33.0080   45.8300 C   0  0  2  0  0  0  0  0  0  0  0  0
   41.0200   32.3180   45.5610 O   0  0  0  0  0  0  0  0  0  0  0  0
   40.7800   31.3220   44.6550 C   0  0  0  0  0  0  0  0  0  0  0  0
   39.3910   31.4840   44.1200 C   0  0  2  0  0  0  0  0  0  0  0  0
   37.6020   32.7870   45.0580 O   0  0  0  0  0  0  0  0  0  0  0  0
   39.3820   31.5390   42.7150 O   0  0  0  0  0  0  0  0  0  0  0  0
   34.1355   27.6167   50.0072 H   0  0  0  0  0  0  0  0  0  0  0  0
   36.3288   28.3841   50.7367 H   0  0  0  0  0  0  0  0  0  0  0  0
   36.4275   30.9426   47.3029 H   0  0  0  0  0  0  0  0  0  0  0  0
   32.2674   27.1076   49.5508 H   0  0  0  0  0  0  0  0  0  0  0  0
   32.8202   29.4743   46.0081 H   0  0  0  0  0  0  0  0  0  0  0  0
   29.2773   27.1905   46.6087 H   0  0  0  0  0  0  0  0  0  0  0  0
   38.1956   32.7511   50.1638 H   0  0  0  0  0  0  0  0  0  0  0  0
   39.3190   34.4323   48.3554 H   0  0  0  0  0  0  0  0  0  0  0  0
   38.9904   33.6114   43.9474 H   0  0  0  0  0  0  0  0  0  0  0  0
   40.0815   34.0827   45.9339 H   0  0  0  0  0  0  0  0  0  0  0  0
   41.5046   31.3895   43.8301 H   0  0  0  0  0  0  0  0  0  0  0  0
   40.8822   30.3406   45.1412 H   0  0  0  0  0  0  0  0  0  0  0  0
   38.7415   30.6406   44.3974 H   0  0  0  0  0  0  0  0  0  0  0  0
   37.5361   32.7867   46.0458 H   0  0  0  0  0  0  0  0  0  0  0  0
   39.2293   32.4723   42.4223 H   0  0  0  0  0  0  0  0  0  0  0  0
  1  2  2  0
  2  3  1  0
  4 13  1  0
  4  3  2  0
  5  4  1  0
  6  5  2  0
  6  1  1  0
  8  1  1  0
  8  7  2  0
  9  8  1  0
 10  9  2  0
 10 11  1  0
 11 12  2  0
 12  7  1  0
 14 15  1  0
 14 13  1  0
 16 15  2  0
 17 18  1  0
 17 16  1  0
 18 14  2  0
 19 24  1  0
 19 20  1  0
 20 17  1  0
 21 20  1  0
 22 21  1  0
 23 25  1  0
 23 22  1  0
 23 19  1  0
  2 26  1  0
  3 27  1  0
  5 28  1  0
  7 29  1  0
  9 30  1  0
 11 31  1  0
 15 32  1  0
 16 33  1  0
 19 34  1  6
 20 35  1  1
 22 36  1  0
 22 37  1  0
 23 38  1  6
 24 39  1  0
 25 40  1  0
M  ISO  8  26  14  27  14  28  14  29  14  30  14  31  14  32  14  33  14
M  ISO  7  34  13  35  13  36  13  37  13  38  13  39   3  40   3
M  END
>  <minimizedAffinity>  (1) 
-6.88849068

>  <minimizedRMSD>  (1) 
1.00052595

$$$$
