
     RDKit          3D

 42 45  0  0  0  0  0  0  0  0999 V2000
   34.1640   28.4280   48.6390 C   0  0  0  0  0  0  0  0  0  0  0  0
   34.9870   28.3480   49.7310 C   0  0  0  0  0  0  0  0  0  0  0  0
   35.8250   29.3580   50.1530 C   0  0  0  0  0  0  0  0  0  0  0  0
   35.8720   30.5340   49.4680 C   0  0  0  0  0  0  0  0  0  0  0  0
   35.0320   30.6220   48.3500 C   0  0  0  0  0  0  0  0  0  0  0  0
   34.2290   29.6080   47.9740 N   0  0  0  0  0  0  0  0  0  0  0  0
   33.7450   26.2600   47.4750 C   0  0  0  0  0  0  0  0  0  0  0  0
   33.3030   27.3740   48.2000 C   0  0  0  0  0  0  0  0  0  0  0  0
   31.9650   27.4350   48.4810 C   0  0  0  0  0  0  0  0  0  0  0  0
   31.1290   26.4330   48.0520 N   0  0  0  0  0  0  0  0  0  0  0  0
   31.6210   25.3740   47.3490 C   0  0  0  0  0  0  0  0  0  0  0  0
   32.9240   25.2810   47.0570 N   0  0  0  0  0  0  0  0  0  0  0  0
   36.6510   31.6510   49.7460 O   0  0  0  0  0  0  0  0  0  0  0  0
   37.6730   32.0660   48.8940 C   0  0  0  0  0  0  0  0  0  0  0  0
   38.2390   33.2800   49.2660 C   0  0  0  0  0  0  0  0  0  0  0  0
   39.2330   33.5650   48.3340 C   0  0  0  0  0  0  0  0  0  0  0  0
   39.2420   32.5540   47.4560 N   0  0  0  0  0  0  0  0  0  0  0  0
   38.3270   31.6810   47.7890 N   0  0  0  0  0  0  0  0  0  0  0  0
   39.9780   31.9060   43.4330 N   0  0  0  0  0  0  0  0  0  0  0  0
   40.5560   31.0140   44.3840 C   0  0  0  0  0  0  0  0  0  0  0  0
   39.9110   31.0430   45.7300 C   0  0  0  0  0  0  0  0  0  0  0  0
   40.1150   32.4300   46.3150 C   0  0  0  0  0  0  0  0  0  0  0  0
   39.9370   33.5190   45.3030 C   0  0  0  0  0  0  0  0  0  0  0  0
   39.3630   33.0680   43.9960 C   0  0  0  0  0  0  0  0  0  0  0  0
   34.9787   27.4135   50.3112 H   0  0  0  0  0  0  0  0  0  0  0  0
   36.4555   29.2140   51.0428 H   0  0  0  0  0  0  0  0  0  0  0  0
   35.0282   31.5502   47.7596 H   0  0  0  0  0  0  0  0  0  0  0  0
   34.8159   26.1825   47.2361 H   0  0  0  0  0  0  0  0  0  0  0  0
   31.5597   28.2850   49.0495 H   0  0  0  0  0  0  0  0  0  0  0  0
   30.9349   24.5815   47.0156 H   0  0  0  0  0  0  0  0  0  0  0  0
   37.9556   33.8973   50.1312 H   0  0  0  0  0  0  0  0  0  0  0  0
   39.8856   34.4504   48.3213 H   0  0  0  0  0  0  0  0  0  0  0  0
   39.2615   31.3892   42.9034 H   0  0  0  0  0  0  0  0  0  0  0  0
   40.4780   29.9910   43.9874 H   0  0  0  0  0  0  0  0  0  0  0  0
   41.5964   31.3407   44.5280 H   0  0  0  0  0  0  0  0  0  0  0  0
   38.8357   30.8322   45.6339 H   0  0  0  0  0  0  0  0  0  0  0  0
   40.3574   30.2809   46.3856 H   0  0  0  0  0  0  0  0  0  0  0  0
   41.1580   32.5512   46.6427 H   0  0  0  0  0  0  0  0  0  0  0  0
   39.2640   34.2772   45.7298 H   0  0  0  0  0  0  0  0  0  0  0  0
   40.9423   33.9082   45.0841 H   0  0  0  0  0  0  0  0  0  0  0  0
   39.4676   33.8923   43.2751 H   0  0  0  0  0  0  0  0  0  0  0  0
   38.3171   32.7939   44.1985 H   0  0  0  0  0  0  0  0  0  0  0  0
  1  2  2  0
  2  3  1  0
  4 13  1  0
  4  3  2  0
  5  4  1  0
  6  5  2  0
  6  1  1  0
  7  8  2  0
  8  9  1  0
  8  1  1  0
 10  9  2  0
 11 10  1  0
 12 11  2  0
 12  7  1  0
 14 15  1  0
 14 13  1  0
 16 15  2  0
 17 18  1  0
 17 16  1  0
 18 14  2  0
 19 24  1  0
 19 20  1  0
 20 21  1  0
 21 22  1  0
 22 17  1  0
 23 22  1  0
 24 23  1  0
  2 25  1  0
  3 26  1  0
  5 27  1  0
  7 28  1  0
  9 29  1  0
 11 30  1  0
 15 31  1  0
 16 32  1  0
 19 33  1  0
 20 34  1  0
 20 35  1  0
 21 36  1  0
 21 37  1  0
 22 38  1  0
 23 39  1  0
 23 40  1  0
 24 41  1  0
 24 42  1  0
M  ISO  8  25  14  26  14  27  14  28  14  29  14  30  14  31  14  32  14
M  ISO  8  33   5  34  13  35  13  36  13  37  13  38  13  39  13  40  13
M  ISO  2  41  13  42  13
M  END
>  <minimizedAffinity>  (1) 
-6.60733652

>  <minimizedRMSD>  (1) 
2.50834846

$$$$
