
     RDKit          3D

 23 23  0  0  0  0  0  0  0  0999 V2000
   38.4610   31.9940   47.7340 O   0  0  0  0  0  0  0  0  0  0  0  0
   38.6690   32.3280   46.4170 C   0  0  0  0  0  0  0  0  0  0  0  0
   39.9410   32.8290   46.1970 C   0  0  0  0  0  0  0  0  0  0  0  0
   40.3030   33.2170   44.8910 C   0  0  0  0  0  0  0  0  0  0  0  0
   39.3500   33.0670   43.9050 N   0  0  0  0  0  0  0  0  0  0  0  0
   38.1160   32.5700   44.1720 C   0  0  0  0  0  0  0  0  0  0  0  0
   37.7980   32.2120   45.4090 N   0  0  0  0  0  0  0  0  0  0  0  0
   37.1870   32.4450   43.1010 N   0  0  0  0  0  0  0  0  0  0  0  0
   37.3040   31.3150   48.0460 C   0  0  0  0  0  0  0  0  0  0  0  0
   37.8180   30.4220   48.9070 C   0  0  0  0  0  0  0  0  0  0  0  0
   38.1150   30.8820   50.2970 C   0  0  0  0  0  0  0  0  0  0  0  0
   37.2500   29.9360   51.5470 S   0  0  0  0  0  0  0  0  0  0  0  0
   40.6567   32.9226   47.0271 H   0  0  0  0  0  0  0  0  0  0  0  0
   41.3013   33.6215   44.6680 H   0  0  0  0  0  0  0  0  0  0  0  0
   36.2440   32.0705   43.2783 H   0  0  0  0  0  0  0  0  0  0  0  0
   37.4577   32.7291   42.1487 H   0  0  0  0  0  0  0  0  0  0  0  0
   36.5575   31.9671   48.5229 H   0  0  0  0  0  0  0  0  0  0  0  0
   36.7559   30.8912   47.1916 H   0  0  0  0  0  0  0  0  0  0  0  0
   37.1018   29.5906   48.9831 H   0  0  0  0  0  0  0  0  0  0  0  0
   38.8012   30.1664   48.4851 H   0  0  0  0  0  0  0  0  0  0  0  0
   39.1968   30.7891   50.4733 H   0  0  0  0  0  0  0  0  0  0  0  0
   37.7736   31.9245   50.3785 H   0  0  0  0  0  0  0  0  0  0  0  0
   37.6379   30.3602   52.7906 H   0  0  0  0  0  0  0  0  0  0  0  0
  1  9  1  0
  2  1  1  0
  3  2  2  0
  4  3  1  0
  5  6  1  0
  5  4  2  0
  6  7  2  0
  7  2  1  0
  8  6  1  0
  9 10  1  0
 10 11  1  0
 11 12  1  0
  3 13  1  0
  4 14  1  0
  8 15  1  0
  8 16  1  0
  9 17  1  0
  9 18  1  0
 10 19  1  0
 10 20  1  0
 11 21  1  0
 11 22  1  0
 12 23  1  0
M  ISO  8  13  14  14  14  17   8  18   8  19   8  20   8  21   8  22   8
M  ISO  1  23  11
M  END
>  <minimizedAffinity>  (1) 
-3.82531786

>  <minimizedRMSD>  (1) 
0.228353485

$$$$
