
     RDKit          3D

 32 34  0  0  0  0  0  0  0  0999 V2000
   37.2230   29.5690   51.1910 Br  0  0  0  0  0  0  0  0  0  0  0  0
   36.0130   29.3780   49.7220 C   0  0  0  0  0  0  0  0  0  0  0  0
   36.1070   30.1980   48.5960 C   0  0  0  0  0  0  0  0  0  0  0  0
   35.2000   29.9970   47.5780 C   0  0  0  0  0  0  0  0  0  0  0  0
   34.2120   29.0260   47.6240 C   0  0  0  0  0  0  0  0  0  0  0  0
   34.1450   28.2350   48.7470 C   0  0  0  0  0  0  0  0  0  0  0  0
   35.0390   28.4170   49.7770 C   0  0  0  0  0  0  0  0  0  0  0  0
   38.0230   33.2020   49.4100 C   0  0  0  0  0  0  0  0  0  0  0  0
   39.0560   33.1950   48.4500 C   0  0  0  0  0  0  0  0  0  0  0  0
   39.0890   32.1460   47.5180 C   0  0  0  0  0  0  0  0  0  0  0  0
   38.1160   31.1850   47.5900 N   0  0  0  0  0  0  0  0  0  0  0  0
   37.1370   31.2240   48.5260 C   0  0  0  0  0  0  0  0  0  0  0  0
   37.0930   32.2240   49.4270 N   0  0  0  0  0  0  0  0  0  0  0  0
   32.5760   29.9720   46.0230 C   0  0  0  0  0  0  0  0  0  0  0  0
   33.2990   28.8950   46.4870 C   0  0  0  0  0  0  0  0  0  0  0  0
   33.1510   27.6820   45.8660 C   0  0  0  0  0  0  0  0  0  0  0  0
   32.2670   27.6140   44.7880 C   0  0  0  0  0  0  0  0  0  0  0  0
   31.5390   28.6930   44.3160 C   0  0  0  0  0  0  0  0  0  0  0  0
   31.7040   29.9010   44.9560 C   0  0  0  0  0  0  0  0  0  0  0  0
   32.7430   31.1950   46.6710 O   0  0  0  0  0  0  0  0  0  0  0  0
   31.0050   31.0460   44.5450 O   0  0  0  0  0  0  0  0  0  0  0  0
   35.2632   30.6379   46.6862 H   0  0  0  0  0  0  0  0  0  0  0  0
   33.3740   27.4540   48.8221 H   0  0  0  0  0  0  0  0  0  0  0  0
   34.9696   27.7743   50.6670 H   0  0  0  0  0  0  0  0  0  0  0  0
   37.9747   34.0124   50.1522 H   0  0  0  0  0  0  0  0  0  0  0  0
   39.8156   33.9904   48.4321 H   0  0  0  0  0  0  0  0  0  0  0  0
   39.8753   32.0971   46.7503 H   0  0  0  0  0  0  0  0  0  0  0  0
   33.7078   26.7957   46.2044 H   0  0  0  0  0  0  0  0  0  0  0  0
   32.1411   26.6449   44.2831 H   0  0  0  0  0  0  0  0  0  0  0  0
   30.8542   28.5891   43.4614 H   0  0  0  0  0  0  0  0  0  0  0  0
   32.2395   31.9904   46.3645 H   0  0  0  0  0  0  0  0  0  0  0  0
   31.1388   31.9045   45.0195 H   0  0  0  0  0  0  0  0  0  0  0  0
  2  7  2  0
  2  1  1  0
  3  2  1  0
  4  5  1  0
  4  3  2  0
  5  6  2  0
  6  7  1  0
  8 13  2  0
  9  8  1  0
 10 11  1  0
 10  9  2  0
 11 12  2  0
 12  3  1  0
 12 13  1  0
 14 15  2  0
 14 20  1  0
 15  5  1  0
 16 15  1  0
 17 16  2  0
 18 17  1  0
 18 19  2  0
 19 14  1  0
 21 19  1  0
  4 22  1  0
  6 23  1  0
  7 24  1  0
  8 25  1  0
  9 26  1  0
 10 27  1  0
 16 28  1  0
 17 29  1  0
 18 30  1  0
 20 31  1  0
 21 32  1  0
M  ISO  8  22  14  23  14  24  14  25  14  26  14  27  14  28  14  29  14
M  ISO  3  30  14  31   3  32   3
M  END
>  <minimizedAffinity>  (1) 
-6.61402988

>  <minimizedRMSD>  (1) 
0.370094925

$$$$
