
     RDKit          3D

 22 22  0  0  0  0  0  0  0  0999 V2000
   37.1270   31.1110   47.9110 C   0  0  0  0  0  0  0  0  0  0  0  0
   37.6670   30.2700   48.8160 C   0  0  0  0  0  0  0  0  0  0  0  0
   38.0460   30.8220   50.1510 C   0  0  0  0  0  0  0  0  0  0  0  0
   37.2440   29.9440   51.5060 S   0  0  0  0  0  0  0  0  0  0  0  0
   38.2120   31.9440   47.7170 O   0  0  0  0  0  0  0  0  0  0  0  0
   38.5170   32.2940   46.4080 C   0  0  0  0  0  0  0  0  0  0  0  0
   39.8130   32.7730   46.2770 C   0  0  0  0  0  0  0  0  0  0  0  0
   40.2610   33.1630   45.0130 C   0  0  0  0  0  0  0  0  0  0  0  0
   39.3780   33.0440   43.9770 N   0  0  0  0  0  0  0  0  0  0  0  0
   38.1210   32.5740   44.1340 C   0  0  0  0  0  0  0  0  0  0  0  0
   37.7180   32.2110   45.3290 N   0  0  0  0  0  0  0  0  0  0  0  0
   37.2450   32.4640   43.0620 O   0  0  0  0  0  0  0  0  0  0  0  0
   36.8357   30.5907   46.9866 H   0  0  0  0  0  0  0  0  0  0  0  0
   36.1974   31.6093   48.2234 H   0  0  0  0  0  0  0  0  0  0  0  0
   36.9373   29.4655   48.9904 H   0  0  0  0  0  0  0  0  0  0  0  0
   38.6222   29.9610   48.3665 H   0  0  0  0  0  0  0  0  0  0  0  0
   39.1362   30.7391   50.2717 H   0  0  0  0  0  0  0  0  0  0  0  0
   37.7168   31.8710   50.1876 H   0  0  0  0  0  0  0  0  0  0  0  0
   37.6956   30.4384   52.7012 H   0  0  0  0  0  0  0  0  0  0  0  0
   40.4751   32.8442   47.1525 H   0  0  0  0  0  0  0  0  0  0  0  0
   41.2794   33.5488   44.8583 H   0  0  0  0  0  0  0  0  0  0  0  0
   36.3291   32.1163   43.2048 H   0  0  0  0  0  0  0  0  0  0  0  0
  1  2  1  0
  2  3  1  0
  3  4  1  0
  5  1  1  0
  6  5  1  0
  7  6  2  0
  8  7  1  0
  9 10  1  0
  9  8  2  0
 10 11  2  0
 11  6  1  0
 12 10  1  0
  1 13  1  0
  1 14  1  0
  2 15  1  0
  2 16  1  0
  3 17  1  0
  3 18  1  0
  4 19  1  0
  7 20  1  0
  8 21  1  0
 12 22  1  0
M  ISO  8  13   8  14   8  15   8  16   8  17   8  18   8  19  11  20  14
M  ISO  2  21  14  22   3
M  END
>  <minimizedAffinity>  (1) 
-3.77131486

>  <minimizedRMSD>  (1) 
0.153798014

$$$$
