
     RDKit          3D

 30 32  0  0  0  0  0  0  0  0999 V2000
   37.3370   29.4020   51.1040 Br  0  0  0  0  0  0  0  0  0  0  0  0
   36.0150   29.3320   49.7210 C   0  0  0  0  0  0  0  0  0  0  0  0
   36.0380   30.2330   48.6660 C   0  0  0  0  0  0  0  0  0  0  0  0
   35.0540   30.1120   47.7190 C   0  0  0  0  0  0  0  0  0  0  0  0
   34.0540   29.1450   47.7670 C   0  0  0  0  0  0  0  0  0  0  0  0
   34.0740   28.2780   48.8270 C   0  0  0  0  0  0  0  0  0  0  0  0
   35.0510   28.3750   49.7960 C   0  0  0  0  0  0  0  0  0  0  0  0
   37.9770   33.2100   49.4670 C   0  0  0  0  0  0  0  0  0  0  0  0
   39.0050   33.2230   48.4950 C   0  0  0  0  0  0  0  0  0  0  0  0
   39.0150   32.1920   47.5630 C   0  0  0  0  0  0  0  0  0  0  0  0
   38.0400   31.2200   47.6280 N   0  0  0  0  0  0  0  0  0  0  0  0
   37.0760   31.2600   48.5890 C   0  0  0  0  0  0  0  0  0  0  0  0
   37.0500   32.2490   49.4980 N   0  0  0  0  0  0  0  0  0  0  0  0
   31.4070   27.7790   48.4470 Cl  0  0  0  0  0  0  0  0  0  0  0  0
   31.8130   28.4890   46.9150 C   0  0  0  0  0  0  0  0  0  0  0  0
   33.0400   29.0800   46.7200 C   0  0  0  0  0  0  0  0  0  0  0  0
   33.3100   29.6340   45.4680 C   0  0  0  0  0  0  0  0  0  0  0  0
   32.4140   29.6170   44.4240 C   0  0  0  0  0  0  0  0  0  0  0  0
   31.1990   29.0110   44.6770 C   0  0  0  0  0  0  0  0  0  0  0  0
   30.8630   28.4430   45.8890 C   0  0  0  0  0  0  0  0  0  0  0  0
   35.0548   30.8177   46.8752 H   0  0  0  0  0  0  0  0  0  0  0  0
   33.3036   27.4968   48.9064 H   0  0  0  0  0  0  0  0  0  0  0  0
   35.0506   27.6696   50.6400 H   0  0  0  0  0  0  0  0  0  0  0  0
   37.9402   34.0133   50.2176 H   0  0  0  0  0  0  0  0  0  0  0  0
   39.7658   34.0173   48.4776 H   0  0  0  0  0  0  0  0  0  0  0  0
   39.7906   32.1523   46.7840 H   0  0  0  0  0  0  0  0  0  0  0  0
   34.2893   30.1086   45.3075 H   0  0  0  0  0  0  0  0  0  0  0  0
   32.6514   30.0600   43.4455 H   0  0  0  0  0  0  0  0  0  0  0  0
   30.4566   28.9793   43.8660 H   0  0  0  0  0  0  0  0  0  0  0  0
   29.8818   27.9703   46.0431 H   0  0  0  0  0  0  0  0  0  0  0  0
  2  7  2  0
  2  1  1  0
  3  2  1  0
  4  5  1  0
  4  3  2  0
  5  6  2  0
  6  7  1  0
  8 13  2  0
  9  8  1  0
 10 11  1  0
 10  9  2  0
 11 12  2  0
 12  3  1  0
 12 13  1  0
 15 14  1  0
 16 15  2  0
 16  5  1  0
 17 16  1  0
 18 19  1  0
 18 17  2  0
 19 20  2  0
 20 15  1  0
  4 21  1  0
  6 22  1  0
  7 23  1  0
  8 24  1  0
  9 25  1  0
 10 26  1  0
 17 27  1  0
 18 28  1  0
 19 29  1  0
 20 30  1  0
M  ISO  8  21  14  22  14  23  14  24  14  25  14  26  14  27  14  28  14
M  ISO  2  29  14  30  14
M  END
>  <minimizedAffinity>  (1) 
-6.15034199

>  <minimizedRMSD>  (1) 
0.320623815

$$$$
