
     RDKit          3D

 26 27  0  0  0  0  0  0  0  0999 V2000
   37.1850   29.5940   51.2270 Br  0  0  0  0  0  0  0  0  0  0  0  0
   36.0260   29.3400   49.7160 C   0  0  0  0  0  0  0  0  0  0  0  0
   36.1510   30.1380   48.5950 C   0  0  0  0  0  0  0  0  0  0  0  0
   35.2800   29.9000   47.5400 C   0  0  0  0  0  0  0  0  0  0  0  0
   34.3120   28.9090   47.5750 C   0  0  0  0  0  0  0  0  0  0  0  0
   34.2270   28.1430   48.7080 C   0  0  0  0  0  0  0  0  0  0  0  0
   35.0800   28.3610   49.7680 C   0  0  0  0  0  0  0  0  0  0  0  0
   37.9900   33.1860   49.4120 C   0  0  0  0  0  0  0  0  0  0  0  0
   39.0310   33.2090   48.4600 C   0  0  0  0  0  0  0  0  0  0  0  0
   39.0910   32.1700   47.5410 C   0  0  0  0  0  0  0  0  0  0  0  0
   38.1490   31.1810   47.5960 N   0  0  0  0  0  0  0  0  0  0  0  0
   37.1570   31.1880   48.5280 C   0  0  0  0  0  0  0  0  0  0  0  0
   37.0830   32.1980   49.4380 N   0  0  0  0  0  0  0  0  0  0  0  0
   33.5400   28.8210   46.4350 O   0  0  0  0  0  0  0  0  0  0  0  0
   31.8810   29.5650   44.5950 O   0  0  0  0  0  0  0  0  0  0  0  0
   32.2030   29.7960   46.0730 P   0  0  0  0  0  0  0  0  0  0  0  0
   30.8460   29.2730   46.9480 O   0  0  0  0  0  0  0  0  0  0  0  0
   32.5180   31.4380   46.3190 O   0  0  0  0  0  0  0  0  0  0  0  0
   35.3619   30.5246   46.6383 H   0  0  0  0  0  0  0  0  0  0  0  0
   33.4708   27.3467   48.7719 H   0  0  0  0  0  0  0  0  0  0  0  0
   34.9959   27.7356   50.6690 H   0  0  0  0  0  0  0  0  0  0  0  0
   37.9204   33.9979   50.1509 H   0  0  0  0  0  0  0  0  0  0  0  0
   39.7706   34.0231   48.4463 H   0  0  0  0  0  0  0  0  0  0  0  0
   39.8848   32.1431   46.7800 H   0  0  0  0  0  0  0  0  0  0  0  0
   31.0312   29.3444   47.9179 H   0  0  0  0  0  0  0  0  0  0  0  0
   32.5539   31.6252   47.2905 H   0  0  0  0  0  0  0  0  0  0  0  0
  2  7  2  0
  2  1  1  0
  3  2  1  0
  4  5  1  0
  4  3  2  0
  5  6  2  0
  6  7  1  0
  8 13  2  0
  9  8  1  0
 10 11  1  0
 10  9  2  0
 11 12  2  0
 12  3  1  0
 12 13  1  0
 14  5  1  0
 15 16  2  0
 16 18  1  0
 16 14  1  0
 16 17  1  0
  4 19  1  0
  6 20  1  0
  7 21  1  0
  8 22  1  0
  9 23  1  0
 10 24  1  0
 17 25  1  0
 18 26  1  0
M  ISO  8  19  14  20  14  21  14  22  14  23  14  24  14  25   3  26   3
M  END
>  <minimizedAffinity>  (1) 
-6.12894583

>  <minimizedRMSD>  (1) 
0.65238601

$$$$
