
     RDKit          3D

 24 25  0  0  0  0  0  0  0  0999 V2000
   37.0480   29.6820   51.2510 Br  0  0  0  0  0  0  0  0  0  0  0  0
   35.9620   29.3770   49.6980 C   0  0  0  0  0  0  0  0  0  0  0  0
   36.1380   30.1410   48.5620 C   0  0  0  0  0  0  0  0  0  0  0  0
   35.3200   29.8630   47.4820 C   0  0  0  0  0  0  0  0  0  0  0  0
   34.3550   28.8680   47.5090 C   0  0  0  0  0  0  0  0  0  0  0  0
   34.2200   28.1370   48.6610 C   0  0  0  0  0  0  0  0  0  0  0  0
   35.0230   28.3930   49.7510 C   0  0  0  0  0  0  0  0  0  0  0  0
   37.9880   33.1740   49.4030 C   0  0  0  0  0  0  0  0  0  0  0  0
   39.0460   33.2000   48.4400 C   0  0  0  0  0  0  0  0  0  0  0  0
   39.0870   32.1630   47.5250 C   0  0  0  0  0  0  0  0  0  0  0  0
   38.1350   31.1810   47.5830 N   0  0  0  0  0  0  0  0  0  0  0  0
   37.1500   31.1960   48.5120 C   0  0  0  0  0  0  0  0  0  0  0  0
   37.0780   32.1900   49.4180 N   0  0  0  0  0  0  0  0  0  0  0  0
   32.8090   29.8410   45.9130 C   0  0  0  0  0  0  0  0  0  0  0  0
   32.5900   30.9640   46.4350 O   0  0  0  0  0  0  0  0  0  0  0  0
   33.6240   28.7420   46.3080 N   0  0  0  0  0  0  0  0  0  0  0  0
   35.4401   30.4561   46.5634 H   0  0  0  0  0  0  0  0  0  0  0  0
   33.4643   27.3395   48.7155 H   0  0  0  0  0  0  0  0  0  0  0  0
   34.9046   27.7989   50.6691 H   0  0  0  0  0  0  0  0  0  0  0  0
   37.9199   33.9802   50.1482 H   0  0  0  0  0  0  0  0  0  0  0  0
   39.7927   34.0076   48.4277 H   0  0  0  0  0  0  0  0  0  0  0  0
   39.8760   32.1280   46.7593 H   0  0  0  0  0  0  0  0  0  0  0  0
   32.2669   29.6759   44.9702 H   0  0  0  0  0  0  0  0  0  0  0  0
   33.6781   27.8859   45.7378 H   0  0  0  0  0  0  0  0  0  0  0  0
  2  7  2  0
  2  1  1  0
  3  2  1  0
  4  5  1  0
  4  3  2  0
  5  6  2  0
  6  7  1  0
  8 13  2  0
  9  8  1  0
 10 11  1  0
 10  9  2  0
 11 12  2  0
 12  3  1  0
 12 13  1  0
 14 16  1  0
 14 15  2  0
 16  5  1  0
  4 17  1  0
  6 18  1  0
  7 19  1  0
  8 20  1  0
  9 21  1  0
 10 22  1  0
 14 23  1  0
 16 24  1  0
M  ISO  7  17  14  18  14  19  14  20  14  21  14  22  14  23   6
M  END
>  <minimizedAffinity>  (1) 
-5.58840179

>  <minimizedRMSD>  (1) 
0.595353663

$$$$
