
     RDKit          3D

 35 38  0  0  0  0  0  0  0  0999 V2000
   37.3000   29.3260   51.0120 Br  0  0  0  0  0  0  0  0  0  0  0  0
   35.9550   29.3190   49.6640 C   0  0  0  0  0  0  0  0  0  0  0  0
   35.9910   30.2370   48.6290 C   0  0  0  0  0  0  0  0  0  0  0  0
   34.9910   30.1800   47.6870 C   0  0  0  0  0  0  0  0  0  0  0  0
   33.9610   29.2460   47.7380 C   0  0  0  0  0  0  0  0  0  0  0  0
   33.9530   28.3580   48.7650 C   0  0  0  0  0  0  0  0  0  0  0  0
   34.9510   28.4050   49.7180 C   0  0  0  0  0  0  0  0  0  0  0  0
   37.9900   33.1850   49.4430 C   0  0  0  0  0  0  0  0  0  0  0  0
   39.0200   33.1610   48.4500 C   0  0  0  0  0  0  0  0  0  0  0  0
   39.0020   32.1320   47.5250 C   0  0  0  0  0  0  0  0  0  0  0  0
   38.0080   31.1940   47.6020 N   0  0  0  0  0  0  0  0  0  0  0  0
   37.0510   31.2310   48.5380 C   0  0  0  0  0  0  0  0  0  0  0  0
   37.0440   32.2380   49.4660 N   0  0  0  0  0  0  0  0  0  0  0  0
   32.9010   29.1840   46.7400 C   0  0  0  0  0  0  0  0  0  0  0  0
   32.3040   28.0310   46.2920 C   0  0  0  0  0  0  0  0  0  0  0  0
   31.3010   28.0190   45.3440 C   0  0  0  0  0  0  0  0  0  0  0  0
   30.8740   29.1650   44.8260 N   0  0  0  0  0  0  0  0  0  0  0  0
   31.4420   30.3220   45.2470 C   0  0  0  0  0  0  0  0  0  0  0  0
   32.4110   30.3080   46.1630 N   0  0  0  0  0  0  0  0  0  0  0  0
   31.1050   31.6850   44.7890 C   0  0  0  0  0  0  0  0  0  0  0  0
   29.8410   32.0630   44.3270 C   0  0  0  0  0  0  0  0  0  0  0  0
   29.9180   33.3810   44.0010 N   0  0  0  0  0  0  0  0  0  0  0  0
   31.1730   33.8230   44.2430 C   0  0  0  0  0  0  0  0  0  0  0  0
   31.8840   32.7850   44.7220 N   0  0  0  0  0  0  0  0  0  0  0  0
   35.0059   30.9032   46.8583 H   0  0  0  0  0  0  0  0  0  0  0  0
   33.1550   27.6044   48.8375 H   0  0  0  0  0  0  0  0  0  0  0  0
   34.9328   27.6808   50.5458 H   0  0  0  0  0  0  0  0  0  0  0  0
   37.9754   33.9886   50.1940 H   0  0  0  0  0  0  0  0  0  0  0  0
   39.8008   33.9354   48.4228 H   0  0  0  0  0  0  0  0  0  0  0  0
   39.7723   32.0689   46.7422 H   0  0  0  0  0  0  0  0  0  0  0  0
   32.6416   27.0707   46.7089 H   0  0  0  0  0  0  0  0  0  0  0  0
   30.8579   27.0660   45.0194 H   0  0  0  0  0  0  0  0  0  0  0  0
   28.9540   31.4179   44.2432 H   0  0  0  0  0  0  0  0  0  0  0  0
   29.1447   33.9510   43.6295 H   0  0  0  0  0  0  0  0  0  0  0  0
   31.5452   34.8449   44.0784 H   0  0  0  0  0  0  0  0  0  0  0  0
  2  7  2  0
  2  1  1  0
  3  2  1  0
  4  5  1  0
  4  3  2  0
  5  6  2  0
  6  7  1  0
  8 13  2  0
  9  8  1  0
 10 11  1  0
 10  9  2  0
 11 12  2  0
 12  3  1  0
 12 13  1  0
 14  5  1  0
 15 14  2  0
 16 15  1  0
 17 18  1  0
 17 16  2  0
 18 19  2  0
 19 14  1  0
 20 18  1  0
 21 20  2  0
 22 23  1  0
 22 21  1  0
 23 24  2  0
 24 20  1  0
  4 25  1  0
  6 26  1  0
  7 27  1  0
  8 28  1  0
  9 29  1  0
 10 30  1  0
 15 31  1  0
 16 32  1  0
 21 33  1  0
 22 34  1  0
 23 35  1  0
M  ISO  8  25  14  26  14  27  14  28  14  29  14  30  14  31  14  32  14
M  ISO  3  33  14  34   9  35  14
M  END
>  <minimizedAffinity>  (1) 
-6.67196846

>  <minimizedRMSD>  (1) 
0.110469639

$$$$
