
     RDKit          3D

 30 32  0  0  0  0  0  0  0  0999 V2000
   37.3210   29.3340   51.0340 Br  0  0  0  0  0  0  0  0  0  0  0  0
   35.9730   29.3400   49.6810 C   0  0  0  0  0  0  0  0  0  0  0  0
   36.0000   30.2670   48.6510 C   0  0  0  0  0  0  0  0  0  0  0  0
   34.9920   30.1980   47.7240 C   0  0  0  0  0  0  0  0  0  0  0  0
   33.9680   29.2670   47.7650 C   0  0  0  0  0  0  0  0  0  0  0  0
   33.9670   28.3700   48.7870 C   0  0  0  0  0  0  0  0  0  0  0  0
   34.9700   28.4160   49.7350 C   0  0  0  0  0  0  0  0  0  0  0  0
   32.9140   29.2180   46.7670 C   0  0  0  0  0  0  0  0  0  0  0  0
   32.2760   28.0630   46.3700 C   0  0  0  0  0  0  0  0  0  0  0  0
   31.2720   28.0240   45.4170 C   0  0  0  0  0  0  0  0  0  0  0  0
   30.8850   29.1740   44.8390 N   0  0  0  0  0  0  0  0  0  0  0  0
   31.5010   30.3080   45.2200 C   0  0  0  0  0  0  0  0  0  0  0  0
   32.4620   30.3130   46.1370 N   0  0  0  0  0  0  0  0  0  0  0  0
   31.1790   31.5850   44.6800 N   0  0  0  0  0  0  0  0  0  0  0  0
   37.9990   33.2040   49.4700 C   0  0  0  0  0  0  0  0  0  0  0  0
   39.0260   33.1840   48.4780 C   0  0  0  0  0  0  0  0  0  0  0  0
   39.0040   32.1630   47.5570 C   0  0  0  0  0  0  0  0  0  0  0  0
   38.0160   31.2160   47.6180 N   0  0  0  0  0  0  0  0  0  0  0  0
   37.0560   31.2630   48.5700 C   0  0  0  0  0  0  0  0  0  0  0  0
   37.0570   32.2590   49.4880 N   0  0  0  0  0  0  0  0  0  0  0  0
   34.9972   30.9254   46.8989 H   0  0  0  0  0  0  0  0  0  0  0  0
   33.1724   27.6127   48.8581 H   0  0  0  0  0  0  0  0  0  0  0  0
   34.9603   27.6863   50.5581 H   0  0  0  0  0  0  0  0  0  0  0  0
   32.5824   27.1157   46.8378 H   0  0  0  0  0  0  0  0  0  0  0  0
   30.8003   27.0701   45.1384 H   0  0  0  0  0  0  0  0  0  0  0  0
   31.6808   32.4234   45.0059 H   0  0  0  0  0  0  0  0  0  0  0  0
   30.4442   31.6707   43.9633 H   0  0  0  0  0  0  0  0  0  0  0  0
   37.9843   34.0041   50.2247 H   0  0  0  0  0  0  0  0  0  0  0  0
   39.8072   33.9580   48.4515 H   0  0  0  0  0  0  0  0  0  0  0  0
   39.7758   32.1070   46.7753 H   0  0  0  0  0  0  0  0  0  0  0  0
  2  7  2  0
  2  1  1  0
  3  2  1  0
  4  5  1  0
  4  3  2  0
  5  6  2  0
  6  7  1  0
  8  5  1  0
  9  8  2  0
 10  9  1  0
 11 12  1  0
 11 10  2  0
 12 13  2  0
 13  8  1  0
 14 12  1  0
 15 20  2  0
 16 15  1  0
 17 18  1  0
 17 16  2  0
 18 19  2  0
 19  3  1  0
 19 20  1  0
  4 21  1  0
  6 22  1  0
  7 23  1  0
  9 24  1  0
 10 25  1  0
 14 26  1  0
 14 27  1  0
 15 28  1  0
 16 29  1  0
 17 30  1  0
M  ISO  8  21  14  22  14  23  14  24  14  25  14  28  14  29  14  30  14
M  END
>  <minimizedAffinity>  (1) 
-6.01774263

>  <minimizedRMSD>  (1) 
0.0170864332

$$$$
