
     RDKit          3D

 41 44  0  0  1  0  0  0  0  0999 V2000
   36.0160   30.2030   46.7830 C   0  0  0  0  0  0  0  0  0  0  0  0
   37.1510   30.3860   47.5580 C   0  0  0  0  0  0  0  0  0  0  0  0
   38.3640   30.7540   46.9790 C   0  0  0  0  0  0  0  0  0  0  0  0
   38.3690   30.9210   45.5990 C   0  0  0  0  0  0  0  0  0  0  0  0
   39.4070   31.2730   44.7940 N   0  0  0  0  0  0  0  0  0  0  0  0
   38.9470   31.3120   43.5460 C   0  0  0  0  0  0  0  0  0  0  0  0
   37.6600   30.9990   43.5300 N   0  0  0  0  0  0  0  0  0  0  0  0
   37.2520   30.7470   44.7900 C   0  0  0  0  0  0  0  0  0  0  0  0
   36.0600   30.3810   45.3990 C   0  0  0  0  0  0  0  0  0  0  0  0
   37.6970   30.3470   51.2710 C   0  0  0  0  0  0  0  0  0  0  0  0
   37.9450   30.6080   49.9280 C   0  0  0  0  0  0  0  0  0  0  0  0
   37.0120   30.1790   48.9890 C   0  0  0  0  0  0  0  0  0  0  0  0
   35.9040   29.5270   49.4450 N   0  0  0  0  0  0  0  0  0  0  0  0
   35.6910   29.2890   50.7620 C   0  0  0  0  0  0  0  0  0  0  0  0
   36.5860   29.7000   51.6590 N   0  0  0  0  0  0  0  0  0  0  0  0
   39.7510   31.6410   42.4520 O   0  0  0  0  0  0  0  0  0  0  0  0
   40.5050   29.3430   42.2880 C   0  0  1  0  0  0  0  0  0  0  0  0
   40.7550   30.7980   41.9610 C   0  0  1  0  0  0  0  0  0  0  0  0
   40.8520   30.9780   40.5880 O   0  0  0  0  0  0  0  0  0  0  0  0
   41.5200   29.9310   39.9760 C   0  0  0  0  0  0  0  0  0  0  0  0
   40.5880   28.7670   39.8530 C   0  0  2  0  0  0  0  0  0  0  0  0
   39.8040   28.6270   41.1410 C   0  0  2  0  0  0  0  0  0  0  0  0
   41.7260   28.7250   42.6110 O   0  0  0  0  0  0  0  0  0  0  0  0
   41.3240   27.6120   39.5900 O   0  0  0  0  0  0  0  0  0  0  0  0
   38.5410   29.2060   41.0270 O   0  0  0  0  0  0  0  0  0  0  0  0
   35.0699   29.9142   47.2642 H   0  0  0  0  0  0  0  0  0  0  0  0
   39.2709   30.9046   47.5830 H   0  0  0  0  0  0  0  0  0  0  0  0
   40.3716   31.4727   45.0949 H   0  0  0  0  0  0  0  0  0  0  0  0
   35.1536   30.2318   44.7938 H   0  0  0  0  0  0  0  0  0  0  0  0
   38.4233   30.6761   52.0287 H   0  0  0  0  0  0  0  0  0  0  0  0
   38.8557   31.1401   49.6157 H   0  0  0  0  0  0  0  0  0  0  0  0
   34.7839   28.7593   51.0886 H   0  0  0  0  0  0  0  0  0  0  0  0
   39.8321   29.2813   43.1560 H   0  0  0  0  0  0  0  0  0  0  0  0
   41.7017   31.0664   42.4527 H   0  0  0  0  0  0  0  0  0  0  0  0
   41.8563   30.2419   38.9759 H   0  0  0  0  0  0  0  0  0  0  0  0
   42.3955   29.6453   40.5775 H   0  0  0  0  0  0  0  0  0  0  0  0
   39.8828   28.9260   39.0239 H   0  0  0  0  0  0  0  0  0  0  0  0
   39.7245   27.5478   41.3388 H   0  0  0  0  0  0  0  0  0  0  0  0
   41.8213   28.6768   43.5952 H   0  0  0  0  0  0  0  0  0  0  0  0
   41.5927   27.1903   40.4444 H   0  0  0  0  0  0  0  0  0  0  0  0
   38.1726   29.3749   41.9303 H   0  0  0  0  0  0  0  0  0  0  0  0
  1  2  2  0
  2 12  1  0
  3  2  1  0
  4  3  2  0
  5  4  1  0
  6  5  1  0
  7  6  2  0
  7  8  1  0
  8  9  2  0
  8  4  1  0
  9  1  1  0
 10 15  2  0
 11 10  1  0
 12 13  1  0
 12 11  2  0
 13 14  2  0
 14 15  1  0
 16  6  1  0
 17 23  1  0
 18 17  1  0
 18 16  1  0
 19 18  1  0
 20 19  1  0
 21 24  1  0
 21 20  1  0
 21 22  1  0
 22 25  1  0
 22 17  1  0
  1 26  1  0
  3 27  1  0
  5 28  1  0
  9 29  1  0
 10 30  1  0
 11 31  1  0
 14 32  1  0
 17 33  1  1
 18 34  1  1
 20 35  1  0
 20 36  1  0
 21 37  1  6
 22 38  1  1
 23 39  1  0
 24 40  1  0
 25 41  1  0
M  ISO  8  26  14  27  14  28   9  29  14  30  14  31  14  32  14  33  13
M  ISO  8  34  13  35  13  36  13  37  13  38  13  39   3  40   3  41   3
M  END
>  <minimizedAffinity>  (1) 
-6.15777636

>  <minimizedRMSD>  (1) 
3.40456319

$$$$
