
     RDKit          3D

 34 37  0  0  0  0  0  0  0  0999 V2000
   36.1630   30.1900   46.8330 C   0  0  0  0  0  0  0  0  0  0  0  0
   37.0430   30.7390   47.7510 C   0  0  0  0  0  0  0  0  0  0  0  0
   38.0330   31.6150   47.3530 C   0  0  0  0  0  0  0  0  0  0  0  0
   38.0960   31.9140   45.9890 C   0  0  0  0  0  0  0  0  0  0  0  0
   38.9630   32.7360   45.3410 N   0  0  0  0  0  0  0  0  0  0  0  0
   38.6320   32.7010   44.0520 C   0  0  0  0  0  0  0  0  0  0  0  0
   37.5980   31.8980   43.8430 N   0  0  0  0  0  0  0  0  0  0  0  0
   37.2290   31.3810   45.0410 C   0  0  0  0  0  0  0  0  0  0  0  0
   36.2500   30.5050   45.4780 C   0  0  0  0  0  0  0  0  0  0  0  0
   37.5360   30.2110   51.4470 C   0  0  0  0  0  0  0  0  0  0  0  0
   37.8180   30.6330   50.1510 C   0  0  0  0  0  0  0  0  0  0  0  0
   36.8910   30.3620   49.1510 C   0  0  0  0  0  0  0  0  0  0  0  0
   35.7410   29.6880   49.4930 N   0  0  0  0  0  0  0  0  0  0  0  0
   35.5080   29.2970   50.7610 C   0  0  0  0  0  0  0  0  0  0  0  0
   36.3980   29.5570   51.7240 N   0  0  0  0  0  0  0  0  0  0  0  0
   39.3210   33.4350   43.0880 O   0  0  0  0  0  0  0  0  0  0  0  0
   40.5010   30.9080   41.9510 Cl  0  0  0  0  0  0  0  0  0  0  0  0
   39.4840   32.0370   41.0730 C   0  0  0  0  0  0  0  0  0  0  0  0
   39.0340   33.1460   41.7610 C   0  0  0  0  0  0  0  0  0  0  0  0
   38.2290   34.0430   41.0710 C   0  0  0  0  0  0  0  0  0  0  0  0
   37.8880   33.8400   39.7430 C   0  0  0  0  0  0  0  0  0  0  0  0
   38.3600   32.7190   39.0950 C   0  0  0  0  0  0  0  0  0  0  0  0
   37.9700   32.3940   37.4140 Cl  0  0  0  0  0  0  0  0  0  0  0  0
   39.1620   31.8060   39.7510 C   0  0  0  0  0  0  0  0  0  0  0  0
   35.3837   29.4949   47.1785 H   0  0  0  0  0  0  0  0  0  0  0  0
   38.7374   32.0559   48.0737 H   0  0  0  0  0  0  0  0  0  0  0  0
   39.7277   33.2804   45.7649 H   0  0  0  0  0  0  0  0  0  0  0  0
   35.5451   30.0603   44.7602 H   0  0  0  0  0  0  0  0  0  0  0  0
   38.2550   30.4162   52.2538 H   0  0  0  0  0  0  0  0  0  0  0  0
   38.7518   31.1680   49.9235 H   0  0  0  0  0  0  0  0  0  0  0  0
   34.5794   28.7604   51.0055 H   0  0  0  0  0  0  0  0  0  0  0  0
   37.8529   34.9363   41.5911 H   0  0  0  0  0  0  0  0  0  0  0  0
   37.2499   34.5631   39.2139 H   0  0  0  0  0  0  0  0  0  0  0  0
   39.5367   30.9125   39.2302 H   0  0  0  0  0  0  0  0  0  0  0  0
  1  2  2  0
  2 12  1  0
  3  2  1  0
  4  3  2  0
  5  4  1  0
  6  5  1  0
  7  6  2  0
  7  8  1  0
  8  9  2  0
  8  4  1  0
  9  1  1  0
 10 15  2  0
 11 10  1  0
 12 13  1  0
 12 11  2  0
 13 14  2  0
 14 15  1  0
 16  6  1  0
 18 19  2  0
 18 17  1  0
 19 16  1  0
 20 19  1  0
 21 20  2  0
 22 21  1  0
 22 24  2  0
 23 22  1  0
 24 18  1  0
  1 25  1  0
  3 26  1  0
  5 27  1  0
  9 28  1  0
 10 29  1  0
 11 30  1  0
 14 31  1  0
 20 32  1  0
 21 33  1  0
 24 34  1  0
M  ISO  8  25  14  26  14  27   9  28  14  29  14  30  14  31  14  32  14
M  ISO  2  33  14  34  14
M  END
>  <minimizedAffinity>  (1) 
-5.86084366

>  <minimizedRMSD>  (1) 
1.59507418

$$$$
