
     RDKit          3D

 34 37  0  0  0  0  0  0  0  0999 V2000
   35.9330   30.0750   46.9950 C   0  0  0  0  0  0  0  0  0  0  0  0
   36.8610   30.6280   47.8500 C   0  0  0  0  0  0  0  0  0  0  0  0
   37.8200   31.4860   47.3620 C   0  0  0  0  0  0  0  0  0  0  0  0
   37.8000   31.7560   45.9950 C   0  0  0  0  0  0  0  0  0  0  0  0
   38.6550   32.5770   45.2900 N   0  0  0  0  0  0  0  0  0  0  0  0
   38.2530   32.5250   44.0240 C   0  0  0  0  0  0  0  0  0  0  0  0
   37.1890   31.7150   43.8910 N   0  0  0  0  0  0  0  0  0  0  0  0
   36.8950   31.2280   45.1090 C   0  0  0  0  0  0  0  0  0  0  0  0
   35.9420   30.3670   45.6300 C   0  0  0  0  0  0  0  0  0  0  0  0
   37.5950   30.1730   51.5150 C   0  0  0  0  0  0  0  0  0  0  0  0
   37.7850   30.5640   50.1920 C   0  0  0  0  0  0  0  0  0  0  0  0
   36.7940   30.2790   49.2570 C   0  0  0  0  0  0  0  0  0  0  0  0
   35.6690   29.6220   49.6900 N   0  0  0  0  0  0  0  0  0  0  0  0
   35.5120   29.2530   50.9870 C   0  0  0  0  0  0  0  0  0  0  0  0
   36.4590   29.5250   51.8810 N   0  0  0  0  0  0  0  0  0  0  0  0
   38.9450   33.2690   43.0710 O   0  0  0  0  0  0  0  0  0  0  0  0
   37.8660   34.5460   40.8150 F   0  0  0  0  0  0  0  0  0  0  0  0
   38.6050   33.4520   40.6150 C   0  0  0  0  0  0  0  0  0  0  0  0
   39.1010   32.8790   41.7590 C   0  0  0  0  0  0  0  0  0  0  0  0
   39.8900   31.7270   41.6680 C   0  0  0  0  0  0  0  0  0  0  0  0
   40.1750   31.1580   40.4280 C   0  0  0  0  0  0  0  0  0  0  0  0
   39.6470   31.7810   39.2960 C   0  0  0  0  0  0  0  0  0  0  0  0
   38.8680   32.9150   39.3710 C   0  0  0  0  0  0  0  0  0  0  0  0
   35.1707   29.3905   47.3955 H   0  0  0  0  0  0  0  0  0  0  0  0
   38.5718   31.9402   48.0241 H   0  0  0  0  0  0  0  0  0  0  0  0
   39.4445   33.1201   45.6677 H   0  0  0  0  0  0  0  0  0  0  0  0
   35.1913   29.9129   44.9666 H   0  0  0  0  0  0  0  0  0  0  0  0
   38.3682   30.3899   52.2667 H   0  0  0  0  0  0  0  0  0  0  0  0
   38.7032   31.0895   49.8908 H   0  0  0  0  0  0  0  0  0  0  0  0
   34.5981   28.7270   51.3000 H   0  0  0  0  0  0  0  0  0  0  0  0
   40.2890   31.2662   42.5836 H   0  0  0  0  0  0  0  0  0  0  0  0
   40.7929   30.2518   40.3446 H   0  0  0  0  0  0  0  0  0  0  0  0
   39.8609   31.3504   38.3067 H   0  0  0  0  0  0  0  0  0  0  0  0
   38.4648   33.3818   38.4602 H   0  0  0  0  0  0  0  0  0  0  0  0
  1  2  2  0
  2 12  1  0
  3  2  1  0
  4  3  2  0
  5  4  1  0
  6  5  1  0
  7  6  2  0
  7  8  1  0
  8  9  2  0
  8  4  1  0
  9  1  1  0
 10 15  2  0
 11 10  1  0
 12 13  1  0
 12 11  2  0
 13 14  2  0
 14 15  1  0
 16  6  1  0
 18 17  1  0
 18 19  2  0
 19 16  1  0
 20 19  1  0
 21 20  2  0
 22 23  2  0
 22 21  1  0
 23 18  1  0
  1 24  1  0
  3 25  1  0
  5 26  1  0
  9 27  1  0
 10 28  1  0
 11 29  1  0
 14 30  1  0
 20 31  1  0
 21 32  1  0
 22 33  1  0
 23 34  1  0
M  ISO  8  24  14  25  14  26   9  27  14  28  14  29  14  30  14  31  14
M  ISO  3  32  14  33  14  34  14
M  END
>  <minimizedAffinity>  (1) 
-5.59525061

>  <minimizedRMSD>  (1) 
2.09334826

$$$$
