
     RDKit          3D

 30 33  0  0  0  0  0  0  0  0999 V2000
   36.2240   30.1990   46.8500 C   0  0  0  0  0  0  0  0  0  0  0  0
   37.0890   30.7620   47.7940 C   0  0  0  0  0  0  0  0  0  0  0  0
   38.0700   31.6470   47.4090 C   0  0  0  0  0  0  0  0  0  0  0  0
   38.1460   31.9430   46.0390 C   0  0  0  0  0  0  0  0  0  0  0  0
   39.0360   32.7880   45.4400 N   0  0  0  0  0  0  0  0  0  0  0  0
   38.7460   32.7670   44.1430 C   0  0  0  0  0  0  0  0  0  0  0  0
   37.7130   31.9450   43.8940 N   0  0  0  0  0  0  0  0  0  0  0  0
   37.3180   31.4130   45.0830 C   0  0  0  0  0  0  0  0  0  0  0  0
   36.3340   30.5210   45.5000 C   0  0  0  0  0  0  0  0  0  0  0  0
   37.5140   30.1750   51.4840 C   0  0  0  0  0  0  0  0  0  0  0  0
   37.7960   30.5990   50.1900 C   0  0  0  0  0  0  0  0  0  0  0  0
   36.8880   30.3600   49.1730 C   0  0  0  0  0  0  0  0  0  0  0  0
   35.7390   29.7050   49.5050 N   0  0  0  0  0  0  0  0  0  0  0  0
   35.4770   29.2960   50.7720 C   0  0  0  0  0  0  0  0  0  0  0  0
   36.3480   29.5270   51.7400 N   0  0  0  0  0  0  0  0  0  0  0  0
   39.4400   33.5090   43.1820 O   0  0  0  0  0  0  0  0  0  0  0  0
   39.0910   33.2890   41.8560 C   0  0  0  0  0  0  0  0  0  0  0  0
   38.3540   34.1040   41.0830 N   0  0  0  0  0  0  0  0  0  0  0  0
   38.2160   33.5710   39.8490 C   0  0  0  0  0  0  0  0  0  0  0  0
   38.9000   32.3900   39.8950 N   0  0  0  0  0  0  0  0  0  0  0  0
   39.4180   32.2280   41.0890 N   0  0  0  0  0  0  0  0  0  0  0  0
   35.4470   29.4929   47.1784 H   0  0  0  0  0  0  0  0  0  0  0  0
   38.7591   32.0992   48.1374 H   0  0  0  0  0  0  0  0  0  0  0  0
   39.7806   33.3312   45.8998 H   0  0  0  0  0  0  0  0  0  0  0  0
   35.6471   30.0730   44.7669 H   0  0  0  0  0  0  0  0  0  0  0  0
   38.2316   30.3634   52.2962 H   0  0  0  0  0  0  0  0  0  0  0  0
   38.7388   31.1233   49.9750 H   0  0  0  0  0  0  0  0  0  0  0  0
   34.5367   28.7704   50.9948 H   0  0  0  0  0  0  0  0  0  0  0  0
   37.6710   33.9961   38.9933 H   0  0  0  0  0  0  0  0  0  0  0  0
   38.9946   31.7277   39.1118 H   0  0  0  0  0  0  0  0  0  0  0  0
  1  2  2  0
  2 12  1  0
  3  2  1  0
  4  3  2  0
  5  4  1  0
  6  5  1  0
  7  6  2  0
  7  8  1  0
  8  9  2  0
  8  4  1  0
  9  1  1  0
 10 15  2  0
 11 10  1  0
 12 13  1  0
 12 11  2  0
 13 14  2  0
 14 15  1  0
 16  6  1  0
 17 16  1  0
 18 17  1  0
 19 20  1  0
 19 18  2  0
 20 21  1  0
 21 17  2  0
  1 22  1  0
  3 23  1  0
  5 24  1  0
  9 25  1  0
 10 26  1  0
 11 27  1  0
 14 28  1  0
 19 29  1  0
 20 30  1  0
M  ISO  8  22  14  23  14  24   9  25  14  26  14  27  14  28  14  29  14
M  ISO  1  30   9
M  END
>  <minimizedAffinity>  (1) 
-5.57973289

>  <minimizedRMSD>  (1) 
1.26999533

$$$$
