
     RDKit          3D

 30 33  0  0  0  0  0  0  0  0999 V2000
   36.1050   30.1640   46.9310 C   0  0  0  0  0  0  0  0  0  0  0  0
   36.9740   30.6960   47.8630 C   0  0  0  0  0  0  0  0  0  0  0  0
   37.9650   31.5620   47.4620 C   0  0  0  0  0  0  0  0  0  0  0  0
   38.0340   31.8610   46.1000 C   0  0  0  0  0  0  0  0  0  0  0  0
   38.9340   32.6930   45.4820 N   0  0  0  0  0  0  0  0  0  0  0  0
   38.6220   32.6730   44.1910 C   0  0  0  0  0  0  0  0  0  0  0  0
   37.5760   31.8760   43.9570 N   0  0  0  0  0  0  0  0  0  0  0  0
   37.1770   31.3450   45.1390 C   0  0  0  0  0  0  0  0  0  0  0  0
   36.1910   30.4750   45.5830 C   0  0  0  0  0  0  0  0  0  0  0  0
   37.4360   30.1430   51.5500 C   0  0  0  0  0  0  0  0  0  0  0  0
   37.7270   30.5690   50.2580 C   0  0  0  0  0  0  0  0  0  0  0  0
   36.8030   30.3110   49.2520 C   0  0  0  0  0  0  0  0  0  0  0  0
   35.6450   29.6470   49.5830 N   0  0  0  0  0  0  0  0  0  0  0  0
   35.3940   29.2470   50.8540 C   0  0  0  0  0  0  0  0  0  0  0  0
   36.2760   29.4910   51.8210 N   0  0  0  0  0  0  0  0  0  0  0  0
   39.3230   33.4050   43.2360 O   0  0  0  0  0  0  0  0  0  0  0  0
   39.0650   33.2290   41.8820 C   0  0  0  0  0  0  0  0  0  0  0  0
   39.5850   32.0230   41.2900 C   0  0  0  0  0  0  0  0  0  0  0  0
   39.0090   32.2110   39.4970 S   0  0  0  0  0  0  0  0  0  0  0  0
   38.1940   33.8690   39.9310 C   0  0  0  0  0  0  0  0  0  0  0  0
   38.4000   34.0190   41.0350 N   0  0  0  0  0  0  0  0  0  0  0  0
   35.3199   29.4717   47.2690 H   0  0  0  0  0  0  0  0  0  0  0  0
   38.6717   31.9994   48.1826 H   0  0  0  0  0  0  0  0  0  0  0  0
   39.6955   33.2241   45.9281 H   0  0  0  0  0  0  0  0  0  0  0  0
   35.4807   30.0341   44.8681 H   0  0  0  0  0  0  0  0  0  0  0  0
   38.1535   30.3364   52.3610 H   0  0  0  0  0  0  0  0  0  0  0  0
   38.6662   31.0976   50.0377 H   0  0  0  0  0  0  0  0  0  0  0  0
   34.4578   28.7187   51.0871 H   0  0  0  0  0  0  0  0  0  0  0  0
   40.1622   31.2105   41.7554 H   0  0  0  0  0  0  0  0  0  0  0  0
   37.6411   34.5394   39.2566 H   0  0  0  0  0  0  0  0  0  0  0  0
  1  2  2  0
  2 12  1  0
  3  2  1  0
  4  3  2  0
  5  4  1  0
  6  5  1  0
  7  6  2  0
  7  8  1  0
  8  9  2  0
  8  4  1  0
  9  1  1  0
 10 15  2  0
 11 10  1  0
 12 13  1  0
 12 11  2  0
 13 14  2  0
 14 15  1  0
 16  6  1  0
 17 16  1  0
 18 17  2  0
 19 20  1  0
 19 18  1  0
 20 21  2  0
 21 17  1  0
  1 22  1  0
  3 23  1  0
  5 24  1  0
  9 25  1  0
 10 26  1  0
 11 27  1  0
 14 28  1  0
 18 29  1  0
 20 30  1  0
M  ISO  8  22  14  23  14  24   9  25  14  26  14  27  14  28  14  29  14
M  ISO  1  30  14
M  END
>  <minimizedAffinity>  (1) 
-5.5243659

>  <minimizedRMSD>  (1) 
1.38874936

$$$$
