REMARK  Name = 
REMARK  2 active torsions:
REMARK  status: ('A' for Active; 'I' for Inactive)
REMARK    1  A    between atoms: N_1  and  C_9
REMARK    2  A    between atoms: C_6  and  C_13
REMARK                            x       y       z     vdW  Elec       q    Type
REMARK                         _______ _______ _______ _____ _____    ______ ____
ROOT
ATOM      1  N   UNL     1      46.056  34.308  41.520  0.00  0.00    +0.000 N 
ATOM      2  C   UNL     1      45.093  34.077  40.477  0.00  0.00    +0.000 C 
ATOM      3  C   UNL     1      45.669  33.236  39.364  0.00  0.00    +0.000 C 
ATOM      4  N   UNL     1      46.915  33.727  38.855  0.00  0.00    +0.000 NA
ATOM      5  C   UNL     1      47.814  34.260  39.816  0.00  0.00    +0.000 C 
ATOM      6  C   UNL     1      47.459  34.183  41.257  0.00  0.00    +0.000 C 
ATOM      7  H   UNL     1      44.262  33.472  40.926  0.00  0.00    +0.000 HD
ATOM      8  H   UNL     1      44.682  34.989  40.039  0.00  0.00    +0.000 HD
ATOM      9  H   UNL     1      45.865  32.228  39.801  0.00  0.00    +0.000 HD
ATOM     10  H   UNL     1      44.926  33.142  38.571  0.00  0.00    +0.000 HD
ATOM     11  H   UNL     1      46.678  34.394  38.087  0.00  0.00    +0.000 HD
ATOM     12  H   UNL     1      47.991  35.322  39.546  0.00  0.00    +0.000 HD
ATOM     13  H   UNL     1      48.786  33.737  39.686  0.00  0.00    +0.000 HD
ATOM     14  H   UNL     1      47.867  33.251  41.694  0.00  0.00    +0.000 HD
ENDROOT
BRANCH   1  17
ATOM     15  C   UNL     1      44.581  36.049  44.493  0.00  0.00    +0.000 A 
ATOM     16  C   UNL     1      44.965  35.820  43.175  0.00  0.00    +0.000 A 
ATOM     17  C   UNL     1      45.617  34.654  42.825  0.00  0.00    +0.000 A 
ATOM     18  N   UNL     1      45.834  33.790  43.864  0.00  0.00    +0.000 NA
ATOM     19  C   UNL     1      45.460  34.017  45.136  0.00  0.00    +0.000 A 
ATOM     20  N   UNL     1      44.831  35.153  45.448  0.00  0.00    +0.000 NA
ATOM     21  H   UNL     1      44.070  37.005  44.665  0.00  0.00    +0.000 HD
ATOM     22  H   UNL     1      44.782  36.517  42.374  0.00  0.00    +0.000 HD
ATOM     23  H   UNL     1      45.677  33.274  45.884  0.00  0.00    +0.000 HD
ENDBRANCH   1  17
BRANCH   6  24
ATOM     24  C   UNL     1      48.153  35.323  41.945  0.00  0.00    +0.000 C 
ATOM     25  O   UNL     1      49.012  36.056  41.407  0.00  0.00    +0.000 OA
ATOM     26  N   UNL     1      48.021  35.814  43.276  0.00  0.00    +0.000 N 
ATOM     27  H   UNL     1      47.913  36.852  43.325  0.00  0.00    +0.000 HD
ATOM     28  H   UNL     1      48.030  35.199  44.123  0.00  0.00    +0.000 HD
ENDBRANCH   6  24
TORSDOF 2
