
 OpenBabel03242519433D

 28 29  0  0  1  0  0  0  0  0999 V2000
   45.7560   34.1480   41.6610 N   0  0  0  0  0  0  0  0  0  0  0  0
   44.7530   34.2190   40.6330 C   0  0  0  0  0  0  0  0  0  0  0  0
   45.1000   33.3410   39.4550 C   0  0  0  0  0  0  0  0  0  0  0  0
   46.4200   33.5560   38.9430 N   0  0  0  0  0  0  0  0  0  0  0  0
   47.4320   33.7990   39.9100 C   0  0  0  0  0  0  0  0  0  0  0  0
   47.0860   33.7130   41.3530 C   0  0  1  0  0  0  0  0  0  0  0  0
   43.8080   33.7990   41.0670 H   0  0  0  0  0  0  0  0  0  0  0  0
   44.5650   35.2290   40.2620 H   0  0  0  0  0  0  0  0  0  0  0  0
   45.0570   32.2880   39.8250 H   0  0  0  0  0  0  0  0  0  0  0  0
   44.3460   33.4760   38.6790 H   0  0  0  0  0  0  0  0  0  0  0  0
   46.3390   34.3090   38.2240 H   0  0  0  0  0  0  0  0  0  0  0  0
   47.8520   34.8040   39.7000 H   0  0  0  0  0  0  0  0  0  0  0  0
   48.2500   33.0710   39.7220 H   0  0  0  0  0  0  0  0  0  0  0  0
   47.2670   32.6850   41.7210 H   0  0  0  0  0  0  0  0  0  0  0  0
   44.5430   35.9100   44.7380 C   0  0  0  0  0  0  0  0  0  0  0  0
   44.8170   35.6740   43.3940 C   0  0  0  0  0  0  0  0  0  0  0  0
   45.4280   34.5010   42.9960 C   0  0  0  0  0  0  0  0  0  0  0  0
   45.7210   33.6390   44.0170 N   0  0  0  0  0  0  0  0  0  0  0  0
   45.4540   33.8720   45.3150 C   0  0  0  0  0  0  0  0  0  0  0  0
   44.8620   35.0150   45.6730 N   0  0  0  0  0  0  0  0  0  0  0  0
   44.0560   36.8710   44.9470 H   0  0  0  0  0  0  0  0  0  0  0  0
   44.5750   36.3710   42.6080 H   0  0  0  0  0  0  0  0  0  0  0  0
   45.7250   33.1300   46.0450 H   0  0  0  0  0  0  0  0  0  0  0  0
   48.0390   34.6100   42.0890 C   0  0  0  0  0  0  0  0  0  0  0  0
   48.3330   35.7730   41.7340 O   0  0  0  0  0  0  0  0  0  0  0  0
   48.7890   34.3800   43.2780 N   0  0  0  0  0  0  0  0  0  0  0  0
   49.8190   34.5010   43.1480 H   0  0  0  0  0  0  0  0  0  0  0  0
   48.3550   34.1140   44.1930 H   0  0  0  0  0  0  0  0  0  0  0  0
  1 17  1  0  0  0  0
  2  7  1  0  0  0  0
  2  1  1  0  0  0  0
  3  9  1  0  0  0  0
  3  2  1  0  0  0  0
  4  3  1  0  0  0  0
  4  5  1  0  0  0  0
  5  6  1  0  0  0  0
  6  1  1  0  0  0  0
  6 14  1  1  0  0  0
  6 24  1  0  0  0  0
  8  2  1  0  0  0  0
 10  3  1  0  0  0  0
 11  4  1  0  0  0  0
 12  5  1  0  0  0  0
 13  5  1  0  0  0  0
 15 21  1  0  0  0  0
 15 20  1  0  0  0  0
 16 15  2  0  0  0  0
 17 16  1  0  0  0  0
 17 18  2  0  0  0  0
 18 19  1  0  0  0  0
 19 20  2  0  0  0  0
 19 23  1  0  0  0  0
 22 16  1  0  0  0  0
 24 26  1  0  0  0  0
 25 24  2  0  0  0  0
 26 28  1  0  0  0  0
 27 26  1  0  0  0  0
M  END
>  <minimizedAffinity>
-4.59435081

>  <minimizedRMSD>
0.629050374

$$$$
