
 OpenBabel03242523563D

 39 41  0  0  1  0  0  0  0  0999 V2000
   38.7840   31.5240   40.0120 C   0  0  1  0  0  0  0  0  0  0  0  0
   39.6570   32.2800   41.0030 C   0  0  1  0  0  0  0  0  0  0  0  0
   39.1200   33.5670   41.1760 O   0  0  0  0  0  0  0  0  0  0  0  0
   38.5770   34.0870   39.9980 C   0  0  0  0  0  0  0  0  0  0  0  0
   37.3200   33.3520   39.5810 C   0  0  2  0  0  0  0  0  0  0  0  0
   37.3760   31.9450   40.2840 C   0  0  1  0  0  0  0  0  0  0  0  0
   38.9550   30.4380   40.1680 H   0  0  0  0  0  0  0  0  0  0  0  0
   40.7120   32.3270   40.7040 H   0  0  0  0  0  0  0  0  0  0  0  0
   39.3160   34.1510   39.1770 H   0  0  0  0  0  0  0  0  0  0  0  0
   38.2860   35.1240   40.2570 H   0  0  0  0  0  0  0  0  0  0  0  0
   36.4020   33.8730   39.8970 H   0  0  0  0  0  0  0  0  0  0  0  0
   37.2570   32.3550   41.3380 H   0  0  0  0  0  0  0  0  0  0  0  0
   39.1500   31.8340   38.6940 O   0  0  0  0  0  0  0  0  0  0  0  0
   39.5820   31.0760   38.2670 H   0  0  0  0  0  0  0  0  0  0  0  0
   37.3650   33.0840   38.2230 O   0  0  0  0  0  0  0  0  0  0  0  0
   36.4650   32.8930   37.8420 H   0  0  0  0  0  0  0  0  0  0  0  0
   39.4340   31.6520   42.2410 O   0  0  0  0  0  0  0  0  0  0  0  0
   39.7340   30.3780   42.5210 C   0  0  0  0  0  0  0  0  0  0  0  0
   38.7320   29.4570   42.8530 C   0  0  0  0  0  0  0  0  0  0  0  0
   39.0990   28.1510   43.1320 C   0  0  0  0  0  0  0  0  0  0  0  0
   40.4330   27.7950   43.0750 N   0  0  0  0  0  0  0  0  0  0  0  0
   41.3750   28.7130   42.7500 C   0  0  0  0  0  0  0  0  0  0  0  0
   41.0280   29.9970   42.4740 N   0  0  0  0  0  0  0  0  0  0  0  0
   37.6890   29.7570   42.8930 H   0  0  0  0  0  0  0  0  0  0  0  0
   42.4170   28.4240   42.7080 H   0  0  0  0  0  0  0  0  0  0  0  0
   38.0880   27.1170   43.5130 C   0  0  0  0  0  0  0  0  0  0  0  0
   36.6460   27.5920   43.6780 C   0  0  0  0  0  0  0  0  0  0  0  0
   37.1310   26.6400   42.5650 C   0  0  0  0  0  0  0  0  0  0  0  0
   38.4330   26.5140   44.3830 H   0  0  0  0  0  0  0  0  0  0  0  0
   36.3640   28.5940   43.3070 H   0  0  0  0  0  0  0  0  0  0  0  0
   36.0190   27.1120   44.4600 H   0  0  0  0  0  0  0  0  0  0  0  0
   36.7800   25.5790   42.6550 H   0  0  0  0  0  0  0  0  0  0  0  0
   37.1440   27.0320   41.5310 H   0  0  0  0  0  0  0  0  0  0  0  0
   36.3990   31.1910   39.7500 O   0  0  0  0  0  0  0  0  0  0  0  0
   35.9590   29.9760   40.1510 C   0  0  0  0  0  0  0  0  0  0  0  0
   36.6060   28.8730   39.8780 O   0  0  0  0  0  0  0  0  0  0  0  0
   34.9400   29.2450   40.8540 N   0  0  0  0  0  0  0  0  0  0  0  0
   35.0360   29.1470   41.8890 H   0  0  0  0  0  0  0  0  0  0  0  0
   34.0920   28.7980   40.3930 H   0  0  0  0  0  0  0  0  0  0  0  0
  1  7  1  1  0  0  0
  1  6  1  0  0  0  0
  1  2  1  0  0  0  0
  2  8  1  6  0  0  0
  2  3  1  0  0  0  0
  2 17  1  0  0  0  0
  4 10  1  0  0  0  0
  4  3  1  0  0  0  0
  5 11  1  1  0  0  0
  5  4  1  0  0  0  0
  5  6  1  0  0  0  0
  6 12  1  1  0  0  0
  9  4  1  0  0  0  0
 13  1  1  0  0  0  0
 14 13  1  0  0  0  0
 15  5  1  0  0  0  0
 16 15  1  0  0  0  0
 17 18  1  0  0  0  0
 18 19  1  0  0  0  0
 19 24  1  0  0  0  0
 19 20  2  0  0  0  0
 20 26  1  0  0  0  0
 21 20  1  0  0  0  0
 22 21  2  0  0  0  0
 23 18  2  0  0  0  0
 23 22  1  0  0  0  0
 25 22  1  0  0  0  0
 26 27  1  0  0  0  0
 26 29  1  0  0  0  0
 27 31  1  0  0  0  0
 28 32  1  0  0  0  0
 28 26  1  0  0  0  0
 28 27  1  0  0  0  0
 30 27  1  0  0  0  0
 33 28  1  0  0  0  0
 34 35  1  0  0  0  0
 34  6  1  0  0  0  0
 35 37  1  0  0  0  0
 36 35  2  0  0  0  0
 37 38  1  0  0  0  0
 39 37  1  0  0  0  0
M  END
>  <minimizedAffinity>
-5.66316271

$$$$

 OpenBabel03242523563D

 39 41  0  0  1  0  0  0  0  0999 V2000
   39.6380   30.8600   40.4450 C   0  0  1  0  0  0  0  0  0  0  0  0
   40.8970   30.7130   41.2870 C   0  0  1  0  0  0  0  0  0  0  0  0
   41.4950   31.9790   41.4190 O   0  0  0  0  0  0  0  0  0  0  0  0
   41.3670   32.7560   40.2650 C   0  0  0  0  0  0  0  0  0  0  0  0
   39.9330   33.1860   40.0280 C   0  0  2  0  0  0  0  0  0  0  0  0
   39.0300   32.1720   40.8220 C   0  0  1  0  0  0  0  0  0  0  0  0
   38.9810   29.9920   40.6620 H   0  0  0  0  0  0  0  0  0  0  0  0
   41.6070   29.9790   40.8840 H   0  0  0  0  0  0  0  0  0  0  0  0
   41.8120   32.2770   39.3730 H   0  0  0  0  0  0  0  0  0  0  0  0
   41.9570   33.6690   40.4760 H   0  0  0  0  0  0  0  0  0  0  0  0
   39.7320   34.2070   40.3930 H   0  0  0  0  0  0  0  0  0  0  0  0
   39.3750   32.5150   41.8500 H   0  0  0  0  0  0  0  0  0  0  0  0
   39.9530   30.8330   39.0790 O   0  0  0  0  0  0  0  0  0  0  0  0
   39.6400   30.0110   38.6670 H   0  0  0  0  0  0  0  0  0  0  0  0
   39.6050   33.0020   38.6950 O   0  0  0  0  0  0  0  0  0  0  0  0
   38.8140   33.5390   38.4190 H   0  0  0  0  0  0  0  0  0  0  0  0
   40.4380   30.4210   42.5840 O   0  0  0  0  0  0  0  0  0  0  0  0
   39.6940   29.3580   42.9140 C   0  0  0  0  0  0  0  0  0  0  0  0
   40.2790   28.1000   43.1100 C   0  0  0  0  0  0  0  0  0  0  0  0
   39.4620   27.0360   43.4520 C   0  0  0  0  0  0  0  0  0  0  0  0
   38.1020   27.2420   43.5900 N   0  0  0  0  0  0  0  0  0  0  0  0
   37.5710   28.4730   43.3920 C   0  0  0  0  0  0  0  0  0  0  0  0
   38.3630   29.5250   43.0570 N   0  0  0  0  0  0  0  0  0  0  0  0
   41.3500   27.9600   42.9970 H   0  0  0  0  0  0  0  0  0  0  0  0
   36.5060   28.6240   43.5020 H   0  0  0  0  0  0  0  0  0  0  0  0
   40.0120   25.6610   43.6600 C   0  0  0  0  0  0  0  0  0  0  0  0
   39.9430   24.7050   42.4710 C   0  0  0  0  0  0  0  0  0  0  0  0
   41.2500   25.2660   43.0670 C   0  0  0  0  0  0  0  0  0  0  0  0
   39.6100   25.2010   44.5920 H   0  0  0  0  0  0  0  0  0  0  0  0
   39.7070   25.1090   41.4690 H   0  0  0  0  0  0  0  0  0  0  0  0
   39.7650   23.6260   42.6720 H   0  0  0  0  0  0  0  0  0  0  0  0
   41.8860   24.5220   43.6140 H   0  0  0  0  0  0  0  0  0  0  0  0
   41.8180   25.9910   42.4540 H   0  0  0  0  0  0  0  0  0  0  0  0
   37.7580   32.3860   40.4440 O   0  0  0  0  0  0  0  0  0  0  0  0
   36.7080   31.5330   40.4940 C   0  0  0  0  0  0  0  0  0  0  0  0
   36.2710   30.8990   39.4370 O   0  0  0  0  0  0  0  0  0  0  0  0
   35.7080   30.9160   41.3210 N   0  0  0  0  0  0  0  0  0  0  0  0
   35.9690   30.0490   41.8400 H   0  0  0  0  0  0  0  0  0  0  0  0
   34.7170   31.2850   41.4440 H   0  0  0  0  0  0  0  0  0  0  0  0
  1  7  1  1  0  0  0
  1  6  1  0  0  0  0
  1  2  1  0  0  0  0
  2  8  1  6  0  0  0
  2  3  1  0  0  0  0
  2 17  1  0  0  0  0
  4 10  1  0  0  0  0
  4  3  1  0  0  0  0
  5  4  1  0  0  0  0
  5 11  1  1  0  0  0
  5  6  1  0  0  0  0
  6 12  1  1  0  0  0
  9  4  1  0  0  0  0
 13  1  1  0  0  0  0
 14 13  1  0  0  0  0
 15  5  1  0  0  0  0
 16 15  1  0  0  0  0
 17 18  1  0  0  0  0
 18 23  2  0  0  0  0
 18 19  1  0  0  0  0
 19 20  2  0  0  0  0
 20 21  1  0  0  0  0
 20 26  1  0  0  0  0
 22 25  1  0  0  0  0
 22 21  2  0  0  0  0
 23 22  1  0  0  0  0
 24 19  1  0  0  0  0
 26 29  1  0  0  0  0
 27 31  1  0  0  0  0
 27 28  1  0  0  0  0
 27 26  1  0  0  0  0
 28 32  1  0  0  0  0
 28 26  1  0  0  0  0
 30 27  1  0  0  0  0
 33 28  1  0  0  0  0
 34 35  1  0  0  0  0
 34  6  1  0  0  0  0
 35 37  1  0  0  0  0
 36 35  2  0  0  0  0
 37 39  1  0  0  0  0
 37 38  1  0  0  0  0
M  END
>  <minimizedAffinity>
-5.60549736

$$$$

 OpenBabel03242523563D

 39 41  0  0  1  0  0  0  0  0999 V2000
   39.0570   30.4620   38.5920 C   0  0  1  0  0  0  0  0  0  0  0  0
   40.0180   29.3150   38.8700 C   0  0  1  0  0  0  0  0  0  0  0  0
   41.3200   29.7390   38.5520 O   0  0  0  0  0  0  0  0  0  0  0  0
   41.3530   30.5850   37.4400 C   0  0  0  0  0  0  0  0  0  0  0  0
   40.7230   31.9310   37.7340 C   0  0  2  0  0  0  0  0  0  0  0  0
   39.7750   31.7160   38.9710 C   0  0  1  0  0  0  0  0  0  0  0  0
   38.1360   30.2870   39.1870 H   0  0  0  0  0  0  0  0  0  0  0  0
   39.7590   28.3920   38.3370 H   0  0  0  0  0  0  0  0  0  0  0  0
   40.9320   30.1160   36.5310 H   0  0  0  0  0  0  0  0  0  0  0  0
   42.4300   30.7560   37.2510 H   0  0  0  0  0  0  0  0  0  0  0  0
   41.4700   32.7020   37.9850 H   0  0  0  0  0  0  0  0  0  0  0  0
   40.6180   31.5110   39.7070 H   0  0  0  0  0  0  0  0  0  0  0  0
   38.6970   30.4870   37.2370 O   0  0  0  0  0  0  0  0  0  0  0  0
   37.7700   30.2210   37.1190 H   0  0  0  0  0  0  0  0  0  0  0  0
   39.8860   32.2930   36.6910 O   0  0  0  0  0  0  0  0  0  0  0  0
   39.6950   33.2690   36.6750 H   0  0  0  0  0  0  0  0  0  0  0  0
   40.0380   29.1870   40.2710 O   0  0  0  0  0  0  0  0  0  0  0  0
   39.0100   28.7700   41.0190 C   0  0  0  0  0  0  0  0  0  0  0  0
   38.6500   27.4160   41.0620 C   0  0  0  0  0  0  0  0  0  0  0  0
   37.5780   27.0410   41.8540 C   0  0  0  0  0  0  0  0  0  0  0  0
   36.8990   28.0040   42.5770 N   0  0  0  0  0  0  0  0  0  0  0  0
   37.2750   29.3040   42.5100 C   0  0  0  0  0  0  0  0  0  0  0  0
   38.3250   29.6850   41.7370 N   0  0  0  0  0  0  0  0  0  0  0  0
   39.1970   26.6760   40.4870 H   0  0  0  0  0  0  0  0  0  0  0  0
   36.7360   30.0500   43.0790 H   0  0  0  0  0  0  0  0  0  0  0  0
   37.1240   25.6190   41.9360 C   0  0  0  0  0  0  0  0  0  0  0  0
   37.3060   24.7650   40.6830 C   0  0  0  0  0  0  0  0  0  0  0  0
   38.0670   24.5480   42.0070 C   0  0  0  0  0  0  0  0  0  0  0  0
   36.0920   25.5470   42.3470 H   0  0  0  0  0  0  0  0  0  0  0  0
   37.9460   25.1410   39.8640 H   0  0  0  0  0  0  0  0  0  0  0  0
   36.5390   23.9930   40.4560 H   0  0  0  0  0  0  0  0  0  0  0  0
   37.7820   23.6270   42.5790 H   0  0  0  0  0  0  0  0  0  0  0  0
   39.1500   24.7740   42.0130 H   0  0  0  0  0  0  0  0  0  0  0  0
   39.0330   32.8290   39.1060 O   0  0  0  0  0  0  0  0  0  0  0  0
   37.8040   32.9600   39.6570 C   0  0  0  0  0  0  0  0  0  0  0  0
   37.0320   33.9860   39.4100 O   0  0  0  0  0  0  0  0  0  0  0  0
   36.8150   32.3810   40.5250 N   0  0  0  0  0  0  0  0  0  0  0  0
   36.1580   31.6800   40.1190 H   0  0  0  0  0  0  0  0  0  0  0  0
   36.7080   32.6170   41.5570 H   0  0  0  0  0  0  0  0  0  0  0  0
  1  2  1  0  0  0  0
  1  6  1  0  0  0  0
  1  7  1  1  0  0  0
  2  8  1  6  0  0  0
  2 17  1  0  0  0  0
  3  2  1  0  0  0  0
  4  5  1  0  0  0  0
  4  3  1  0  0  0  0
  5 11  1  1  0  0  0
  5  6  1  0  0  0  0
  6 34  1  0  0  0  0
  6 12  1  1  0  0  0
  9  4  1  0  0  0  0
 10  4  1  0  0  0  0
 13  1  1  0  0  0  0
 14 13  1  0  0  0  0
 15  5  1  0  0  0  0
 16 15  1  0  0  0  0
 17 18  1  0  0  0  0
 18 19  2  0  0  0  0
 18 23  1  0  0  0  0
 19 20  1  0  0  0  0
 20 26  1  0  0  0  0
 20 21  2  0  0  0  0
 22 21  1  0  0  0  0
 22 25  1  0  0  0  0
 23 22  2  0  0  0  0
 24 19  1  0  0  0  0
 26 28  1  0  0  0  0
 26 29  1  0  0  0  0
 27 26  1  0  0  0  0
 27 28  1  0  0  0  0
 28 33  1  0  0  0  0
 28 32  1  0  0  0  0
 30 27  1  0  0  0  0
 31 27  1  0  0  0  0
 34 35  1  0  0  0  0
 35 37  1  0  0  0  0
 36 35  2  0  0  0  0
 37 39  1  0  0  0  0
 38 37  1  0  0  0  0
M  END
>  <minimizedAffinity>
-5.52668238

$$$$

 OpenBabel03242523563D

 39 41  0  0  1  0  0  0  0  0999 V2000
   38.4730   29.7310   37.7950 C   0  0  1  0  0  0  0  0  0  0  0  0
   38.5650   29.7540   39.3140 C   0  0  1  0  0  0  0  0  0  0  0  0
   38.3430   31.0700   39.7540 O   0  0  0  0  0  0  0  0  0  0  0  0
   38.8800   32.0250   38.8860 C   0  0  0  0  0  0  0  0  0  0  0  0
   38.1320   32.0780   37.5700 C   0  0  2  0  0  0  0  0  0  0  0  0
   37.3930   30.6960   37.4250 C   0  0  1  0  0  0  0  0  0  0  0  0
   38.2570   28.6890   37.4830 H   0  0  0  0  0  0  0  0  0  0  0  0
   39.5160   29.3620   39.6980 H   0  0  0  0  0  0  0  0  0  0  0  0
   39.9710   31.9090   38.7420 H   0  0  0  0  0  0  0  0  0  0  0  0
   38.7180   32.9920   39.4000 H   0  0  0  0  0  0  0  0  0  0  0  0
   37.3850   32.8880   37.5410 H   0  0  0  0  0  0  0  0  0  0  0  0
   36.6760   30.8760   38.2880 H   0  0  0  0  0  0  0  0  0  0  0  0
   39.6950   30.1090   37.2210 O   0  0  0  0  0  0  0  0  0  0  0  0
   40.1290   29.3500   36.7970 H   0  0  0  0  0  0  0  0  0  0  0  0
   39.0350   32.1210   36.5200 O   0  0  0  0  0  0  0  0  0  0  0  0
   38.6280   32.4630   35.6800 H   0  0  0  0  0  0  0  0  0  0  0  0
   37.4300   29.0540   39.7600 O   0  0  0  0  0  0  0  0  0  0  0  0
   37.3520   28.3660   40.9050 C   0  0  0  0  0  0  0  0  0  0  0  0
   37.2150   26.9710   40.9020 C   0  0  0  0  0  0  0  0  0  0  0  0
   37.1410   26.3100   42.1170 C   0  0  0  0  0  0  0  0  0  0  0  0
   37.2050   27.0390   43.2900 N   0  0  0  0  0  0  0  0  0  0  0  0
   37.3380   28.3870   43.2540 C   0  0  0  0  0  0  0  0  0  0  0  0
   37.4120   29.0470   42.0690 N   0  0  0  0  0  0  0  0  0  0  0  0
   37.1670   26.4180   39.9690 H   0  0  0  0  0  0  0  0  0  0  0  0
   37.3870   28.9480   44.1780 H   0  0  0  0  0  0  0  0  0  0  0  0
   36.9750   24.8260   42.1930 C   0  0  0  0  0  0  0  0  0  0  0  0
   36.5500   24.1140   40.9110 C   0  0  0  0  0  0  0  0  0  0  0  0
   37.9250   23.9480   41.5890 C   0  0  0  0  0  0  0  0  0  0  0  0
   36.3450   24.5340   43.0640 H   0  0  0  0  0  0  0  0  0  0  0  0
   36.5960   24.6610   39.9510 H   0  0  0  0  0  0  0  0  0  0  0  0
   35.8800   23.2320   40.9960 H   0  0  0  0  0  0  0  0  0  0  0  0
   38.1060   22.9510   42.0690 H   0  0  0  0  0  0  0  0  0  0  0  0
   38.8040   24.3700   41.0660 H   0  0  0  0  0  0  0  0  0  0  0  0
   36.9160   30.6260   36.1690 O   0  0  0  0  0  0  0  0  0  0  0  0
   36.6870   29.5260   35.4150 C   0  0  0  0  0  0  0  0  0  0  0  0
   35.7600   28.6540   35.7140 O   0  0  0  0  0  0  0  0  0  0  0  0
   37.0660   28.7760   34.2490 N   0  0  0  0  0  0  0  0  0  0  0  0
   36.6390   29.0450   33.3350 H   0  0  0  0  0  0  0  0  0  0  0  0
   37.7540   27.9650   34.2520 H   0  0  0  0  0  0  0  0  0  0  0  0
  1  7  1  6  0  0  0
  1  2  1  0  0  0  0
  2  8  1  1  0  0  0
  2  3  1  0  0  0  0
  2 17  1  0  0  0  0
  4 10  1  0  0  0  0
  4  3  1  0  0  0  0
  5 11  1  6  0  0  0
  5  4  1  0  0  0  0
  6  5  1  0  0  0  0
  6  1  1  0  0  0  0
  6 12  1  1  0  0  0
  9  4  1  0  0  0  0
 13  1  1  0  0  0  0
 14 13  1  0  0  0  0
 15  5  1  0  0  0  0
 16 15  1  0  0  0  0
 17 18  1  0  0  0  0
 18 23  1  0  0  0  0
 19 18  2  0  0  0  0
 19 20  1  0  0  0  0
 20 26  1  0  0  0  0
 20 21  2  0  0  0  0
 22 21  1  0  0  0  0
 22 25  1  0  0  0  0
 23 22  2  0  0  0  0
 24 19  1  0  0  0  0
 26 29  1  0  0  0  0
 27 31  1  0  0  0  0
 27 28  1  0  0  0  0
 27 26  1  0  0  0  0
 28 32  1  0  0  0  0
 28 26  1  0  0  0  0
 30 27  1  0  0  0  0
 33 28  1  0  0  0  0
 34  6  1  0  0  0  0
 35 36  2  0  0  0  0
 35 34  1  0  0  0  0
 37 39  1  0  0  0  0
 37 35  1  0  0  0  0
 38 37  1  0  0  0  0
M  END
>  <minimizedAffinity>
-5.48137283

$$$$

 OpenBabel03242523563D

 39 41  0  0  1  0  0  0  0  0999 V2000
   38.8720   31.4080   40.8400 C   0  0  1  0  0  0  0  0  0  0  0  0
   38.4350   30.2560   41.7330 C   0  0  1  0  0  0  0  0  0  0  0  0
   37.0930   29.9540   41.4430 O   0  0  0  0  0  0  0  0  0  0  0  0
   36.3380   31.0910   41.1440 C   0  0  0  0  0  0  0  0  0  0  0  0
   36.7410   31.7060   39.8190 C   0  0  2  0  0  0  0  0  0  0  0  0
   38.2000   31.1990   39.5220 C   0  0  1  0  0  0  0  0  0  0  0  0
   39.9800   31.3880   40.7760 H   0  0  0  0  0  0  0  0  0  0  0  0
   38.5740   30.4570   42.8020 H   0  0  0  0  0  0  0  0  0  0  0  0
   36.3350   31.8330   41.9650 H   0  0  0  0  0  0  0  0  0  0  0  0
   35.3010   30.7180   41.0360 H   0  0  0  0  0  0  0  0  0  0  0  0
   36.0800   31.3990   38.9930 H   0  0  0  0  0  0  0  0  0  0  0  0
   37.8990   30.1120   39.3720 H   0  0  0  0  0  0  0  0  0  0  0  0
   38.4940   32.6370   41.4000 O   0  0  0  0  0  0  0  0  0  0  0  0
   39.2710   33.1270   41.7180 H   0  0  0  0  0  0  0  0  0  0  0  0
   36.8520   33.0800   39.9570 O   0  0  0  0  0  0  0  0  0  0  0  0
   36.8060   33.5560   39.0840 H   0  0  0  0  0  0  0  0  0  0  0  0
   39.1420   29.1370   41.2580 O   0  0  0  0  0  0  0  0  0  0  0  0
   39.4110   28.0380   41.9730 C   0  0  0  0  0  0  0  0  0  0  0  0
   38.7270   26.8380   41.7380 C   0  0  0  0  0  0  0  0  0  0  0  0
   39.0470   25.7310   42.5060 C   0  0  0  0  0  0  0  0  0  0  0  0
   40.0250   25.8400   43.4770 N   0  0  0  0  0  0  0  0  0  0  0  0
   40.6660   27.0170   43.6770 C   0  0  0  0  0  0  0  0  0  0  0  0
   40.3610   28.1100   42.9290 N   0  0  0  0  0  0  0  0  0  0  0  0
   37.9620   26.7730   40.9700 H   0  0  0  0  0  0  0  0  0  0  0  0
   41.4300   27.0920   44.4390 H   0  0  0  0  0  0  0  0  0  0  0  0
   38.3470   24.4220   42.3250 C   0  0  0  0  0  0  0  0  0  0  0  0
   36.8990   24.4760   41.8460 C   0  0  0  0  0  0  0  0  0  0  0  0
   38.0730   23.9090   41.0210 C   0  0  0  0  0  0  0  0  0  0  0  0
   38.4690   23.7720   43.2210 H   0  0  0  0  0  0  0  0  0  0  0  0
   36.5000   25.4270   41.4460 H   0  0  0  0  0  0  0  0  0  0  0  0
   36.1880   23.7130   42.2290 H   0  0  0  0  0  0  0  0  0  0  0  0
   38.0660   22.7970   40.8800 H   0  0  0  0  0  0  0  0  0  0  0  0
   38.3910   24.4820   40.1300 H   0  0  0  0  0  0  0  0  0  0  0  0
   38.6660   31.9080   38.4790 O   0  0  0  0  0  0  0  0  0  0  0  0
   39.7790   31.6890   37.7410 C   0  0  0  0  0  0  0  0  0  0  0  0
   40.3980   30.5370   37.7330 O   0  0  0  0  0  0  0  0  0  0  0  0
   40.7290   32.2450   36.8160 N   0  0  0  0  0  0  0  0  0  0  0  0
   40.4930   32.2220   35.8000 H   0  0  0  0  0  0  0  0  0  0  0  0
   41.6580   32.6810   37.0960 H   0  0  0  0  0  0  0  0  0  0  0  0
  1  7  1  6  0  0  0
  1 13  1  0  0  0  0
  1  2  1  0  0  0  0
  2  8  1  1  0  0  0
  3  2  1  0  0  0  0
  4  3  1  0  0  0  0
  4  9  1  0  0  0  0
  5 11  1  6  0  0  0
  5 15  1  0  0  0  0
  5  4  1  0  0  0  0
  6 12  1  6  0  0  0
  6  5  1  0  0  0  0
  6  1  1  0  0  0  0
 10  4  1  0  0  0  0
 13 14  1  0  0  0  0
 16 15  1  0  0  0  0
 17  2  1  0  0  0  0
 17 18  1  0  0  0  0
 18 23  1  0  0  0  0
 19 18  2  0  0  0  0
 19 20  1  0  0  0  0
 20 21  2  0  0  0  0
 21 22  1  0  0  0  0
 22 25  1  0  0  0  0
 23 22  2  0  0  0  0
 24 19  1  0  0  0  0
 26 20  1  0  0  0  0
 26 29  1  0  0  0  0
 27 31  1  0  0  0  0
 27 26  1  0  0  0  0
 28 27  1  0  0  0  0
 28 26  1  0  0  0  0
 30 27  1  0  0  0  0
 32 28  1  0  0  0  0
 33 28  1  0  0  0  0
 34  6  1  0  0  0  0
 35 34  1  0  0  0  0
 36 35  2  0  0  0  0
 37 39  1  0  0  0  0
 37 35  1  0  0  0  0
 38 37  1  0  0  0  0
M  END
>  <minimizedAffinity>
-5.44598055

$$$$

 OpenBabel03242523563D

 39 41  0  0  1  0  0  0  0  0999 V2000
   36.7560   30.0690   41.3470 C   0  0  1  0  0  0  0  0  0  0  0  0
   36.4110   28.9650   40.3570 C   0  0  1  0  0  0  0  0  0  0  0  0
   36.7300   29.4120   39.0630 O   0  0  0  0  0  0  0  0  0  0  0  0
   36.4810   30.7760   38.8890 C   0  0  0  0  0  0  0  0  0  0  0  0
   37.4410   31.6340   39.6870 C   0  0  2  0  0  0  0  0  0  0  0  0
   38.0020   30.7180   40.8370 C   0  0  1  0  0  0  0  0  0  0  0  0
   36.8810   29.6030   42.3460 H   0  0  0  0  0  0  0  0  0  0  0  0
   35.3660   28.6380   40.4180 H   0  0  0  0  0  0  0  0  0  0  0  0
   35.4240   31.0470   39.0770 H   0  0  0  0  0  0  0  0  0  0  0  0
   36.6810   30.9630   37.8160 H   0  0  0  0  0  0  0  0  0  0  0  0
   38.2840   32.0020   39.0790 H   0  0  0  0  0  0  0  0  0  0  0  0
   38.5800   30.0280   40.1410 H   0  0  0  0  0  0  0  0  0  0  0  0
   35.7110   31.0000   41.4320 O   0  0  0  0  0  0  0  0  0  0  0  0
   35.2570   30.9360   42.2880 H   0  0  0  0  0  0  0  0  0  0  0  0
   36.7430   32.6420   40.3310 O   0  0  0  0  0  0  0  0  0  0  0  0
   37.3300   33.3980   40.6050 H   0  0  0  0  0  0  0  0  0  0  0  0
   37.3500   27.9480   40.6030 O   0  0  0  0  0  0  0  0  0  0  0  0
   37.0580   26.6480   40.7310 C   0  0  0  0  0  0  0  0  0  0  0  0
   36.5790   25.9040   39.6440 C   0  0  0  0  0  0  0  0  0  0  0  0
   36.2950   24.5620   39.8340 C   0  0  0  0  0  0  0  0  0  0  0  0
   36.4910   23.9970   41.0800 N   0  0  0  0  0  0  0  0  0  0  0  0
   36.9560   24.7470   42.1080 C   0  0  0  0  0  0  0  0  0  0  0  0
   37.2390   26.0650   41.9350 N   0  0  0  0  0  0  0  0  0  0  0  0
   36.4320   26.3680   38.6730 H   0  0  0  0  0  0  0  0  0  0  0  0
   37.1060   24.2950   43.0790 H   0  0  0  0  0  0  0  0  0  0  0  0
   35.7620   23.7100   38.7270 C   0  0  0  0  0  0  0  0  0  0  0  0
   35.6230   22.2170   39.0120 C   0  0  0  0  0  0  0  0  0  0  0  0
   34.4380   23.1770   38.7800 C   0  0  0  0  0  0  0  0  0  0  0  0
   36.3000   23.9060   37.7710 H   0  0  0  0  0  0  0  0  0  0  0  0
   35.7010   21.8600   40.0560 H   0  0  0  0  0  0  0  0  0  0  0  0
   35.8120   21.5020   38.1830 H   0  0  0  0  0  0  0  0  0  0  0  0
   33.8860   23.0320   37.8150 H   0  0  0  0  0  0  0  0  0  0  0  0
   33.7920   23.4060   39.6480 H   0  0  0  0  0  0  0  0  0  0  0  0
   38.6710   31.5110   41.6910 O   0  0  0  0  0  0  0  0  0  0  0  0
   39.9910   31.5020   41.9920 C   0  0  0  0  0  0  0  0  0  0  0  0
   40.5540   30.5180   42.6430 O   0  0  0  0  0  0  0  0  0  0  0  0
   41.2440   32.2010   41.8950 N   0  0  0  0  0  0  0  0  0  0  0  0
   41.8120   32.0670   41.0310 H   0  0  0  0  0  0  0  0  0  0  0  0
   41.6320   32.8480   42.6460 H   0  0  0  0  0  0  0  0  0  0  0  0
  1 13  1  0  0  0  0
  1  7  1  1  0  0  0
  2  8  1  1  0  0  0
  2 17  1  0  0  0  0
  2  1  1  0  0  0  0
  3  2  1  0  0  0  0
  4  3  1  0  0  0  0
  4  9  1  0  0  0  0
  4  5  1  0  0  0  0
  5 11  1  6  0  0  0
  5 15  1  0  0  0  0
  5  6  1  0  0  0  0
  6 12  1  6  0  0  0
  6  1  1  0  0  0  0
  6 34  1  0  0  0  0
 10  4  1  0  0  0  0
 13 14  1  0  0  0  0
 15 16  1  0  0  0  0
 17 18  1  0  0  0  0
 18 23  1  0  0  0  0
 19 20  1  0  0  0  0
 19 18  2  0  0  0  0
 20 21  2  0  0  0  0
 21 22  1  0  0  0  0
 22 25  1  0  0  0  0
 23 22  2  0  0  0  0
 24 19  1  0  0  0  0
 26 28  1  0  0  0  0
 26 27  1  0  0  0  0
 26 20  1  0  0  0  0
 27 30  1  0  0  0  0
 28 27  1  0  0  0  0
 28 33  1  0  0  0  0
 29 26  1  0  0  0  0
 31 27  1  0  0  0  0
 32 28  1  0  0  0  0
 34 35  1  0  0  0  0
 35 36  2  0  0  0  0
 37 35  1  0  0  0  0
 37 39  1  0  0  0  0
 38 37  1  0  0  0  0
M  END
>  <minimizedAffinity>
-5.42916727

$$$$

 OpenBabel03242523563D

 39 41  0  0  1  0  0  0  0  0999 V2000
   37.7650   32.1340   40.5970 C   0  0  1  0  0  0  0  0  0  0  0  0
   37.0520   30.8430   40.9750 C   0  0  1  0  0  0  0  0  0  0  0  0
   36.8650   30.0810   39.8090 O   0  0  0  0  0  0  0  0  0  0  0  0
   36.5920   30.8700   38.6880 C   0  0  0  0  0  0  0  0  0  0  0  0
   37.7980   31.6800   38.2590 C   0  0  2  0  0  0  0  0  0  0  0  0
   38.7360   31.7800   39.5180 C   0  0  1  0  0  0  0  0  0  0  0  0
   38.2500   32.5350   41.5110 H   0  0  0  0  0  0  0  0  0  0  0  0
   36.1020   31.0080   41.4980 H   0  0  0  0  0  0  0  0  0  0  0  0
   35.6900   31.4980   38.8150 H   0  0  0  0  0  0  0  0  0  0  0  0
   36.3750   30.1440   37.8810 H   0  0  0  0  0  0  0  0  0  0  0  0
   38.3540   31.2060   37.4340 H   0  0  0  0  0  0  0  0  0  0  0  0
   38.9970   30.6730   39.5350 H   0  0  0  0  0  0  0  0  0  0  0  0
   36.8450   33.0900   40.1420 O   0  0  0  0  0  0  0  0  0  0  0  0
   36.7480   33.8120   40.7840 H   0  0  0  0  0  0  0  0  0  0  0  0
   37.4120   32.9830   37.9870 O   0  0  0  0  0  0  0  0  0  0  0  0
   38.0710   33.4660   37.4190 H   0  0  0  0  0  0  0  0  0  0  0  0
   37.9970   30.1070   41.7110 O   0  0  0  0  0  0  0  0  0  0  0  0
   37.8550   28.8290   42.0820 C   0  0  0  0  0  0  0  0  0  0  0  0
   38.7940   27.8590   41.7040 C   0  0  0  0  0  0  0  0  0  0  0  0
   38.5980   26.5520   42.1170 C   0  0  0  0  0  0  0  0  0  0  0  0
   37.4920   26.2420   42.8860 N   0  0  0  0  0  0  0  0  0  0  0  0
   36.6050   27.2060   43.2320 C   0  0  0  0  0  0  0  0  0  0  0  0
   36.7860   28.4930   42.8330 N   0  0  0  0  0  0  0  0  0  0  0  0
   39.6560   28.1230   41.1000 H   0  0  0  0  0  0  0  0  0  0  0  0
   35.7420   26.9540   43.8340 H   0  0  0  0  0  0  0  0  0  0  0  0
   39.5460   25.4590   41.7370 C   0  0  0  0  0  0  0  0  0  0  0  0
   40.1450   24.6400   42.8780 C   0  0  0  0  0  0  0  0  0  0  0  0
   39.1610   24.0870   41.8270 C   0  0  0  0  0  0  0  0  0  0  0  0
   40.3240   25.8270   41.0300 H   0  0  0  0  0  0  0  0  0  0  0  0
   39.7070   24.7250   43.8890 H   0  0  0  0  0  0  0  0  0  0  0  0
   41.1900   24.2770   42.7730 H   0  0  0  0  0  0  0  0  0  0  0  0
   39.6010   23.3640   41.0920 H   0  0  0  0  0  0  0  0  0  0  0  0
   38.1430   23.8260   42.1730 H   0  0  0  0  0  0  0  0  0  0  0  0
   39.6920   32.6820   39.2360 O   0  0  0  0  0  0  0  0  0  0  0  0
   40.6640   33.1610   40.0470 C   0  0  0  0  0  0  0  0  0  0  0  0
   41.8510   32.6180   40.1130 O   0  0  0  0  0  0  0  0  0  0  0  0
   41.0280   34.1590   41.0150 N   0  0  0  0  0  0  0  0  0  0  0  0
   41.3740   35.0780   40.6630 H   0  0  0  0  0  0  0  0  0  0  0  0
   40.9670   34.0260   42.0690 H   0  0  0  0  0  0  0  0  0  0  0  0
  1  2  1  0  0  0  0
  1  7  1  1  0  0  0
  2  8  1  1  0  0  0
  2 17  1  0  0  0  0
  3  2  1  0  0  0  0
  4  9  1  0  0  0  0
  4  3  1  0  0  0  0
  5 11  1  6  0  0  0
  5  4  1  0  0  0  0
  5  6  1  0  0  0  0
  6 12  1  1  0  0  0
  6  1  1  0  0  0  0
 10  4  1  0  0  0  0
 13  1  1  0  0  0  0
 13 14  1  0  0  0  0
 15  5  1  0  0  0  0
 16 15  1  0  0  0  0
 17 18  1  0  0  0  0
 18 23  1  0  0  0  0
 19 18  2  0  0  0  0
 19 20  1  0  0  0  0
 20 21  2  0  0  0  0
 21 22  1  0  0  0  0
 22 25  1  0  0  0  0
 23 22  2  0  0  0  0
 24 19  1  0  0  0  0
 26 28  1  0  0  0  0
 26 20  1  0  0  0  0
 26 27  1  0  0  0  0
 27 30  1  0  0  0  0
 28 33  1  0  0  0  0
 28 27  1  0  0  0  0
 29 26  1  0  0  0  0
 31 27  1  0  0  0  0
 32 28  1  0  0  0  0
 34  6  1  0  0  0  0
 34 35  1  0  0  0  0
 35 36  2  0  0  0  0
 35 37  1  0  0  0  0
 37 39  1  0  0  0  0
 38 37  1  0  0  0  0
M  END
>  <minimizedAffinity>
-5.36858368

$$$$

 OpenBabel03242523563D

 39 41  0  0  1  0  0  0  0  0999 V2000
   38.6150   26.2660   41.1140 C   0  0  1  0  0  0  0  0  0  0  0  0
   37.3290   26.8080   41.7220 C   0  0  1  0  0  0  0  0  0  0  0  0
   36.8030   25.8340   42.5880 O   0  0  0  0  0  0  0  0  0  0  0  0
   37.0030   24.5330   42.1210 C   0  0  0  0  0  0  0  0  0  0  0  0
   38.4630   24.1340   42.1650 C   0  0  2  0  0  0  0  0  0  0  0  0
   39.2880   25.4740   42.1870 C   0  0  1  0  0  0  0  0  0  0  0  0
   39.2160   27.1300   40.7630 H   0  0  0  0  0  0  0  0  0  0  0  0
   36.5890   27.1140   40.9720 H   0  0  0  0  0  0  0  0  0  0  0  0
   36.5520   24.3610   41.1250 H   0  0  0  0  0  0  0  0  0  0  0  0
   36.4610   23.8900   42.8410 H   0  0  0  0  0  0  0  0  0  0  0  0
   38.7140   23.5440   43.0610 H   0  0  0  0  0  0  0  0  0  0  0  0
   38.9380   25.7880   43.2230 H   0  0  0  0  0  0  0  0  0  0  0  0
   38.3330   25.4570   40.0030 O   0  0  0  0  0  0  0  0  0  0  0  0
   38.6080   25.8920   39.1790 H   0  0  0  0  0  0  0  0  0  0  0  0
   38.8130   23.5100   40.9780 O   0  0  0  0  0  0  0  0  0  0  0  0
   39.6400   22.9630   41.0640 H   0  0  0  0  0  0  0  0  0  0  0  0
   37.7400   27.8400   42.5840 O   0  0  0  0  0  0  0  0  0  0  0  0
   38.1080   29.0660   42.1950 C   0  0  0  0  0  0  0  0  0  0  0  0
   37.3030   29.8220   41.3320 C   0  0  0  0  0  0  0  0  0  0  0  0
   37.7320   31.0850   40.9620 C   0  0  0  0  0  0  0  0  0  0  0  0
   38.9330   31.5630   41.4510 N   0  0  0  0  0  0  0  0  0  0  0  0
   39.6870   30.8040   42.2830 C   0  0  0  0  0  0  0  0  0  0  0  0
   39.2760   29.5630   42.6530 N   0  0  0  0  0  0  0  0  0  0  0  0
   36.3620   29.4280   40.9600 H   0  0  0  0  0  0  0  0  0  0  0  0
   40.6250   31.1870   42.6600 H   0  0  0  0  0  0  0  0  0  0  0  0
   36.9350   31.9420   40.0310 C   0  0  0  0  0  0  0  0  0  0  0  0
   37.5380   33.2930   39.6520 C   0  0  0  0  0  0  0  0  0  0  0  0
   37.3350   32.1200   38.6710 C   0  0  0  0  0  0  0  0  0  0  0  0
   35.8790   32.0340   40.3710 H   0  0  0  0  0  0  0  0  0  0  0  0
   38.6000   33.4920   39.8860 H   0  0  0  0  0  0  0  0  0  0  0  0
   36.8500   34.1520   39.4990 H   0  0  0  0  0  0  0  0  0  0  0  0
   36.5360   32.2730   37.9000 H   0  0  0  0  0  0  0  0  0  0  0  0
   38.2420   31.6080   38.2970 H   0  0  0  0  0  0  0  0  0  0  0  0
   40.5790   25.1540   41.9920 O   0  0  0  0  0  0  0  0  0  0  0  0
   41.6230   25.3060   42.8400 C   0  0  0  0  0  0  0  0  0  0  0  0
   41.7030   26.3050   43.6790 O   0  0  0  0  0  0  0  0  0  0  0  0
   42.8750   24.7710   43.3030 N   0  0  0  0  0  0  0  0  0  0  0  0
   42.8490   24.0390   44.0450 H   0  0  0  0  0  0  0  0  0  0  0  0
   43.8290   25.0710   42.9380 H   0  0  0  0  0  0  0  0  0  0  0  0
  1  7  1  6  0  0  0
  1  2  1  0  0  0  0
  1  6  1  0  0  0  0
  2  8  1  6  0  0  0
  2 17  1  0  0  0  0
  2  3  1  0  0  0  0
  4  5  1  0  0  0  0
  4  3  1  0  0  0  0
  4 10  1  0  0  0  0
  5  6  1  0  0  0  0
  5 11  1  1  0  0  0
  6 12  1  1  0  0  0
  9  4  1  0  0  0  0
 13  1  1  0  0  0  0
 14 13  1  0  0  0  0
 15 16  1  0  0  0  0
 15  5  1  0  0  0  0
 18 17  1  0  0  0  0
 18 23  1  0  0  0  0
 19 18  2  0  0  0  0
 20 19  1  0  0  0  0
 20 21  2  0  0  0  0
 21 22  1  0  0  0  0
 22 23  2  0  0  0  0
 22 25  1  0  0  0  0
 24 19  1  0  0  0  0
 26 29  1  0  0  0  0
 26 20  1  0  0  0  0
 27 30  1  0  0  0  0
 27 26  1  0  0  0  0
 28 27  1  0  0  0  0
 28 26  1  0  0  0  0
 31 27  1  0  0  0  0
 32 28  1  0  0  0  0
 33 28  1  0  0  0  0
 34  6  1  0  0  0  0
 34 35  1  0  0  0  0
 35 37  1  0  0  0  0
 35 36  2  0  0  0  0
 37 38  1  0  0  0  0
 39 37  1  0  0  0  0
M  END
>  <minimizedAffinity>
-5.35616302

$$$$

 OpenBabel03242523563D

 39 41  0  0  1  0  0  0  0  0999 V2000
   39.7490   30.6870   38.8420 C   0  0  1  0  0  0  0  0  0  0  0  0
   40.9100   29.7310   39.0730 C   0  0  1  0  0  0  0  0  0  0  0  0
   42.0500   30.2550   38.4390 O   0  0  0  0  0  0  0  0  0  0  0  0
   41.7480   30.9020   37.2380 C   0  0  0  0  0  0  0  0  0  0  0  0
   40.9820   32.1890   37.4650 C   0  0  2  0  0  0  0  0  0  0  0  0
   40.3220   32.0660   38.8890 C   0  0  1  0  0  0  0  0  0  0  0  0
   38.9910   30.4990   39.6320 H   0  0  0  0  0  0  0  0  0  0  0  0
   40.7040   28.7070   38.7370 H   0  0  0  0  0  0  0  0  0  0  0  0
   41.2440   30.2400   36.5080 H   0  0  0  0  0  0  0  0  0  0  0  0
   42.7320   31.1720   36.8090 H   0  0  0  0  0  0  0  0  0  0  0  0
   41.6340   33.0780   37.4480 H   0  0  0  0  0  0  0  0  0  0  0  0
   41.3070   32.0930   39.4570 H   0  0  0  0  0  0  0  0  0  0  0  0
   39.1470   30.4410   37.6000 O   0  0  0  0  0  0  0  0  0  0  0  0
   38.2660   30.0470   37.7130 H   0  0  0  0  0  0  0  0  0  0  0  0
   39.9210   32.2660   36.5770 O   0  0  0  0  0  0  0  0  0  0  0  0
   39.5820   33.1950   36.4660 H   0  0  0  0  0  0  0  0  0  0  0  0
   41.2070   29.8410   40.4430 O   0  0  0  0  0  0  0  0  0  0  0  0
   41.0460   28.8650   41.3450 C   0  0  0  0  0  0  0  0  0  0  0  0
   39.7960   28.6220   41.9300 C   0  0  0  0  0  0  0  0  0  0  0  0
   39.6860   27.5980   42.8560 C   0  0  0  0  0  0  0  0  0  0  0  0
   40.8020   26.8490   43.1740 N   0  0  0  0  0  0  0  0  0  0  0  0
   41.9950   27.1120   42.5880 C   0  0  0  0  0  0  0  0  0  0  0  0
   42.1160   28.1140   41.6770 N   0  0  0  0  0  0  0  0  0  0  0  0
   38.9310   29.2230   41.6660 H   0  0  0  0  0  0  0  0  0  0  0  0
   42.8640   26.5190   42.8430 H   0  0  0  0  0  0  0  0  0  0  0  0
   38.3890   27.2930   43.5360 C   0  0  0  0  0  0  0  0  0  0  0  0
   37.3970   28.4450   43.6770 C   0  0  0  0  0  0  0  0  0  0  0  0
   37.1730   27.2010   42.7940 C   0  0  0  0  0  0  0  0  0  0  0  0
   38.5550   26.7610   44.5010 H   0  0  0  0  0  0  0  0  0  0  0  0
   37.5630   29.3720   43.0970 H   0  0  0  0  0  0  0  0  0  0  0  0
   36.7650   28.4870   44.5900 H   0  0  0  0  0  0  0  0  0  0  0  0
   36.3830   26.4910   43.1560 H   0  0  0  0  0  0  0  0  0  0  0  0
   37.1890   27.3460   41.6970 H   0  0  0  0  0  0  0  0  0  0  0  0
   39.4540   33.0850   39.0180 O   0  0  0  0  0  0  0  0  0  0  0  0
   38.4720   33.2440   39.9360 C   0  0  0  0  0  0  0  0  0  0  0  0
   38.7240   33.4320   41.2050 O   0  0  0  0  0  0  0  0  0  0  0  0
   37.0560   33.3110   40.1710 N   0  0  0  0  0  0  0  0  0  0  0  0
   36.5820   34.2320   40.0410 H   0  0  0  0  0  0  0  0  0  0  0  0
   36.4550   32.4850   40.4680 H   0  0  0  0  0  0  0  0  0  0  0  0
  1  6  1  0  0  0  0
  1  2  1  0  0  0  0
  1  7  1  1  0  0  0
  2  8  1  6  0  0  0
  2 17  1  0  0  0  0
  3  2  1  0  0  0  0
  4  5  1  0  0  0  0
  4  3  1  0  0  0  0
  5 11  1  6  0  0  0
  5  6  1  0  0  0  0
  6 34  1  0  0  0  0
  6 12  1  1  0  0  0
  9  4  1  0  0  0  0
 10  4  1  0  0  0  0
 13 14  1  0  0  0  0
 13  1  1  0  0  0  0
 15  5  1  0  0  0  0
 16 15  1  0  0  0  0
 17 18  1  0  0  0  0
 18 23  2  0  0  0  0
 18 19  1  0  0  0  0
 19 20  2  0  0  0  0
 20 21  1  0  0  0  0
 20 26  1  0  0  0  0
 22 25  1  0  0  0  0
 22 21  2  0  0  0  0
 23 22  1  0  0  0  0
 24 19  1  0  0  0  0
 26 27  1  0  0  0  0
 26 29  1  0  0  0  0
 27 31  1  0  0  0  0
 28 32  1  0  0  0  0
 28 26  1  0  0  0  0
 28 27  1  0  0  0  0
 30 27  1  0  0  0  0
 33 28  1  0  0  0  0
 34 35  1  0  0  0  0
 35 37  1  0  0  0  0
 35 36  2  0  0  0  0
 37 39  1  0  0  0  0
 38 37  1  0  0  0  0
M  END
>  <minimizedAffinity>
-5.31473541

$$$$
