REMARK  Name = 
REMARK  3 active torsions:
REMARK  status: ('A' for Active; 'I' for Inactive)
REMARK    1  A    between atoms: C_1  and  C_10
REMARK    2  A    between atoms: C_6  and  C_18
REMARK    3  A    between atoms: C_7  and  C_16
REMARK                            x       y       z     vdW  Elec       q    Type
REMARK                         _______ _______ _______ _____ _____    ______ ____
ROOT
ATOM      1  C   UNL     1      47.579  29.982  48.258  0.00  0.00    +0.000 C 
ATOM      2  C   UNL     1      47.453  28.785  47.365  0.00  0.00    +0.000 C 
ATOM      3  C   UNL     1      48.715  28.005  47.171  0.00  0.00    +0.000 C 
ATOM      4  C   UNL     1      49.510  27.836  48.448  0.00  0.00    +0.000 C 
ATOM      5  C   UNL     1      49.597  29.109  49.261  0.00  0.00    +0.000 C 
ATOM      6  C   UNL     1      49.084  30.269  48.407  0.00  0.00    +0.000 C 
ATOM      7  H   UNL     1      47.217  29.723  49.251  0.00  0.00    +0.000 HD
ATOM      8  H   UNL     1      46.651  28.124  47.756  0.00  0.00    +0.000 HD
ATOM      9  H   UNL     1      47.114  29.144  46.365  0.00  0.00    +0.000 HD
ATOM     10  H   UNL     1      49.347  28.523  46.416  0.00  0.00    +0.000 HD
ATOM     11  H   UNL     1      48.460  26.985  46.820  0.00  0.00    +0.000 HD
ATOM     12  H   UNL     1      50.554  27.546  48.181  0.00  0.00    +0.000 HD
ATOM     13  H   UNL     1      49.058  27.055  49.087  0.00  0.00    +0.000 HD
ATOM     14  H   UNL     1      48.930  29.061  50.134  0.00  0.00    +0.000 HD
ATOM     15  H   UNL     1      50.617  29.349  49.588  0.00  0.00    +0.000 HD
ATOM     16  H   UNL     1      49.580  30.325  47.439  0.00  0.00    +0.000 HD
ENDROOT
BRANCH   1  20
ATOM     17  C   UNL     1      45.923  33.154  46.251  0.00  0.00    +0.000 A 
ATOM     18  C   UNL     1      45.356  32.956  47.505  0.00  0.00    +0.000 A 
ATOM     19  C   UNL     1      45.819  31.948  48.250  0.00  0.00    +0.000 A 
ATOM     20  C   UNL     1      46.843  31.119  47.780  0.00  0.00    +0.000 A 
ATOM     21  S   UNL     1      47.173  31.828  46.153  0.00  0.00    +0.000 S 
ATOM     22  H   UNL     1      44.565  33.603  47.861  0.00  0.00    +0.000 HD
ATOM     23  H   UNL     1      45.498  31.654  49.234  0.00  0.00    +0.000 HD
BRANCH  17  28
ATOM     24  C   UNL     1      44.418  36.098  44.536  0.00  0.00    +0.000 A 
ATOM     25  C   UNL     1      45.054  36.002  43.285  0.00  0.00    +0.000 A 
ATOM     26  C   UNL     1      45.960  34.948  43.081  0.00  0.00    +0.000 A 
ATOM     27  N   UNL     1      46.161  34.086  44.112  0.00  0.00    +0.000 NA
ATOM     28  C   UNL     1      45.535  34.212  45.292  0.00  0.00    +0.000 A 
ATOM     29  N   UNL     1      44.657  35.221  45.513  0.00  0.00    +0.000 NA
ATOM     30  H   UNL     1      43.710  36.889  44.753  0.00  0.00    +0.000 HD
ATOM     31  H   UNL     1      44.843  36.727  42.511  0.00  0.00    +0.000 HD
ATOM     32  H   UNL     1      46.465  34.832  42.153  0.00  0.00    +0.000 HD
ENDBRANCH  17  28
ENDBRANCH   1  20
BRANCH   6  33
ATOM     33  C   UNL     1      49.225  31.515  49.224  0.00  0.00    +0.000 C 
ATOM     34  O   UNL     1      49.897  31.592  50.265  0.00  0.00    +0.000 OA
ATOM     35  N   UNL     1      48.657  32.798  48.998  0.00  0.00    +0.000 N 
ATOM     36  H   UNL     1      47.675  33.125  49.095  0.00  0.00    +0.000 HD
ATOM     37  H   UNL     1      49.549  33.260  48.715  0.00  0.00    +0.000 HD
ENDBRANCH   6  33
TORSDOF 3
