
     RDKit          3D

 23 24  0  0  0  0  0  0  0  0999 V2000
   46.2605   34.7538   43.2447 C   0  0  0  0  0  0  0  0  0  0  0  0
   45.3046   35.7292   43.5905 C   0  0  0  0  0  0  0  0  0  0  0  0
   44.6404   35.5631   44.8135 C   0  0  0  0  0  0  0  0  0  0  0  0
   44.9564   34.4908   45.5728 N   0  0  0  0  0  0  0  0  0  0  0  0
   45.9040   33.5765   45.1680 C   0  0  0  0  0  0  0  0  0  0  0  0
   46.5550   33.6904   44.0251 N   0  0  0  0  0  0  0  0  0  0  0  0
   46.2148   32.4276   46.0768 C   0  0  1  0  0  0  0  0  0  0  0  0
   47.0395   32.6840   47.3187 C   0  0  0  0  0  0  0  0  0  0  0  0
   45.5492   32.4955   47.3947 C   0  0  1  0  0  0  0  0  0  0  0  0
   44.8852   33.7359   47.8035 N   0  0  0  0  0  0  0  0  0  0  0  0
   46.9251   34.9848   41.9793 C   0  0  0  0  0  0  0  0  0  0  0  0
   48.1003   35.4885   41.8805 O   0  0  0  0  0  0  0  0  0  0  0  0
   45.0927   36.5680   42.9422 H   0  0  0  0  0  0  0  0  0  0  0  0
   43.8966   36.2752   45.1367 H   0  0  0  0  0  0  0  0  0  0  0  0
   46.3993   31.4570   45.6156 H   0  0  0  0  0  0  0  0  0  0  0  0
   47.4970   33.6737   47.4086 H   0  0  0  0  0  0  0  0  0  0  0  0
   47.6312   31.8717   47.7346 H   0  0  0  0  0  0  0  0  0  0  0  0
   45.1590   31.5920   47.8859 H   0  0  0  0  0  0  0  0  0  0  0  0
   45.0983   34.0048   48.7728 H   0  0  0  0  0  0  0  0  0  0  0  0
   43.8608   33.6787   47.6709 H   0  0  0  0  0  0  0  0  0  0  0  0
   46.3449   34.6768   40.6975 N   0  0  0  0  0  0  0  0  0  0  0  0
   47.0139   35.2869   40.1416 H   0  0  0  0  0  0  0  0  0  0  0  0
   45.6353   34.1782   40.1022 H   0  0  0  0  0  0  0  0  0  0  0  0
  1  2  2  0
  1  6  1  0
  2  3  1  0
  3  4  2  0
  5  4  1  0
  5  7  1  0
  6  5  2  0
  7  8  1  0
  7  9  1  0
  8  9  1  0
  9 10  1  0
 11  1  1  0
 12 11  2  0
  2 13  1  0
  3 14  1  0
  7 15  1  6
  8 16  1  0
  8 17  1  0
  9 18  1  1
 10 19  1  0
 10 20  1  0
 21 22  1  0
 21 23  1  0
 11 21  1  0
M  ISO  8  13  14  14  14  15  13  16  13  17  13  18  13  19   5  20   5
M  ISO  2  22   5  23   5
M  END
>  <DihAtoms>  (1) 
0,10,20,21

>  <DihDeg>  (1) 
87.57560196856343

$$$$
