
 OpenBabel03252508003D

 23 24  0  0  1  0  0  0  0  0999 V2000
   46.2330   34.7750   43.2100 C   0  0  0  0  0  0  0  0  0  0  0  0
   45.3080   35.7960   43.5040 C   0  0  0  0  0  0  0  0  0  0  0  0
   44.6150   35.6970   44.7190 C   0  0  0  0  0  0  0  0  0  0  0  0
   44.8760   34.6400   45.5200 N   0  0  0  0  0  0  0  0  0  0  0  0
   45.7960   33.6780   45.1640 C   0  0  0  0  0  0  0  0  0  0  0  0
   46.4720   33.7280   44.0310 N   0  0  0  0  0  0  0  0  0  0  0  0
   45.1400   36.6200   42.8240 H   0  0  0  0  0  0  0  0  0  0  0  0
   43.8940   36.4460   45.0040 H   0  0  0  0  0  0  0  0  0  0  0  0
   46.0470   32.5500   46.1160 C   0  0  1  0  0  0  0  0  0  0  0  0
   46.8340   32.8230   47.3790 C   0  0  0  0  0  0  0  0  0  0  0  0
   45.3380   32.6720   47.4070 C   0  0  1  0  0  0  0  0  0  0  0  0
   46.2230   31.5610   45.6910 H   0  0  0  0  0  0  0  0  0  0  0  0
   47.3130   33.8040   47.4560 H   0  0  0  0  0  0  0  0  0  0  0  0
   47.3900   32.0100   47.8390 H   0  0  0  0  0  0  0  0  0  0  0  0
   44.9090   31.7940   47.9100 H   0  0  0  0  0  0  0  0  0  0  0  0
   44.6910   33.9400   47.7550 N   0  0  0  0  0  0  0  0  0  0  0  0
   44.8770   34.2330   48.7240 H   0  0  0  0  0  0  0  0  0  0  0  0
   43.6710   33.9040   47.5890 H   0  0  0  0  0  0  0  0  0  0  0  0
   46.9280   34.9380   41.9500 C   0  0  0  0  0  0  0  0  0  0  0  0
   48.0590   35.5310   41.8400 O   0  0  0  0  0  0  0  0  0  0  0  0
   46.4310   34.4560   40.6870 N   0  0  0  0  0  0  0  0  0  0  0  0
   47.3670   34.0820   40.3530 H   0  0  0  0  0  0  0  0  0  0  0  0
   45.6480   34.3100   40.0000 H   0  0  0  0  0  0  0  0  0  0  0  0
  1  2  2  0  0  0  0
  1  6  1  0  0  0  0
  2  3  1  0  0  0  0
  3  8  1  0  0  0  0
  3  4  2  0  0  0  0
  5  4  1  0  0  0  0
  5  9  1  0  0  0  0
  6  5  2  0  0  0  0
  7  2  1  0  0  0  0
  9 12  1  6  0  0  0
  9 10  1  0  0  0  0
  9 11  1  0  0  0  0
 10 11  1  0  0  0  0
 10 13  1  0  0  0  0
 10 14  1  0  0  0  0
 11 16  1  0  0  0  0
 11 15  1  1  0  0  0
 16 17  1  0  0  0  0
 18 16  1  0  0  0  0
 19  1  1  0  0  0  0
 20 19  2  0  0  0  0
 21 19  1  0  0  0  0
 22 21  1  0  0  0  0
 23 21  1  0  0  0  0
M  END
>  <minimizedAffinity>
-4.91030359

>  <minimizedRMSD>
0.182999179

$$$$
