REMARK  Name = 
REMARK  3 active torsions:
REMARK  status: ('A' for Active; 'I' for Inactive)
REMARK    1  A    between atoms: C_1  and  C_11
REMARK    2  A    between atoms: C_5  and  C_7
REMARK    3  A    between atoms: C_9  and  N_10
REMARK                            x       y       z     vdW  Elec       q    Type
REMARK                         _______ _______ _______ _____ _____    ______ ____
ROOT
ATOM      1  C   UNL     1      46.261  34.754  43.245  0.00  0.00    +0.000 A 
ATOM      2  C   UNL     1      45.305  35.729  43.590  0.00  0.00    +0.000 A 
ATOM      3  C   UNL     1      44.640  35.563  44.813  0.00  0.00    +0.000 A 
ATOM      4  N   UNL     1      44.956  34.491  45.573  0.00  0.00    +0.000 NA
ATOM      5  C   UNL     1      45.904  33.577  45.168  0.00  0.00    +0.000 A 
ATOM      6  N   UNL     1      46.555  33.690  44.025  0.00  0.00    +0.000 NA
ATOM      7  H   UNL     1      45.093  36.568  42.942  0.00  0.00    +0.000 HD
ATOM      8  H   UNL     1      43.897  36.275  45.137  0.00  0.00    +0.000 HD
ENDROOT
BRANCH   5   9
ATOM      9  C   UNL     1      46.215  32.428  46.077  0.00  0.00    +0.000 C 
ATOM     10  C   UNL     1      47.039  32.684  47.319  0.00  0.00    +0.000 C 
ATOM     11  C   UNL     1      45.549  32.495  47.395  0.00  0.00    +0.000 C 
ATOM     12  H   UNL     1      46.399  31.457  45.616  0.00  0.00    +0.000 HD
ATOM     13  H   UNL     1      47.497  33.674  47.409  0.00  0.00    +0.000 HD
ATOM     14  H   UNL     1      47.631  31.872  47.735  0.00  0.00    +0.000 HD
ATOM     15  H   UNL     1      45.159  31.592  47.886  0.00  0.00    +0.000 HD
BRANCH  11  16
ATOM     16  N   UNL     1      44.885  33.736  47.803  0.00  0.00    +0.000 NA
ATOM     17  H   UNL     1      45.098  34.005  48.773  0.00  0.00    +0.000 HD
ATOM     18  H   UNL     1      43.861  33.679  47.671  0.00  0.00    +0.000 HD
ENDBRANCH  11  16
ENDBRANCH   5   9
BRANCH   1  19
ATOM     19  C   UNL     1      46.925  34.985  41.979  0.00  0.00    +0.000 C 
ATOM     20  O   UNL     1      48.100  35.489  41.880  0.00  0.00    +0.000 OA
ATOM     21  N   UNL     1      46.345  34.677  40.697  0.00  0.00    +0.000 N 
ATOM     22  H   UNL     1      45.645  35.476  40.716  0.00  0.00    +0.000 HD
ATOM     23  H   UNL     1      46.290  34.088  39.828  0.00  0.00    +0.000 HD
ENDBRANCH   1  19
TORSDOF 3
