
 OpenBabel03252508523D

 22 23  0  0  0  0  0  0  0  0999 V2000
   38.5560   31.2130   40.8120 C   0  0  0  0  0  0  0  0  0  0  0  0
   37.3790   31.6040   40.1460 C   0  0  0  0  0  0  0  0  0  0  0  0
   37.2660   32.9470   39.7760 C   0  0  0  0  0  0  0  0  0  0  0  0
   38.2920   33.7880   40.0780 N   0  0  0  0  0  0  0  0  0  0  0  0
   39.3970   33.3740   40.7150 C   0  0  0  0  0  0  0  0  0  0  0  0
   39.5320   32.0810   41.0850 N   0  0  0  0  0  0  0  0  0  0  0  0
   36.3620   33.2580   39.2620 H   0  0  0  0  0  0  0  0  0  0  0  0
   40.1720   34.1000   40.9220 H   0  0  0  0  0  0  0  0  0  0  0  0
   36.3480   30.6180   39.8760 C   0  0  0  0  0  0  0  0  0  0  0  0
   36.2050   29.9930   38.6410 C   0  0  0  0  0  0  0  0  0  0  0  0
   35.1260   29.1530   38.8290 C   0  0  0  0  0  0  0  0  0  0  0  0
   34.6380   29.2520   40.0860 N   0  0  0  0  0  0  0  0  0  0  0  0
   35.4010   30.1420   40.6830 N   0  0  0  0  0  0  0  0  0  0  0  0
   36.8060   30.1440   37.7560 H   0  0  0  0  0  0  0  0  0  0  0  0
   34.7710   28.5180   38.0130 H   0  0  0  0  0  0  0  0  0  0  0  0
   33.8220   28.6920   40.4160 H   0  0  0  0  0  0  0  0  0  0  0  0
   38.6780   29.8920   41.1830 O   0  0  0  0  0  0  0  0  0  0  0  0
   38.3770   29.3740   42.4180 C   0  0  0  0  0  0  0  0  0  0  0  0
   39.1410   28.7530   43.2220 O   0  0  0  0  0  0  0  0  0  0  0  0
   37.2020   29.3070   43.2600 N   0  0  0  0  0  0  0  0  0  0  0  0
   37.0160   29.9540   44.0590 H   0  0  0  0  0  0  0  0  0  0  0  0
   36.5860   28.5250   42.9480 H   0  0  0  0  0  0  0  0  0  0  0  0
  1  6  1  0  0  0  0
  1 17  1  0  0  0  0
  2  1  2  0  0  0  0
  3  4  2  0  0  0  0
  3  2  1  0  0  0  0
  4  5  1  0  0  0  0
  5  8  1  0  0  0  0
  5  6  2  0  0  0  0
  7  3  1  0  0  0  0
  9  2  1  0  0  0  0
  9 13  2  0  0  0  0
 10 11  2  0  0  0  0
 10  9  1  0  0  0  0
 11 12  1  0  0  0  0
 12 16  1  0  0  0  0
 12 13  1  0  0  0  0
 14 10  1  0  0  0  0
 15 11  1  0  0  0  0
 17 18  1  0  0  0  0
 18 19  2  0  0  0  0
 18 20  1  0  0  0  0
 20 21  1  0  0  0  0
 22 20  1  0  0  0  0
M  END
>  <minimizedAffinity>
-4.35856438

$$$$

 OpenBabel03252508523D

 22 23  0  0  0  0  0  0  0  0999 V2000
   36.5900   30.2990   39.9480 C   0  0  0  0  0  0  0  0  0  0  0  0
   37.3560   31.2120   39.2000 C   0  0  0  0  0  0  0  0  0  0  0  0
   37.3240   31.0890   37.8080 C   0  0  0  0  0  0  0  0  0  0  0  0
   36.5610   30.1030   37.2650 N   0  0  0  0  0  0  0  0  0  0  0  0
   35.8450   29.2520   38.0160 C   0  0  0  0  0  0  0  0  0  0  0  0
   35.8580   29.3480   39.3640 N   0  0  0  0  0  0  0  0  0  0  0  0
   37.9120   31.7890   37.2220 H   0  0  0  0  0  0  0  0  0  0  0  0
   35.2610   28.4920   37.5130 H   0  0  0  0  0  0  0  0  0  0  0  0
   38.1350   32.2260   39.8880 C   0  0  0  0  0  0  0  0  0  0  0  0
   37.7910   33.5740   39.8860 C   0  0  0  0  0  0  0  0  0  0  0  0
   38.7840   34.1600   40.6440 C   0  0  0  0  0  0  0  0  0  0  0  0
   39.6760   33.2430   41.0830 N   0  0  0  0  0  0  0  0  0  0  0  0
   39.2490   32.0930   40.6070 N   0  0  0  0  0  0  0  0  0  0  0  0
   36.9440   34.0340   39.3990 H   0  0  0  0  0  0  0  0  0  0  0  0
   38.7790   35.2390   40.8230 H   0  0  0  0  0  0  0  0  0  0  0  0
   40.4980   33.4970   41.6720 H   0  0  0  0  0  0  0  0  0  0  0  0
   36.6140   30.4110   41.3210 O   0  0  0  0  0  0  0  0  0  0  0  0
   37.2310   29.5410   42.1860 C   0  0  0  0  0  0  0  0  0  0  0  0
   38.1820   28.7310   41.9470 O   0  0  0  0  0  0  0  0  0  0  0  0
   37.0990   29.1940   43.5840 N   0  0  0  0  0  0  0  0  0  0  0  0
   37.7120   29.5690   44.3410 H   0  0  0  0  0  0  0  0  0  0  0  0
   36.3090   28.5230   43.7090 H   0  0  0  0  0  0  0  0  0  0  0  0
  1 17  1  0  0  0  0
  2  9  1  0  0  0  0
  2  1  2  0  0  0  0
  3  2  1  0  0  0  0
  4  3  2  0  0  0  0
  4  5  1  0  0  0  0
  5  6  2  0  0  0  0
  6  1  1  0  0  0  0
  7  3  1  0  0  0  0
  8  5  1  0  0  0  0
  9 13  2  0  0  0  0
 10  9  1  0  0  0  0
 10 11  2  0  0  0  0
 11 15  1  0  0  0  0
 11 12  1  0  0  0  0
 12 16  1  0  0  0  0
 13 12  1  0  0  0  0
 14 10  1  0  0  0  0
 17 18  1  0  0  0  0
 18 20  1  0  0  0  0
 19 18  2  0  0  0  0
 20 22  1  0  0  0  0
 20 21  1  0  0  0  0
M  END
>  <minimizedAffinity>
-4.33648062

$$$$

 OpenBabel03252508523D

 22 23  0  0  0  0  0  0  0  0999 V2000
   37.4730   28.2110   41.8500 C   0  0  0  0  0  0  0  0  0  0  0  0
   38.2280   27.0230   41.8330 C   0  0  0  0  0  0  0  0  0  0  0  0
   39.4940   27.0590   42.4220 C   0  0  0  0  0  0  0  0  0  0  0  0
   39.9180   28.2290   42.9710 N   0  0  0  0  0  0  0  0  0  0  0  0
   39.1660   29.3390   42.9650 C   0  0  0  0  0  0  0  0  0  0  0  0
   37.9370   29.3340   42.4020 N   0  0  0  0  0  0  0  0  0  0  0  0
   40.0840   26.1470   42.4140 H   0  0  0  0  0  0  0  0  0  0  0  0
   39.5700   30.2340   43.4210 H   0  0  0  0  0  0  0  0  0  0  0  0
   37.6740   25.8300   41.2170 C   0  0  0  0  0  0  0  0  0  0  0  0
   37.0010   24.8490   41.9390 C   0  0  0  0  0  0  0  0  0  0  0  0
   36.6560   23.9230   40.9770 C   0  0  0  0  0  0  0  0  0  0  0  0
   37.0820   24.3030   39.7510 N   0  0  0  0  0  0  0  0  0  0  0  0
   37.6880   25.4550   39.9390 N   0  0  0  0  0  0  0  0  0  0  0  0
   36.8080   24.8340   43.0010 H   0  0  0  0  0  0  0  0  0  0  0  0
   36.1050   23.0190   41.2520 H   0  0  0  0  0  0  0  0  0  0  0  0
   36.9130   23.7300   38.8960 H   0  0  0  0  0  0  0  0  0  0  0  0
   36.2230   28.1880   41.2720 O   0  0  0  0  0  0  0  0  0  0  0  0
   35.5320   29.2810   40.8120 C   0  0  0  0  0  0  0  0  0  0  0  0
   34.6180   29.3240   39.9290 O   0  0  0  0  0  0  0  0  0  0  0  0
   35.5290   30.7020   41.0860 N   0  0  0  0  0  0  0  0  0  0  0  0
   34.8400   31.1770   41.7100 H   0  0  0  0  0  0  0  0  0  0  0  0
   36.3090   31.1640   40.5690 H   0  0  0  0  0  0  0  0  0  0  0  0
  1  6  1  0  0  0  0
  2  1  2  0  0  0  0
  2  3  1  0  0  0  0
  3  4  2  0  0  0  0
  5  4  1  0  0  0  0
  5  8  1  0  0  0  0
  6  5  2  0  0  0  0
  7  3  1  0  0  0  0
  9  2  1  0  0  0  0
  9 10  1  0  0  0  0
 10 14  1  0  0  0  0
 11 15  1  0  0  0  0
 11 10  2  0  0  0  0
 12 13  1  0  0  0  0
 12 11  1  0  0  0  0
 13  9  2  0  0  0  0
 16 12  1  0  0  0  0
 17  1  1  0  0  0  0
 18 20  1  0  0  0  0
 18 17  1  0  0  0  0
 19 18  2  0  0  0  0
 20 21  1  0  0  0  0
 22 20  1  0  0  0  0
M  END
>  <minimizedAffinity>
-4.2692771

$$$$

 OpenBabel03252508523D

 22 23  0  0  0  0  0  0  0  0999 V2000
   39.6760   30.8740   39.9060 C   0  0  0  0  0  0  0  0  0  0  0  0
   38.9650   30.6900   41.1060 C   0  0  0  0  0  0  0  0  0  0  0  0
   39.6450   30.9450   42.3000 C   0  0  0  0  0  0  0  0  0  0  0  0
   40.9410   31.3520   42.2310 N   0  0  0  0  0  0  0  0  0  0  0  0
   41.5820   31.5150   41.0630 C   0  0  0  0  0  0  0  0  0  0  0  0
   40.9490   31.2740   39.8930 N   0  0  0  0  0  0  0  0  0  0  0  0
   39.1050   30.8070   43.2320 H   0  0  0  0  0  0  0  0  0  0  0  0
   42.6130   31.8410   41.0860 H   0  0  0  0  0  0  0  0  0  0  0  0
   37.5820   30.2520   41.0610 C   0  0  0  0  0  0  0  0  0  0  0  0
   37.2110   28.9120   41.1100 C   0  0  0  0  0  0  0  0  0  0  0  0
   35.8340   28.9560   41.0410 C   0  0  0  0  0  0  0  0  0  0  0  0
   35.3850   30.2290   40.9570 N   0  0  0  0  0  0  0  0  0  0  0  0
   36.4670   30.9770   40.9730 N   0  0  0  0  0  0  0  0  0  0  0  0
   37.8630   28.0540   41.1820 H   0  0  0  0  0  0  0  0  0  0  0  0
   35.2490   28.0320   41.0590 H   0  0  0  0  0  0  0  0  0  0  0  0
   34.3710   30.4640   40.8970 H   0  0  0  0  0  0  0  0  0  0  0  0
   39.0160   30.6250   38.7220 O   0  0  0  0  0  0  0  0  0  0  0  0
   38.9040   31.4970   37.6670 C   0  0  0  0  0  0  0  0  0  0  0  0
   37.8590   31.8250   37.0210 O   0  0  0  0  0  0  0  0  0  0  0  0
   39.8080   32.3320   36.9060 N   0  0  0  0  0  0  0  0  0  0  0  0
   39.9360   33.3550   37.0680 H   0  0  0  0  0  0  0  0  0  0  0  0
   40.2990   31.7580   36.1860 H   0  0  0  0  0  0  0  0  0  0  0  0
  1  2  1  0  0  0  0
  2  3  2  0  0  0  0
  3  7  1  0  0  0  0
  4  3  1  0  0  0  0
  5  8  1  0  0  0  0
  5  4  2  0  0  0  0
  6  1  2  0  0  0  0
  6  5  1  0  0  0  0
  9  2  1  0  0  0  0
  9 10  1  0  0  0  0
 10 14  1  0  0  0  0
 11 15  1  0  0  0  0
 11 10  2  0  0  0  0
 12 13  1  0  0  0  0
 12 11  1  0  0  0  0
 13  9  2  0  0  0  0
 16 12  1  0  0  0  0
 17  1  1  0  0  0  0
 18 17  1  0  0  0  0
 19 18  2  0  0  0  0
 20 21  1  0  0  0  0
 20 18  1  0  0  0  0
 22 20  1  0  0  0  0
M  END
>  <minimizedAffinity>
-4.26872206

$$$$

 OpenBabel03252508523D

 22 23  0  0  0  0  0  0  0  0999 V2000
   37.6370   29.9760   38.9770 C   0  0  0  0  0  0  0  0  0  0  0  0
   37.7760   31.2260   38.3460 C   0  0  0  0  0  0  0  0  0  0  0  0
   37.5230   31.2840   36.9730 C   0  0  0  0  0  0  0  0  0  0  0  0
   37.1620   30.1380   36.3350 N   0  0  0  0  0  0  0  0  0  0  0  0
   37.0420   28.9660   36.9760 C   0  0  0  0  0  0  0  0  0  0  0  0
   37.2800   28.8810   38.3030 N   0  0  0  0  0  0  0  0  0  0  0  0
   37.6270   32.2440   36.4770 H   0  0  0  0  0  0  0  0  0  0  0  0
   36.7500   28.0960   36.4020 H   0  0  0  0  0  0  0  0  0  0  0  0
   38.1680   32.3850   39.1290 C   0  0  0  0  0  0  0  0  0  0  0  0
   39.4830   32.8310   39.2130 C   0  0  0  0  0  0  0  0  0  0  0  0
   39.3970   33.9310   40.0410 C   0  0  0  0  0  0  0  0  0  0  0  0
   38.1230   34.1500   40.4390 N   0  0  0  0  0  0  0  0  0  0  0  0
   37.4160   33.2000   39.8680 N   0  0  0  0  0  0  0  0  0  0  0  0
   40.3520   32.4020   38.7370 H   0  0  0  0  0  0  0  0  0  0  0  0
   40.2940   34.5030   40.2950 H   0  0  0  0  0  0  0  0  0  0  0  0
   37.8610   34.9390   41.0690 H   0  0  0  0  0  0  0  0  0  0  0  0
   37.8840   29.9070   40.3320 O   0  0  0  0  0  0  0  0  0  0  0  0
   36.9540   30.0810   41.3260 C   0  0  0  0  0  0  0  0  0  0  0  0
   36.9060   29.5240   42.4680 O   0  0  0  0  0  0  0  0  0  0  0  0
   35.7590   30.8760   41.5070 N   0  0  0  0  0  0  0  0  0  0  0  0
   35.7290   31.7780   42.0320 H   0  0  0  0  0  0  0  0  0  0  0  0
   34.9500   30.4110   41.0380 H   0  0  0  0  0  0  0  0  0  0  0  0
  1 17  1  0  0  0  0
  2  1  1  0  0  0  0
  2  9  1  0  0  0  0
  3  2  2  0  0  0  0
  4  3  1  0  0  0  0
  4  5  2  0  0  0  0
  5  6  1  0  0  0  0
  6  1  2  0  0  0  0
  7  3  1  0  0  0  0
  8  5  1  0  0  0  0
  9 10  1  0  0  0  0
  9 13  2  0  0  0  0
 10 11  2  0  0  0  0
 11 15  1  0  0  0  0
 11 12  1  0  0  0  0
 12 16  1  0  0  0  0
 13 12  1  0  0  0  0
 14 10  1  0  0  0  0
 17 18  1  0  0  0  0
 18 20  1  0  0  0  0
 18 19  2  0  0  0  0
 20 21  1  0  0  0  0
 22 20  1  0  0  0  0
M  END
>  <minimizedAffinity>
-4.26676178

$$$$

 OpenBabel03252508523D

 22 23  0  0  0  0  0  0  0  0999 V2000
   39.4250   25.8080   42.8030 C   0  0  0  0  0  0  0  0  0  0  0  0
   39.7320   27.1730   42.9520 C   0  0  0  0  0  0  0  0  0  0  0  0
   41.0590   27.5050   43.2410 C   0  0  0  0  0  0  0  0  0  0  0  0
   41.9650   26.4970   43.3590 N   0  0  0  0  0  0  0  0  0  0  0  0
   41.6280   25.2070   43.2090 C   0  0  0  0  0  0  0  0  0  0  0  0
   40.3530   24.8580   42.9300 N   0  0  0  0  0  0  0  0  0  0  0  0
   41.3060   28.5550   43.3570 H   0  0  0  0  0  0  0  0  0  0  0  0
   42.4030   24.4590   43.3180 H   0  0  0  0  0  0  0  0  0  0  0  0
   38.6820   28.1650   42.8040 C   0  0  0  0  0  0  0  0  0  0  0  0
   38.4940   28.8980   41.6370 C   0  0  0  0  0  0  0  0  0  0  0  0
   37.4120   29.7010   41.9330 C   0  0  0  0  0  0  0  0  0  0  0  0
   36.9640   29.4810   43.1900 N   0  0  0  0  0  0  0  0  0  0  0  0
   37.7540   28.5500   43.6790 N   0  0  0  0  0  0  0  0  0  0  0  0
   39.0700   28.8390   40.7250 H   0  0  0  0  0  0  0  0  0  0  0  0
   37.0240   30.4030   41.1890 H   0  0  0  0  0  0  0  0  0  0  0  0
   36.1510   29.9950   43.5930 H   0  0  0  0  0  0  0  0  0  0  0  0
   38.1190   25.4690   42.5190 O   0  0  0  0  0  0  0  0  0  0  0  0
   37.7100   24.3340   41.8640 C   0  0  0  0  0  0  0  0  0  0  0  0
   36.5720   24.0820   41.3570 O   0  0  0  0  0  0  0  0  0  0  0  0
   38.3100   23.0690   41.4990 N   0  0  0  0  0  0  0  0  0  0  0  0
   38.6930   22.8540   40.5510 H   0  0  0  0  0  0  0  0  0  0  0  0
   38.2970   22.4210   42.3170 H   0  0  0  0  0  0  0  0  0  0  0  0
  1  6  2  0  0  0  0
  1  2  1  0  0  0  0
  2  3  2  0  0  0  0
  3  7  1  0  0  0  0
  3  4  1  0  0  0  0
  5  8  1  0  0  0  0
  5  4  2  0  0  0  0
  6  5  1  0  0  0  0
  9  2  1  0  0  0  0
  9 13  2  0  0  0  0
 10 11  2  0  0  0  0
 10  9  1  0  0  0  0
 11 12  1  0  0  0  0
 12 16  1  0  0  0  0
 12 13  1  0  0  0  0
 14 10  1  0  0  0  0
 15 11  1  0  0  0  0
 17  1  1  0  0  0  0
 18 17  1  0  0  0  0
 19 18  2  0  0  0  0
 20 18  1  0  0  0  0
 20 22  1  0  0  0  0
 21 20  1  0  0  0  0
M  END
>  <minimizedAffinity>
-4.21925735

$$$$

 OpenBabel03252508523D

 22 23  0  0  0  0  0  0  0  0999 V2000
   36.6150   26.5330   39.9850 C   0  0  0  0  0  0  0  0  0  0  0  0
   37.0330   26.2780   41.3040 C   0  0  0  0  0  0  0  0  0  0  0  0
   37.0990   24.9420   41.7090 C   0  0  0  0  0  0  0  0  0  0  0  0
   36.7580   23.9780   40.8120 N   0  0  0  0  0  0  0  0  0  0  0  0
   36.3640   24.2660   39.5630 C   0  0  0  0  0  0  0  0  0  0  0  0
   36.2910   25.5490   39.1440 N   0  0  0  0  0  0  0  0  0  0  0  0
   37.4200   24.7340   42.7250 H   0  0  0  0  0  0  0  0  0  0  0  0
   36.1080   23.4460   38.9040 H   0  0  0  0  0  0  0  0  0  0  0  0
   37.3720   27.3870   42.1770 C   0  0  0  0  0  0  0  0  0  0  0  0
   38.6500   27.9330   42.2440 C   0  0  0  0  0  0  0  0  0  0  0  0
   38.5210   28.9400   43.1780 C   0  0  0  0  0  0  0  0  0  0  0  0
   37.2560   29.0140   43.6520 N   0  0  0  0  0  0  0  0  0  0  0  0
   36.5970   28.0640   43.0240 N   0  0  0  0  0  0  0  0  0  0  0  0
   39.5240   27.6240   41.6910 H   0  0  0  0  0  0  0  0  0  0  0  0
   39.3810   29.5590   43.4460 H   0  0  0  0  0  0  0  0  0  0  0  0
   36.9650   29.7160   44.3660 H   0  0  0  0  0  0  0  0  0  0  0  0
   36.5450   27.8470   39.5740 O   0  0  0  0  0  0  0  0  0  0  0  0
   35.4490   28.6650   39.6860 C   0  0  0  0  0  0  0  0  0  0  0  0
   34.4760   28.7960   38.8780 O   0  0  0  0  0  0  0  0  0  0  0  0
   34.9620   29.6290   40.6500 N   0  0  0  0  0  0  0  0  0  0  0  0
   34.2350   29.4200   41.3690 H   0  0  0  0  0  0  0  0  0  0  0  0
   35.4440   30.5430   40.5110 H   0  0  0  0  0  0  0  0  0  0  0  0
  1  2  1  0  0  0  0
  2  3  2  0  0  0  0
  2  9  1  0  0  0  0
  3  7  1  0  0  0  0
  4  3  1  0  0  0  0
  5  4  2  0  0  0  0
  6  5  1  0  0  0  0
  6  1  2  0  0  0  0
  8  5  1  0  0  0  0
  9 10  1  0  0  0  0
  9 13  2  0  0  0  0
 10 11  2  0  0  0  0
 11 15  1  0  0  0  0
 11 12  1  0  0  0  0
 12 16  1  0  0  0  0
 13 12  1  0  0  0  0
 14 10  1  0  0  0  0
 17 18  1  0  0  0  0
 17  1  1  0  0  0  0
 18 20  1  0  0  0  0
 19 18  2  0  0  0  0
 20 21  1  0  0  0  0
 22 20  1  0  0  0  0
M  END
>  <minimizedAffinity>
-4.21618557

$$$$

 OpenBabel03252508523D

 22 23  0  0  0  0  0  0  0  0999 V2000
   38.9510   30.8030   41.5980 C   0  0  0  0  0  0  0  0  0  0  0  0
   39.2890   29.6000   42.2460 C   0  0  0  0  0  0  0  0  0  0  0  0
   40.6170   29.4380   42.6480 C   0  0  0  0  0  0  0  0  0  0  0  0
   41.4960   30.4450   42.3930 N   0  0  0  0  0  0  0  0  0  0  0  0
   41.1320   31.5760   41.7720 C   0  0  0  0  0  0  0  0  0  0  0  0
   39.8540   31.7590   41.3710 N   0  0  0  0  0  0  0  0  0  0  0  0
   40.8880   28.5130   43.1490 H   0  0  0  0  0  0  0  0  0  0  0  0
   41.8870   32.3330   41.6020 H   0  0  0  0  0  0  0  0  0  0  0  0
   38.2660   28.5930   42.4660 C   0  0  0  0  0  0  0  0  0  0  0  0
   37.5050   28.5300   43.6290 C   0  0  0  0  0  0  0  0  0  0  0  0
   36.6790   27.4470   43.4140 C   0  0  0  0  0  0  0  0  0  0  0  0
   36.9100   26.8810   42.2070 N   0  0  0  0  0  0  0  0  0  0  0  0
   37.8710   27.6010   41.6690 N   0  0  0  0  0  0  0  0  0  0  0  0
   37.5640   29.1830   44.4870 H   0  0  0  0  0  0  0  0  0  0  0  0
   35.9520   27.1460   44.1740 H   0  0  0  0  0  0  0  0  0  0  0  0
   36.3810   26.0500   41.8660 H   0  0  0  0  0  0  0  0  0  0  0  0
   37.6440   30.9740   41.1960 O   0  0  0  0  0  0  0  0  0  0  0  0
   37.2060   31.8700   40.2540 C   0  0  0  0  0  0  0  0  0  0  0  0
   36.7110   31.6320   39.1070 O   0  0  0  0  0  0  0  0  0  0  0  0
   37.1180   33.3110   40.1480 N   0  0  0  0  0  0  0  0  0  0  0  0
   36.2460   33.8590   40.3250 H   0  0  0  0  0  0  0  0  0  0  0  0
   38.0450   33.7030   39.8730 H   0  0  0  0  0  0  0  0  0  0  0  0
  1  2  1  0  0  0  0
  2  9  1  0  0  0  0
  2  3  2  0  0  0  0
  3  7  1  0  0  0  0
  4  3  1  0  0  0  0
  5  4  2  0  0  0  0
  6  1  2  0  0  0  0
  6  5  1  0  0  0  0
  8  5  1  0  0  0  0
  9 10  1  0  0  0  0
 10 14  1  0  0  0  0
 11 10  2  0  0  0  0
 11 15  1  0  0  0  0
 12 11  1  0  0  0  0
 13 12  1  0  0  0  0
 13  9  2  0  0  0  0
 16 12  1  0  0  0  0
 17  1  1  0  0  0  0
 18 17  1  0  0  0  0
 19 18  2  0  0  0  0
 20 18  1  0  0  0  0
 20 21  1  0  0  0  0
 22 20  1  0  0  0  0
M  END
>  <minimizedAffinity>
-4.17172289

$$$$

 OpenBabel03252508523D

 22 23  0  0  0  0  0  0  0  0999 V2000
   37.8220   30.8750   39.2050 C   0  0  0  0  0  0  0  0  0  0  0  0
   37.5190   29.6060   39.7350 C   0  0  0  0  0  0  0  0  0  0  0  0
   37.0800   28.6260   38.8410 C   0  0  0  0  0  0  0  0  0  0  0  0
   36.9730   28.9530   37.5250 N   0  0  0  0  0  0  0  0  0  0  0  0
   37.2720   30.1760   37.0620 C   0  0  0  0  0  0  0  0  0  0  0  0
   37.6990   31.1440   37.9040 N   0  0  0  0  0  0  0  0  0  0  0  0
   36.8440   27.6440   39.2400 H   0  0  0  0  0  0  0  0  0  0  0  0
   37.1630   30.3640   36.0020 H   0  0  0  0  0  0  0  0  0  0  0  0
   37.6700   29.3690   41.1590 C   0  0  0  0  0  0  0  0  0  0  0  0
   38.7840   28.7390   41.7070 C   0  0  0  0  0  0  0  0  0  0  0  0
   38.5120   28.7270   43.0590 C   0  0  0  0  0  0  0  0  0  0  0  0
   37.3200   29.3060   43.3290 N   0  0  0  0  0  0  0  0  0  0  0  0
   36.8470   29.6800   42.1600 N   0  0  0  0  0  0  0  0  0  0  0  0
   39.6450   28.3560   41.1800 H   0  0  0  0  0  0  0  0  0  0  0  0
   39.2240   28.2840   43.7620 H   0  0  0  0  0  0  0  0  0  0  0  0
   36.9440   29.3910   44.2980 H   0  0  0  0  0  0  0  0  0  0  0  0
   38.2560   31.8500   40.0770 O   0  0  0  0  0  0  0  0  0  0  0  0
   37.9650   33.1890   39.9920 C   0  0  0  0  0  0  0  0  0  0  0  0
   38.5370   34.1610   40.5790 O   0  0  0  0  0  0  0  0  0  0  0  0
   36.9970   34.0010   39.2860 N   0  0  0  0  0  0  0  0  0  0  0  0
   37.2000   34.5170   38.4020 H   0  0  0  0  0  0  0  0  0  0  0  0
   36.0850   33.9880   39.7940 H   0  0  0  0  0  0  0  0  0  0  0  0
  1  2  1  0  0  0  0
  1 17  1  0  0  0  0
  2  9  1  0  0  0  0
  3  7  1  0  0  0  0
  3  2  2  0  0  0  0
  4  3  1  0  0  0  0
  5  4  2  0  0  0  0
  5  6  1  0  0  0  0
  6  1  2  0  0  0  0
  8  5  1  0  0  0  0
  9 10  1  0  0  0  0
  9 13  2  0  0  0  0
 10 11  2  0  0  0  0
 11 12  1  0  0  0  0
 11 15  1  0  0  0  0
 12 16  1  0  0  0  0
 13 12  1  0  0  0  0
 14 10  1  0  0  0  0
 18 17  1  0  0  0  0
 18 19  2  0  0  0  0
 20 22  1  0  0  0  0
 20 18  1  0  0  0  0
 21 20  1  0  0  0  0
M  END
>  <minimizedAffinity>
-4.1575675

$$$$
