
 OpenBabel03252509323D

 34 35  0  0  1  0  0  0  0  0999 V2000
   44.6360   35.2550   45.1370 O   0  0  0  0  0  0  0  0  0  0  0  0
   45.4490   34.2640   44.3760 P   0  0  2  0  0  0  0  0  0  0  0  0
   44.5180   33.0570   43.6770 O   0  0  0  0  0  0  0  0  0  0  0  0
   44.8180   32.7810   42.7810 H   0  0  0  0  0  0  0  0  0  0  0  0
   46.5090   33.4690   45.4390 O   0  0  0  0  0  0  0  0  0  0  0  0
   46.1910   32.1440   45.4430 C   0  0  0  0  0  0  0  0  0  0  0  0
   45.4330   31.7800   44.7690 H   0  0  0  0  0  0  0  0  0  0  0  0
   47.1390   31.6050   45.1380 H   0  0  0  0  0  0  0  0  0  0  0  0
   45.7490   32.0200   49.1330 C   0  0  0  0  0  0  0  0  0  0  0  0
   46.0430   32.5110   47.8570 C   0  0  0  0  0  0  0  0  0  0  0  0
   45.8870   31.6470   46.7880 C   0  0  0  0  0  0  0  0  0  0  0  0
   45.4560   30.3680   47.0340 N   0  0  0  0  0  0  0  0  0  0  0  0
   45.1820   29.9340   48.2840 C   0  0  0  0  0  0  0  0  0  0  0  0
   45.3300   30.7560   49.3130 N   0  0  0  0  0  0  0  0  0  0  0  0
   45.8740   32.7000   49.9540 H   0  0  0  0  0  0  0  0  0  0  0  0
   46.3780   33.5230   47.7190 H   0  0  0  0  0  0  0  0  0  0  0  0
   44.8430   28.9180   48.4480 H   0  0  0  0  0  0  0  0  0  0  0  0
   46.3860   35.0700   43.2330 O   0  0  0  0  0  0  0  0  0  0  0  0
   46.9150   34.1390   42.3390 C   0  0  1  0  0  0  0  0  0  0  0  0
   46.4390   34.3310   40.9250 C   0  0  0  0  0  0  0  0  0  0  0  0
   47.4250   33.4740   40.1610 C   0  0  0  0  0  0  0  0  0  0  0  0
   48.7020   33.4560   40.9860 C   0  0  0  0  0  0  0  0  0  0  0  0
   48.4170   34.3950   42.1550 C   0  0  1  0  0  0  0  0  0  0  0  0
   46.8060   33.1000   42.6510 H   0  0  0  0  0  0  0  0  0  0  0  0
   46.4530   35.3760   40.6110 H   0  0  0  0  0  0  0  0  0  0  0  0
   45.4530   33.8580   40.8060 H   0  0  0  0  0  0  0  0  0  0  0  0
   47.0470   32.4460   39.9650 H   0  0  0  0  0  0  0  0  0  0  0  0
   47.6670   33.9950   39.2240 H   0  0  0  0  0  0  0  0  0  0  0  0
   49.5960   33.7640   40.4190 H   0  0  0  0  0  0  0  0  0  0  0  0
   48.7890   32.4360   41.4180 H   0  0  0  0  0  0  0  0  0  0  0  0
   48.9580   34.1000   43.0530 H   0  0  0  0  0  0  0  0  0  0  0  0
   48.6820   35.7500   41.7140 N   0  0  0  0  0  0  0  0  0  0  0  0
   49.6250   35.8730   41.2770 H   0  0  0  0  0  0  0  0  0  0  0  0
   47.9940   35.9440   40.9510 H   0  0  0  0  0  0  0  0  0  0  0  0
  2  1  2  1  0  0  0
  2  5  1  0  0  0  0
  3  2  1  0  0  0  0
  4  3  1  0  0  0  0
  5  6  1  0  0  0  0
  6 11  1  0  0  0  0
  7  6  1  0  0  0  0
  8  6  1  0  0  0  0
  9 14  1  0  0  0  0
  9 15  1  0  0  0  0
 10  9  2  0  0  0  0
 11 12  2  0  0  0  0
 11 10  1  0  0  0  0
 12 13  1  0  0  0  0
 13 17  1  0  0  0  0
 13 14  2  0  0  0  0
 16 10  1  0  0  0  0
 18  2  1  0  0  0  0
 19 24  1  1  0  0  0
 19 18  1  0  0  0  0
 20 19  1  0  0  0  0
 21 20  1  0  0  0  0
 21 22  1  0  0  0  0
 22 30  1  0  0  0  0
 22 23  1  0  0  0  0
 23 19  1  0  0  0  0
 23 31  1  1  0  0  0
 25 20  1  0  0  0  0
 26 20  1  0  0  0  0
 27 21  1  0  0  0  0
 28 21  1  0  0  0  0
 29 22  1  0  0  0  0
 32 23  1  0  0  0  0
 33 32  1  0  0  0  0
 34 32  1  0  0  0  0
M  END
>  <minimizedAffinity>
-4.82074976

>  <minimizedRMSD>
0.380038559

$$$$
