
 OpenBabel03242517203D

 27 28  0  0  1  0  0  0  0  0999 V2000
   44.4850   36.0940   44.7680 C   0  0  0  0  0  0  0  0  0  0  0  0
   44.8020   35.9380   43.4190 C   0  0  0  0  0  0  0  0  0  0  0  0
   45.4310   34.7660   42.9970 C   0  0  0  0  0  0  0  0  0  0  0  0
   45.7030   33.8240   43.9470 N   0  0  0  0  0  0  0  0  0  0  0  0
   45.3930   33.9870   45.2400 C   0  0  0  0  0  0  0  0  0  0  0  0
   44.7870   35.1230   45.6260 N   0  0  0  0  0  0  0  0  0  0  0  0
   45.6930   32.9750   46.2150 N   0  0  0  0  0  0  0  0  0  0  0  0
   45.1530   33.1520   47.5390 C   0  0  0  0  0  0  0  0  0  0  0  0
   45.6570   32.2050   48.5560 C   0  0  0  0  0  0  0  0  0  0  0  0
   45.9550   30.8700   47.9210 C   0  0  0  0  0  0  0  0  0  0  0  0
   47.1130   31.1490   46.9720 C   0  0  0  0  0  0  0  0  0  0  0  0
   46.5170   31.8570   45.7810 C   0  0  2  0  0  0  0  0  0  0  0  0
   43.9930   37.0060   45.1100 H   0  0  0  0  0  0  0  0  0  0  0  0
   44.5590   36.7290   42.7040 H   0  0  0  0  0  0  0  0  0  0  0  0
   45.6930   34.6050   41.9610 H   0  0  0  0  0  0  0  0  0  0  0  0
   45.4830   34.1780   47.8570 H   0  0  0  0  0  0  0  0  0  0  0  0
   44.0580   33.1610   47.5600 H   0  0  0  0  0  0  0  0  0  0  0  0
   46.6210   32.5970   48.9940 H   0  0  0  0  0  0  0  0  0  0  0  0
   44.9660   32.0920   49.3910 H   0  0  0  0  0  0  0  0  0  0  0  0
   46.1450   30.0560   48.6230 H   0  0  0  0  0  0  0  0  0  0  0  0
   45.0580   30.5890   47.3120 H   0  0  0  0  0  0  0  0  0  0  0  0
   47.8410   31.8050   47.4470 H   0  0  0  0  0  0  0  0  0  0  0  0
   47.5500   30.1870   46.5910 H   0  0  0  0  0  0  0  0  0  0  0  0
   45.9200   31.2050   45.1480 H   0  0  0  0  0  0  0  0  0  0  0  0
   47.6280   32.4440   45.0450 N   0  0  0  0  0  0  0  0  0  0  0  0
   47.3080   32.9950   44.2160 H   0  0  0  0  0  0  0  0  0  0  0  0
   48.2880   31.6870   44.7250 H   0  0  0  0  0  0  0  0  0  0  0  0
  1 13  1  0  0  0  0
  1  6  1  0  0  0  0
  2  1  2  0  0  0  0
  3  2  1  0  0  0  0
  3  4  2  0  0  0  0
  4  5  1  0  0  0  0
  5  6  2  0  0  0  0
  5  7  1  0  0  0  0
  7  8  1  0  0  0  0
  8 17  1  0  0  0  0
  8 16  1  0  0  0  0
  8  9  1  0  0  0  0
  9 18  1  0  0  0  0
  9 19  1  0  0  0  0
 10  9  1  0  0  0  0
 10 20  1  0  0  0  0
 11 22  1  0  0  0  0
 11 10  1  0  0  0  0
 12 24  1  6  0  0  0
 12  7  1  0  0  0  0
 12 11  1  0  0  0  0
 14  2  1  0  0  0  0
 15  3  1  0  0  0  0
 21 10  1  0  0  0  0
 23 11  1  0  0  0  0
 25 12  1  0  0  0  0
 26 25  1  0  0  0  0
 27 25  1  0  0  0  0
M  END
>  <minimizedAffinity>
-4.36784077

>  <minimizedRMSD>
0.788833916

$$$$
