
     RDKit          3D

 34 35  0  0  0  0  0  0  0  0999 V2000
   46.1777   32.0879   45.4341 C   0  0  0  0  0  0  0  0  0  0  0  0
   45.7701   32.0247   49.1305 C   0  0  0  0  0  0  0  0  0  0  0  0
   46.0578   32.4935   47.8437 C   0  0  0  0  0  0  0  0  0  0  0  0
   45.8813   31.6153   46.7894 C   0  0  0  0  0  0  0  0  0  0  0  0
   45.4381   30.3446   47.0591 N   0  0  0  0  0  0  0  0  0  0  0  0
   45.1718   29.9325   48.3183 C   0  0  0  0  0  0  0  0  0  0  0  0
   45.3389   30.7690   49.3325 N   0  0  0  0  0  0  0  0  0  0  0  0
   46.5450   33.4004   45.4108 O   0  0  0  0  0  0  0  0  0  0  0  0
   44.6412   35.1728   45.2556 O   0  0  0  0  0  0  0  0  0  0  0  0
   45.4483   34.2387   44.4207 P   0  0  2  0  0  0  0  0  0  0  0  0
   44.5160   33.0603   43.6769 O   0  0  0  0  0  0  0  0  0  0  0  0
   46.3455   35.1214   43.3034 O   0  0  0  0  0  0  0  0  0  0  0  0
   47.0993   34.2400   42.5261 C   0  0  1  0  0  0  0  0  0  0  0  0
   46.9555   34.4767   41.0473 C   0  0  0  0  0  0  0  0  0  0  0  0
   48.1207   33.6759   40.5062 C   0  0  0  0  0  0  0  0  0  0  0  0
   49.1723   33.6581   41.6038 C   0  0  0  0  0  0  0  0  0  0  0  0
   48.5934   34.5421   42.7045 C   0  0  1  0  0  0  0  0  0  0  0  0
   45.3935   31.7458   44.7779 H   0  0  0  0  0  0  0  0  0  0  0  0
   47.0985   31.5122   45.1172 H   0  0  0  0  0  0  0  0  0  0  0  0
   45.9112   32.7159   49.9394 H   0  0  0  0  0  0  0  0  0  0  0  0
   46.4025   33.4989   47.6871 H   0  0  0  0  0  0  0  0  0  0  0  0
   44.8232   28.9230   48.4996 H   0  0  0  0  0  0  0  0  0  0  0  0
   44.7966   32.8388   42.7603 H   0  0  0  0  0  0  0  0  0  0  0  0
   46.9558   33.1867   42.7700 H   0  0  0  0  0  0  0  0  0  0  0  0
   47.0074   35.5327   40.7801 H   0  0  0  0  0  0  0  0  0  0  0  0
   46.0410   33.9842   40.6869 H   0  0  0  0  0  0  0  0  0  0  0  0
   47.8344   32.6478   40.1934 H   0  0  0  0  0  0  0  0  0  0  0  0
   48.5553   34.2410   39.6684 H   0  0  0  0  0  0  0  0  0  0  0  0
   50.1623   34.0107   41.2709 H   0  0  0  0  0  0  0  0  0  0  0  0
   49.1918   32.6236   42.0104 H   0  0  0  0  0  0  0  0  0  0  0  0
   48.9213   34.2249   43.6943 H   0  0  0  0  0  0  0  0  0  0  0  0
   48.9059   35.9205   42.3823 N   0  0  0  0  0  0  0  0  0  0  0  0
   49.7189   36.0243   41.7312 H   0  0  0  0  0  0  0  0  0  0  0  0
   48.0801   36.2877   41.8580 H   0  0  0  0  0  0  0  0  0  0  0  0
  1  4  1  0
  2  7  2  0
  3  2  1  0
  4  5  1  0
  4  3  2  0
  5  6  2  0
  6  7  1  0
  8  1  1  0
 10  9  2  0
 10  8  1  1
 11 10  1  0
 12 10  1  0
 13 17  1  0
 13 12  1  0
 14 13  1  0
 15 14  1  0
 15 16  1  0
 16 17  1  0
  1 18  1  0
  1 19  1  0
  2 20  1  0
  3 21  1  0
  6 22  1  0
 11 23  1  0
 13 24  1  6
 14 25  1  0
 14 26  1  0
 15 27  1  0
 15 28  1  0
 16 29  1  0
 16 30  1  0
 17 31  1  1
 32 33  1  0
 32 34  1  0
 17 32  1  0
M  ISO  8  18   8  19   8  20  14  21  14  22  14  23   3  24  13  25  13
M  ISO  8  26  13  27  13  28  13  29  13  30  13  31  13  33   5  34   5
M  END
>  <DihAtoms>  (1) 
12,16,31,32

>  <DihDeg>  (1) 
49.307960316573656

$$$$
