
 OpenBabel03252508233D

 42 44  0  0  0  0  0  0  0  0999 V2000
   46.0380   33.8720   40.5040 C   0  0  0  0  0  0  0  0  0  0  0  0
   46.6160   33.6280   39.2760 C   0  0  0  0  0  0  0  0  0  0  0  0
   47.8780   34.0430   38.9170 C   0  0  0  0  0  0  0  0  0  0  0  0
   48.5810   34.7580   39.8950 C   0  0  0  0  0  0  0  0  0  0  0  0
   48.0500   35.0260   41.1310 C   0  0  0  0  0  0  0  0  0  0  0  0
   46.7920   34.5940   41.4440 C   0  0  0  0  0  0  0  0  0  0  0  0
   46.1450   33.0760   38.4780 H   0  0  0  0  0  0  0  0  0  0  0  0
   48.3600   33.8760   37.9830 H   0  0  0  0  0  0  0  0  0  0  0  0
   49.5930   35.1160   39.6660 H   0  0  0  0  0  0  0  0  0  0  0  0
   48.6640   35.5860   41.8270 H   0  0  0  0  0  0  0  0  0  0  0  0
   46.3380   34.9130   42.7350 N   0  0  0  0  0  0  0  0  0  0  0  0
   45.4240   35.9770   43.0330 C   0  0  0  0  0  0  0  0  0  0  0  0
   44.7660   35.7750   44.3760 C   0  0  0  0  0  0  0  0  0  0  0  0
   44.4480   34.4210   44.6870 N   0  0  0  0  0  0  0  0  0  0  0  0
   45.5320   33.5170   44.5740 C   0  0  0  0  0  0  0  0  0  0  0  0
   46.7290   34.2090   43.9670 C   0  0  0  0  0  0  0  0  0  0  0  0
   46.0850   36.8840   43.1860 H   0  0  0  0  0  0  0  0  0  0  0  0
   44.7500   36.2880   42.2290 H   0  0  0  0  0  0  0  0  0  0  0  0
   43.7820   36.3250   44.3180 H   0  0  0  0  0  0  0  0  0  0  0  0
   45.3410   36.2200   45.2100 H   0  0  0  0  0  0  0  0  0  0  0  0
   44.0270   34.4070   45.6200 H   0  0  0  0  0  0  0  0  0  0  0  0
   45.2480   32.6870   43.8880 H   0  0  0  0  0  0  0  0  0  0  0  0
   45.8630   33.0730   45.5330 H   0  0  0  0  0  0  0  0  0  0  0  0
   47.5160   33.4840   43.6930 H   0  0  0  0  0  0  0  0  0  0  0  0
   47.1200   34.9760   44.6830 H   0  0  0  0  0  0  0  0  0  0  0  0
   44.6890   33.4330   40.8770 C   0  0  0  0  0  0  0  0  0  0  0  0
   44.2350   33.9910   41.6930 H   0  0  0  0  0  0  0  0  0  0  0  0
   44.7850   32.3770   41.2670 H   0  0  0  0  0  0  0  0  0  0  0  0
   43.7560   33.4100   39.6870 C   0  0  0  0  0  0  0  0  0  0  0  0
   43.4690   32.3470   39.4300 H   0  0  0  0  0  0  0  0  0  0  0  0
   44.1180   33.8670   38.7840 H   0  0  0  0  0  0  0  0  0  0  0  0
   40.7720   35.7220   39.6430 C   0  0  0  0  0  0  0  0  0  0  0  0
   41.9980   35.1230   39.2700 C   0  0  0  0  0  0  0  0  0  0  0  0
   42.4770   34.0690   40.0520 C   0  0  0  0  0  0  0  0  0  0  0  0
   41.7370   33.6760   41.1340 N   0  0  0  0  0  0  0  0  0  0  0  0
   40.5820   34.2660   41.4580 C   0  0  0  0  0  0  0  0  0  0  0  0
   40.0960   35.2850   40.7200 N   0  0  0  0  0  0  0  0  0  0  0  0
   40.4810   36.5360   38.9700 H   0  0  0  0  0  0  0  0  0  0  0  0
   42.5640   35.4540   38.4090 H   0  0  0  0  0  0  0  0  0  0  0  0
   39.8280   33.8390   42.5890 N   0  0  0  0  0  0  0  0  0  0  0  0
   39.9910   32.8470   42.9280 H   0  0  0  0  0  0  0  0  0  0  0  0
   39.1490   34.4860   43.0530 H   0  0  0  0  0  0  0  0  0  0  0  0
  1 26  1  0  0  0  0
  1  6  1  0  0  0  0
  2  1  2  0  0  0  0
  3  2  1  0  0  0  0
  3  4  2  0  0  0  0
  4  5  1  0  0  0  0
  5  6  2  0  0  0  0
  5 10  1  0  0  0  0
  6 11  1  0  0  0  0
  7  2  1  0  0  0  0
  8  3  1  0  0  0  0
  9  4  1  0  0  0  0
 11 12  1  0  0  0  0
 11 16  1  0  0  0  0
 12 17  1  0  0  0  0
 12 13  1  0  0  0  0
 13 14  1  0  0  0  0
 13 20  1  0  0  0  0
 14 21  1  0  0  0  0
 15 14  1  0  0  0  0
 15 23  1  0  0  0  0
 16 15  1  0  0  0  0
 16 25  1  0  0  0  0
 18 12  1  0  0  0  0
 19 13  1  0  0  0  0
 22 15  1  0  0  0  0
 24 16  1  0  0  0  0
 26 28  1  0  0  0  0
 26 27  1  0  0  0  0
 29 34  1  0  0  0  0
 29 26  1  0  0  0  0
 30 29  1  0  0  0  0
 31 29  1  0  0  0  0
 32 37  1  0  0  0  0
 33 32  2  0  0  0  0
 33 34  1  0  0  0  0
 34 35  2  0  0  0  0
 35 36  1  0  0  0  0
 36 40  1  0  0  0  0
 37 36  2  0  0  0  0
 38 32  1  0  0  0  0
 39 33  1  0  0  0  0
 40 41  1  0  0  0  0
 40 42  1  0  0  0  0
M  END
>  <minimizedAffinity>
-6.03716803

>  <minimizedRMSD>
0.398490816

$$$$
