
 OpenBabel03242522133D

 20 21  0  0  0  0  0  0  0  0999 V2000
   44.4790   35.6920   45.1840 C   0  0  0  0  0  0  0  0  0  0  0  0
   45.0650   35.5470   43.9080 C   0  0  0  0  0  0  0  0  0  0  0  0
   45.8780   34.4640   43.6960 C   0  0  0  0  0  0  0  0  0  0  0  0
   46.0610   33.5940   44.7480 N   0  0  0  0  0  0  0  0  0  0  0  0
   45.4880   33.7620   45.9490 C   0  0  0  0  0  0  0  0  0  0  0  0
   44.6920   34.8230   46.1600 N   0  0  0  0  0  0  0  0  0  0  0  0
   43.8290   36.5330   45.4020 H   0  0  0  0  0  0  0  0  0  0  0  0
   45.7800   32.9500   46.6170 H   0  0  0  0  0  0  0  0  0  0  0  0
   46.5340   34.2340   42.3880 C   0  0  0  0  0  0  0  0  0  0  0  0
   46.2190   33.1750   41.5790 C   0  0  0  0  0  0  0  0  0  0  0  0
   47.3420   33.4260   40.1350 S   0  0  0  0  0  0  0  0  0  0  0  0
   48.0560   34.9770   40.9300 C   0  0  0  0  0  0  0  0  0  0  0  0
   47.4580   35.0080   41.9000 N   0  0  0  0  0  0  0  0  0  0  0  0
   45.4370   32.3870   41.8280 H   0  0  0  0  0  0  0  0  0  0  0  0
   49.0780   35.7800   40.3230 N   0  0  0  0  0  0  0  0  0  0  0  0
   48.7230   36.7760   40.2360 H   0  0  0  0  0  0  0  0  0  0  0  0
   50.0040   35.3810   40.0380 H   0  0  0  0  0  0  0  0  0  0  0  0
   44.7610   36.5420   42.9500 N   0  0  0  0  0  0  0  0  0  0  0  0
   43.7670   36.8490   42.9000 H   0  0  0  0  0  0  0  0  0  0  0  0
   45.6510   36.7940   42.4440 H   0  0  0  0  0  0  0  0  0  0  0  0
  1  7  1  0  0  0  0
  1  6  1  0  0  0  0
  2  1  2  0  0  0  0
  3  2  1  0  0  0  0
  3  4  2  0  0  0  0
  4  5  1  0  0  0  0
  5  6  2  0  0  0  0
  5  8  1  0  0  0  0
  9  3  1  0  0  0  0
 10 14  1  0  0  0  0
 10  9  2  0  0  0  0
 11 12  1  0  0  0  0
 11 10  1  0  0  0  0
 12 13  2  0  0  0  0
 13  9  1  0  0  0  0
 15 12  1  0  0  0  0
 16 15  1  0  0  0  0
 17 15  1  0  0  0  0
 18  2  1  0  0  0  0
 19 18  1  0  0  0  0
 20 18  1  0  0  0  0
M  END
>  <minimizedAffinity>
-4.6108017

>  <minimizedRMSD>
0.586600661

$$$$
