REMARK  Name = 
REMARK  8 active torsions:
REMARK  status: ('A' for Active; 'I' for Inactive)
REMARK    1  A    between atoms: P_2  and  O_3
REMARK    2  A    between atoms: P_2  and  O_4
REMARK    3  A    between atoms: P_2  and  O_12
REMARK    4  A    between atoms: O_4  and  C_5
REMARK    5  A    between atoms: C_5  and  C_8
REMARK    6  A    between atoms: O_12  and  C_13
REMARK    7  A    between atoms: C_17  and  C_18
REMARK    8  A    between atoms: C_18  and  N_35
REMARK                            x       y       z     vdW  Elec       q    Type
REMARK                         _______ _______ _______ _____ _____    ______ ____
ROOT
ATOM      1  C   UNL     1      46.931  34.080  42.284  0.00  0.00    +0.000 C 
ATOM      2  C   UNL     1      46.398  34.272  40.877  0.00  0.00    +0.000 C 
ATOM      3  C   UNL     1      47.337  33.367  40.102  0.00  0.00    +0.000 C 
ATOM      4  C   UNL     1      48.639  33.350  40.875  0.00  0.00    +0.000 C 
ATOM      5  C   UNL     1      48.411  34.287  42.049  0.00  0.00    +0.000 C 
ATOM      6  H   UNL     1      46.767  33.047  42.573  0.00  0.00    +0.000 HD
ATOM      7  H   UNL     1      46.404  35.318  40.538  0.00  0.00    +0.000 HD
ATOM      8  H   UNL     1      45.371  33.907  40.734  0.00  0.00    +0.000 HD
ATOM      9  H   UNL     1      46.905  32.361  40.045  0.00  0.00    +0.000 HD
ATOM     10  H   UNL     1      47.442  33.798  39.097  0.00  0.00    +0.000 HD
ATOM     11  H   UNL     1      49.431  33.767  40.222  0.00  0.00    +0.000 HD
ATOM     12  H   UNL     1      48.842  32.314  41.209  0.00  0.00    +0.000 HD
ATOM     13  H   UNL     1      49.016  33.885  42.892  0.00  0.00    +0.000 HD
ENDROOT
BRANCH   5  14
ATOM     14  C   UNL     1      48.767  35.707  41.713  0.00  0.00    +0.000 C 
ATOM     15  H   UNL     1      49.871  35.726  41.598  0.00  0.00    +0.000 HD
ATOM     16  H   UNL     1      48.332  35.959  40.733  0.00  0.00    +0.000 HD
BRANCH  14  17
ATOM     17  N   UNL     1      48.416  36.642  42.734  0.00  0.00    +0.000 NA
ATOM     18  H   UNL     1      49.230  36.747  43.380  0.00  0.00    +0.000 HD
ATOM     19  H   UNL     1      48.054  37.550  42.421  0.00  0.00    +0.000 HD
ENDBRANCH  14  17
ENDBRANCH   5  14
BRANCH   1  20
ATOM     20  O   UNL     1      46.407  35.034  43.165  0.00  0.00    +0.000 OA
BRANCH  20  22
ATOM     21  O   UNL     1      44.677  35.286  45.071  0.00  0.00    +0.000 OA
ATOM     22  P   UNL     1      45.487  34.254  44.334  0.00  0.00    +0.000 P 
BRANCH  22  23
ATOM     23  O   UNL     1      44.519  33.066  43.647  0.00  0.00    +0.000 OA
ATOM     24  H   UNL     1      44.755  32.774  42.757  0.00  0.00    +0.000 HD
ENDBRANCH  22  23
BRANCH  22  25
ATOM     25  O   UNL     1      46.518  33.467  45.406  0.00  0.00    +0.000 OA
BRANCH  25  26
ATOM     26  C   UNL     1      46.203  32.142  45.422  0.00  0.00    +0.000 C 
ATOM     27  H   UNL     1      47.132  31.597  45.111  0.00  0.00    +0.000 HD
ATOM     28  H   UNL     1      45.423  31.784  44.761  0.00  0.00    +0.000 HD
BRANCH  26  31
ATOM     29  C   UNL     1      45.752  32.039  49.113  0.00  0.00    +0.000 A 
ATOM     30  C   UNL     1      46.053  32.535  47.836  0.00  0.00    +0.000 A 
ATOM     31  C   UNL     1      45.894  31.647  46.774  0.00  0.00    +0.000 A 
ATOM     32  N   UNL     1      45.464  30.369  47.023  0.00  0.00    +0.000 NA
ATOM     33  C   UNL     1      45.188  29.938  48.266  0.00  0.00    +0.000 A 
ATOM     34  N   UNL     1      45.331  30.763  49.297  0.00  0.00    +0.000 NA
ATOM     35  H   UNL     1      45.849  32.664  49.991  0.00  0.00    +0.000 HD
ATOM     36  H   UNL     1      46.384  33.558  47.750  0.00  0.00    +0.000 HD
ATOM     37  H   UNL     1      44.861  28.907  48.294  0.00  0.00    +0.000 HD
ENDBRANCH  26  31
ENDBRANCH  25  26
ENDBRANCH  22  25
ENDBRANCH  20  22
ENDBRANCH   1  20
TORSDOF 8
