
 OpenBabel03252502123D

 31 33  0  0  0  0  0  0  0  0999 V2000
   42.2400   34.1270   41.2940 Cl  0  0  0  0  0  0  0  0  0  0  0  0
   43.7700   33.7820   40.5160 C   0  0  0  0  0  0  0  0  0  0  0  0
   44.9530   33.9740   41.1590 C   0  0  0  0  0  0  0  0  0  0  0  0
   46.0840   33.6660   40.4400 C   0  0  0  0  0  0  0  0  0  0  0  0
   46.0700   33.1980   39.1670 C   0  0  0  0  0  0  0  0  0  0  0  0
   44.8630   33.0090   38.5300 C   0  0  0  0  0  0  0  0  0  0  0  0
   43.7190   33.3060   39.2190 C   0  0  0  0  0  0  0  0  0  0  0  0
   46.9790   32.9640   38.6260 H   0  0  0  0  0  0  0  0  0  0  0  0
   44.8720   32.6330   37.5110 H   0  0  0  0  0  0  0  0  0  0  0  0
   42.7660   33.1590   38.7220 H   0  0  0  0  0  0  0  0  0  0  0  0
   47.3860   33.8640   41.1060 C   0  0  0  0  0  0  0  0  0  0  0  0
   48.0130   32.7420   41.6370 C   0  0  0  0  0  0  0  0  0  0  0  0
   49.2100   33.0470   42.2300 C   0  0  0  0  0  0  0  0  0  0  0  0
   49.7980   34.2710   42.3350 C   0  0  0  0  0  0  0  0  0  0  0  0
   49.0980   35.3390   41.7750 C   0  0  0  0  0  0  0  0  0  0  0  0
   47.9140   35.0880   41.1800 N   0  0  0  0  0  0  0  0  0  0  0  0
   47.5850   31.7650   41.5760 H   0  0  0  0  0  0  0  0  0  0  0  0
   49.7820   32.2120   42.6820 H   0  0  0  0  0  0  0  0  0  0  0  0
   50.7520   34.4310   42.8220 H   0  0  0  0  0  0  0  0  0  0  0  0
   49.6050   36.6680   41.8180 N   0  0  0  0  0  0  0  0  0  0  0  0
   49.2120   37.0280   40.9050 H   0  0  0  0  0  0  0  0  0  0  0  0
   50.1920   37.1650   42.5270 H   0  0  0  0  0  0  0  0  0  0  0  0
   44.7360   36.2590   44.1570 C   0  0  0  0  0  0  0  0  0  0  0  0
   44.7430   35.8060   42.8340 C   0  0  0  0  0  0  0  0  0  0  0  0
   44.9400   34.4740   42.5150 C   0  0  0  0  0  0  0  0  0  0  0  0
   45.1290   33.6310   43.5740 N   0  0  0  0  0  0  0  0  0  0  0  0
   45.1210   34.0750   44.8440 C   0  0  0  0  0  0  0  0  0  0  0  0
   44.9310   35.3570   45.1530 N   0  0  0  0  0  0  0  0  0  0  0  0
   44.5810   37.3060   44.4070 H   0  0  0  0  0  0  0  0  0  0  0  0
   44.5900   36.5170   42.0440 H   0  0  0  0  0  0  0  0  0  0  0  0
   45.2750   33.3700   45.6520 H   0  0  0  0  0  0  0  0  0  0  0  0
  2  3  1  0  0  0  0
  2  1  1  0  0  0  0
  3 25  1  0  0  0  0
  4 11  1  0  0  0  0
  4  3  2  0  0  0  0
  5  4  1  0  0  0  0
  6  5  2  0  0  0  0
  6  7  1  0  0  0  0
  7  2  2  0  0  0  0
  8  5  1  0  0  0  0
  9  6  1  0  0  0  0
 10  7  1  0  0  0  0
 11 16  2  0  0  0  0
 11 12  1  0  0  0  0
 12 13  2  0  0  0  0
 13 14  1  0  0  0  0
 13 18  1  0  0  0  0
 14 19  1  0  0  0  0
 15 20  1  0  0  0  0
 15 14  2  0  0  0  0
 16 15  1  0  0  0  0
 17 12  1  0  0  0  0
 20 22  1  0  0  0  0
 21 20  1  0  0  0  0
 23 29  1  0  0  0  0
 23 28  1  0  0  0  0
 24 23  2  0  0  0  0
 25 24  1  0  0  0  0
 25 26  2  0  0  0  0
 26 27  1  0  0  0  0
 27 28  2  0  0  0  0
 27 31  1  0  0  0  0
 30 24  1  0  0  0  0
M  END
>  <minimizedAffinity>
-5.23162222

>  <minimizedRMSD>
0.462803394

$$$$
