
 OpenBabel03252503253D

 41 45  0  0  1  0  0  0  0  0999 V2000
   34.5660   29.2230   37.8550 C   0  0  1  0  0  0  0  0  0  0  0  0
   34.4510   28.5030   36.5890 C   0  0  0  0  0  0  0  0  0  0  0  0
   33.2560   28.5550   37.4650 C   0  0  2  0  0  0  0  0  0  0  0  0
   34.5520   30.3250   37.8700 H   0  0  0  0  0  0  0  0  0  0  0  0
   34.6280   29.0810   35.6920 H   0  0  0  0  0  0  0  0  0  0  0  0
   35.0430   27.5290   36.5580 H   0  0  0  0  0  0  0  0  0  0  0  0
   32.9890   27.6430   38.0320 H   0  0  0  0  0  0  0  0  0  0  0  0
   32.1770   29.5030   37.0890 C   0  0  0  0  0  0  0  0  0  0  0  0
   31.2010   29.9600   37.9510 C   0  0  0  0  0  0  0  0  0  0  0  0
   30.2250   30.8470   37.5220 C   0  0  0  0  0  0  0  0  0  0  0  0
   30.2140   31.2870   36.2230 C   0  0  0  0  0  0  0  0  0  0  0  0
   29.2750   32.1580   35.7820 N   0  0  0  0  0  0  0  0  0  0  0  0
   29.2850   32.5850   34.4920 C   0  0  0  0  0  0  0  0  0  0  0  0
   30.2410   32.1730   33.5340 C   0  0  0  0  0  0  0  0  0  0  0  0
   31.2010   31.2870   33.9730 C   0  0  0  0  0  0  0  0  0  0  0  0
   31.1790   30.8570   35.3030 C   0  0  0  0  0  0  0  0  0  0  0  0
   32.1280   29.9760   35.7760 C   0  0  0  0  0  0  0  0  0  0  0  0
   31.2400   29.5910   38.9690 H   0  0  0  0  0  0  0  0  0  0  0  0
   29.4600   31.1990   38.2200 H   0  0  0  0  0  0  0  0  0  0  0  0
   28.5080   33.2830   34.1970 H   0  0  0  0  0  0  0  0  0  0  0  0
   30.1810   32.5590   32.5260 H   0  0  0  0  0  0  0  0  0  0  0  0
   31.9590   30.9380   33.2860 H   0  0  0  0  0  0  0  0  0  0  0  0
   32.8340   29.6830   35.0110 H   0  0  0  0  0  0  0  0  0  0  0  0
   35.1700   29.2340   40.3000 C   0  0  0  0  0  0  0  0  0  0  0  0
   35.3020   28.6220   39.0070 C   0  0  0  0  0  0  0  0  0  0  0  0
   36.1080   27.5180   38.8940 C   0  0  0  0  0  0  0  0  0  0  0  0
   36.7340   27.0740   40.0190 N   0  0  0  0  0  0  0  0  0  0  0  0
   36.6000   27.6640   41.2350 C   0  0  0  0  0  0  0  0  0  0  0  0
   35.8170   28.7440   41.3710 N   0  0  0  0  0  0  0  0  0  0  0  0
   34.5450   30.1030   40.4270 H   0  0  0  0  0  0  0  0  0  0  0  0
   36.2280   27.0390   37.9510 H   0  0  0  0  0  0  0  0  0  0  0  0
   37.3400   27.0720   42.3810 C   0  0  2  0  0  0  0  0  0  0  0  0
   37.2350   27.6150   43.7230 C   0  0  0  0  0  0  0  0  0  0  0  0
   38.4660   27.9990   42.9380 C   0  0  1  0  0  0  0  0  0  0  0  0
   37.7340   26.0370   42.2150 H   0  0  0  0  0  0  0  0  0  0  0  0
   37.4400   26.9300   44.5810 H   0  0  0  0  0  0  0  0  0  0  0  0
   36.4710   28.3710   43.9810 H   0  0  0  0  0  0  0  0  0  0  0  0
   38.4460   29.0480   42.5960 H   0  0  0  0  0  0  0  0  0  0  0  0
   39.7200   27.3960   43.2790 N   0  0  0  0  0  0  0  0  0  0  0  0
   39.4760   26.4750   43.7500 H   0  0  0  0  0  0  0  0  0  0  0  0
   40.1820   27.1270   42.3870 H   0  0  0  0  0  0  0  0  0  0  0  0
  1  4  1  6  0  0  0
  1 25  1  0  0  0  0
  2  3  1  0  0  0  0
  2  1  1  0  0  0  0
  3  1  1  0  0  0  0
  3  7  1  1  0  0  0
  5  2  1  0  0  0  0
  6  2  1  0  0  0  0
  8  3  1  0  0  0  0
  8  9  1  0  0  0  0
  9 18  1  0  0  0  0
 10  9  2  0  0  0  0
 10 19  1  0  0  0  0
 11 10  1  0  0  0  0
 12 11  1  0  0  0  0
 13 12  2  0  0  0  0
 14 15  2  0  0  0  0
 14 13  1  0  0  0  0
 15 16  1  0  0  0  0
 16 17  1  0  0  0  0
 16 11  2  0  0  0  0
 17  8  2  0  0  0  0
 20 13  1  0  0  0  0
 21 14  1  0  0  0  0
 22 15  1  0  0  0  0
 23 17  1  0  0  0  0
 24 30  1  0  0  0  0
 24 29  1  0  0  0  0
 25 24  2  0  0  0  0
 26 25  1  0  0  0  0
 26 27  2  0  0  0  0
 27 28  1  0  0  0  0
 28 29  2  0  0  0  0
 28 32  1  0  0  0  0
 31 26  1  0  0  0  0
 32 35  1  6  0  0  0
 32 34  1  0  0  0  0
 32 33  1  0  0  0  0
 33 37  1  0  0  0  0
 33 36  1  0  0  0  0
 34 38  1  6  0  0  0
 34 39  1  0  0  0  0
 34 33  1  0  0  0  0
 39 40  1  0  0  0  0
 41 39  1  0  0  0  0
M  END
>  <minimizedAffinity>
-6.24151087

$$$$

 OpenBabel03252503253D

 41 45  0  0  1  0  0  0  0  0999 V2000
   35.2210   28.7600   37.7920 C   0  0  1  0  0  0  0  0  0  0  0  0
   35.3070   27.9050   36.6110 C   0  0  0  0  0  0  0  0  0  0  0  0
   33.9770   28.0790   37.2420 C   0  0  2  0  0  0  0  0  0  0  0  0
   35.2490   29.8570   37.6870 H   0  0  0  0  0  0  0  0  0  0  0  0
   35.6650   28.3750   35.7050 H   0  0  0  0  0  0  0  0  0  0  0  0
   35.8550   26.9220   36.7930 H   0  0  0  0  0  0  0  0  0  0  0  0
   33.5750   27.2420   37.8450 H   0  0  0  0  0  0  0  0  0  0  0  0
   33.0220   29.0010   36.5760 C   0  0  0  0  0  0  0  0  0  0  0  0
   33.0600   29.3330   35.2370 C   0  0  0  0  0  0  0  0  0  0  0  0
   32.1310   30.2040   34.6890 C   0  0  0  0  0  0  0  0  0  0  0  0
   31.1510   30.7540   35.4760 C   0  0  0  0  0  0  0  0  0  0  0  0
   30.2280   31.6020   34.9620 N   0  0  0  0  0  0  0  0  0  0  0  0
   29.2620   32.1330   35.7590 C   0  0  0  0  0  0  0  0  0  0  0  0
   29.1420   31.8550   37.1410 C   0  0  0  0  0  0  0  0  0  0  0  0
   30.0760   30.9920   37.6730 C   0  0  0  0  0  0  0  0  0  0  0  0
   31.0630   30.4540   36.8410 C   0  0  0  0  0  0  0  0  0  0  0  0
   32.0090   29.5840   37.3400 C   0  0  0  0  0  0  0  0  0  0  0  0
   33.8480   28.8810   34.6460 H   0  0  0  0  0  0  0  0  0  0  0  0
   32.1760   30.4550   33.6250 H   0  0  0  0  0  0  0  0  0  0  0  0
   28.5510   32.8060   35.2910 H   0  0  0  0  0  0  0  0  0  0  0  0
   28.3460   32.3170   37.7070 H   0  0  0  0  0  0  0  0  0  0  0  0
   30.0340   30.7420   38.7240 H   0  0  0  0  0  0  0  0  0  0  0  0
   31.8840   29.4040   38.3990 H   0  0  0  0  0  0  0  0  0  0  0  0
   35.4930   29.1030   40.2730 C   0  0  0  0  0  0  0  0  0  0  0  0
   35.7120   28.2770   39.1170 C   0  0  0  0  0  0  0  0  0  0  0  0
   36.3730   27.0880   39.2890 C   0  0  0  0  0  0  0  0  0  0  0  0
   36.7800   26.7660   40.5480 N   0  0  0  0  0  0  0  0  0  0  0  0
   36.5670   27.5570   41.6310 C   0  0  0  0  0  0  0  0  0  0  0  0
   35.9230   28.7260   41.4890 N   0  0  0  0  0  0  0  0  0  0  0  0
   34.9780   30.0440   40.1760 H   0  0  0  0  0  0  0  0  0  0  0  0
   36.5510   26.4510   38.4550 H   0  0  0  0  0  0  0  0  0  0  0  0
   37.0640   27.0830   42.9490 C   0  0  2  0  0  0  0  0  0  0  0  0
   37.1790   27.9720   44.0910 C   0  0  0  0  0  0  0  0  0  0  0  0
   38.4550   27.6760   43.3390 C   0  0  1  0  0  0  0  0  0  0  0  0
   37.0610   25.9720   43.0920 H   0  0  0  0  0  0  0  0  0  0  0  0
   37.1400   27.5200   45.1110 H   0  0  0  0  0  0  0  0  0  0  0  0
   36.7390   28.9860   44.0780 H   0  0  0  0  0  0  0  0  0  0  0  0
   38.8040   28.5310   42.7350 H   0  0  0  0  0  0  0  0  0  0  0  0
   39.4160   26.7930   43.9290 N   0  0  0  0  0  0  0  0  0  0  0  0
   38.8670   26.1790   44.6010 H   0  0  0  0  0  0  0  0  0  0  0  0
   39.7390   26.1480   43.1800 H   0  0  0  0  0  0  0  0  0  0  0  0
  1  4  1  6  0  0  0
  1 25  1  0  0  0  0
  2  6  1  0  0  0  0
  2  3  1  0  0  0  0
  2  1  1  0  0  0  0
  3  1  1  0  0  0  0
  3  7  1  1  0  0  0
  5  2  1  0  0  0  0
  8  3  1  0  0  0  0
  8 17  1  0  0  0  0
  9  8  2  0  0  0  0
 10  9  1  0  0  0  0
 10 11  2  0  0  0  0
 11 16  1  0  0  0  0
 12 11  1  0  0  0  0
 12 13  2  0  0  0  0
 13 14  1  0  0  0  0
 14 15  2  0  0  0  0
 14 21  1  0  0  0  0
 15 22  1  0  0  0  0
 16 17  2  0  0  0  0
 16 15  1  0  0  0  0
 17 23  1  0  0  0  0
 18  9  1  0  0  0  0
 19 10  1  0  0  0  0
 20 13  1  0  0  0  0
 24 29  1  0  0  0  0
 25 26  1  0  0  0  0
 25 24  2  0  0  0  0
 26 27  2  0  0  0  0
 27 28  1  0  0  0  0
 28 32  1  0  0  0  0
 29 28  2  0  0  0  0
 30 24  1  0  0  0  0
 31 26  1  0  0  0  0
 32 35  1  1  0  0  0
 32 34  1  0  0  0  0
 32 33  1  0  0  0  0
 33 36  1  0  0  0  0
 34 38  1  6  0  0  0
 34 39  1  0  0  0  0
 34 33  1  0  0  0  0
 37 33  1  0  0  0  0
 39 40  1  0  0  0  0
 41 39  1  0  0  0  0
M  END
>  <minimizedAffinity>
-6.20753765

$$$$

 OpenBabel03252503253D

 41 45  0  0  1  0  0  0  0  0999 V2000
   36.1980   28.0110   41.0650 C   0  0  1  0  0  0  0  0  0  0  0  0
   35.9930   29.4150   40.7210 C   0  0  0  0  0  0  0  0  0  0  0  0
   36.4640   28.5030   39.6510 C   0  0  2  0  0  0  0  0  0  0  0  0
   35.3350   27.3350   41.1790 H   0  0  0  0  0  0  0  0  0  0  0  0
   34.9900   29.7990   40.8560 H   0  0  0  0  0  0  0  0  0  0  0  0
   36.7560   30.1200   41.1900 H   0  0  0  0  0  0  0  0  0  0  0  0
   37.5270   28.5640   39.3490 H   0  0  0  0  0  0  0  0  0  0  0  0
   35.4620   28.0530   38.6510 C   0  0  0  0  0  0  0  0  0  0  0  0
   35.5120   26.8470   37.9820 C   0  0  0  0  0  0  0  0  0  0  0  0
   34.5360   26.4990   37.0600 C   0  0  0  0  0  0  0  0  0  0  0  0
   33.4980   27.3550   36.7970 C   0  0  0  0  0  0  0  0  0  0  0  0
   32.5290   27.0350   35.9050 N   0  0  0  0  0  0  0  0  0  0  0  0
   31.5060   27.8960   35.6610 C   0  0  0  0  0  0  0  0  0  0  0  0
   31.3700   29.1550   36.2940 C   0  0  0  0  0  0  0  0  0  0  0  0
   32.3500   29.4900   37.2030 C   0  0  0  0  0  0  0  0  0  0  0  0
   33.3950   28.5930   37.4440 C   0  0  0  0  0  0  0  0  0  0  0  0
   34.3890   28.8940   38.3510 C   0  0  0  0  0  0  0  0  0  0  0  0
   36.3460   26.1960   38.2150 H   0  0  0  0  0  0  0  0  0  0  0  0
   34.5920   25.5380   36.5400 H   0  0  0  0  0  0  0  0  0  0  0  0
   30.7600   27.5850   34.9370 H   0  0  0  0  0  0  0  0  0  0  0  0
   30.5260   29.7830   36.0460 H   0  0  0  0  0  0  0  0  0  0  0  0
   32.2980   30.4380   37.7190 H   0  0  0  0  0  0  0  0  0  0  0  0
   34.2480   29.8660   38.8060 H   0  0  0  0  0  0  0  0  0  0  0  0
   37.7310   26.1930   41.8980 C   0  0  0  0  0  0  0  0  0  0  0  0
   37.3920   27.5890   41.8580 C   0  0  0  0  0  0  0  0  0  0  0  0
   38.1790   28.4650   42.5590 C   0  0  0  0  0  0  0  0  0  0  0  0
   39.2340   27.9530   43.2520 N   0  0  0  0  0  0  0  0  0  0  0  0
   39.5420   26.6310   43.2810 C   0  0  0  0  0  0  0  0  0  0  0  0
   38.7880   25.7540   42.6020 N   0  0  0  0  0  0  0  0  0  0  0  0
   37.1350   25.4750   41.3580 H   0  0  0  0  0  0  0  0  0  0  0  0
   37.9580   29.5070   42.5510 H   0  0  0  0  0  0  0  0  0  0  0  0
   40.7240   26.2090   44.0780 C   0  0  2  0  0  0  0  0  0  0  0  0
   41.8580   27.0890   44.2930 C   0  0  0  0  0  0  0  0  0  0  0  0
   42.0190   26.0360   43.2230 C   0  0  1  0  0  0  0  0  0  0  0  0
   40.5670   25.3130   44.7320 H   0  0  0  0  0  0  0  0  0  0  0  0
   42.4890   26.9160   45.1980 H   0  0  0  0  0  0  0  0  0  0  0  0
   41.8130   28.1610   44.0270 H   0  0  0  0  0  0  0  0  0  0  0  0
   41.9870   26.4540   42.2020 H   0  0  0  0  0  0  0  0  0  0  0  0
   42.8500   24.9000   43.4900 N   0  0  0  0  0  0  0  0  0  0  0  0
   42.8660   24.8000   44.5490 H   0  0  0  0  0  0  0  0  0  0  0  0
   42.3390   24.0610   43.1500 H   0  0  0  0  0  0  0  0  0  0  0  0
  1  4  1  1  0  0  0
  1 25  1  0  0  0  0
  2  5  1  0  0  0  0
  2  1  1  0  0  0  0
  2  6  1  0  0  0  0
  3  7  1  6  0  0  0
  3  2  1  0  0  0  0
  3  1  1  0  0  0  0
  8  3  1  0  0  0  0
  9 18  1  0  0  0  0
  9  8  2  0  0  0  0
 10  9  1  0  0  0  0
 11 10  2  0  0  0  0
 11 16  1  0  0  0  0
 12 11  1  0  0  0  0
 13 12  2  0  0  0  0
 13 14  1  0  0  0  0
 14 15  2  0  0  0  0
 15 16  1  0  0  0  0
 15 22  1  0  0  0  0
 16 17  2  0  0  0  0
 17  8  1  0  0  0  0
 17 23  1  0  0  0  0
 19 10  1  0  0  0  0
 20 13  1  0  0  0  0
 21 14  1  0  0  0  0
 24 29  1  0  0  0  0
 25 24  2  0  0  0  0
 25 26  1  0  0  0  0
 26 27  2  0  0  0  0
 27 28  1  0  0  0  0
 28 32  1  0  0  0  0
 29 28  2  0  0  0  0
 30 24  1  0  0  0  0
 31 26  1  0  0  0  0
 32 33  1  0  0  0  0
 32 35  1  1  0  0  0
 33 36  1  0  0  0  0
 34 38  1  6  0  0  0
 34 39  1  0  0  0  0
 34 32  1  0  0  0  0
 34 33  1  0  0  0  0
 37 33  1  0  0  0  0
 39 40  1  0  0  0  0
 41 39  1  0  0  0  0
M  END
>  <minimizedAffinity>
-5.88516235

$$$$

 OpenBabel03252503253D

 41 45  0  0  1  0  0  0  0  0999 V2000
   39.5960   29.3290   41.8970 C   0  0  1  0  0  0  0  0  0  0  0  0
   38.6210   29.5730   42.9560 C   0  0  0  0  0  0  0  0  0  0  0  0
   38.1080   29.1790   41.6220 C   0  0  2  0  0  0  0  0  0  0  0  0
   40.1790   28.3930   41.8830 H   0  0  0  0  0  0  0  0  0  0  0  0
   38.7020   28.9470   43.8350 H   0  0  0  0  0  0  0  0  0  0  0  0
   38.5320   30.6690   43.2560 H   0  0  0  0  0  0  0  0  0  0  0  0
   37.6490   29.9640   40.9910 H   0  0  0  0  0  0  0  0  0  0  0  0
   37.6580   27.7740   41.4530 C   0  0  0  0  0  0  0  0  0  0  0  0
   37.7010   26.8140   42.4430 C   0  0  0  0  0  0  0  0  0  0  0  0
   37.2620   25.5200   42.2060 C   0  0  0  0  0  0  0  0  0  0  0  0
   36.7720   25.1720   40.9730 C   0  0  0  0  0  0  0  0  0  0  0  0
   36.3310   23.9170   40.7190 N   0  0  0  0  0  0  0  0  0  0  0  0
   35.8460   23.5930   39.4900 C   0  0  0  0  0  0  0  0  0  0  0  0
   35.7630   24.5060   38.4120 C   0  0  0  0  0  0  0  0  0  0  0  0
   36.2090   25.7860   38.6610 C   0  0  0  0  0  0  0  0  0  0  0  0
   36.7040   26.1040   39.9300 C   0  0  0  0  0  0  0  0  0  0  0  0
   37.1540   27.3760   40.2140 C   0  0  0  0  0  0  0  0  0  0  0  0
   38.0950   27.1230   43.4040 H   0  0  0  0  0  0  0  0  0  0  0  0
   37.3040   24.7730   43.0030 H   0  0  0  0  0  0  0  0  0  0  0  0
   35.5070   22.5730   39.3470 H   0  0  0  0  0  0  0  0  0  0  0  0
   35.3640   24.1710   37.4650 H   0  0  0  0  0  0  0  0  0  0  0  0
   36.1690   26.5270   37.8760 H   0  0  0  0  0  0  0  0  0  0  0  0
   37.0770   28.0380   39.3610 H   0  0  0  0  0  0  0  0  0  0  0  0
   41.2440   30.1770   40.1910 C   0  0  0  0  0  0  0  0  0  0  0  0
   40.2860   30.4690   41.2210 C   0  0  0  0  0  0  0  0  0  0  0  0
   40.0590   31.7820   41.5400 C   0  0  0  0  0  0  0  0  0  0  0  0
   40.7610   32.7290   40.8570 N   0  0  0  0  0  0  0  0  0  0  0  0
   41.6650   32.4390   39.8860 C   0  0  0  0  0  0  0  0  0  0  0  0
   41.9030   31.1610   39.5550 N   0  0  0  0  0  0  0  0  0  0  0  0
   41.4480   29.1560   39.9130 H   0  0  0  0  0  0  0  0  0  0  0  0
   39.3550   32.0350   42.2970 H   0  0  0  0  0  0  0  0  0  0  0  0
   42.3590   33.5720   39.2190 C   0  0  2  0  0  0  0  0  0  0  0  0
   41.7020   34.8450   38.9890 C   0  0  0  0  0  0  0  0  0  0  0  0
   41.7850   33.9080   37.8070 C   0  0  1  0  0  0  0  0  0  0  0  0
   43.4750   33.4930   39.1760 H   0  0  0  0  0  0  0  0  0  0  0  0
   42.3430   35.7540   38.8910 H   0  0  0  0  0  0  0  0  0  0  0  0
   40.7270   35.0830   39.4520 H   0  0  0  0  0  0  0  0  0  0  0  0
   40.8130   33.4490   37.5560 H   0  0  0  0  0  0  0  0  0  0  0  0
   42.7160   34.1980   36.7580 N   0  0  0  0  0  0  0  0  0  0  0  0
   43.4740   34.7950   37.2060 H   0  0  0  0  0  0  0  0  0  0  0  0
   43.1880   33.3050   36.5130 H   0  0  0  0  0  0  0  0  0  0  0  0
  1  4  1  1  0  0  0
  1  2  1  0  0  0  0
  2  6  1  0  0  0  0
  2  5  1  0  0  0  0
  3  7  1  6  0  0  0
  3  1  1  0  0  0  0
  3  2  1  0  0  0  0
  8  3  1  0  0  0  0
  8  9  1  0  0  0  0
  9 18  1  0  0  0  0
 10  9  2  0  0  0  0
 10 19  1  0  0  0  0
 11 10  1  0  0  0  0
 12 11  1  0  0  0  0
 13 12  2  0  0  0  0
 14 15  2  0  0  0  0
 14 13  1  0  0  0  0
 15 16  1  0  0  0  0
 16 17  1  0  0  0  0
 16 11  2  0  0  0  0
 17  8  2  0  0  0  0
 20 13  1  0  0  0  0
 21 14  1  0  0  0  0
 22 15  1  0  0  0  0
 23 17  1  0  0  0  0
 24 25  1  0  0  0  0
 25 26  2  0  0  0  0
 25  1  1  0  0  0  0
 26 31  1  0  0  0  0
 27 26  1  0  0  0  0
 28 27  2  0  0  0  0
 29 28  1  0  0  0  0
 29 24  2  0  0  0  0
 30 24  1  0  0  0  0
 32 35  1  1  0  0  0
 32 28  1  0  0  0  0
 33 32  1  0  0  0  0
 33 37  1  0  0  0  0
 34 38  1  6  0  0  0
 34 33  1  0  0  0  0
 34 32  1  0  0  0  0
 36 33  1  0  0  0  0
 39 40  1  0  0  0  0
 39 34  1  0  0  0  0
 41 39  1  0  0  0  0
M  END
>  <minimizedAffinity>
-5.88129425

$$$$

 OpenBabel03252503253D

 41 45  0  0  1  0  0  0  0  0999 V2000
   36.5310   29.7960   40.6090 C   0  0  1  0  0  0  0  0  0  0  0  0
   35.2470   29.7430   39.9160 C   0  0  0  0  0  0  0  0  0  0  0  0
   36.4130   29.1040   39.2600 C   0  0  2  0  0  0  0  0  0  0  0  0
   36.7270   29.1340   41.4680 H   0  0  0  0  0  0  0  0  0  0  0  0
   34.4400   29.2460   40.4400 H   0  0  0  0  0  0  0  0  0  0  0  0
   34.8990   30.7500   39.5130 H   0  0  0  0  0  0  0  0  0  0  0  0
   36.8770   29.6280   38.4030 H   0  0  0  0  0  0  0  0  0  0  0  0
   36.5040   27.6230   39.3250 C   0  0  0  0  0  0  0  0  0  0  0  0
   35.9150   26.7620   38.4230 C   0  0  0  0  0  0  0  0  0  0  0  0
   36.0460   25.3880   38.5530 C   0  0  0  0  0  0  0  0  0  0  0  0
   36.7710   24.8580   39.5900 C   0  0  0  0  0  0  0  0  0  0  0  0
   36.9200   23.5200   39.7350 N   0  0  0  0  0  0  0  0  0  0  0  0
   37.6460   23.0160   40.7680 C   0  0  0  0  0  0  0  0  0  0  0  0
   38.2860   23.8160   41.7440 C   0  0  0  0  0  0  0  0  0  0  0  0
   38.1410   25.1800   41.6050 C   0  0  0  0  0  0  0  0  0  0  0  0
   37.3910   25.6830   40.5370 C   0  0  0  0  0  0  0  0  0  0  0  0
   37.2310   27.0420   40.3660 C   0  0  0  0  0  0  0  0  0  0  0  0
   35.3490   27.2150   37.6170 H   0  0  0  0  0  0  0  0  0  0  0  0
   35.5720   24.7210   37.8270 H   0  0  0  0  0  0  0  0  0  0  0  0
   37.7300   21.9360   40.8320 H   0  0  0  0  0  0  0  0  0  0  0  0
   38.8450   23.3390   42.5360 H   0  0  0  0  0  0  0  0  0  0  0  0
   38.6080   25.8410   42.3200 H   0  0  0  0  0  0  0  0  0  0  0  0
   37.7310   27.6140   41.1360 H   0  0  0  0  0  0  0  0  0  0  0  0
   38.5890   31.0600   41.3260 C   0  0  0  0  0  0  0  0  0  0  0  0
   37.3250   31.0610   40.6410 C   0  0  0  0  0  0  0  0  0  0  0  0
   36.9070   32.2280   40.0570 C   0  0  0  0  0  0  0  0  0  0  0  0
   37.7200   33.3170   40.1650 N   0  0  0  0  0  0  0  0  0  0  0  0
   38.9110   33.3010   40.8170 C   0  0  0  0  0  0  0  0  0  0  0  0
   39.3420   32.1710   41.3960 N   0  0  0  0  0  0  0  0  0  0  0  0
   38.9500   30.1600   41.7970 H   0  0  0  0  0  0  0  0  0  0  0  0
   35.9770   32.2640   39.5400 H   0  0  0  0  0  0  0  0  0  0  0  0
   39.6990   34.5620   40.8580 C   0  0  2  0  0  0  0  0  0  0  0  0
   39.3940   35.6840   39.9900 C   0  0  0  0  0  0  0  0  0  0  0  0
   40.5490   34.8050   39.5710 C   0  0  1  0  0  0  0  0  0  0  0  0
   40.3280   34.7060   41.7730 H   0  0  0  0  0  0  0  0  0  0  0  0
   39.7010   36.7040   40.3270 H   0  0  0  0  0  0  0  0  0  0  0  0
   38.4640   35.7160   39.3930 H   0  0  0  0  0  0  0  0  0  0  0  0
   40.3090   34.1680   38.7030 H   0  0  0  0  0  0  0  0  0  0  0  0
   41.8850   35.2930   39.7360 N   0  0  0  0  0  0  0  0  0  0  0  0
   41.8310   36.0190   40.5110 H   0  0  0  0  0  0  0  0  0  0  0  0
   42.4470   34.5150   40.1360 H   0  0  0  0  0  0  0  0  0  0  0  0
  1 25  1  0  0  0  0
  1  4  1  1  0  0  0
  2  5  1  0  0  0  0
  2  1  1  0  0  0  0
  3  7  1  6  0  0  0
  3  8  1  0  0  0  0
  3  2  1  0  0  0  0
  3  1  1  0  0  0  0
  6  2  1  0  0  0  0
  8 17  1  0  0  0  0
  9 10  1  0  0  0  0
  9  8  2  0  0  0  0
 10 11  2  0  0  0  0
 11 12  1  0  0  0  0
 11 16  1  0  0  0  0
 12 13  2  0  0  0  0
 13 20  1  0  0  0  0
 13 14  1  0  0  0  0
 14 21  1  0  0  0  0
 15 14  2  0  0  0  0
 15 22  1  0  0  0  0
 16 15  1  0  0  0  0
 17 16  2  0  0  0  0
 17 23  1  0  0  0  0
 18  9  1  0  0  0  0
 19 10  1  0  0  0  0
 24 29  1  0  0  0  0
 24 30  1  0  0  0  0
 25 24  2  0  0  0  0
 26 27  2  0  0  0  0
 26 25  1  0  0  0  0
 27 28  1  0  0  0  0
 28 32  1  0  0  0  0
 28 29  2  0  0  0  0
 31 26  1  0  0  0  0
 32 35  1  1  0  0  0
 33 36  1  0  0  0  0
 33 32  1  0  0  0  0
 34 38  1  6  0  0  0
 34 39  1  0  0  0  0
 34 33  1  0  0  0  0
 34 32  1  0  0  0  0
 37 33  1  0  0  0  0
 39 41  1  0  0  0  0
 39 40  1  0  0  0  0
M  END
>  <minimizedAffinity>
-5.8348031

$$$$

 OpenBabel03252503253D

 41 45  0  0  1  0  0  0  0  0999 V2000
   37.6230   29.8110   39.1880 C   0  0  1  0  0  0  0  0  0  0  0  0
   36.4690   30.5300   38.6560 C   0  0  0  0  0  0  0  0  0  0  0  0
   36.9910   30.9460   39.9800 C   0  0  2  0  0  0  0  0  0  0  0  0
   38.6320   30.0110   38.7940 H   0  0  0  0  0  0  0  0  0  0  0  0
   36.6140   31.0350   37.7100 H   0  0  0  0  0  0  0  0  0  0  0  0
   35.5110   29.9130   38.6350 H   0  0  0  0  0  0  0  0  0  0  0  0
   36.4180   30.6500   40.8790 H   0  0  0  0  0  0  0  0  0  0  0  0
   37.8110   32.1830   40.0310 C   0  0  0  0  0  0  0  0  0  0  0  0
   37.3400   33.4460   39.7380 C   0  0  0  0  0  0  0  0  0  0  0  0
   38.1710   34.5540   39.8090 C   0  0  0  0  0  0  0  0  0  0  0  0
   39.4850   34.4110   40.1750 C   0  0  0  0  0  0  0  0  0  0  0  0
   40.3150   35.4780   40.2570 N   0  0  0  0  0  0  0  0  0  0  0  0
   41.6130   35.3140   40.6260 C   0  0  0  0  0  0  0  0  0  0  0  0
   42.1880   34.0600   40.9430 C   0  0  0  0  0  0  0  0  0  0  0  0
   41.3520   32.9680   40.8630 C   0  0  0  0  0  0  0  0  0  0  0  0
   40.0190   33.1530   40.4830 C   0  0  0  0  0  0  0  0  0  0  0  0
   39.1540   32.0820   40.3980 C   0  0  0  0  0  0  0  0  0  0  0  0
   36.2970   33.5230   39.4520 H   0  0  0  0  0  0  0  0  0  0  0  0
   37.7800   35.5480   39.5730 H   0  0  0  0  0  0  0  0  0  0  0  0
   42.2290   36.2060   40.6750 H   0  0  0  0  0  0  0  0  0  0  0  0
   43.2290   34.0130   41.2280 H   0  0  0  0  0  0  0  0  0  0  0  0
   41.7350   31.9850   41.0950 H   0  0  0  0  0  0  0  0  0  0  0  0
   39.6360   31.1450   40.6430 H   0  0  0  0  0  0  0  0  0  0  0  0
   38.2950   28.0560   40.8660 C   0  0  0  0  0  0  0  0  0  0  0  0
   37.4670   28.4380   39.7540 C   0  0  0  0  0  0  0  0  0  0  0  0
   36.5810   27.5150   39.2620 C   0  0  0  0  0  0  0  0  0  0  0  0
   36.5430   26.2920   39.8600 N   0  0  0  0  0  0  0  0  0  0  0  0
   37.3320   25.9450   40.9100 C   0  0  0  0  0  0  0  0  0  0  0  0
   38.2070   26.8310   41.4100 N   0  0  0  0  0  0  0  0  0  0  0  0
   39.0030   28.7550   41.2790 H   0  0  0  0  0  0  0  0  0  0  0  0
   35.9520   27.7640   38.4400 H   0  0  0  0  0  0  0  0  0  0  0  0
   37.1850   24.5750   41.4680 C   0  0  2  0  0  0  0  0  0  0  0  0
   38.1000   24.0530   42.4670 C   0  0  0  0  0  0  0  0  0  0  0  0
   38.3310   23.6040   41.0430 C   0  0  1  0  0  0  0  0  0  0  0  0
   36.1870   24.0940   41.3050 H   0  0  0  0  0  0  0  0  0  0  0  0
   37.7300   23.2430   43.1410 H   0  0  0  0  0  0  0  0  0  0  0  0
   38.8290   24.7060   42.9780 H   0  0  0  0  0  0  0  0  0  0  0  0
   39.2200   24.0730   40.5860 H   0  0  0  0  0  0  0  0  0  0  0  0
   37.9730   22.2690   40.6710 N   0  0  0  0  0  0  0  0  0  0  0  0
   37.2210   21.9720   41.3620 H   0  0  0  0  0  0  0  0  0  0  0  0
   37.4860   22.3280   39.7540 H   0  0  0  0  0  0  0  0  0  0  0  0
  1  4  1  6  0  0  0
  1 25  1  0  0  0  0
  1  3  1  0  0  0  0
  2  1  1  0  0  0  0
  2  3  1  0  0  0  0
  3  8  1  0  0  0  0
  3  7  1  1  0  0  0
  5  2  1  0  0  0  0
  6  2  1  0  0  0  0
  8 17  1  0  0  0  0
  9 10  1  0  0  0  0
  9  8  2  0  0  0  0
 10 11  2  0  0  0  0
 11 12  1  0  0  0  0
 11 16  1  0  0  0  0
 12 13  2  0  0  0  0
 13 20  1  0  0  0  0
 13 14  1  0  0  0  0
 14 21  1  0  0  0  0
 15 14  2  0  0  0  0
 15 22  1  0  0  0  0
 16 15  1  0  0  0  0
 17 16  2  0  0  0  0
 17 23  1  0  0  0  0
 18  9  1  0  0  0  0
 19 10  1  0  0  0  0
 24 30  1  0  0  0  0
 24 29  1  0  0  0  0
 25 24  2  0  0  0  0
 26 25  1  0  0  0  0
 26 27  2  0  0  0  0
 27 28  1  0  0  0  0
 28 29  2  0  0  0  0
 28 32  1  0  0  0  0
 31 26  1  0  0  0  0
 32 35  1  1  0  0  0
 32 33  1  0  0  0  0
 33 37  1  0  0  0  0
 33 36  1  0  0  0  0
 34 38  1  6  0  0  0
 34 32  1  0  0  0  0
 34 33  1  0  0  0  0
 39 34  1  0  0  0  0
 39 40  1  0  0  0  0
 41 39  1  0  0  0  0
M  END
>  <minimizedAffinity>
-5.82178593

$$$$

 OpenBabel03252503253D

 41 45  0  0  1  0  0  0  0  0999 V2000
   36.5780   30.0730   39.6520 C   0  0  1  0  0  0  0  0  0  0  0  0
   36.2580   29.7890   38.2560 C   0  0  0  0  0  0  0  0  0  0  0  0
   37.3610   29.0210   38.8820 C   0  0  2  0  0  0  0  0  0  0  0  0
   35.9330   29.6890   40.4600 H   0  0  0  0  0  0  0  0  0  0  0  0
   35.2520   29.4410   38.0570 H   0  0  0  0  0  0  0  0  0  0  0  0
   36.5370   30.6290   37.5390 H   0  0  0  0  0  0  0  0  0  0  0  0
   38.3990   29.2910   38.6100 H   0  0  0  0  0  0  0  0  0  0  0  0
   37.0710   27.6230   39.2920 C   0  0  0  0  0  0  0  0  0  0  0  0
   37.5050   27.0470   40.4670 C   0  0  0  0  0  0  0  0  0  0  0  0
   37.1920   25.7320   40.7790 C   0  0  0  0  0  0  0  0  0  0  0  0
   36.4390   24.9780   39.9160 C   0  0  0  0  0  0  0  0  0  0  0  0
   36.1140   23.6940   40.2010 N   0  0  0  0  0  0  0  0  0  0  0  0
   35.3630   22.9660   39.3330 C   0  0  0  0  0  0  0  0  0  0  0  0
   34.8730   23.4670   38.1030 C   0  0  0  0  0  0  0  0  0  0  0  0
   35.1970   24.7730   37.8050 C   0  0  0  0  0  0  0  0  0  0  0  0
   35.9700   25.5100   38.7080 C   0  0  0  0  0  0  0  0  0  0  0  0
   36.3080   26.8200   38.4420 C   0  0  0  0  0  0  0  0  0  0  0  0
   38.0990   27.6710   41.1260 H   0  0  0  0  0  0  0  0  0  0  0  0
   37.5450   25.2920   41.7160 H   0  0  0  0  0  0  0  0  0  0  0  0
   35.1350   21.9430   39.6160 H   0  0  0  0  0  0  0  0  0  0  0  0
   34.2820   22.8240   37.4680 H   0  0  0  0  0  0  0  0  0  0  0  0
   34.8500   25.2100   36.8800 H   0  0  0  0  0  0  0  0  0  0  0  0
   35.9180   27.1600   37.4920 H   0  0  0  0  0  0  0  0  0  0  0  0
   37.0410   32.5240   39.3000 C   0  0  0  0  0  0  0  0  0  0  0  0
   37.3200   31.3140   40.0240 C   0  0  0  0  0  0  0  0  0  0  0  0
   38.2640   31.3590   41.0170 C   0  0  0  0  0  0  0  0  0  0  0  0
   38.8790   32.5520   41.2520 N   0  0  0  0  0  0  0  0  0  0  0  0
   38.6050   33.6870   40.5590 C   0  0  0  0  0  0  0  0  0  0  0  0
   37.6850   33.6690   39.5830 N   0  0  0  0  0  0  0  0  0  0  0  0
   36.3040   32.5270   38.5130 H   0  0  0  0  0  0  0  0  0  0  0  0
   38.4960   30.4830   41.5740 H   0  0  0  0  0  0  0  0  0  0  0  0
   39.3500   34.9220   40.9210 C   0  0  2  0  0  0  0  0  0  0  0  0
   39.8360   35.8470   39.9150 C   0  0  0  0  0  0  0  0  0  0  0  0
   40.8510   34.8900   40.4930 C   0  0  1  0  0  0  0  0  0  0  0  0
   39.2570   35.2420   41.9910 H   0  0  0  0  0  0  0  0  0  0  0  0
   39.9940   36.9110   40.2160 H   0  0  0  0  0  0  0  0  0  0  0  0
   39.5230   35.7660   38.8580 H   0  0  0  0  0  0  0  0  0  0  0  0
   41.1380   34.0920   39.7870 H   0  0  0  0  0  0  0  0  0  0  0  0
   41.8210   35.3890   41.4210 N   0  0  0  0  0  0  0  0  0  0  0  0
   41.3850   36.2570   41.8520 H   0  0  0  0  0  0  0  0  0  0  0  0
   41.8790   34.7030   42.2000 H   0  0  0  0  0  0  0  0  0  0  0  0
  1 25  1  0  0  0  0
  1  4  1  1  0  0  0
  2  3  1  0  0  0  0
  2  1  1  0  0  0  0
  3  7  1  6  0  0  0
  3  8  1  0  0  0  0
  3  1  1  0  0  0  0
  5  2  1  0  0  0  0
  6  2  1  0  0  0  0
  8  9  1  0  0  0  0
  9 10  2  0  0  0  0
  9 18  1  0  0  0  0
 10 19  1  0  0  0  0
 11 12  1  0  0  0  0
 11 10  1  0  0  0  0
 13 20  1  0  0  0  0
 13 12  2  0  0  0  0
 14 13  1  0  0  0  0
 15 14  2  0  0  0  0
 15 16  1  0  0  0  0
 16 11  2  0  0  0  0
 17 16  1  0  0  0  0
 17  8  2  0  0  0  0
 21 14  1  0  0  0  0
 22 15  1  0  0  0  0
 23 17  1  0  0  0  0
 24 29  2  0  0  0  0
 24 25  1  0  0  0  0
 25 26  2  0  0  0  0
 26 27  1  0  0  0  0
 26 31  1  0  0  0  0
 28 32  1  0  0  0  0
 28 27  2  0  0  0  0
 29 28  1  0  0  0  0
 30 24  1  0  0  0  0
 32 35  1  1  0  0  0
 33 36  1  0  0  0  0
 33 34  1  0  0  0  0
 33 32  1  0  0  0  0
 34 38  1  6  0  0  0
 34 32  1  0  0  0  0
 34 39  1  0  0  0  0
 37 33  1  0  0  0  0
 39 40  1  0  0  0  0
 39 41  1  0  0  0  0
M  END
>  <minimizedAffinity>
-5.73656988

$$$$

 OpenBabel03252503253D

 41 45  0  0  1  0  0  0  0  0999 V2000
   37.3380   27.3070   42.0250 C   0  0  1  0  0  0  0  0  0  0  0  0
   37.7860   27.5100   43.4000 C   0  0  0  0  0  0  0  0  0  0  0  0
   38.7200   27.8780   42.3090 C   0  0  2  0  0  0  0  0  0  0  0  0
   36.6200   28.0060   41.5660 H   0  0  0  0  0  0  0  0  0  0  0  0
   37.1910   28.1830   44.0030 H   0  0  0  0  0  0  0  0  0  0  0  0
   37.9880   26.5420   43.9660 H   0  0  0  0  0  0  0  0  0  0  0  0
   39.5740   27.2030   42.1090 H   0  0  0  0  0  0  0  0  0  0  0  0
   38.8600   29.3210   41.9900 C   0  0  0  0  0  0  0  0  0  0  0  0
   39.7920   30.1620   42.5620 C   0  0  0  0  0  0  0  0  0  0  0  0
   39.8600   31.5020   42.2110 C   0  0  0  0  0  0  0  0  0  0  0  0
   38.9930   32.0160   41.2810 C   0  0  0  0  0  0  0  0  0  0  0  0
   39.0430   33.3200   40.9160 N   0  0  0  0  0  0  0  0  0  0  0  0
   38.1770   33.8090   39.9890 C   0  0  0  0  0  0  0  0  0  0  0  0
   37.1860   33.0270   39.3490 C   0  0  0  0  0  0  0  0  0  0  0  0
   37.1270   31.6990   39.7130 C   0  0  0  0  0  0  0  0  0  0  0  0
   38.0250   31.2110   40.6670 C   0  0  0  0  0  0  0  0  0  0  0  0
   37.9970   29.8860   41.0500 C   0  0  0  0  0  0  0  0  0  0  0  0
   40.4610   29.7220   43.2930 H   0  0  0  0  0  0  0  0  0  0  0  0
   40.6060   32.1530   42.6740 H   0  0  0  0  0  0  0  0  0  0  0  0
   38.2650   34.8610   39.7370 H   0  0  0  0  0  0  0  0  0  0  0  0
   36.5340   33.4910   38.6220 H   0  0  0  0  0  0  0  0  0  0  0  0
   36.3910   31.0530   39.2560 H   0  0  0  0  0  0  0  0  0  0  0  0
   37.2230   29.3280   40.5410 H   0  0  0  0  0  0  0  0  0  0  0  0
   36.8880   25.7920   40.0640 C   0  0  0  0  0  0  0  0  0  0  0  0
   37.2930   25.9360   41.4350 C   0  0  0  0  0  0  0  0  0  0  0  0
   37.6100   24.8020   42.1380 C   0  0  0  0  0  0  0  0  0  0  0  0
   37.5180   23.6080   41.4870 N   0  0  0  0  0  0  0  0  0  0  0  0
   37.1320   23.4880   40.1910 C   0  0  0  0  0  0  0  0  0  0  0  0
   36.8180   24.5830   39.4820 N   0  0  0  0  0  0  0  0  0  0  0  0
   36.6320   26.6620   39.4800 H   0  0  0  0  0  0  0  0  0  0  0  0
   37.9150   24.8720   43.1550 H   0  0  0  0  0  0  0  0  0  0  0  0
   37.0780   22.1230   39.6050 C   0  0  2  0  0  0  0  0  0  0  0  0
   37.9480   21.0560   40.0640 C   0  0  0  0  0  0  0  0  0  0  0  0
   38.3510   21.7470   38.7830 C   0  0  1  0  0  0  0  0  0  0  0  0
   36.1530   21.8890   39.0180 H   0  0  0  0  0  0  0  0  0  0  0  0
   37.6040   20.0030   39.9200 H   0  0  0  0  0  0  0  0  0  0  0  0
   38.5580   21.1630   40.9790 H   0  0  0  0  0  0  0  0  0  0  0  0
   39.2240   22.4100   38.9110 H   0  0  0  0  0  0  0  0  0  0  0  0
   38.1650   21.0630   37.5390 N   0  0  0  0  0  0  0  0  0  0  0  0
   37.3900   20.3570   37.7140 H   0  0  0  0  0  0  0  0  0  0  0  0
   37.7590   21.7480   36.8710 H   0  0  0  0  0  0  0  0  0  0  0  0
  1  4  1  6  0  0  0
  1  3  1  0  0  0  0
  1  2  1  0  0  0  0
  2  6  1  0  0  0  0
  2  5  1  0  0  0  0
  3  7  1  6  0  0  0
  3  2  1  0  0  0  0
  8  3  1  0  0  0  0
  8  9  1  0  0  0  0
  9 18  1  0  0  0  0
 10  9  2  0  0  0  0
 10 19  1  0  0  0  0
 11 10  1  0  0  0  0
 12 11  1  0  0  0  0
 13 12  2  0  0  0  0
 14 15  2  0  0  0  0
 14 13  1  0  0  0  0
 15 16  1  0  0  0  0
 16 17  1  0  0  0  0
 16 11  2  0  0  0  0
 17  8  2  0  0  0  0
 20 13  1  0  0  0  0
 21 14  1  0  0  0  0
 22 15  1  0  0  0  0
 23 17  1  0  0  0  0
 24 25  1  0  0  0  0
 25  1  1  0  0  0  0
 25 26  2  0  0  0  0
 26 31  1  0  0  0  0
 27 26  1  0  0  0  0
 28 27  2  0  0  0  0
 29 24  2  0  0  0  0
 29 28  1  0  0  0  0
 30 24  1  0  0  0  0
 32 35  1  6  0  0  0
 32 33  1  0  0  0  0
 32 28  1  0  0  0  0
 33 37  1  0  0  0  0
 34 38  1  1  0  0  0
 34 32  1  0  0  0  0
 34 33  1  0  0  0  0
 36 33  1  0  0  0  0
 39 40  1  0  0  0  0
 39 34  1  0  0  0  0
 41 39  1  0  0  0  0
M  END
>  <minimizedAffinity>
-5.7226553

$$$$

 OpenBabel03252503253D

 41 45  0  0  1  0  0  0  0  0999 V2000
   37.0840   29.5250   39.9970 C   0  0  1  0  0  0  0  0  0  0  0  0
   36.3190   28.8220   41.0220 C   0  0  0  0  0  0  0  0  0  0  0  0
   35.5670   29.4570   39.9130 C   0  0  2  0  0  0  0  0  0  0  0  0
   37.6290   28.9590   39.2240 H   0  0  0  0  0  0  0  0  0  0  0  0
   36.5360   27.7690   41.1430 H   0  0  0  0  0  0  0  0  0  0  0  0
   36.3130   29.3460   42.0340 H   0  0  0  0  0  0  0  0  0  0  0  0
   35.0270   30.3990   40.1260 H   0  0  0  0  0  0  0  0  0  0  0  0
   35.0550   28.5680   38.8400 C   0  0  0  0  0  0  0  0  0  0  0  0
   35.5430   27.3060   38.5690 C   0  0  0  0  0  0  0  0  0  0  0  0
   35.0110   26.5360   37.5460 C   0  0  0  0  0  0  0  0  0  0  0  0
   33.9820   27.0210   36.7800 C   0  0  0  0  0  0  0  0  0  0  0  0
   33.4410   26.2860   35.7800 N   0  0  0  0  0  0  0  0  0  0  0  0
   32.4190   26.7840   35.0350 C   0  0  0  0  0  0  0  0  0  0  0  0
   31.8530   28.0660   35.2330 C   0  0  0  0  0  0  0  0  0  0  0  0
   32.3960   28.8220   36.2490 C   0  0  0  0  0  0  0  0  0  0  0  0
   33.4460   28.2950   37.0070 C   0  0  0  0  0  0  0  0  0  0  0  0
   34.0090   29.0230   38.0350 C   0  0  0  0  0  0  0  0  0  0  0  0
   36.3570   26.9550   39.1940 H   0  0  0  0  0  0  0  0  0  0  0  0
   35.4110   25.5370   37.3480 H   0  0  0  0  0  0  0  0  0  0  0  0
   32.0260   26.1490   34.2470 H   0  0  0  0  0  0  0  0  0  0  0  0
   31.0400   28.3890   34.5980 H   0  0  0  0  0  0  0  0  0  0  0  0
   32.0030   29.8080   36.4480 H   0  0  0  0  0  0  0  0  0  0  0  0
   33.5500   29.9960   38.1470 H   0  0  0  0  0  0  0  0  0  0  0  0
   37.1090   32.0170   39.6250 C   0  0  0  0  0  0  0  0  0  0  0  0
   37.6750   30.8680   40.2780 C   0  0  0  0  0  0  0  0  0  0  0  0
   38.7390   31.0620   41.1200 C   0  0  0  0  0  0  0  0  0  0  0  0
   39.1930   32.3360   41.2830 N   0  0  0  0  0  0  0  0  0  0  0  0
   38.6480   33.4120   40.6600 C   0  0  0  0  0  0  0  0  0  0  0  0
   37.6060   33.2480   39.8310 N   0  0  0  0  0  0  0  0  0  0  0  0
   36.2720   31.9030   38.9560 H   0  0  0  0  0  0  0  0  0  0  0  0
   39.1830   30.2340   41.6200 H   0  0  0  0  0  0  0  0  0  0  0  0
   39.2420   34.7480   40.9300 C   0  0  2  0  0  0  0  0  0  0  0  0
   39.1170   35.8470   39.9900 C   0  0  0  0  0  0  0  0  0  0  0  0
   40.4320   35.1030   39.9840 C   0  0  1  0  0  0  0  0  0  0  0  0
   39.5220   34.9420   41.9970 H   0  0  0  0  0  0  0  0  0  0  0  0
   39.1880   36.8870   40.3910 H   0  0  0  0  0  0  0  0  0  0  0  0
   38.4330   35.7900   39.1250 H   0  0  0  0  0  0  0  0  0  0  0  0
   40.5540   34.4590   39.0960 H   0  0  0  0  0  0  0  0  0  0  0  0
   41.5830   35.7280   40.5630 N   0  0  0  0  0  0  0  0  0  0  0  0
   41.2040   36.4300   41.2660 H   0  0  0  0  0  0  0  0  0  0  0  0
   42.0650   35.0070   41.1370 H   0  0  0  0  0  0  0  0  0  0  0  0
  1  4  1  6  0  0  0
  1 25  1  0  0  0  0
  1  2  1  0  0  0  0
  2  5  1  0  0  0  0
  2  6  1  0  0  0  0
  3  1  1  0  0  0  0
  3  7  1  1  0  0  0
  3  2  1  0  0  0  0
  8  3  1  0  0  0  0
  9  8  1  0  0  0  0
  9 18  1  0  0  0  0
 10  9  2  0  0  0  0
 11 16  1  0  0  0  0
 11 10  1  0  0  0  0
 12 11  2  0  0  0  0
 13 14  2  0  0  0  0
 13 12  1  0  0  0  0
 14 15  1  0  0  0  0
 15 22  1  0  0  0  0
 15 16  2  0  0  0  0
 16 17  1  0  0  0  0
 17 23  1  0  0  0  0
 17  8  2  0  0  0  0
 19 10  1  0  0  0  0
 20 13  1  0  0  0  0
 21 14  1  0  0  0  0
 24 29  2  0  0  0  0
 24 25  1  0  0  0  0
 25 26  2  0  0  0  0
 26 27  1  0  0  0  0
 26 31  1  0  0  0  0
 28 32  1  0  0  0  0
 28 27  2  0  0  0  0
 29 28  1  0  0  0  0
 30 24  1  0  0  0  0
 32 35  1  1  0  0  0
 33 36  1  0  0  0  0
 33 32  1  0  0  0  0
 34 38  1  6  0  0  0
 34 33  1  0  0  0  0
 34 39  1  0  0  0  0
 34 32  1  0  0  0  0
 37 33  1  0  0  0  0
 39 41  1  0  0  0  0
 39 40  1  0  0  0  0
M  END
>  <minimizedAffinity>
-5.66261578

$$$$
