
 OpenBabel03252509353D

 38 39  0  0  1  0  0  0  0  0999 V2000
   46.5550   34.9320   43.2000 O   0  0  0  0  0  0  0  0  0  0  0  0
   46.8050   33.9830   42.2000 C   0  0  1  0  0  0  0  0  0  0  0  0
   46.0880   34.3910   40.9100 C   0  0  0  0  0  0  0  0  0  0  0  0
   46.7200   33.4430   39.9250 C   0  0  0  0  0  0  0  0  0  0  0  0
   48.1020   33.1270   40.4740 C   0  0  0  0  0  0  0  0  0  0  0  0
   48.2260   33.9660   41.7330 C   0  0  1  0  0  0  0  0  0  0  0  0
   46.4610   32.9760   42.4450 H   0  0  0  0  0  0  0  0  0  0  0  0
   46.1750   35.4460   40.6750 H   0  0  0  0  0  0  0  0  0  0  0  0
   45.0010   34.1110   40.9750 H   0  0  0  0  0  0  0  0  0  0  0  0
   46.7810   33.8640   38.9070 H   0  0  0  0  0  0  0  0  0  0  0  0
   46.1560   32.4850   39.9140 H   0  0  0  0  0  0  0  0  0  0  0  0
   48.2030   32.0660   40.7610 H   0  0  0  0  0  0  0  0  0  0  0  0
   48.8830   33.4160   39.7430 H   0  0  0  0  0  0  0  0  0  0  0  0
   48.8710   33.4060   42.4490 H   0  0  0  0  0  0  0  0  0  0  0  0
   48.7600   35.3420   41.4310 C   0  0  0  0  0  0  0  0  0  0  0  0
   49.3500   35.2320   40.4860 H   0  0  0  0  0  0  0  0  0  0  0  0
   47.9870   36.1190   41.3150 H   0  0  0  0  0  0  0  0  0  0  0  0
   49.6320   35.7930   42.3990 O   0  0  0  0  0  0  0  0  0  0  0  0
   50.4920   35.3150   42.4040 H   0  0  0  0  0  0  0  0  0  0  0  0
   44.7120   35.3940   44.9450 O   0  0  0  0  0  0  0  0  0  0  0  0
   45.5520   34.2730   44.3620 P   0  0  1  0  0  0  0  0  0  0  0  0
   44.5640   33.0850   43.6670 O   0  0  0  0  0  0  0  0  0  0  0  0
   43.8940   33.5540   43.1110 H   0  0  0  0  0  0  0  0  0  0  0  0
   46.4380   33.5180   45.5550 O   0  0  0  0  0  0  0  0  0  0  0  0
   46.1780   32.1820   45.5250 C   0  0  0  0  0  0  0  0  0  0  0  0
   45.4110   31.8200   44.8450 H   0  0  0  0  0  0  0  0  0  0  0  0
   47.1280   31.6770   45.1870 H   0  0  0  0  0  0  0  0  0  0  0  0
   45.6170   31.9590   49.2040 C   0  0  0  0  0  0  0  0  0  0  0  0
   45.8970   32.5110   47.9420 C   0  0  0  0  0  0  0  0  0  0  0  0
   45.8870   31.6280   46.8580 C   0  0  0  0  0  0  0  0  0  0  0  0
   45.6140   30.2980   47.0690 N   0  0  0  0  0  0  0  0  0  0  0  0
   45.3500   29.8040   48.2980 C   0  0  0  0  0  0  0  0  0  0  0  0
   45.3550   30.6280   49.3440 N   0  0  0  0  0  0  0  0  0  0  0  0
   45.6080   32.5830   50.0860 H   0  0  0  0  0  0  0  0  0  0  0  0
   46.0930   33.5530   47.9020 H   0  0  0  0  0  0  0  0  0  0  0  0
   45.0690   28.4240   48.4970 N   0  0  0  0  0  0  0  0  0  0  0  0
   44.7920   28.1210   47.5330 H   0  0  0  0  0  0  0  0  0  0  0  0
   45.1150   27.8300   49.3620 H   0  0  0  0  0  0  0  0  0  0  0  0
  1 21  1  0  0  0  0
  2  7  1  1  0  0  0
  2  1  1  0  0  0  0
  3  9  1  0  0  0  0
  3  2  1  0  0  0  0
  4  5  1  0  0  0  0
  4  3  1  0  0  0  0
  5 12  1  0  0  0  0
  5  6  1  0  0  0  0
  6  2  1  0  0  0  0
  6 14  1  1  0  0  0
  8  3  1  0  0  0  0
 10  4  1  0  0  0  0
 11  4  1  0  0  0  0
 13  5  1  0  0  0  0
 15  6  1  0  0  0  0
 15 18  1  0  0  0  0
 16 15  1  0  0  0  0
 17 15  1  0  0  0  0
 18 19  1  0  0  0  0
 21 20  2  1  0  0  0
 21 24  1  0  0  0  0
 22 21  1  0  0  0  0
 23 22  1  0  0  0  0
 25 24  1  0  0  0  0
 25 30  1  0  0  0  0
 26 25  1  0  0  0  0
 27 25  1  0  0  0  0
 28 33  1  0  0  0  0
 28 34  1  0  0  0  0
 29 28  2  0  0  0  0
 30 31  2  0  0  0  0
 30 29  1  0  0  0  0
 31 32  1  0  0  0  0
 32 36  1  0  0  0  0
 32 33  2  0  0  0  0
 35 29  1  0  0  0  0
 36 38  1  0  0  0  0
 37 36  1  0  0  0  0
M  END
>  <minimizedAffinity>
-5.24432325

>  <minimizedRMSD>
0.112686805

$$$$
