
 OpenBabel03242516533D

 45 48  0  0  1  0  0  0  0  0999 V2000
   47.8490   32.9140   41.8190 C   0  0  1  0  0  0  0  0  0  0  0  0
   47.5280   32.2780   40.5390 C   0  0  0  0  0  0  0  0  0  0  0  0
   48.5540   32.8150   39.5390 C   0  0  0  0  0  0  0  0  0  0  0  0
   48.2110   34.2680   39.3100 C   0  0  0  0  0  0  0  0  0  0  0  0
   48.1350   35.0840   40.5570 C   0  0  0  0  0  0  0  0  0  0  0  0
   47.6390   34.4330   41.7680 C   0  0  1  0  0  0  0  0  0  0  0  0
   48.9650   32.8380   41.9900 H   0  0  0  0  0  0  0  0  0  0  0  0
   47.6080   31.1780   40.6540 H   0  0  0  0  0  0  0  0  0  0  0  0
   46.5040   32.4630   40.1670 H   0  0  0  0  0  0  0  0  0  0  0  0
   49.5540   32.6910   39.9810 H   0  0  0  0  0  0  0  0  0  0  0  0
   48.4170   32.3110   38.5670 H   0  0  0  0  0  0  0  0  0  0  0  0
   47.2050   34.2880   38.8110 H   0  0  0  0  0  0  0  0  0  0  0  0
   48.9290   34.7330   38.6170 H   0  0  0  0  0  0  0  0  0  0  0  0
   47.5030   35.9690   40.3340 H   0  0  0  0  0  0  0  0  0  0  0  0
   49.1600   35.5260   40.7100 H   0  0  0  0  0  0  0  0  0  0  0  0
   48.2260   34.8210   42.6510 H   0  0  0  0  0  0  0  0  0  0  0  0
   45.4260   30.9570   43.9460 C   0  0  0  0  0  0  0  0  0  0  0  0
   46.0980   31.5130   42.8640 C   0  0  0  0  0  0  0  0  0  0  0  0
   47.1970   32.3670   42.9920 C   0  0  0  0  0  0  0  0  0  0  0  0
   47.5650   32.6170   44.2440 N   0  0  0  0  0  0  0  0  0  0  0  0
   46.9270   32.0880   45.3190 C   0  0  0  0  0  0  0  0  0  0  0  0
   45.8730   31.2710   45.1740 N   0  0  0  0  0  0  0  0  0  0  0  0
   44.5790   30.2990   43.8140 H   0  0  0  0  0  0  0  0  0  0  0  0
   45.7120   31.2340   41.9040 H   0  0  0  0  0  0  0  0  0  0  0  0
   47.2300   32.2980   46.3400 H   0  0  0  0  0  0  0  0  0  0  0  0
   46.2430   34.7940   42.0960 C   0  0  0  0  0  0  0  0  0  0  0  0
   45.7940   35.3740   43.2690 C   0  0  0  0  0  0  0  0  0  0  0  0
   44.4210   35.6460   43.3370 C   0  0  0  0  0  0  0  0  0  0  0  0
   43.6440   35.3180   42.2500 C   0  0  0  0  0  0  0  0  0  0  0  0
   44.1050   34.7450   41.0990 C   0  0  0  0  0  0  0  0  0  0  0  0
   45.4390   34.4810   41.0330 N   0  0  0  0  0  0  0  0  0  0  0  0
   46.5250   35.5700   44.0110 H   0  0  0  0  0  0  0  0  0  0  0  0
   44.0610   36.0910   44.2280 H   0  0  0  0  0  0  0  0  0  0  0  0
   42.5750   35.5440   42.3400 H   0  0  0  0  0  0  0  0  0  0  0  0
   43.2050   34.4350   39.9640 C   0  0  0  0  0  0  0  0  0  0  0  0
   42.6040   35.4200   39.4410 O   0  0  0  0  0  0  0  0  0  0  0  0
   42.9610   33.0920   39.4000 C   0  0  0  0  0  0  0  0  0  0  0  0
   42.1610   32.7510   38.3350 C   0  0  0  0  0  0  0  0  0  0  0  0
   41.7310   33.6750   37.9160 H   0  0  0  0  0  0  0  0  0  0  0  0
   41.9800   31.4620   37.9050 C   0  0  0  0  0  3  0  0  0  0  0  0
   42.6440   30.4670   38.5900 C   0  0  0  0  0  0  0  0  0  0  0  0
   42.4660   29.4570   38.2050 H   0  0  0  0  0  0  0  0  0  0  0  0
   43.4680   30.7020   39.6650 C   0  0  0  0  0  0  0  0  0  0  0  0
   43.9670   29.8820   40.1710 H   0  0  0  0  0  0  0  0  0  0  0  0
   43.6110   32.0370   40.0540 C   0  0  0  0  0  3  0  0  0  0  0  0
  1  7  1  1  0  0  0
  1 19  1  0  0  0  0
  2  8  1  0  0  0  0
  2  1  1  0  0  0  0
  3 10  1  0  0  0  0
  3  2  1  0  0  0  0
  4  3  1  0  0  0  0
  4  5  1  0  0  0  0
  5 15  1  0  0  0  0
  5  6  1  0  0  0  0
  6  1  1  0  0  0  0
  6 26  1  0  0  0  0
  6 16  1  1  0  0  0
  9  2  1  0  0  0  0
 11  3  1  0  0  0  0
 12  4  1  0  0  0  0
 13  4  1  0  0  0  0
 14  5  1  0  0  0  0
 17 22  1  0  0  0  0
 18 19  1  0  0  0  0
 18 17  2  0  0  0  0
 19 20  2  0  0  0  0
 20 21  1  0  0  0  0
 21 25  1  0  0  0  0
 22 21  2  0  0  0  0
 23 17  1  0  0  0  0
 24 18  1  0  0  0  0
 26 27  1  0  0  0  0
 27 28  2  0  0  0  0
 27 32  1  0  0  0  0
 28 33  1  0  0  0  0
 29 34  1  0  0  0  0
 29 28  1  0  0  0  0
 30 29  2  0  0  0  0
 31 30  1  0  0  0  0
 31 26  2  0  0  0  0
 35 30  1  0  0  0  0
 36 35  2  0  0  0  0
 37 35  1  0  0  0  0
 37 45  1  0  0  0  0
 38 37  2  0  0  0  0
 39 38  1  0  0  0  0
 40 38  1  0  0  0  0
 40 41  2  0  0  0  0
 41 43  1  0  0  0  0
 42 41  1  0  0  0  0
 43 45  2  0  0  0  0
 43 44  1  0  0  0  0
M  END
>  <minimizedAffinity>
-5.20238924

>  <minimizedRMSD>
0.45239538

$$$$
