REMARK  Name = 
REMARK  4 active torsions:
REMARK  status: ('A' for Active; 'I' for Inactive)
REMARK    1  A    between atoms: C_1  and  C_10
REMARK    2  A    between atoms: C_6  and  C_18
REMARK    3  A    between atoms: C_7  and  C_16
REMARK    4  A    between atoms: C_18  and  C_35
REMARK                            x       y       z     vdW  Elec       q    Type
REMARK                         _______ _______ _______ _____ _____    ______ ____
ROOT
ATOM      1  C   UNL     1      47.569  29.979  48.259  0.00  0.00    +0.000 C 
ATOM      2  C   UNL     1      47.445  28.785  47.380  0.00  0.00    +0.000 C 
ATOM      3  C   UNL     1      48.733  28.031  47.184  0.00  0.00    +0.000 C 
ATOM      4  C   UNL     1      49.511  27.851  48.459  0.00  0.00    +0.000 C 
ATOM      5  C   UNL     1      49.579  29.107  49.267  0.00  0.00    +0.000 C 
ATOM      6  C   UNL     1      49.068  30.313  48.446  0.00  0.00    +0.000 C 
ATOM      7  H   UNL     1      47.209  29.730  49.256  0.00  0.00    +0.000 HD
ATOM      8  H   UNL     1      46.681  28.076  47.773  0.00  0.00    +0.000 HD
ATOM      9  H   UNL     1      47.101  29.115  46.375  0.00  0.00    +0.000 HD
ATOM     10  H   UNL     1      48.485  27.033  46.788  0.00  0.00    +0.000 HD
ATOM     11  H   UNL     1      49.401  28.519  46.433  0.00  0.00    +0.000 HD
ATOM     12  H   UNL     1      50.536  27.522  48.189  0.00  0.00    +0.000 HD
ATOM     13  H   UNL     1      49.015  27.081  49.116  0.00  0.00    +0.000 HD
ATOM     14  H   UNL     1      49.058  29.080  50.227  0.00  0.00    +0.000 HD
ATOM     15  H   UNL     1      50.643  29.374  49.489  0.00  0.00    +0.000 HD
ATOM     16  H   UNL     1      49.576  30.317  47.462  0.00  0.00    +0.000 HD
ENDROOT
BRANCH   1  20
ATOM     17  C   UNL     1      45.917  33.139  46.242  0.00  0.00    +0.000 A 
ATOM     18  C   UNL     1      45.346  32.939  47.493  0.00  0.00    +0.000 A 
ATOM     19  C   UNL     1      45.801  31.937  48.236  0.00  0.00    +0.000 A 
ATOM     20  C   UNL     1      46.835  31.104  47.766  0.00  0.00    +0.000 A 
ATOM     21  S   UNL     1      47.183  31.804  46.123  0.00  0.00    +0.000 S 
ATOM     22  H   UNL     1      44.557  33.583  47.846  0.00  0.00    +0.000 HD
ATOM     23  H   UNL     1      45.481  31.634  49.217  0.00  0.00    +0.000 HD
BRANCH  17  28
ATOM     24  C   UNL     1      44.432  36.106  44.548  0.00  0.00    +0.000 A 
ATOM     25  C   UNL     1      45.043  36.021  43.296  0.00  0.00    +0.000 A 
ATOM     26  C   UNL     1      45.935  34.963  43.090  0.00  0.00    +0.000 A 
ATOM     27  N   UNL     1      46.162  34.075  44.112  0.00  0.00    +0.000 NA
ATOM     28  C   UNL     1      45.547  34.205  45.294  0.00  0.00    +0.000 A 
ATOM     29  N   UNL     1      44.683  35.225  45.503  0.00  0.00    +0.000 NA
ATOM     30  H   UNL     1      43.751  36.912  44.711  0.00  0.00    +0.000 HD
ATOM     31  H   UNL     1      44.885  36.705  42.470  0.00  0.00    +0.000 HD
ATOM     32  H   UNL     1      46.470  34.805  42.141  0.00  0.00    +0.000 HD
ENDBRANCH  17  28
ENDBRANCH   1  20
BRANCH   6  33
ATOM     33  C   UNL     1      49.237  31.528  49.217  0.00  0.00    +0.000 C 
ATOM     34  O   UNL     1      49.931  31.553  50.240  0.00  0.00    +0.000 OA
BRANCH  33  35
ATOM     35  C   UNL     1      48.883  32.907  49.289  0.00  0.00    +0.000 A 
ATOM     36  C   UNL     1      49.521  34.032  48.812  0.00  0.00    +0.000 A 
ATOM     37  H   UNL     1      50.564  33.813  48.505  0.00  0.00    +0.000 HD
ATOM     38  C   UNL     1      49.199  35.345  48.694  0.00  0.00    +0.000 A 
ATOM     39  C   UNL     1      47.950  35.587  49.164  0.00  0.00    +0.000 A 
ATOM     40  H   UNL     1      47.552  36.604  49.129  0.00  0.00    +0.000 HD
ATOM     41  C   UNL     1      47.094  34.656  49.697  0.00  0.00    +0.000 A 
ATOM     42  H   UNL     1      46.114  34.873  50.062  0.00  0.00    +0.000 HD
ATOM     43  C   UNL     1      47.608  33.374  49.730  0.00  0.00    +0.000 A 
ENDBRANCH  33  35
ENDBRANCH   6  33
TORSDOF 4
