
 OpenBabel03242516533D

 45 48  0  0  1  0  0  0  0  0999 V2000
   47.8840   32.8980   41.7260 C   0  0  1  0  0  0  0  0  0  0  0  0
   47.5450   32.2120   40.4760 C   0  0  0  0  0  0  0  0  0  0  0  0
   48.5700   32.6920   39.4470 C   0  0  0  0  0  0  0  0  0  0  0  0
   48.2460   34.1390   39.1590 C   0  0  0  0  0  0  0  0  0  0  0  0
   48.1910   35.0080   40.3710 C   0  0  0  0  0  0  0  0  0  0  0  0
   47.6950   34.4160   41.6120 C   0  0  1  0  0  0  0  0  0  0  0  0
   49.0000   32.8120   41.8920 H   0  0  0  0  0  0  0  0  0  0  0  0
   47.6100   31.1180   40.6370 H   0  0  0  0  0  0  0  0  0  0  0  0
   46.5200   32.3960   40.1040 H   0  0  0  0  0  0  0  0  0  0  0  0
   49.5720   32.5720   39.8870 H   0  0  0  0  0  0  0  0  0  0  0  0
   48.4190   32.1490   38.4980 H   0  0  0  0  0  0  0  0  0  0  0  0
   47.2370   34.1520   38.6670 H   0  0  0  0  0  0  0  0  0  0  0  0
   48.9660   34.5630   38.4420 H   0  0  0  0  0  0  0  0  0  0  0  0
   47.5700   35.8910   40.1150 H   0  0  0  0  0  0  0  0  0  0  0  0
   49.2230   35.4410   40.4980 H   0  0  0  0  0  0  0  0  0  0  0  0
   48.2940   34.8330   42.4730 H   0  0  0  0  0  0  0  0  0  0  0  0
   45.4800   31.0290   43.9510 C   0  0  0  0  0  0  0  0  0  0  0  0
   46.1500   31.5310   42.8420 C   0  0  0  0  0  0  0  0  0  0  0  0
   47.2330   32.4110   42.9260 C   0  0  0  0  0  0  0  0  0  0  0  0
   47.5880   32.7400   44.1630 N   0  0  0  0  0  0  0  0  0  0  0  0
   46.9510   32.2660   45.2630 C   0  0  0  0  0  0  0  0  0  0  0  0
   45.9120   31.4230   45.1610 N   0  0  0  0  0  0  0  0  0  0  0  0
   44.6450   30.3500   43.8530 H   0  0  0  0  0  0  0  0  0  0  0  0
   45.7750   31.1880   41.8980 H   0  0  0  0  0  0  0  0  0  0  0  0
   47.2440   32.5420   46.2720 H   0  0  0  0  0  0  0  0  0  0  0  0
   46.3060   34.8100   41.9340 C   0  0  0  0  0  0  0  0  0  0  0  0
   45.8810   35.4810   43.0670 C   0  0  0  0  0  0  0  0  0  0  0  0
   44.5100   35.7670   43.1350 C   0  0  0  0  0  0  0  0  0  0  0  0
   43.7130   35.3630   42.0890 C   0  0  0  0  0  0  0  0  0  0  0  0
   44.1530   34.7010   40.9770 C   0  0  0  0  0  0  0  0  0  0  0  0
   45.4830   34.4240   40.9100 N   0  0  0  0  0  0  0  0  0  0  0  0
   46.6250   35.7270   43.7790 H   0  0  0  0  0  0  0  0  0  0  0  0
   44.1670   36.2800   43.9960 H   0  0  0  0  0  0  0  0  0  0  0  0
   42.6480   35.6030   42.1790 H   0  0  0  0  0  0  0  0  0  0  0  0
   43.2320   34.3130   39.8840 C   0  0  0  0  0  0  0  0  0  0  0  0
   42.4810   35.2290   39.4320 O   0  0  0  0  0  0  0  0  0  0  0  0
   43.1260   32.9670   39.2850 C   0  0  0  0  0  0  0  0  0  0  0  0
   42.5480   32.6150   38.0870 C   0  0  0  0  0  0  0  0  0  0  0  0
   42.1870   33.5310   37.5950 H   0  0  0  0  0  0  0  0  0  0  0  0
   42.4770   31.3230   37.6320 C   0  0  0  0  0  3  0  0  0  0  0  0
   43.0190   30.3390   38.4300 C   0  0  0  0  0  0  0  0  0  0  0  0
   42.9370   29.3280   38.0190 H   0  0  0  0  0  0  0  0  0  0  0  0
   43.6200   30.5870   39.6420 C   0  0  0  0  0  0  0  0  0  0  0  0
   44.0310   29.7750   40.2330 H   0  0  0  0  0  0  0  0  0  0  0  0
   43.6610   31.9230   40.0500 C   0  0  0  0  0  3  0  0  0  0  0  0
  1  7  1  1  0  0  0
  1 19  1  0  0  0  0
  2  8  1  0  0  0  0
  2  1  1  0  0  0  0
  3 10  1  0  0  0  0
  3  2  1  0  0  0  0
  4  3  1  0  0  0  0
  4  5  1  0  0  0  0
  5 15  1  0  0  0  0
  5  6  1  0  0  0  0
  6  1  1  0  0  0  0
  6 26  1  0  0  0  0
  6 16  1  1  0  0  0
  9  2  1  0  0  0  0
 11  3  1  0  0  0  0
 12  4  1  0  0  0  0
 13  4  1  0  0  0  0
 14  5  1  0  0  0  0
 17 22  1  0  0  0  0
 18 19  1  0  0  0  0
 18 17  2  0  0  0  0
 19 20  2  0  0  0  0
 20 21  1  0  0  0  0
 21 25  1  0  0  0  0
 22 21  2  0  0  0  0
 23 17  1  0  0  0  0
 24 18  1  0  0  0  0
 26 27  1  0  0  0  0
 27 28  2  0  0  0  0
 27 32  1  0  0  0  0
 28 33  1  0  0  0  0
 29 34  1  0  0  0  0
 29 28  1  0  0  0  0
 30 29  2  0  0  0  0
 31 30  1  0  0  0  0
 31 26  2  0  0  0  0
 35 30  1  0  0  0  0
 36 35  2  0  0  0  0
 37 35  1  0  0  0  0
 37 45  1  0  0  0  0
 38 37  2  0  0  0  0
 39 38  1  0  0  0  0
 40 38  1  0  0  0  0
 40 41  2  0  0  0  0
 41 43  1  0  0  0  0
 42 41  1  0  0  0  0
 43 45  2  0  0  0  0
 43 44  1  0  0  0  0
M  END
>  <minimizedAffinity>
-5.16882086

>  <minimizedRMSD>
0.251781404

$$$$
