
 OpenBabel03252509193D

 43 46  0  0  1  0  0  0  0  0999 V2000
   46.7530   30.6240   46.4580 C   0  0  1  0  0  0  0  0  0  0  0  0
   47.7960   29.6630   46.9080 C   0  0  0  0  0  0  0  0  0  0  0  0
   48.6810   30.1890   48.0060 C   0  0  0  0  0  0  0  0  0  0  0  0
   47.9190   30.9090   49.0850 C   0  0  0  0  0  0  0  0  0  0  0  0
   46.9000   31.8510   48.5290 C   0  0  0  0  0  0  0  0  0  0  0  0
   47.0940   32.0300   47.0060 C   0  0  2  0  0  0  0  0  0  0  0  0
   45.8020   30.3640   46.9200 H   0  0  0  0  0  0  0  0  0  0  0  0
   47.3380   28.7090   47.2540 H   0  0  0  0  0  0  0  0  0  0  0  0
   48.4530   29.4190   46.0440 H   0  0  0  0  0  0  0  0  0  0  0  0
   49.1990   29.3300   48.4650 H   0  0  0  0  0  0  0  0  0  0  0  0
   49.4740   30.8750   47.6210 H   0  0  0  0  0  0  0  0  0  0  0  0
   48.6510   31.4700   49.7030 H   0  0  0  0  0  0  0  0  0  0  0  0
   47.3520   30.1730   49.7230 H   0  0  0  0  0  0  0  0  0  0  0  0
   45.8570   31.5910   48.7300 H   0  0  0  0  0  0  0  0  0  0  0  0
   47.0550   32.8820   48.9360 H   0  0  0  0  0  0  0  0  0  0  0  0
   48.1580   32.2620   46.8060 H   0  0  0  0  0  0  0  0  0  0  0  0
   47.0400   30.7820   42.3750 C   0  0  0  0  0  0  0  0  0  0  0  0
   45.7360   30.5920   42.8170 C   0  0  0  0  0  0  0  0  0  0  0  0
   45.5240   30.5210   44.1260 C   0  0  0  0  0  0  0  0  0  0  0  0
   46.5920   30.6370   45.0360 C   0  0  0  0  0  0  0  0  0  0  0  0
   48.0220   30.8590   43.9330 S   0  0  0  0  0  0  0  0  0  0  0  0
   44.9240   30.5070   42.1140 H   0  0  0  0  0  0  0  0  0  0  0  0
   44.5930   30.3760   44.6450 H   0  0  0  0  0  0  0  0  0  0  0  0
   47.6310   30.2660   38.7330 C   0  0  0  0  0  0  0  0  0  0  0  0
   48.4170   31.3810   38.4380 C   0  0  0  0  0  0  0  0  0  0  0  0
   48.7030   32.2580   39.4910 C   0  0  0  0  0  0  0  0  0  0  0  0
   48.2050   31.9830   40.7400 N   0  0  0  0  0  0  0  0  0  0  0  0
   47.4560   30.8970   40.9650 C   0  0  0  0  0  0  0  0  0  0  0  0
   47.1730   30.0430   39.9540 N   0  0  0  0  0  0  0  0  0  0  0  0
   47.4090   29.5940   37.9330 H   0  0  0  0  0  0  0  0  0  0  0  0
   48.8250   31.6250   37.4640 H   0  0  0  0  0  0  0  0  0  0  0  0
   49.3130   33.1660   39.3660 H   0  0  0  0  0  0  0  0  0  0  0  0
   46.1580   33.0210   46.5140 C   0  0  0  0  0  0  0  0  0  0  0  0
   45.0960   33.2560   47.1030 O   0  0  0  0  0  0  0  0  0  0  0  0
   45.9260   33.9760   45.4810 C   0  0  0  0  0  0  0  0  0  0  0  0
   46.4560   34.0850   44.2140 C   0  0  0  0  0  0  0  0  0  0  0  0
   47.3410   33.4310   44.0820 H   0  0  0  0  0  0  0  0  0  0  0  0
   46.1920   34.8480   43.1220 C   0  0  0  0  0  3  0  0  0  0  0  0
   45.1610   35.6980   43.3550 C   0  0  0  0  0  0  0  0  0  0  0  0
   44.8340   36.3720   42.5610 H   0  0  0  0  0  0  0  0  0  0  0  0
   44.4530   35.8040   44.5250 C   0  0  0  0  0  0  0  0  0  0  0  0
   43.6440   36.4830   44.6840 H   0  0  0  0  0  0  0  0  0  0  0  0
   44.8740   34.9410   45.5170 C   0  0  0  0  0  3  0  0  0  0  0  0
  1  2  1  0  0  0  0
  1  7  1  1  0  0  0
  1  6  1  0  0  0  0
  2  8  1  0  0  0  0
  2  3  1  0  0  0  0
  3 10  1  0  0  0  0
  3  4  1  0  0  0  0
  4 12  1  0  0  0  0
  4 13  1  0  0  0  0
  5 14  1  0  0  0  0
  5 15  1  0  0  0  0
  5  4  1  0  0  0  0
  6 16  1  6  0  0  0
  6  5  1  0  0  0  0
  9  2  1  0  0  0  0
 11  3  1  0  0  0  0
 17 18  2  0  0  0  0
 17 21  1  0  0  0  0
 18 19  1  0  0  0  0
 19 23  1  0  0  0  0
 19 20  2  0  0  0  0
 20  1  1  0  0  0  0
 21 20  1  0  0  0  0
 22 18  1  0  0  0  0
 24 29  1  0  0  0  0
 25 24  2  0  0  0  0
 25 26  1  0  0  0  0
 26 27  2  0  0  0  0
 27 28  1  0  0  0  0
 28 17  1  0  0  0  0
 29 28  2  0  0  0  0
 30 24  1  0  0  0  0
 31 25  1  0  0  0  0
 32 26  1  0  0  0  0
 33  6  1  0  0  0  0
 33 34  2  0  0  0  0
 35 43  1  0  0  0  0
 35 33  1  0  0  0  0
 36 35  2  0  0  0  0
 37 36  1  0  0  0  0
 38 39  2  0  0  0  0
 38 36  1  0  0  0  0
 39 41  1  0  0  0  0
 40 39  1  0  0  0  0
 41 42  1  0  0  0  0
 41 43  2  0  0  0  0
M  END
>  <minimizedAffinity>
-5.26786995

>  <minimizedRMSD>
5.31496429

$$$$
