
 OpenBabel03242516533D

 45 48  0  0  1  0  0  0  0  0999 V2000
   47.8640   32.8940   41.7190 C   0  0  1  0  0  0  0  0  0  0  0  0
   47.5110   32.2180   40.4680 C   0  0  0  0  0  0  0  0  0  0  0  0
   48.5330   32.6950   39.4350 C   0  0  0  0  0  0  0  0  0  0  0  0
   48.2180   34.1460   39.1570 C   0  0  0  0  0  0  0  0  0  0  0  0
   48.1790   35.0090   40.3730 C   0  0  0  0  0  0  0  0  0  0  0  0
   47.6860   34.4150   41.6150 C   0  0  1  0  0  0  0  0  0  0  0  0
   48.9810   32.7990   41.8770 H   0  0  0  0  0  0  0  0  0  0  0  0
   47.5680   31.1230   40.6230 H   0  0  0  0  0  0  0  0  0  0  0  0
   46.4850   32.4130   40.1040 H   0  0  0  0  0  0  0  0  0  0  0  0
   49.5360   32.5650   39.8670 H   0  0  0  0  0  0  0  0  0  0  0  0
   48.3700   32.1590   38.4840 H   0  0  0  0  0  0  0  0  0  0  0  0
   47.2060   34.1700   38.6710 H   0  0  0  0  0  0  0  0  0  0  0  0
   48.9370   34.5680   38.4360 H   0  0  0  0  0  0  0  0  0  0  0  0
   47.5630   35.8990   40.1260 H   0  0  0  0  0  0  0  0  0  0  0  0
   49.2150   35.4340   40.4950 H   0  0  0  0  0  0  0  0  0  0  0  0
   48.2950   34.8220   42.4740 H   0  0  0  0  0  0  0  0  0  0  0  0
   45.4560   31.0380   43.9510 C   0  0  0  0  0  0  0  0  0  0  0  0
   46.1230   31.5410   42.8400 C   0  0  0  0  0  0  0  0  0  0  0  0
   47.2170   32.4060   42.9210 C   0  0  0  0  0  0  0  0  0  0  0  0
   47.5860   32.7230   44.1570 N   0  0  0  0  0  0  0  0  0  0  0  0
   46.9530   32.2470   45.2600 C   0  0  0  0  0  0  0  0  0  0  0  0
   45.9040   31.4180   45.1600 N   0  0  0  0  0  0  0  0  0  0  0  0
   44.6130   30.3690   43.8560 H   0  0  0  0  0  0  0  0  0  0  0  0
   45.7360   31.2090   41.8970 H   0  0  0  0  0  0  0  0  0  0  0  0
   47.2580   32.5120   46.2670 H   0  0  0  0  0  0  0  0  0  0  0  0
   46.3030   34.8190   41.9480 C   0  0  0  0  0  0  0  0  0  0  0  0
   45.8920   35.4920   43.0850 C   0  0  0  0  0  0  0  0  0  0  0  0
   44.5240   35.7870   43.1650 C   0  0  0  0  0  0  0  0  0  0  0  0
   43.7160   35.3890   42.1250 C   0  0  0  0  0  0  0  0  0  0  0  0
   44.1410   34.7250   41.0100 C   0  0  0  0  0  0  0  0  0  0  0  0
   45.4690   34.4380   40.9310 N   0  0  0  0  0  0  0  0  0  0  0  0
   46.6440   35.7330   43.7910 H   0  0  0  0  0  0  0  0  0  0  0  0
   44.1920   36.3030   44.0280 H   0  0  0  0  0  0  0  0  0  0  0  0
   42.6520   35.6360   42.2240 H   0  0  0  0  0  0  0  0  0  0  0  0
   43.2090   34.3430   39.9240 C   0  0  0  0  0  0  0  0  0  0  0  0
   42.5920   35.2930   39.3540 O   0  0  0  0  0  0  0  0  0  0  0  0
   42.9490   32.9660   39.4560 C   0  0  0  0  0  0  0  0  0  0  0  0
   42.4670   32.5630   38.2330 C   0  0  0  0  0  0  0  0  0  0  0  0
   42.3290   33.4560   37.6040 H   0  0  0  0  0  0  0  0  0  0  0  0
   42.2350   31.2510   37.9040 C   0  0  0  0  0  3  0  0  0  0  0  0
   42.5030   30.3010   38.8670 C   0  0  0  0  0  0  0  0  0  0  0  0
   42.3010   29.2720   38.5530 H   0  0  0  0  0  0  0  0  0  0  0  0
   42.9880   30.6010   40.1190 C   0  0  0  0  0  0  0  0  0  0  0  0
   43.1820   29.8140   40.8400 H   0  0  0  0  0  0  0  0  0  0  0  0
   43.2050   31.9540   40.3910 C   0  0  0  0  0  3  0  0  0  0  0  0
  1  7  1  1  0  0  0
  1 19  1  0  0  0  0
  2  8  1  0  0  0  0
  2  1  1  0  0  0  0
  3 10  1  0  0  0  0
  3  2  1  0  0  0  0
  4  3  1  0  0  0  0
  4  5  1  0  0  0  0
  5 15  1  0  0  0  0
  5  6  1  0  0  0  0
  6  1  1  0  0  0  0
  6 26  1  0  0  0  0
  6 16  1  1  0  0  0
  9  2  1  0  0  0  0
 11  3  1  0  0  0  0
 12  4  1  0  0  0  0
 13  4  1  0  0  0  0
 14  5  1  0  0  0  0
 17 22  1  0  0  0  0
 18 19  1  0  0  0  0
 18 17  2  0  0  0  0
 19 20  2  0  0  0  0
 20 21  1  0  0  0  0
 21 25  1  0  0  0  0
 22 21  2  0  0  0  0
 23 17  1  0  0  0  0
 24 18  1  0  0  0  0
 26 27  1  0  0  0  0
 27 28  2  0  0  0  0
 27 32  1  0  0  0  0
 28 33  1  0  0  0  0
 29 34  1  0  0  0  0
 29 28  1  0  0  0  0
 30 29  2  0  0  0  0
 31 30  1  0  0  0  0
 31 26  2  0  0  0  0
 35 30  1  0  0  0  0
 36 35  2  0  0  0  0
 37 35  1  0  0  0  0
 37 45  1  0  0  0  0
 38 37  2  0  0  0  0
 39 38  1  0  0  0  0
 40 38  1  0  0  0  0
 40 41  2  0  0  0  0
 41 43  1  0  0  0  0
 42 41  1  0  0  0  0
 43 45  2  0  0  0  0
 43 44  1  0  0  0  0
M  END
>  <minimizedAffinity>
-5.20255089

>  <minimizedRMSD>
0.443769604

$$$$
