
 OpenBabel03242516533D

 45 48  0  0  1  0  0  0  0  0999 V2000
   47.8460   32.8890   41.8360 C   0  0  1  0  0  0  0  0  0  0  0  0
   47.5320   32.2240   40.5680 C   0  0  0  0  0  0  0  0  0  0  0  0
   48.5510   32.7540   39.5570 C   0  0  0  0  0  0  0  0  0  0  0  0
   48.1910   34.1980   39.3000 C   0  0  0  0  0  0  0  0  0  0  0  0
   48.1060   35.0370   40.5310 C   0  0  0  0  0  0  0  0  0  0  0  0
   47.6170   34.4040   41.7550 C   0  0  1  0  0  0  0  0  0  0  0  0
   48.9630   32.8300   42.0070 H   0  0  0  0  0  0  0  0  0  0  0  0
   47.6250   31.1280   40.7050 H   0  0  0  0  0  0  0  0  0  0  0  0
   46.5050   32.3900   40.1940 H   0  0  0  0  0  0  0  0  0  0  0  0
   49.5520   32.6500   40.0010 H   0  0  0  0  0  0  0  0  0  0  0  0
   48.4190   32.2290   38.5960 H   0  0  0  0  0  0  0  0  0  0  0  0
   47.1850   34.1960   38.8010 H   0  0  0  0  0  0  0  0  0  0  0  0
   48.9040   34.6570   38.5970 H   0  0  0  0  0  0  0  0  0  0  0  0
   47.4640   35.9100   40.2910 H   0  0  0  0  0  0  0  0  0  0  0  0
   49.1250   35.4940   40.6740 H   0  0  0  0  0  0  0  0  0  0  0  0
   48.2000   34.8170   42.6290 H   0  0  0  0  0  0  0  0  0  0  0  0
   45.4320   30.9650   44.0020 C   0  0  0  0  0  0  0  0  0  0  0  0
   46.0980   31.5070   42.9090 C   0  0  0  0  0  0  0  0  0  0  0  0
   47.2000   32.3580   43.0200 C   0  0  0  0  0  0  0  0  0  0  0  0
   47.5780   32.6210   44.2660 N   0  0  0  0  0  0  0  0  0  0  0  0
   46.9460   32.1070   45.3520 C   0  0  0  0  0  0  0  0  0  0  0  0
   45.8890   31.2920   45.2240 N   0  0  0  0  0  0  0  0  0  0  0  0
   44.5820   30.3080   43.8840 H   0  0  0  0  0  0  0  0  0  0  0  0
   45.7040   31.2170   41.9550 H   0  0  0  0  0  0  0  0  0  0  0  0
   47.2580   32.3280   46.3680 H   0  0  0  0  0  0  0  0  0  0  0  0
   46.2180   34.7550   42.0770 C   0  0  0  0  0  0  0  0  0  0  0  0
   45.7530   35.2870   43.2660 C   0  0  0  0  0  0  0  0  0  0  0  0
   44.3790   35.5600   43.3240 C   0  0  0  0  0  0  0  0  0  0  0  0
   43.6180   35.2800   42.2130 C   0  0  0  0  0  0  0  0  0  0  0  0
   44.0950   34.7540   41.0450 C   0  0  0  0  0  0  0  0  0  0  0  0
   45.4290   34.4900   40.9890 N   0  0  0  0  0  0  0  0  0  0  0  0
   46.4730   35.4500   44.0260 H   0  0  0  0  0  0  0  0  0  0  0  0
   44.0060   35.9690   44.2270 H   0  0  0  0  0  0  0  0  0  0  0  0
   42.5480   35.5060   42.2960 H   0  0  0  0  0  0  0  0  0  0  0  0
   43.2120   34.4950   39.8860 C   0  0  0  0  0  0  0  0  0  0  0  0
   42.4470   35.4450   39.5400 O   0  0  0  0  0  0  0  0  0  0  0  0
   43.1570   33.2400   39.1080 C   0  0  0  0  0  0  0  0  0  0  0  0
   42.1130   32.7520   38.3560 C   0  0  0  0  0  0  0  0  0  0  0  0
   41.2930   33.4860   38.3890 H   0  0  0  0  0  0  0  0  0  0  0  0
   42.1540   31.5540   37.6910 C   0  0  0  0  0  3  0  0  0  0  0  0
   43.3120   30.8130   37.7930 C   0  0  0  0  0  0  0  0  0  0  0  0
   43.2920   29.8680   37.2410 H   0  0  0  0  0  0  0  0  0  0  0  0
   44.4110   31.2110   38.5170 C   0  0  0  0  0  0  0  0  0  0  0  0
   45.2990   30.5890   38.5640 H   0  0  0  0  0  0  0  0  0  0  0  0
   44.3070   32.4420   39.1720 C   0  0  0  0  0  3  0  0  0  0  0  0
  1  7  1  1  0  0  0
  1 19  1  0  0  0  0
  2  8  1  0  0  0  0
  2  1  1  0  0  0  0
  3 10  1  0  0  0  0
  3  2  1  0  0  0  0
  4  3  1  0  0  0  0
  4  5  1  0  0  0  0
  5 15  1  0  0  0  0
  5  6  1  0  0  0  0
  6  1  1  0  0  0  0
  6 26  1  0  0  0  0
  6 16  1  1  0  0  0
  9  2  1  0  0  0  0
 11  3  1  0  0  0  0
 12  4  1  0  0  0  0
 13  4  1  0  0  0  0
 14  5  1  0  0  0  0
 17 22  1  0  0  0  0
 18 19  1  0  0  0  0
 18 17  2  0  0  0  0
 19 20  2  0  0  0  0
 20 21  1  0  0  0  0
 21 25  1  0  0  0  0
 22 21  2  0  0  0  0
 23 17  1  0  0  0  0
 24 18  1  0  0  0  0
 26 27  1  0  0  0  0
 27 28  2  0  0  0  0
 27 32  1  0  0  0  0
 28 33  1  0  0  0  0
 29 34  1  0  0  0  0
 29 28  1  0  0  0  0
 30 29  2  0  0  0  0
 31 30  1  0  0  0  0
 31 26  2  0  0  0  0
 35 30  1  0  0  0  0
 36 35  2  0  0  0  0
 37 45  1  0  0  0  0
 37 35  1  0  0  0  0
 38 39  1  0  0  0  0
 38 37  2  0  0  0  0
 40 41  2  0  0  0  0
 40 38  1  0  0  0  0
 41 43  1  0  0  0  0
 42 41  1  0  0  0  0
 43 44  1  0  0  0  0
 43 45  2  0  0  0  0
M  END
>  <minimizedAffinity>
-5.27373123

>  <minimizedRMSD>
0.275352836

$$$$
