
 OpenBabel03242516533D

 45 48  0  0  1  0  0  0  0  0999 V2000
   47.7910   32.7570   41.6270 C   0  0  1  0  0  0  0  0  0  0  0  0
   47.4070   32.1490   40.3500 C   0  0  0  0  0  0  0  0  0  0  0  0
   48.4250   32.6550   39.3260 C   0  0  0  0  0  0  0  0  0  0  0  0
   48.1380   34.1240   39.1220 C   0  0  0  0  0  0  0  0  0  0  0  0
   48.1330   34.9270   40.3790 C   0  0  0  0  0  0  0  0  0  0  0  0
   47.6430   34.2840   41.5970 C   0  0  1  0  0  0  0  0  0  0  0  0
   48.9070   32.6320   41.7640 H   0  0  0  0  0  0  0  0  0  0  0  0
   47.4430   31.0470   40.4510 H   0  0  0  0  0  0  0  0  0  0  0  0
   46.3810   32.3820   40.0100 H   0  0  0  0  0  0  0  0  0  0  0  0
   49.4310   32.4830   39.7370 H   0  0  0  0  0  0  0  0  0  0  0  0
   48.2390   32.1680   38.3530 H   0  0  0  0  0  0  0  0  0  0  0  0
   47.1200   34.1910   38.6530 H   0  0  0  0  0  0  0  0  0  0  0  0
   48.8560   34.5650   38.4130 H   0  0  0  0  0  0  0  0  0  0  0  0
   47.5330   35.8410   40.1830 H   0  0  0  0  0  0  0  0  0  0  0  0
   49.1790   35.3250   40.5070 H   0  0  0  0  0  0  0  0  0  0  0  0
   48.2710   34.6370   42.4660 H   0  0  0  0  0  0  0  0  0  0  0  0
   45.3270   30.9100   43.8040 C   0  0  0  0  0  0  0  0  0  0  0  0
   45.9920   31.4490   42.7090 C   0  0  0  0  0  0  0  0  0  0  0  0
   47.1500   32.2250   42.8120 C   0  0  0  0  0  0  0  0  0  0  0  0
   47.5810   32.4180   44.0540 N   0  0  0  0  0  0  0  0  0  0  0  0
   46.9520   31.9050   45.1410 C   0  0  0  0  0  0  0  0  0  0  0  0
   45.8410   31.1630   45.0200 N   0  0  0  0  0  0  0  0  0  0  0  0
   44.4340   30.3130   43.6920 H   0  0  0  0  0  0  0  0  0  0  0  0
   45.5510   31.2190   41.7590 H   0  0  0  0  0  0  0  0  0  0  0  0
   47.3080   32.0690   46.1530 H   0  0  0  0  0  0  0  0  0  0  0  0
   46.2740   34.6990   41.9690 C   0  0  0  0  0  0  0  0  0  0  0  0
   45.8820   35.2720   43.1660 C   0  0  0  0  0  0  0  0  0  0  0  0
   44.5240   35.6040   43.2750 C   0  0  0  0  0  0  0  0  0  0  0  0
   43.7060   35.3360   42.2020 C   0  0  0  0  0  0  0  0  0  0  0  0
   44.1120   34.7700   41.0260 C   0  0  0  0  0  0  0  0  0  0  0  0
   45.4300   34.4480   40.9200 N   0  0  0  0  0  0  0  0  0  0  0  0
   46.6390   35.4180   43.8920 H   0  0  0  0  0  0  0  0  0  0  0  0
   44.2070   36.0440   44.1850 H   0  0  0  0  0  0  0  0  0  0  0  0
   42.6520   35.6080   42.3240 H   0  0  0  0  0  0  0  0  0  0  0  0
   43.1710   34.5270   39.9090 C   0  0  0  0  0  0  0  0  0  0  0  0
   42.2500   35.3850   39.7560 O   0  0  0  0  0  0  0  0  0  0  0  0
   43.2230   33.3880   38.9710 C   0  0  0  0  0  0  0  0  0  0  0  0
   42.2680   32.4220   38.7560 C   0  0  0  0  0  0  0  0  0  0  0  0
   41.3960   32.6510   39.3880 H   0  0  0  0  0  0  0  0  0  0  0  0
   42.4260   31.3820   37.8750 C   0  0  0  0  0  3  0  0  0  0  0  0
   43.6140   31.3180   37.1780 C   0  0  0  0  0  0  0  0  0  0  0  0
   43.6870   30.4710   36.4890 H   0  0  0  0  0  0  0  0  0  0  0  0
   44.6310   32.2330   37.3200 C   0  0  0  0  0  0  0  0  0  0  0  0
   45.5470   32.1360   36.7480 H   0  0  0  0  0  0  0  0  0  0  0  0
   44.4080   33.2690   38.2320 C   0  0  0  0  0  3  0  0  0  0  0  0
  1  7  1  1  0  0  0
  1 19  1  0  0  0  0
  2  8  1  0  0  0  0
  2  1  1  0  0  0  0
  3 10  1  0  0  0  0
  3  2  1  0  0  0  0
  4  3  1  0  0  0  0
  4  5  1  0  0  0  0
  5 15  1  0  0  0  0
  5  6  1  0  0  0  0
  6  1  1  0  0  0  0
  6 26  1  0  0  0  0
  6 16  1  1  0  0  0
  9  2  1  0  0  0  0
 11  3  1  0  0  0  0
 12  4  1  0  0  0  0
 13  4  1  0  0  0  0
 14  5  1  0  0  0  0
 17 22  1  0  0  0  0
 18 19  1  0  0  0  0
 18 17  2  0  0  0  0
 19 20  2  0  0  0  0
 20 21  1  0  0  0  0
 21 25  1  0  0  0  0
 22 21  2  0  0  0  0
 23 17  1  0  0  0  0
 24 18  1  0  0  0  0
 26 27  1  0  0  0  0
 27 28  2  0  0  0  0
 27 32  1  0  0  0  0
 28 33  1  0  0  0  0
 29 34  1  0  0  0  0
 29 28  1  0  0  0  0
 30 29  2  0  0  0  0
 31 30  1  0  0  0  0
 31 26  2  0  0  0  0
 35 30  1  0  0  0  0
 36 35  2  0  0  0  0
 37 35  1  0  0  0  0
 38 37  1  0  0  0  0
 38 39  1  0  0  0  0
 40 38  2  0  0  0  0
 41 43  2  0  0  0  0
 41 40  1  0  0  0  0
 42 41  1  0  0  0  0
 43 45  1  0  0  0  0
 44 43  1  0  0  0  0
 45 37  2  0  0  0  0
M  END
>  <minimizedAffinity>
-5.37148476

>  <minimizedRMSD>
0.622814059

$$$$
