REMARK  Name = 
REMARK  4 active torsions:
REMARK  status: ('A' for Active; 'I' for Inactive)
REMARK    1  A    between atoms: C_1  and  C_9
REMARK    2  A    between atoms: C_6  and  C_13
REMARK    3  A    between atoms: C_17  and  C_19
REMARK    4  A    between atoms: C_19  and  C_37
REMARK                            x       y       z     vdW  Elec       q    Type
REMARK                         _______ _______ _______ _____ _____    ______ ____
ROOT
ATOM      1  C   UNL     1      47.880  32.924  41.822  0.00  0.00    +0.000 C 
ATOM      2  C   UNL     1      47.568  32.179  40.599  0.00  0.00    +0.000 C 
ATOM      3  C   UNL     1      48.597  32.633  39.562  0.00  0.00    +0.000 C 
ATOM      4  C   UNL     1      48.250  34.060  39.208  0.00  0.00    +0.000 C 
ATOM      5  C   UNL     1      48.165  34.979  40.380  0.00  0.00    +0.000 C 
ATOM      6  C   UNL     1      47.664  34.432  41.640  0.00  0.00    +0.000 C 
ATOM      7  H   UNL     1      48.995  32.867  42.004  0.00  0.00    +0.000 HD
ATOM      8  H   UNL     1      47.651  31.094  40.808  0.00  0.00    +0.000 HD
ATOM      9  H   UNL     1      46.545  32.328  40.208  0.00  0.00    +0.000 HD
ATOM     10  H   UNL     1      49.595  32.551  40.018  0.00  0.00    +0.000 HD
ATOM     11  H   UNL     1      48.467  32.047  38.636  0.00  0.00    +0.000 HD
ATOM     12  H   UNL     1      47.247  34.033  38.704  0.00  0.00    +0.000 HD
ATOM     13  H   UNL     1      48.971  34.466  38.481  0.00  0.00    +0.000 HD
ATOM     14  H   UNL     1      47.531  35.839  40.079  0.00  0.00    +0.000 HD
ATOM     15  H   UNL     1      49.187  35.437  40.500  0.00  0.00    +0.000 HD
ATOM     16  H   UNL     1      48.245  34.897  42.489  0.00  0.00    +0.000 HD
ENDROOT
BRANCH   1  19
ATOM     17  C   UNL     1      45.489  31.101  44.099  0.00  0.00    +0.000 A 
ATOM     18  C   UNL     1      46.163  31.568  42.977  0.00  0.00    +0.000 A 
ATOM     19  C   UNL     1      47.223  32.477  43.034  0.00  0.00    +0.000 A 
ATOM     20  N   UNL     1      47.551  32.873  44.259  0.00  0.00    +0.000 NA
ATOM     21  C   UNL     1      46.910  32.434  45.372  0.00  0.00    +0.000 A 
ATOM     22  N   UNL     1      45.894  31.562  45.295  0.00  0.00    +0.000 NA
ATOM     23  H   UNL     1      44.673  30.397  44.022  0.00  0.00    +0.000 HD
ATOM     24  H   UNL     1      45.811  31.172  42.045  0.00  0.00    +0.000 HD
ATOM     25  H   UNL     1      47.181  32.764  46.370  0.00  0.00    +0.000 HD
ENDBRANCH   1  19
BRANCH   6  26
ATOM     26  C   UNL     1      46.265  34.814  41.929  0.00  0.00    +0.000 A 
ATOM     27  C   UNL     1      45.809  35.496  43.043  0.00  0.00    +0.000 A 
ATOM     28  C   UNL     1      44.434  35.766  43.080  0.00  0.00    +0.000 A 
ATOM     29  C   UNL     1      43.663  35.337  42.025  0.00  0.00    +0.000 A 
ATOM     30  C   UNL     1      44.132  34.664  40.932  0.00  0.00    +0.000 A 
ATOM     31  N   UNL     1      45.467  34.402  40.895  0.00  0.00    +0.000 NA
ATOM     32  H   UNL     1      46.536  35.762  43.766  0.00  0.00    +0.000 HD
ATOM     33  H   UNL     1      44.068  36.288  43.926  0.00  0.00    +0.000 HD
ATOM     34  H   UNL     1      42.593  35.565  42.090  0.00  0.00    +0.000 HD
BRANCH  30  35
ATOM     35  C   UNL     1      43.238  34.248  39.827  0.00  0.00    +0.000 C 
ATOM     36  O   UNL     1      42.367  35.094  39.462  0.00  0.00    +0.000 OA
BRANCH  35  37
ATOM     37  C   UNL     1      43.284  32.950  39.124  0.00  0.00    +0.000 A 
ATOM     38  C   UNL     1      42.911  31.714  39.599  0.00  0.00    +0.000 A 
ATOM     39  H   UNL     1      42.518  31.841  40.620  0.00  0.00    +0.000 HD
ATOM     40  C   UNL     1      43.020  30.557  38.870  0.00  0.00    +0.000 A 
ATOM     41  C   UNL     1      43.533  30.659  37.595  0.00  0.00    +0.000 A 
ATOM     42  H   UNL     1      43.597  29.708  37.057  0.00  0.00    +0.000 HD
ATOM     43  C   UNL     1      43.934  31.846  37.027  0.00  0.00    +0.000 A 
ATOM     44  H   UNL     1      44.333  31.870  36.018  0.00  0.00    +0.000 HD
ATOM     45  C   UNL     1      43.797  32.989  37.821  0.00  0.00    +0.000 A 
ENDBRANCH  35  37
ENDBRANCH  30  35
ENDBRANCH   6  26
TORSDOF 4
