
 OpenBabel03242516533D

 45 48  0  0  1  0  0  0  0  0999 V2000
   47.8450   32.9080   41.8110 C   0  0  1  0  0  0  0  0  0  0  0  0
   47.5280   32.2860   40.5220 C   0  0  0  0  0  0  0  0  0  0  0  0
   48.5630   32.8290   39.5340 C   0  0  0  0  0  0  0  0  0  0  0  0
   48.2290   34.2860   39.3190 C   0  0  0  0  0  0  0  0  0  0  0  0
   48.1500   35.0890   40.5740 C   0  0  0  0  0  0  0  0  0  0  0  0
   47.6430   34.4280   41.7750 C   0  0  1  0  0  0  0  0  0  0  0  0
   48.9590   32.8230   41.9880 H   0  0  0  0  0  0  0  0  0  0  0  0
   47.6020   31.1860   40.6260 H   0  0  0  0  0  0  0  0  0  0  0  0
   46.5070   32.4810   40.1470 H   0  0  0  0  0  0  0  0  0  0  0  0
   49.5590   32.6950   39.9810 H   0  0  0  0  0  0  0  0  0  0  0  0
   48.4290   32.3360   38.5560 H   0  0  0  0  0  0  0  0  0  0  0  0
   47.2260   34.3170   38.8140 H   0  0  0  0  0  0  0  0  0  0  0  0
   48.9540   34.7540   38.6350 H   0  0  0  0  0  0  0  0  0  0  0  0
   47.5240   35.9800   40.3570 H   0  0  0  0  0  0  0  0  0  0  0  0
   49.1760   35.5240   40.7380 H   0  0  0  0  0  0  0  0  0  0  0  0
   48.2270   34.8040   42.6650 H   0  0  0  0  0  0  0  0  0  0  0  0
   45.3960   30.9450   43.9020 C   0  0  0  0  0  0  0  0  0  0  0  0
   46.0770   31.5090   42.8310 C   0  0  0  0  0  0  0  0  0  0  0  0
   47.1830   32.3520   42.9740 C   0  0  0  0  0  0  0  0  0  0  0  0
   47.5470   32.5830   44.2310 N   0  0  0  0  0  0  0  0  0  0  0  0
   46.8990   32.0460   45.2970 C   0  0  0  0  0  0  0  0  0  0  0  0
   45.8390   31.2400   45.1370 N   0  0  0  0  0  0  0  0  0  0  0  0
   44.5440   30.2960   43.7580 H   0  0  0  0  0  0  0  0  0  0  0  0
   45.6930   31.2450   41.8650 H   0  0  0  0  0  0  0  0  0  0  0  0
   47.2000   32.2410   46.3210 H   0  0  0  0  0  0  0  0  0  0  0  0
   46.2470   34.7930   42.0990 C   0  0  0  0  0  0  0  0  0  0  0  0
   45.7920   35.3460   43.2820 C   0  0  0  0  0  0  0  0  0  0  0  0
   44.4200   35.6290   43.3430 C   0  0  0  0  0  0  0  0  0  0  0  0
   43.6510   35.3370   42.2410 C   0  0  0  0  0  0  0  0  0  0  0  0
   44.1190   34.7890   41.0790 C   0  0  0  0  0  0  0  0  0  0  0  0
   45.4510   34.5150   41.0190 N   0  0  0  0  0  0  0  0  0  0  0  0
   46.5170   35.5160   44.0350 H   0  0  0  0  0  0  0  0  0  0  0  0
   44.0550   36.0540   44.2420 H   0  0  0  0  0  0  0  0  0  0  0  0
   42.5840   35.5700   42.3260 H   0  0  0  0  0  0  0  0  0  0  0  0
   43.2280   34.5170   39.9280 C   0  0  0  0  0  0  0  0  0  0  0  0
   42.2430   35.3030   39.7840 O   0  0  0  0  0  0  0  0  0  0  0  0
   43.3960   33.4260   38.9480 C   0  0  0  0  0  0  0  0  0  0  0  0
   44.5390   33.0550   38.2780 C   0  0  0  0  0  0  0  0  0  0  0  0
   45.3640   33.6980   38.6200 H   0  0  0  0  0  0  0  0  0  0  0  0
   44.5830   32.0360   37.3610 C   0  0  0  0  0  0  0  0  0  0  0  0
   43.4070   31.3590   37.1110 C   0  0  0  0  0  0  0  0  0  0  0  0
   43.4990   30.5560   36.3730 H   0  0  0  0  0  0  0  0  0  0  0  0
   42.2130   31.6500   37.7270 C   0  0  0  0  0  0  0  0  0  0  0  0
   41.3170   31.0870   37.4920 H   0  0  0  0  0  0  0  0  0  0  0  0
   42.2350   32.6990   38.6520 C   0  0  0  0  0  0  0  0  0  0  0  0
  1  7  1  1  0  0  0
  1 19  1  0  0  0  0
  2  8  1  0  0  0  0
  2  1  1  0  0  0  0
  3 10  1  0  0  0  0
  3  2  1  0  0  0  0
  4  3  1  0  0  0  0
  4  5  1  0  0  0  0
  5 15  1  0  0  0  0
  5  6  1  0  0  0  0
  6  1  1  0  0  0  0
  6 26  1  0  0  0  0
  6 16  1  1  0  0  0
  9  2  1  0  0  0  0
 11  3  1  0  0  0  0
 12  4  1  0  0  0  0
 13  4  1  0  0  0  0
 14  5  1  0  0  0  0
 17 22  1  0  0  0  0
 18 19  1  0  0  0  0
 18 17  2  0  0  0  0
 19 20  2  0  0  0  0
 20 21  1  0  0  0  0
 21 25  1  0  0  0  0
 22 21  2  0  0  0  0
 23 17  1  0  0  0  0
 24 18  1  0  0  0  0
 26 27  1  0  0  0  0
 27 28  2  0  0  0  0
 27 32  1  0  0  0  0
 28 33  1  0  0  0  0
 29 34  1  0  0  0  0
 29 28  1  0  0  0  0
 30 29  2  0  0  0  0
 31 30  1  0  0  0  0
 31 26  2  0  0  0  0
 35 30  1  0  0  0  0
 36 35  2  0  0  0  0
 37 35  1  0  0  0  0
 38 39  1  0  0  0  0
 38 37  2  0  0  0  0
 40 38  1  0  0  0  0
 41 40  2  0  0  0  0
 41 43  1  0  0  0  0
 42 41  1  0  0  0  0
 43 45  2  0  0  0  0
 44 43  1  0  0  0  0
 45 37  1  0  0  0  0
M  END
>  <minimizedAffinity>
-5.49794102

>  <minimizedRMSD>
0.60671699

$$$$
