
 OpenBabel03242516533D

 45 48  0  0  1  0  0  0  0  0999 V2000
   47.8550   32.8820   41.7190 C   0  0  1  0  0  0  0  0  0  0  0  0
   47.4910   32.2140   40.4660 C   0  0  0  0  0  0  0  0  0  0  0  0
   48.5130   32.6880   39.4310 C   0  0  0  0  0  0  0  0  0  0  0  0
   48.2080   34.1430   39.1600 C   0  0  0  0  0  0  0  0  0  0  0  0
   48.1800   35.0000   40.3810 C   0  0  0  0  0  0  0  0  0  0  0  0
   47.6880   34.4040   41.6210 C   0  0  1  0  0  0  0  0  0  0  0  0
   48.9710   32.7780   41.8720 H   0  0  0  0  0  0  0  0  0  0  0  0
   47.5410   31.1180   40.6160 H   0  0  0  0  0  0  0  0  0  0  0  0
   46.4660   32.4190   40.1070 H   0  0  0  0  0  0  0  0  0  0  0  0
   49.5170   32.5480   39.8580 H   0  0  0  0  0  0  0  0  0  0  0  0
   48.3430   32.1570   38.4780 H   0  0  0  0  0  0  0  0  0  0  0  0
   47.1940   34.1770   38.6790 H   0  0  0  0  0  0  0  0  0  0  0  0
   48.9270   34.5630   38.4390 H   0  0  0  0  0  0  0  0  0  0  0  0
   47.5710   35.8960   40.1400 H   0  0  0  0  0  0  0  0  0  0  0  0
   49.2200   35.4170   40.5010 H   0  0  0  0  0  0  0  0  0  0  0  0
   48.3030   34.8030   42.4800 H   0  0  0  0  0  0  0  0  0  0  0  0
   45.4400   31.0360   43.9510 C   0  0  0  0  0  0  0  0  0  0  0  0
   46.1060   31.5380   42.8400 C   0  0  0  0  0  0  0  0  0  0  0  0
   47.2090   32.3940   42.9200 C   0  0  0  0  0  0  0  0  0  0  0  0
   47.5860   32.7010   44.1570 N   0  0  0  0  0  0  0  0  0  0  0  0
   46.9530   32.2250   45.2600 C   0  0  0  0  0  0  0  0  0  0  0  0
   45.8960   31.4060   45.1600 N   0  0  0  0  0  0  0  0  0  0  0  0
   44.5900   30.3750   43.8560 H   0  0  0  0  0  0  0  0  0  0  0  0
   45.7130   31.2150   41.8970 H   0  0  0  0  0  0  0  0  0  0  0  0
   47.2650   32.4820   46.2670 H   0  0  0  0  0  0  0  0  0  0  0  0
   46.3090   34.8170   41.9620 C   0  0  0  0  0  0  0  0  0  0  0  0
   45.9060   35.4800   43.1080 C   0  0  0  0  0  0  0  0  0  0  0  0
   44.5410   35.7870   43.1930 C   0  0  0  0  0  0  0  0  0  0  0  0
   43.7280   35.4110   42.1500 C   0  0  0  0  0  0  0  0  0  0  0  0
   44.1450   34.7560   41.0250 C   0  0  0  0  0  0  0  0  0  0  0  0
   45.4700   34.4580   40.9410 N   0  0  0  0  0  0  0  0  0  0  0  0
   46.6610   35.7040   43.8160 H   0  0  0  0  0  0  0  0  0  0  0  0
   44.2150   36.2950   44.0640 H   0  0  0  0  0  0  0  0  0  0  0  0
   42.6670   35.6670   42.2530 H   0  0  0  0  0  0  0  0  0  0  0  0
   43.2080   34.3980   39.9360 C   0  0  0  0  0  0  0  0  0  0  0  0
   42.5610   35.3560   39.4150 O   0  0  0  0  0  0  0  0  0  0  0  0
   42.9750   33.0360   39.4140 C   0  0  0  0  0  0  0  0  0  0  0  0
   43.5960   31.8660   39.7860 C   0  0  0  0  0  0  0  0  0  0  0  0
   44.3030   32.0950   40.5980 H   0  0  0  0  0  0  0  0  0  0  0  0
   43.3250   30.6490   39.2160 C   0  0  0  0  0  3  0  0  0  0  0  0
   42.3750   30.6160   38.2160 C   0  0  0  0  0  0  0  0  0  0  0  0
   42.1970   29.6210   37.7980 H   0  0  0  0  0  0  0  0  0  0  0  0
   41.6970   31.7270   37.7720 C   0  0  0  0  0  0  0  0  0  0  0  0
   40.9610   31.6460   36.9810 H   0  0  0  0  0  0  0  0  0  0  0  0
   42.0190   32.9370   38.3940 C   0  0  0  0  0  3  0  0  0  0  0  0
  1  7  1  1  0  0  0
  1 19  1  0  0  0  0
  2  8  1  0  0  0  0
  2  1  1  0  0  0  0
  3 10  1  0  0  0  0
  3  2  1  0  0  0  0
  4  3  1  0  0  0  0
  4  5  1  0  0  0  0
  5 15  1  0  0  0  0
  5  6  1  0  0  0  0
  6  1  1  0  0  0  0
  6 26  1  0  0  0  0
  6 16  1  1  0  0  0
  9  2  1  0  0  0  0
 11  3  1  0  0  0  0
 12  4  1  0  0  0  0
 13  4  1  0  0  0  0
 14  5  1  0  0  0  0
 17 22  1  0  0  0  0
 18 19  1  0  0  0  0
 18 17  2  0  0  0  0
 19 20  2  0  0  0  0
 20 21  1  0  0  0  0
 21 25  1  0  0  0  0
 22 21  2  0  0  0  0
 23 17  1  0  0  0  0
 24 18  1  0  0  0  0
 26 27  1  0  0  0  0
 27 28  2  0  0  0  0
 27 32  1  0  0  0  0
 28 33  1  0  0  0  0
 29 34  1  0  0  0  0
 29 28  1  0  0  0  0
 30 29  2  0  0  0  0
 31 30  1  0  0  0  0
 31 26  2  0  0  0  0
 35 30  1  0  0  0  0
 36 35  2  0  0  0  0
 37 38  1  0  0  0  0
 37 35  1  0  0  0  0
 38 39  1  0  0  0  0
 40 38  2  0  0  0  0
 41 40  1  0  0  0  0
 42 41  1  0  0  0  0
 43 41  2  0  0  0  0
 43 45  1  0  0  0  0
 44 43  1  0  0  0  0
 45 37  2  0  0  0  0
M  END
>  <minimizedAffinity>
-5.32068729

>  <minimizedRMSD>
0.406267524

$$$$
