
 OpenBabel03242523543D

 45 48  0  0  1  0  0  0  0  0999 V2000
   42.8170   34.5200   38.7410 C   0  0  1  0  0  0  0  0  0  0  0  0
   42.9590   35.1810   40.1020 C   0  0  1  0  0  0  0  0  0  0  0  0
   41.6660   35.4000   40.6230 O   0  0  0  0  0  0  0  0  0  0  0  0
   40.7370   35.7400   39.6370 C   0  0  0  0  0  0  0  0  0  0  0  0
   40.4360   34.5720   38.7170 C   0  0  2  0  0  0  0  0  0  0  0  0
   41.6530   33.5920   38.8430 C   0  0  1  0  0  0  0  0  0  0  0  0
   43.7580   34.0140   38.4350 H   0  0  0  0  0  0  0  0  0  0  0  0
   43.5450   36.1010   40.0810 H   0  0  0  0  0  0  0  0  0  0  0  0
   41.0280   36.6490   39.0750 H   0  0  0  0  0  0  0  0  0  0  0  0
   39.8080   35.9540   40.1770 H   0  0  0  0  0  0  0  0  0  0  0  0
   39.5130   34.0340   39.0080 H   0  0  0  0  0  0  0  0  0  0  0  0
   41.4450   33.3270   39.9350 H   0  0  0  0  0  0  0  0  0  0  0  0
   42.5940   35.4810   37.7440 O   0  0  0  0  0  0  0  0  0  0  0  0
   43.4490   35.8430   37.4200 H   0  0  0  0  0  0  0  0  0  0  0  0
   40.4480   34.9990   37.4000 O   0  0  0  0  0  0  0  0  0  0  0  0
   39.7860   34.5340   36.8270 H   0  0  0  0  0  0  0  0  0  0  0  0
   43.4890   34.1860   40.9450 O   0  0  0  0  0  0  0  0  0  0  0  0
   44.5930   34.3260   41.6880 C   0  0  0  0  0  0  0  0  0  0  0  0
   45.8560   34.4360   41.0890 C   0  0  0  0  0  0  0  0  0  0  0  0
   46.9680   34.5820   41.9000 C   0  0  0  0  0  0  0  0  0  0  0  0
   46.8030   34.6150   43.2740 N   0  0  0  0  0  0  0  0  0  0  0  0
   45.5680   34.5060   43.8160 C   0  0  0  0  0  0  0  0  0  0  0  0
   44.4720   34.3620   43.0260 N   0  0  0  0  0  0  0  0  0  0  0  0
   45.9910   34.4110   40.0280 H   0  0  0  0  0  0  0  0  0  0  0  0
   45.4270   34.5300   44.8960 H   0  0  0  0  0  0  0  0  0  0  0  0
   48.3490   34.6830   41.3390 C   0  0  0  0  0  0  0  0  0  0  0  0
   49.0700   36.0180   41.5100 C   0  0  0  0  0  0  0  0  0  0  0  0
   49.4940   34.7030   42.1930 C   0  0  0  0  0  0  0  0  0  0  0  0
   48.4000   34.2310   40.3150 H   0  0  0  0  0  0  0  0  0  0  0  0
   48.6130   36.7920   42.1220 H   0  0  0  0  0  0  0  0  0  0  0  0
   49.7390   36.2940   40.6690 H   0  0  0  0  0  0  0  0  0  0  0  0
   50.4310   34.2120   41.8400 H   0  0  0  0  0  0  0  0  0  0  0  0
   49.4310   34.7000   43.3000 H   0  0  0  0  0  0  0  0  0  0  0  0
   41.5150   32.6540   37.8960 O   0  0  0  0  0  0  0  0  0  0  0  0
   40.8780   31.4770   37.8960 C   0  0  0  0  0  0  0  0  0  0  0  0
   39.6270   31.3710   37.4640 O   0  0  0  0  0  0  0  0  0  0  0  0
   41.2640   30.0770   38.3010 C   0  0  0  0  0  0  0  0  0  0  0  0
   41.8090   29.2280   37.4150 C   0  0  0  0  0  0  0  0  0  0  0  0
   42.0090   29.4250   36.3930 H   0  0  0  0  0  0  0  0  0  0  0  0
   42.1800   27.9290   37.7990 C   0  0  0  0  0  3  0  0  0  0  0  0
   41.9960   27.4880   39.0890 C   0  0  0  0  0  0  0  0  0  0  0  0
   42.2880   26.4880   39.3660 H   0  0  0  0  0  0  0  0  0  0  0  0
   41.4430   28.3140   40.0380 C   0  0  0  0  0  0  0  0  0  0  0  0
   41.2650   28.0500   41.0690 H   0  0  0  0  0  0  0  0  0  0  0  0
   41.1100   29.5560   39.5910 C   0  0  0  0  0  3  0  0  0  0  0  0
  1  7  1  6  0  0  0
  1  6  1  0  0  0  0
  1  2  1  0  0  0  0
  2  8  1  6  0  0  0
  2  3  1  0  0  0  0
  2 17  1  0  0  0  0
  4 10  1  0  0  0  0
  4  3  1  0  0  0  0
  5  6  1  0  0  0  0
  5 11  1  1  0  0  0
  5  4  1  0  0  0  0
  6 12  1  1  0  0  0
  9  4  1  0  0  0  0
 13  1  1  0  0  0  0
 14 13  1  0  0  0  0
 15  5  1  0  0  0  0
 16 15  1  0  0  0  0
 17 18  1  0  0  0  0
 18 23  1  0  0  0  0
 19 18  2  0  0  0  0
 19 20  1  0  0  0  0
 20 21  2  0  0  0  0
 21 22  1  0  0  0  0
 22 25  1  0  0  0  0
 23 22  2  0  0  0  0
 24 19  1  0  0  0  0
 26 27  1  0  0  0  0
 26 20  1  0  0  0  0
 26 28  1  0  0  0  0
 27 30  1  0  0  0  0
 27 28  1  0  0  0  0
 28 33  1  0  0  0  0
 29 26  1  0  0  0  0
 31 27  1  0  0  0  0
 32 28  1  0  0  0  0
 34 35  1  0  0  0  0
 34  6  1  0  0  0  0
 35 37  1  0  0  0  0
 36 35  2  0  0  0  0
 37 45  1  0  0  0  0
 38 40  1  0  0  0  0
 38 37  2  0  0  0  0
 39 38  1  0  0  0  0
 40 41  2  0  0  0  0
 41 42  1  0  0  0  0
 41 43  1  0  0  0  0
 43 44  1  0  0  0  0
 45 43  2  0  0  0  0
M  END
>  <minimizedAffinity>
-5.64897966

>  <minimizedRMSD>
0.0895562023

$$$$
