
 OpenBabel03242523543D

 45 48  0  0  1  0  0  0  0  0999 V2000
   42.8160   34.5220   38.7400 C   0  0  1  0  0  0  0  0  0  0  0  0
   42.9570   35.1820   40.1020 C   0  0  1  0  0  0  0  0  0  0  0  0
   41.6630   35.3970   40.6240 O   0  0  0  0  0  0  0  0  0  0  0  0
   40.7330   35.7360   39.6380 C   0  0  0  0  0  0  0  0  0  0  0  0
   40.4350   34.5680   38.7170 C   0  0  2  0  0  0  0  0  0  0  0  0
   41.6540   33.5900   38.8420 C   0  0  1  0  0  0  0  0  0  0  0  0
   43.7570   34.0180   38.4330 H   0  0  0  0  0  0  0  0  0  0  0  0
   43.5400   36.1030   40.0810 H   0  0  0  0  0  0  0  0  0  0  0  0
   41.0210   36.6460   39.0770 H   0  0  0  0  0  0  0  0  0  0  0  0
   39.8040   35.9480   40.1780 H   0  0  0  0  0  0  0  0  0  0  0  0
   39.5130   34.0270   39.0080 H   0  0  0  0  0  0  0  0  0  0  0  0
   41.4470   33.3240   39.9330 H   0  0  0  0  0  0  0  0  0  0  0  0
   42.5900   35.4830   37.7440 O   0  0  0  0  0  0  0  0  0  0  0  0
   43.4430   35.8470   37.4200 H   0  0  0  0  0  0  0  0  0  0  0  0
   40.4450   34.9960   37.4000 O   0  0  0  0  0  0  0  0  0  0  0  0
   39.7840   34.5300   36.8270 H   0  0  0  0  0  0  0  0  0  0  0  0
   43.4890   34.1870   40.9430 O   0  0  0  0  0  0  0  0  0  0  0  0
   44.5930   34.3300   41.6870 C   0  0  0  0  0  0  0  0  0  0  0  0
   45.8570   34.4360   41.0880 C   0  0  0  0  0  0  0  0  0  0  0  0
   46.9680   34.5840   41.9000 C   0  0  0  0  0  0  0  0  0  0  0  0
   46.8000   34.6240   43.2750 N   0  0  0  0  0  0  0  0  0  0  0  0
   45.5650   34.5190   43.8150 C   0  0  0  0  0  0  0  0  0  0  0  0
   44.4700   34.3720   43.0250 N   0  0  0  0  0  0  0  0  0  0  0  0
   45.9930   34.4050   40.0280 H   0  0  0  0  0  0  0  0  0  0  0  0
   45.4230   34.5480   44.8950 H   0  0  0  0  0  0  0  0  0  0  0  0
   48.3490   34.6810   41.3410 C   0  0  0  0  0  0  0  0  0  0  0  0
   49.0710   36.0160   41.5050 C   0  0  0  0  0  0  0  0  0  0  0  0
   49.4930   34.7050   42.1960 C   0  0  0  0  0  0  0  0  0  0  0  0
   48.4010   34.2230   40.3190 H   0  0  0  0  0  0  0  0  0  0  0  0
   48.6140   36.7950   42.1120 H   0  0  0  0  0  0  0  0  0  0  0  0
   49.7410   36.2870   40.6630 H   0  0  0  0  0  0  0  0  0  0  0  0
   50.4300   34.2120   41.8470 H   0  0  0  0  0  0  0  0  0  0  0  0
   49.4280   34.7090   43.3030 H   0  0  0  0  0  0  0  0  0  0  0  0
   41.5180   32.6540   37.8940 O   0  0  0  0  0  0  0  0  0  0  0  0
   40.8830   31.4750   37.8930 C   0  0  0  0  0  0  0  0  0  0  0  0
   39.6260   31.3700   37.4770 O   0  0  0  0  0  0  0  0  0  0  0  0
   41.2760   30.0730   38.2820 C   0  0  0  0  0  0  0  0  0  0  0  0
   40.3880   29.2420   38.8550 C   0  0  0  0  0  0  0  0  0  0  0  0
   39.3810   29.4630   39.0940 H   0  0  0  0  0  0  0  0  0  0  0  0
   40.7530   27.9320   39.2040 C   0  0  0  0  0  3  0  0  0  0  0  0
   42.0240   27.4600   38.9720 C   0  0  0  0  0  0  0  0  0  0  0  0
   42.2870   26.4510   39.2460 H   0  0  0  0  0  0  0  0  0  0  0  0
   42.9730   28.2660   38.3880 C   0  0  0  0  0  0  0  0  0  0  0  0
   43.9900   27.9780   38.1710 H   0  0  0  0  0  0  0  0  0  0  0  0
   42.5450   29.5210   38.0790 C   0  0  0  0  0  3  0  0  0  0  0  0
  1  7  1  6  0  0  0
  1  6  1  0  0  0  0
  1  2  1  0  0  0  0
  2  8  1  6  0  0  0
  2  3  1  0  0  0  0
  2 17  1  0  0  0  0
  4 10  1  0  0  0  0
  4  3  1  0  0  0  0
  5  6  1  0  0  0  0
  5 11  1  1  0  0  0
  5  4  1  0  0  0  0
  6 12  1  1  0  0  0
  9  4  1  0  0  0  0
 13  1  1  0  0  0  0
 14 13  1  0  0  0  0
 15  5  1  0  0  0  0
 16 15  1  0  0  0  0
 17 18  1  0  0  0  0
 18 23  1  0  0  0  0
 19 18  2  0  0  0  0
 19 20  1  0  0  0  0
 20 21  2  0  0  0  0
 21 22  1  0  0  0  0
 22 25  1  0  0  0  0
 23 22  2  0  0  0  0
 24 19  1  0  0  0  0
 26 27  1  0  0  0  0
 26 20  1  0  0  0  0
 26 28  1  0  0  0  0
 27 30  1  0  0  0  0
 27 28  1  0  0  0  0
 28 33  1  0  0  0  0
 29 26  1  0  0  0  0
 31 27  1  0  0  0  0
 32 28  1  0  0  0  0
 34  6  1  0  0  0  0
 35 34  1  0  0  0  0
 35 37  1  0  0  0  0
 36 35  2  0  0  0  0
 37 38  1  0  0  0  0
 38 39  1  0  0  0  0
 38 40  2  0  0  0  0
 41 40  1  0  0  0  0
 41 42  1  0  0  0  0
 43 41  2  0  0  0  0
 44 43  1  0  0  0  0
 45 37  2  0  0  0  0
 45 43  1  0  0  0  0
M  END
>  <minimizedAffinity>
-5.63052511

>  <minimizedRMSD>
0.0886605084

$$$$
