
 OpenBabel03242523553D

 45 48  0  0  1  0  0  0  0  0999 V2000
   42.8000   34.4860   38.7540 C   0  0  1  0  0  0  0  0  0  0  0  0
   42.9680   35.1800   40.0950 C   0  0  1  0  0  0  0  0  0  0  0  0
   41.6840   35.4460   40.6180 O   0  0  0  0  0  0  0  0  0  0  0  0
   40.7570   35.7810   39.6290 C   0  0  0  0  0  0  0  0  0  0  0  0
   40.4210   34.5970   38.7440 C   0  0  2  0  0  0  0  0  0  0  0  0
   41.6140   33.5900   38.8900 C   0  0  1  0  0  0  0  0  0  0  0  0
   43.7250   33.9480   38.4560 H   0  0  0  0  0  0  0  0  0  0  0  0
   43.5760   36.0840   40.0440 H   0  0  0  0  0  0  0  0  0  0  0  0
   41.0660   36.6670   39.0400 H   0  0  0  0  0  0  0  0  0  0  0  0
   39.8370   36.0340   40.1680 H   0  0  0  0  0  0  0  0  0  0  0  0
   39.4870   34.0900   39.0560 H   0  0  0  0  0  0  0  0  0  0  0  0
   41.4070   33.3600   39.9890 H   0  0  0  0  0  0  0  0  0  0  0  0
   42.5940   35.4240   37.7320 O   0  0  0  0  0  0  0  0  0  0  0  0
   43.4540   35.7550   37.3930 H   0  0  0  0  0  0  0  0  0  0  0  0
   40.4340   34.9860   37.4150 O   0  0  0  0  0  0  0  0  0  0  0  0
   39.7570   34.5220   36.8600 H   0  0  0  0  0  0  0  0  0  0  0  0
   43.4780   34.1960   40.9620 O   0  0  0  0  0  0  0  0  0  0  0  0
   44.5870   34.3330   41.7000 C   0  0  0  0  0  0  0  0  0  0  0  0
   45.8470   34.4400   41.0960 C   0  0  0  0  0  0  0  0  0  0  0  0
   46.9630   34.5810   41.9020 C   0  0  0  0  0  0  0  0  0  0  0  0
   46.8030   34.6150   43.2770 N   0  0  0  0  0  0  0  0  0  0  0  0
   45.5710   34.5090   43.8240 C   0  0  0  0  0  0  0  0  0  0  0  0
   44.4710   34.3690   43.0390 N   0  0  0  0  0  0  0  0  0  0  0  0
   45.9780   34.4140   40.0340 H   0  0  0  0  0  0  0  0  0  0  0  0
   45.4340   34.5330   44.9050 H   0  0  0  0  0  0  0  0  0  0  0  0
   48.3420   34.6780   41.3360 C   0  0  0  0  0  0  0  0  0  0  0  0
   49.0670   36.0110   41.5030 C   0  0  0  0  0  0  0  0  0  0  0  0
   49.4900   34.6960   42.1850 C   0  0  0  0  0  0  0  0  0  0  0  0
   48.3870   34.2250   40.3110 H   0  0  0  0  0  0  0  0  0  0  0  0
   48.6150   36.7870   42.1160 H   0  0  0  0  0  0  0  0  0  0  0  0
   49.7330   36.2850   40.6590 H   0  0  0  0  0  0  0  0  0  0  0  0
   50.4250   34.2020   41.8280 H   0  0  0  0  0  0  0  0  0  0  0  0
   49.4310   34.6940   43.2920 H   0  0  0  0  0  0  0  0  0  0  0  0
   41.4460   32.6300   37.9690 O   0  0  0  0  0  0  0  0  0  0  0  0
   40.7290   31.5000   37.9840 C   0  0  0  0  0  0  0  0  0  0  0  0
   39.5260   31.4420   37.4260 O   0  0  0  0  0  0  0  0  0  0  0  0
   40.9660   30.1150   38.5290 C   0  0  0  0  0  0  0  0  0  0  0  0
   40.8890   29.8710   39.8490 C   0  0  0  0  0  0  0  0  0  0  0  0
   40.6760   30.5760   40.6090 H   0  0  0  0  0  0  0  0  0  0  0  0
   41.0960   28.5760   40.3520 C   0  0  0  0  0  3  0  0  0  0  0  0
   41.3840   27.5230   39.5140 C   0  0  0  0  0  0  0  0  0  0  0  0
   41.5410   26.5370   39.9190 H   0  0  0  0  0  0  0  0  0  0  0  0
   41.4760   27.7150   38.1570 C   0  0  0  0  0  0  0  0  0  0  0  0
   41.6980   26.9490   37.4310 H   0  0  0  0  0  0  0  0  0  0  0  0
   41.2630   28.9950   37.7450 C   0  0  0  0  0  3  0  0  0  0  0  0
  1  7  1  6  0  0  0
  1  6  1  0  0  0  0
  1  2  1  0  0  0  0
  2  8  1  6  0  0  0
  2  3  1  0  0  0  0
  2 17  1  0  0  0  0
  4 10  1  0  0  0  0
  4  3  1  0  0  0  0
  5  6  1  0  0  0  0
  5 11  1  1  0  0  0
  5  4  1  0  0  0  0
  6 12  1  1  0  0  0
  9  4  1  0  0  0  0
 13  1  1  0  0  0  0
 14 13  1  0  0  0  0
 15  5  1  0  0  0  0
 16 15  1  0  0  0  0
 17 18  1  0  0  0  0
 18 23  1  0  0  0  0
 19 18  2  0  0  0  0
 19 20  1  0  0  0  0
 20 21  2  0  0  0  0
 21 22  1  0  0  0  0
 22 25  1  0  0  0  0
 23 22  2  0  0  0  0
 24 19  1  0  0  0  0
 26 27  1  0  0  0  0
 26 20  1  0  0  0  0
 26 28  1  0  0  0  0
 27 30  1  0  0  0  0
 27 28  1  0  0  0  0
 28 33  1  0  0  0  0
 29 26  1  0  0  0  0
 31 27  1  0  0  0  0
 32 28  1  0  0  0  0
 34 35  1  0  0  0  0
 34  6  1  0  0  0  0
 35 37  1  0  0  0  0
 36 35  2  0  0  0  0
 37 38  1  0  0  0  0
 38 40  2  0  0  0  0
 38 39  1  0  0  0  0
 41 42  1  0  0  0  0
 41 40  1  0  0  0  0
 43 41  2  0  0  0  0
 44 43  1  0  0  0  0
 45 43  1  0  0  0  0
 45 37  2  0  0  0  0
M  END
>  <minimizedAffinity>
-5.67310476

>  <minimizedRMSD>
0.33909905

$$$$
