
 OpenBabel03242523553D

 45 48  0  0  1  0  0  0  0  0999 V2000
   42.7960   34.3560   38.9220 C   0  0  1  0  0  0  0  0  0  0  0  0
   43.0260   35.1790   40.1780 C   0  0  1  0  0  0  0  0  0  0  0  0
   41.7710   35.6140   40.6560 O   0  0  0  0  0  0  0  0  0  0  0  0
   40.8770   35.9160   39.6270 C   0  0  0  0  0  0  0  0  0  0  0  0
   40.4370   34.6730   38.8780 C   0  0  2  0  0  0  0  0  0  0  0  0
   41.5360   33.5880   39.1460 C   0  0  1  0  0  0  0  0  0  0  0  0
   43.6710   33.7080   38.6950 H   0  0  0  0  0  0  0  0  0  0  0  0
   43.7110   36.0150   40.0320 H   0  0  0  0  0  0  0  0  0  0  0  0
   41.2620   36.6990   38.9450 H   0  0  0  0  0  0  0  0  0  0  0  0
   39.9830   36.3070   40.1260 H   0  0  0  0  0  0  0  0  0  0  0  0
   39.4620   34.2880   39.2360 H   0  0  0  0  0  0  0  0  0  0  0  0
   41.3110   33.5030   40.2630 H   0  0  0  0  0  0  0  0  0  0  0  0
   42.6730   35.1870   37.7990 O   0  0  0  0  0  0  0  0  0  0  0  0
   43.5590   35.4010   37.4330 H   0  0  0  0  0  0  0  0  0  0  0  0
   40.4830   34.9070   37.5140 O   0  0  0  0  0  0  0  0  0  0  0  0
   39.7670   34.4450   37.0080 H   0  0  0  0  0  0  0  0  0  0  0  0
   43.4490   34.2580   41.1550 O   0  0  0  0  0  0  0  0  0  0  0  0
   44.5890   34.3550   41.8490 C   0  0  0  0  0  0  0  0  0  0  0  0
   45.8230   34.4830   41.1960 C   0  0  0  0  0  0  0  0  0  0  0  0
   46.9730   34.5820   41.9590 C   0  0  0  0  0  0  0  0  0  0  0  0
   46.8740   34.5510   43.3400 N   0  0  0  0  0  0  0  0  0  0  0  0
   45.6650   34.4260   43.9340 C   0  0  0  0  0  0  0  0  0  0  0  0
   44.5310   34.3280   43.1920 N   0  0  0  0  0  0  0  0  0  0  0  0
   45.9070   34.5070   40.1300 H   0  0  0  0  0  0  0  0  0  0  0  0
   45.5760   34.4000   45.0200 H   0  0  0  0  0  0  0  0  0  0  0  0
   48.3270   34.6990   41.3380 C   0  0  0  0  0  0  0  0  0  0  0  0
   49.0610   36.0250   41.5200 C   0  0  0  0  0  0  0  0  0  0  0  0
   49.5100   34.6870   42.1380 C   0  0  0  0  0  0  0  0  0  0  0  0
   48.3280   34.2810   40.2980 H   0  0  0  0  0  0  0  0  0  0  0  0
   48.6360   36.7790   42.1780 H   0  0  0  0  0  0  0  0  0  0  0  0
   49.6900   36.3280   40.6580 H   0  0  0  0  0  0  0  0  0  0  0  0
   50.4280   34.2060   41.7250 H   0  0  0  0  0  0  0  0  0  0  0  0
   49.4990   34.6470   43.2460 H   0  0  0  0  0  0  0  0  0  0  0  0
   41.2840   32.5500   38.3380 O   0  0  0  0  0  0  0  0  0  0  0  0
   40.3620   31.5810   38.3970 C   0  0  0  0  0  0  0  0  0  0  0  0
   39.9680   30.9380   37.3040 O   0  0  0  0  0  0  0  0  0  0  0  0
   39.5690   30.9550   39.5160 C   0  0  0  0  0  0  0  0  0  0  0  0
   38.4800   31.5650   40.0130 C   0  0  0  0  0  0  0  0  0  0  0  0
   38.0820   32.4970   39.7050 H   0  0  0  0  0  0  0  0  0  0  0  0
   37.7350   30.9730   41.0470 C   0  0  0  0  0  3  0  0  0  0  0  0
   38.0970   29.7560   41.5800 C   0  0  0  0  0  0  0  0  0  0  0  0
   37.5130   29.3180   42.3720 H   0  0  0  0  0  0  0  0  0  0  0  0
   39.2020   29.0890   41.1100 C   0  0  0  0  0  0  0  0  0  0  0  0
   39.5560   28.1360   41.4700 H   0  0  0  0  0  0  0  0  0  0  0  0
   39.8710   29.7250   40.1090 C   0  0  0  0  0  3  0  0  0  0  0  0
  1  7  1  6  0  0  0
  1  6  1  0  0  0  0
  1  2  1  0  0  0  0
  2  8  1  6  0  0  0
  2  3  1  0  0  0  0
  2 17  1  0  0  0  0
  4 10  1  0  0  0  0
  4  3  1  0  0  0  0
  5  6  1  0  0  0  0
  5 11  1  1  0  0  0
  5  4  1  0  0  0  0
  6 12  1  1  0  0  0
  9  4  1  0  0  0  0
 13  1  1  0  0  0  0
 14 13  1  0  0  0  0
 15  5  1  0  0  0  0
 16 15  1  0  0  0  0
 17 18  1  0  0  0  0
 18 23  1  0  0  0  0
 19 18  2  0  0  0  0
 19 20  1  0  0  0  0
 20 21  2  0  0  0  0
 21 22  1  0  0  0  0
 22 25  1  0  0  0  0
 23 22  2  0  0  0  0
 24 19  1  0  0  0  0
 26 27  1  0  0  0  0
 26 20  1  0  0  0  0
 26 28  1  0  0  0  0
 27 28  1  0  0  0  0
 27 30  1  0  0  0  0
 28 33  1  0  0  0  0
 29 26  1  0  0  0  0
 31 27  1  0  0  0  0
 32 28  1  0  0  0  0
 34 35  1  0  0  0  0
 34  6  1  0  0  0  0
 35 37  1  0  0  0  0
 36 35  2  0  0  0  0
 37 38  2  0  0  0  0
 37 45  1  0  0  0  0
 38 40  1  0  0  0  0
 39 38  1  0  0  0  0
 40 41  2  0  0  0  0
 41 42  1  0  0  0  0
 43 44  1  0  0  0  0
 43 41  1  0  0  0  0
 45 43  2  0  0  0  0
M  END
>  <minimizedAffinity>
-6.37346125

>  <minimizedRMSD>
1.97829413

$$$$
