
 OpenBabel03242523553D

 45 48  0  0  1  0  0  0  0  0999 V2000
   42.7930   34.2970   38.9830 C   0  0  1  0  0  0  0  0  0  0  0  0
   43.0080   35.1610   40.2150 C   0  0  1  0  0  0  0  0  0  0  0  0
   41.7470   35.6100   40.6640 O   0  0  0  0  0  0  0  0  0  0  0  0
   40.8640   35.8770   39.6150 C   0  0  0  0  0  0  0  0  0  0  0  0
   40.4340   34.6100   38.9010 C   0  0  2  0  0  0  0  0  0  0  0  0
   41.5310   33.5360   39.2180 C   0  0  1  0  0  0  0  0  0  0  0  0
   43.6700   33.6440   38.7870 H   0  0  0  0  0  0  0  0  0  0  0  0
   43.6940   35.9930   40.0490 H   0  0  0  0  0  0  0  0  0  0  0  0
   41.2570   36.6380   38.9130 H   0  0  0  0  0  0  0  0  0  0  0  0
   39.9640   36.2830   40.0910 H   0  0  0  0  0  0  0  0  0  0  0  0
   39.4550   34.2360   39.2610 H   0  0  0  0  0  0  0  0  0  0  0  0
   41.2930   33.4870   40.3340 H   0  0  0  0  0  0  0  0  0  0  0  0
   42.6820   35.0920   37.8330 O   0  0  0  0  0  0  0  0  0  0  0  0
   43.5720   35.2950   37.4700 H   0  0  0  0  0  0  0  0  0  0  0  0
   40.4960   34.8010   37.5310 O   0  0  0  0  0  0  0  0  0  0  0  0
   39.7860   34.3220   37.0320 H   0  0  0  0  0  0  0  0  0  0  0  0
   43.4190   34.2720   41.2250 O   0  0  0  0  0  0  0  0  0  0  0  0
   44.5720   34.3670   41.8980 C   0  0  0  0  0  0  0  0  0  0  0  0
   45.7940   34.4940   41.2220 C   0  0  0  0  0  0  0  0  0  0  0  0
   46.9590   34.5900   41.9630 C   0  0  0  0  0  0  0  0  0  0  0  0
   46.8850   34.5600   43.3460 N   0  0  0  0  0  0  0  0  0  0  0  0
   45.6880   34.4360   43.9630 C   0  0  0  0  0  0  0  0  0  0  0  0
   44.5400   34.3400   43.2420 N   0  0  0  0  0  0  0  0  0  0  0  0
   45.8580   34.5180   40.1540 H   0  0  0  0  0  0  0  0  0  0  0  0
   45.6190   34.4100   45.0500 H   0  0  0  0  0  0  0  0  0  0  0  0
   48.3010   34.7050   41.3170 C   0  0  0  0  0  0  0  0  0  0  0  0
   49.0540   36.0190   41.5120 C   0  0  0  0  0  0  0  0  0  0  0  0
   49.5000   34.6620   42.0910 C   0  0  0  0  0  0  0  0  0  0  0  0
   48.2760   34.3110   40.2680 H   0  0  0  0  0  0  0  0  0  0  0  0
   48.6520   36.7630   42.1970 H   0  0  0  0  0  0  0  0  0  0  0  0
   49.6690   36.3330   40.6450 H   0  0  0  0  0  0  0  0  0  0  0  0
   50.4030   34.1790   41.6480 H   0  0  0  0  0  0  0  0  0  0  0  0
   49.5110   34.5970   43.1980 H   0  0  0  0  0  0  0  0  0  0  0  0
   41.2880   32.4710   38.4410 O   0  0  0  0  0  0  0  0  0  0  0  0
   40.3060   31.5620   38.4600 C   0  0  0  0  0  0  0  0  0  0  0  0
   39.8330   31.0380   37.3360 O   0  0  0  0  0  0  0  0  0  0  0  0
   39.5120   30.9000   39.5560 C   0  0  0  0  0  0  0  0  0  0  0  0
   40.0750   30.6240   40.7450 C   0  0  0  0  0  0  0  0  0  0  0  0
   41.0770   30.8160   41.0280 H   0  0  0  0  0  0  0  0  0  0  0  0
   39.3280   30.0200   41.7690 C   0  0  0  0  0  3  0  0  0  0  0  0
   38.0050   29.6930   41.5890 C   0  0  0  0  0  0  0  0  0  0  0  0
   37.4470   29.2300   42.3870 H   0  0  0  0  0  0  0  0  0  0  0  0
   37.3780   29.9520   40.3940 C   0  0  0  0  0  0  0  0  0  0  0  0
   36.3470   29.7300   40.1680 H   0  0  0  0  0  0  0  0  0  0  0  0
   38.1650   30.5390   39.4510 C   0  0  0  0  0  3  0  0  0  0  0  0
  1  7  1  6  0  0  0
  1  6  1  0  0  0  0
  1  2  1  0  0  0  0
  2  8  1  6  0  0  0
  2  3  1  0  0  0  0
  2 17  1  0  0  0  0
  4 10  1  0  0  0  0
  4  3  1  0  0  0  0
  5  6  1  0  0  0  0
  5 11  1  1  0  0  0
  5  4  1  0  0  0  0
  6 12  1  1  0  0  0
  9  4  1  0  0  0  0
 13  1  1  0  0  0  0
 14 13  1  0  0  0  0
 15  5  1  0  0  0  0
 16 15  1  0  0  0  0
 17 18  1  0  0  0  0
 18 23  1  0  0  0  0
 19 18  2  0  0  0  0
 19 20  1  0  0  0  0
 20 21  2  0  0  0  0
 21 22  1  0  0  0  0
 22 25  1  0  0  0  0
 23 22  2  0  0  0  0
 24 19  1  0  0  0  0
 26 27  1  0  0  0  0
 26 20  1  0  0  0  0
 26 28  1  0  0  0  0
 27 28  1  0  0  0  0
 27 30  1  0  0  0  0
 28 33  1  0  0  0  0
 29 26  1  0  0  0  0
 31 27  1  0  0  0  0
 32 28  1  0  0  0  0
 34 35  1  0  0  0  0
 34  6  1  0  0  0  0
 35 37  1  0  0  0  0
 36 35  2  0  0  0  0
 37 38  1  0  0  0  0
 38 39  1  0  0  0  0
 38 40  2  0  0  0  0
 41 40  1  0  0  0  0
 41 42  1  0  0  0  0
 43 41  2  0  0  0  0
 44 43  1  0  0  0  0
 45 37  2  0  0  0  0
 45 43  1  0  0  0  0
M  END
>  <minimizedAffinity>
-6.35362816

>  <minimizedRMSD>
1.92001307

$$$$
