
 OpenBabel03252506223D

 35 37  0  0  0  0  0  0  0  0999 V2000
   44.7240   35.2220   42.1640 C   0  0  0  0  0  0  0  0  0  0  0  0
   43.6350   35.2650   41.2820 C   0  0  0  0  0  0  0  0  0  0  0  0
   43.6940   34.4660   40.1330 C   0  0  0  0  0  0  0  0  0  0  0  0
   44.7930   33.6970   39.9320 N   0  0  0  0  0  0  0  0  0  0  0  0
   45.8150   33.6870   40.8040 C   0  0  0  0  0  0  0  0  0  0  0  0
   45.7880   34.4430   41.9180 N   0  0  0  0  0  0  0  0  0  0  0  0
   42.7780   35.8840   41.4680 H   0  0  0  0  0  0  0  0  0  0  0  0
   42.8850   34.4550   39.4130 H   0  0  0  0  0  0  0  0  0  0  0  0
   48.4550   35.1370   40.4680 Cl  0  0  0  0  0  0  0  0  0  0  0  0
   48.2170   33.4230   40.3410 C   0  0  0  0  0  0  0  0  0  0  0  0
   46.9760   32.8180   40.5060 C   0  0  0  0  0  0  0  0  0  0  0  0
   46.7680   31.4730   40.4100 C   0  0  0  0  0  0  0  0  0  0  0  0
   47.8550   30.6910   40.1350 C   0  0  0  0  0  0  0  0  0  0  0  0
   49.1290   31.1790   39.9520 C   0  0  0  0  0  0  0  0  0  0  0  0
   49.2520   32.5510   40.0660 C   0  0  0  0  0  0  0  0  0  0  0  0
   45.7960   31.0650   40.5470 H   0  0  0  0  0  0  0  0  0  0  0  0
   47.7160   29.6140   40.0540 H   0  0  0  0  0  0  0  0  0  0  0  0
   50.0040   30.5690   39.7330 H   0  0  0  0  0  0  0  0  0  0  0  0
   50.2380   33.0000   39.9320 H   0  0  0  0  0  0  0  0  0  0  0  0
   44.6680   36.0560   43.3680 C   0  0  0  0  0  3  0  0  0  0  0  0
   45.2020   37.2440   43.3300 C   0  0  0  0  0  3  0  0  0  0  0  0
   45.1730   38.1340   44.5240 C   0  0  0  0  0  0  0  0  0  0  0  0
   46.1390   37.9780   45.0810 H   0  0  0  0  0  0  0  0  0  0  0  0
   44.3230   37.9080   45.1940 H   0  0  0  0  0  0  0  0  0  0  0  0
   45.2060   39.5030   44.0730 N   0  0  0  0  0  0  0  0  0  0  0  0
   45.4440   39.7680   43.0910 H   0  0  0  0  0  0  0  0  0  0  0  0
   44.9030   40.5460   44.9920 C   0  0  0  0  0  0  0  0  0  0  0  0
   44.9280   40.3430   46.3540 C   0  0  0  0  0  0  0  0  0  0  0  0
   45.1790   39.3770   46.7770 H   0  0  0  0  0  0  0  0  0  0  0  0
   44.6400   41.3310   47.2830 C   0  0  0  0  0  3  0  0  0  0  0  0
   44.3100   42.5900   46.8220 C   0  0  0  0  0  0  0  0  0  0  0  0
   44.0840   43.3710   47.5430 H   0  0  0  0  0  0  0  0  0  0  0  0
   44.2850   42.8000   45.4640 C   0  0  0  0  0  0  0  0  0  0  0  0
   44.0200   43.8100   45.1170 H   0  0  0  0  0  0  0  0  0  0  0  0
   44.5700   41.8140   44.5660 C   0  0  0  0  0  3  0  0  0  0  0  0
  1 20  1  0  0  0  0
  2  7  1  0  0  0  0
  2  1  2  0  0  0  0
  3  2  1  0  0  0  0
  4  3  2  0  0  0  0
  4  5  1  0  0  0  0
  5  6  2  0  0  0  0
  6  1  1  0  0  0  0
  8  3  1  0  0  0  0
 10  9  1  0  0  0  0
 10 11  1  0  0  0  0
 11  5  1  0  0  0  0
 12 11  2  0  0  0  0
 12 16  1  0  0  0  0
 13 12  1  0  0  0  0
 14 15  1  0  0  0  0
 14 13  2  0  0  0  0
 15 10  2  0  0  0  0
 17 13  1  0  0  0  0
 18 14  1  0  0  0  0
 19 15  1  0  0  0  0
 21 20  2  0  0  0  0
 21 22  1  0  0  0  0
 22 23  1  0  0  0  0
 22 24  1  0  0  0  0
 25 22  1  0  0  0  0
 25 27  1  0  0  0  0
 26 25  1  0  0  0  0
 27 28  1  0  0  0  0
 28 29  1  0  0  0  0
 28 30  2  0  0  0  0
 31 30  1  0  0  0  0
 31 32  1  0  0  0  0
 33 31  2  0  0  0  0
 34 33  1  0  0  0  0
 35 27  2  0  0  0  0
 35 33  1  0  0  0  0
M  END
>  <minimizedAffinity>
-3.73718357

>  <minimizedRMSD>
1.58378291

$$$$
