
 OpenBabel03242523163D

 27 29  0  0  0  0  0  0  0  0999 V2000
   46.2900   34.4870   43.6030 C   0  0  0  0  0  0  0  0  0  0  0  0
   47.4230   33.9200   43.1510 C   0  0  0  0  0  0  0  0  0  0  0  0
   47.8040   32.7850   43.8220 C   0  0  0  0  0  0  0  0  0  0  0  0
   47.0300   32.3240   44.8740 N   0  0  0  0  0  0  0  0  0  0  0  0
   45.9100   32.9380   45.2760 C   0  0  0  0  0  0  0  0  0  0  0  0
   45.4950   34.0780   44.6280 N   0  0  0  0  0  0  0  0  0  0  0  0
   48.6860   32.2060   43.5770 H   0  0  0  0  0  0  0  0  0  0  0  0
   45.4390   32.4340   46.1210 H   0  0  0  0  0  0  0  0  0  0  0  0
   48.2360   34.4400   42.1170 C   0  0  0  0  0  0  0  0  0  0  0  0
   48.5740   35.7180   41.7920 C   0  0  0  0  0  0  0  0  0  0  0  0
   49.6980   34.9440   42.4770 C   0  0  0  0  0  0  0  0  0  0  0  0
   48.5550   33.5370   41.4290 H   0  0  0  0  0  0  0  0  0  0  0  0
   48.2100   36.6160   42.3530 H   0  0  0  0  0  0  0  0  0  0  0  0
   48.7980   36.0320   40.7290 H   0  0  0  0  0  0  0  0  0  0  0  0
   49.8730   35.0350   43.5440 H   0  0  0  0  0  0  0  0  0  0  0  0
   50.5360   34.6250   41.8840 H   0  0  0  0  0  0  0  0  0  0  0  0
   45.5400   35.6170   43.0220 C   0  0  0  0  0  0  0  0  0  0  0  0
   45.3270   36.8620   43.0090 O   0  0  0  0  0  0  0  0  0  0  0  0
   44.5860   35.1190   41.9710 C   0  0  0  0  0  0  0  0  0  0  0  0
   43.2260   35.4670   42.0800 C   0  0  0  0  0  0  0  0  0  0  0  0
   42.8830   36.1000   42.9280 H   0  0  0  0  0  0  0  0  0  0  0  0
   42.2110   35.1120   41.2230 C   0  0  0  0  0  0  0  0  0  0  0  0
   42.5420   34.3360   40.1460 C   0  0  0  0  0  0  0  0  0  0  0  0
   41.8090   34.0150   39.4360 H   0  0  0  0  0  0  0  0  0  0  0  0
   43.8860   33.9460   39.9700 C   0  0  0  0  0  0  0  0  0  0  0  0
   44.2330   33.3240   39.1330 H   0  0  0  0  0  0  0  0  0  0  0  0
   44.8530   34.3370   40.8630 C   0  0  0  0  0  0  0  0  0  0  0  0
  1  6  1  0  0  0  0
  2  1  2  0  0  0  0
  2  3  1  0  0  0  0
  3  4  2  0  0  0  0
  4  5  1  0  0  0  0
  5  8  1  0  0  0  0
  6  5  2  0  0  0  0
  7  3  1  0  0  0  0
  9 11  1  0  0  0  0
  9  2  1  0  0  0  0
 10  9  1  0  0  0  0
 10 13  1  0  0  0  0
 10 11  1  0  0  0  0
 11 15  1  0  0  0  0
 12  9  1  0  0  0  0
 14 10  1  0  0  0  0
 16 11  1  0  0  0  0
 17  1  1  0  0  0  0
 18 17  2  0  0  0  0
 19 20  1  0  0  0  0
 19 17  1  0  0  0  0
 20 21  1  0  0  0  0
 22 20  2  0  0  0  0
 23 22  1  0  0  0  0
 24 23  1  0  0  0  0
 25 23  2  0  0  0  0
 25 27  1  0  0  0  0
 26 25  1  0  0  0  0
 27 19  2  0  0  0  0
M  END
>  <minimizedAffinity>
-5.10127354

>  <minimizedRMSD>
0.342099339

$$$$
