
     RDKit          3D

 39 41  0  0  0  0  0  0  0  0999 V2000
   45.1391   36.0058   43.0630 C   0  0  0  0  0  0  0  0  0  0  0  0
   44.1492   35.8050   42.0906 C   0  0  0  0  0  0  0  0  0  0  0  0
   44.3759   34.8185   41.1219 C   0  0  0  0  0  0  0  0  0  0  0  0
   45.5331   34.1129   41.1735 N   0  0  0  0  0  0  0  0  0  0  0  0
   46.4547   34.3382   42.1229 C   0  0  0  0  0  0  0  0  0  0  0  0
   46.2659   35.2793   43.0677 N   0  0  0  0  0  0  0  0  0  0  0  0
   48.9561   35.8054   41.2387 Cl  0  0  0  0  0  0  0  0  0  0  0  0
   48.8721   34.1355   41.7072 C   0  0  0  0  0  0  0  0  0  0  0  0
   47.6900   33.5207   42.1038 C   0  0  0  0  0  0  0  0  0  0  0  0
   47.6028   32.2110   42.4754 C   0  0  0  0  0  0  0  0  0  0  0  0
   48.7555   31.4773   42.4496 C   0  0  0  0  0  0  0  0  0  0  0  0
   49.9809   31.9785   42.0753 C   0  0  0  0  0  0  0  0  0  0  0  0
   49.9814   33.3133   41.7138 C   0  0  0  0  0  0  0  0  0  0  0  0
   44.9070   37.0367   44.0789 C   0  0  0  0  0  0  0  0  0  0  0  0
   45.4657   38.2040   43.9233 C   0  0  0  0  0  0  0  0  0  0  0  0
   45.2641   39.2879   44.9238 C   0  0  0  0  0  0  0  0  0  0  0  0
   44.7644   40.4539   44.2376 N   0  0  0  0  0  0  0  0  0  0  0  0
   43.2429   36.3800   42.0761 H   0  0  0  0  0  0  0  0  0  0  0  0
   43.6497   34.6162   40.3451 H   0  0  0  0  0  0  0  0  0  0  0  0
   46.6713   31.7939   42.7697 H   0  0  0  0  0  0  0  0  0  0  0  0
   48.7130   30.4287   42.7418 H   0  0  0  0  0  0  0  0  0  0  0  0
   50.9070   31.4068   42.0498 H   0  0  0  0  0  0  0  0  0  0  0  0
   50.9228   33.7711   41.4066 H   0  0  0  0  0  0  0  0  0  0  0  0
   44.2863   36.8188   44.9292 H   0  0  0  0  0  0  0  0  0  0  0  0
   46.1042   38.5611   43.1321 H   0  0  0  0  0  0  0  0  0  0  0  0
   46.2797   39.5792   45.3106 H   0  0  0  0  0  0  0  0  0  0  0  0
   44.6284   38.9639   45.7694 H   0  0  0  0  0  0  0  0  0  0  0  0
   44.5929   40.4724   43.2083 H   0  0  0  0  0  0  0  0  0  0  0  0
   44.4892   41.6349   44.9818 C   0  0  0  0  0  0  0  0  0  0  0  0
   44.0108   42.7772   44.3789 C   0  0  0  0  0  0  0  0  0  0  0  0
   43.8257   42.8187   43.3117 H   0  0  0  0  0  0  0  0  0  0  0  0
   43.7298   43.9488   45.0668 C   0  0  0  0  0  0  0  0  0  0  0  0
   43.9399   43.9747   46.4307 C   0  0  0  0  0  0  0  0  0  0  0  0
   43.7225   44.8880   46.9781 H   0  0  0  0  0  0  0  0  0  0  0  0
   44.4169   42.8391   47.0389 C   0  0  0  0  0  0  0  0  0  0  0  0
   44.5778   42.8798   48.1266 H   0  0  0  0  0  0  0  0  0  0  0  0
   44.6875   41.6959   46.3450 C   0  0  0  0  0  0  0  0  0  0  0  0
   43.3547   44.8307   44.5661 H   0  0  0  0  0  0  0  0  0  0  0  0
   45.0700   40.7815   46.8242 H   0  0  0  0  0  0  0  0  0  0  0  0
  1  6  1  0
  1 14  1  0
  2  1  2  0
  3  4  2  0
  3  2  1  0
  4  5  1  0
  5  6  2  0
  7  8  1  0
  8 13  2  0
  8  9  1  0
  9  5  1  0
  9 10  2  0
 11 10  1  0
 12 11  2  0
 13 12  1  0
 15 14  2  0
 15 16  1  0
 17 16  1  0
  2 18  1  0
  3 19  1  0
 10 20  1  0
 11 21  1  0
 12 22  1  0
 13 23  1  0
 14 24  1  0
 15 25  1  0
 16 26  1  0
 16 27  1  0
 17 28  1  0
 29 30  2  0
 30 31  1  0
 30 32  1  0
 32 33  2  0
 33 34  1  0
 33 35  1  0
 35 36  1  0
 35 37  2  0
 37 29  1  0
 32 38  1  0
 37 39  1  0
 17 29  1  0
M  ISO  8  18  14  19  14  20  14  21  14  22  14  23  14  26   8  27   8
M  ISO  4  28   5  31  16  34  16  36  16
M  END
>  <DihAtoms>  (1) 
15,16,28,29

>  <DihDeg>  (1) 
-0.0005078045187044876

$$$$
