
 OpenBabel03252508503D

 28 30  0  0  0  0  0  0  0  0999 V2000
   45.6950   34.2380   41.0790 C   0  0  0  0  0  0  0  0  0  0  0  0
   46.3550   34.7670   42.1820 C   0  0  0  0  0  0  0  0  0  0  0  0
   47.7310   34.9860   42.0280 C   0  0  0  0  0  0  0  0  0  0  0  0
   48.3270   34.6770   40.8390 N   0  0  0  0  0  0  0  0  0  0  0  0
   47.6390   34.1740   39.8190 C   0  0  0  0  0  0  0  0  0  0  0  0
   46.3190   33.9490   39.9270 N   0  0  0  0  0  0  0  0  0  0  0  0
   48.2630   35.3960   42.8760 H   0  0  0  0  0  0  0  0  0  0  0  0
   48.1690   33.9490   38.8990 H   0  0  0  0  0  0  0  0  0  0  0  0
   45.6290   35.0600   43.3990 C   0  0  0  0  0  0  0  0  0  0  0  0
   45.0900   36.3050   43.6690 C   0  0  0  0  0  0  0  0  0  0  0  0
   44.5030   36.1330   44.9090 C   0  0  0  0  0  0  0  0  0  0  0  0
   44.6740   34.8750   45.3570 N   0  0  0  0  0  0  0  0  0  0  0  0
   45.3580   34.2440   44.4260 N   0  0  0  0  0  0  0  0  0  0  0  0
   45.0920   37.2270   43.0970 H   0  0  0  0  0  0  0  0  0  0  0  0
   43.9740   36.9080   45.4500 H   0  0  0  0  0  0  0  0  0  0  0  0
   44.3090   34.5250   46.2760 H   0  0  0  0  0  0  0  0  0  0  0  0
   44.3360   34.0070   41.1880 O   0  0  0  0  0  0  0  0  0  0  0  0
   43.3180   34.8150   40.7760 C   0  0  0  0  0  0  0  0  0  0  0  0
   43.1140   36.0390   41.1090 O   0  0  0  0  0  0  0  0  0  0  0  0
   42.2480   34.3680   39.8390 C   0  0  0  0  0  0  0  0  0  0  0  0
   41.0380   35.0480   39.6910 C   0  0  0  0  0  0  0  0  0  0  0  0
   40.8910   35.9470   40.2970 H   0  0  0  0  0  0  0  0  0  0  0  0
   40.0030   34.7070   38.8550 C   0  0  0  0  0  3  0  0  0  0  0  0
   40.1940   33.5740   38.0930 C   0  0  0  0  0  0  0  0  0  0  0  0
   39.4160   33.2510   37.4160 H   0  0  0  0  0  0  0  0  0  0  0  0
   41.3530   32.8380   38.1720 C   0  0  0  0  0  0  0  0  0  0  0  0
   41.4900   31.9530   37.5690 H   0  0  0  0  0  0  0  0  0  0  0  0
   42.3370   33.2560   39.0360 C   0  0  0  0  0  3  0  0  0  0  0  0
  1 17  1  0  0  0  0
  1  2  1  0  0  0  0
  2  9  1  0  0  0  0
  3  2  2  0  0  0  0
  3  7  1  0  0  0  0
  4  3  1  0  0  0  0
  5  6  1  0  0  0  0
  5  4  2  0  0  0  0
  6  1  2  0  0  0  0
  8  5  1  0  0  0  0
  9 10  1  0  0  0  0
  9 13  2  0  0  0  0
 10 11  2  0  0  0  0
 11 12  1  0  0  0  0
 11 15  1  0  0  0  0
 12 16  1  0  0  0  0
 13 12  1  0  0  0  0
 14 10  1  0  0  0  0
 18 19  2  0  0  0  0
 18 17  1  0  0  0  0
 20 18  1  0  0  0  0
 21 20  1  0  0  0  0
 21 22  1  0  0  0  0
 23 21  2  0  0  0  0
 24 26  2  0  0  0  0
 24 23  1  0  0  0  0
 25 24  1  0  0  0  0
 26 28  1  0  0  0  0
 27 26  1  0  0  0  0
 28 20  2  0  0  0  0
M  END
>  <minimizedAffinity>
-5.52613258

>  <minimizedRMSD>
1.00549853

$$$$
