REMARK  Name = 
REMARK  4 active torsions:
REMARK  status: ('A' for Active; 'I' for Inactive)
REMARK    1  A    between atoms: C_1  and  O_12
REMARK    2  A    between atoms: C_2  and  C_7
REMARK    3  A    between atoms: O_12  and  C_13
REMARK    4  A    between atoms: C_13  and  C_20
REMARK                            x       y       z     vdW  Elec       q    Type
REMARK                         _______ _______ _______ _____ _____    ______ ____
ROOT
ATOM      1  C   UNL     1      46.083  34.161  41.012  0.00  0.00    +0.000 A 
ATOM      2  C   UNL     1      46.611  34.832  42.109  0.00  0.00    +0.000 A 
ATOM      3  C   UNL     1      47.936  35.272  41.981  0.00  0.00    +0.000 A 
ATOM      4  N   UNL     1      48.612  35.025  40.822  0.00  0.00    +0.000 NA
ATOM      5  C   UNL     1      48.050  34.377  39.806  0.00  0.00    +0.000 A 
ATOM      6  N   UNL     1      46.783  33.939  39.889  0.00  0.00    +0.000 NA
ATOM      7  H   UNL     1      48.365  35.796  42.825  0.00  0.00    +0.000 HD
ATOM      8  H   UNL     1      48.639  34.211  38.910  0.00  0.00    +0.000 HD
ENDROOT
BRANCH   2   9
ATOM      9  C   UNL     1      45.808  35.043  43.294  0.00  0.00    +0.000 A 
ATOM     10  C   UNL     1      45.050  36.183  43.493  0.00  0.00    +0.000 A 
ATOM     11  C   UNL     1      44.465  35.962  44.726  0.00  0.00    +0.000 A 
ATOM     12  N   UNL     1      44.841  34.775  45.237  0.00  0.00    +0.000 N 
ATOM     13  N   UNL     1      45.654  34.236  44.353  0.00  0.00    +0.000 NA
ATOM     14  H   UNL     1      44.906  37.065  42.878  0.00  0.00    +0.000 HD
ATOM     15  H   UNL     1      43.791  36.653  45.218  0.00  0.00    +0.000 HD
ATOM     16  H   UNL     1      44.516  34.405  46.163  0.00  0.00    +0.000 HD
ENDBRANCH   2   9
BRANCH   1  17
ATOM     17  O   UNL     1      44.779  33.710  41.096  0.00  0.00    +0.000 OA
BRANCH  17  18
ATOM     18  C   UNL     1      43.689  34.184  40.428  0.00  0.00    +0.000 C 
ATOM     19  O   UNL     1      43.250  35.391  40.416  0.00  0.00    +0.000 OA
BRANCH  18  20
ATOM     20  C   UNL     1      42.812  33.325  39.581  0.00  0.00    +0.000 A 
ATOM     21  C   UNL     1      43.185  32.047  39.159  0.00  0.00    +0.000 A 
ATOM     22  H   UNL     1      44.166  31.681  39.476  0.00  0.00    +0.000 HD
ATOM     23  C   UNL     1      42.444  31.193  38.381  0.00  0.00    +0.000 A 
ATOM     24  C   UNL     1      41.209  31.660  37.985  0.00  0.00    +0.000 A 
ATOM     25  H   UNL     1      40.576  31.035  37.370  0.00  0.00    +0.000 HD
ATOM     26  C   UNL     1      40.755  32.906  38.351  0.00  0.00    +0.000 A 
ATOM     27  H   UNL     1      39.786  33.259  38.033  0.00  0.00    +0.000 HD
ATOM     28  C   UNL     1      41.567  33.694  39.133  0.00  0.00    +0.000 A 
ENDBRANCH  18  20
ENDBRANCH  17  18
ENDBRANCH   1  17
TORSDOF 4
