
 OpenBabel03252508503D

 28 30  0  0  0  0  0  0  0  0999 V2000
   45.8640   34.2480   41.0440 C   0  0  0  0  0  0  0  0  0  0  0  0
   46.4780   34.7960   42.1650 C   0  0  0  0  0  0  0  0  0  0  0  0
   47.8490   35.0670   42.0450 C   0  0  0  0  0  0  0  0  0  0  0  0
   48.4830   34.7860   40.8700 N   0  0  0  0  0  0  0  0  0  0  0  0
   47.8390   34.2610   39.8320 C   0  0  0  0  0  0  0  0  0  0  0  0
   46.5260   33.9870   39.9070 N   0  0  0  0  0  0  0  0  0  0  0  0
   48.3440   35.4930   42.9070 H   0  0  0  0  0  0  0  0  0  0  0  0
   48.3990   34.0600   38.9240 H   0  0  0  0  0  0  0  0  0  0  0  0
   45.7130   35.0570   43.3650 C   0  0  0  0  0  0  0  0  0  0  0  0
   45.1150   36.2780   43.6230 C   0  0  0  0  0  0  0  0  0  0  0  0
   44.5080   36.0790   44.8490 C   0  0  0  0  0  0  0  0  0  0  0  0
   44.7220   34.8300   45.3010 N   0  0  0  0  0  0  0  0  0  0  0  0
   45.4530   34.2290   44.3860 N   0  0  0  0  0  0  0  0  0  0  0  0
   45.0900   37.1990   43.0510 H   0  0  0  0  0  0  0  0  0  0  0  0
   43.9340   36.8310   45.3780 H   0  0  0  0  0  0  0  0  0  0  0  0
   44.3520   34.4630   46.2110 H   0  0  0  0  0  0  0  0  0  0  0  0
   44.5130   33.9670   41.1200 O   0  0  0  0  0  0  0  0  0  0  0  0
   43.4760   34.7320   40.6750 C   0  0  0  0  0  0  0  0  0  0  0  0
   43.2400   35.9620   40.9610 O   0  0  0  0  0  0  0  0  0  0  0  0
   42.4210   34.2230   39.7530 C   0  0  0  0  0  0  0  0  0  0  0  0
   42.2530   32.8650   39.4720 C   0  0  0  0  0  0  0  0  0  0  0  0
   42.9340   32.1640   39.9620 H   0  0  0  0  0  0  0  0  0  0  0  0
   41.3130   32.3120   38.6390 C   0  0  0  0  0  3  0  0  0  0  0  0
   40.4570   33.2000   38.0250 C   0  0  0  0  0  0  0  0  0  0  0  0
   39.6930   32.8270   37.3560 H   0  0  0  0  0  0  0  0  0  0  0  0
   40.5450   34.5550   38.2400 C   0  0  0  0  0  0  0  0  0  0  0  0
   39.8680   35.2400   37.7520 H   0  0  0  0  0  0  0  0  0  0  0  0
   41.5190   35.0200   39.0920 C   0  0  0  0  0  3  0  0  0  0  0  0
  1 17  1  0  0  0  0
  1  2  1  0  0  0  0
  2  9  1  0  0  0  0
  3  2  2  0  0  0  0
  3  7  1  0  0  0  0
  4  3  1  0  0  0  0
  5  6  1  0  0  0  0
  5  4  2  0  0  0  0
  6  1  2  0  0  0  0
  8  5  1  0  0  0  0
  9 10  1  0  0  0  0
  9 13  2  0  0  0  0
 10 11  2  0  0  0  0
 11 12  1  0  0  0  0
 11 15  1  0  0  0  0
 12 16  1  0  0  0  0
 13 12  1  0  0  0  0
 14 10  1  0  0  0  0
 18 19  2  0  0  0  0
 18 17  1  0  0  0  0
 20 18  1  0  0  0  0
 21 20  1  0  0  0  0
 21 22  1  0  0  0  0
 23 21  2  0  0  0  0
 24 26  2  0  0  0  0
 24 23  1  0  0  0  0
 25 24  1  0  0  0  0
 26 28  1  0  0  0  0
 27 26  1  0  0  0  0
 28 20  2  0  0  0  0
M  END
>  <minimizedAffinity>
-5.48925018

>  <minimizedRMSD>
0.824236631

$$$$
