
 OpenBabel03252508513D

 28 30  0  0  0  0  0  0  0  0999 V2000
   45.8820   34.2490   41.0460 C   0  0  0  0  0  0  0  0  0  0  0  0
   46.4900   34.8020   42.1670 C   0  0  0  0  0  0  0  0  0  0  0  0
   47.8590   35.0800   42.0490 C   0  0  0  0  0  0  0  0  0  0  0  0
   48.4980   34.8020   40.8760 N   0  0  0  0  0  0  0  0  0  0  0  0
   47.8580   34.2730   39.8370 C   0  0  0  0  0  0  0  0  0  0  0  0
   46.5470   33.9910   39.9100 N   0  0  0  0  0  0  0  0  0  0  0  0
   48.3510   35.5110   42.9120 H   0  0  0  0  0  0  0  0  0  0  0  0
   48.4210   34.0740   38.9310 H   0  0  0  0  0  0  0  0  0  0  0  0
   45.7210   35.0590   43.3660 C   0  0  0  0  0  0  0  0  0  0  0  0
   45.1140   36.2750   43.6210 C   0  0  0  0  0  0  0  0  0  0  0  0
   44.5060   36.0740   44.8460 C   0  0  0  0  0  0  0  0  0  0  0  0
   44.7290   34.8270   45.3010 N   0  0  0  0  0  0  0  0  0  0  0  0
   45.4670   34.2300   44.3880 N   0  0  0  0  0  0  0  0  0  0  0  0
   45.0820   37.1950   43.0470 H   0  0  0  0  0  0  0  0  0  0  0  0
   43.9250   36.8220   45.3730 H   0  0  0  0  0  0  0  0  0  0  0  0
   44.3600   34.4600   46.2110 H   0  0  0  0  0  0  0  0  0  0  0  0
   44.5320   33.9580   41.1200 O   0  0  0  0  0  0  0  0  0  0  0  0
   43.4920   34.7130   40.6650 C   0  0  0  0  0  0  0  0  0  0  0  0
   43.2520   35.9460   40.9310 O   0  0  0  0  0  0  0  0  0  0  0  0
   42.4360   34.1840   39.7530 C   0  0  0  0  0  0  0  0  0  0  0  0
   41.5220   35.0090   39.0960 C   0  0  0  0  0  0  0  0  0  0  0  0
   41.6020   36.0870   39.2700 H   0  0  0  0  0  0  0  0  0  0  0  0
   40.5230   34.6080   38.2440 C   0  0  0  0  0  3  0  0  0  0  0  0
   40.4250   33.2510   38.0280 C   0  0  0  0  0  0  0  0  0  0  0  0
   39.6590   32.8700   37.3670 H   0  0  0  0  0  0  0  0  0  0  0  0
   41.2830   32.3600   38.6310 C   0  0  0  0  0  0  0  0  0  0  0  0
   41.1960   31.2990   38.4530 H   0  0  0  0  0  0  0  0  0  0  0  0
   42.2550   32.8520   39.4700 C   0  0  0  0  0  3  0  0  0  0  0  0
  1 17  1  0  0  0  0
  1  2  1  0  0  0  0
  2  9  1  0  0  0  0
  3  2  2  0  0  0  0
  3  7  1  0  0  0  0
  4  3  1  0  0  0  0
  5  6  1  0  0  0  0
  5  4  2  0  0  0  0
  6  1  2  0  0  0  0
  8  5  1  0  0  0  0
  9 10  1  0  0  0  0
  9 13  2  0  0  0  0
 10 11  2  0  0  0  0
 11 12  1  0  0  0  0
 11 15  1  0  0  0  0
 12 16  1  0  0  0  0
 13 12  1  0  0  0  0
 14 10  1  0  0  0  0
 18 19  2  0  0  0  0
 18 17  1  0  0  0  0
 20 18  1  0  0  0  0
 21 22  1  0  0  0  0
 21 20  2  0  0  0  0
 23 21  1  0  0  0  0
 24 23  2  0  0  0  0
 24 26  1  0  0  0  0
 25 24  1  0  0  0  0
 26 28  2  0  0  0  0
 27 26  1  0  0  0  0
 28 20  1  0  0  0  0
M  END
>  <minimizedAffinity>
-5.50803757

>  <minimizedRMSD>
0.818014264

$$$$
