
 OpenBabel03252508513D

 28 30  0  0  0  0  0  0  0  0999 V2000
   45.7980   34.2460   41.0550 C   0  0  0  0  0  0  0  0  0  0  0  0
   46.4330   34.7820   42.1690 C   0  0  0  0  0  0  0  0  0  0  0  0
   47.8070   35.0270   42.0350 C   0  0  0  0  0  0  0  0  0  0  0  0
   48.4240   34.7350   40.8540 N   0  0  0  0  0  0  0  0  0  0  0  0
   47.7600   34.2230   39.8220 C   0  0  0  0  0  0  0  0  0  0  0  0
   46.4430   33.9740   39.9100 N   0  0  0  0  0  0  0  0  0  0  0  0
   48.3190   35.4440   42.8920 H   0  0  0  0  0  0  0  0  0  0  0  0
   48.3070   34.0120   38.9090 H   0  0  0  0  0  0  0  0  0  0  0  0
   45.6850   35.0560   43.3770 C   0  0  0  0  0  0  0  0  0  0  0  0
   45.1190   36.2900   43.6450 C   0  0  0  0  0  0  0  0  0  0  0  0
   44.5180   36.1010   44.8760 C   0  0  0  0  0  0  0  0  0  0  0  0
   44.7060   34.8440   45.3210 N   0  0  0  0  0  0  0  0  0  0  0  0
   45.4150   34.2300   44.3970 N   0  0  0  0  0  0  0  0  0  0  0  0
   45.1120   37.2140   43.0770 H   0  0  0  0  0  0  0  0  0  0  0  0
   43.9670   36.8630   45.4130 H   0  0  0  0  0  0  0  0  0  0  0  0
   44.3350   34.4830   46.2330 H   0  0  0  0  0  0  0  0  0  0  0  0
   44.4420   33.9890   41.1440 O   0  0  0  0  0  0  0  0  0  0  0  0
   43.4150   34.7870   40.7360 C   0  0  0  0  0  0  0  0  0  0  0  0
   43.2050   36.0110   41.0640 O   0  0  0  0  0  0  0  0  0  0  0  0
   42.3390   34.3250   39.8120 C   0  0  0  0  0  0  0  0  0  0  0  0
   42.4170   33.1270   39.0990 C   0  0  0  0  0  0  0  0  0  0  0  0
   43.3130   32.5170   39.2410 H   0  0  0  0  0  0  0  0  0  0  0  0
   41.4780   32.6290   38.2310 C   0  0  0  0  0  3  0  0  0  0  0  0
   40.3500   33.4010   38.0560 C   0  0  0  0  0  0  0  0  0  0  0  0
   39.5730   33.0650   37.3840 H   0  0  0  0  0  0  0  0  0  0  0  0
   40.1850   34.5970   38.7150 C   0  0  0  0  0  0  0  0  0  0  0  0
   39.2970   35.1940   38.5690 H   0  0  0  0  0  0  0  0  0  0  0  0
   41.1790   35.0180   39.5670 C   0  0  0  0  0  3  0  0  0  0  0  0
  1 17  1  0  0  0  0
  1  2  1  0  0  0  0
  2  9  1  0  0  0  0
  3  2  2  0  0  0  0
  3  7  1  0  0  0  0
  4  3  1  0  0  0  0
  5  6  1  0  0  0  0
  5  4  2  0  0  0  0
  6  1  2  0  0  0  0
  8  5  1  0  0  0  0
  9 10  1  0  0  0  0
  9 13  2  0  0  0  0
 10 11  2  0  0  0  0
 11 12  1  0  0  0  0
 11 15  1  0  0  0  0
 12 16  1  0  0  0  0
 13 12  1  0  0  0  0
 14 10  1  0  0  0  0
 18 19  2  0  0  0  0
 18 17  1  0  0  0  0
 20 18  1  0  0  0  0
 21 22  1  0  0  0  0
 21 20  2  0  0  0  0
 23 21  1  0  0  0  0
 24 23  2  0  0  0  0
 24 26  1  0  0  0  0
 25 24  1  0  0  0  0
 26 28  2  0  0  0  0
 27 26  1  0  0  0  0
 28 20  1  0  0  0  0
M  END
>  <minimizedAffinity>
-5.4980588

>  <minimizedRMSD>
0.939285636

$$$$
