
 OpenBabel03252508513D

 28 30  0  0  0  0  0  0  0  0999 V2000
   45.9420   34.1590   41.0370 C   0  0  0  0  0  0  0  0  0  0  0  0
   46.5220   34.7950   42.1290 C   0  0  0  0  0  0  0  0  0  0  0  0
   47.8640   35.1710   41.9800 C   0  0  0  0  0  0  0  0  0  0  0  0
   48.5060   34.9000   40.8070 N   0  0  0  0  0  0  0  0  0  0  0  0
   47.8960   34.2870   39.7970 C   0  0  0  0  0  0  0  0  0  0  0  0
   46.6100   33.9110   39.9000 N   0  0  0  0  0  0  0  0  0  0  0  0
   48.3330   35.6670   42.8190 H   0  0  0  0  0  0  0  0  0  0  0  0
   48.4600   34.1000   38.8900 H   0  0  0  0  0  0  0  0  0  0  0  0
   45.7510   35.0360   43.3290 C   0  0  0  0  0  0  0  0  0  0  0  0
   45.0600   36.2130   43.5530 C   0  0  0  0  0  0  0  0  0  0  0  0
   44.4840   36.0110   44.7940 C   0  0  0  0  0  0  0  0  0  0  0  0
   44.8030   34.7990   45.2860 N   0  0  0  0  0  0  0  0  0  0  0  0
   45.5700   34.2270   44.3830 N   0  0  0  0  0  0  0  0  0  0  0  0
   44.9540   37.1090   42.9500 H   0  0  0  0  0  0  0  0  0  0  0  0
   43.8570   36.7320   45.3040 H   0  0  0  0  0  0  0  0  0  0  0  0
   44.4730   34.4370   46.2130 H   0  0  0  0  0  0  0  0  0  0  0  0
   44.6190   33.7710   41.1420 O   0  0  0  0  0  0  0  0  0  0  0  0
   43.5230   34.4070   40.6390 C   0  0  0  0  0  0  0  0  0  0  0  0
   43.3310   35.6740   40.5530 O   0  0  0  0  0  0  0  0  0  0  0  0
   42.3370   33.6840   40.0950 C   0  0  0  0  0  0  0  0  0  0  0  0
   42.1230   33.5030   38.7280 C   0  0  0  0  0  0  0  0  0  0  0  0
   42.8690   33.9160   38.0440 H   0  0  0  0  0  0  0  0  0  0  0  0
   41.0640   32.8540   38.1440 C   0  0  0  0  0  3  0  0  0  0  0  0
   40.1260   32.3350   39.0090 C   0  0  0  0  0  0  0  0  0  0  0  0
   39.2660   31.8110   38.6130 H   0  0  0  0  0  0  0  0  0  0  0  0
   40.2500   32.4640   40.3730 C   0  0  0  0  0  0  0  0  0  0  0  0
   39.5090   32.0520   41.0400 H   0  0  0  0  0  0  0  0  0  0  0  0
   41.3470   33.1300   40.8700 C   0  0  0  0  0  3  0  0  0  0  0  0
  1 17  1  0  0  0  0
  1  2  1  0  0  0  0
  2  9  1  0  0  0  0
  3  2  2  0  0  0  0
  3  7  1  0  0  0  0
  4  3  1  0  0  0  0
  5  6  1  0  0  0  0
  5  4  2  0  0  0  0
  6  1  2  0  0  0  0
  8  5  1  0  0  0  0
  9 10  1  0  0  0  0
  9 13  2  0  0  0  0
 10 11  2  0  0  0  0
 11 12  1  0  0  0  0
 11 15  1  0  0  0  0
 12 16  1  0  0  0  0
 13 12  1  0  0  0  0
 14 10  1  0  0  0  0
 18 17  1  0  0  0  0
 19 18  2  0  0  0  0
 20 18  1  0  0  0  0
 20 28  1  0  0  0  0
 21 20  2  0  0  0  0
 22 21  1  0  0  0  0
 23 21  1  0  0  0  0
 23 24  2  0  0  0  0
 24 26  1  0  0  0  0
 25 24  1  0  0  0  0
 26 28  2  0  0  0  0
 26 27  1  0  0  0  0
M  END
>  <minimizedAffinity>
-5.25593567

>  <minimizedRMSD>
0.7148664

$$$$
