
 OpenBabel03252508513D

 28 30  0  0  0  0  0  0  0  0999 V2000
   45.8650   34.2490   41.0450 C   0  0  0  0  0  0  0  0  0  0  0  0
   46.4790   34.7970   42.1660 C   0  0  0  0  0  0  0  0  0  0  0  0
   47.8490   35.0670   42.0460 C   0  0  0  0  0  0  0  0  0  0  0  0
   48.4840   34.7870   40.8710 N   0  0  0  0  0  0  0  0  0  0  0  0
   47.8400   34.2630   39.8330 C   0  0  0  0  0  0  0  0  0  0  0  0
   46.5280   33.9890   39.9080 N   0  0  0  0  0  0  0  0  0  0  0  0
   48.3450   35.4940   42.9080 H   0  0  0  0  0  0  0  0  0  0  0  0
   48.4000   34.0620   38.9260 H   0  0  0  0  0  0  0  0  0  0  0  0
   45.7130   35.0570   43.3660 C   0  0  0  0  0  0  0  0  0  0  0  0
   45.1150   36.2770   43.6230 C   0  0  0  0  0  0  0  0  0  0  0  0
   44.5070   36.0780   44.8490 C   0  0  0  0  0  0  0  0  0  0  0  0
   44.7230   34.8290   45.3020 N   0  0  0  0  0  0  0  0  0  0  0  0
   45.4550   34.2290   44.3870 N   0  0  0  0  0  0  0  0  0  0  0  0
   45.0880   37.1980   43.0510 H   0  0  0  0  0  0  0  0  0  0  0  0
   43.9330   36.8290   45.3780 H   0  0  0  0  0  0  0  0  0  0  0  0
   44.3530   34.4630   46.2120 H   0  0  0  0  0  0  0  0  0  0  0  0
   44.5140   33.9670   41.1210 O   0  0  0  0  0  0  0  0  0  0  0  0
   43.4770   34.7320   40.6750 C   0  0  0  0  0  0  0  0  0  0  0  0
   43.2410   35.9620   40.9610 O   0  0  0  0  0  0  0  0  0  0  0  0
   42.4220   34.2230   39.7530 C   0  0  0  0  0  0  0  0  0  0  0  0
   42.2530   32.8650   39.4750 C   0  0  0  0  0  0  0  0  0  0  0  0
   42.9330   32.1640   39.9650 H   0  0  0  0  0  0  0  0  0  0  0  0
   41.3120   32.3110   38.6410 C   0  0  0  0  0  3  0  0  0  0  0  0
   40.4580   33.1990   38.0250 C   0  0  0  0  0  0  0  0  0  0  0  0
   39.6940   32.8270   37.3570 H   0  0  0  0  0  0  0  0  0  0  0  0
   40.5480   34.5550   38.2380 C   0  0  0  0  0  0  0  0  0  0  0  0
   39.8710   35.2410   37.7500 H   0  0  0  0  0  0  0  0  0  0  0  0
   41.5210   35.0210   39.0910 C   0  0  0  0  0  3  0  0  0  0  0  0
  1 17  1  0  0  0  0
  1  2  1  0  0  0  0
  2  9  1  0  0  0  0
  3  2  2  0  0  0  0
  3  7  1  0  0  0  0
  4  3  1  0  0  0  0
  5  6  1  0  0  0  0
  5  4  2  0  0  0  0
  6  1  2  0  0  0  0
  8  5  1  0  0  0  0
  9 10  1  0  0  0  0
  9 13  2  0  0  0  0
 10 11  2  0  0  0  0
 11 12  1  0  0  0  0
 11 15  1  0  0  0  0
 12 16  1  0  0  0  0
 13 12  1  0  0  0  0
 14 10  1  0  0  0  0
 18 19  2  0  0  0  0
 18 17  1  0  0  0  0
 20 18  1  0  0  0  0
 21 20  1  0  0  0  0
 21 22  1  0  0  0  0
 23 21  2  0  0  0  0
 24 26  2  0  0  0  0
 24 23  1  0  0  0  0
 25 24  1  0  0  0  0
 26 28  1  0  0  0  0
 27 26  1  0  0  0  0
 28 20  2  0  0  0  0
M  END
>  <minimizedAffinity>
-5.48965025

>  <minimizedRMSD>
0.842935145

$$$$
