
 OpenBabel03242521443D

 38 40  0  0  1  0  0  0  0  0999 V2000
   45.5610   35.6290   43.7830 C   0  0  0  0  0  0  0  0  0  0  0  0
   46.5780   34.8210   43.2630 C   0  0  0  0  0  0  0  0  0  0  0  0
   46.9510   33.6560   43.9640 C   0  0  0  0  0  0  0  0  0  0  0  0
   46.3060   33.3850   45.0950 N   0  0  0  0  0  0  0  0  0  0  0  0
   45.3230   34.1780   45.5860 C   0  0  0  0  0  0  0  0  0  0  0  0
   44.9520   35.2950   44.9340 N   0  0  0  0  0  0  0  0  0  0  0  0
   47.0270   35.1520   42.3250 H   0  0  0  0  0  0  0  0  0  0  0  0
   44.8470   33.8900   46.5110 H   0  0  0  0  0  0  0  0  0  0  0  0
   49.0060   33.6200   42.5650 C   0  0  2  0  0  0  0  0  0  0  0  0
   48.0140   32.8570   43.3710 C   0  0  2  0  0  0  0  0  0  0  0  0
   47.5580   31.9100   42.4060 O   0  0  0  0  0  0  0  0  0  0  0  0
   48.7550   31.3850   41.9520 C   0  0  0  0  0  0  0  0  0  0  0  0
   49.8260   32.4240   42.0390 C   0  0  1  0  0  0  0  0  0  0  0  0
   48.5810   34.0690   41.6440 H   0  0  0  0  0  0  0  0  0  0  0  0
   48.5480   32.2570   44.1440 H   0  0  0  0  0  0  0  0  0  0  0  0
   49.0310   30.4580   42.4930 H   0  0  0  0  0  0  0  0  0  0  0  0
   48.6310   31.1200   40.8860 H   0  0  0  0  0  0  0  0  0  0  0  0
   50.5700   32.1340   42.8130 H   0  0  0  0  0  0  0  0  0  0  0  0
   49.7400   34.5290   43.2650 O   0  0  0  0  0  0  0  0  0  0  0  0
   49.3690   34.6310   44.1760 H   0  0  0  0  0  0  0  0  0  0  0  0
   50.3990   32.7810   40.8210 O   0  0  0  0  0  0  0  0  0  0  0  0
   50.0650   33.6640   40.5340 H   0  0  0  0  0  0  0  0  0  0  0  0
   45.1750   36.8700   43.0410 C   0  0  0  0  0  0  0  0  0  0  0  0
   44.2060   36.5990   42.5300 H   0  0  0  0  0  0  0  0  0  0  0  0
   45.9520   37.1320   42.3240 H   0  0  0  0  0  0  0  0  0  0  0  0
   45.3130   39.2520   43.9950 C   0  0  0  0  0  0  0  0  0  0  0  0
   45.9680   39.6120   42.9530 O   0  0  0  0  0  0  0  0  0  0  0  0
   44.9190   37.8970   44.0240 N   0  0  0  0  0  0  0  0  0  0  0  0
   44.3730   37.5920   44.8600 H   0  0  0  0  0  0  0  0  0  0  0  0
   45.0050   40.1880   45.0660 C   0  0  0  0  0  0  0  0  0  0  0  0
   45.0860   39.9530   46.4230 C   0  0  0  0  0  0  0  0  0  0  0  0
   45.4090   38.9790   46.7120 H   0  0  0  0  0  0  0  0  0  0  0  0
   44.7630   40.9320   47.3390 C   0  0  0  0  0  0  0  0  0  0  0  0
   44.3440   42.1920   46.9420 C   0  0  0  0  0  0  0  0  0  0  0  0
   44.1010   42.9330   47.6910 H   0  0  0  0  0  0  0  0  0  0  0  0
   44.2530   42.4620   45.5960 C   0  0  0  0  0  0  0  0  0  0  0  0
   43.9310   43.4290   45.2310 H   0  0  0  0  0  0  0  0  0  0  0  0
   44.5810   41.4660   44.6990 C   0  0  0  0  0  0  0  0  0  0  0  0
  1  6  1  0  0  0  0
  2  1  2  0  0  0  0
  2  3  1  0  0  0  0
  3  4  2  0  0  0  0
  4  5  1  0  0  0  0
  5  8  1  0  0  0  0
  6  5  2  0  0  0  0
  7  2  1  0  0  0  0
  9 14  1  6  0  0  0
  9 19  1  0  0  0  0
  9 10  1  0  0  0  0
 10  3  1  0  0  0  0
 10 15  1  1  0  0  0
 11 10  1  0  0  0  0
 12 13  1  0  0  0  0
 12 11  1  0  0  0  0
 12 16  1  0  0  0  0
 13  9  1  0  0  0  0
 13 18  1  1  0  0  0
 17 12  1  0  0  0  0
 19 20  1  0  0  0  0
 21 13  1  0  0  0  0
 22 21  1  0  0  0  0
 23  1  1  0  0  0  0
 23 28  1  0  0  0  0
 24 23  1  0  0  0  0
 25 23  1  0  0  0  0
 26 28  1  0  0  0  0
 26 30  1  0  0  0  0
 27 26  2  0  0  0  0
 28 29  1  0  0  0  0
 30 31  1  0  0  0  0
 31 32  1  0  0  0  0
 31 33  2  0  0  0  0
 34 33  1  0  0  0  0
 34 35  1  0  0  0  0
 36 34  2  0  0  0  0
 37 36  1  0  0  0  0
 38 30  2  0  0  0  0
 38 36  1  0  0  0  0
M  END
>  <minimizedAffinity>
-4.85291243

>  <minimizedRMSD>
0.688733101

$$$$
