
 OpenBabel03252507163D

 29 31  0  0  0  0  0  0  0  0999 V2000
   45.1710   36.1770   43.5000 C   0  0  0  0  0  0  0  0  0  0  0  0
   45.7950   34.9850   43.1160 C   0  0  0  0  0  0  0  0  0  0  0  0
   45.8100   33.9330   44.0360 C   0  0  0  0  0  0  0  0  0  0  0  0
   45.2320   34.1210   45.2260 N   0  0  0  0  0  0  0  0  0  0  0  0
   44.6290   35.2800   45.5900 C   0  0  0  0  0  0  0  0  0  0  0  0
   44.6140   36.2810   44.7190 N   0  0  0  0  0  0  0  0  0  0  0  0
   45.1180   37.0420   42.8500 H   0  0  0  0  0  0  0  0  0  0  0  0
   44.2060   35.2820   46.5830 H   0  0  0  0  0  0  0  0  0  0  0  0
   46.4520   32.6900   43.6550 C   0  0  0  0  0  0  0  0  0  0  0  0
   45.6780   31.6270   43.2290 C   0  0  0  0  0  0  0  0  0  0  0  0
   46.3100   30.4640   42.8680 C   0  0  0  0  0  0  0  0  0  0  0  0
   47.7010   30.2950   42.9080 C   0  0  0  0  0  0  0  0  0  0  0  0
   48.4140   31.4080   43.3470 C   0  0  0  0  0  0  0  0  0  0  0  0
   47.7700   32.5300   43.6930 N   0  0  0  0  0  0  0  0  0  0  0  0
   44.5870   31.7020   43.1790 H   0  0  0  0  0  0  0  0  0  0  0  0
   45.7310   29.5900   42.5250 H   0  0  0  0  0  0  0  0  0  0  0  0
   48.2060   29.3970   42.6310 H   0  0  0  0  0  0  0  0  0  0  0  0
   49.4910   31.3340   43.3960 H   0  0  0  0  0  0  0  0  0  0  0  0
   46.3930   34.8550   41.8140 C   0  0  0  0  0  0  0  0  0  0  0  0
   47.5660   35.2930   41.6840 O   0  0  0  0  0  0  0  0  0  0  0  0
   45.6000   34.2230   40.7360 C   0  0  0  0  0  0  0  0  0  0  0  0
   46.2720   33.4080   39.8200 C   0  0  0  0  0  0  0  0  0  0  0  0
   47.3040   33.1910   39.8410 H   0  0  0  0  0  0  0  0  0  0  0  0
   45.3380   32.9390   38.8890 C   0  0  0  0  0  3  0  0  0  0  0  0
   44.0040   33.1680   38.7970 C   0  0  0  0  0  0  0  0  0  0  0  0
   43.4350   32.7140   38.0020 H   0  0  0  0  0  0  0  0  0  0  0  0
   43.4830   33.9920   39.7730 C   0  0  0  0  0  0  0  0  0  0  0  0
   42.4320   34.2200   39.7570 H   0  0  0  0  0  0  0  0  0  0  0  0
   44.2660   34.5390   40.7630 C   0  0  0  0  0  3  0  0  0  0  0  0
  1  6  1  0  0  0  0
  2  1  2  0  0  0  0
  2  3  1  0  0  0  0
  3  4  2  0  0  0  0
  4  5  1  0  0  0  0
  5  8  1  0  0  0  0
  6  5  2  0  0  0  0
  7  1  1  0  0  0  0
  9 14  1  0  0  0  0
  9  3  1  0  0  0  0
 10  9  2  0  0  0  0
 11 12  2  0  0  0  0
 11 10  1  0  0  0  0
 12 13  1  0  0  0  0
 13 18  1  0  0  0  0
 13 14  2  0  0  0  0
 15 10  1  0  0  0  0
 16 11  1  0  0  0  0
 17 12  1  0  0  0  0
 19  2  1  0  0  0  0
 20 19  2  0  0  0  0
 21 29  1  0  0  0  0
 21 19  1  0  0  0  0
 22 23  1  0  0  0  0
 22 21  2  0  0  0  0
 24 22  1  0  0  0  0
 25 24  2  0  0  0  0
 25 27  1  0  0  0  0
 26 25  1  0  0  0  0
 27 29  2  0  0  0  0
 28 27  1  0  0  0  0
M  END
>  <minimizedAffinity>
-4.64545298

>  <minimizedRMSD>
0.444811136

$$$$
