
 OpenBabel03242519413D

 29 30  0  0  0  0  0  0  0  0999 V2000
   48.0670   32.7230   41.8050 O   0  0  0  0  0  0  0  0  0  0  0  0
   47.0680   33.8130   41.3400 P   0  0  2  0  0  0  0  0  0  0  0  0
   45.5410   33.5110   42.0620 O   0  0  0  0  0  0  0  0  0  0  0  0
   44.3540   35.8950   44.5470 C   0  0  0  0  0  0  0  0  0  0  0  0
   44.6320   35.2970   43.2930 C   0  0  0  0  0  0  0  0  0  0  0  0
   45.2840   34.0600   43.2990 C   0  0  0  0  0  0  0  0  0  0  0  0
   45.6090   33.5080   44.4830 N   0  0  0  0  0  0  0  0  0  0  0  0
   45.3310   34.1010   45.6660 C   0  0  0  0  0  0  0  0  0  0  0  0
   44.7060   35.2900   45.7040 N   0  0  0  0  0  0  0  0  0  0  0  0
   43.8490   36.8530   44.5350 H   0  0  0  0  0  0  0  0  0  0  0  0
   44.3290   35.8220   42.4000 H   0  0  0  0  0  0  0  0  0  0  0  0
   45.6500   33.5430   46.5510 H   0  0  0  0  0  0  0  0  0  0  0  0
   46.9060   33.7290   39.6930 O   0  0  0  0  0  0  0  0  0  0  0  0
   45.8910   33.2340   38.9400 C   0  0  0  0  0  0  0  0  0  0  0  0
   46.2280   32.4830   37.8510 O   0  0  0  0  0  0  0  0  0  0  0  0
   44.4170   33.1150   38.7500 C   0  0  0  0  0  0  0  0  0  0  0  0
   43.9150   32.1120   38.0330 C   0  0  0  0  0  0  0  0  0  0  0  0
   44.3930   31.3290   37.5040 H   0  0  0  0  0  0  0  0  0  0  0  0
   42.5160   32.0270   37.9170 C   0  0  0  0  0  0  0  0  0  0  0  0
   41.6690   32.9270   38.5050 C   0  0  0  0  0  0  0  0  0  0  0  0
   40.5980   32.8290   38.3930 H   0  0  0  0  0  0  0  0  0  0  0  0
   42.1080   33.9840   39.2560 C   0  0  0  0  0  0  0  0  0  0  0  0
   41.5450   34.7480   39.7620 H   0  0  0  0  0  0  0  0  0  0  0  0
   43.4710   33.9930   39.3180 C   0  0  0  0  0  0  0  0  0  0  0  0
   47.6420   35.2620   41.9070 O   0  0  0  0  0  0  0  0  0  0  0  0
   48.8890   35.5790   41.3890 C   0  0  0  0  0  0  0  0  0  0  0  0
   49.3160   36.8400   41.7740 F   0  0  0  0  0  0  0  0  0  0  0  0
   49.7890   34.6070   41.6870 F   0  0  0  0  0  0  0  0  0  0  0  0
   48.7300   35.6270   40.0080 F   0  0  0  0  0  0  0  0  0  0  0  0
  2  1  2  1  0  0  0
  2 25  1  0  0  0  0
  2  3  1  0  0  0  0
  3  6  1  0  0  0  0
  4  9  1  0  0  0  0
  5  6  1  0  0  0  0
  5  4  2  0  0  0  0
  6  7  2  0  0  0  0
  7  8  1  0  0  0  0
  8  9  2  0  0  0  0
  8 12  1  0  0  0  0
 10  4  1  0  0  0  0
 11  5  1  0  0  0  0
 13  2  1  0  0  0  0
 14 13  1  0  0  0  0
 15 14  2  0  0  0  0
 16 14  1  0  0  0  0
 16 24  1  0  0  0  0
 17 16  2  0  0  0  0
 18 17  1  0  0  0  0
 19 17  1  0  0  0  0
 19 20  2  0  0  0  0
 20 22  1  0  0  0  0
 21 20  1  0  0  0  0
 22 24  2  0  0  0  0
 22 23  1  0  0  0  0
 26 28  1  0  0  0  0
 26 27  1  0  0  0  0
 26 25  1  0  0  0  0
 29 26  1  0  0  0  0
M  END
>  <minimizedAffinity>
-5.28129435

>  <minimizedRMSD>
2.17889524

$$$$
