
 OpenBabel03252507163D

 29 31  0  0  0  0  0  0  0  0999 V2000
   45.1070   36.1570   43.6230 C   0  0  0  0  0  0  0  0  0  0  0  0
   45.7420   34.9830   43.2060 C   0  0  0  0  0  0  0  0  0  0  0  0
   45.7880   33.9130   44.1050 C   0  0  0  0  0  0  0  0  0  0  0  0
   45.2270   34.0710   45.3080 N   0  0  0  0  0  0  0  0  0  0  0  0
   44.6130   35.2130   45.7040 C   0  0  0  0  0  0  0  0  0  0  0  0
   44.5680   36.2300   44.8520 N   0  0  0  0  0  0  0  0  0  0  0  0
   45.0290   37.0330   42.9900 H   0  0  0  0  0  0  0  0  0  0  0  0
   44.2050   35.1890   46.7030 H   0  0  0  0  0  0  0  0  0  0  0  0
   46.4430   32.6880   43.6910 C   0  0  0  0  0  0  0  0  0  0  0  0
   45.6770   31.6190   43.2620 C   0  0  0  0  0  0  0  0  0  0  0  0
   46.3210   30.4730   42.8690 C   0  0  0  0  0  0  0  0  0  0  0  0
   47.7150   30.3270   42.8780 C   0  0  0  0  0  0  0  0  0  0  0  0
   48.4190   31.4440   43.3220 C   0  0  0  0  0  0  0  0  0  0  0  0
   47.7630   32.5500   43.6990 N   0  0  0  0  0  0  0  0  0  0  0  0
   44.5850   31.6760   43.2350 H   0  0  0  0  0  0  0  0  0  0  0  0
   45.7500   29.5960   42.5220 H   0  0  0  0  0  0  0  0  0  0  0  0
   48.2300   29.4430   42.5760 H   0  0  0  0  0  0  0  0  0  0  0  0
   49.4980   31.3880   43.3480 H   0  0  0  0  0  0  0  0  0  0  0  0
   46.3200   34.8860   41.8920 C   0  0  0  0  0  0  0  0  0  0  0  0
   47.4860   35.3400   41.7530 O   0  0  0  0  0  0  0  0  0  0  0  0
   45.5170   34.2670   40.8140 C   0  0  0  0  0  0  0  0  0  0  0  0
   46.1660   33.4080   39.9240 C   0  0  0  0  0  0  0  0  0  0  0  0
   47.1890   33.1490   39.9650 H   0  0  0  0  0  0  0  0  0  0  0  0
   45.2270   32.9600   38.9880 C   0  0  0  0  0  3  0  0  0  0  0  0
   43.9060   33.2430   38.8720 C   0  0  0  0  0  0  0  0  0  0  0  0
   43.3290   32.7980   38.0770 H   0  0  0  0  0  0  0  0  0  0  0  0
   43.4060   34.1060   39.8230 C   0  0  0  0  0  0  0  0  0  0  0  0
   42.3650   34.3760   39.7890 H   0  0  0  0  0  0  0  0  0  0  0  0
   44.1970   34.6390   40.8160 C   0  0  0  0  0  3  0  0  0  0  0  0
  1  6  1  0  0  0  0
  2  1  2  0  0  0  0
  2  3  1  0  0  0  0
  3  4  2  0  0  0  0
  4  5  1  0  0  0  0
  5  8  1  0  0  0  0
  6  5  2  0  0  0  0
  7  1  1  0  0  0  0
  9 14  1  0  0  0  0
  9  3  1  0  0  0  0
 10  9  2  0  0  0  0
 11 12  2  0  0  0  0
 11 10  1  0  0  0  0
 12 13  1  0  0  0  0
 13 18  1  0  0  0  0
 13 14  2  0  0  0  0
 15 10  1  0  0  0  0
 16 11  1  0  0  0  0
 17 12  1  0  0  0  0
 19  2  1  0  0  0  0
 20 19  2  0  0  0  0
 21 29  1  0  0  0  0
 21 19  1  0  0  0  0
 22 23  1  0  0  0  0
 22 21  2  0  0  0  0
 24 22  1  0  0  0  0
 25 24  2  0  0  0  0
 25 27  1  0  0  0  0
 26 25  1  0  0  0  0
 27 29  2  0  0  0  0
 28 27  1  0  0  0  0
M  END
>  <minimizedAffinity>
-4.62337255

>  <minimizedRMSD>
0.787756979

$$$$
