
 OpenBabel03252503333D

 41 43  0  0  1  0  0  0  0  0999 V2000
   39.9040   30.9830   40.7960 C   0  0  0  0  0  0  0  0  0  0  0  0
   39.3010   32.2580   40.9920 C   0  0  0  0  0  0  0  0  0  0  0  0
   39.5650   33.2300   40.0120 C   0  0  0  0  0  0  0  0  0  0  0  0
   40.3550   32.8850   38.9800 N   0  0  0  0  0  0  0  0  0  0  0  0
   40.9070   31.6560   38.8340 C   0  0  0  0  0  0  0  0  0  0  0  0
   40.6710   30.7030   39.7600 N   0  0  0  0  0  0  0  0  0  0  0  0
   38.3910   29.3910   41.6240 C   0  0  0  0  0  0  0  0  0  0  0  0
   37.5930   29.8810   40.7530 O   0  0  0  0  0  0  0  0  0  0  0  0
   39.6830   29.9370   41.7530 N   0  0  0  0  0  0  0  0  0  0  0  0
   37.9080   28.3170   42.4100 N   0  0  0  0  0  0  0  0  0  0  0  0
   36.4600   28.0380   42.4540 C   0  0  0  0  0  0  0  0  0  0  0  0
   36.2830   27.4800   43.8310 C   0  0  0  0  0  0  0  0  0  0  0  0
   37.6580   27.3970   44.4260 C   0  0  0  0  0  0  0  0  0  0  0  0
   38.5730   27.3440   43.2250 C   0  0  1  0  0  0  0  0  0  0  0  0
   38.6820   32.4030   41.8720 H   0  0  0  0  0  0  0  0  0  0  0  0
   41.5420   31.4210   37.9810 H   0  0  0  0  0  0  0  0  0  0  0  0
   40.3080   29.5510   42.4830 H   0  0  0  0  0  0  0  0  0  0  0  0
   36.1500   27.3410   41.6590 H   0  0  0  0  0  0  0  0  0  0  0  0
   35.8830   28.9760   42.4000 H   0  0  0  0  0  0  0  0  0  0  0  0
   35.5960   28.0730   44.4670 H   0  0  0  0  0  0  0  0  0  0  0  0
   35.8810   26.4460   43.7790 H   0  0  0  0  0  0  0  0  0  0  0  0
   37.8240   28.4850   44.7480 H   0  0  0  0  0  0  0  0  0  0  0  0
   37.8320   26.8750   45.3080 H   0  0  0  0  0  0  0  0  0  0  0  0
   39.5910   27.5890   43.5470 H   0  0  0  0  0  0  0  0  0  0  0  0
   39.5030   25.7550   41.4350 C   0  0  0  0  0  0  0  0  0  0  0  0
   40.3870   26.6290   41.3330 O   0  0  0  0  0  0  0  0  0  0  0  0
   38.6130   26.0640   42.5360 N   0  0  0  0  0  0  0  0  0  0  0  0
   37.9330   25.3180   42.8810 H   0  0  0  0  0  0  0  0  0  0  0  0
   39.3350   24.5940   40.6200 C   0  0  0  0  0  0  0  0  0  0  0  0
   40.0080   24.3570   39.4390 C   0  0  0  0  0  0  0  0  0  0  0  0
   40.7150   25.0860   39.0830 H   0  0  0  0  0  0  0  0  0  0  0  0
   39.8150   23.2210   38.6810 C   0  0  0  0  0  3  0  0  0  0  0  0
   38.9180   22.2490   39.0870 C   0  0  0  0  0  0  0  0  0  0  0  0
   38.8220   21.3970   38.4490 H   0  0  0  0  0  0  0  0  0  0  0  0
   38.2430   22.4810   40.2680 C   0  0  0  0  0  0  0  0  0  0  0  0
   37.5500   21.6690   40.5280 H   0  0  0  0  0  0  0  0  0  0  0  0
   38.4520   23.6360   41.0200 C   0  0  0  0  0  3  0  0  0  0  0  0
   38.9370   34.5260   40.2360 C   0  0  0  0  0  0  0  0  0  0  0  0
   37.7180   34.5520   39.5720 F   0  0  0  0  0  0  0  0  0  0  0  0
   39.7320   35.4740   39.5640 F   0  0  0  0  0  0  0  0  0  0  0  0
   38.7480   34.8260   41.5460 F   0  0  0  0  0  0  0  0  0  0  0  0
  1  2  1  0  0  0  0
  1  9  1  0  0  0  0
  2 15  1  0  0  0  0
  3 38  1  0  0  0  0
  3  2  2  0  0  0  0
  4  3  1  0  0  0  0
  5  4  2  0  0  0  0
  5  6  1  0  0  0  0
  6  1  2  0  0  0  0
  7  9  1  0  0  0  0
  7 10  1  0  0  0  0
  8  7  2  0  0  0  0
  9 17  1  0  0  0  0
 10 11  1  0  0  0  0
 10 14  1  0  0  0  0
 11 12  1  0  0  0  0
 12 13  1  0  0  0  0
 12 20  1  0  0  0  0
 13 22  1  0  0  0  0
 13 23  1  0  0  0  0
 14 24  1  1  0  0  0
 14 13  1  0  0  0  0
 16  5  1  0  0  0  0
 18 11  1  0  0  0  0
 19 11  1  0  0  0  0
 21 12  1  0  0  0  0
 25 27  1  0  0  0  0
 26 25  2  0  0  0  0
 27 28  1  0  0  0  0
 27 14  1  0  0  0  0
 29 37  1  0  0  0  0
 29 25  1  0  0  0  0
 30 29  2  0  0  0  0
 31 30  1  0  0  0  0
 32 33  2  0  0  0  0
 32 30  1  0  0  0  0
 33 35  1  0  0  0  0
 34 33  1  0  0  0  0
 35 36  1  0  0  0  0
 35 37  2  0  0  0  0
 38 41  1  0  0  0  0
 39 38  1  0  0  0  0
 40 38  1  0  0  0  0
M  END
>  <minimizedAffinity>
-6.21578884

$$$$

 OpenBabel03252503333D

 41 43  0  0  1  0  0  0  0  0999 V2000
   40.1370   30.8420   39.8030 C   0  0  0  0  0  0  0  0  0  0  0  0
   40.3410   32.1150   40.4080 C   0  0  0  0  0  0  0  0  0  0  0  0
   40.4750   33.2060   39.5340 C   0  0  0  0  0  0  0  0  0  0  0  0
   40.4020   32.9680   38.2130 N   0  0  0  0  0  0  0  0  0  0  0  0
   40.2050   31.7370   37.6810 C   0  0  0  0  0  0  0  0  0  0  0  0
   40.0740   30.6690   38.4970 N   0  0  0  0  0  0  0  0  0  0  0  0
   38.7220   29.6360   41.2350 C   0  0  0  0  0  0  0  0  0  0  0  0
   37.9050   30.5980   41.0310 O   0  0  0  0  0  0  0  0  0  0  0  0
   39.9930   29.6770   40.6270 N   0  0  0  0  0  0  0  0  0  0  0  0
   38.2840   28.5810   42.0720 N   0  0  0  0  0  0  0  0  0  0  0  0
   37.0990   28.7760   42.9300 C   0  0  0  0  0  0  0  0  0  0  0  0
   37.4100   27.9040   44.1070 C   0  0  0  0  0  0  0  0  0  0  0  0
   38.7000   27.2100   43.7800 C   0  0  0  0  0  0  0  0  0  0  0  0
   38.7620   27.2460   42.2710 C   0  0  1  0  0  0  0  0  0  0  0  0
   40.3810   32.1660   41.4920 H   0  0  0  0  0  0  0  0  0  0  0  0
   40.1530   31.5910   36.6030 H   0  0  0  0  0  0  0  0  0  0  0  0
   40.6560   28.9060   40.8260 H   0  0  0  0  0  0  0  0  0  0  0  0
   36.1670   28.4960   42.4150 H   0  0  0  0  0  0  0  0  0  0  0  0
   37.0510   29.8160   43.2930 H   0  0  0  0  0  0  0  0  0  0  0  0
   37.4720   28.4550   45.0650 H   0  0  0  0  0  0  0  0  0  0  0  0
   36.6310   27.1200   44.2210 H   0  0  0  0  0  0  0  0  0  0  0  0
   39.4590   28.0320   44.0260 H   0  0  0  0  0  0  0  0  0  0  0  0
   39.0410   26.4130   44.3530 H   0  0  0  0  0  0  0  0  0  0  0  0
   39.7920   27.0430   41.9570 H   0  0  0  0  0  0  0  0  0  0  0  0
   37.8690   26.0870   40.1620 C   0  0  0  0  0  0  0  0  0  0  0  0
   38.8600   26.6240   39.6280 O   0  0  0  0  0  0  0  0  0  0  0  0
   37.8890   26.3000   41.5950 N   0  0  0  0  0  0  0  0  0  0  0  0
   37.2280   25.7370   42.2140 H   0  0  0  0  0  0  0  0  0  0  0  0
   36.8290   25.3520   39.5140 C   0  0  0  0  0  0  0  0  0  0  0  0
   36.2230   25.7230   38.3310 C   0  0  0  0  0  0  0  0  0  0  0  0
   36.5370   26.6280   37.8420 H   0  0  0  0  0  0  0  0  0  0  0  0
   35.2200   24.9840   37.7380 C   0  0  0  0  0  3  0  0  0  0  0  0
   34.7730   23.8110   38.3210 C   0  0  0  0  0  0  0  0  0  0  0  0
   33.9950   23.2920   37.8050 H   0  0  0  0  0  0  0  0  0  0  0  0
   35.3770   23.4350   39.5030 C   0  0  0  0  0  0  0  0  0  0  0  0
   34.9740   22.4970   39.9070 H   0  0  0  0  0  0  0  0  0  0  0  0
   36.3890   24.1970   40.0870 C   0  0  0  0  0  3  0  0  0  0  0  0
   40.6840   34.4970   40.1780 C   0  0  0  0  0  0  0  0  0  0  0  0
   41.1160   35.4080   39.2230 F   0  0  0  0  0  0  0  0  0  0  0  0
   41.7830   34.3360   41.0430 F   0  0  0  0  0  0  0  0  0  0  0  0
   39.5830   34.9840   40.8050 F   0  0  0  0  0  0  0  0  0  0  0  0
  1  2  1  0  0  0  0
  1  9  1  0  0  0  0
  2 15  1  0  0  0  0
  3 38  1  0  0  0  0
  3  2  2  0  0  0  0
  4  3  1  0  0  0  0
  5  4  2  0  0  0  0
  5  6  1  0  0  0  0
  6  1  2  0  0  0  0
  7 10  1  0  0  0  0
  8  7  2  0  0  0  0
  9 17  1  0  0  0  0
  9  7  1  0  0  0  0
 10 14  1  0  0  0  0
 10 11  1  0  0  0  0
 11 19  1  0  0  0  0
 11 12  1  0  0  0  0
 12 21  1  0  0  0  0
 12 20  1  0  0  0  0
 13 22  1  0  0  0  0
 13 12  1  0  0  0  0
 13 23  1  0  0  0  0
 14 24  1  6  0  0  0
 14 13  1  0  0  0  0
 16  5  1  0  0  0  0
 18 11  1  0  0  0  0
 25 27  1  0  0  0  0
 26 25  2  0  0  0  0
 27 28  1  0  0  0  0
 27 14  1  0  0  0  0
 29 37  1  0  0  0  0
 29 25  1  0  0  0  0
 30 29  2  0  0  0  0
 31 30  1  0  0  0  0
 32 33  2  0  0  0  0
 32 30  1  0  0  0  0
 33 35  1  0  0  0  0
 34 33  1  0  0  0  0
 35 36  1  0  0  0  0
 35 37  2  0  0  0  0
 38 41  1  0  0  0  0
 38 40  1  0  0  0  0
 39 38  1  0  0  0  0
M  END
>  <minimizedAffinity>
-6.14430857

$$$$

 OpenBabel03252503333D

 41 43  0  0  1  0  0  0  0  0999 V2000
   41.6000   31.8240   42.2540 C   0  0  0  0  0  0  0  0  0  0  0  0
   42.4510   32.8660   41.7860 C   0  0  0  0  0  0  0  0  0  0  0  0
   43.7680   32.8620   42.2760 C   0  0  0  0  0  0  0  0  0  0  0  0
   44.1160   31.8900   43.1370 N   0  0  0  0  0  0  0  0  0  0  0  0
   43.2710   30.9170   43.5540 C   0  0  0  0  0  0  0  0  0  0  0  0
   42.0000   30.8950   43.1000 N   0  0  0  0  0  0  0  0  0  0  0  0
   40.1650   31.2810   40.4780 C   0  0  0  0  0  0  0  0  0  0  0  0
   41.2470   31.0130   39.8520 O   0  0  0  0  0  0  0  0  0  0  0  0
   40.2400   31.7600   41.8010 N   0  0  0  0  0  0  0  0  0  0  0  0
   38.9480   31.0760   39.7830 N   0  0  0  0  0  0  0  0  0  0  0  0
   38.9650   30.9090   38.3170 C   0  0  0  0  0  0  0  0  0  0  0  0
   37.6440   31.4860   37.9140 C   0  0  0  0  0  0  0  0  0  0  0  0
   36.9420   31.8470   39.1910 C   0  0  0  0  0  0  0  0  0  0  0  0
   37.5910   30.9620   40.2280 C   0  0  1  0  0  0  0  0  0  0  0  0
   42.0400   33.5900   41.0890 H   0  0  0  0  0  0  0  0  0  0  0  0
   43.5970   30.1480   44.2540 H   0  0  0  0  0  0  0  0  0  0  0  0
   39.3570   32.0020   42.2850 H   0  0  0  0  0  0  0  0  0  0  0  0
   39.0860   29.8540   38.0240 H   0  0  0  0  0  0  0  0  0  0  0  0
   39.7510   31.5350   37.8650 H   0  0  0  0  0  0  0  0  0  0  0  0
   37.7270   32.3550   37.2320 H   0  0  0  0  0  0  0  0  0  0  0  0
   37.0270   30.7170   37.4030 H   0  0  0  0  0  0  0  0  0  0  0  0
   37.4460   32.8450   39.4440 H   0  0  0  0  0  0  0  0  0  0  0  0
   35.9340   32.1000   39.1970 H   0  0  0  0  0  0  0  0  0  0  0  0
   37.3670   31.3630   41.2230 H   0  0  0  0  0  0  0  0  0  0  0  0
   37.2140   28.6800   41.3420 C   0  0  0  0  0  0  0  0  0  0  0  0
   37.4040   29.3270   42.3900 O   0  0  0  0  0  0  0  0  0  0  0  0
   37.1740   29.5690   40.1980 N   0  0  0  0  0  0  0  0  0  0  0  0
   36.8200   29.1990   39.2630 H   0  0  0  0  0  0  0  0  0  0  0  0
   37.0490   27.2660   41.2150 C   0  0  0  0  0  0  0  0  0  0  0  0
   36.7600   26.6100   40.0360 C   0  0  0  0  0  0  0  0  0  0  0  0
   36.6430   27.1820   39.1330 H   0  0  0  0  0  0  0  0  0  0  0  0
   36.6090   25.2410   39.9580 C   0  0  0  0  0  3  0  0  0  0  0  0
   36.7470   24.4520   41.0870 C   0  0  0  0  0  0  0  0  0  0  0  0
   36.6170   23.4010   40.9490 H   0  0  0  0  0  0  0  0  0  0  0  0
   37.0380   25.1040   42.2680 C   0  0  0  0  0  0  0  0  0  0  0  0
   37.1340   24.4170   43.1200 H   0  0  0  0  0  0  0  0  0  0  0  0
   37.1860   26.4900   42.3260 C   0  0  0  0  0  3  0  0  0  0  0  0
   44.6180   33.9390   41.7830 C   0  0  0  0  0  0  0  0  0  0  0  0
   44.7200   34.9130   42.7680 F   0  0  0  0  0  0  0  0  0  0  0  0
   43.9080   34.5580   40.7380 F   0  0  0  0  0  0  0  0  0  0  0  0
   45.8600   33.5340   41.4150 F   0  0  0  0  0  0  0  0  0  0  0  0
  1  6  1  0  0  0  0
  2  1  2  0  0  0  0
  2  3  1  0  0  0  0
  3  4  2  0  0  0  0
  4  5  1  0  0  0  0
  5 16  1  0  0  0  0
  6  5  2  0  0  0  0
  7  9  1  0  0  0  0
  8  7  2  0  0  0  0
  9  1  1  0  0  0  0
  9 17  1  0  0  0  0
 10 14  1  0  0  0  0
 10  7  1  0  0  0  0
 11 10  1  0  0  0  0
 12 11  1  0  0  0  0
 12 13  1  0  0  0  0
 13 23  1  0  0  0  0
 13 22  1  0  0  0  0
 13 14  1  0  0  0  0
 14 24  1  1  0  0  0
 15  2  1  0  0  0  0
 18 11  1  0  0  0  0
 19 11  1  0  0  0  0
 20 12  1  0  0  0  0
 21 12  1  0  0  0  0
 25 26  2  0  0  0  0
 27 14  1  0  0  0  0
 27 25  1  0  0  0  0
 28 27  1  0  0  0  0
 29 25  1  0  0  0  0
 29 37  1  0  0  0  0
 30 29  2  0  0  0  0
 31 30  1  0  0  0  0
 32 30  1  0  0  0  0
 32 33  2  0  0  0  0
 33 35  1  0  0  0  0
 34 33  1  0  0  0  0
 35 37  2  0  0  0  0
 35 36  1  0  0  0  0
 38  3  1  0  0  0  0
 38 39  1  0  0  0  0
 40 38  1  0  0  0  0
 41 38  1  0  0  0  0
M  END
>  <minimizedAffinity>
-5.98320866

$$$$

 OpenBabel03252503333D

 41 43  0  0  1  0  0  0  0  0999 V2000
   39.4160   31.4400   41.0820 C   0  0  0  0  0  0  0  0  0  0  0  0
   39.4540   32.7700   40.5730 C   0  0  0  0  0  0  0  0  0  0  0  0
   40.6900   33.4330   40.6530 C   0  0  0  0  0  0  0  0  0  0  0  0
   41.7260   32.7700   41.1960 N   0  0  0  0  0  0  0  0  0  0  0  0
   41.6430   31.5030   41.6680 C   0  0  0  0  0  0  0  0  0  0  0  0
   40.4690   30.8410   41.6050 N   0  0  0  0  0  0  0  0  0  0  0  0
   37.9130   30.2460   39.7310 C   0  0  0  0  0  0  0  0  0  0  0  0
   38.7090   30.5630   38.7830 O   0  0  0  0  0  0  0  0  0  0  0  0
   38.1910   30.6960   41.0370 N   0  0  0  0  0  0  0  0  0  0  0  0
   36.7890   29.4530   39.3940 N   0  0  0  0  0  0  0  0  0  0  0  0
   36.3900   29.3180   37.9800 C   0  0  0  0  0  0  0  0  0  0  0  0
   34.9060   29.1480   38.0820 C   0  0  0  0  0  0  0  0  0  0  0  0
   34.5930   29.1040   39.5490 C   0  0  0  0  0  0  0  0  0  0  0  0
   35.8910   28.6680   40.1870 C   0  0  1  0  0  0  0  0  0  0  0  0
   38.5410   33.1860   40.1590 H   0  0  0  0  0  0  0  0  0  0  0  0
   42.5100   31.0040   42.1010 H   0  0  0  0  0  0  0  0  0  0  0  0
   37.5200   30.4580   41.7910 H   0  0  0  0  0  0  0  0  0  0  0  0
   36.8930   28.4700   37.4890 H   0  0  0  0  0  0  0  0  0  0  0  0
   36.5790   30.2570   37.4340 H   0  0  0  0  0  0  0  0  0  0  0  0
   34.3310   29.9400   37.5630 H   0  0  0  0  0  0  0  0  0  0  0  0
   34.6000   28.1730   37.6470 H   0  0  0  0  0  0  0  0  0  0  0  0
   34.6120   30.2190   39.8110 H   0  0  0  0  0  0  0  0  0  0  0  0
   33.6550   28.8110   39.8890 H   0  0  0  0  0  0  0  0  0  0  0  0
   35.8520   28.9000   41.2570 H   0  0  0  0  0  0  0  0  0  0  0  0
   37.1840   26.5500   40.8450 C   0  0  0  0  0  0  0  0  0  0  0  0
   37.5220   27.2420   41.8260 O   0  0  0  0  0  0  0  0  0  0  0  0
   36.2060   27.2560   40.0420 N   0  0  0  0  0  0  0  0  0  0  0  0
   35.6700   26.7240   39.2890 H   0  0  0  0  0  0  0  0  0  0  0  0
   37.6530   25.2450   40.5040 C   0  0  0  0  0  0  0  0  0  0  0  0
   38.8030   24.9830   39.7870 C   0  0  0  0  0  0  0  0  0  0  0  0
   39.4080   25.8060   39.4480 H   0  0  0  0  0  0  0  0  0  0  0  0
   39.2200   23.7050   39.4790 C   0  0  0  0  0  3  0  0  0  0  0  0
   38.4840   22.6070   39.8880 C   0  0  0  0  0  0  0  0  0  0  0  0
   38.8690   21.6500   39.6130 H   0  0  0  0  0  0  0  0  0  0  0  0
   37.3330   22.8630   40.6060 C   0  0  0  0  0  0  0  0  0  0  0  0
   36.8010   21.9470   40.8970 H   0  0  0  0  0  0  0  0  0  0  0  0
   36.9280   24.1630   40.9070 C   0  0  0  0  0  3  0  0  0  0  0  0
   40.7020   34.7920   40.1260 C   0  0  0  0  0  0  0  0  0  0  0  0
   41.1250   34.7530   38.8030 F   0  0  0  0  0  0  0  0  0  0  0  0
   41.7260   35.4740   40.8100 F   0  0  0  0  0  0  0  0  0  0  0  0
   39.5020   35.4210   40.2010 F   0  0  0  0  0  0  0  0  0  0  0  0
  1  6  1  0  0  0  0
  2  3  1  0  0  0  0
  2  1  2  0  0  0  0
  3  4  2  0  0  0  0
  4  5  1  0  0  0  0
  5 16  1  0  0  0  0
  6  5  2  0  0  0  0
  7  9  1  0  0  0  0
  8  7  2  0  0  0  0
  9  1  1  0  0  0  0
  9 17  1  0  0  0  0
 10  7  1  0  0  0  0
 10 14  1  0  0  0  0
 11 12  1  0  0  0  0
 11 10  1  0  0  0  0
 12 13  1  0  0  0  0
 13 22  1  0  0  0  0
 13 23  1  0  0  0  0
 13 14  1  0  0  0  0
 14 24  1  1  0  0  0
 15  2  1  0  0  0  0
 18 11  1  0  0  0  0
 19 11  1  0  0  0  0
 20 12  1  0  0  0  0
 21 12  1  0  0  0  0
 25 26  2  0  0  0  0
 27 14  1  0  0  0  0
 27 25  1  0  0  0  0
 28 27  1  0  0  0  0
 29 25  1  0  0  0  0
 29 37  1  0  0  0  0
 30 29  2  0  0  0  0
 31 30  1  0  0  0  0
 32 30  1  0  0  0  0
 32 33  2  0  0  0  0
 33 35  1  0  0  0  0
 34 33  1  0  0  0  0
 35 36  1  0  0  0  0
 35 37  2  0  0  0  0
 38 41  1  0  0  0  0
 38  3  1  0  0  0  0
 38 40  1  0  0  0  0
 39 38  1  0  0  0  0
M  END
>  <minimizedAffinity>
-5.94667768

$$$$

 OpenBabel03252503333D

 41 43  0  0  1  0  0  0  0  0999 V2000
   39.4050   27.2960   40.5580 C   0  0  0  0  0  0  0  0  0  0  0  0
   38.2420   26.4740   40.5910 C   0  0  0  0  0  0  0  0  0  0  0  0
   38.3400   25.2860   41.3350 C   0  0  0  0  0  0  0  0  0  0  0  0
   39.5060   25.0220   41.9490 N   0  0  0  0  0  0  0  0  0  0  0  0
   40.5880   25.8360   41.8910 C   0  0  0  0  0  0  0  0  0  0  0  0
   40.5240   26.9840   41.1840 N   0  0  0  0  0  0  0  0  0  0  0  0
   38.6530   29.5190   40.4990 C   0  0  0  0  0  0  0  0  0  0  0  0
   38.0880   29.2250   41.6070 O   0  0  0  0  0  0  0  0  0  0  0  0
   39.3860   28.5260   39.8190 N   0  0  0  0  0  0  0  0  0  0  0  0
   38.4980   30.8450   40.0250 N   0  0  0  0  0  0  0  0  0  0  0  0
   37.4510   31.7080   40.6050 C   0  0  0  0  0  0  0  0  0  0  0  0
   37.0850   32.5860   39.4490 C   0  0  0  0  0  0  0  0  0  0  0  0
   38.0190   32.2170   38.3340 C   0  0  0  0  0  0  0  0  0  0  0  0
   39.2070   31.6050   39.0400 C   0  0  1  0  0  0  0  0  0  0  0  0
   37.3640   26.8070   40.0480 H   0  0  0  0  0  0  0  0  0  0  0  0
   41.5140   25.5820   42.4050 H   0  0  0  0  0  0  0  0  0  0  0  0
   39.8130   28.7690   38.9070 H   0  0  0  0  0  0  0  0  0  0  0  0
   37.8170   32.2690   41.4790 H   0  0  0  0  0  0  0  0  0  0  0  0
   36.5590   31.1140   40.8640 H   0  0  0  0  0  0  0  0  0  0  0  0
   36.0250   32.4980   39.1420 H   0  0  0  0  0  0  0  0  0  0  0  0
   37.2730   33.6510   39.7010 H   0  0  0  0  0  0  0  0  0  0  0  0
   37.5190   31.2660   37.9350 H   0  0  0  0  0  0  0  0  0  0  0  0
   38.0950   32.8030   37.4800 H   0  0  0  0  0  0  0  0  0  0  0  0
   39.7940   31.0360   38.3110 H   0  0  0  0  0  0  0  0  0  0  0  0
   41.4880   32.3000   39.9920 C   0  0  0  0  0  0  0  0  0  0  0  0
   41.8790   31.2760   39.3980 O   0  0  0  0  0  0  0  0  0  0  0  0
   40.0940   32.5570   39.6910 N   0  0  0  0  0  0  0  0  0  0  0  0
   39.6690   33.4980   39.9560 H   0  0  0  0  0  0  0  0  0  0  0  0
   42.2490   33.1430   40.8590 C   0  0  0  0  0  0  0  0  0  0  0  0
   43.1920   32.6970   41.7630 C   0  0  0  0  0  0  0  0  0  0  0  0
   43.3850   31.6420   41.8410 H   0  0  0  0  0  0  0  0  0  0  0  0
   43.9060   33.5470   42.5820 C   0  0  0  0  0  3  0  0  0  0  0  0
   43.7010   34.9150   42.5260 C   0  0  0  0  0  0  0  0  0  0  0  0
   44.2900   35.5090   43.1890 H   0  0  0  0  0  0  0  0  0  0  0  0
   42.7590   35.3650   41.6230 C   0  0  0  0  0  0  0  0  0  0  0  0
   42.6500   36.4580   41.6330 H   0  0  0  0  0  0  0  0  0  0  0  0
   42.0470   34.4900   40.8040 C   0  0  0  0  0  3  0  0  0  0  0  0
   37.1380   24.4620   41.3510 C   0  0  0  0  0  0  0  0  0  0  0  0
   36.4760   24.6620   42.5560 F   0  0  0  0  0  0  0  0  0  0  0  0
   37.5740   23.1250   41.3990 F   0  0  0  0  0  0  0  0  0  0  0  0
   36.2890   24.7070   40.3210 F   0  0  0  0  0  0  0  0  0  0  0  0
  1  2  2  0  0  0  0
  1  6  1  0  0  0  0
  2  3  1  0  0  0  0
  3 38  1  0  0  0  0
  3  4  2  0  0  0  0
  5  4  1  0  0  0  0
  5 16  1  0  0  0  0
  6  5  2  0  0  0  0
  7  8  2  0  0  0  0
  9  7  1  0  0  0  0
  9  1  1  0  0  0  0
 10  7  1  0  0  0  0
 10 11  1  0  0  0  0
 11 19  1  0  0  0  0
 11 18  1  0  0  0  0
 12 21  1  0  0  0  0
 12 11  1  0  0  0  0
 13 14  1  0  0  0  0
 13 12  1  0  0  0  0
 14 24  1  6  0  0  0
 14 27  1  0  0  0  0
 14 10  1  0  0  0  0
 15  2  1  0  0  0  0
 17  9  1  0  0  0  0
 20 12  1  0  0  0  0
 22 13  1  0  0  0  0
 23 13  1  0  0  0  0
 25 29  1  0  0  0  0
 26 25  2  0  0  0  0
 27 28  1  0  0  0  0
 27 25  1  0  0  0  0
 29 30  1  0  0  0  0
 30 31  1  0  0  0  0
 30 32  2  0  0  0  0
 33 32  1  0  0  0  0
 33 34  1  0  0  0  0
 35 36  1  0  0  0  0
 35 33  2  0  0  0  0
 37 29  2  0  0  0  0
 37 35  1  0  0  0  0
 38 40  1  0  0  0  0
 38 39  1  0  0  0  0
 41 38  1  0  0  0  0
M  END
>  <minimizedAffinity>
-5.91039467

$$$$

 OpenBabel03252503333D

 41 43  0  0  1  0  0  0  0  0999 V2000
   38.6180   27.1340   39.5050 C   0  0  0  0  0  0  0  0  0  0  0  0
   37.7200   26.5650   40.4530 C   0  0  0  0  0  0  0  0  0  0  0  0
   38.0680   25.3010   40.9600 C   0  0  0  0  0  0  0  0  0  0  0  0
   39.2040   24.7360   40.5180 N   0  0  0  0  0  0  0  0  0  0  0  0
   40.0290   25.3160   39.6130 C   0  0  0  0  0  0  0  0  0  0  0  0
   39.7210   26.5300   39.1080 N   0  0  0  0  0  0  0  0  0  0  0  0
   38.5910   29.4530   39.8630 C   0  0  0  0  0  0  0  0  0  0  0  0
   38.9860   29.1490   41.0400 O   0  0  0  0  0  0  0  0  0  0  0  0
   38.3330   28.4210   38.9400 N   0  0  0  0  0  0  0  0  0  0  0  0
   38.4370   30.8300   39.5680 N   0  0  0  0  0  0  0  0  0  0  0  0
   38.3930   31.8110   40.6700 C   0  0  0  0  0  0  0  0  0  0  0  0
   37.5010   32.8770   40.1130 C   0  0  0  0  0  0  0  0  0  0  0  0
   37.1880   32.4620   38.7050 C   0  0  0  0  0  0  0  0  0  0  0  0
   38.3280   31.5440   38.3320 C   0  0  1  0  0  0  0  0  0  0  0  0
   36.8340   27.1310   40.7250 H   0  0  0  0  0  0  0  0  0  0  0  0
   40.9410   24.8210   39.2820 H   0  0  0  0  0  0  0  0  0  0  0  0
   37.9830   28.6800   37.9990 H   0  0  0  0  0  0  0  0  0  0  0  0
   39.3970   32.1780   40.9350 H   0  0  0  0  0  0  0  0  0  0  0  0
   37.8860   31.3820   41.5500 H   0  0  0  0  0  0  0  0  0  0  0  0
   36.5810   33.0420   40.7060 H   0  0  0  0  0  0  0  0  0  0  0  0
   38.0440   33.8440   40.0610 H   0  0  0  0  0  0  0  0  0  0  0  0
   36.3640   31.6860   38.8830 H   0  0  0  0  0  0  0  0  0  0  0  0
   36.7340   33.1190   38.0390 H   0  0  0  0  0  0  0  0  0  0  0  0
   38.0360   30.9590   37.4520 H   0  0  0  0  0  0  0  0  0  0  0  0
   40.7920   31.5310   37.6090 C   0  0  0  0  0  0  0  0  0  0  0  0
   40.5380   30.3520   37.2950 O   0  0  0  0  0  0  0  0  0  0  0  0
   39.5850   32.2120   38.0320 N   0  0  0  0  0  0  0  0  0  0  0  0
   39.5960   33.2730   38.1380 H   0  0  0  0  0  0  0  0  0  0  0  0
   42.0640   32.1800   37.5800 C   0  0  0  0  0  0  0  0  0  0  0  0
   43.2650   31.5470   37.3320 C   0  0  0  0  0  0  0  0  0  0  0  0
   43.2710   30.4880   37.1450 H   0  0  0  0  0  0  0  0  0  0  0  0
   44.4740   32.2130   37.3130 C   0  0  0  0  0  3  0  0  0  0  0  0
   44.5290   33.5760   37.5460 C   0  0  0  0  0  0  0  0  0  0  0  0
   45.4990   34.0220   37.5150 H   0  0  0  0  0  0  0  0  0  0  0  0
   43.3310   34.2130   37.7940 C   0  0  0  0  0  0  0  0  0  0  0  0
   43.4510   35.2910   37.9700 H   0  0  0  0  0  0  0  0  0  0  0  0
   42.1200   33.5220   37.8100 C   0  0  0  0  0  3  0  0  0  0  0  0
   37.1330   24.7410   41.9280 C   0  0  0  0  0  0  0  0  0  0  0  0
   36.6470   25.7690   42.7260 F   0  0  0  0  0  0  0  0  0  0  0  0
   37.8950   23.9400   42.7990 F   0  0  0  0  0  0  0  0  0  0  0  0
   36.0940   24.0730   41.3650 F   0  0  0  0  0  0  0  0  0  0  0  0
  1  2  1  0  0  0  0
  2 15  1  0  0  0  0
  2  3  2  0  0  0  0
  3 38  1  0  0  0  0
  4  3  1  0  0  0  0
  5  4  2  0  0  0  0
  6  1  2  0  0  0  0
  6  5  1  0  0  0  0
  7  8  2  0  0  0  0
  9  1  1  0  0  0  0
  9  7  1  0  0  0  0
 10  7  1  0  0  0  0
 10 11  1  0  0  0  0
 11 18  1  0  0  0  0
 11 19  1  0  0  0  0
 12 11  1  0  0  0  0
 12 20  1  0  0  0  0
 13 22  1  0  0  0  0
 13 12  1  0  0  0  0
 14 24  1  6  0  0  0
 14 13  1  0  0  0  0
 14 10  1  0  0  0  0
 16  5  1  0  0  0  0
 17  9  1  0  0  0  0
 21 12  1  0  0  0  0
 23 13  1  0  0  0  0
 25 27  1  0  0  0  0
 26 25  2  0  0  0  0
 27 28  1  0  0  0  0
 27 14  1  0  0  0  0
 29 25  1  0  0  0  0
 29 37  1  0  0  0  0
 30 29  2  0  0  0  0
 31 30  1  0  0  0  0
 32 30  1  0  0  0  0
 32 33  2  0  0  0  0
 33 35  1  0  0  0  0
 34 33  1  0  0  0  0
 35 37  2  0  0  0  0
 35 36  1  0  0  0  0
 38 39  1  0  0  0  0
 38 40  1  0  0  0  0
 41 38  1  0  0  0  0
M  END
>  <minimizedAffinity>
-5.9100399

$$$$

 OpenBabel03252503333D

 41 43  0  0  1  0  0  0  0  0999 V2000
   42.2380   31.8040   40.4650 C   0  0  0  0  0  0  0  0  0  0  0  0
   42.5740   32.8330   39.5390 C   0  0  0  0  0  0  0  0  0  0  0  0
   43.9300   32.9340   39.1850 C   0  0  0  0  0  0  0  0  0  0  0  0
   44.7920   32.0640   39.7390 N   0  0  0  0  0  0  0  0  0  0  0  0
   44.4260   31.0990   40.6170 C   0  0  0  0  0  0  0  0  0  0  0  0
   43.1300   30.9780   40.9760 N   0  0  0  0  0  0  0  0  0  0  0  0
   40.1040   31.0310   39.8630 C   0  0  0  0  0  0  0  0  0  0  0  0
   40.6580   30.7530   38.7460 O   0  0  0  0  0  0  0  0  0  0  0  0
   40.8740   31.6360   40.8770 N   0  0  0  0  0  0  0  0  0  0  0  0
   38.7330   30.7070   40.0040 N   0  0  0  0  0  0  0  0  0  0  0  0
   37.9290   30.4020   38.8050 C   0  0  0  0  0  0  0  0  0  0  0  0
   36.5670   30.8800   39.2030 C   0  0  0  0  0  0  0  0  0  0  0  0
   36.6860   31.3290   40.6300 C   0  0  0  0  0  0  0  0  0  0  0  0
   37.8860   30.5760   41.1520 C   0  0  1  0  0  0  0  0  0  0  0  0
   41.7760   33.4680   39.1670 H   0  0  0  0  0  0  0  0  0  0  0  0
   45.1590   30.4150   41.0420 H   0  0  0  0  0  0  0  0  0  0  0  0
   40.4050   31.8840   41.7670 H   0  0  0  0  0  0  0  0  0  0  0  0
   37.9580   29.3310   38.5510 H   0  0  0  0  0  0  0  0  0  0  0  0
   38.2590   31.0170   37.9510 H   0  0  0  0  0  0  0  0  0  0  0  0
   36.1700   31.6820   38.5510 H   0  0  0  0  0  0  0  0  0  0  0  0
   35.8430   30.0390   39.1790 H   0  0  0  0  0  0  0  0  0  0  0  0
   37.1510   32.3680   40.4950 H   0  0  0  0  0  0  0  0  0  0  0  0
   35.8410   31.5370   41.1990 H   0  0  0  0  0  0  0  0  0  0  0  0
   38.2320   31.0600   42.0730 H   0  0  0  0  0  0  0  0  0  0  0  0
   38.5070   28.3570   42.2840 C   0  0  0  0  0  0  0  0  0  0  0  0
   39.3010   29.0770   42.9210 O   0  0  0  0  0  0  0  0  0  0  0  0
   37.6540   29.1690   41.4400 N   0  0  0  0  0  0  0  0  0  0  0  0
   36.7950   28.7280   40.9900 H   0  0  0  0  0  0  0  0  0  0  0  0
   38.4000   26.9330   42.3320 C   0  0  0  0  0  0  0  0  0  0  0  0
   39.4230   26.0780   42.6860 C   0  0  0  0  0  0  0  0  0  0  0  0
   40.3820   26.4890   42.9500 H   0  0  0  0  0  0  0  0  0  0  0  0
   39.2770   24.7060   42.7190 C   0  0  0  0  0  3  0  0  0  0  0  0
   38.0670   24.1200   42.3910 C   0  0  0  0  0  0  0  0  0  0  0  0
   38.0290   23.0540   42.4400 H   0  0  0  0  0  0  0  0  0  0  0  0
   37.0410   24.9710   42.0360 C   0  0  0  0  0  0  0  0  0  0  0  0
   36.1120   24.4380   41.7900 H   0  0  0  0  0  0  0  0  0  0  0  0
   37.2090   26.3550   42.0090 C   0  0  0  0  0  3  0  0  0  0  0  0
   44.2480   33.9950   38.2380 C   0  0  0  0  0  0  0  0  0  0  0  0
   44.7600   33.4220   37.0820 F   0  0  0  0  0  0  0  0  0  0  0  0
   45.3250   34.7120   38.7920 F   0  0  0  0  0  0  0  0  0  0  0  0
   43.1900   34.7860   37.9230 F   0  0  0  0  0  0  0  0  0  0  0  0
  1  9  1  0  0  0  0
  1  6  1  0  0  0  0
  2  1  2  0  0  0  0
  3  2  1  0  0  0  0
  3  4  2  0  0  0  0
  4  5  1  0  0  0  0
  5  6  2  0  0  0  0
  5 16  1  0  0  0  0
  7 10  1  0  0  0  0
  7  9  1  0  0  0  0
  8  7  2  0  0  0  0
  9 17  1  0  0  0  0
 10 14  1  0  0  0  0
 11 12  1  0  0  0  0
 11 10  1  0  0  0  0
 12 13  1  0  0  0  0
 13 14  1  0  0  0  0
 13 23  1  0  0  0  0
 14 27  1  0  0  0  0
 14 24  1  1  0  0  0
 15  2  1  0  0  0  0
 18 11  1  0  0  0  0
 19 11  1  0  0  0  0
 20 12  1  0  0  0  0
 21 12  1  0  0  0  0
 22 13  1  0  0  0  0
 25 29  1  0  0  0  0
 25 26  2  0  0  0  0
 27 25  1  0  0  0  0
 28 27  1  0  0  0  0
 29 30  1  0  0  0  0
 30 32  2  0  0  0  0
 30 31  1  0  0  0  0
 33 34  1  0  0  0  0
 33 32  1  0  0  0  0
 35 33  2  0  0  0  0
 36 35  1  0  0  0  0
 37 35  1  0  0  0  0
 37 29  2  0  0  0  0
 38 40  1  0  0  0  0
 38  3  1  0  0  0  0
 39 38  1  0  0  0  0
 41 38  1  0  0  0  0
M  END
>  <minimizedAffinity>
-5.89587641

$$$$

 OpenBabel03252503333D

 41 43  0  0  1  0  0  0  0  0999 V2000
   38.9460   29.2960   40.7060 C   0  0  0  0  0  0  0  0  0  0  0  0
   38.3570   29.2000   41.9990 C   0  0  0  0  0  0  0  0  0  0  0  0
   37.9030   27.9270   42.3840 C   0  0  0  0  0  0  0  0  0  0  0  0
   38.0570   26.9140   41.5140 N   0  0  0  0  0  0  0  0  0  0  0  0
   38.6260   27.0520   40.2920 C   0  0  0  0  0  0  0  0  0  0  0  0
   39.0710   28.2630   39.8950 N   0  0  0  0  0  0  0  0  0  0  0  0
   40.6500   30.9020   40.8620 C   0  0  0  0  0  0  0  0  0  0  0  0
   41.1350   30.1170   41.7470 O   0  0  0  0  0  0  0  0  0  0  0  0
   39.4340   30.5610   40.2390 N   0  0  0  0  0  0  0  0  0  0  0  0
   41.3840   32.0770   40.5680 N   0  0  0  0  0  0  0  0  0  0  0  0
   42.4440   32.5250   41.4910 C   0  0  0  0  0  0  0  0  0  0  0  0
   42.4060   34.0120   41.3260 C   0  0  0  0  0  0  0  0  0  0  0  0
   41.3930   34.2840   40.2520 C   0  0  0  0  0  0  0  0  0  0  0  0
   41.3350   32.9940   39.4690 C   0  0  1  0  0  0  0  0  0  0  0  0
   38.2950   30.1000   42.6020 H   0  0  0  0  0  0  0  0  0  0  0  0
   38.7300   26.2020   39.6190 H   0  0  0  0  0  0  0  0  0  0  0  0
   39.0370   31.2210   39.5460 H   0  0  0  0  0  0  0  0  0  0  0  0
   43.4220   32.0840   41.2400 H   0  0  0  0  0  0  0  0  0  0  0  0
   42.1690   32.3010   42.5350 H   0  0  0  0  0  0  0  0  0  0  0  0
   42.1690   34.5580   42.2600 H   0  0  0  0  0  0  0  0  0  0  0  0
   43.3850   34.3840   40.9590 H   0  0  0  0  0  0  0  0  0  0  0  0
   40.4160   34.1960   40.8440 H   0  0  0  0  0  0  0  0  0  0  0  0
   41.3070   35.2260   39.8200 H   0  0  0  0  0  0  0  0  0  0  0  0
   40.4190   32.9880   38.8670 H   0  0  0  0  0  0  0  0  0  0  0  0
   42.3930   31.9820   37.3590 C   0  0  0  0  0  0  0  0  0  0  0  0
   41.2050   31.7610   37.0510 O   0  0  0  0  0  0  0  0  0  0  0  0
   42.4620   32.7620   38.5790 N   0  0  0  0  0  0  0  0  0  0  0  0
   43.3900   33.2030   38.8620 H   0  0  0  0  0  0  0  0  0  0  0  0
   43.5620   31.5590   36.6570 C   0  0  0  0  0  0  0  0  0  0  0  0
   43.6040   30.5150   35.7540 C   0  0  0  0  0  0  0  0  0  0  0  0
   42.7040   29.9640   35.5480 H   0  0  0  0  0  0  0  0  0  0  0  0
   44.7570   30.1390   35.0970 C   0  0  0  0  0  3  0  0  0  0  0  0
   45.9460   30.8110   35.3210 C   0  0  0  0  0  0  0  0  0  0  0  0
   46.7960   30.4630   34.7760 H   0  0  0  0  0  0  0  0  0  0  0  0
   45.9090   31.8550   36.2220 C   0  0  0  0  0  0  0  0  0  0  0  0
   46.8860   32.3410   36.3500 H   0  0  0  0  0  0  0  0  0  0  0  0
   44.7330   32.2200   36.8770 C   0  0  0  0  0  3  0  0  0  0  0  0
   37.3030   27.8560   43.7110 C   0  0  0  0  0  0  0  0  0  0  0  0
   37.2410   29.1380   44.2410 F   0  0  0  0  0  0  0  0  0  0  0  0
   38.2260   27.1740   44.5270 F   0  0  0  0  0  0  0  0  0  0  0  0
   36.0670   27.2960   43.7260 F   0  0  0  0  0  0  0  0  0  0  0  0
  1  2  1  0  0  0  0
  2  3  2  0  0  0  0
  2 15  1  0  0  0  0
  3 38  1  0  0  0  0
  4  3  1  0  0  0  0
  5  4  2  0  0  0  0
  6  5  1  0  0  0  0
  6  1  2  0  0  0  0
  7  8  2  0  0  0  0
  9  1  1  0  0  0  0
  9  7  1  0  0  0  0
 10  7  1  0  0  0  0
 10 11  1  0  0  0  0
 11 19  1  0  0  0  0
 12 11  1  0  0  0  0
 12 20  1  0  0  0  0
 13 22  1  0  0  0  0
 13 12  1  0  0  0  0
 14 24  1  6  0  0  0
 14 13  1  0  0  0  0
 14 10  1  0  0  0  0
 16  5  1  0  0  0  0
 17  9  1  0  0  0  0
 18 11  1  0  0  0  0
 21 12  1  0  0  0  0
 23 13  1  0  0  0  0
 25 27  1  0  0  0  0
 26 25  2  0  0  0  0
 27 28  1  0  0  0  0
 27 14  1  0  0  0  0
 29 37  1  0  0  0  0
 29 25  1  0  0  0  0
 30 29  2  0  0  0  0
 31 30  1  0  0  0  0
 32 33  2  0  0  0  0
 32 30  1  0  0  0  0
 33 35  1  0  0  0  0
 34 33  1  0  0  0  0
 35 36  1  0  0  0  0
 35 37  2  0  0  0  0
 38 41  1  0  0  0  0
 38 39  1  0  0  0  0
 38 40  1  0  0  0  0
M  END
>  <minimizedAffinity>
-5.87328672

$$$$

 OpenBabel03252503333D

 41 43  0  0  1  0  0  0  0  0999 V2000
   40.9250   31.8260   39.6860 C   0  0  0  0  0  0  0  0  0  0  0  0
   41.6420   32.4620   40.7400 C   0  0  0  0  0  0  0  0  0  0  0  0
   42.2270   33.7020   40.4360 C   0  0  0  0  0  0  0  0  0  0  0  0
   42.0660   34.1860   39.1920 N   0  0  0  0  0  0  0  0  0  0  0  0
   41.3730   33.5450   38.2200 C   0  0  0  0  0  0  0  0  0  0  0  0
   40.8010   32.3510   38.4830 N   0  0  0  0  0  0  0  0  0  0  0  0
   39.1270   30.6950   40.6860 C   0  0  0  0  0  0  0  0  0  0  0  0
   38.7910   31.8570   41.1000 O   0  0  0  0  0  0  0  0  0  0  0  0
   40.3000   30.5550   39.9180 N   0  0  0  0  0  0  0  0  0  0  0  0
   38.2820   29.6140   41.0360 N   0  0  0  0  0  0  0  0  0  0  0  0
   37.2850   29.7860   42.1100 C   0  0  0  0  0  0  0  0  0  0  0  0
   37.1950   28.4070   42.6860 C   0  0  0  0  0  0  0  0  0  0  0  0
   38.0750   27.5420   41.8320 C   0  0  0  0  0  0  0  0  0  0  0  0
   38.1540   28.2840   40.5190 C   0  0  1  0  0  0  0  0  0  0  0  0
   41.6950   31.9590   41.7010 H   0  0  0  0  0  0  0  0  0  0  0  0
   41.2680   33.9740   37.2240 H   0  0  0  0  0  0  0  0  0  0  0  0
   40.5770   29.6040   39.6140 H   0  0  0  0  0  0  0  0  0  0  0  0
   36.3240   30.1600   41.7240 H   0  0  0  0  0  0  0  0  0  0  0  0
   37.6770   30.4490   42.8990 H   0  0  0  0  0  0  0  0  0  0  0  0
   37.4790   28.3520   43.7550 H   0  0  0  0  0  0  0  0  0  0  0  0
   36.1590   28.0190   42.5950 H   0  0  0  0  0  0  0  0  0  0  0  0
   39.1090   27.7920   42.2600 H   0  0  0  0  0  0  0  0  0  0  0  0
   38.0470   26.5060   41.9100 H   0  0  0  0  0  0  0  0  0  0  0  0
   39.0050   27.8970   39.9470 H   0  0  0  0  0  0  0  0  0  0  0  0
   36.8750   28.7030   38.3330 C   0  0  0  0  0  0  0  0  0  0  0  0
   38.0070   29.0010   37.9030 O   0  0  0  0  0  0  0  0  0  0  0  0
   36.9670   28.1880   39.6840 N   0  0  0  0  0  0  0  0  0  0  0  0
   36.1210   27.7030   40.1150 H   0  0  0  0  0  0  0  0  0  0  0  0
   35.6280   28.8260   37.6460 C   0  0  0  0  0  0  0  0  0  0  0  0
   34.3900   28.8180   38.2560 C   0  0  0  0  0  0  0  0  0  0  0  0
   34.3320   28.7120   39.3240 H   0  0  0  0  0  0  0  0  0  0  0  0
   33.2080   28.9400   37.5540 C   0  0  0  0  0  3  0  0  0  0  0  0
   33.2190   29.0800   36.1770 C   0  0  0  0  0  0  0  0  0  0  0  0
   32.2670   29.1690   35.7030 H   0  0  0  0  0  0  0  0  0  0  0  0
   34.4550   29.0890   35.5640 C   0  0  0  0  0  0  0  0  0  0  0  0
   34.3880   29.2030   34.4730 H   0  0  0  0  0  0  0  0  0  0  0  0
   35.6380   28.9640   36.2910 C   0  0  0  0  0  3  0  0  0  0  0  0
   42.9560   34.3320   41.5300 C   0  0  0  0  0  0  0  0  0  0  0  0
   44.2500   34.6020   41.1060 F   0  0  0  0  0  0  0  0  0  0  0  0
   43.1030   33.3480   42.5260 F   0  0  0  0  0  0  0  0  0  0  0  0
   42.3810   35.4720   41.9900 F   0  0  0  0  0  0  0  0  0  0  0  0
  1  9  1  0  0  0  0
  1  2  1  0  0  0  0
  2 15  1  0  0  0  0
  3  2  2  0  0  0  0
  3 38  1  0  0  0  0
  4  3  1  0  0  0  0
  5  6  1  0  0  0  0
  5  4  2  0  0  0  0
  6  1  2  0  0  0  0
  7 10  1  0  0  0  0
  7  8  2  0  0  0  0
  9  7  1  0  0  0  0
 10 11  1  0  0  0  0
 11 12  1  0  0  0  0
 11 19  1  0  0  0  0
 12 20  1  0  0  0  0
 13 23  1  0  0  0  0
 13 22  1  0  0  0  0
 13 12  1  0  0  0  0
 14 24  1  6  0  0  0
 14 10  1  0  0  0  0
 14 13  1  0  0  0  0
 16  5  1  0  0  0  0
 17  9  1  0  0  0  0
 18 11  1  0  0  0  0
 21 12  1  0  0  0  0
 25 27  1  0  0  0  0
 26 25  2  0  0  0  0
 27 28  1  0  0  0  0
 27 14  1  0  0  0  0
 29 30  1  0  0  0  0
 29 25  1  0  0  0  0
 30 31  1  0  0  0  0
 32 30  2  0  0  0  0
 33 32  1  0  0  0  0
 34 33  1  0  0  0  0
 35 33  2  0  0  0  0
 35 37  1  0  0  0  0
 36 35  1  0  0  0  0
 37 29  2  0  0  0  0
 38 41  1  0  0  0  0
 38 40  1  0  0  0  0
 39 38  1  0  0  0  0
M  END
>  <minimizedAffinity>
-5.83422565

$$$$
