
 OpenBabel03242520193D

 35 37  0  0  0  0  0  0  0  0999 V2000
   40.9430   35.8200   39.3910 C   0  0  0  0  0  0  0  0  0  0  0  0
   41.1530   36.8920   39.3650 H   0  0  0  0  0  0  0  0  0  0  0  0
   40.7240   35.4560   38.3490 H   0  0  0  0  0  0  0  0  0  0  0  0
   43.8940   34.6970   41.4700 C   0  0  0  0  0  0  0  0  0  0  0  0
   42.7300   35.3930   41.0760 C   0  0  0  0  0  0  0  0  0  0  0  0
   42.1680   35.1180   39.8390 C   0  0  0  0  0  0  0  0  0  0  0  0
   42.7860   34.1750   39.0640 N   0  0  0  0  0  0  0  0  0  0  0  0
   43.9130   33.5280   39.4910 C   0  0  0  0  0  0  0  0  0  0  0  0
   44.4550   33.7880   40.6770 N   0  0  0  0  0  0  0  0  0  0  0  0
   42.3000   36.1290   41.7500 H   0  0  0  0  0  0  0  0  0  0  0  0
   44.3750   32.7860   38.8480 H   0  0  0  0  0  0  0  0  0  0  0  0
   44.4980   35.0010   42.7910 C   0  0  0  0  0  0  0  0  0  0  0  0
   46.0290   35.3220   42.6790 C   0  0  0  0  0  0  0  0  0  0  0  0
   45.0170   36.2600   43.1810 C   0  0  0  0  0  0  0  0  0  0  0  0
   44.2780   34.2080   43.5610 H   0  0  0  0  0  0  0  0  0  0  0  0
   46.6720   34.7240   43.3430 H   0  0  0  0  0  0  0  0  0  0  0  0
   46.4450   35.4310   41.6660 H   0  0  0  0  0  0  0  0  0  0  0  0
   44.8920   37.2120   42.6210 H   0  0  0  0  0  0  0  0  0  0  0  0
   45.0450   36.4850   44.2890 H   0  0  0  0  0  0  0  0  0  0  0  0
   39.7680   35.4520   40.2740 C   0  0  0  0  0  0  0  0  0  0  0  0
   39.0390   36.3040   40.1530 H   0  0  0  0  0  0  0  0  0  0  0  0
   40.0860   35.4280   41.3180 H   0  0  0  0  0  0  0  0  0  0  0  0
   39.1710   33.1320   40.7150 C   0  0  0  0  0  0  0  0  0  0  0  0
   39.7270   33.1040   41.8500 O   0  0  0  0  0  0  0  0  0  0  0  0
   39.1020   34.2430   39.8420 N   0  0  0  0  0  0  0  0  0  0  0  0
   38.6220   34.2510   38.9410 H   0  0  0  0  0  0  0  0  0  0  0  0
   38.5620   31.8630   40.3310 C   0  0  0  0  0  0  0  0  0  0  0  0
   37.8040   31.1420   41.2320 C   0  0  0  0  0  0  0  0  0  0  0  0
   37.6340   31.4950   42.2610 H   0  0  0  0  0  0  0  0  0  0  0  0
   37.1840   29.9180   40.9460 C   0  0  0  0  0  0  0  0  0  0  0  0
   37.3410   29.3950   39.6810 C   0  0  0  0  0  0  0  0  0  0  0  0
   36.8880   28.4570   39.4030 H   0  0  0  0  0  0  0  0  0  0  0  0
   38.0890   30.0810   38.7490 C   0  0  0  0  0  0  0  0  0  0  0  0
   38.2320   29.6900   37.7320 H   0  0  0  0  0  0  0  0  0  0  0  0
   38.6760   31.2830   39.0840 C   0  0  0  0  0  0  0  0  0  0  0  0
  1  6  1  0  0  0  0
  1 20  1  0  0  0  0
  2  1  1  0  0  0  0
  3  1  1  0  0  0  0
  4 12  1  0  0  0  0
  5  4  1  0  0  0  0
  5 10  1  0  0  0  0
  6  5  2  0  0  0  0
  7  8  2  0  0  0  0
  7  6  1  0  0  0  0
  8  9  1  0  0  0  0
  9  4  2  0  0  0  0
 11  8  1  0  0  0  0
 12 14  1  0  0  0  0
 12 15  1  0  0  0  0
 13 12  1  0  0  0  0
 13 14  1  0  0  0  0
 13 16  1  0  0  0  0
 14 19  1  0  0  0  0
 17 13  1  0  0  0  0
 18 14  1  0  0  0  0
 20 22  1  0  0  0  0
 21 20  1  0  0  0  0
 23 24  2  0  0  0  0
 25 20  1  0  0  0  0
 25 23  1  0  0  0  0
 26 25  1  0  0  0  0
 27 23  1  0  0  0  0
 27 28  1  0  0  0  0
 28 29  1  0  0  0  0
 30 28  2  0  0  0  0
 31 30  1  0  0  0  0
 32 31  1  0  0  0  0
 33 35  1  0  0  0  0
 33 31  2  0  0  0  0
 34 33  1  0  0  0  0
 35 27  2  0  0  0  0
M  END
>  <minimizedAffinity>
-5.31097841

>  <minimizedRMSD>
0.633404016

$$$$
