
     RDKit          3D

 39 41  0  0  0  0  0  0  0  0999 V2000
   46.3296   35.0032   41.9124 C   0  0  0  0  0  0  0  0  0  0  0  0
   44.8571   34.9439   41.6917 C   0  0  0  0  0  0  0  0  0  0  0  0
   43.9774   35.4313   42.7007 C   0  0  0  0  0  0  0  0  0  0  0  0
   42.3156   35.1468   41.9766 S   0  0  0  0  0  0  0  0  0  0  0  0
   43.1046   34.4048   40.4065 C   0  0  0  0  0  0  0  0  0  0  0  0
   44.2162   34.4868   40.6543 N   0  0  0  0  0  0  0  0  0  0  0  0
   42.3513   33.9326   39.3293 O   0  0  0  0  0  0  0  0  0  0  0  0
   40.4055   34.3968   37.5923 O   0  0  0  0  0  0  0  0  0  0  0  0
   41.4861   35.0853   38.4253 P   0  0  0  0  0  0  0  0  0  0  0  0
   40.7638   36.1635   39.5029 O   0  0  0  0  0  0  0  0  0  0  0  0
   42.5552   35.9328   37.4229 O   0  0  0  0  0  0  0  0  0  0  0  0
   47.1298   34.3339   40.8400 C   0  0  0  0  0  0  0  0  0  0  0  0
   48.4690   33.9085   41.2867 C   0  0  0  0  0  0  0  0  0  0  0  0
   48.9269   32.7032   40.7847 C   0  0  0  0  0  0  0  0  0  0  0  0
   50.1841   32.2212   41.1530 C   0  0  0  0  0  0  0  0  0  0  0  0
   50.9196   32.9885   42.0166 N   0  0  0  0  0  0  0  0  0  0  0  0
   50.4299   34.1721   42.4882 C   0  0  0  0  0  0  0  0  0  0  0  0
   49.2306   34.6010   42.1179 N   0  0  0  0  0  0  0  0  0  0  0  0
   47.9277   31.7328   39.6559 S   0  0  0  0  0  0  0  0  0  0  0  0
   46.5086   34.4341   42.8710 H   0  0  0  0  0  0  0  0  0  0  0  0
   46.6587   36.0380   42.1428 H   0  0  0  0  0  0  0  0  0  0  0  0
   44.2550   35.8638   43.6617 H   0  0  0  0  0  0  0  0  0  0  0  0
   39.9480   35.7447   39.9142 H   0  0  0  0  0  0  0  0  0  0  0  0
   42.9810   36.6349   38.0025 H   0  0  0  0  0  0  0  0  0  0  0  0
   47.3116   35.1254   40.0561 H   0  0  0  0  0  0  0  0  0  0  0  0
   46.5375   33.5199   40.4269 H   0  0  0  0  0  0  0  0  0  0  0  0
   50.5848   31.2825   40.7854 H   0  0  0  0  0  0  0  0  0  0  0  0
   51.0163   34.7741   43.1708 H   0  0  0  0  0  0  0  0  0  0  0  0
   48.3217   32.2511   37.9998 C   0  0  0  0  0  0  0  0  0  0  0  0
   47.7111   31.6830   36.9231 C   0  0  0  0  0  0  0  0  0  0  0  0
   46.9630   30.8929   37.0641 H   0  0  0  0  0  0  0  0  0  0  0  0
   47.9840   32.0510   35.6386 C   0  0  0  0  0  0  0  0  0  0  0  0
   48.9166   33.0424   35.3644 C   0  0  0  0  0  0  0  0  0  0  0  0
   49.1525   33.3538   34.3577 H   0  0  0  0  0  0  0  0  0  0  0  0
   49.5515   33.6361   36.4381 C   0  0  0  0  0  0  0  0  0  0  0  0
   50.2775   34.4072   36.2365 H   0  0  0  0  0  0  0  0  0  0  0  0
   49.2439   33.2323   37.7179 C   0  0  0  0  0  0  0  0  0  0  0  0
   47.4840   31.5843   34.7799 H   0  0  0  0  0  0  0  0  0  0  0  0
   49.7639   33.7218   38.5471 H   0  0  0  0  0  0  0  0  0  0  0  0
  2  1  1  0
  2  3  2  0
  4  3  1  0
  5  6  2  0
  5  4  1  0
  6  2  1  0
  7  5  1  0
  8  9  2  0
  9  7  1  0
  9 10  1  0
 11  9  1  0
 12 13  1  0
 12  1  1  0
 13 18  2  0
 14 15  2  0
 14 13  1  0
 15 16  1  0
 16 17  2  0
 18 17  1  0
 19 14  1  0
  1 20  1  0
  1 21  1  0
  3 22  1  0
 10 23  1  0
 11 24  1  0
 12 25  1  0
 12 26  1  0
 15 27  1  0
 17 28  1  0
 29 30  2  0
 30 31  1  0
 30 32  1  0
 32 33  2  0
 33 34  1  0
 33 35  1  0
 35 36  1  0
 35 37  2  0
 37 29  1  0
 32 38  1  0
 37 39  1  0
 19 29  1  0
M  ISO  8  20   8  21   8  22  14  23   3  24   3  25   8  26   8  27  14
M  ISO  4  28  14  31  16  34  16  36  16
M  END
>  <DihAtoms>  (1) 
13,18,28,29

>  <DihDeg>  (1) 
89.99979650516137

$$$$
