
 OpenBabel03252507463D

 37 39  0  0  0  0  0  0  0  0999 V2000
   46.9580   34.3670   40.9430 C   0  0  0  0  0  0  0  0  0  0  0  0
   47.1030   35.1860   40.1800 H   0  0  0  0  0  0  0  0  0  0  0  0
   46.4020   33.5390   40.5090 H   0  0  0  0  0  0  0  0  0  0  0  0
   48.3150   33.9890   41.3770 C   0  0  0  0  0  0  0  0  0  0  0  0
   48.7660   32.7480   40.9660 C   0  0  0  0  0  0  0  0  0  0  0  0
   50.0390   32.3070   41.3290 C   0  0  0  0  0  0  0  0  0  0  0  0
   50.7980   33.1510   42.0970 N   0  0  0  0  0  0  0  0  0  0  0  0
   50.3140   34.3670   42.4810 C   0  0  0  0  0  0  0  0  0  0  0  0
   49.0990   34.7560   42.1180 N   0  0  0  0  0  0  0  0  0  0  0  0
   50.4350   31.3420   41.0300 H   0  0  0  0  0  0  0  0  0  0  0  0
   50.9180   35.0300   43.0890 H   0  0  0  0  0  0  0  0  0  0  0  0
   47.7370   31.6780   39.9600 S   0  0  0  0  0  0  0  0  0  0  0  0
   48.0550   32.0660   38.2530 C   0  0  0  0  0  0  0  0  0  0  0  0
   48.4370   33.3190   37.8790 C   0  0  0  0  0  0  0  0  0  0  0  0
   48.5550   34.1100   38.6300 H   0  0  0  0  0  0  0  0  0  0  0  0
   48.6900   33.6580   36.5820 C   0  0  0  0  0  3  0  0  0  0  0  0
   48.5670   32.7220   35.5640 C   0  0  0  0  0  0  0  0  0  0  0  0
   48.7610   32.9620   34.5290 H   0  0  0  0  0  0  0  0  0  0  0  0
   48.1800   31.4440   35.9150 C   0  0  0  0  0  0  0  0  0  0  0  0
   48.0810   30.7090   35.1320 H   0  0  0  0  0  0  0  0  0  0  0  0
   47.9360   31.1470   37.2380 C   0  0  0  0  0  3  0  0  0  0  0  0
   46.1310   34.9720   42.0320 C   0  0  0  0  0  0  0  0  0  0  0  0
   46.2670   34.3330   42.9530 H   0  0  0  0  0  0  0  0  0  0  0  0
   46.4680   35.9820   42.3490 H   0  0  0  0  0  0  0  0  0  0  0  0
   44.6660   34.9550   41.7590 C   0  0  0  0  0  0  0  0  0  0  0  0
   43.7630   35.4580   42.7400 C   0  0  0  0  0  0  0  0  0  0  0  0
   42.1230   35.2260   41.9540 S   0  0  0  0  0  0  0  0  0  0  0  0
   42.9480   34.4750   40.4060 C   0  0  0  0  0  0  0  0  0  0  0  0
   44.0510   34.5250   40.6940 N   0  0  0  0  0  0  0  0  0  0  0  0
   44.0180   35.8750   43.7140 H   0  0  0  0  0  0  0  0  0  0  0  0
   42.2210   34.0330   39.2970 O   0  0  0  0  0  0  0  0  0  0  0  0
   40.3250   34.5720   37.5280 O   0  0  0  0  0  0  0  0  0  0  0  0
   41.4230   35.2160   38.3720 P   0  0  0  0  0  0  0  0  0  0  0  0
   40.7360   36.3350   39.4310 O   0  0  0  0  0  0  0  0  0  0  0  0
   39.8950   35.9580   39.8330 H   0  0  0  0  0  0  0  0  0  0  0  0
   42.5450   36.0060   37.3800 O   0  0  0  0  0  0  0  0  0  0  0  0
   42.9940   36.6930   37.9600 H   0  0  0  0  0  0  0  0  0  0  0  0
  1  4  1  0  0  0  0
  1 22  1  0  0  0  0
  2  1  1  0  0  0  0
  3  1  1  0  0  0  0
  4  9  1  0  0  0  0
  5  6  1  0  0  0  0
  5  4  2  0  0  0  0
  6  7  2  0  0  0  0
  7  8  1  0  0  0  0
  8 11  1  0  0  0  0
  9  8  2  0  0  0  0
 10  6  1  0  0  0  0
 12  5  1  0  0  0  0
 13 12  1  0  0  0  0
 14 13  1  0  0  0  0
 14 15  1  0  0  0  0
 16 14  2  0  0  0  0
 17 19  2  0  0  0  0
 17 16  1  0  0  0  0
 18 17  1  0  0  0  0
 19 21  1  0  0  0  0
 20 19  1  0  0  0  0
 21 13  2  0  0  0  0
 22 24  1  0  0  0  0
 22 23  1  0  0  0  0
 25 22  1  0  0  0  0
 25 26  2  0  0  0  0
 26 30  1  0  0  0  0
 27 26  1  0  0  0  0
 28 29  2  0  0  0  0
 28 27  1  0  0  0  0
 29 25  1  0  0  0  0
 31 28  1  0  0  0  0
 32 33  2  0  0  0  0
 33 31  1  0  0  0  0
 33 34  1  0  0  0  0
 34 35  1  0  0  0  0
 36 37  1  0  0  0  0
 36 33  1  0  0  0  0
M  END
>  <minimizedAffinity>
-4.92213678

>  <minimizedRMSD>
0.328115493

$$$$
