
 OpenBabel03252507463D

 37 39  0  0  0  0  0  0  0  0999 V2000
   46.9410   34.3250   40.9530 C   0  0  0  0  0  0  0  0  0  0  0  0
   47.0760   35.1030   40.1470 H   0  0  0  0  0  0  0  0  0  0  0  0
   46.3840   33.4730   40.5690 H   0  0  0  0  0  0  0  0  0  0  0  0
   48.3040   33.9760   41.3940 C   0  0  0  0  0  0  0  0  0  0  0  0
   48.7770   32.7380   40.9960 C   0  0  0  0  0  0  0  0  0  0  0  0
   50.0570   32.3230   41.3660 C   0  0  0  0  0  0  0  0  0  0  0  0
   50.8000   33.1890   42.1250 N   0  0  0  0  0  0  0  0  0  0  0  0
   50.2950   34.4010   42.4950 C   0  0  0  0  0  0  0  0  0  0  0  0
   49.0740   34.7640   42.1260 N   0  0  0  0  0  0  0  0  0  0  0  0
   50.4700   31.3620   41.0780 H   0  0  0  0  0  0  0  0  0  0  0  0
   50.8870   35.0800   43.0960 H   0  0  0  0  0  0  0  0  0  0  0  0
   47.7680   31.6390   40.0020 S   0  0  0  0  0  0  0  0  0  0  0  0
   48.0090   32.0770   38.2940 C   0  0  0  0  0  0  0  0  0  0  0  0
   48.5960   33.2560   37.9490 C   0  0  0  0  0  0  0  0  0  0  0  0
   48.9320   33.9550   38.7250 H   0  0  0  0  0  0  0  0  0  0  0  0
   48.8000   33.6290   36.6530 C   0  0  0  0  0  3  0  0  0  0  0  0
   48.4070   32.8070   35.6050 C   0  0  0  0  0  0  0  0  0  0  0  0
   48.5550   33.0770   34.5700 H   0  0  0  0  0  0  0  0  0  0  0  0
   47.8080   31.6050   35.9270 C   0  0  0  0  0  0  0  0  0  0  0  0
   47.4990   30.9590   35.1210 H   0  0  0  0  0  0  0  0  0  0  0  0
   47.6240   31.2690   37.2490 C   0  0  0  0  0  3  0  0  0  0  0  0
   46.1230   34.9830   42.0180 C   0  0  0  0  0  0  0  0  0  0  0  0
   46.2600   34.3860   42.9670 H   0  0  0  0  0  0  0  0  0  0  0  0
   46.4660   36.0050   42.2860 H   0  0  0  0  0  0  0  0  0  0  0  0
   44.6560   34.9610   41.7520 C   0  0  0  0  0  0  0  0  0  0  0  0
   43.7570   35.4580   42.7400 C   0  0  0  0  0  0  0  0  0  0  0  0
   42.1130   35.2210   41.9620 S   0  0  0  0  0  0  0  0  0  0  0  0
   42.9330   34.4780   40.4080 C   0  0  0  0  0  0  0  0  0  0  0  0
   44.0370   34.5310   40.6900 N   0  0  0  0  0  0  0  0  0  0  0  0
   44.0150   35.8730   43.7140 H   0  0  0  0  0  0  0  0  0  0  0  0
   42.2010   34.0360   39.3020 O   0  0  0  0  0  0  0  0  0  0  0  0
   40.3190   34.5810   37.5200 O   0  0  0  0  0  0  0  0  0  0  0  0
   41.4170   35.2210   38.3680 P   0  0  0  0  0  0  0  0  0  0  0  0
   40.7310   36.3480   39.4190 O   0  0  0  0  0  0  0  0  0  0  0  0
   39.8860   35.9780   39.8170 H   0  0  0  0  0  0  0  0  0  0  0  0
   42.5490   36.0000   37.3790 O   0  0  0  0  0  0  0  0  0  0  0  0
   43.0000   36.6860   37.9600 H   0  0  0  0  0  0  0  0  0  0  0  0
  1  4  1  0  0  0  0
  1 22  1  0  0  0  0
  2  1  1  0  0  0  0
  3  1  1  0  0  0  0
  4  9  1  0  0  0  0
  5  6  1  0  0  0  0
  5  4  2  0  0  0  0
  6  7  2  0  0  0  0
  7  8  1  0  0  0  0
  8 11  1  0  0  0  0
  9  8  2  0  0  0  0
 10  6  1  0  0  0  0
 12  5  1  0  0  0  0
 13 12  1  0  0  0  0
 14 13  1  0  0  0  0
 14 15  1  0  0  0  0
 16 14  2  0  0  0  0
 17 19  2  0  0  0  0
 17 16  1  0  0  0  0
 18 17  1  0  0  0  0
 19 21  1  0  0  0  0
 20 19  1  0  0  0  0
 21 13  2  0  0  0  0
 22 24  1  0  0  0  0
 22 23  1  0  0  0  0
 25 22  1  0  0  0  0
 25 26  2  0  0  0  0
 26 30  1  0  0  0  0
 27 26  1  0  0  0  0
 28 29  2  0  0  0  0
 28 27  1  0  0  0  0
 29 25  1  0  0  0  0
 31 28  1  0  0  0  0
 32 33  2  0  0  0  0
 33 31  1  0  0  0  0
 33 34  1  0  0  0  0
 34 35  1  0  0  0  0
 36 37  1  0  0  0  0
 36 33  1  0  0  0  0
M  END
>  <minimizedAffinity>
-4.89868498

>  <minimizedRMSD>
0.373132765

$$$$
