
 OpenBabel03252509123D

 32 35  0  0  0  0  0  0  0  0999 V2000
   47.7910   32.0560   44.1660 C   0  0  0  0  0  0  0  0  0  0  0  0
   47.1110   33.1560   43.6480 C   0  0  0  0  0  0  0  0  0  0  0  0
   46.1570   33.8360   44.3490 C   0  0  0  0  0  0  0  0  0  0  0  0
   45.8140   33.4490   45.6460 C   0  0  0  0  0  0  0  0  0  0  0  0
   44.9530   33.8690   46.6010 N   0  0  0  0  0  0  0  0  0  0  0  0
   45.0820   33.0640   47.6890 C   0  0  0  0  0  0  0  0  0  0  0  0
   46.0250   32.1560   47.3850 N   0  0  0  0  0  0  0  0  0  0  0  0
   46.4900   32.3690   46.1400 C   0  0  0  0  0  0  0  0  0  0  0  0
   47.4630   31.6500   45.4660 C   0  0  0  0  0  0  0  0  0  0  0  0
   48.5400   31.5330   43.5970 H   0  0  0  0  0  0  0  0  0  0  0  0
   44.3540   34.6910   46.3840 H   0  0  0  0  0  0  0  0  0  0  0  0
   44.4310   33.3180   48.5140 H   0  0  0  0  0  0  0  0  0  0  0  0
   47.9660   30.8010   45.9110 H   0  0  0  0  0  0  0  0  0  0  0  0
   47.2740   33.3360   39.9840 C   0  0  0  0  0  0  0  0  0  0  0  0
   48.0480   34.4630   39.7530 C   0  0  0  0  0  0  0  0  0  0  0  0
   48.5120   35.1590   40.8640 C   0  0  0  0  0  0  0  0  0  0  0  0
   48.1980   34.7200   42.1270 N   0  0  0  0  0  0  0  0  0  0  0  0
   47.4320   33.6030   42.2940 C   0  0  0  0  0  0  0  0  0  0  0  0
   46.9720   32.9160   41.2380 N   0  0  0  0  0  0  0  0  0  0  0  0
   46.9330   32.8250   39.0940 H   0  0  0  0  0  0  0  0  0  0  0  0
   48.3050   34.8250   38.7670 H   0  0  0  0  0  0  0  0  0  0  0  0
   49.1230   36.0520   40.8100 H   0  0  0  0  0  0  0  0  0  0  0  0
   45.2920   35.2490   43.6700 S   0  0  0  0  0  0  0  0  0  0  0  0
   44.1380   34.7550   42.4010 C   0  0  0  0  0  0  0  0  0  0  0  0
   43.6830   33.4420   42.2980 C   0  0  0  0  0  0  0  0  0  0  0  0
   44.0310   32.6870   43.0000 H   0  0  0  0  0  0  0  0  0  0  0  0
   42.7950   33.0840   41.3130 C   0  0  0  0  0  0  0  0  0  0  0  0
   42.3550   34.0350   40.4250 C   0  0  0  0  0  0  0  0  0  0  0  0
   41.6560   33.7570   39.6490 H   0  0  0  0  0  0  0  0  0  0  0  0
   42.8230   35.3480   40.5440 C   0  0  0  0  0  0  0  0  0  0  0  0
   42.4220   36.0420   39.7950 H   0  0  0  0  0  0  0  0  0  0  0  0
   43.7160   35.7280   41.5270 C   0  0  0  0  0  0  0  0  0  0  0  0
  1  9  1  0  0  0  0
  2  1  2  0  0  0  0
  2  3  1  0  0  0  0
  3  4  2  0  0  0  0
  4  8  1  0  0  0  0
  4  5  1  0  0  0  0
  5  6  1  0  0  0  0
  6 12  1  0  0  0  0
  7  6  2  0  0  0  0
  8  7  1  0  0  0  0
  9 13  1  0  0  0  0
  9  8  2  0  0  0  0
 10  1  1  0  0  0  0
 11  5  1  0  0  0  0
 14 19  1  0  0  0  0
 15 14  2  0  0  0  0
 15 16  1  0  0  0  0
 16 17  2  0  0  0  0
 17 18  1  0  0  0  0
 18  2  1  0  0  0  0
 19 18  2  0  0  0  0
 20 14  1  0  0  0  0
 21 15  1  0  0  0  0
 22 16  1  0  0  0  0
 23  3  1  0  0  0  0
 24 23  1  0  0  0  0
 25 24  1  0  0  0  0
 25 26  1  0  0  0  0
 27 25  2  0  0  0  0
 28 30  2  0  0  0  0
 28 27  1  0  0  0  0
 29 28  1  0  0  0  0
 30 32  1  0  0  0  0
 31 30  1  0  0  0  0
 32 24  2  0  0  0  0
M  END
>  <minimizedAffinity>
-5.47088575

>  <minimizedRMSD>
1.63949776

$$$$
