
 OpenBabel03252509123D

 32 35  0  0  0  0  0  0  0  0999 V2000
   47.5090   31.2180   44.9820 C   0  0  0  0  0  0  0  0  0  0  0  0
   47.2750   32.2770   44.1090 C   0  0  0  0  0  0  0  0  0  0  0  0
   46.4710   33.3350   44.4250 C   0  0  0  0  0  0  0  0  0  0  0  0
   45.8360   33.4020   45.6660 C   0  0  0  0  0  0  0  0  0  0  0  0
   45.0050   34.2610   46.2990 N   0  0  0  0  0  0  0  0  0  0  0  0
   44.7210   33.7640   47.5330 C   0  0  0  0  0  0  0  0  0  0  0  0
   45.3860   32.6010   47.6410 N   0  0  0  0  0  0  0  0  0  0  0  0
   46.0760   32.3560   46.5120 C   0  0  0  0  0  0  0  0  0  0  0  0
   46.8820   31.2640   46.2340 C   0  0  0  0  0  0  0  0  0  0  0  0
   48.1460   30.3920   44.7150 H   0  0  0  0  0  0  0  0  0  0  0  0
   44.7180   35.1210   45.7890 H   0  0  0  0  0  0  0  0  0  0  0  0
   44.0580   34.3820   48.1230 H   0  0  0  0  0  0  0  0  0  0  0  0
   47.0360   30.4630   46.9460 H   0  0  0  0  0  0  0  0  0  0  0  0
   47.9000   31.6500   40.5460 C   0  0  0  0  0  0  0  0  0  0  0  0
   49.1410   32.2310   40.3310 C   0  0  0  0  0  0  0  0  0  0  0  0
   49.7590   32.8390   41.4190 C   0  0  0  0  0  0  0  0  0  0  0  0
   49.1380   32.8450   42.6440 N   0  0  0  0  0  0  0  0  0  0  0  0
   47.9160   32.2570   42.7960 C   0  0  0  0  0  0  0  0  0  0  0  0
   47.3000   31.6650   41.7620 N   0  0  0  0  0  0  0  0  0  0  0  0
   47.4540   31.1890   39.6750 H   0  0  0  0  0  0  0  0  0  0  0  0
   49.6460   32.2370   39.3750 H   0  0  0  0  0  0  0  0  0  0  0  0
   50.7260   33.3250   41.3750 H   0  0  0  0  0  0  0  0  0  0  0  0
   46.1810   34.6910   43.2920 S   0  0  0  0  0  0  0  0  0  0  0  0
   44.6510   34.4730   42.3990 C   0  0  0  0  0  0  0  0  0  0  0  0
   44.0990   33.2100   42.1930 C   0  0  0  0  0  0  0  0  0  0  0  0
   44.6000   32.3240   42.5780 H   0  0  0  0  0  0  0  0  0  0  0  0
   42.9200   33.0650   41.5010 C   0  0  0  0  0  3  0  0  0  0  0  0
   42.2850   34.1800   41.0120 C   0  0  0  0  0  0  0  0  0  0  0  0
   41.3570   34.0700   40.4680 H   0  0  0  0  0  0  0  0  0  0  0  0
   42.8550   35.4400   41.2310 C   0  0  0  0  0  0  0  0  0  0  0  0
   42.2820   36.2750   40.8080 H   0  0  0  0  0  0  0  0  0  0  0  0
   44.0380   35.6070   41.9220 C   0  0  0  0  0  3  0  0  0  0  0  0
  1  9  1  0  0  0  0
  2  3  1  0  0  0  0
  2  1  2  0  0  0  0
  3  4  2  0  0  0  0
  4  5  1  0  0  0  0
  4  8  1  0  0  0  0
  5  6  1  0  0  0  0
  6  7  2  0  0  0  0
  6 12  1  0  0  0  0
  8  7  1  0  0  0  0
  9  8  2  0  0  0  0
  9 13  1  0  0  0  0
 10  1  1  0  0  0  0
 11  5  1  0  0  0  0
 14 19  1  0  0  0  0
 15 14  2  0  0  0  0
 15 16  1  0  0  0  0
 16 17  2  0  0  0  0
 17 18  1  0  0  0  0
 18  2  1  0  0  0  0
 19 18  2  0  0  0  0
 20 14  1  0  0  0  0
 21 15  1  0  0  0  0
 22 16  1  0  0  0  0
 23  3  1  0  0  0  0
 24 23  1  0  0  0  0
 25 24  1  0  0  0  0
 25 26  1  0  0  0  0
 27 25  2  0  0  0  0
 28 30  2  0  0  0  0
 28 27  1  0  0  0  0
 29 28  1  0  0  0  0
 30 32  1  0  0  0  0
 31 30  1  0  0  0  0
 32 24  2  0  0  0  0
M  END
>  <minimizedAffinity>
-4.95368671

>  <minimizedRMSD>
2.0108459

$$$$
