REMARK  Name = 
REMARK  9 active torsions:
REMARK  status: ('A' for Active; 'I' for Inactive)
REMARK    1  A    between atoms: C_1  and  C_2
REMARK    2  A    between atoms: C_1  and  C_12
REMARK    3  A    between atoms: C_5  and  O_7
REMARK    4  A    between atoms: O_7  and  P_9
REMARK    5  A    between atoms: P_9  and  O_10
REMARK    6  A    between atoms: P_9  and  O_11
REMARK    7  A    between atoms: C_12  and  C_13
REMARK    8  A    between atoms: C_14  and  S_19
REMARK    9  A    between atoms: S_19  and  C_29
REMARK                            x       y       z     vdW  Elec       q    Type
REMARK                         _______ _______ _______ _____ _____    ______ ____
ROOT
ATOM      1  C   UNL     1      47.130  34.334  40.840  0.00  0.00    +0.000 C 
ATOM      2  H   UNL     1      47.312  35.125  40.056  0.00  0.00    +0.000 HD
ATOM      3  H   UNL     1      46.538  33.520  40.427  0.00  0.00    +0.000 HD
ENDROOT
BRANCH   1   4
ATOM      4  C   UNL     1      48.469  33.908  41.287  0.00  0.00    +0.000 A 
ATOM      5  C   UNL     1      48.927  32.703  40.785  0.00  0.00    +0.000 A 
ATOM      6  C   UNL     1      50.184  32.221  41.153  0.00  0.00    +0.000 A 
ATOM      7  N   UNL     1      50.920  32.989  42.017  0.00  0.00    +0.000 NA
ATOM      8  C   UNL     1      50.430  34.172  42.488  0.00  0.00    +0.000 A 
ATOM      9  N   UNL     1      49.231  34.601  42.118  0.00  0.00    +0.000 NA
ATOM     10  H   UNL     1      50.585  31.282  40.785  0.00  0.00    +0.000 HD
ATOM     11  H   UNL     1      51.016  34.774  43.171  0.00  0.00    +0.000 HD
BRANCH   5  12
ATOM     12  S   UNL     1      47.928  31.733  39.656  0.00  0.00    +0.000 S 
BRANCH  12  13
ATOM     13  C   UNL     1      48.322  32.251  38.000  0.00  0.00    +0.000 A 
ATOM     14  C   UNL     1      47.392  32.190  37.006  0.00  0.00    +0.000 A 
ATOM     15  H   UNL     1      46.382  31.817  37.215  0.00  0.00    +0.000 HD
ATOM     16  C   UNL     1      47.654  32.577  35.725  0.00  0.00    +0.000 A 
ATOM     17  C   UNL     1      48.905  33.061  35.367  0.00  0.00    +0.000 A 
ATOM     18  H   UNL     1      49.139  33.375  34.361  0.00  0.00    +0.000 HD
ATOM     19  C   UNL     1      49.867  33.134  36.356  0.00  0.00    +0.000 A 
ATOM     20  H   UNL     1      50.842  33.509  36.090  0.00  0.00    +0.000 HD
ATOM     21  C   UNL     1      49.558  32.732  37.636  0.00  0.00    +0.000 A 
ENDBRANCH  12  13
ENDBRANCH   5  12
ENDBRANCH   1   4
BRANCH   1  22
ATOM     22  C   UNL     1      46.330  35.003  41.912  0.00  0.00    +0.000 C 
ATOM     23  H   UNL     1      46.509  34.434  42.871  0.00  0.00    +0.000 HD
ATOM     24  H   UNL     1      46.659  36.038  42.143  0.00  0.00    +0.000 HD
BRANCH  22  25
ATOM     25  C   UNL     1      44.857  34.944  41.692  0.00  0.00    +0.000 A 
ATOM     26  C   UNL     1      43.977  35.431  42.701  0.00  0.00    +0.000 A 
ATOM     27  S   UNL     1      42.316  35.147  41.977  0.00  0.00    +0.000 S 
ATOM     28  C   UNL     1      43.105  34.405  40.407  0.00  0.00    +0.000 A 
ATOM     29  N   UNL     1      44.216  34.487  40.654  0.00  0.00    +0.000 NA
ATOM     30  H   UNL     1      44.255  35.864  43.662  0.00  0.00    +0.000 HD
BRANCH  28  31
ATOM     31  O   UNL     1      42.351  33.933  39.329  0.00  0.00    +0.000 OA
BRANCH  31  33
ATOM     32  O   UNL     1      40.406  34.397  37.592  0.00  0.00    +0.000 OA
ATOM     33  P   UNL     1      41.486  35.085  38.425  0.00  0.00    +0.000 P 
BRANCH  33  34
ATOM     34  O   UNL     1      40.764  36.163  39.503  0.00  0.00    +0.000 OA
ATOM     35  H   UNL     1      39.948  35.745  39.914  0.00  0.00    +0.000 HD
ENDBRANCH  33  34
BRANCH  33  36
ATOM     36  O   UNL     1      42.555  35.933  37.423  0.00  0.00    +0.000 OA
ATOM     37  H   UNL     1      42.981  36.635  38.002  0.00  0.00    +0.000 HD
ENDBRANCH  33  36
ENDBRANCH  31  33
ENDBRANCH  28  31
ENDBRANCH  22  25
ENDBRANCH   1  22
TORSDOF 9
