
 OpenBabel03252507463D

 37 39  0  0  0  0  0  0  0  0999 V2000
   47.1850   34.5150   40.9760 C   0  0  0  0  0  0  0  0  0  0  0  0
   47.4090   35.4500   40.3870 H   0  0  0  0  0  0  0  0  0  0  0  0
   46.6120   33.8140   40.3720 H   0  0  0  0  0  0  0  0  0  0  0  0
   48.4970   33.9850   41.3900 C   0  0  0  0  0  0  0  0  0  0  0  0
   48.7990   32.7020   40.9710 C   0  0  0  0  0  0  0  0  0  0  0  0
   50.0200   32.1190   41.3140 C   0  0  0  0  0  0  0  0  0  0  0  0
   50.8810   32.8710   42.0700 N   0  0  0  0  0  0  0  0  0  0  0  0
   50.5430   34.1340   42.4620 C   0  0  0  0  0  0  0  0  0  0  0  0
   49.3750   34.6570   42.1180 N   0  0  0  0  0  0  0  0  0  0  0  0
   50.3000   31.1160   41.0090 H   0  0  0  0  0  0  0  0  0  0  0  0
   51.2280   34.7230   43.0590 H   0  0  0  0  0  0  0  0  0  0  0  0
   47.6400   31.7560   39.9820 S   0  0  0  0  0  0  0  0  0  0  0  0
   47.9650   32.1180   38.2710 C   0  0  0  0  0  0  0  0  0  0  0  0
   47.7460   31.1860   37.3020 C   0  0  0  0  0  0  0  0  0  0  0  0
   47.3620   30.1930   37.5670 H   0  0  0  0  0  0  0  0  0  0  0  0
   47.9810   31.4240   35.9800 C   0  0  0  0  0  3  0  0  0  0  0  0
   48.4660   32.6520   35.5520 C   0  0  0  0  0  0  0  0  0  0  0  0
   48.6610   32.8670   34.5130 H   0  0  0  0  0  0  0  0  0  0  0  0
   48.6970   33.6160   36.5130 C   0  0  0  0  0  0  0  0  0  0  0  0
   49.0750   34.5740   36.1920 H   0  0  0  0  0  0  0  0  0  0  0  0
   48.4450   33.3330   37.8360 C   0  0  0  0  0  3  0  0  0  0  0  0
   46.3320   34.9540   42.1240 C   0  0  0  0  0  0  0  0  0  0  0  0
   46.4790   34.2060   42.9580 H   0  0  0  0  0  0  0  0  0  0  0  0
   46.6380   35.9240   42.5700 H   0  0  0  0  0  0  0  0  0  0  0  0
   44.8710   34.9330   41.8340 C   0  0  0  0  0  0  0  0  0  0  0  0
   43.9600   35.4890   42.7770 C   0  0  0  0  0  0  0  0  0  0  0  0
   42.3270   35.2290   41.9830 S   0  0  0  0  0  0  0  0  0  0  0  0
   43.1660   34.3980   40.4850 C   0  0  0  0  0  0  0  0  0  0  0  0
   44.2650   34.4540   40.7840 N   0  0  0  0  0  0  0  0  0  0  0  0
   44.2050   35.9520   43.7330 H   0  0  0  0  0  0  0  0  0  0  0  0
   42.4490   33.9070   39.3900 O   0  0  0  0  0  0  0  0  0  0  0  0
   40.5000   34.3130   37.6430 O   0  0  0  0  0  0  0  0  0  0  0  0
   41.5570   35.0320   38.4800 P   0  0  0  0  0  0  0  0  0  0  0  0
   40.7990   36.0910   39.5520 O   0  0  0  0  0  0  0  0  0  0  0  0
   39.9940   35.6520   39.9600 H   0  0  0  0  0  0  0  0  0  0  0  0
   42.6060   35.9080   37.4810 O   0  0  0  0  0  0  0  0  0  0  0  0
   43.0100   36.6230   38.0610 H   0  0  0  0  0  0  0  0  0  0  0  0
  1  4  1  0  0  0  0
  1 22  1  0  0  0  0
  2  1  1  0  0  0  0
  3  1  1  0  0  0  0
  4  9  1  0  0  0  0
  5  6  1  0  0  0  0
  5  4  2  0  0  0  0
  6  7  2  0  0  0  0
  7  8  1  0  0  0  0
  8 11  1  0  0  0  0
  9  8  2  0  0  0  0
 10  6  1  0  0  0  0
 12  5  1  0  0  0  0
 13 12  1  0  0  0  0
 14 15  1  0  0  0  0
 14 13  2  0  0  0  0
 16 14  1  0  0  0  0
 17 16  2  0  0  0  0
 17 19  1  0  0  0  0
 18 17  1  0  0  0  0
 19 21  2  0  0  0  0
 20 19  1  0  0  0  0
 21 13  1  0  0  0  0
 22 24  1  0  0  0  0
 22 23  1  0  0  0  0
 25 22  1  0  0  0  0
 25 26  2  0  0  0  0
 26 30  1  0  0  0  0
 27 26  1  0  0  0  0
 28 29  2  0  0  0  0
 28 27  1  0  0  0  0
 29 25  1  0  0  0  0
 31 28  1  0  0  0  0
 32 33  2  0  0  0  0
 33 31  1  0  0  0  0
 33 34  1  0  0  0  0
 34 35  1  0  0  0  0
 36 37  1  0  0  0  0
 36 33  1  0  0  0  0
M  END
>  <minimizedAffinity>
-4.95321846

>  <minimizedRMSD>
0.418837249

$$$$
