
 OpenBabel03252507043D

 47 50  0  0  0  0  0  0  0  0999 V2000
   41.8030   33.7710   41.3300 C   0  0  0  0  0  0  0  0  0  0  0  0
   41.4480   33.6600   42.3770 H   0  0  0  0  0  0  0  0  0  0  0  0
   42.0480   34.8860   41.2550 H   0  0  0  0  0  0  0  0  0  0  0  0
   40.9100   33.3630   40.4200 N   0  0  0  0  0  0  0  0  0  0  0  0
   40.2120   32.1130   40.3960 C   0  0  0  0  0  0  0  0  0  0  0  0
   38.8360   32.6000   40.8480 C   0  0  0  0  0  0  0  0  0  0  0  0
   38.2470   33.6020   39.9760 C   0  0  0  0  0  0  0  0  0  0  0  0
   39.1210   34.4060   39.1490 C   0  0  0  0  0  0  0  0  0  0  0  0
   40.6120   34.3430   39.3560 C   0  0  0  0  0  0  0  0  0  0  0  0
   40.1830   31.5440   39.4860 H   0  0  0  0  0  0  0  0  0  0  0  0
   40.5850   31.4520   41.2050 H   0  0  0  0  0  0  0  0  0  0  0  0
   38.8970   32.8690   41.9420 H   0  0  0  0  0  0  0  0  0  0  0  0
   38.2130   31.6580   40.8660 H   0  0  0  0  0  0  0  0  0  0  0  0
   37.6090   34.2970   40.5870 H   0  0  0  0  0  0  0  0  0  0  0  0
   37.5120   33.1040   39.2770 H   0  0  0  0  0  0  0  0  0  0  0  0
   38.7880   35.0650   38.4130 H   0  0  0  0  0  0  0  0  0  0  0  0
   41.7570   35.2710   38.4740 S   0  0  0  0  0  0  0  0  0  0  0  0
   41.2580   36.5040   37.3860 C   0  0  0  0  0  0  0  0  0  0  0  0
   40.7880   37.5510   38.2120 C   0  0  0  0  0  0  0  0  0  0  0  0
   40.7100   37.7020   39.3010 H   0  0  0  0  0  0  0  0  0  0  0  0
   40.2740   38.7410   37.6680 C   0  0  0  0  0  3  0  0  0  0  0  0
   40.2380   38.8580   36.2850 C   0  0  0  0  0  0  0  0  0  0  0  0
   39.8600   39.7310   35.7640 H   0  0  0  0  0  0  0  0  0  0  0  0
   40.6820   37.8660   35.4450 C   0  0  0  0  0  0  0  0  0  0  0  0
   40.6870   37.8830   34.3660 H   0  0  0  0  0  0  0  0  0  0  0  0
   41.1660   36.7460   36.0530 C   0  0  0  0  0  3  0  0  0  0  0  0
   43.1280   33.1060   41.2100 C   0  0  0  0  0  0  0  0  0  0  0  0
   43.3690   32.7860   40.1730 H   0  0  0  0  0  0  0  0  0  0  0  0
   43.1570   32.1690   41.8340 H   0  0  0  0  0  0  0  0  0  0  0  0
   44.1460   34.0050   41.7810 C   0  0  0  0  0  0  0  0  0  0  0  0
   43.7800   35.2040   42.3470 C   0  0  0  0  0  0  0  0  0  0  0  0
   44.7810   36.0190   42.8650 C   0  0  0  0  0  0  0  0  0  0  0  0
   46.0740   35.5840   42.7860 N   0  0  0  0  0  0  0  0  0  0  0  0
   46.3880   34.4160   42.2320 C   0  0  0  0  0  0  0  0  0  0  0  0
   45.4100   33.6560   41.7410 N   0  0  0  0  0  0  0  0  0  0  0  0
   42.8400   35.7010   42.5160 H   0  0  0  0  0  0  0  0  0  0  0  0
   44.6820   36.9860   43.3410 H   0  0  0  0  0  0  0  0  0  0  0  0
   47.7960   34.0200   42.2280 C   0  0  0  0  0  0  0  0  0  0  0  0
   48.1490   32.6880   42.0320 C   0  0  0  0  0  0  0  0  0  0  0  0
   49.4790   32.3230   42.0410 C   0  0  0  0  0  0  0  0  0  0  0  0
   50.3480   33.3520   42.2520 C   0  0  0  0  0  0  0  0  0  0  0  0
   50.0550   34.7050   42.4550 C   0  0  0  0  0  0  0  0  0  0  0  0
   48.7180   34.9790   42.4300 N   0  0  0  0  0  0  0  0  0  0  0  0
   47.3850   31.9320   41.8700 H   0  0  0  0  0  0  0  0  0  0  0  0
   49.8310   31.3280   41.8990 H   0  0  0  0  0  0  0  0  0  0  0  0
   51.4230   33.1140   42.2690 H   0  0  0  0  0  0  0  0  0  0  0  0
   50.8120   35.4320   42.6110 H   0  0  0  0  0  0  0  0  0  0  0  0
  1  2  1  0  0  0  0
  3  1  1  0  0  0  0
  4  1  1  0  0  0  0
  5  4  1  0  0  0  0
  5  6  1  0  0  0  0
  5 11  1  0  0  0  0
  6 13  1  0  0  0  0
  6 12  1  0  0  0  0
  7 14  1  0  0  0  0
  7  6  1  0  0  0  0
  8  9  2  0  0  0  0
  8  7  1  0  0  0  0
  9  4  1  0  0  0  0
 10  5  1  0  0  0  0
 15  7  1  0  0  0  0
 16  8  1  0  0  0  0
 17  9  1  0  0  0  0
 18 19  1  0  0  0  0
 18 17  1  0  0  0  0
 19 20  1  0  0  0  0
 21 19  2  0  0  0  0
 22 21  1  0  0  0  0
 23 22  1  0  0  0  0
 24 26  1  0  0  0  0
 24 22  2  0  0  0  0
 25 24  1  0  0  0  0
 26 18  2  0  0  0  0
 27  1  1  0  0  0  0
 27 30  1  0  0  0  0
 27 29  1  0  0  0  0
 28 27  1  0  0  0  0
 30 31  1  0  0  0  0
 31 36  1  0  0  0  0
 31 32  2  0  0  0  0
 32 37  1  0  0  0  0
 33 32  1  0  0  0  0
 34 33  2  0  0  0  0
 35 30  2  0  0  0  0
 35 34  1  0  0  0  0
 38 34  1  0  0  0  0
 38 43  1  0  0  0  0
 39 40  1  0  0  0  0
 39 38  2  0  0  0  0
 40 41  2  0  0  0  0
 41 46  1  0  0  0  0
 41 42  1  0  0  0  0
 42 47  1  0  0  0  0
 43 42  2  0  0  0  0
 44 39  1  0  0  0  0
 45 40  1  0  0  0  0
M  END
>  <minimizedAffinity>
-2.8609941

>  <minimizedRMSD>
0.225380763

$$$$
