
 OpenBabel03252507043D

 47 50  0  0  0  0  0  0  0  0999 V2000
   41.7970   33.7880   41.3340 C   0  0  0  0  0  0  0  0  0  0  0  0
   41.4330   33.7000   42.3800 H   0  0  0  0  0  0  0  0  0  0  0  0
   42.0530   34.9000   41.2410 H   0  0  0  0  0  0  0  0  0  0  0  0
   40.9060   33.3720   40.4250 N   0  0  0  0  0  0  0  0  0  0  0  0
   40.2110   32.1220   40.4080 C   0  0  0  0  0  0  0  0  0  0  0  0
   38.8330   32.6100   40.8540 C   0  0  0  0  0  0  0  0  0  0  0  0
   38.2440   33.6030   39.9730 C   0  0  0  0  0  0  0  0  0  0  0  0
   39.1180   34.4040   39.1430 C   0  0  0  0  0  0  0  0  0  0  0  0
   40.6090   34.3450   39.3530 C   0  0  0  0  0  0  0  0  0  0  0  0
   40.1850   31.5460   39.5020 H   0  0  0  0  0  0  0  0  0  0  0  0
   40.5830   31.4670   41.2220 H   0  0  0  0  0  0  0  0  0  0  0  0
   38.8910   32.8860   41.9460 H   0  0  0  0  0  0  0  0  0  0  0  0
   38.2110   31.6660   40.8770 H   0  0  0  0  0  0  0  0  0  0  0  0
   37.6040   34.3020   40.5780 H   0  0  0  0  0  0  0  0  0  0  0  0
   37.5120   33.0990   39.2760 H   0  0  0  0  0  0  0  0  0  0  0  0
   38.7860   35.0560   38.4020 H   0  0  0  0  0  0  0  0  0  0  0  0
   41.7540   35.2690   38.4670 S   0  0  0  0  0  0  0  0  0  0  0  0
   41.2560   36.5040   37.3830 C   0  0  0  0  0  0  0  0  0  0  0  0
   40.7880   37.5490   38.2110 C   0  0  0  0  0  0  0  0  0  0  0  0
   40.7100   37.6980   39.3000 H   0  0  0  0  0  0  0  0  0  0  0  0
   40.2740   38.7410   37.6690 C   0  0  0  0  0  3  0  0  0  0  0  0
   40.2390   38.8610   36.2860 C   0  0  0  0  0  0  0  0  0  0  0  0
   39.8620   39.7370   35.7680 H   0  0  0  0  0  0  0  0  0  0  0  0
   40.6810   37.8720   35.4440 C   0  0  0  0  0  0  0  0  0  0  0  0
   40.6860   37.8920   34.3660 H   0  0  0  0  0  0  0  0  0  0  0  0
   41.1650   36.7500   36.0500 C   0  0  0  0  0  3  0  0  0  0  0  0
   43.1160   33.1090   41.2350 C   0  0  0  0  0  0  0  0  0  0  0  0
   43.3620   32.7680   40.2060 H   0  0  0  0  0  0  0  0  0  0  0  0
   43.1320   32.1840   41.8770 H   0  0  0  0  0  0  0  0  0  0  0  0
   44.1380   34.0100   41.7970 C   0  0  0  0  0  0  0  0  0  0  0  0
   43.7780   35.2120   42.3580 C   0  0  0  0  0  0  0  0  0  0  0  0
   44.7820   36.0280   42.8670 C   0  0  0  0  0  0  0  0  0  0  0  0
   46.0750   35.5900   42.7850 N   0  0  0  0  0  0  0  0  0  0  0  0
   46.3830   34.4190   42.2360 C   0  0  0  0  0  0  0  0  0  0  0  0
   45.4020   33.6580   41.7530 N   0  0  0  0  0  0  0  0  0  0  0  0
   42.8400   35.7120   42.5290 H   0  0  0  0  0  0  0  0  0  0  0  0
   44.6880   36.9980   43.3390 H   0  0  0  0  0  0  0  0  0  0  0  0
   47.7910   34.0190   42.2270 C   0  0  0  0  0  0  0  0  0  0  0  0
   48.1410   32.6880   42.0210 C   0  0  0  0  0  0  0  0  0  0  0  0
   49.4700   32.3200   42.0260 C   0  0  0  0  0  0  0  0  0  0  0  0
   50.3410   33.3460   42.2430 C   0  0  0  0  0  0  0  0  0  0  0  0
   50.0510   34.6980   42.4570 C   0  0  0  0  0  0  0  0  0  0  0  0
   48.7150   34.9750   42.4340 N   0  0  0  0  0  0  0  0  0  0  0  0
   47.3750   31.9350   41.8550 H   0  0  0  0  0  0  0  0  0  0  0  0
   49.8200   31.3250   41.8770 H   0  0  0  0  0  0  0  0  0  0  0  0
   51.4160   33.1060   42.2580 H   0  0  0  0  0  0  0  0  0  0  0  0
   50.8100   35.4230   42.6170 H   0  0  0  0  0  0  0  0  0  0  0  0
  1  2  1  0  0  0  0
  3  1  1  0  0  0  0
  4  1  1  0  0  0  0
  5  4  1  0  0  0  0
  5  6  1  0  0  0  0
  5 11  1  0  0  0  0
  6 13  1  0  0  0  0
  6 12  1  0  0  0  0
  7 14  1  0  0  0  0
  7  6  1  0  0  0  0
  8  9  2  0  0  0  0
  8  7  1  0  0  0  0
  9  4  1  0  0  0  0
 10  5  1  0  0  0  0
 15  7  1  0  0  0  0
 16  8  1  0  0  0  0
 17  9  1  0  0  0  0
 18 19  1  0  0  0  0
 18 17  1  0  0  0  0
 19 20  1  0  0  0  0
 21 19  2  0  0  0  0
 22 21  1  0  0  0  0
 23 22  1  0  0  0  0
 24 26  1  0  0  0  0
 24 22  2  0  0  0  0
 25 24  1  0  0  0  0
 26 18  2  0  0  0  0
 27  1  1  0  0  0  0
 27 30  1  0  0  0  0
 27 29  1  0  0  0  0
 28 27  1  0  0  0  0
 30 31  1  0  0  0  0
 31 36  1  0  0  0  0
 31 32  2  0  0  0  0
 32 37  1  0  0  0  0
 33 32  1  0  0  0  0
 34 33  2  0  0  0  0
 35 30  2  0  0  0  0
 35 34  1  0  0  0  0
 38 34  1  0  0  0  0
 38 43  1  0  0  0  0
 39 40  1  0  0  0  0
 39 38  2  0  0  0  0
 40 41  2  0  0  0  0
 41 46  1  0  0  0  0
 41 42  1  0  0  0  0
 42 47  1  0  0  0  0
 43 42  2  0  0  0  0
 44 39  1  0  0  0  0
 45 40  1  0  0  0  0
M  END
>  <minimizedAffinity>
-2.85289097

>  <minimizedRMSD>
0.434113383

$$$$
