
     RDKit          3D

 38 40  0  0  0  0  0  0  0  0999 V2000
   44.5739   35.5938   44.7562 C   0  0  0  0  0  0  0  0  0  0  0  0
   45.1506   35.7397   43.4800 C   0  0  0  0  0  0  0  0  0  0  0  0
   46.1966   34.8791   43.1609 C   0  0  0  0  0  0  0  0  0  0  0  0
   46.5996   33.9697   44.0633 N   0  0  0  0  0  0  0  0  0  0  0  0
   46.0405   33.8455   45.2694 C   0  0  0  0  0  0  0  0  0  0  0  0
   45.0167   34.6670   45.6181 N   0  0  0  0  0  0  0  0  0  0  0  0
   45.4006   32.5409   47.3180 C   0  0  1  0  0  0  0  0  0  0  0  0
   46.4445   32.8815   46.2959 C   0  0  1  0  0  0  0  0  0  0  0  0
   46.6170   31.4825   45.6644 C   0  0  0  0  0  0  0  0  0  0  0  0
   46.3458   30.5651   46.6360 O   0  0  0  0  0  0  0  0  0  0  0  0
   45.9934   31.2210   47.8164 C   0  0  0  0  0  0  0  0  0  0  0  0
   45.2286   33.4800   48.2936 O   0  0  0  0  0  0  0  0  0  0  0  0
   46.7568   35.0303   41.9019 O   0  0  0  0  0  0  0  0  0  0  0  0
   48.5735   33.2474   41.1297 O   0  0  0  0  0  0  0  0  0  0  0  0
   48.4242   34.6760   41.6608 P   0  0  1  0  0  0  0  0  0  0  0  0
   49.0474   35.7841   40.5930 O   0  0  0  0  0  0  0  0  0  0  0  0
   49.1552   34.7732   43.1755 O   0  0  0  0  0  0  0  0  0  0  0  0
   43.7590   36.2840   44.9702 H   0  0  0  0  0  0  0  0  0  0  0  0
   44.8154   36.4710   42.7748 H   0  0  0  0  0  0  0  0  0  0  0  0
   44.4511   32.2581   46.8005 H   0  0  0  0  0  0  0  0  0  0  0  0
   47.3888   33.1563   46.8260 H   0  0  0  0  0  0  0  0  0  0  0  0
   47.7029   31.4180   45.4211 H   0  0  0  0  0  0  0  0  0  0  0  0
   46.0518   31.3873   44.7264 H   0  0  0  0  0  0  0  0  0  0  0  0
   45.2355   30.5957   48.3372 H   0  0  0  0  0  0  0  0  0  0  0  0
   46.8854   31.3739   48.4383 H   0  0  0  0  0  0  0  0  0  0  0  0
   44.2527   33.6887   48.3326 H   0  0  0  0  0  0  0  0  0  0  0  0
   49.4585   35.3121   39.8040 H   0  0  0  0  0  0  0  0  0  0  0  0
   50.1772   33.9875   43.6345 C   0  0  0  0  0  0  0  0  0  0  0  0
   50.0764   32.6688   44.0236 C   0  0  0  0  0  0  0  0  0  0  0  0
   49.1030   32.2045   43.9636 H   0  0  0  0  0  0  0  0  0  0  0  0
   51.1401   31.9148   44.4816 C   0  0  0  0  0  0  0  0  0  0  0  0
   52.3880   32.5118   44.5579 C   0  0  0  0  0  0  0  0  0  0  0  0
   53.1900   31.8966   44.9178 H   0  0  0  0  0  0  0  0  0  0  0  0
   52.5466   33.8328   44.1804 C   0  0  0  0  0  0  0  0  0  0  0  0
   53.5389   34.2183   44.2688 H   0  0  0  0  0  0  0  0  0  0  0  0
   51.4418   34.5472   43.7260 C   0  0  0  0  0  0  0  0  0  0  0  0
   50.9839   30.8790   44.7710 H   0  0  0  0  0  0  0  0  0  0  0  0
   51.6458   35.5685   43.4512 H   0  0  0  0  0  0  0  0  0  0  0  0
  1  6  2  0
  2  1  1  0
  3  2  2  0
  3  4  1  0
  4  5  2  0
  5  6  1  0
  7 11  1  0
  7 12  1  0
  8  5  1  0
  8  7  1  0
  9  8  1  0
  9 10  1  0
 10 11  1  0
 13  3  1  0
 14 15  2  0
 15 13  1  1
 15 17  1  0
 16 15  1  0
  1 18  1  0
  2 19  1  0
  7 20  1  6
  8 21  1  1
  9 22  1  0
  9 23  1  0
 11 24  1  0
 11 25  1  0
 12 26  1  0
 16 27  1  0
 28 29  2  0
 29 30  1  0
 29 31  1  0
 31 32  2  0
 32 33  1  0
 32 34  1  0
 34 35  1  0
 34 36  2  0
 36 28  1  0
 31 37  1  0
 36 38  1  0
 17 28  1  0
M  ISO  8  18  14  19  14  20  13  21  13  22  13  23  13  24  13  25  13
M  ISO  5  26   3  27   3  30  16  33  16  35  16
M  END
>  <DihAtoms>  (1) 
14,16,27,28

>  <DihDeg>  (1) 
-43.73174502254534

$$$$
