REMARK  Name = 
REMARK  6 active torsions:
REMARK  status: ('A' for Active; 'I' for Inactive)
REMARK    1  A    between atoms: C_1  and  C_2
REMARK    2  A    between atoms: C_1  and  C_14
REMARK    3  A    between atoms: C_6  and  C_8
REMARK    4  A    between atoms: C_14  and  N_15
REMARK    5  A    between atoms: C_20  and  S_21
REMARK    6  A    between atoms: S_21  and  C_39
REMARK                            x       y       z     vdW  Elec       q    Type
REMARK                         _______ _______ _______ _____ _____    ______ ____
ROOT
ATOM      1  C   UNL     1      41.905  33.952  41.209  0.00  0.00    +0.000 C 
ATOM      2  H   UNL     1      41.539  33.935  42.258  0.00  0.00    +0.000 HD
ATOM      3  H   UNL     1      42.194  35.048  41.052  0.00  0.00    +0.000 HD
ENDROOT
BRANCH   1   4
ATOM      4  N   UNL     1      41.001  33.511  40.325  0.00  0.00    +0.000 N 
ATOM      5  C   UNL     1      40.327  32.249  40.337  0.00  0.00    +0.000 C 
ATOM      6  C   UNL     1      38.951  32.719  40.808  0.00  0.00    +0.000 C 
ATOM      7  C   UNL     1      38.326  33.693  39.930  0.00  0.00    +0.000 C 
ATOM      8  C   UNL     1      39.168  34.498  39.072  0.00  0.00    +0.000 C 
ATOM      9  C   UNL     1      40.664  34.466  39.249  0.00  0.00    +0.000 C 
ATOM     10  H   UNL     1      40.290  31.663  39.438  0.00  0.00    +0.000 HD
ATOM     11  H   UNL     1      40.728  31.610  41.150  0.00  0.00    +0.000 HD
ATOM     12  H   UNL     1      39.029  33.009  41.896  0.00  0.00    +0.000 HD
ATOM     13  H   UNL     1      38.346  31.766  40.855  0.00  0.00    +0.000 HD
ATOM     14  H   UNL     1      37.688  34.388  40.541  0.00  0.00    +0.000 HD
ATOM     15  H   UNL     1      37.587  33.169  39.255  0.00  0.00    +0.000 HD
ATOM     16  H   UNL     1      38.809  35.137  38.331  0.00  0.00    +0.000 HD
BRANCH   9  17
ATOM     17  S   UNL     1      41.774  35.399  38.328  0.00  0.00    +0.000 S 
BRANCH  17  18
ATOM     18  C   UNL     1      41.248  36.733  37.382  0.00  0.00    +0.000 A 
ATOM     19  C   UNL     1      40.199  36.222  36.584  0.00  0.00    +0.000 A 
ATOM     20  H   UNL     1      39.709  35.239  36.485  0.00  0.00    +0.000 HD
ATOM     21  C   UNL     1      39.524  37.032  35.653  0.00  0.00    +0.000 A 
ATOM     22  C   UNL     1      39.921  38.357  35.539  0.00  0.00    +0.000 A 
ATOM     23  H   UNL     1      39.467  39.064  34.853  0.00  0.00    +0.000 HD
ATOM     24  C   UNL     1      40.934  38.895  36.293  0.00  0.00    +0.000 A 
ATOM     25  H   UNL     1      41.297  39.910  36.262  0.00  0.00    +0.000 HD
ATOM     26  C   UNL     1      41.537  38.043  37.171  0.00  0.00    +0.000 A 
ENDBRANCH  17  18
ENDBRANCH   9  17
ENDBRANCH   1   4
BRANCH   1  27
ATOM     27  C   UNL     1      43.203  33.229  41.151  0.00  0.00    +0.000 C 
ATOM     28  H   UNL     1      43.481  32.902  40.126  0.00  0.00    +0.000 HD
ATOM     29  H   UNL     1      43.159  32.290  41.771  0.00  0.00    +0.000 HD
BRANCH  27  30
ATOM     30  C   UNL     1      44.230  34.080  41.777  0.00  0.00    +0.000 A 
ATOM     31  C   UNL     1      43.879  35.254  42.401  0.00  0.00    +0.000 A 
ATOM     32  C   UNL     1      44.888  36.024  42.969  0.00  0.00    +0.000 A 
ATOM     33  N   UNL     1      46.175  35.572  42.879  0.00  0.00    +0.000 NA
ATOM     34  C   UNL     1      46.474  34.429  42.268  0.00  0.00    +0.000 A 
ATOM     35  N   UNL     1      45.489  33.712  41.730  0.00  0.00    +0.000 NA
ATOM     36  H   UNL     1      42.946  35.758  42.587  0.00  0.00    +0.000 HD
ATOM     37  H   UNL     1      44.801  36.967  43.494  0.00  0.00    +0.000 HD
BRANCH  34  38
ATOM     38  C   UNL     1      47.876  34.009  42.255  0.00  0.00    +0.000 A 
ATOM     39  C   UNL     1      48.208  32.681  42.005  0.00  0.00    +0.000 A 
ATOM     40  C   UNL     1      49.531  32.293  42.007  0.00  0.00    +0.000 A 
ATOM     41  C   UNL     1      50.416  33.298  42.266  0.00  0.00    +0.000 A 
ATOM     42  C   UNL     1      50.144  34.646  42.525  0.00  0.00    +0.000 A 
ATOM     43  N   UNL     1      48.812  34.943  42.503  0.00  0.00    +0.000 NA
ATOM     44  H   UNL     1      47.432  31.946  41.807  0.00  0.00    +0.000 HD
ATOM     45  H   UNL     1      49.868  31.299  41.825  0.00  0.00    +0.000 HD
ATOM     46  H   UNL     1      51.487  33.041  42.280  0.00  0.00    +0.000 HD
ATOM     47  H   UNL     1      50.912  35.353  42.716  0.00  0.00    +0.000 HD
ENDBRANCH  34  38
ENDBRANCH  27  30
ENDBRANCH   1  27
TORSDOF 6
