
 OpenBabel03242519283D

 43 46  0  0  0  0  0  0  0  0999 V2000
   47.9370   33.8450   42.8610 C   0  0  0  0  0  0  0  0  0  0  0  0
   48.5880   35.0930   42.6460 C   0  0  0  0  0  0  0  0  0  0  0  0
   49.9500   35.1020   42.3350 C   0  0  0  0  0  0  0  0  0  0  0  0
   50.5770   33.8820   42.2570 N   0  0  0  0  0  0  0  0  0  0  0  0
   49.9110   32.7130   42.4710 C   0  0  0  0  0  0  0  0  0  0  0  0
   48.6120   32.7020   42.7680 N   0  0  0  0  0  0  0  0  0  0  0  0
   48.1680   36.0690   42.6900 H   0  0  0  0  0  0  0  0  0  0  0  0
   50.5070   36.0110   42.1600 H   0  0  0  0  0  0  0  0  0  0  0  0
   46.5050   33.9540   43.1880 C   0  0  0  0  0  0  0  0  0  0  0  0
   45.7740   34.9560   42.4340 C   0  0  0  0  0  0  0  0  0  0  0  0
   45.3010   36.1090   43.2260 C   0  0  0  0  0  0  0  0  0  0  0  0
   44.4730   35.6860   44.4330 C   0  0  0  0  0  0  0  0  0  0  0  0
   44.9820   34.4660   45.1110 C   0  0  0  0  0  0  0  0  0  0  0  0
   46.4360   34.1870   44.7210 C   0  0  0  0  0  0  0  0  0  0  0  0
   46.0700   32.9160   43.0920 H   0  0  0  0  0  0  0  0  0  0  0  0
   44.8570   34.4820   41.9770 H   0  0  0  0  0  0  0  0  0  0  0  0
   46.3240   35.3590   41.5530 H   0  0  0  0  0  0  0  0  0  0  0  0
   46.0460   36.8400   43.5500 H   0  0  0  0  0  0  0  0  0  0  0  0
   44.5770   36.6950   42.5890 H   0  0  0  0  0  0  0  0  0  0  0  0
   43.4110   35.5060   44.1520 H   0  0  0  0  0  0  0  0  0  0  0  0
   44.4530   36.5550   45.1230 H   0  0  0  0  0  0  0  0  0  0  0  0
   45.0000   34.6280   46.2050 H   0  0  0  0  0  0  0  0  0  0  0  0
   44.4210   33.5440   44.8450 H   0  0  0  0  0  0  0  0  0  0  0  0
   46.7800   33.2610   45.2050 H   0  0  0  0  0  0  0  0  0  0  0  0
   47.0340   35.0780   44.9680 H   0  0  0  0  0  0  0  0  0  0  0  0
   50.7230   31.5070   42.3520 C   0  0  0  0  0  0  0  0  0  0  0  0
   51.3470   31.2850   41.1760 N   0  0  0  0  0  0  0  0  0  0  0  0
   52.0460   30.1320   41.2520 C   0  0  0  0  0  0  0  0  0  0  0  0
   51.8490   29.6380   42.4950 N   0  0  0  0  0  0  0  0  0  0  0  0
   51.0430   30.4700   43.1770 N   0  0  0  0  0  0  0  0  0  0  0  0
   52.6560   29.6580   40.4950 H   0  0  0  0  0  0  0  0  0  0  0  0
   52.3830   28.4090   43.0850 C   0  0  0  0  0  0  0  0  0  0  0  0
   52.9940   27.8490   42.3440 H   0  0  0  0  0  0  0  0  0  0  0  0
   52.9630   28.6580   43.9980 H   0  0  0  0  0  0  0  0  0  0  0  0
   51.2060   27.6060   43.5300 C   0  0  0  0  0  0  0  0  0  0  0  0
   50.3800   27.0760   42.5540 C   0  0  0  0  0  0  0  0  0  0  0  0
   50.6060   27.2550   41.5120 H   0  0  0  0  0  0  0  0  0  0  0  0
   49.2590   26.3150   42.8170 C   0  0  0  0  0  0  0  0  0  0  0  0
   48.9570   26.0760   44.1620 C   0  0  0  0  0  0  0  0  0  0  0  0
   48.0900   25.4880   44.3490 H   0  0  0  0  0  0  0  0  0  0  0  0
   49.7900   26.6110   45.1480 C   0  0  0  0  0  0  0  0  0  0  0  0
   49.5180   26.4010   46.1660 H   0  0  0  0  0  0  0  0  0  0  0  0
   50.9050   27.3680   44.8550 C   0  0  0  0  0  0  0  0  0  0  0  0
  1  9  1  0  0  0  0
  2  7  1  0  0  0  0
  2  1  2  0  0  0  0
  3  2  1  0  0  0  0
  4  3  2  0  0  0  0
  4  5  1  0  0  0  0
  5  6  2  0  0  0  0
  6  1  1  0  0  0  0
  8  3  1  0  0  0  0
  9 14  1  0  0  0  0
 10  9  1  0  0  0  0
 10 11  1  0  0  0  0
 11 18  1  0  0  0  0
 11 12  1  0  0  0  0
 12 13  1  0  0  0  0
 12 21  1  0  0  0  0
 13 22  1  0  0  0  0
 14 25  1  0  0  0  0
 14 13  1  0  0  0  0
 14 24  1  0  0  0  0
 15  9  1  0  0  0  0
 16 10  1  0  0  0  0
 17 10  1  0  0  0  0
 19 11  1  0  0  0  0
 20 12  1  0  0  0  0
 23 13  1  0  0  0  0
 26  5  1  0  0  0  0
 26 30  2  0  0  0  0
 27 28  2  0  0  0  0
 27 26  1  0  0  0  0
 28 29  1  0  0  0  0
 29 32  1  0  0  0  0
 29 30  1  0  0  0  0
 31 28  1  0  0  0  0
 32 35  1  0  0  0  0
 32 34  1  0  0  0  0
 33 32  1  0  0  0  0
 35 43  1  0  0  0  0
 36 38  1  0  0  0  0
 36 35  2  0  0  0  0
 37 36  1  0  0  0  0
 38 39  2  0  0  0  0
 39 40  1  0  0  0  0
 39 41  1  0  0  0  0
 41 42  1  0  0  0  0
 43 41  2  0  0  0  0
M  END
>  <minimizedAffinity>
-3.94475627

>  <minimizedRMSD>
1.76793706

$$$$
