
 OpenBabel03252503443D

 34 36  0  0  1  0  0  0  0  0999 V2000
   45.0050   34.9080   44.9010 C   0  0  0  0  0  0  0  0  0  0  0  0
   45.9150   34.7090   43.8540 C   0  0  0  0  0  0  0  0  0  0  0  0
   46.8060   33.6260   43.9620 C   0  0  0  0  0  0  0  0  0  0  0  0
   46.7500   32.8320   45.0540 N   0  0  0  0  0  0  0  0  0  0  0  0
   45.8630   33.0530   46.0430 C   0  0  0  0  0  0  0  0  0  0  0  0
   44.9850   34.0830   45.9840 N   0  0  0  0  0  0  0  0  0  0  0  0
   44.2620   35.6900   44.9660 H   0  0  0  0  0  0  0  0  0  0  0  0
   47.5040   33.4780   43.1500 H   0  0  0  0  0  0  0  0  0  0  0  0
   47.3260   31.8190   47.6480 C   0  0  2  0  0  0  0  0  0  0  0  0
   45.8910   32.1310   47.1740 C   0  0  1  0  0  0  0  0  0  0  0  0
   45.3750   32.6270   48.3420 O   0  0  0  0  0  0  0  0  0  0  0  0
   45.7450   31.7760   49.3450 C   0  0  0  0  0  0  0  0  0  0  0  0
   46.9530   30.9930   48.8860 C   0  0  2  0  0  0  0  0  0  0  0  0
   47.8880   31.2430   46.9020 H   0  0  0  0  0  0  0  0  0  0  0  0
   45.3730   31.1690   46.9410 H   0  0  0  0  0  0  0  0  0  0  0  0
   44.9020   31.0420   49.4700 H   0  0  0  0  0  0  0  0  0  0  0  0
   45.8800   32.2580   50.3240 H   0  0  0  0  0  0  0  0  0  0  0  0
   46.6720   29.9880   48.5470 H   0  0  0  0  0  0  0  0  0  0  0  0
   47.9150   32.9570   48.0970 O   0  0  0  0  0  0  0  0  0  0  0  0
   48.5010   33.3220   47.3830 H   0  0  0  0  0  0  0  0  0  0  0  0
   47.9600   30.9250   49.8130 O   0  0  0  0  0  0  0  0  0  0  0  0
   48.0300   31.7910   50.2760 H   0  0  0  0  0  0  0  0  0  0  0  0
   45.8770   35.6530   42.7440 C   0  0  0  0  0  0  0  0  0  0  0  0
   46.8900   35.8020   42.2760 H   0  0  0  0  0  0  0  0  0  0  0  0
   45.5350   36.6430   43.1100 H   0  0  0  0  0  0  0  0  0  0  0  0
   44.9340   35.1640   41.7120 C   0  0  0  0  0  0  0  0  0  0  0  0
   43.6670   35.6880   41.5850 C   0  0  0  0  0  0  0  0  0  0  0  0
   43.3510   36.4630   42.2440 H   0  0  0  0  0  0  0  0  0  0  0  0
   42.7870   35.2310   40.6220 C   0  0  0  0  0  0  0  0  0  0  0  0
   43.1950   34.2250   39.7690 C   0  0  0  0  0  0  0  0  0  0  0  0
   42.5230   33.8500   39.0040 H   0  0  0  0  0  0  0  0  0  0  0  0
   44.4700   33.7020   39.8990 C   0  0  0  0  0  0  0  0  0  0  0  0
   44.7480   32.9270   39.2200 H   0  0  0  0  0  0  0  0  0  0  0  0
   45.3740   34.1500   40.8670 C   0  0  0  0  0  0  0  0  0  0  0  0
  1  7  1  0  0  0  0
  1  6  1  0  0  0  0
  2  3  1  0  0  0  0
  2  1  2  0  0  0  0
  3  4  2  0  0  0  0
  4  5  1  0  0  0  0
  5 10  1  0  0  0  0
  6  5  2  0  0  0  0
  8  3  1  0  0  0  0
  9 14  1  6  0  0  0
  9 19  1  0  0  0  0
  9 13  1  0  0  0  0
 10 15  1  6  0  0  0
 10  9  1  0  0  0  0
 10 11  1  0  0  0  0
 11 12  1  0  0  0  0
 12 16  1  0  0  0  0
 12 17  1  0  0  0  0
 13 18  1  6  0  0  0
 13 12  1  0  0  0  0
 13 21  1  0  0  0  0
 20 19  1  0  0  0  0
 21 22  1  0  0  0  0
 23 25  1  0  0  0  0
 23  2  1  0  0  0  0
 24 23  1  0  0  0  0
 26 23  1  0  0  0  0
 27 26  1  0  0  0  0
 27 28  1  0  0  0  0
 29 27  2  0  0  0  0
 30 32  2  0  0  0  0
 30 29  1  0  0  0  0
 31 30  1  0  0  0  0
 32 34  1  0  0  0  0
 33 32  1  0  0  0  0
 34 26  2  0  0  0  0
M  END
>  <minimizedAffinity>
-6.34588099

>  <minimizedRMSD>
0.966870129

$$$$
