
 OpenBabel03252507103D

 36 38  0  0  1  0  0  0  0  0999 V2000
   42.2270   33.3450   39.6850 C   0  0  0  0  0  0  0  0  0  0  0  0
   43.2890   33.9700   40.3660 C   0  0  0  0  0  0  0  0  0  0  0  0
   44.5660   33.4650   40.1370 C   0  0  0  0  0  0  0  0  0  0  0  0
   44.7240   32.4290   39.2980 N   0  0  0  0  0  0  0  0  0  0  0  0
   43.7050   31.8480   38.6610 C   0  0  0  0  0  0  0  0  0  0  0  0
   42.4440   32.3120   38.8570 N   0  0  0  0  0  0  0  0  0  0  0  0
   41.2440   33.7660   39.8880 H   0  0  0  0  0  0  0  0  0  0  0  0
   43.1420   34.7950   41.0300 H   0  0  0  0  0  0  0  0  0  0  0  0
   42.7880   30.6490   36.6530 C   0  0  1  0  0  0  0  0  0  0  0  0
   43.8150   30.7110   37.7440 C   0  0  1  0  0  0  0  0  0  0  0  0
   45.0780   30.8640   36.8670 C   0  0  0  0  0  0  0  0  0  0  0  0
   44.8260   30.2340   35.6840 O   0  0  0  0  0  0  0  0  0  0  0  0
   43.5300   29.7160   35.6940 C   0  0  0  0  0  0  0  0  0  0  0  0
   42.7450   31.6350   36.1260 H   0  0  0  0  0  0  0  0  0  0  0  0
   43.8530   29.7190   38.2570 H   0  0  0  0  0  0  0  0  0  0  0  0
   45.8640   30.2860   37.4050 H   0  0  0  0  0  0  0  0  0  0  0  0
   45.4070   31.9110   36.8060 H   0  0  0  0  0  0  0  0  0  0  0  0
   43.1310   29.7800   34.6590 H   0  0  0  0  0  0  0  0  0  0  0  0
   43.5470   28.6780   36.0550 H   0  0  0  0  0  0  0  0  0  0  0  0
   41.5640   30.1900   37.0460 O   0  0  0  0  0  0  0  0  0  0  0  0
   40.8870   30.8580   36.7410 H   0  0  0  0  0  0  0  0  0  0  0  0
   45.6050   34.0890   40.8110 O   0  0  0  0  0  0  0  0  0  0  0  0
   46.9240   33.6000   43.0690 O   0  0  0  0  0  0  0  0  0  0  0  0
   46.7940   33.1380   41.6140 P   0  0  1  0  0  0  0  0  0  0  0  0
   46.3380   31.5440   41.5280 O   0  0  0  0  0  0  0  0  0  0  0  0
   46.2760   31.1500   42.4530 H   0  0  0  0  0  0  0  0  0  0  0  0
   48.2500   33.4260   40.8190 O   0  0  0  0  0  0  0  0  0  0  0  0
   49.0740   32.4820   40.2680 C   0  0  0  0  0  0  0  0  0  0  0  0
   49.0210   32.0150   38.9710 C   0  0  0  0  0  0  0  0  0  0  0  0
   48.2620   32.4290   38.3240 H   0  0  0  0  0  0  0  0  0  0  0  0
   49.8760   31.0590   38.4590 C   0  0  0  0  0  3  0  0  0  0  0  0
   50.8490   30.5310   39.2910 C   0  0  0  0  0  0  0  0  0  0  0  0
   51.4960   29.7910   38.8600 H   0  0  0  0  0  0  0  0  0  0  0  0
   50.9480   30.9620   40.6020 C   0  0  0  0  0  0  0  0  0  0  0  0
   51.7230   30.5060   41.1770 H   0  0  0  0  0  0  0  0  0  0  0  0
   50.0610   31.9290   41.0670 C   0  0  0  0  0  3  0  0  0  0  0  0
  1  7  1  0  0  0  0
  1  2  1  0  0  0  0
  2  8  1  0  0  0  0
  3  2  2  0  0  0  0
  3 22  1  0  0  0  0
  4  3  1  0  0  0  0
  5  6  1  0  0  0  0
  5  4  2  0  0  0  0
  6  1  2  0  0  0  0
  9 14  1  6  0  0  0
  9 20  1  0  0  0  0
  9 10  1  0  0  0  0
 10 15  1  1  0  0  0
 10  5  1  0  0  0  0
 11 16  1  0  0  0  0
 11 10  1  0  0  0  0
 12 13  1  0  0  0  0
 12 11  1  0  0  0  0
 13 19  1  0  0  0  0
 13  9  1  0  0  0  0
 17 11  1  0  0  0  0
 18 13  1  0  0  0  0
 21 20  1  0  0  0  0
 22 24  1  0  0  0  0
 24 23  2  1  0  0  0
 25 24  1  0  0  0  0
 25 26  1  0  0  0  0
 27 24  1  0  0  0  0
 28 27  1  0  0  0  0
 28 36  1  0  0  0  0
 29 28  2  0  0  0  0
 30 29  1  0  0  0  0
 31 29  1  0  0  0  0
 31 32  2  0  0  0  0
 32 34  1  0  0  0  0
 33 32  1  0  0  0  0
 34 36  2  0  0  0  0
 34 35  1  0  0  0  0
M  END
>  <minimizedAffinity>
-2.8073976

>  <minimizedRMSD>
7.00131845

$$$$
