
 OpenBabel03242519263D

 40 43  0  0  0  0  0  0  0  0999 V2000
   32.3060   29.4730   36.6030 C   0  0  0  0  0  0  0  0  0  0  0  0
   32.6780   29.3560   35.2610 C   0  0  0  0  0  0  0  0  0  0  0  0
   34.0060   29.0560   34.9210 C   0  0  0  0  0  0  0  0  0  0  0  0
   34.8710   28.8950   35.9720 N   0  0  0  0  0  0  0  0  0  0  0  0
   34.4840   29.0140   37.2580 C   0  0  0  0  0  0  0  0  0  0  0  0
   33.2160   29.2990   37.5670 N   0  0  0  0  0  0  0  0  0  0  0  0
   32.0730   29.4640   34.3720 H   0  0  0  0  0  0  0  0  0  0  0  0
   34.3660   28.9500   33.9080 H   0  0  0  0  0  0  0  0  0  0  0  0
   30.8850   29.7960   36.8420 C   0  0  0  0  0  0  0  0  0  0  0  0
   30.4210   30.9900   36.1360 C   0  0  0  0  0  0  0  0  0  0  0  0
   30.1050   32.1410   37.0220 C   0  0  0  0  0  0  0  0  0  0  0  0
   29.1230   31.7850   38.1290 C   0  0  0  0  0  0  0  0  0  0  0  0
   29.3370   30.4080   38.7120 C   0  0  0  0  0  0  0  0  0  0  0  0
   30.7090   29.8750   38.3690 C   0  0  0  0  0  0  0  0  0  0  0  0
   30.3090   28.8610   36.5740 H   0  0  0  0  0  0  0  0  0  0  0  0
   31.0840   31.3650   35.3340 H   0  0  0  0  0  0  0  0  0  0  0  0
   29.4630   30.7360   35.6010 H   0  0  0  0  0  0  0  0  0  0  0  0
   30.9430   32.6360   37.5150 H   0  0  0  0  0  0  0  0  0  0  0  0
   29.6030   32.9440   36.4140 H   0  0  0  0  0  0  0  0  0  0  0  0
   29.2030   32.5200   38.9590 H   0  0  0  0  0  0  0  0  0  0  0  0
   28.0750   31.8200   37.7370 H   0  0  0  0  0  0  0  0  0  0  0  0
   28.5890   29.6620   38.3480 H   0  0  0  0  0  0  0  0  0  0  0  0
   29.2540   30.4000   39.8080 H   0  0  0  0  0  0  0  0  0  0  0  0
   30.8050   28.8660   38.7690 H   0  0  0  0  0  0  0  0  0  0  0  0
   31.5030   30.5570   38.7440 H   0  0  0  0  0  0  0  0  0  0  0  0
   35.5170   28.8120   38.2840 C   0  0  0  0  0  0  0  0  0  0  0  0
   36.7700   28.5240   37.8010 N   0  0  0  0  0  0  0  0  0  0  0  0
   37.5880   28.3650   38.8690 C   0  0  0  0  0  0  0  0  0  0  0  0
   36.8220   28.5580   39.9950 N   0  0  0  0  0  0  0  0  0  0  0  0
   35.5810   28.8250   39.6280 N   0  0  0  0  0  0  0  0  0  0  0  0
   38.6230   28.1360   38.9290 H   0  0  0  0  0  0  0  0  0  0  0  0
   37.1590   28.5110   41.3820 C   0  0  0  0  0  0  0  0  0  0  0  0
   38.1080   29.2620   42.0530 C   0  0  0  0  0  0  0  0  0  0  0  0
   38.6440   29.9590   41.4250 H   0  0  0  0  0  0  0  0  0  0  0  0
   38.2750   29.0540   43.4120 C   0  0  0  0  0  3  0  0  0  0  0  0
   37.5180   28.1240   44.0920 C   0  0  0  0  0  0  0  0  0  0  0  0
   37.6710   27.9820   45.1630 H   0  0  0  0  0  0  0  0  0  0  0  0
   36.5590   27.3640   43.4240 C   0  0  0  0  0  0  0  0  0  0  0  0
   35.9920   26.6460   44.0060 H   0  0  0  0  0  0  0  0  0  0  0  0
   36.3960   27.5720   42.0710 C   0  0  0  0  0  3  0  0  0  0  0  0
  1  9  1  0  0  0  0
  1  6  1  0  0  0  0
  2  1  2  0  0  0  0
  3  2  1  0  0  0  0
  3  4  2  0  0  0  0
  4  5  1  0  0  0  0
  5  6  2  0  0  0  0
  5 26  1  0  0  0  0
  7  2  1  0  0  0  0
  8  3  1  0  0  0  0
  9 14  1  0  0  0  0
 10  9  1  0  0  0  0
 10 11  1  0  0  0  0
 11 18  1  0  0  0  0
 11 12  1  0  0  0  0
 12 13  1  0  0  0  0
 12 20  1  0  0  0  0
 13 23  1  0  0  0  0
 14 13  1  0  0  0  0
 14 25  1  0  0  0  0
 14 24  1  0  0  0  0
 15  9  1  0  0  0  0
 16 10  1  0  0  0  0
 17 10  1  0  0  0  0
 19 11  1  0  0  0  0
 21 12  1  0  0  0  0
 22 13  1  0  0  0  0
 26 30  2  0  0  0  0
 27 26  1  0  0  0  0
 27 28  2  0  0  0  0
 28 31  1  0  0  0  0
 28 29  1  0  0  0  0
 29 32  1  0  0  0  0
 30 29  1  0  0  0  0
 32 33  2  0  0  0  0
 32 40  1  0  0  0  0
 33 35  1  0  0  0  0
 34 33  1  0  0  0  0
 35 36  2  0  0  0  0
 36 37  1  0  0  0  0
 38 39  1  0  0  0  0
 38 36  1  0  0  0  0
 40 38  2  0  0  0  0
M  END
>  <minimizedAffinity>
-6.10354233

$$$$

 OpenBabel03242519263D

 40 43  0  0  0  0  0  0  0  0999 V2000
   37.6270   29.6640   41.9040 C   0  0  0  0  0  0  0  0  0  0  0  0
   36.4020   29.9340   41.2890 C   0  0  0  0  0  0  0  0  0  0  0  0
   36.2390   31.0970   40.5210 C   0  0  0  0  0  0  0  0  0  0  0  0
   37.3370   31.9120   40.4300 N   0  0  0  0  0  0  0  0  0  0  0  0
   38.5080   31.6270   41.0340 C   0  0  0  0  0  0  0  0  0  0  0  0
   38.6490   30.5150   41.7620 N   0  0  0  0  0  0  0  0  0  0  0  0
   35.4880   29.3570   41.3030 H   0  0  0  0  0  0  0  0  0  0  0  0
   35.3230   31.3710   40.0170 H   0  0  0  0  0  0  0  0  0  0  0  0
   37.6810   28.4160   42.6900 C   0  0  0  0  0  0  0  0  0  0  0  0
   39.0250   28.0590   43.1440 C   0  0  0  0  0  0  0  0  0  0  0  0
   39.5880   26.8460   42.4950 C   0  0  0  0  0  0  0  0  0  0  0  0
   38.6720   25.6360   42.6020 C   0  0  0  0  0  0  0  0  0  0  0  0
   37.2070   25.9690   42.4560 C   0  0  0  0  0  0  0  0  0  0  0  0
   37.0130   27.3300   41.8280 C   0  0  0  0  0  0  0  0  0  0  0  0
   36.9410   28.5520   43.5340 H   0  0  0  0  0  0  0  0  0  0  0  0
   39.7880   28.8560   43.0710 H   0  0  0  0  0  0  0  0  0  0  0  0
   38.9780   27.8290   44.2460 H   0  0  0  0  0  0  0  0  0  0  0  0
   39.8570   26.9250   41.4400 H   0  0  0  0  0  0  0  0  0  0  0  0
   40.5410   26.5570   43.0210 H   0  0  0  0  0  0  0  0  0  0  0  0
   38.9300   24.8940   41.8150 H   0  0  0  0  0  0  0  0  0  0  0  0
   38.8030   25.1420   43.5980 H   0  0  0  0  0  0  0  0  0  0  0  0
   36.6640   25.9720   43.4330 H   0  0  0  0  0  0  0  0  0  0  0  0
   36.6730   25.2440   41.8240 H   0  0  0  0  0  0  0  0  0  0  0  0
   35.9460   27.5490   41.7830 H   0  0  0  0  0  0  0  0  0  0  0  0
   37.4980   27.3770   40.8290 H   0  0  0  0  0  0  0  0  0  0  0  0
   39.6040   32.5890   40.8490 C   0  0  0  0  0  0  0  0  0  0  0  0
   39.2100   33.8720   40.5600 N   0  0  0  0  0  0  0  0  0  0  0  0
   40.3330   34.6160   40.4170 C   0  0  0  0  0  0  0  0  0  0  0  0
   41.4020   33.7760   40.6200 N   0  0  0  0  0  0  0  0  0  0  0  0
   40.9490   32.5610   40.8780 N   0  0  0  0  0  0  0  0  0  0  0  0
   40.4650   35.6460   40.1930 H   0  0  0  0  0  0  0  0  0  0  0  0
   42.8090   34.0180   40.5910 C   0  0  0  0  0  0  0  0  0  0  0  0
   43.6980   33.7530   39.5650 C   0  0  0  0  0  0  0  0  0  0  0  0
   43.2440   33.3070   38.6920 H   0  0  0  0  0  0  0  0  0  0  0  0
   45.0330   34.0700   39.7490 C   0  0  0  0  0  3  0  0  0  0  0  0
   45.4790   34.6390   40.9240 C   0  0  0  0  0  0  0  0  0  0  0  0
   46.5370   34.8780   41.0410 H   0  0  0  0  0  0  0  0  0  0  0  0
   44.5890   34.9100   41.9630 C   0  0  0  0  0  0  0  0  0  0  0  0
   44.9920   35.3570   42.8650 H   0  0  0  0  0  0  0  0  0  0  0  0
   43.2610   34.5920   41.7770 C   0  0  0  0  0  3  0  0  0  0  0  0
  1  9  1  0  0  0  0
  2  7  1  0  0  0  0
  2  1  2  0  0  0  0
  3  2  1  0  0  0  0
  4  3  2  0  0  0  0
  4  5  1  0  0  0  0
  5  6  2  0  0  0  0
  6  1  1  0  0  0  0
  8  3  1  0  0  0  0
  9 10  1  0  0  0  0
  9 15  1  0  0  0  0
 10 17  1  0  0  0  0
 11 12  1  0  0  0  0
 11 19  1  0  0  0  0
 11 10  1  0  0  0  0
 12 21  1  0  0  0  0
 13 12  1  0  0  0  0
 13 22  1  0  0  0  0
 14 13  1  0  0  0  0
 14  9  1  0  0  0  0
 16 10  1  0  0  0  0
 18 11  1  0  0  0  0
 20 12  1  0  0  0  0
 23 13  1  0  0  0  0
 24 14  1  0  0  0  0
 25 14  1  0  0  0  0
 26 30  2  0  0  0  0
 26  5  1  0  0  0  0
 27 26  1  0  0  0  0
 28 27  2  0  0  0  0
 28 29  1  0  0  0  0
 29 30  1  0  0  0  0
 31 28  1  0  0  0  0
 32 29  1  0  0  0  0
 32 40  1  0  0  0  0
 33 35  1  0  0  0  0
 33 32  2  0  0  0  0
 34 33  1  0  0  0  0
 35 36  2  0  0  0  0
 36 37  1  0  0  0  0
 36 38  1  0  0  0  0
 38 39  1  0  0  0  0
 40 38  2  0  0  0  0
M  END
>  <minimizedAffinity>
-6.06894112

$$$$

 OpenBabel03242519263D

 40 43  0  0  0  0  0  0  0  0999 V2000
   37.2110   27.0020   41.7170 C   0  0  0  0  0  0  0  0  0  0  0  0
   37.0950   27.0130   43.1090 C   0  0  0  0  0  0  0  0  0  0  0  0
   37.3270   28.1970   43.8250 C   0  0  0  0  0  0  0  0  0  0  0  0
   37.6640   29.2940   43.0760 N   0  0  0  0  0  0  0  0  0  0  0  0
   37.7690   29.2530   41.7330 C   0  0  0  0  0  0  0  0  0  0  0  0
   37.5440   28.1190   41.0630 N   0  0  0  0  0  0  0  0  0  0  0  0
   36.8370   26.2070   43.7800 H   0  0  0  0  0  0  0  0  0  0  0  0
   37.2570   28.2810   44.9010 H   0  0  0  0  0  0  0  0  0  0  0  0
   36.9490   25.7010   41.0690 C   0  0  0  0  0  0  0  0  0  0  0  0
   37.0960   24.5520   41.9630 C   0  0  0  0  0  0  0  0  0  0  0  0
   38.2580   23.6790   41.6520 C   0  0  0  0  0  0  0  0  0  0  0  0
   38.2750   23.2080   40.2040 C   0  0  0  0  0  0  0  0  0  0  0  0
   37.8240   24.2590   39.2190 C   0  0  0  0  0  0  0  0  0  0  0  0
   37.8630   25.6400   39.8320 C   0  0  0  0  0  0  0  0  0  0  0  0
   35.9190   25.7880   40.6110 H   0  0  0  0  0  0  0  0  0  0  0  0
   37.1380   24.7830   43.0440 H   0  0  0  0  0  0  0  0  0  0  0  0
   36.1810   23.9030   41.8590 H   0  0  0  0  0  0  0  0  0  0  0  0
   39.2520   24.0840   41.8460 H   0  0  0  0  0  0  0  0  0  0  0  0
   38.1920   22.7450   42.2770 H   0  0  0  0  0  0  0  0  0  0  0  0
   39.3030   22.8950   39.9190 H   0  0  0  0  0  0  0  0  0  0  0  0
   37.6000   22.3240   40.0810 H   0  0  0  0  0  0  0  0  0  0  0  0
   36.7830   24.0870   38.8480 H   0  0  0  0  0  0  0  0  0  0  0  0
   38.4570   24.2880   38.3190 H   0  0  0  0  0  0  0  0  0  0  0  0
   37.4890   26.3600   39.1040 H   0  0  0  0  0  0  0  0  0  0  0  0
   38.8880   25.8870   40.1840 H   0  0  0  0  0  0  0  0  0  0  0  0
   38.1340   30.5070   41.0570 C   0  0  0  0  0  0  0  0  0  0  0  0
   37.0920   31.3700   40.8270 N   0  0  0  0  0  0  0  0  0  0  0  0
   37.6000   32.4580   40.1990 C   0  0  0  0  0  0  0  0  0  0  0  0
   38.9500   32.2440   40.0520 N   0  0  0  0  0  0  0  0  0  0  0  0
   39.2580   31.0680   40.5720 N   0  0  0  0  0  0  0  0  0  0  0  0
   37.1330   33.3460   39.8510 H   0  0  0  0  0  0  0  0  0  0  0  0
   39.9730   33.0510   39.4660 C   0  0  0  0  0  0  0  0  0  0  0  0
   40.4100   34.2990   39.8720 C   0  0  0  0  0  0  0  0  0  0  0  0
   39.8960   34.6860   40.7410 H   0  0  0  0  0  0  0  0  0  0  0  0
   41.4230   34.9110   39.1530 C   0  0  0  0  0  3  0  0  0  0  0  0
   41.9920   34.2990   38.0560 C   0  0  0  0  0  0  0  0  0  0  0  0
   42.7890   34.8050   37.5080 H   0  0  0  0  0  0  0  0  0  0  0  0
   41.5580   33.0410   37.6400 C   0  0  0  0  0  0  0  0  0  0  0  0
   42.0380   32.6050   36.7720 H   0  0  0  0  0  0  0  0  0  0  0  0
   40.5480   32.4350   38.3580 C   0  0  0  0  0  3  0  0  0  0  0  0
  1  2  1  0  0  0  0
  2  7  1  0  0  0  0
  2  3  2  0  0  0  0
  3  8  1  0  0  0  0
  4  3  1  0  0  0  0
  5  4  2  0  0  0  0
  6  1  2  0  0  0  0
  6  5  1  0  0  0  0
  9  1  1  0  0  0  0
  9 10  1  0  0  0  0
 10 16  1  0  0  0  0
 11 18  1  0  0  0  0
 11 10  1  0  0  0  0
 11 19  1  0  0  0  0
 12 11  1  0  0  0  0
 13 14  1  0  0  0  0
 13 12  1  0  0  0  0
 14 25  1  0  0  0  0
 14  9  1  0  0  0  0
 15  9  1  0  0  0  0
 17 10  1  0  0  0  0
 20 12  1  0  0  0  0
 21 12  1  0  0  0  0
 22 13  1  0  0  0  0
 23 13  1  0  0  0  0
 24 14  1  0  0  0  0
 26  5  1  0  0  0  0
 27 26  1  0  0  0  0
 28 27  2  0  0  0  0
 29 28  1  0  0  0  0
 29 30  1  0  0  0  0
 30 26  2  0  0  0  0
 31 28  1  0  0  0  0
 32 33  1  0  0  0  0
 32 29  1  0  0  0  0
 33 34  1  0  0  0  0
 35 33  2  0  0  0  0
 36 35  1  0  0  0  0
 37 36  1  0  0  0  0
 38 36  2  0  0  0  0
 38 40  1  0  0  0  0
 39 38  1  0  0  0  0
 40 32  2  0  0  0  0
M  END
>  <minimizedAffinity>
-6.05273771

$$$$

 OpenBabel03242519263D

 40 43  0  0  0  0  0  0  0  0999 V2000
   39.6940   33.1890   40.4100 C   0  0  0  0  0  0  0  0  0  0  0  0
   38.6350   33.9600   39.9250 C   0  0  0  0  0  0  0  0  0  0  0  0
   37.3390   33.4230   39.8730 C   0  0  0  0  0  0  0  0  0  0  0  0
   37.2070   32.1330   40.3180 N   0  0  0  0  0  0  0  0  0  0  0  0
   38.2480   31.4130   40.7800 C   0  0  0  0  0  0  0  0  0  0  0  0
   39.4770   31.9370   40.8260 N   0  0  0  0  0  0  0  0  0  0  0  0
   38.6410   34.9750   39.5570 H   0  0  0  0  0  0  0  0  0  0  0  0
   36.4730   33.9580   39.5110 H   0  0  0  0  0  0  0  0  0  0  0  0
   41.0120   33.8540   40.4150 C   0  0  0  0  0  0  0  0  0  0  0  0
   41.1880   34.8310   39.3410 C   0  0  0  0  0  0  0  0  0  0  0  0
   42.1770   34.4310   38.3060 C   0  0  0  0  0  0  0  0  0  0  0  0
   43.5330   34.0640   38.8910 C   0  0  0  0  0  0  0  0  0  0  0  0
   43.4460   33.3100   40.1970 C   0  0  0  0  0  0  0  0  0  0  0  0
   42.0650   32.7320   40.4060 C   0  0  0  0  0  0  0  0  0  0  0  0
   41.1300   34.2960   41.4500 H   0  0  0  0  0  0  0  0  0  0  0  0
   40.2670   35.1400   38.8120 H   0  0  0  0  0  0  0  0  0  0  0  0
   41.5770   35.7880   39.7910 H   0  0  0  0  0  0  0  0  0  0  0  0
   41.9040   33.6060   37.6460 H   0  0  0  0  0  0  0  0  0  0  0  0
   42.3660   35.3060   37.6220 H   0  0  0  0  0  0  0  0  0  0  0  0
   44.0990   33.4320   38.1730 H   0  0  0  0  0  0  0  0  0  0  0  0
   44.1320   34.9900   39.0820 H   0  0  0  0  0  0  0  0  0  0  0  0
   43.6780   33.9500   41.0830 H   0  0  0  0  0  0  0  0  0  0  0  0
   44.1560   32.4710   40.2440 H   0  0  0  0  0  0  0  0  0  0  0  0
   42.0340   32.2360   41.3760 H   0  0  0  0  0  0  0  0  0  0  0  0
   41.7920   32.0490   39.5710 H   0  0  0  0  0  0  0  0  0  0  0  0
   37.9610   30.0420   41.2280 C   0  0  0  0  0  0  0  0  0  0  0  0
   36.6310   29.7570   41.4130 N   0  0  0  0  0  0  0  0  0  0  0  0
   36.5490   28.4690   41.8260 C   0  0  0  0  0  0  0  0  0  0  0  0
   37.8340   27.9830   41.8900 N   0  0  0  0  0  0  0  0  0  0  0  0
   38.6720   28.9390   41.5280 N   0  0  0  0  0  0  0  0  0  0  0  0
   35.7110   27.8670   42.0760 H   0  0  0  0  0  0  0  0  0  0  0  0
   38.3380   26.7000   42.2610 C   0  0  0  0  0  0  0  0  0  0  0  0
   37.8760   25.4570   41.8660 C   0  0  0  0  0  0  0  0  0  0  0  0
   37.0290   25.4930   41.1950 H   0  0  0  0  0  0  0  0  0  0  0  0
   38.5160   24.3280   42.3510 C   0  0  0  0  0  3  0  0  0  0  0  0
   39.5920   24.4290   43.2080 C   0  0  0  0  0  0  0  0  0  0  0  0
   40.0780   23.5220   43.5730 H   0  0  0  0  0  0  0  0  0  0  0  0
   40.0640   25.6780   43.6100 C   0  0  0  0  0  0  0  0  0  0  0  0
   40.9120   25.7000   44.2860 H   0  0  0  0  0  0  0  0  0  0  0  0
   39.4240   26.7990   43.1270 C   0  0  0  0  0  3  0  0  0  0  0  0
  1  9  1  0  0  0  0
  1  6  1  0  0  0  0
  2  1  2  0  0  0  0
  3  2  1  0  0  0  0
  3  4  2  0  0  0  0
  4  5  1  0  0  0  0
  5  6  2  0  0  0  0
  5 26  1  0  0  0  0
  7  2  1  0  0  0  0
  8  3  1  0  0  0  0
  9 15  1  0  0  0  0
 10 17  1  0  0  0  0
 10  9  1  0  0  0  0
 11 12  1  0  0  0  0
 11 10  1  0  0  0  0
 12 21  1  0  0  0  0
 12 13  1  0  0  0  0
 13 23  1  0  0  0  0
 13 14  1  0  0  0  0
 13 22  1  0  0  0  0
 14  9  1  0  0  0  0
 14 24  1  0  0  0  0
 16 10  1  0  0  0  0
 18 11  1  0  0  0  0
 19 11  1  0  0  0  0
 20 12  1  0  0  0  0
 25 14  1  0  0  0  0
 26 27  1  0  0  0  0
 26 30  2  0  0  0  0
 27 28  2  0  0  0  0
 28 29  1  0  0  0  0
 28 31  1  0  0  0  0
 29 32  1  0  0  0  0
 30 29  1  0  0  0  0
 32 40  1  0  0  0  0
 33 32  2  0  0  0  0
 33 35  1  0  0  0  0
 34 33  1  0  0  0  0
 35 36  2  0  0  0  0
 36 37  1  0  0  0  0
 36 38  1  0  0  0  0
 38 39  1  0  0  0  0
 40 38  2  0  0  0  0
M  END
>  <minimizedAffinity>
-6.0191288

$$$$

 OpenBabel03242519263D

 40 43  0  0  0  0  0  0  0  0999 V2000
   37.1330   28.4400   41.7220 C   0  0  0  0  0  0  0  0  0  0  0  0
   35.8250   28.5350   41.2420 C   0  0  0  0  0  0  0  0  0  0  0  0
   35.4310   29.6490   40.4850 C   0  0  0  0  0  0  0  0  0  0  0  0
   36.3960   30.5960   40.2680 N   0  0  0  0  0  0  0  0  0  0  0  0
   37.6520   30.4790   40.7440 C   0  0  0  0  0  0  0  0  0  0  0  0
   38.0140   29.4120   41.4630 N   0  0  0  0  0  0  0  0  0  0  0  0
   35.0010   27.8450   41.3610 H   0  0  0  0  0  0  0  0  0  0  0  0
   34.4380   29.7900   40.0820 H   0  0  0  0  0  0  0  0  0  0  0  0
   37.4340   27.2280   42.5100 C   0  0  0  0  0  0  0  0  0  0  0  0
   38.0980   27.4980   43.7850 C   0  0  0  0  0  0  0  0  0  0  0  0
   39.5100   27.0380   43.8490 C   0  0  0  0  0  0  0  0  0  0  0  0
   39.6720   25.5680   43.4880 C   0  0  0  0  0  0  0  0  0  0  0  0
   38.7720   25.1170   42.3620 C   0  0  0  0  0  0  0  0  0  0  0  0
   38.2340   26.2950   41.5830 C   0  0  0  0  0  0  0  0  0  0  0  0
   36.4500   26.6820   42.6210 H   0  0  0  0  0  0  0  0  0  0  0  0
   38.0790   28.5500   44.1270 H   0  0  0  0  0  0  0  0  0  0  0  0
   37.5500   26.9390   44.5950 H   0  0  0  0  0  0  0  0  0  0  0  0
   40.2390   27.5770   43.2410 H   0  0  0  0  0  0  0  0  0  0  0  0
   39.8790   27.1350   44.9080 H   0  0  0  0  0  0  0  0  0  0  0  0
   40.7220   25.3650   43.1840 H   0  0  0  0  0  0  0  0  0  0  0  0
   39.4400   24.9270   44.3750 H   0  0  0  0  0  0  0  0  0  0  0  0
   37.8940   24.5250   42.7200 H   0  0  0  0  0  0  0  0  0  0  0  0
   39.2940   24.4680   41.6440 H   0  0  0  0  0  0  0  0  0  0  0  0
   37.5570   25.9290   40.8120 H   0  0  0  0  0  0  0  0  0  0  0  0
   39.0660   26.9040   41.1640 H   0  0  0  0  0  0  0  0  0  0  0  0
   38.5860   31.5700   40.4310 C   0  0  0  0  0  0  0  0  0  0  0  0
   38.0750   32.8350   40.5790 N   0  0  0  0  0  0  0  0  0  0  0  0
   39.0570   33.7080   40.2480 C   0  0  0  0  0  0  0  0  0  0  0  0
   40.1590   32.9630   39.9010 N   0  0  0  0  0  0  0  0  0  0  0  0
   39.8620   31.6800   40.0160 N   0  0  0  0  0  0  0  0  0  0  0  0
   39.0710   34.7700   40.2270 H   0  0  0  0  0  0  0  0  0  0  0  0
   41.4630   33.3540   39.4720 C   0  0  0  0  0  0  0  0  0  0  0  0
   42.6170   33.4450   40.2300 C   0  0  0  0  0  0  0  0  0  0  0  0
   42.4840   33.1820   41.2700 H   0  0  0  0  0  0  0  0  0  0  0  0
   43.7870   33.8510   39.6080 C   0  0  0  0  0  3  0  0  0  0  0  0
   43.8130   34.1590   38.2640 C   0  0  0  0  0  0  0  0  0  0  0  0
   44.7490   34.4760   37.8010 H   0  0  0  0  0  0  0  0  0  0  0  0
   42.6540   34.0700   37.4930 C   0  0  0  0  0  0  0  0  0  0  0  0
   42.7300   34.3240   36.4420 H   0  0  0  0  0  0  0  0  0  0  0  0
   41.4920   33.6670   38.1150 C   0  0  0  0  0  3  0  0  0  0  0  0
  1  9  1  0  0  0  0
  2  7  1  0  0  0  0
  2  1  2  0  0  0  0
  3  2  1  0  0  0  0
  4  3  2  0  0  0  0
  4  5  1  0  0  0  0
  5  6  2  0  0  0  0
  6  1  1  0  0  0  0
  8  3  1  0  0  0  0
  9 15  1  0  0  0  0
  9 10  1  0  0  0  0
 10 11  1  0  0  0  0
 10 16  1  0  0  0  0
 10 17  1  0  0  0  0
 11 19  1  0  0  0  0
 12 11  1  0  0  0  0
 12 21  1  0  0  0  0
 13 22  1  0  0  0  0
 13 12  1  0  0  0  0
 14 13  1  0  0  0  0
 14  9  1  0  0  0  0
 18 11  1  0  0  0  0
 20 12  1  0  0  0  0
 23 13  1  0  0  0  0
 24 14  1  0  0  0  0
 25 14  1  0  0  0  0
 26 27  1  0  0  0  0
 26  5  1  0  0  0  0
 28 27  2  0  0  0  0
 29 30  1  0  0  0  0
 29 28  1  0  0  0  0
 30 26  2  0  0  0  0
 31 28  1  0  0  0  0
 32 29  1  0  0  0  0
 32 33  1  0  0  0  0
 33 34  1  0  0  0  0
 35 33  2  0  0  0  0
 36 35  1  0  0  0  0
 37 36  1  0  0  0  0
 38 40  1  0  0  0  0
 38 36  2  0  0  0  0
 39 38  1  0  0  0  0
 40 32  2  0  0  0  0
M  END
>  <minimizedAffinity>
-5.99073982

$$$$

 OpenBabel03242519263D

 40 43  0  0  0  0  0  0  0  0999 V2000
   40.7070   33.6480   39.0740 C   0  0  0  0  0  0  0  0  0  0  0  0
   40.4330   34.8460   39.7370 C   0  0  0  0  0  0  0  0  0  0  0  0
   39.3880   34.9110   40.6720 C   0  0  0  0  0  0  0  0  0  0  0  0
   38.6890   33.7490   40.8700 N   0  0  0  0  0  0  0  0  0  0  0  0
   38.9760   32.6070   40.2150 C   0  0  0  0  0  0  0  0  0  0  0  0
   39.9750   32.5590   39.3280 N   0  0  0  0  0  0  0  0  0  0  0  0
   40.9240   35.8050   39.6490 H   0  0  0  0  0  0  0  0  0  0  0  0
   39.1190   35.8010   41.2230 H   0  0  0  0  0  0  0  0  0  0  0  0
   41.8240   33.6980   38.1100 C   0  0  0  0  0  0  0  0  0  0  0  0
   41.8190   32.6040   37.1390 C   0  0  0  0  0  0  0  0  0  0  0  0
   42.9320   31.6320   37.3060 C   0  0  0  0  0  0  0  0  0  0  0  0
   44.3010   32.2960   37.3240 C   0  0  0  0  0  0  0  0  0  0  0  0
   44.3260   33.6180   38.0530 C   0  0  0  0  0  0  0  0  0  0  0  0
   43.1150   33.7760   38.9440 C   0  0  0  0  0  0  0  0  0  0  0  0
   41.7740   34.7230   37.6340 H   0  0  0  0  0  0  0  0  0  0  0  0
   40.8820   32.0210   37.0720 H   0  0  0  0  0  0  0  0  0  0  0  0
   41.9410   33.0430   36.1090 H   0  0  0  0  0  0  0  0  0  0  0  0
   42.9020   30.9860   38.1850 H   0  0  0  0  0  0  0  0  0  0  0  0
   42.9420   30.9320   36.4250 H   0  0  0  0  0  0  0  0  0  0  0  0
   45.0420   31.6260   37.8130 H   0  0  0  0  0  0  0  0  0  0  0  0
   44.6480   32.4870   36.2770 H   0  0  0  0  0  0  0  0  0  0  0  0
   44.3470   34.4950   37.3600 H   0  0  0  0  0  0  0  0  0  0  0  0
   45.2130   33.7260   38.6940 H   0  0  0  0  0  0  0  0  0  0  0  0
   43.1490   34.7580   39.4150 H   0  0  0  0  0  0  0  0  0  0  0  0
   43.0620   32.9510   39.6870 H   0  0  0  0  0  0  0  0  0  0  0  0
   38.1460   31.4350   40.5290 C   0  0  0  0  0  0  0  0  0  0  0  0
   36.7920   31.6560   40.5030 N   0  0  0  0  0  0  0  0  0  0  0  0
   36.1850   30.4860   40.8160 C   0  0  0  0  0  0  0  0  0  0  0  0
   37.1800   29.5620   41.0310 N   0  0  0  0  0  0  0  0  0  0  0  0
   38.3530   30.1450   40.8540 N   0  0  0  0  0  0  0  0  0  0  0  0
   35.1570   30.2330   40.9050 H   0  0  0  0  0  0  0  0  0  0  0  0
   37.1200   28.1800   41.3860 C   0  0  0  0  0  0  0  0  0  0  0  0
   37.1040   27.6270   42.6540 C   0  0  0  0  0  0  0  0  0  0  0  0
   37.1440   28.3530   43.4540 H   0  0  0  0  0  0  0  0  0  0  0  0
   37.0440   26.2480   42.7740 C   0  0  0  0  0  3  0  0  0  0  0  0
   36.9990   25.4350   41.6610 C   0  0  0  0  0  0  0  0  0  0  0  0
   36.9520   24.3510   41.7860 H   0  0  0  0  0  0  0  0  0  0  0  0
   37.0140   25.9840   40.3790 C   0  0  0  0  0  0  0  0  0  0  0  0
   36.9780   25.3000   39.5390 H   0  0  0  0  0  0  0  0  0  0  0  0
   37.0760   27.3560   40.2640 C   0  0  0  0  0  3  0  0  0  0  0  0
  1  6  2  0  0  0  0
  1  2  1  0  0  0  0
  2  3  2  0  0  0  0
  3  4  1  0  0  0  0
  3  8  1  0  0  0  0
  5 26  1  0  0  0  0
  5  4  2  0  0  0  0
  6  5  1  0  0  0  0
  7  2  1  0  0  0  0
  9 14  1  0  0  0  0
  9  1  1  0  0  0  0
 10 11  1  0  0  0  0
 10  9  1  0  0  0  0
 11 12  1  0  0  0  0
 11 18  1  0  0  0  0
 12 20  1  0  0  0  0
 12 13  1  0  0  0  0
 13 23  1  0  0  0  0
 13 14  1  0  0  0  0
 14 24  1  0  0  0  0
 14 25  1  0  0  0  0
 15  9  1  0  0  0  0
 16 10  1  0  0  0  0
 17 10  1  0  0  0  0
 19 11  1  0  0  0  0
 21 12  1  0  0  0  0
 22 13  1  0  0  0  0
 26 30  2  0  0  0  0
 27 26  1  0  0  0  0
 27 28  2  0  0  0  0
 28 31  1  0  0  0  0
 28 29  1  0  0  0  0
 29 32  1  0  0  0  0
 30 29  1  0  0  0  0
 32 33  1  0  0  0  0
 33 35  2  0  0  0  0
 33 34  1  0  0  0  0
 36 37  1  0  0  0  0
 36 35  1  0  0  0  0
 38 36  2  0  0  0  0
 39 38  1  0  0  0  0
 40 38  1  0  0  0  0
 40 32  2  0  0  0  0
M  END
>  <minimizedAffinity>
-5.97180891

$$$$

 OpenBabel03242519263D

 40 43  0  0  0  0  0  0  0  0999 V2000
   32.6640   29.2380   37.0780 C   0  0  0  0  0  0  0  0  0  0  0  0
   33.3000   29.1840   35.8350 C   0  0  0  0  0  0  0  0  0  0  0  0
   34.6670   28.8790   35.7560 C   0  0  0  0  0  0  0  0  0  0  0  0
   35.2990   28.6500   36.9510 N   0  0  0  0  0  0  0  0  0  0  0  0
   34.6600   28.7100   38.1360 C   0  0  0  0  0  0  0  0  0  0  0  0
   33.3560   29.0000   38.1960 N   0  0  0  0  0  0  0  0  0  0  0  0
   32.8890   29.3470   34.8490 H   0  0  0  0  0  0  0  0  0  0  0  0
   35.2250   28.8190   34.8330 H   0  0  0  0  0  0  0  0  0  0  0  0
   31.2260   29.5730   37.0400 C   0  0  0  0  0  0  0  0  0  0  0  0
   30.8780   30.5840   36.0430 C   0  0  0  0  0  0  0  0  0  0  0  0
   30.4470   31.8860   36.6170 C   0  0  0  0  0  0  0  0  0  0  0  0
   29.3130   31.7450   37.6220 C   0  0  0  0  0  0  0  0  0  0  0  0
   29.4300   30.5240   38.5020 C   0  0  0  0  0  0  0  0  0  0  0  0
   30.8330   29.9620   38.4770 C   0  0  0  0  0  0  0  0  0  0  0  0
   30.6860   28.5900   36.8930 H   0  0  0  0  0  0  0  0  0  0  0  0
   31.6510   30.8010   35.2830 H   0  0  0  0  0  0  0  0  0  0  0  0
   30.0040   30.2040   35.4420 H   0  0  0  0  0  0  0  0  0  0  0  0
   31.2090   32.4910   37.1100 H   0  0  0  0  0  0  0  0  0  0  0  0
   30.0440   32.5360   35.7900 H   0  0  0  0  0  0  0  0  0  0  0  0
   29.2790   32.6370   38.2840 H   0  0  0  0  0  0  0  0  0  0  0  0
   28.3320   31.6760   37.0870 H   0  0  0  0  0  0  0  0  0  0  0  0
   28.7360   29.7030   38.1990 H   0  0  0  0  0  0  0  0  0  0  0  0
   29.1900   30.7410   39.5540 H   0  0  0  0  0  0  0  0  0  0  0  0
   30.8620   29.0590   39.0870 H   0  0  0  0  0  0  0  0  0  0  0  0
   31.5700   30.7240   38.8100 H   0  0  0  0  0  0  0  0  0  0  0  0
   35.4610   28.4380   39.3380 C   0  0  0  0  0  0  0  0  0  0  0  0
   35.3950   29.4030   40.3120 N   0  0  0  0  0  0  0  0  0  0  0  0
   36.1870   28.9990   41.3340 C   0  0  0  0  0  0  0  0  0  0  0  0
   36.7290   27.7900   40.9700 N   0  0  0  0  0  0  0  0  0  0  0  0
   36.2850   27.4650   39.7690 N   0  0  0  0  0  0  0  0  0  0  0  0
   36.4100   29.4540   42.2680 H   0  0  0  0  0  0  0  0  0  0  0  0
   37.6280   26.9170   41.6550 C   0  0  0  0  0  0  0  0  0  0  0  0
   37.9230   25.5970   41.3620 C   0  0  0  0  0  0  0  0  0  0  0  0
   37.3940   25.2070   40.5040 H   0  0  0  0  0  0  0  0  0  0  0  0
   38.8320   24.9280   42.1640 C   0  0  0  0  0  3  0  0  0  0  0  0
   39.4370   25.5530   43.2350 C   0  0  0  0  0  0  0  0  0  0  0  0
   40.1490   25.0010   43.8500 H   0  0  0  0  0  0  0  0  0  0  0  0
   39.1450   26.8830   43.5380 C   0  0  0  0  0  0  0  0  0  0  0  0
   39.6470   27.3260   44.3910 H   0  0  0  0  0  0  0  0  0  0  0  0
   38.2390   27.5450   42.7380 C   0  0  0  0  0  3  0  0  0  0  0  0
  1  6  1  0  0  0  0
  2  1  2  0  0  0  0
  3  2  1  0  0  0  0
  3  4  2  0  0  0  0
  4  5  1  0  0  0  0
  5  6  2  0  0  0  0
  5 26  1  0  0  0  0
  7  2  1  0  0  0  0
  8  3  1  0  0  0  0
  9  1  1  0  0  0  0
  9 14  1  0  0  0  0
 10 11  1  0  0  0  0
 10  9  1  0  0  0  0
 11 18  1  0  0  0  0
 11 12  1  0  0  0  0
 12 20  1  0  0  0  0
 12 13  1  0  0  0  0
 13 23  1  0  0  0  0
 14 13  1  0  0  0  0
 14 25  1  0  0  0  0
 14 24  1  0  0  0  0
 15  9  1  0  0  0  0
 16 10  1  0  0  0  0
 17 10  1  0  0  0  0
 19 11  1  0  0  0  0
 21 12  1  0  0  0  0
 22 13  1  0  0  0  0
 26 30  2  0  0  0  0
 26 27  1  0  0  0  0
 27 28  2  0  0  0  0
 28 31  1  0  0  0  0
 29 28  1  0  0  0  0
 29 32  1  0  0  0  0
 30 29  1  0  0  0  0
 32 40  1  0  0  0  0
 33 32  2  0  0  0  0
 33 35  1  0  0  0  0
 34 33  1  0  0  0  0
 35 36  2  0  0  0  0
 36 38  1  0  0  0  0
 36 37  1  0  0  0  0
 38 39  1  0  0  0  0
 40 38  2  0  0  0  0
M  END
>  <minimizedAffinity>
-5.92398167

$$$$

 OpenBabel03242519263D

 40 43  0  0  0  0  0  0  0  0999 V2000
   38.0210   24.8980   41.7390 C   0  0  0  0  0  0  0  0  0  0  0  0
   39.0280   24.6770   42.6820 C   0  0  0  0  0  0  0  0  0  0  0  0
   39.6950   25.7640   43.2670 C   0  0  0  0  0  0  0  0  0  0  0  0
   39.2930   27.0070   42.8520 N   0  0  0  0  0  0  0  0  0  0  0  0
   38.3180   27.1900   41.9400 C   0  0  0  0  0  0  0  0  0  0  0  0
   37.6900   26.1450   41.3910 N   0  0  0  0  0  0  0  0  0  0  0  0
   39.4100   23.7440   43.0680 H   0  0  0  0  0  0  0  0  0  0  0  0
   40.4820   25.6710   44.0020 H   0  0  0  0  0  0  0  0  0  0  0  0
   37.3910   23.6810   41.1870 C   0  0  0  0  0  0  0  0  0  0  0  0
   38.3330   22.7650   40.5450 C   0  0  0  0  0  0  0  0  0  0  0  0
   38.1810   22.6650   39.0690 C   0  0  0  0  0  0  0  0  0  0  0  0
   36.7600   22.3230   38.6420 C   0  0  0  0  0  0  0  0  0  0  0  0
   35.6970   22.9960   39.4760 C   0  0  0  0  0  0  0  0  0  0  0  0
   36.2650   24.1610   40.2540 C   0  0  0  0  0  0  0  0  0  0  0  0
   36.8210   23.2140   42.0440 H   0  0  0  0  0  0  0  0  0  0  0  0
   39.4040   22.9490   40.7520 H   0  0  0  0  0  0  0  0  0  0  0  0
   38.1520   21.7290   40.9480 H   0  0  0  0  0  0  0  0  0  0  0  0
   38.4690   23.5350   38.4770 H   0  0  0  0  0  0  0  0  0  0  0  0
   38.8260   21.8230   38.6900 H   0  0  0  0  0  0  0  0  0  0  0  0
   36.6000   22.6220   37.5840 H   0  0  0  0  0  0  0  0  0  0  0  0
   36.5930   21.2190   38.7170 H   0  0  0  0  0  0  0  0  0  0  0  0
   35.2210   22.3030   40.2130 H   0  0  0  0  0  0  0  0  0  0  0  0
   34.8720   23.3900   38.8640 H   0  0  0  0  0  0  0  0  0  0  0  0
   35.4770   24.5880   40.8740 H   0  0  0  0  0  0  0  0  0  0  0  0
   36.7190   24.9090   39.5690 H   0  0  0  0  0  0  0  0  0  0  0  0
   37.9870   28.5790   41.5910 C   0  0  0  0  0  0  0  0  0  0  0  0
   36.6450   28.8670   41.5590 N   0  0  0  0  0  0  0  0  0  0  0  0
   36.5210   30.1730   41.2190 C   0  0  0  0  0  0  0  0  0  0  0  0
   37.7920   30.6670   41.0460 N   0  0  0  0  0  0  0  0  0  0  0  0
   38.6630   29.6990   41.2730 N   0  0  0  0  0  0  0  0  0  0  0  0
   35.6610   30.7820   41.0860 H   0  0  0  0  0  0  0  0  0  0  0  0
   38.2550   31.9690   40.6870 C   0  0  0  0  0  0  0  0  0  0  0  0
   37.5170   33.0270   40.1860 C   0  0  0  0  0  0  0  0  0  0  0  0
   36.4660   32.8110   40.0600 H   0  0  0  0  0  0  0  0  0  0  0  0
   38.1720   34.2140   39.9010 C   0  0  0  0  0  3  0  0  0  0  0  0
   39.5280   34.3510   40.1100 C   0  0  0  0  0  0  0  0  0  0  0  0
   40.0180   35.2980   39.8770 H   0  0  0  0  0  0  0  0  0  0  0  0
   40.2790   33.2900   40.6160 C   0  0  0  0  0  0  0  0  0  0  0  0
   41.3420   33.4500   40.7600 H   0  0  0  0  0  0  0  0  0  0  0  0
   39.6250   32.1090   40.8970 C   0  0  0  0  0  3  0  0  0  0  0  0
  1  2  1  0  0  0  0
  2  7  1  0  0  0  0
  2  3  2  0  0  0  0
  3  8  1  0  0  0  0
  4  3  1  0  0  0  0
  5  4  2  0  0  0  0
  6  1  2  0  0  0  0
  6  5  1  0  0  0  0
  9  1  1  0  0  0  0
  9 15  1  0  0  0  0
 10 16  1  0  0  0  0
 10 17  1  0  0  0  0
 10  9  1  0  0  0  0
 11 10  1  0  0  0  0
 12 21  1  0  0  0  0
 12 11  1  0  0  0  0
 12 13  1  0  0  0  0
 13 22  1  0  0  0  0
 13 14  1  0  0  0  0
 14 24  1  0  0  0  0
 14  9  1  0  0  0  0
 18 11  1  0  0  0  0
 19 11  1  0  0  0  0
 20 12  1  0  0  0  0
 23 13  1  0  0  0  0
 25 14  1  0  0  0  0
 26  5  1  0  0  0  0
 27 26  1  0  0  0  0
 28 27  2  0  0  0  0
 29 28  1  0  0  0  0
 29 30  1  0  0  0  0
 30 26  2  0  0  0  0
 31 28  1  0  0  0  0
 32 40  1  0  0  0  0
 32 29  1  0  0  0  0
 33 32  2  0  0  0  0
 34 33  1  0  0  0  0
 35 36  2  0  0  0  0
 35 33  1  0  0  0  0
 36 38  1  0  0  0  0
 37 36  1  0  0  0  0
 38 39  1  0  0  0  0
 38 40  2  0  0  0  0
M  END
>  <minimizedAffinity>
-5.74777603

$$$$

 OpenBabel03242519263D

 40 43  0  0  0  0  0  0  0  0999 V2000
   36.8450   26.9540   39.7800 C   0  0  0  0  0  0  0  0  0  0  0  0
   37.2100   25.7010   39.2820 C   0  0  0  0  0  0  0  0  0  0  0  0
   36.5470   25.1670   38.1660 C   0  0  0  0  0  0  0  0  0  0  0  0
   35.5540   25.9440   37.6310 N   0  0  0  0  0  0  0  0  0  0  0  0
   35.2220   27.1500   38.1340 C   0  0  0  0  0  0  0  0  0  0  0  0
   35.8630   27.6480   39.1960 N   0  0  0  0  0  0  0  0  0  0  0  0
   37.9730   25.0220   39.6320 H   0  0  0  0  0  0  0  0  0  0  0  0
   36.7740   24.2060   37.7260 H   0  0  0  0  0  0  0  0  0  0  0  0
   37.6060   27.4150   40.9590 C   0  0  0  0  0  0  0  0  0  0  0  0
   37.4510   26.5600   42.1360 C   0  0  0  0  0  0  0  0  0  0  0  0
   36.6990   27.1890   43.2530 C   0  0  0  0  0  0  0  0  0  0  0  0
   37.2700   28.5360   43.6690 C   0  0  0  0  0  0  0  0  0  0  0  0
   37.7570   29.3730   42.5110 C   0  0  0  0  0  0  0  0  0  0  0  0
   37.1920   28.8770   41.1990 C   0  0  0  0  0  0  0  0  0  0  0  0
   38.6780   27.5150   40.6120 H   0  0  0  0  0  0  0  0  0  0  0  0
   37.0020   25.5650   41.9560 H   0  0  0  0  0  0  0  0  0  0  0  0
   38.4760   26.3270   42.5420 H   0  0  0  0  0  0  0  0  0  0  0  0
   35.6300   27.3500   43.1060 H   0  0  0  0  0  0  0  0  0  0  0  0
   36.7750   26.5290   44.1630 H   0  0  0  0  0  0  0  0  0  0  0  0
   36.4990   29.1250   44.2110 H   0  0  0  0  0  0  0  0  0  0  0  0
   38.1380   28.3880   44.3600 H   0  0  0  0  0  0  0  0  0  0  0  0
   38.8710   29.3750   42.4150 H   0  0  0  0  0  0  0  0  0  0  0  0
   37.4670   30.4300   42.6060 H   0  0  0  0  0  0  0  0  0  0  0  0
   37.6020   29.4780   40.3880 H   0  0  0  0  0  0  0  0  0  0  0  0
   36.0800   28.8910   41.2180 H   0  0  0  0  0  0  0  0  0  0  0  0
   34.1380   27.8770   37.4570 C   0  0  0  0  0  0  0  0  0  0  0  0
   33.8720   27.4650   36.1750 N   0  0  0  0  0  0  0  0  0  0  0  0
   32.8620   28.2360   35.7050 C   0  0  0  0  0  0  0  0  0  0  0  0
   32.5230   29.1120   36.7090 N   0  0  0  0  0  0  0  0  0  0  0  0
   33.2980   28.8850   37.7560 N   0  0  0  0  0  0  0  0  0  0  0  0
   32.3640   28.2410   34.7670 H   0  0  0  0  0  0  0  0  0  0  0  0
   31.5350   30.1410   36.7660 C   0  0  0  0  0  0  0  0  0  0  0  0
   30.7490   30.5080   37.8450 C   0  0  0  0  0  0  0  0  0  0  0  0
   30.9270   29.9270   38.7380 H   0  0  0  0  0  0  0  0  0  0  0  0
   29.8440   31.5440   37.6810 C   0  0  0  0  0  3  0  0  0  0  0  0
   29.7200   32.2030   36.4760 C   0  0  0  0  0  0  0  0  0  0  0  0
   28.9990   33.0150   36.3760 H   0  0  0  0  0  0  0  0  0  0  0  0
   30.5090   31.8400   35.3850 C   0  0  0  0  0  0  0  0  0  0  0  0
   30.3710   32.3890   34.4600 H   0  0  0  0  0  0  0  0  0  0  0  0
   31.4080   30.8080   35.5500 C   0  0  0  0  0  3  0  0  0  0  0  0
  1  9  1  0  0  0  0
  2  7  1  0  0  0  0
  2  1  1  0  0  0  0
  3  2  2  0  0  0  0
  4  5  2  0  0  0  0
  4  3  1  0  0  0  0
  5  6  1  0  0  0  0
  6  1  2  0  0  0  0
  8  3  1  0  0  0  0
  9 14  1  0  0  0  0
  9 10  1  0  0  0  0
 10 17  1  0  0  0  0
 10 11  1  0  0  0  0
 11 12  1  0  0  0  0
 11 19  1  0  0  0  0
 12 20  1  0  0  0  0
 12 21  1  0  0  0  0
 13 23  1  0  0  0  0
 13 12  1  0  0  0  0
 14 25  1  0  0  0  0
 14 13  1  0  0  0  0
 15  9  1  0  0  0  0
 16 10  1  0  0  0  0
 18 11  1  0  0  0  0
 22 13  1  0  0  0  0
 24 14  1  0  0  0  0
 26 30  2  0  0  0  0
 26  5  1  0  0  0  0
 27 26  1  0  0  0  0
 28 27  2  0  0  0  0
 28 29  1  0  0  0  0
 29 32  1  0  0  0  0
 29 30  1  0  0  0  0
 31 28  1  0  0  0  0
 32 33  1  0  0  0  0
 33 34  1  0  0  0  0
 35 33  2  0  0  0  0
 36 35  1  0  0  0  0
 37 36  1  0  0  0  0
 38 40  1  0  0  0  0
 38 36  2  0  0  0  0
 39 38  1  0  0  0  0
 40 32  2  0  0  0  0
M  END
>  <minimizedAffinity>
-5.69081688

$$$$
