
 OpenBabel03252503363D

 22 23  0  0  0  0  0  0  0  0999 V2000
   37.2540   28.3750   41.2080 C   0  0  0  0  0  0  0  0  0  0  0  0
   36.9540   29.0420   42.2310 O   0  0  0  0  0  0  0  0  0  0  0  0
   37.7900   29.1400   40.1380 N   0  0  0  0  0  0  0  0  0  0  0  0
   38.0420   28.6560   39.2480 H   0  0  0  0  0  0  0  0  0  0  0  0
   37.3020   32.8180   39.8720 C   0  0  0  0  0  0  0  0  0  0  0  0
   37.0640   31.4390   39.7310 C   0  0  0  0  0  0  0  0  0  0  0  0
   37.9880   30.5470   40.2560 C   0  0  0  0  0  0  0  0  0  0  0  0
   39.0860   31.0320   40.8880 N   0  0  0  0  0  0  0  0  0  0  0  0
   39.2890   32.3680   41.0090 C   0  0  0  0  0  0  0  0  0  0  0  0
   38.4090   33.2380   40.5090 N   0  0  0  0  0  0  0  0  0  0  0  0
   36.6280   33.5610   39.4880 H   0  0  0  0  0  0  0  0  0  0  0  0
   36.1720   31.0980   39.2180 H   0  0  0  0  0  0  0  0  0  0  0  0
   40.2170   32.5630   41.5410 H   0  0  0  0  0  0  0  0  0  0  0  0
   37.0520   26.9510   41.1740 C   0  0  0  0  0  0  0  0  0  0  0  0
   36.7360   26.3740   39.9600 C   0  0  0  0  0  0  0  0  0  0  0  0
   36.6260   26.9110   39.0160 H   0  0  0  0  0  0  0  0  0  0  0  0
   36.5300   24.9930   39.8800 C   0  0  0  0  0  3  0  0  0  0  0  0
   36.6430   24.1930   41.0220 C   0  0  0  0  0  0  0  0  0  0  0  0
   36.4880   23.1230   40.9840 H   0  0  0  0  0  0  0  0  0  0  0  0
   36.9630   24.8160   42.2190 C   0  0  0  0  0  0  0  0  0  0  0  0
   37.0560   24.2090   43.1230 H   0  0  0  0  0  0  0  0  0  0  0  0
   37.1670   26.1820   42.3100 C   0  0  0  0  0  3  0  0  0  0  0  0
  1  2  2  0  0  0  0
  3  7  1  0  0  0  0
  3  1  1  0  0  0  0
  4  3  1  0  0  0  0
  5 10  1  0  0  0  0
  6  5  2  0  0  0  0
  6  7  1  0  0  0  0
  7  8  2  0  0  0  0
  8  9  1  0  0  0  0
  9 13  1  0  0  0  0
 10  9  2  0  0  0  0
 11  5  1  0  0  0  0
 12  6  1  0  0  0  0
 14  1  1  0  0  0  0
 14 22  1  0  0  0  0
 15 14  2  0  0  0  0
 16 15  1  0  0  0  0
 17 15  1  0  0  0  0
 17 18  2  0  0  0  0
 18 20  1  0  0  0  0
 19 18  1  0  0  0  0
 20 22  2  0  0  0  0
 20 21  1  0  0  0  0
M  END
>  <minimizedAffinity>
-4.47509384

$$$$

 OpenBabel03252503363D

 22 23  0  0  0  0  0  0  0  0999 V2000
   37.2070   28.3280   41.1220 C   0  0  0  0  0  0  0  0  0  0  0  0
   36.8650   28.9780   42.1440 O   0  0  0  0  0  0  0  0  0  0  0  0
   37.7850   29.1100   40.0890 N   0  0  0  0  0  0  0  0  0  0  0  0
   38.0730   28.6410   39.2010 H   0  0  0  0  0  0  0  0  0  0  0  0
   37.3140   32.7930   39.8560 C   0  0  0  0  0  0  0  0  0  0  0  0
   37.0810   31.4160   39.6810 C   0  0  0  0  0  0  0  0  0  0  0  0
   37.9780   30.5150   40.2380 C   0  0  0  0  0  0  0  0  0  0  0  0
   39.0440   30.9890   40.9300 N   0  0  0  0  0  0  0  0  0  0  0  0
   39.2420   32.3220   41.0830 C   0  0  0  0  0  0  0  0  0  0  0  0
   38.3880   33.2010   40.5530 N   0  0  0  0  0  0  0  0  0  0  0  0
   36.6600   33.5430   39.4510 H   0  0  0  0  0  0  0  0  0  0  0  0
   36.2160   31.0850   39.1200 H   0  0  0  0  0  0  0  0  0  0  0  0
   40.1420   32.5070   41.6630 H   0  0  0  0  0  0  0  0  0  0  0  0
   37.0060   26.9050   41.0570 C   0  0  0  0  0  0  0  0  0  0  0  0
   37.1650   26.1770   42.2190 C   0  0  0  0  0  0  0  0  0  0  0  0
   37.4320   26.5930   43.1920 H   0  0  0  0  0  0  0  0  0  0  0  0
   36.9800   24.7900   42.2020 C   0  0  0  0  0  3  0  0  0  0  0  0
   36.6340   24.1380   41.0140 C   0  0  0  0  0  0  0  0  0  0  0  0
   36.4860   23.0660   40.9770 H   0  0  0  0  0  0  0  0  0  0  0  0
   36.4850   24.9090   39.8710 C   0  0  0  0  0  0  0  0  0  0  0  0
   36.2150   24.4180   38.9330 H   0  0  0  0  0  0  0  0  0  0  0  0
   36.6670   26.2820   39.8760 C   0  0  0  0  0  3  0  0  0  0  0  0
  1  2  2  0  0  0  0
  3  7  1  0  0  0  0
  3  1  1  0  0  0  0
  4  3  1  0  0  0  0
  5 10  1  0  0  0  0
  6  5  2  0  0  0  0
  6  7  1  0  0  0  0
  7  8  2  0  0  0  0
  8  9  1  0  0  0  0
  9 13  1  0  0  0  0
 10  9  2  0  0  0  0
 11  5  1  0  0  0  0
 12  6  1  0  0  0  0
 14  1  1  0  0  0  0
 14 15  1  0  0  0  0
 15 16  1  0  0  0  0
 17 15  2  0  0  0  0
 18 17  1  0  0  0  0
 19 18  1  0  0  0  0
 20 22  1  0  0  0  0
 20 18  2  0  0  0  0
 21 20  1  0  0  0  0
 22 14  2  0  0  0  0
M  END
>  <minimizedAffinity>
-4.46919775

$$$$

 OpenBabel03252503363D

 22 23  0  0  0  0  0  0  0  0999 V2000
   38.3720   28.9770   41.9710 C   0  0  0  0  0  0  0  0  0  0  0  0
   37.4910   29.6150   42.6030 O   0  0  0  0  0  0  0  0  0  0  0  0
   38.9180   29.6660   40.8570 N   0  0  0  0  0  0  0  0  0  0  0  0
   39.6400   29.1880   40.2720 H   0  0  0  0  0  0  0  0  0  0  0  0
   37.1140   32.5240   39.3030 C   0  0  0  0  0  0  0  0  0  0  0  0
   37.4900   31.2010   39.5990 C   0  0  0  0  0  0  0  0  0  0  0  0
   38.5030   30.9890   40.5240 C   0  0  0  0  0  0  0  0  0  0  0  0
   39.0940   32.0590   41.1100 N   0  0  0  0  0  0  0  0  0  0  0  0
   38.7100   33.3230   40.8060 C   0  0  0  0  0  0  0  0  0  0  0  0
   37.7380   33.5440   39.9180 N   0  0  0  0  0  0  0  0  0  0  0  0
   36.3400   32.7580   38.5970 H   0  0  0  0  0  0  0  0  0  0  0  0
   36.9880   30.3770   39.1050 H   0  0  0  0  0  0  0  0  0  0  0  0
   39.2950   34.0440   41.3720 H   0  0  0  0  0  0  0  0  0  0  0  0
   38.7590   27.6550   42.3860 C   0  0  0  0  0  0  0  0  0  0  0  0
   39.8320   27.5380   43.2480 C   0  0  0  0  0  0  0  0  0  0  0  0
   40.4150   28.3710   43.6450 H   0  0  0  0  0  0  0  0  0  0  0  0
   40.2440   26.2720   43.6770 C   0  0  0  0  0  3  0  0  0  0  0  0
   39.5760   25.1240   43.2390 C   0  0  0  0  0  0  0  0  0  0  0  0
   39.8780   24.1350   43.5580 H   0  0  0  0  0  0  0  0  0  0  0  0
   38.5040   25.2890   42.3740 C   0  0  0  0  0  0  0  0  0  0  0  0
   37.9690   24.4050   42.0200 H   0  0  0  0  0  0  0  0  0  0  0  0
   38.0880   26.5370   41.9420 C   0  0  0  0  0  3  0  0  0  0  0  0
  1 14  1  0  0  0  0
  1  2  2  0  0  0  0
  3  1  1  0  0  0  0
  4  3  1  0  0  0  0
  5  6  2  0  0  0  0
  5 10  1  0  0  0  0
  6  7  1  0  0  0  0
  7  3  1  0  0  0  0
  7  8  2  0  0  0  0
  9  8  1  0  0  0  0
  9 13  1  0  0  0  0
 10  9  2  0  0  0  0
 11  5  1  0  0  0  0
 12  6  1  0  0  0  0
 14 15  1  0  0  0  0
 15 16  1  0  0  0  0
 15 17  2  0  0  0  0
 18 19  1  0  0  0  0
 18 17  1  0  0  0  0
 20 18  2  0  0  0  0
 21 20  1  0  0  0  0
 22 20  1  0  0  0  0
 22 14  2  0  0  0  0
M  END
>  <minimizedAffinity>
-4.34940004

$$$$

 OpenBabel03252503363D

 22 23  0  0  0  0  0  0  0  0999 V2000
   38.4830   30.7790   41.0670 C   0  0  0  0  0  0  0  0  0  0  0  0
   37.8460   31.8290   40.7960 O   0  0  0  0  0  0  0  0  0  0  0  0
   39.8440   30.7910   40.6670 N   0  0  0  0  0  0  0  0  0  0  0  0
   40.4300   29.9440   40.8390 H   0  0  0  0  0  0  0  0  0  0  0  0
   41.1630   33.1190   38.0820 C   0  0  0  0  0  0  0  0  0  0  0  0
   40.5870   31.9730   38.6580 C   0  0  0  0  0  0  0  0  0  0  0  0
   40.4240   31.9320   40.0360 C   0  0  0  0  0  0  0  0  0  0  0  0
   40.8230   32.9940   40.7780 N   0  0  0  0  0  0  0  0  0  0  0  0
   41.3750   34.0870   40.1940 C   0  0  0  0  0  0  0  0  0  0  0  0
   41.5380   34.1420   38.8700 N   0  0  0  0  0  0  0  0  0  0  0  0
   41.3180   33.2160   37.0230 H   0  0  0  0  0  0  0  0  0  0  0  0
   40.2830   31.1480   38.0240 H   0  0  0  0  0  0  0  0  0  0  0  0
   41.6300   34.8300   40.9460 H   0  0  0  0  0  0  0  0  0  0  0  0
   37.8360   29.6790   41.7320 C   0  0  0  0  0  0  0  0  0  0  0  0
   38.2790   29.3390   42.9950 C   0  0  0  0  0  0  0  0  0  0  0  0
   39.0850   29.8370   43.5360 H   0  0  0  0  0  0  0  0  0  0  0  0
   37.6800   28.2760   43.6790 C   0  0  0  0  0  3  0  0  0  0  0  0
   36.6340   27.5570   43.0910 C   0  0  0  0  0  0  0  0  0  0  0  0
   36.1560   26.7300   43.6020 H   0  0  0  0  0  0  0  0  0  0  0  0
   36.2220   27.9340   41.8220 C   0  0  0  0  0  0  0  0  0  0  0  0
   35.4060   27.3840   41.3450 H   0  0  0  0  0  0  0  0  0  0  0  0
   36.8090   28.9830   41.1350 C   0  0  0  0  0  3  0  0  0  0  0  0
  1 14  1  0  0  0  0
  2  1  2  0  0  0  0
  3  4  1  0  0  0  0
  3  1  1  0  0  0  0
  5  6  2  0  0  0  0
  5 10  1  0  0  0  0
  6  7  1  0  0  0  0
  7  3  1  0  0  0  0
  7  8  2  0  0  0  0
  9  8  1  0  0  0  0
  9 13  1  0  0  0  0
 10  9  2  0  0  0  0
 11  5  1  0  0  0  0
 12  6  1  0  0  0  0
 14 15  1  0  0  0  0
 15 16  1  0  0  0  0
 15 17  2  0  0  0  0
 18 19  1  0  0  0  0
 18 17  1  0  0  0  0
 20 18  2  0  0  0  0
 21 20  1  0  0  0  0
 22 14  2  0  0  0  0
 22 20  1  0  0  0  0
M  END
>  <minimizedAffinity>
-4.25963116

$$$$

 OpenBabel03252503363D

 22 23  0  0  0  0  0  0  0  0999 V2000
   39.1720   30.2130   41.2320 C   0  0  0  0  0  0  0  0  0  0  0  0
   40.4170   30.2080   41.4120 O   0  0  0  0  0  0  0  0  0  0  0  0
   38.7070   31.2100   40.3350 N   0  0  0  0  0  0  0  0  0  0  0  0
   37.6820   31.2890   40.1540 H   0  0  0  0  0  0  0  0  0  0  0  0
   40.8410   34.1610   39.5750 C   0  0  0  0  0  0  0  0  0  0  0  0
   39.9480   33.3160   40.2580 C   0  0  0  0  0  0  0  0  0  0  0  0
   39.6090   32.1000   39.6800 C   0  0  0  0  0  0  0  0  0  0  0  0
   40.1500   31.7670   38.4820 N   0  0  0  0  0  0  0  0  0  0  0  0
   41.0090   32.6010   37.8470 C   0  0  0  0  0  0  0  0  0  0  0  0
   41.3450   33.7750   38.3890 N   0  0  0  0  0  0  0  0  0  0  0  0
   41.1440   35.1150   39.9640 H   0  0  0  0  0  0  0  0  0  0  0  0
   39.5410   33.6250   41.2130 H   0  0  0  0  0  0  0  0  0  0  0  0
   41.3350   32.1660   36.9050 H   0  0  0  0  0  0  0  0  0  0  0  0
   38.3290   29.2630   41.9070 C   0  0  0  0  0  0  0  0  0  0  0  0
   37.0980   28.9830   41.3480 C   0  0  0  0  0  0  0  0  0  0  0  0
   36.7070   29.4250   40.4300 H   0  0  0  0  0  0  0  0  0  0  0  0
   36.2440   28.0660   41.9700 C   0  0  0  0  0  3  0  0  0  0  0  0
   36.6310   27.4300   43.1550 C   0  0  0  0  0  0  0  0  0  0  0  0
   35.9870   26.7170   43.6530 H   0  0  0  0  0  0  0  0  0  0  0  0
   37.8760   27.7420   43.6800 C   0  0  0  0  0  0  0  0  0  0  0  0
   38.1980   27.2560   44.6050 H   0  0  0  0  0  0  0  0  0  0  0  0
   38.7290   28.6490   43.0730 C   0  0  0  0  0  3  0  0  0  0  0  0
  1  2  2  0  0  0  0
  1 14  1  0  0  0  0
  3  1  1  0  0  0  0
  4  3  1  0  0  0  0
  5 11  1  0  0  0  0
  5  6  1  0  0  0  0
  6 12  1  0  0  0  0
  7  6  2  0  0  0  0
  7  3  1  0  0  0  0
  8  7  1  0  0  0  0
  9 10  1  0  0  0  0
  9  8  2  0  0  0  0
 10  5  2  0  0  0  0
 13  9  1  0  0  0  0
 14 22  1  0  0  0  0
 15 14  2  0  0  0  0
 15 17  1  0  0  0  0
 16 15  1  0  0  0  0
 17 18  2  0  0  0  0
 18 19  1  0  0  0  0
 18 20  1  0  0  0  0
 20 21  1  0  0  0  0
 22 20  2  0  0  0  0
M  END
>  <minimizedAffinity>
-4.21595335

$$$$

 OpenBabel03252503363D

 22 23  0  0  0  0  0  0  0  0999 V2000
   38.4280   30.0410   40.8730 C   0  0  0  0  0  0  0  0  0  0  0  0
   38.9510   29.2480   40.0480 O   0  0  0  0  0  0  0  0  0  0  0  0
   38.0210   29.4430   42.0940 N   0  0  0  0  0  0  0  0  0  0  0  0
   37.5590   30.0370   42.8180 H   0  0  0  0  0  0  0  0  0  0  0  0
   39.4990   26.2460   43.2930 C   0  0  0  0  0  0  0  0  0  0  0  0
   39.3360   27.6250   43.0670 C   0  0  0  0  0  0  0  0  0  0  0  0
   38.2290   28.0550   42.3480 C   0  0  0  0  0  0  0  0  0  0  0  0
   37.3440   27.1360   41.8900 N   0  0  0  0  0  0  0  0  0  0  0  0
   37.5270   25.8120   42.1240 C   0  0  0  0  0  0  0  0  0  0  0  0
   38.5870   25.3830   42.8140 N   0  0  0  0  0  0  0  0  0  0  0  0
   40.3320   25.8470   43.8400 H   0  0  0  0  0  0  0  0  0  0  0  0
   40.0700   28.3230   43.4530 H   0  0  0  0  0  0  0  0  0  0  0  0
   36.7190   25.2340   41.6810 H   0  0  0  0  0  0  0  0  0  0  0  0
   38.2770   31.4360   40.5550 C   0  0  0  0  0  0  0  0  0  0  0  0
   39.1930   32.3210   41.0900 C   0  0  0  0  0  0  0  0  0  0  0  0
   40.0280   32.0500   41.7380 H   0  0  0  0  0  0  0  0  0  0  0  0
   39.0850   33.6870   40.8080 C   0  0  0  0  0  3  0  0  0  0  0  0
   38.0560   34.1610   39.9880 C   0  0  0  0  0  0  0  0  0  0  0  0
   37.9530   35.2140   39.7570 H   0  0  0  0  0  0  0  0  0  0  0  0
   37.1600   33.2360   39.4730 C   0  0  0  0  0  0  0  0  0  0  0  0
   36.3490   33.5860   38.8300 H   0  0  0  0  0  0  0  0  0  0  0  0
   37.2570   31.8820   39.7460 C   0  0  0  0  0  3  0  0  0  0  0  0
  1  3  1  0  0  0  0
  2  1  2  0  0  0  0
  3  7  1  0  0  0  0
  3  4  1  0  0  0  0
  5 11  1  0  0  0  0
  6  5  1  0  0  0  0
  6 12  1  0  0  0  0
  7  6  2  0  0  0  0
  8  9  2  0  0  0  0
  8  7  1  0  0  0  0
  9 10  1  0  0  0  0
 10  5  2  0  0  0  0
 13  9  1  0  0  0  0
 14  1  1  0  0  0  0
 14 15  1  0  0  0  0
 15 16  1  0  0  0  0
 17 15  2  0  0  0  0
 18 17  1  0  0  0  0
 19 18  1  0  0  0  0
 20 22  1  0  0  0  0
 20 18  2  0  0  0  0
 21 20  1  0  0  0  0
 22 14  2  0  0  0  0
M  END
>  <minimizedAffinity>
-4.2111125

$$$$

 OpenBabel03252503363D

 22 23  0  0  0  0  0  0  0  0999 V2000
   35.9060   28.6510   39.1280 C   0  0  0  0  0  0  0  0  0  0  0  0
   37.1090   28.3530   38.9100 O   0  0  0  0  0  0  0  0  0  0  0  0
   35.5690   28.7890   40.5000 N   0  0  0  0  0  0  0  0  0  0  0  0
   34.5820   29.0150   40.7580 H   0  0  0  0  0  0  0  0  0  0  0  0
   37.6750   27.2950   43.1780 C   0  0  0  0  0  0  0  0  0  0  0  0
   36.6970   27.4080   42.1730 C   0  0  0  0  0  0  0  0  0  0  0  0
   36.5460   28.6260   41.5260 C   0  0  0  0  0  0  0  0  0  0  0  0
   37.3430   29.6640   41.8820 N   0  0  0  0  0  0  0  0  0  0  0  0
   38.2770   29.5260   42.8550 C   0  0  0  0  0  0  0  0  0  0  0  0
   38.4350   28.3600   43.4870 N   0  0  0  0  0  0  0  0  0  0  0  0
   37.8430   26.3820   43.7180 H   0  0  0  0  0  0  0  0  0  0  0  0
   36.0840   26.5500   41.9220 H   0  0  0  0  0  0  0  0  0  0  0  0
   38.8150   30.4600   43.0000 H   0  0  0  0  0  0  0  0  0  0  0  0
   34.9850   28.8280   38.0370 C   0  0  0  0  0  0  0  0  0  0  0  0
   35.5040   28.9080   36.7610 C   0  0  0  0  0  0  0  0  0  0  0  0
   36.5640   28.8480   36.5070 H   0  0  0  0  0  0  0  0  0  0  0  0
   34.6450   29.0800   35.6700 C   0  0  0  0  0  3  0  0  0  0  0  0
   33.2630   29.1700   35.8660 C   0  0  0  0  0  0  0  0  0  0  0  0
   32.5800   29.3040   35.0370 H   0  0  0  0  0  0  0  0  0  0  0  0
   32.7860   29.0840   37.1650 C   0  0  0  0  0  0  0  0  0  0  0  0
   31.7090   29.1530   37.3390 H   0  0  0  0  0  0  0  0  0  0  0  0
   33.6270   28.9160   38.2520 C   0  0  0  0  0  3  0  0  0  0  0  0
  1  3  1  0  0  0  0
  2  1  2  0  0  0  0
  3  4  1  0  0  0  0
  3  7  1  0  0  0  0
  5 10  1  0  0  0  0
  5 11  1  0  0  0  0
  6  5  2  0  0  0  0
  7  8  2  0  0  0  0
  7  6  1  0  0  0  0
  8  9  1  0  0  0  0
  9 13  1  0  0  0  0
  9 10  2  0  0  0  0
 12  6  1  0  0  0  0
 14 22  1  0  0  0  0
 14  1  1  0  0  0  0
 15 14  2  0  0  0  0
 16 15  1  0  0  0  0
 17 18  2  0  0  0  0
 17 15  1  0  0  0  0
 18 20  1  0  0  0  0
 19 18  1  0  0  0  0
 20 21  1  0  0  0  0
 20 22  2  0  0  0  0
M  END
>  <minimizedAffinity>
-4.15451717

$$$$

 OpenBabel03252503363D

 22 23  0  0  0  0  0  0  0  0999 V2000
   36.6060   28.8410   40.1920 C   0  0  0  0  0  0  0  0  0  0  0  0
   35.5770   28.5620   40.8600 O   0  0  0  0  0  0  0  0  0  0  0  0
   37.4310   27.7280   39.8820 N   0  0  0  0  0  0  0  0  0  0  0  0
   38.3150   27.8870   39.3480 H   0  0  0  0  0  0  0  0  0  0  0  0
   36.1420   24.2390   39.8310 C   0  0  0  0  0  0  0  0  0  0  0  0
   36.4710   25.5330   39.3900 C   0  0  0  0  0  0  0  0  0  0  0  0
   37.0780   26.4060   40.2820 C   0  0  0  0  0  0  0  0  0  0  0  0
   37.3330   25.9830   41.5450 N   0  0  0  0  0  0  0  0  0  0  0  0
   37.0050   24.7280   41.9420 C   0  0  0  0  0  0  0  0  0  0  0  0
   36.4210   23.8780   41.0950 N   0  0  0  0  0  0  0  0  0  0  0  0
   35.6710   23.5150   39.1920 H   0  0  0  0  0  0  0  0  0  0  0  0
   36.2470   25.8260   38.3700 H   0  0  0  0  0  0  0  0  0  0  0  0
   37.2850   24.5740   42.9820 H   0  0  0  0  0  0  0  0  0  0  0  0
   36.8810   30.1970   39.7990 C   0  0  0  0  0  0  0  0  0  0  0  0
   37.1480   30.4400   38.4660 C   0  0  0  0  0  0  0  0  0  0  0  0
   37.1690   29.6840   37.6800 H   0  0  0  0  0  0  0  0  0  0  0  0
   37.4220   31.7440   38.0390 C   0  0  0  0  0  3  0  0  0  0  0  0
   37.4240   32.8020   38.9530 C   0  0  0  0  0  0  0  0  0  0  0  0
   37.6330   33.8190   38.6450 H   0  0  0  0  0  0  0  0  0  0  0  0
   37.1490   32.5110   40.2810 C   0  0  0  0  0  0  0  0  0  0  0  0
   37.1470   33.3240   41.0120 H   0  0  0  0  0  0  0  0  0  0  0  0
   36.8790   31.2250   40.7160 C   0  0  0  0  0  3  0  0  0  0  0  0
  1  2  2  0  0  0  0
  3  1  1  0  0  0  0
  3  7  1  0  0  0  0
  4  3  1  0  0  0  0
  5 10  1  0  0  0  0
  6  5  2  0  0  0  0
  6  7  1  0  0  0  0
  7  8  2  0  0  0  0
  8  9  1  0  0  0  0
  9 13  1  0  0  0  0
 10  9  2  0  0  0  0
 11  5  1  0  0  0  0
 12  6  1  0  0  0  0
 14  1  1  0  0  0  0
 14 22  1  0  0  0  0
 15 14  2  0  0  0  0
 16 15  1  0  0  0  0
 17 15  1  0  0  0  0
 17 18  2  0  0  0  0
 18 20  1  0  0  0  0
 19 18  1  0  0  0  0
 20 22  2  0  0  0  0
 20 21  1  0  0  0  0
M  END
>  <minimizedAffinity>
-4.06482077

$$$$

 OpenBabel03252503363D

 22 23  0  0  0  0  0  0  0  0999 V2000
   37.2530   28.1050   40.0000 C   0  0  0  0  0  0  0  0  0  0  0  0
   36.8140   28.5170   38.8960 O   0  0  0  0  0  0  0  0  0  0  0  0
   37.9650   29.0740   40.7540 N   0  0  0  0  0  0  0  0  0  0  0  0
   38.3780   28.7960   41.6720 H   0  0  0  0  0  0  0  0  0  0  0  0
   37.3960   32.6940   40.1110 C   0  0  0  0  0  0  0  0  0  0  0  0
   37.1940   31.3890   40.5980 C   0  0  0  0  0  0  0  0  0  0  0  0
   38.1270   30.4100   40.2830 C   0  0  0  0  0  0  0  0  0  0  0  0
   39.1980   30.7430   39.5220 N   0  0  0  0  0  0  0  0  0  0  0  0
   39.3680   32.0090   39.0680 C   0  0  0  0  0  0  0  0  0  0  0  0
   38.4790   32.9620   39.3610 N   0  0  0  0  0  0  0  0  0  0  0  0
   36.7130   33.4970   40.3160 H   0  0  0  0  0  0  0  0  0  0  0  0
   36.3220   31.1710   41.2030 H   0  0  0  0  0  0  0  0  0  0  0  0
   40.2780   32.0820   38.4780 H   0  0  0  0  0  0  0  0  0  0  0  0
   37.0250   26.7480   40.4200 C   0  0  0  0  0  0  0  0  0  0  0  0
   37.2330   26.4410   41.7500 C   0  0  0  0  0  0  0  0  0  0  0  0
   37.5600   27.1470   42.5160 H   0  0  0  0  0  0  0  0  0  0  0  0
   37.0250   25.1340   42.2030 C   0  0  0  0  0  3  0  0  0  0  0  0
   36.6050   24.1370   41.3170 C   0  0  0  0  0  0  0  0  0  0  0  0
   36.4370   23.1190   41.6450 H   0  0  0  0  0  0  0  0  0  0  0  0
   36.4080   24.4910   39.9900 C   0  0  0  0  0  0  0  0  0  0  0  0
   36.0800   23.7260   39.2820 H   0  0  0  0  0  0  0  0  0  0  0  0
   36.6130   25.7810   39.5310 C   0  0  0  0  0  3  0  0  0  0  0  0
  1 14  1  0  0  0  0
  1  3  1  0  0  0  0
  2  1  2  0  0  0  0
  3  4  1  0  0  0  0
  5 11  1  0  0  0  0
  5  6  1  0  0  0  0
  6 12  1  0  0  0  0
  7  6  2  0  0  0  0
  7  3  1  0  0  0  0
  8  7  1  0  0  0  0
  9 10  1  0  0  0  0
  9  8  2  0  0  0  0
 10  5  2  0  0  0  0
 13  9  1  0  0  0  0
 14 15  1  0  0  0  0
 15 17  2  0  0  0  0
 15 16  1  0  0  0  0
 18 19  1  0  0  0  0
 18 17  1  0  0  0  0
 20 18  2  0  0  0  0
 21 20  1  0  0  0  0
 22 20  1  0  0  0  0
 22 14  2  0  0  0  0
M  END
>  <minimizedAffinity>
-4.02627468

$$$$
