
 OpenBabel03252507103D

 36 38  0  0  1  0  0  0  0  0999 V2000
   44.7510   35.5210   44.5630 C   0  0  0  0  0  0  0  0  0  0  0  0
   44.0110   36.0460   43.4870 C   0  0  0  0  0  0  0  0  0  0  0  0
   43.8290   35.2150   42.3850 C   0  0  0  0  0  0  0  0  0  0  0  0
   44.3550   33.9800   42.3970 N   0  0  0  0  0  0  0  0  0  0  0  0
   45.0550   33.4990   43.4280 C   0  0  0  0  0  0  0  0  0  0  0  0
   45.2540   34.2790   44.5220 N   0  0  0  0  0  0  0  0  0  0  0  0
   44.8730   36.1990   45.4070 H   0  0  0  0  0  0  0  0  0  0  0  0
   43.5990   37.0330   43.4960 H   0  0  0  0  0  0  0  0  0  0  0  0
   45.9600   31.6520   44.8700 C   0  0  1  0  0  0  0  0  0  0  0  0
   45.6610   32.1670   43.4940 C   0  0  1  0  0  0  0  0  0  0  0  0
   44.6290   31.0990   43.0660 C   0  0  0  0  0  0  0  0  0  0  0  0
   44.9480   29.9450   43.7190 O   0  0  0  0  0  0  0  0  0  0  0  0
   46.0560   30.1610   44.5400 C   0  0  0  0  0  0  0  0  0  0  0  0
   45.0490   31.7520   45.5110 H   0  0  0  0  0  0  0  0  0  0  0  0
   46.5760   32.0550   42.8620 H   0  0  0  0  0  0  0  0  0  0  0  0
   44.8210   30.9450   41.9790 H   0  0  0  0  0  0  0  0  0  0  0  0
   43.5970   31.4610   43.1810 H   0  0  0  0  0  0  0  0  0  0  0  0
   45.9350   29.5270   45.4440 H   0  0  0  0  0  0  0  0  0  0  0  0
   46.9760   29.9140   43.9950 H   0  0  0  0  0  0  0  0  0  0  0  0
   47.0860   32.1710   45.4410 O   0  0  0  0  0  0  0  0  0  0  0  0
   46.8280   32.5150   46.3430 H   0  0  0  0  0  0  0  0  0  0  0  0
   43.0980   35.7410   41.3310 O   0  0  0  0  0  0  0  0  0  0  0  0
   40.8720   34.9520   40.1050 O   0  0  0  0  0  0  0  0  0  0  0  0
   42.3790   34.6830   40.1790 P   0  0  1  0  0  0  0  0  0  0  0  0
   43.1080   34.9340   38.7090 O   0  0  0  0  0  0  0  0  0  0  0  0
   42.4180   35.1720   38.0150 H   0  0  0  0  0  0  0  0  0  0  0  0
   42.6240   33.1190   40.7520 O   0  0  0  0  0  0  0  0  0  0  0  0
   41.7040   32.1050   40.7650 C   0  0  0  0  0  0  0  0  0  0  0  0
   41.6540   31.0420   39.8890 C   0  0  0  0  0  0  0  0  0  0  0  0
   42.4090   30.9950   39.1180 H   0  0  0  0  0  0  0  0  0  0  0  0
   40.7030   30.0410   39.9420 C   0  0  0  0  0  3  0  0  0  0  0  0
   39.7360   30.1020   40.9320 C   0  0  0  0  0  0  0  0  0  0  0  0
   39.0130   29.3080   40.9430 H   0  0  0  0  0  0  0  0  0  0  0  0
   39.7380   31.1480   41.8370 C   0  0  0  0  0  0  0  0  0  0  0  0
   38.9590   31.1210   42.5690 H   0  0  0  0  0  0  0  0  0  0  0  0
   40.7190   32.1290   41.7400 C   0  0  0  0  0  3  0  0  0  0  0  0
  1  7  1  0  0  0  0
  2  8  1  0  0  0  0
  2  1  2  0  0  0  0
  3  4  2  0  0  0  0
  3  2  1  0  0  0  0
  4  5  1  0  0  0  0
  5 10  1  0  0  0  0
  5  6  2  0  0  0  0
  6  1  1  0  0  0  0
  9 20  1  0  0  0  0
  9 14  1  1  0  0  0
 10 15  1  6  0  0  0
 10  9  1  0  0  0  0
 11 17  1  0  0  0  0
 11 10  1  0  0  0  0
 11 12  1  0  0  0  0
 12 13  1  0  0  0  0
 13  9  1  0  0  0  0
 13 18  1  0  0  0  0
 16 11  1  0  0  0  0
 19 13  1  0  0  0  0
 20 21  1  0  0  0  0
 22  3  1  0  0  0  0
 24 23  2  6  0  0  0
 24 27  1  0  0  0  0
 24 22  1  0  0  0  0
 25 24  1  0  0  0  0
 26 25  1  0  0  0  0
 27 28  1  0  0  0  0
 28 36  1  0  0  0  0
 29 31  1  0  0  0  0
 29 28  2  0  0  0  0
 30 29  1  0  0  0  0
 31 32  2  0  0  0  0
 32 33  1  0  0  0  0
 32 34  1  0  0  0  0
 34 35  1  0  0  0  0
 36 34  2  0  0  0  0
M  END
>  <minimizedAffinity>
-4.1396451

>  <minimizedRMSD>
6.79090166

$$$$
