
 OpenBabel03242520133D

 34 36  0  0  0  0  0  0  0  0999 V2000
   46.1600   32.5790   46.9410 C   0  0  0  0  0  0  0  0  0  0  0  0
   45.2490   32.6080   47.9470 C   0  0  0  0  0  0  0  0  0  0  0  0
   45.4380   31.7890   49.0430 C   0  0  0  0  0  0  0  0  0  0  0  0
   46.5380   30.9560   49.1120 C   0  0  0  0  0  0  0  0  0  0  0  0
   47.4480   30.9560   48.0620 C   0  0  0  0  0  0  0  0  0  0  0  0
   47.2300   31.7500   47.0360 N   0  0  0  0  0  0  0  0  0  0  0  0
   44.4180   33.2910   47.8080 H   0  0  0  0  0  0  0  0  0  0  0  0
   44.6860   31.8430   49.8250 H   0  0  0  0  0  0  0  0  0  0  0  0
   46.6830   30.3280   49.9560 H   0  0  0  0  0  0  0  0  0  0  0  0
   44.9240   35.0360   44.5280 C   0  0  0  0  0  0  0  0  0  0  0  0
   45.8840   34.9160   43.4990 C   0  0  0  0  0  0  0  0  0  0  0  0
   46.9520   33.9920   43.6350 C   0  0  0  0  0  0  0  0  0  0  0  0
   46.9520   33.2880   44.7770 N   0  0  0  0  0  0  0  0  0  0  0  0
   46.0530   33.4030   45.7380 C   0  0  0  0  0  0  0  0  0  0  0  0
   45.0520   34.2780   45.5970 N   0  0  0  0  0  0  0  0  0  0  0  0
   43.8760   35.9640   44.3600 N   0  0  0  0  0  0  0  0  0  0  0  0
   45.8630   35.4980   42.5810 H   0  0  0  0  0  0  0  0  0  0  0  0
   47.6660   33.9140   42.8500 H   0  0  0  0  0  0  0  0  0  0  0  0
   43.1020   35.6420   43.7460 H   0  0  0  0  0  0  0  0  0  0  0  0
   44.0360   36.8660   44.8920 H   0  0  0  0  0  0  0  0  0  0  0  0
   48.6350   30.1000   48.0660 C   0  0  0  0  0  0  0  0  0  0  0  0
   49.7150   30.3630   48.7800 C   0  0  0  0  0  0  0  0  0  0  0  0
   49.8180   31.5550   49.6420 C   0  0  0  0  0  0  0  0  0  0  0  0
   48.8240   31.9910   49.8880 H   0  0  0  0  0  0  0  0  0  0  0  0
   50.3880   32.3830   49.1770 H   0  0  0  0  0  0  0  0  0  0  0  0
   50.5230   31.1300   50.8880 C   0  0  0  0  0  0  0  0  0  0  0  0
   51.2750   31.9210   51.7390 C   0  0  0  0  0  0  0  0  0  0  0  0
   51.3440   32.9520   51.4460 H   0  0  0  0  0  0  0  0  0  0  0  0
   51.8580   31.3510   52.8520 C   0  0  0  0  0  0  0  0  0  0  0  0
   51.7290   30.0140   53.1700 C   0  0  0  0  0  0  0  0  0  0  0  0
   52.1900   29.5780   54.0460 H   0  0  0  0  0  0  0  0  0  0  0  0
   50.9830   29.2020   52.3390 C   0  0  0  0  0  0  0  0  0  0  0  0
   50.8590   28.1520   52.5530 H   0  0  0  0  0  0  0  0  0  0  0  0
   50.4080   29.7850   51.2280 C   0  0  0  0  0  0  0  0  0  0  0  0
  1  6  2  0  0  0  0
  1  2  1  0  0  0  0
  2  3  2  0  0  0  0
  3  4  1  0  0  0  0
  3  8  1  0  0  0  0
  4  9  1  0  0  0  0
  5 21  1  0  0  0  0
  5  4  2  0  0  0  0
  6  5  1  0  0  0  0
  7  2  1  0  0  0  0
 10 15  1  0  0  0  0
 11 12  1  0  0  0  0
 11 10  2  0  0  0  0
 12 13  2  0  0  0  0
 13 14  1  0  0  0  0
 14  1  1  0  0  0  0
 15 14  2  0  0  0  0
 16 10  1  0  0  0  0
 16 20  1  0  0  0  0
 17 11  1  0  0  0  0
 18 12  1  0  0  0  0
 19 16  1  0  0  0  0
 21 22  2  0  0  0  0
 22 23  1  0  0  0  0
 23 24  1  0  0  0  0
 23 26  1  0  0  0  0
 25 23  1  0  0  0  0
 26 34  2  0  0  0  0
 26 27  1  0  0  0  0
 27 29  2  0  0  0  0
 28 27  1  0  0  0  0
 29 30  1  0  0  0  0
 30 31  1  0  0  0  0
 32 33  1  0  0  0  0
 32 30  2  0  0  0  0
 34 32  1  0  0  0  0
M  END
>  <minimizedAffinity>
-6.90220928

>  <minimizedRMSD>
0.485702306

$$$$
