
 OpenBabel03252507103D

 36 38  0  0  1  0  0  0  0  0999 V2000
   44.4660   35.8940   44.7770 C   0  0  0  0  0  0  0  0  0  0  0  0
   44.3250   35.6730   43.3930 C   0  0  0  0  0  0  0  0  0  0  0  0
   44.8130   34.4680   42.8960 C   0  0  0  0  0  0  0  0  0  0  0  0
   45.3840   33.5920   43.7370 N   0  0  0  0  0  0  0  0  0  0  0  0
   45.5100   33.8180   45.0470 C   0  0  0  0  0  0  0  0  0  0  0  0
   45.0450   34.9820   45.5710 N   0  0  0  0  0  0  0  0  0  0  0  0
   44.0730   36.8460   45.1290 H   0  0  0  0  0  0  0  0  0  0  0  0
   43.8660   36.3850   42.7390 H   0  0  0  0  0  0  0  0  0  0  0  0
   45.2920   32.5360   47.1960 C   0  0  1  0  0  0  0  0  0  0  0  0
   46.1310   32.9050   46.0100 C   0  0  1  0  0  0  0  0  0  0  0  0
   46.2790   31.5010   45.3830 C   0  0  0  0  0  0  0  0  0  0  0  0
   46.2250   30.5960   46.4020 O   0  0  0  0  0  0  0  0  0  0  0  0
   46.0330   31.2640   47.6130 C   0  0  0  0  0  0  0  0  0  0  0  0
   44.2870   32.1880   46.8480 H   0  0  0  0  0  0  0  0  0  0  0  0
   47.1330   33.2440   46.3710 H   0  0  0  0  0  0  0  0  0  0  0  0
   47.3120   31.4890   44.9650 H   0  0  0  0  0  0  0  0  0  0  0  0
   45.5740   31.3490   44.5530 H   0  0  0  0  0  0  0  0  0  0  0  0
   45.4090   30.6130   48.2630 H   0  0  0  0  0  0  0  0  0  0  0  0
   47.0050   31.4820   48.0760 H   0  0  0  0  0  0  0  0  0  0  0  0
   45.2280   33.4900   48.1710 O   0  0  0  0  0  0  0  0  0  0  0  0
   44.2610   33.6470   48.3670 H   0  0  0  0  0  0  0  0  0  0  0  0
   44.6670   34.2600   41.5330 O   0  0  0  0  0  0  0  0  0  0  0  0
   46.0760   32.0600   41.0310 O   0  0  0  0  0  0  0  0  0  0  0  0
   45.9470   33.5350   40.6390 P   0  0  1  0  0  0  0  0  0  0  0  0
   45.6160   33.7020   39.0200 O   0  0  0  0  0  0  0  0  0  0  0  0
   45.6080   32.7990   38.5730 H   0  0  0  0  0  0  0  0  0  0  0  0
   47.3560   34.3420   41.0850 O   0  0  0  0  0  0  0  0  0  0  0  0
   48.5800   33.7720   41.3120 C   0  0  0  0  0  0  0  0  0  0  0  0
   49.4850   34.1500   42.2810 C   0  0  0  0  0  0  0  0  0  0  0  0
   49.2100   34.9710   42.9260 H   0  0  0  0  0  0  0  0  0  0  0  0
   50.7120   33.5430   42.4700 C   0  0  0  0  0  3  0  0  0  0  0  0
   51.0630   32.4900   41.6420 C   0  0  0  0  0  0  0  0  0  0  0  0
   52.0230   32.0430   41.8180 H   0  0  0  0  0  0  0  0  0  0  0  0
   50.1930   32.0700   40.6520 C   0  0  0  0  0  0  0  0  0  0  0  0
   50.5380   31.2530   40.0560 H   0  0  0  0  0  0  0  0  0  0  0  0
   48.9700   32.7160   40.5030 C   0  0  0  0  0  3  0  0  0  0  0  0
  1  7  1  0  0  0  0
  1  6  1  0  0  0  0
  2  1  2  0  0  0  0
  3  2  1  0  0  0  0
  3  4  2  0  0  0  0
  4  5  1  0  0  0  0
  5  6  2  0  0  0  0
  5 10  1  0  0  0  0
  8  2  1  0  0  0  0
  9 14  1  6  0  0  0
  9 13  1  0  0  0  0
  9 20  1  0  0  0  0
 10 15  1  1  0  0  0
 10  9  1  0  0  0  0
 11 10  1  0  0  0  0
 11 12  1  0  0  0  0
 12 13  1  0  0  0  0
 13 19  1  0  0  0  0
 13 18  1  0  0  0  0
 16 11  1  0  0  0  0
 17 11  1  0  0  0  0
 20 21  1  0  0  0  0
 22  3  1  0  0  0  0
 24 23  2  1  0  0  0
 24 27  1  0  0  0  0
 24 22  1  0  0  0  0
 25 24  1  0  0  0  0
 26 25  1  0  0  0  0
 27 28  1  0  0  0  0
 28 29  1  0  0  0  0
 29 31  2  0  0  0  0
 29 30  1  0  0  0  0
 32 33  1  0  0  0  0
 32 31  1  0  0  0  0
 34 32  2  0  0  0  0
 35 34  1  0  0  0  0
 36 34  1  0  0  0  0
 36 28  2  0  0  0  0
M  END
>  <minimizedAffinity>
-5.83601809

>  <minimizedRMSD>
2.13368082

$$$$
