
 OpenBabel03242519253D

 40 43  0  0  0  0  0  0  0  0999 V2000
   47.9060   33.8940   42.8810 C   0  0  0  0  0  0  0  0  0  0  0  0
   48.5300   35.1180   42.6270 C   0  0  0  0  0  0  0  0  0  0  0  0
   49.8930   35.1580   42.2950 C   0  0  0  0  0  0  0  0  0  0  0  0
   50.5330   33.9470   42.2440 N   0  0  0  0  0  0  0  0  0  0  0  0
   49.9050   32.7810   42.4950 C   0  0  0  0  0  0  0  0  0  0  0  0
   48.6060   32.7570   42.8090 N   0  0  0  0  0  0  0  0  0  0  0  0
   48.1130   36.1140   42.6420 H   0  0  0  0  0  0  0  0  0  0  0  0
   50.4420   36.0650   42.0860 H   0  0  0  0  0  0  0  0  0  0  0  0
   46.4720   33.9730   43.2250 C   0  0  0  0  0  0  0  0  0  0  0  0
   45.7350   34.9830   42.4670 C   0  0  0  0  0  0  0  0  0  0  0  0
   45.2720   36.1400   43.2770 C   0  0  0  0  0  0  0  0  0  0  0  0
   44.4640   35.7240   44.4980 C   0  0  0  0  0  0  0  0  0  0  0  0
   44.9830   34.4770   45.1740 C   0  0  0  0  0  0  0  0  0  0  0  0
   46.4020   34.1730   44.7500 C   0  0  0  0  0  0  0  0  0  0  0  0
   46.0670   32.9250   43.0940 H   0  0  0  0  0  0  0  0  0  0  0  0
   46.2490   35.3900   41.5760 H   0  0  0  0  0  0  0  0  0  0  0  0
   44.8050   34.5030   42.0480 H   0  0  0  0  0  0  0  0  0  0  0  0
   46.0340   36.8290   43.6440 H   0  0  0  0  0  0  0  0  0  0  0  0
   44.5800   36.7710   42.6530 H   0  0  0  0  0  0  0  0  0  0  0  0
   44.4650   36.5410   45.2510 H   0  0  0  0  0  0  0  0  0  0  0  0
   43.4020   35.5250   44.2060 H   0  0  0  0  0  0  0  0  0  0  0  0
   44.3670   33.5730   44.9480 H   0  0  0  0  0  0  0  0  0  0  0  0
   44.9880   34.5660   46.2700 H   0  0  0  0  0  0  0  0  0  0  0  0
   46.7210   33.2450   45.2240 H   0  0  0  0  0  0  0  0  0  0  0  0
   47.0760   35.0250   44.9880 H   0  0  0  0  0  0  0  0  0  0  0  0
   50.7130   31.5570   42.4010 C   0  0  0  0  0  0  0  0  0  0  0  0
   51.5160   31.4730   41.2900 N   0  0  0  0  0  0  0  0  0  0  0  0
   52.1790   30.2930   41.3610 C   0  0  0  0  0  0  0  0  0  0  0  0
   51.7710   29.6700   42.5160 N   0  0  0  0  0  0  0  0  0  0  0  0
   50.8910   30.4400   43.1310 N   0  0  0  0  0  0  0  0  0  0  0  0
   52.8890   29.8500   40.7060 H   0  0  0  0  0  0  0  0  0  0  0  0
   52.1400   28.4140   43.0880 C   0  0  0  0  0  0  0  0  0  0  0  0
   52.8560   27.3870   42.5000 C   0  0  0  0  0  0  0  0  0  0  0  0
   53.1600   27.5880   41.4820 H   0  0  0  0  0  0  0  0  0  0  0  0
   53.1030   26.2440   43.2410 C   0  0  0  0  0  0  0  0  0  0  0  0
   52.6520   26.1210   44.5380 C   0  0  0  0  0  0  0  0  0  0  0  0
   52.8620   25.2080   45.0990 H   0  0  0  0  0  0  0  0  0  0  0  0
   51.9300   27.1510   45.1390 C   0  0  0  0  0  0  0  0  0  0  0  0
   51.5980   27.0030   46.1610 H   0  0  0  0  0  0  0  0  0  0  0  0
   51.6840   28.2870   44.3980 C   0  0  0  0  0  0  0  0  0  0  0  0
  1  9  1  0  0  0  0
  2  7  1  0  0  0  0
  2  1  2  0  0  0  0
  3  2  1  0  0  0  0
  4  3  2  0  0  0  0
  4  5  1  0  0  0  0
  5  6  2  0  0  0  0
  6  1  1  0  0  0  0
  8  3  1  0  0  0  0
  9 14  1  0  0  0  0
 10  9  1  0  0  0  0
 10 11  1  0  0  0  0
 11 18  1  0  0  0  0
 11 12  1  0  0  0  0
 12 13  1  0  0  0  0
 12 20  1  0  0  0  0
 13 23  1  0  0  0  0
 14 25  1  0  0  0  0
 14 13  1  0  0  0  0
 14 24  1  0  0  0  0
 15  9  1  0  0  0  0
 16 10  1  0  0  0  0
 17 10  1  0  0  0  0
 19 11  1  0  0  0  0
 21 12  1  0  0  0  0
 22 13  1  0  0  0  0
 26  5  1  0  0  0  0
 26 30  2  0  0  0  0
 27 28  2  0  0  0  0
 27 26  1  0  0  0  0
 28 29  1  0  0  0  0
 29 32  1  0  0  0  0
 29 30  1  0  0  0  0
 31 28  1  0  0  0  0
 32 40  1  0  0  0  0
 33 32  2  0  0  0  0
 33 35  1  0  0  0  0
 34 33  1  0  0  0  0
 35 36  2  0  0  0  0
 36 37  1  0  0  0  0
 36 38  1  0  0  0  0
 38 39  1  0  0  0  0
 40 38  2  0  0  0  0
M  END
>  <minimizedAffinity>
-4.24530745

>  <minimizedRMSD>
1.22321272

$$$$
