
 OpenBabel03252503173D

 36 39  0  0  0  0  0  0  0  0999 V2000
   35.1600   28.9720   39.2990 C   0  0  0  0  0  0  0  0  0  0  0  0
   33.9370   29.2830   39.3920 O   0  0  0  0  0  0  0  0  0  0  0  0
   36.0280   28.5230   40.4480 C   0  0  0  0  0  0  0  0  0  0  0  0
   36.8090   27.3950   40.5070 C   0  0  0  0  0  0  0  0  0  0  0  0
   37.3840   27.4310   41.7150 N   0  0  0  0  0  0  0  0  0  0  0  0
   36.9820   28.5290   42.3790 C   0  0  0  0  0  0  0  0  0  0  0  0
   36.1320   29.2230   41.5960 N   0  0  0  0  0  0  0  0  0  0  0  0
   37.3030   29.0130   43.6740 N   0  0  0  0  0  0  0  0  0  0  0  0
   36.9270   26.6560   39.7540 H   0  0  0  0  0  0  0  0  0  0  0  0
   38.2430   29.4920   43.5740 H   0  0  0  0  0  0  0  0  0  0  0  0
   36.7260   28.9140   44.5380 H   0  0  0  0  0  0  0  0  0  0  0  0
   38.2900   26.5030   42.2980 C   0  0  0  0  0  0  0  0  0  0  0  0
   37.9830   25.1710   42.0000 C   0  0  0  0  0  0  0  0  0  0  0  0
   37.1390   24.8740   41.3890 H   0  0  0  0  0  0  0  0  0  0  0  0
   38.7670   24.1550   42.4920 C   0  0  0  0  0  3  0  0  0  0  0  0
   39.8620   24.4110   43.2780 C   0  0  0  0  0  0  0  0  0  0  0  0
   40.4490   23.5820   43.6420 H   0  0  0  0  0  0  0  0  0  0  0  0
   40.1570   25.7260   43.5650 C   0  0  0  0  0  0  0  0  0  0  0  0
   41.0080   25.9570   44.1780 H   0  0  0  0  0  0  0  0  0  0  0  0
   39.3950   26.7630   43.0920 C   0  0  0  0  0  3  0  0  0  0  0  0
   35.2670   28.2120   36.9640 C   0  0  0  0  0  0  0  0  0  0  0  0
   35.7260   29.0620   37.9870 C   0  0  0  0  0  0  0  0  0  0  0  0
   36.7220   29.9410   37.6100 C   0  0  0  0  0  0  0  0  0  0  0  0
   37.2170   29.9840   36.3690 N   0  0  0  0  0  0  0  0  0  0  0  0
   36.7400   29.1430   35.4160 C   0  0  0  0  0  0  0  0  0  0  0  0
   35.7670   28.2620   35.7240 N   0  0  0  0  0  0  0  0  0  0  0  0
   34.4860   27.5050   37.2100 H   0  0  0  0  0  0  0  0  0  0  0  0
   37.1160   29.1500   34.4030 H   0  0  0  0  0  0  0  0  0  0  0  0
   37.2410   30.8300   38.5840 C   0  0  0  0  0  0  0  0  0  0  0  0
   36.8160   31.9760   39.1790 C   0  0  0  0  0  0  0  0  0  0  0  0
   37.5180   32.6230   40.0840 C   0  0  0  0  0  0  0  0  0  0  0  0
   38.7140   32.0870   40.4060 C   0  0  0  0  0  0  0  0  0  0  0  0
   38.8260   30.5910   39.3620 S   0  0  0  0  0  0  0  0  0  0  0  0
   35.8180   32.3080   38.8240 H   0  0  0  0  0  0  0  0  0  0  0  0
   37.2280   33.5360   40.5870 H   0  0  0  0  0  0  0  0  0  0  0  0
   39.5030   32.4610   41.1600 H   0  0  0  0  0  0  0  0  0  0  0  0
  1  2  2  0  0  0  0
  1  3  1  0  0  0  0
  3  4  2  0  0  0  0
  3  7  1  0  0  0  0
  4  5  1  0  0  0  0
  5 12  1  0  0  0  0
  5  6  1  0  0  0  0
  6  8  1  0  0  0  0
  7  6  2  0  0  0  0
  8 11  1  0  0  0  0
  9  4  1  0  0  0  0
 10  8  1  0  0  0  0
 12 20  1  0  0  0  0
 13 12  2  0  0  0  0
 13 15  1  0  0  0  0
 14 13  1  0  0  0  0
 15 16  2  0  0  0  0
 16 18  1  0  0  0  0
 16 17  1  0  0  0  0
 18 19  1  0  0  0  0
 20 18  2  0  0  0  0
 21 27  1  0  0  0  0
 21 22  1  0  0  0  0
 22  1  1  0  0  0  0
 23 22  2  0  0  0  0
 23 29  1  0  0  0  0
 24 23  1  0  0  0  0
 25 26  1  0  0  0  0
 25 24  2  0  0  0  0
 26 21  2  0  0  0  0
 28 25  1  0  0  0  0
 29 30  2  0  0  0  0
 29 33  1  0  0  0  0
 30 31  1  0  0  0  0
 31 32  2  0  0  0  0
 31 35  1  0  0  0  0
 32 36  1  0  0  0  0
 33 32  1  0  0  0  0
 34 30  1  0  0  0  0
M  END
>  <minimizedAffinity>
-6.1100421

$$$$

 OpenBabel03252503173D

 36 39  0  0  0  0  0  0  0  0999 V2000
   40.2620   32.9670   40.2170 C   0  0  0  0  0  0  0  0  0  0  0  0
   40.4080   34.1470   40.6510 O   0  0  0  0  0  0  0  0  0  0  0  0
   39.1940   32.0050   40.6710 C   0  0  0  0  0  0  0  0  0  0  0  0
   39.3780   30.7530   41.2090 C   0  0  0  0  0  0  0  0  0  0  0  0
   38.1460   30.2930   41.4510 N   0  0  0  0  0  0  0  0  0  0  0  0
   37.2340   31.2110   41.0840 C   0  0  0  0  0  0  0  0  0  0  0  0
   37.8780   32.2890   40.5940 N   0  0  0  0  0  0  0  0  0  0  0  0
   35.8160   31.2010   41.1380 N   0  0  0  0  0  0  0  0  0  0  0  0
   40.3020   30.2620   41.3890 H   0  0  0  0  0  0  0  0  0  0  0  0
   35.5680   31.4440   42.1390 H   0  0  0  0  0  0  0  0  0  0  0  0
   35.1630   30.9960   40.3500 H   0  0  0  0  0  0  0  0  0  0  0  0
   37.7560   29.0430   42.0060 C   0  0  0  0  0  0  0  0  0  0  0  0
   37.6250   28.0310   41.0490 C   0  0  0  0  0  0  0  0  0  0  0  0
   37.8020   28.1820   39.9910 H   0  0  0  0  0  0  0  0  0  0  0  0
   37.2540   26.7630   41.4300 C   0  0  0  0  0  3  0  0  0  0  0  0
   37.0030   26.4550   42.7440 C   0  0  0  0  0  0  0  0  0  0  0  0
   36.7140   25.4460   42.9960 H   0  0  0  0  0  0  0  0  0  0  0  0
   37.1340   27.4580   43.6790 C   0  0  0  0  0  0  0  0  0  0  0  0
   36.9440   27.2450   44.7140 H   0  0  0  0  0  0  0  0  0  0  0  0
   37.5020   28.7330   43.3330 C   0  0  0  0  0  3  0  0  0  0  0  0
   40.8050   32.4860   37.8690 C   0  0  0  0  0  0  0  0  0  0  0  0
   41.2000   32.5530   39.2170 C   0  0  0  0  0  0  0  0  0  0  0  0
   42.5120   32.1960   39.4580 C   0  0  0  0  0  0  0  0  0  0  0  0
   43.3470   31.8150   38.4860 N   0  0  0  0  0  0  0  0  0  0  0  0
   42.9180   31.7680   37.1980 C   0  0  0  0  0  0  0  0  0  0  0  0
   41.6470   32.1050   36.9020 N   0  0  0  0  0  0  0  0  0  0  0  0
   39.7840   32.7570   37.6290 H   0  0  0  0  0  0  0  0  0  0  0  0
   43.5660   31.4650   36.3890 H   0  0  0  0  0  0  0  0  0  0  0  0
   42.9870   32.2330   40.7920 C   0  0  0  0  0  0  0  0  0  0  0  0
   42.9380   31.3980   41.8640 C   0  0  0  0  0  0  0  0  0  0  0  0
   43.4800   31.6860   43.0280 C   0  0  0  0  0  0  0  0  0  0  0  0
   44.1040   32.8800   43.1170 C   0  0  0  0  0  0  0  0  0  0  0  0
   43.9000   33.6120   41.4550 S   0  0  0  0  0  0  0  0  0  0  0  0
   42.3970   30.4520   41.6570 H   0  0  0  0  0  0  0  0  0  0  0  0
   43.4710   31.0610   43.9110 H   0  0  0  0  0  0  0  0  0  0  0  0
   44.6480   33.3540   44.0170 H   0  0  0  0  0  0  0  0  0  0  0  0
  1  2  2  0  0  0  0
  1  3  1  0  0  0  0
  3  4  2  0  0  0  0
  4  9  1  0  0  0  0
  4  5  1  0  0  0  0
  5 12  1  0  0  0  0
  6  8  1  0  0  0  0
  6  5  1  0  0  0  0
  7  3  1  0  0  0  0
  7  6  2  0  0  0  0
  8 10  1  0  0  0  0
 11  8  1  0  0  0  0
 12 20  1  0  0  0  0
 13 15  1  0  0  0  0
 13 12  2  0  0  0  0
 14 13  1  0  0  0  0
 15 16  2  0  0  0  0
 16 17  1  0  0  0  0
 16 18  1  0  0  0  0
 18 19  1  0  0  0  0
 20 18  2  0  0  0  0
 21 22  1  0  0  0  0
 22 23  2  0  0  0  0
 22  1  1  0  0  0  0
 23 29  1  0  0  0  0
 24 23  1  0  0  0  0
 25 24  2  0  0  0  0
 26 25  1  0  0  0  0
 26 21  2  0  0  0  0
 27 21  1  0  0  0  0
 28 25  1  0  0  0  0
 29 33  1  0  0  0  0
 29 30  2  0  0  0  0
 30 31  1  0  0  0  0
 31 32  2  0  0  0  0
 31 35  1  0  0  0  0
 32 36  1  0  0  0  0
 33 32  1  0  0  0  0
 34 30  1  0  0  0  0
M  END
>  <minimizedAffinity>
-5.93259525

$$$$

 OpenBabel03252503173D

 36 39  0  0  0  0  0  0  0  0999 V2000
   37.9360   31.4670   40.2820 C   0  0  0  0  0  0  0  0  0  0  0  0
   36.9490   32.2470   40.1430 O   0  0  0  0  0  0  0  0  0  0  0  0
   37.9470   30.2290   41.1420 C   0  0  0  0  0  0  0  0  0  0  0  0
   38.8610   29.2030   41.1100 C   0  0  0  0  0  0  0  0  0  0  0  0
   38.4520   28.3430   42.0490 N   0  0  0  0  0  0  0  0  0  0  0  0
   37.3380   28.8060   42.6410 C   0  0  0  0  0  0  0  0  0  0  0  0
   37.0090   29.9880   42.0810 N   0  0  0  0  0  0  0  0  0  0  0  0
   36.5320   28.2700   43.6790 N   0  0  0  0  0  0  0  0  0  0  0  0
   39.7060   29.1170   40.4730 H   0  0  0  0  0  0  0  0  0  0  0  0
   37.0360   28.5080   44.5810 H   0  0  0  0  0  0  0  0  0  0  0  0
   35.6330   27.7520   43.5680 H   0  0  0  0  0  0  0  0  0  0  0  0
   39.0360   27.1050   42.4370 C   0  0  0  0  0  0  0  0  0  0  0  0
   38.6060   26.0250   41.6580 C   0  0  0  0  0  0  0  0  0  0  0  0
   37.8980   26.1190   40.8430 H   0  0  0  0  0  0  0  0  0  0  0  0
   39.0800   24.7590   41.9100 C   0  0  0  0  0  3  0  0  0  0  0  0
   39.9800   24.5190   42.9180 C   0  0  0  0  0  0  0  0  0  0  0  0
   40.3260   23.5100   43.0790 H   0  0  0  0  0  0  0  0  0  0  0  0
   40.3980   25.5880   43.6790 C   0  0  0  0  0  0  0  0  0  0  0  0
   41.1020   25.4310   44.4740 H   0  0  0  0  0  0  0  0  0  0  0  0
   39.9440   26.8630   43.4550 C   0  0  0  0  0  3  0  0  0  0  0  0
   40.0770   32.6650   40.1310 C   0  0  0  0  0  0  0  0  0  0  0  0
   39.1140   31.8210   39.5480 C   0  0  0  0  0  0  0  0  0  0  0  0
   39.4100   31.3970   38.2680 C   0  0  0  0  0  0  0  0  0  0  0  0
   40.5260   31.7590   37.6270 N   0  0  0  0  0  0  0  0  0  0  0  0
   41.4270   32.5750   38.2330 C   0  0  0  0  0  0  0  0  0  0  0  0
   41.1920   33.0210   39.4840 N   0  0  0  0  0  0  0  0  0  0  0  0
   39.8900   33.0230   41.1350 H   0  0  0  0  0  0  0  0  0  0  0  0
   42.3380   32.8870   37.7450 H   0  0  0  0  0  0  0  0  0  0  0  0
   38.4880   30.5480   37.6080 C   0  0  0  0  0  0  0  0  0  0  0  0
   37.3000   30.7130   36.9690 C   0  0  0  0  0  0  0  0  0  0  0  0
   36.6280   29.7210   36.4260 C   0  0  0  0  0  0  0  0  0  0  0  0
   37.1820   28.4950   36.5350 C   0  0  0  0  0  0  0  0  0  0  0  0
   38.7340   28.7890   37.4550 S   0  0  0  0  0  0  0  0  0  0  0  0
   36.9570   31.7680   36.9500 H   0  0  0  0  0  0  0  0  0  0  0  0
   35.6820   29.7960   35.9070 H   0  0  0  0  0  0  0  0  0  0  0  0
   36.7930   27.4800   36.1480 H   0  0  0  0  0  0  0  0  0  0  0  0
  1  3  1  0  0  0  0
  2  1  2  0  0  0  0
  3  7  1  0  0  0  0
  4  3  2  0  0  0  0
  4  5  1  0  0  0  0
  5 12  1  0  0  0  0
  5  6  1  0  0  0  0
  6  8  1  0  0  0  0
  7  6  2  0  0  0  0
  8 10  1  0  0  0  0
  9  4  1  0  0  0  0
 11  8  1  0  0  0  0
 12 20  1  0  0  0  0
 13 15  1  0  0  0  0
 13 12  2  0  0  0  0
 14 13  1  0  0  0  0
 15 16  2  0  0  0  0
 16 17  1  0  0  0  0
 16 18  1  0  0  0  0
 18 19  1  0  0  0  0
 20 18  2  0  0  0  0
 21 27  1  0  0  0  0
 22 21  1  0  0  0  0
 22  1  1  0  0  0  0
 23 22  2  0  0  0  0
 24 25  2  0  0  0  0
 24 23  1  0  0  0  0
 25 26  1  0  0  0  0
 26 21  2  0  0  0  0
 28 25  1  0  0  0  0
 29 23  1  0  0  0  0
 30 29  2  0  0  0  0
 31 32  2  0  0  0  0
 31 30  1  0  0  0  0
 32 33  1  0  0  0  0
 33 29  1  0  0  0  0
 34 30  1  0  0  0  0
 35 31  1  0  0  0  0
 36 32  1  0  0  0  0
M  END
>  <minimizedAffinity>
-5.74615335

$$$$

 OpenBabel03252503173D

 36 39  0  0  0  0  0  0  0  0999 V2000
   36.0250   29.3260   39.5840 C   0  0  0  0  0  0  0  0  0  0  0  0
   35.0650   29.7030   40.3170 O   0  0  0  0  0  0  0  0  0  0  0  0
   37.1100   30.2260   39.0480 C   0  0  0  0  0  0  0  0  0  0  0  0
   38.2330   30.6590   39.7110 C   0  0  0  0  0  0  0  0  0  0  0  0
   38.8840   31.4260   38.8300 N   0  0  0  0  0  0  0  0  0  0  0  0
   38.2030   31.4710   37.6720 C   0  0  0  0  0  0  0  0  0  0  0  0
   37.0890   30.7220   37.7950 N   0  0  0  0  0  0  0  0  0  0  0  0
   38.4730   32.1390   36.4480 N   0  0  0  0  0  0  0  0  0  0  0  0
   38.5160   30.4310   40.7090 H   0  0  0  0  0  0  0  0  0  0  0  0
   39.1760   31.5290   35.9410 H   0  0  0  0  0  0  0  0  0  0  0  0
   38.0600   33.0410   36.1250 H   0  0  0  0  0  0  0  0  0  0  0  0
   40.1100   32.1280   38.9960 C   0  0  0  0  0  0  0  0  0  0  0  0
   39.9600   33.3490   39.6630 C   0  0  0  0  0  0  0  0  0  0  0  0
   39.0070   33.7250   40.0180 H   0  0  0  0  0  0  0  0  0  0  0  0
   41.0550   34.1460   39.9010 C   0  0  0  0  0  3  0  0  0  0  0  0
   42.3130   33.7730   39.4970 C   0  0  0  0  0  0  0  0  0  0  0  0
   43.1440   34.4300   39.7050 H   0  0  0  0  0  0  0  0  0  0  0  0
   42.4510   32.5700   38.8410 C   0  0  0  0  0  0  0  0  0  0  0  0
   43.4230   32.2520   38.5140 H   0  0  0  0  0  0  0  0  0  0  0  0
   41.3790   31.7510   38.5880 C   0  0  0  0  0  3  0  0  0  0  0  0
   35.5230   27.4830   38.0370 C   0  0  0  0  0  0  0  0  0  0  0  0
   36.0490   27.9300   39.2620 C   0  0  0  0  0  0  0  0  0  0  0  0
   36.5610   26.9370   40.0730 C   0  0  0  0  0  0  0  0  0  0  0  0
   36.5580   25.6470   39.7250 N   0  0  0  0  0  0  0  0  0  0  0  0
   36.0390   25.2640   38.5300 C   0  0  0  0  0  0  0  0  0  0  0  0
   35.5240   26.1900   37.6950 N   0  0  0  0  0  0  0  0  0  0  0  0
   35.1090   28.2250   37.3660 H   0  0  0  0  0  0  0  0  0  0  0  0
   36.0200   24.2310   38.2160 H   0  0  0  0  0  0  0  0  0  0  0  0
   37.1080   27.3050   41.3280 C   0  0  0  0  0  0  0  0  0  0  0  0
   36.6100   27.5600   42.5670 C   0  0  0  0  0  0  0  0  0  0  0  0
   37.3630   27.8930   43.5930 C   0  0  0  0  0  0  0  0  0  0  0  0
   38.6900   27.9750   43.3570 C   0  0  0  0  0  0  0  0  0  0  0  0
   38.8530   27.5540   41.5860 S   0  0  0  0  0  0  0  0  0  0  0  0
   35.5070   27.4560   42.6250 H   0  0  0  0  0  0  0  0  0  0  0  0
   37.0210   28.1040   44.5970 H   0  0  0  0  0  0  0  0  0  0  0  0
   39.5460   28.2450   44.0820 H   0  0  0  0  0  0  0  0  0  0  0  0
  1  2  2  0  0  0  0
  3  1  1  0  0  0  0
  3  4  2  0  0  0  0
  4  9  1  0  0  0  0
  5 12  1  0  0  0  0
  5  4  1  0  0  0  0
  6  7  2  0  0  0  0
  6  5  1  0  0  0  0
  7  3  1  0  0  0  0
  8  6  1  0  0  0  0
 10  8  1  0  0  0  0
 11  8  1  0  0  0  0
 12 13  1  0  0  0  0
 13 15  2  0  0  0  0
 13 14  1  0  0  0  0
 16 17  1  0  0  0  0
 16 15  1  0  0  0  0
 18 16  2  0  0  0  0
 19 18  1  0  0  0  0
 20 18  1  0  0  0  0
 20 12  2  0  0  0  0
 21 22  1  0  0  0  0
 22  1  1  0  0  0  0
 22 23  2  0  0  0  0
 23 29  1  0  0  0  0
 24 23  1  0  0  0  0
 25 24  2  0  0  0  0
 26 21  2  0  0  0  0
 26 25  1  0  0  0  0
 27 21  1  0  0  0  0
 28 25  1  0  0  0  0
 29 33  1  0  0  0  0
 29 30  2  0  0  0  0
 30 34  1  0  0  0  0
 30 31  1  0  0  0  0
 31 35  1  0  0  0  0
 32 31  2  0  0  0  0
 32 36  1  0  0  0  0
 33 32  1  0  0  0  0
M  END
>  <minimizedAffinity>
-5.64369869

$$$$

 OpenBabel03252503173D

 36 39  0  0  0  0  0  0  0  0999 V2000
   40.9200   30.7520   41.2650 C   0  0  0  0  0  0  0  0  0  0  0  0
   41.4780   31.5480   42.0750 O   0  0  0  0  0  0  0  0  0  0  0  0
   39.8280   29.7770   41.6250 C   0  0  0  0  0  0  0  0  0  0  0  0
   39.6500   28.5080   41.1290 C   0  0  0  0  0  0  0  0  0  0  0  0
   38.5570   28.0430   41.7430 N   0  0  0  0  0  0  0  0  0  0  0  0
   38.0740   28.9740   42.5840 C   0  0  0  0  0  0  0  0  0  0  0  0
   38.8610   30.0670   42.5190 N   0  0  0  0  0  0  0  0  0  0  0  0
   36.9490   28.9650   43.4510 N   0  0  0  0  0  0  0  0  0  0  0  0
   40.2540   28.0100   40.4110 H   0  0  0  0  0  0  0  0  0  0  0  0
   37.2610   28.4360   44.3140 H   0  0  0  0  0  0  0  0  0  0  0  0
   36.0160   29.3930   43.2670 H   0  0  0  0  0  0  0  0  0  0  0  0
   37.9260   26.7760   41.5990 C   0  0  0  0  0  0  0  0  0  0  0  0
   37.2630   26.6270   40.3760 C   0  0  0  0  0  0  0  0  0  0  0  0
   37.2320   27.3970   39.6140 H   0  0  0  0  0  0  0  0  0  0  0  0
   36.6030   25.4560   40.0860 C   0  0  0  0  0  3  0  0  0  0  0  0
   36.5750   24.4110   40.9760 C   0  0  0  0  0  0  0  0  0  0  0  0
   36.0440   23.5110   40.7060 H   0  0  0  0  0  0  0  0  0  0  0  0
   37.2300   24.5670   42.1770 C   0  0  0  0  0  0  0  0  0  0  0  0
   37.2250   23.7670   42.8930 H   0  0  0  0  0  0  0  0  0  0  0  0
   37.8970   25.7220   42.4980 C   0  0  0  0  0  3  0  0  0  0  0  0
   42.5640   30.1330   39.5450 C   0  0  0  0  0  0  0  0  0  0  0  0
   41.3880   30.8130   39.9130 C   0  0  0  0  0  0  0  0  0  0  0  0
   40.7710   31.5040   38.8890 C   0  0  0  0  0  0  0  0  0  0  0  0
   41.2510   31.5290   37.6410 N   0  0  0  0  0  0  0  0  0  0  0  0
   42.3900   30.8550   37.3360 C   0  0  0  0  0  0  0  0  0  0  0  0
   43.0370   30.1620   38.2950 N   0  0  0  0  0  0  0  0  0  0  0  0
   43.0840   29.5760   40.3140 H   0  0  0  0  0  0  0  0  0  0  0  0
   42.8070   30.8530   36.3390 H   0  0  0  0  0  0  0  0  0  0  0  0
   39.5830   32.2190   39.1780 C   0  0  0  0  0  0  0  0  0  0  0  0
   38.2500   31.9850   39.0390 C   0  0  0  0  0  0  0  0  0  0  0  0
   37.3250   32.8470   39.4010 C   0  0  0  0  0  0  0  0  0  0  0  0
   37.7660   34.0080   39.9300 C   0  0  0  0  0  0  0  0  0  0  0  0
   39.5860   33.8460   39.9040 S   0  0  0  0  0  0  0  0  0  0  0  0
   38.0250   30.9950   38.5920 H   0  0  0  0  0  0  0  0  0  0  0  0
   36.2550   32.7130   39.3140 H   0  0  0  0  0  0  0  0  0  0  0  0
   37.1600   34.9110   40.3180 H   0  0  0  0  0  0  0  0  0  0  0  0
  1  3  1  0  0  0  0
  1  2  2  0  0  0  0
  3  7  1  0  0  0  0
  4  3  2  0  0  0  0
  4  5  1  0  0  0  0
  5  6  1  0  0  0  0
  6  8  1  0  0  0  0
  7  6  2  0  0  0  0
  8 10  1  0  0  0  0
  9  4  1  0  0  0  0
 11  8  1  0  0  0  0
 12  5  1  0  0  0  0
 12 20  1  0  0  0  0
 13 12  2  0  0  0  0
 14 13  1  0  0  0  0
 15 13  1  0  0  0  0
 15 16  2  0  0  0  0
 16 18  1  0  0  0  0
 17 16  1  0  0  0  0
 18 20  2  0  0  0  0
 18 19  1  0  0  0  0
 21 22  1  0  0  0  0
 21 27  1  0  0  0  0
 22  1  1  0  0  0  0
 23 29  1  0  0  0  0
 23 22  2  0  0  0  0
 24 23  1  0  0  0  0
 25 24  2  0  0  0  0
 25 26  1  0  0  0  0
 26 21  2  0  0  0  0
 28 25  1  0  0  0  0
 29 33  1  0  0  0  0
 30 29  2  0  0  0  0
 30 31  1  0  0  0  0
 31 32  2  0  0  0  0
 32 36  1  0  0  0  0
 33 32  1  0  0  0  0
 34 30  1  0  0  0  0
 35 31  1  0  0  0  0
M  END
>  <minimizedAffinity>
-5.63246584

$$$$

 OpenBabel03252503173D

 36 39  0  0  0  0  0  0  0  0999 V2000
   37.1090   28.8210   41.6640 C   0  0  0  0  0  0  0  0  0  0  0  0
   35.9010   28.5260   41.8950 O   0  0  0  0  0  0  0  0  0  0  0  0
   37.5800   30.1080   41.0350 C   0  0  0  0  0  0  0  0  0  0  0  0
   38.8440   30.3950   40.5790 C   0  0  0  0  0  0  0  0  0  0  0  0
   38.7700   31.6460   40.1100 N   0  0  0  0  0  0  0  0  0  0  0  0
   37.5210   32.1190   40.2650 C   0  0  0  0  0  0  0  0  0  0  0  0
   36.7640   31.1640   40.8430 N   0  0  0  0  0  0  0  0  0  0  0  0
   36.9420   33.3720   39.9320 N   0  0  0  0  0  0  0  0  0  0  0  0
   39.6930   29.7580   40.5980 H   0  0  0  0  0  0  0  0  0  0  0  0
   36.7290   33.3200   38.8950 H   0  0  0  0  0  0  0  0  0  0  0  0
   36.7680   34.1700   40.5810 H   0  0  0  0  0  0  0  0  0  0  0  0
   39.7940   32.4390   39.5230 C   0  0  0  0  0  0  0  0  0  0  0  0
   40.1230   32.0400   38.2230 C   0  0  0  0  0  0  0  0  0  0  0  0
   39.6470   31.2110   37.7120 H   0  0  0  0  0  0  0  0  0  0  0  0
   41.0970   32.7100   37.5200 C   0  0  0  0  0  3  0  0  0  0  0  0
   41.7680   33.7760   38.0650 C   0  0  0  0  0  0  0  0  0  0  0  0
   42.5250   34.2710   37.4770 H   0  0  0  0  0  0  0  0  0  0  0  0
   41.4380   34.1610   39.3450 C   0  0  0  0  0  0  0  0  0  0  0  0
   41.9460   34.9920   39.7970 H   0  0  0  0  0  0  0  0  0  0  0  0
   40.4710   33.5150   40.0740 C   0  0  0  0  0  3  0  0  0  0  0  0
   38.7410   27.9450   43.2800 C   0  0  0  0  0  0  0  0  0  0  0  0
   38.0740   27.8340   42.0470 C   0  0  0  0  0  0  0  0  0  0  0  0
   38.4280   26.7340   41.2900 C   0  0  0  0  0  0  0  0  0  0  0  0
   39.3360   25.8410   41.6940 N   0  0  0  0  0  0  0  0  0  0  0  0
   39.9540   25.9920   42.8940 C   0  0  0  0  0  0  0  0  0  0  0  0
   39.6490   27.0470   43.6770 N   0  0  0  0  0  0  0  0  0  0  0  0
   38.4980   28.7910   43.9100 H   0  0  0  0  0  0  0  0  0  0  0  0
   40.6930   25.2900   43.2520 H   0  0  0  0  0  0  0  0  0  0  0  0
   37.8020   26.5520   40.0320 C   0  0  0  0  0  0  0  0  0  0  0  0
   36.6510   25.9760   39.5930 C   0  0  0  0  0  0  0  0  0  0  0  0
   36.2970   25.9430   38.3270 C   0  0  0  0  0  0  0  0  0  0  0  0
   37.1500   26.5220   37.4540 C   0  0  0  0  0  0  0  0  0  0  0  0
   38.5130   27.1350   38.5060 S   0  0  0  0  0  0  0  0  0  0  0  0
   36.0420   25.5390   40.4110 H   0  0  0  0  0  0  0  0  0  0  0  0
   35.3960   25.5010   37.9250 H   0  0  0  0  0  0  0  0  0  0  0  0
   37.0660   26.6210   36.3080 H   0  0  0  0  0  0  0  0  0  0  0  0
  1  2  2  0  0  0  0
  1 22  1  0  0  0  0
  3  1  1  0  0  0  0
  4  9  1  0  0  0  0
  4  3  2  0  0  0  0
  5  6  1  0  0  0  0
  5  4  1  0  0  0  0
  6  7  2  0  0  0  0
  7  3  1  0  0  0  0
  8  6  1  0  0  0  0
  8 11  1  0  0  0  0
 10  8  1  0  0  0  0
 12 20  1  0  0  0  0
 12  5  1  0  0  0  0
 13 12  2  0  0  0  0
 14 13  1  0  0  0  0
 15 16  2  0  0  0  0
 15 13  1  0  0  0  0
 16 18  1  0  0  0  0
 17 16  1  0  0  0  0
 18 19  1  0  0  0  0
 18 20  2  0  0  0  0
 21 26  1  0  0  0  0
 21 27  1  0  0  0  0
 22 21  2  0  0  0  0
 23 24  2  0  0  0  0
 23 22  1  0  0  0  0
 24 25  1  0  0  0  0
 25 28  1  0  0  0  0
 25 26  2  0  0  0  0
 29 23  1  0  0  0  0
 30 29  2  0  0  0  0
 30 34  1  0  0  0  0
 31 30  1  0  0  0  0
 32 31  2  0  0  0  0
 32 33  1  0  0  0  0
 33 29  1  0  0  0  0
 35 31  1  0  0  0  0
 36 32  1  0  0  0  0
M  END
>  <minimizedAffinity>
-5.56517172

$$$$

 OpenBabel03252503173D

 36 39  0  0  0  0  0  0  0  0999 V2000
   36.9280   30.5700   40.0440 C   0  0  0  0  0  0  0  0  0  0  0  0
   36.1870   31.0460   40.9520 O   0  0  0  0  0  0  0  0  0  0  0  0
   38.2150   31.1910   39.5630 C   0  0  0  0  0  0  0  0  0  0  0  0
   39.3080   31.5310   40.3230 C   0  0  0  0  0  0  0  0  0  0  0  0
   40.1900   32.0420   39.4570 N   0  0  0  0  0  0  0  0  0  0  0  0
   39.6750   32.0230   38.2150 C   0  0  0  0  0  0  0  0  0  0  0  0
   38.4370   31.4920   38.2670 N   0  0  0  0  0  0  0  0  0  0  0  0
   40.2090   32.4470   36.9700 N   0  0  0  0  0  0  0  0  0  0  0  0
   39.4220   31.4120   41.3720 H   0  0  0  0  0  0  0  0  0  0  0  0
   40.8460   31.6620   36.6520 H   0  0  0  0  0  0  0  0  0  0  0  0
   40.0080   33.3450   36.4780 H   0  0  0  0  0  0  0  0  0  0  0  0
   41.4930   32.5520   39.7100 C   0  0  0  0  0  0  0  0  0  0  0  0
   42.4920   31.5760   39.6370 C   0  0  0  0  0  0  0  0  0  0  0  0
   42.2950   30.5340   39.4110 H   0  0  0  0  0  0  0  0  0  0  0  0
   43.8060   31.9130   39.8580 C   0  0  0  0  0  3  0  0  0  0  0  0
   44.1750   33.2020   40.1520 C   0  0  0  0  0  0  0  0  0  0  0  0
   45.2180   33.4210   40.3180 H   0  0  0  0  0  0  0  0  0  0  0  0
   43.1850   34.1570   40.2220 C   0  0  0  0  0  0  0  0  0  0  0  0
   43.4430   35.1740   40.4510 H   0  0  0  0  0  0  0  0  0  0  0  0
   41.8640   33.8540   40.0080 C   0  0  0  0  0  3  0  0  0  0  0  0
   35.7880   29.3710   38.2260 C   0  0  0  0  0  0  0  0  0  0  0  0
   36.4760   29.3460   39.4520 C   0  0  0  0  0  0  0  0  0  0  0  0
   36.6590   28.0880   39.9920 C   0  0  0  0  0  0  0  0  0  0  0  0
   36.2160   26.9750   39.3980 N   0  0  0  0  0  0  0  0  0  0  0  0
   35.5570   27.0510   38.2130 C   0  0  0  0  0  0  0  0  0  0  0  0
   35.3490   28.2530   37.6370 N   0  0  0  0  0  0  0  0  0  0  0  0
   35.6200   30.3340   37.7620 H   0  0  0  0  0  0  0  0  0  0  0  0
   35.1850   26.1740   37.7060 H   0  0  0  0  0  0  0  0  0  0  0  0
   37.3410   27.9770   41.2290 C   0  0  0  0  0  0  0  0  0  0  0  0
   36.9790   27.9610   42.5400 C   0  0  0  0  0  0  0  0  0  0  0  0
   37.8420   27.8430   43.5250 C   0  0  0  0  0  0  0  0  0  0  0  0
   39.1410   27.7360   43.1710 C   0  0  0  0  0  0  0  0  0  0  0  0
   39.1110   27.8090   41.3450 S   0  0  0  0  0  0  0  0  0  0  0  0
   35.8840   28.0560   42.6920 H   0  0  0  0  0  0  0  0  0  0  0  0
   37.6100   27.8240   44.5820 H   0  0  0  0  0  0  0  0  0  0  0  0
   40.0740   27.6240   43.8410 H   0  0  0  0  0  0  0  0  0  0  0  0
  1  2  2  0  0  0  0
  3  1  1  0  0  0  0
  3  4  2  0  0  0  0
  4  9  1  0  0  0  0
  5 12  1  0  0  0  0
  5  4  1  0  0  0  0
  6  7  2  0  0  0  0
  6  5  1  0  0  0  0
  7  3  1  0  0  0  0
  8  6  1  0  0  0  0
 10  8  1  0  0  0  0
 11  8  1  0  0  0  0
 12 20  1  0  0  0  0
 13 12  2  0  0  0  0
 13 15  1  0  0  0  0
 14 13  1  0  0  0  0
 15 16  2  0  0  0  0
 16 18  1  0  0  0  0
 16 17  1  0  0  0  0
 18 19  1  0  0  0  0
 20 18  2  0  0  0  0
 21 22  1  0  0  0  0
 22 23  2  0  0  0  0
 22  1  1  0  0  0  0
 23 29  1  0  0  0  0
 24 23  1  0  0  0  0
 25 24  2  0  0  0  0
 26 25  1  0  0  0  0
 26 21  2  0  0  0  0
 27 21  1  0  0  0  0
 28 25  1  0  0  0  0
 29 33  1  0  0  0  0
 29 30  2  0  0  0  0
 30 34  1  0  0  0  0
 30 31  1  0  0  0  0
 31 35  1  0  0  0  0
 32 31  2  0  0  0  0
 32 36  1  0  0  0  0
 33 32  1  0  0  0  0
M  END
>  <minimizedAffinity>
-5.53632069

$$$$

 OpenBabel03252503173D

 36 39  0  0  0  0  0  0  0  0999 V2000
   37.0660   27.0630   42.1870 C   0  0  0  0  0  0  0  0  0  0  0  0
   36.4960   27.1000   43.3160 O   0  0  0  0  0  0  0  0  0  0  0  0
   37.2900   28.2540   41.2920 C   0  0  0  0  0  0  0  0  0  0  0  0
   37.6790   29.5170   41.6700 C   0  0  0  0  0  0  0  0  0  0  0  0
   37.7420   30.2180   40.5330 N   0  0  0  0  0  0  0  0  0  0  0  0
   37.4100   29.4340   39.4930 C   0  0  0  0  0  0  0  0  0  0  0  0
   37.1240   28.2000   39.9550 N   0  0  0  0  0  0  0  0  0  0  0  0
   37.3260   29.7030   38.1020 N   0  0  0  0  0  0  0  0  0  0  0  0
   37.8820   29.8570   42.6560 H   0  0  0  0  0  0  0  0  0  0  0  0
   38.3230   29.6540   37.7430 H   0  0  0  0  0  0  0  0  0  0  0  0
   36.4610   29.9060   37.5560 H   0  0  0  0  0  0  0  0  0  0  0  0
   38.0940   31.5840   40.3480 C   0  0  0  0  0  0  0  0  0  0  0  0
   39.4570   31.8330   40.5410 C   0  0  0  0  0  0  0  0  0  0  0  0
   40.1750   31.0650   40.8050 H   0  0  0  0  0  0  0  0  0  0  0  0
   39.9540   33.1070   40.3970 C   0  0  0  0  0  3  0  0  0  0  0  0
   39.1390   34.1600   40.0640 C   0  0  0  0  0  0  0  0  0  0  0  0
   39.5730   35.1430   39.9630 H   0  0  0  0  0  0  0  0  0  0  0  0
   37.7990   33.9050   39.8770 C   0  0  0  0  0  0  0  0  0  0  0  0
   37.1370   34.7090   39.6160 H   0  0  0  0  0  0  0  0  0  0  0  0
   37.2710   32.6460   40.0120 C   0  0  0  0  0  3  0  0  0  0  0  0
   36.5980   24.8300   41.2720 C   0  0  0  0  0  0  0  0  0  0  0  0
   37.5200   25.7720   41.7640 C   0  0  0  0  0  0  0  0  0  0  0  0
   38.8320   25.3420   41.7910 C   0  0  0  0  0  0  0  0  0  0  0  0
   39.2030   24.1240   41.3840 N   0  0  0  0  0  0  0  0  0  0  0  0
   38.2750   23.2500   40.9170 C   0  0  0  0  0  0  0  0  0  0  0  0
   36.9770   23.6130   40.8660 N   0  0  0  0  0  0  0  0  0  0  0  0
   35.5560   25.1200   41.2310 H   0  0  0  0  0  0  0  0  0  0  0  0
   38.5380   22.2590   40.5790 H   0  0  0  0  0  0  0  0  0  0  0  0
   39.8220   26.2320   42.2770 C   0  0  0  0  0  0  0  0  0  0  0  0
   40.2790   26.6020   43.5030 C   0  0  0  0  0  0  0  0  0  0  0  0
   41.2430   27.4790   43.6790 C   0  0  0  0  0  0  0  0  0  0  0  0
   41.7760   28.0130   42.5590 C   0  0  0  0  0  0  0  0  0  0  0  0
   40.8470   27.2160   41.2020 S   0  0  0  0  0  0  0  0  0  0  0  0
   39.7580   26.0880   44.3370 H   0  0  0  0  0  0  0  0  0  0  0  0
   41.6450   27.8080   44.6280 H   0  0  0  0  0  0  0  0  0  0  0  0
   42.6200   28.7930   42.4520 H   0  0  0  0  0  0  0  0  0  0  0  0
  1  2  2  0  0  0  0
  3  4  2  0  0  0  0
  3  1  1  0  0  0  0
  4  9  1  0  0  0  0
  5  4  1  0  0  0  0
  6  7  2  0  0  0  0
  6  5  1  0  0  0  0
  7  3  1  0  0  0  0
  8  6  1  0  0  0  0
 10  8  1  0  0  0  0
 11  8  1  0  0  0  0
 12  5  1  0  0  0  0
 12 13  1  0  0  0  0
 13 14  1  0  0  0  0
 15 13  2  0  0  0  0
 16 15  1  0  0  0  0
 17 16  1  0  0  0  0
 18 20  1  0  0  0  0
 18 16  2  0  0  0  0
 19 18  1  0  0  0  0
 20 12  2  0  0  0  0
 21 22  1  0  0  0  0
 22 23  2  0  0  0  0
 22  1  1  0  0  0  0
 23 29  1  0  0  0  0
 24 23  1  0  0  0  0
 25 24  2  0  0  0  0
 26 25  1  0  0  0  0
 26 21  2  0  0  0  0
 27 21  1  0  0  0  0
 28 25  1  0  0  0  0
 29 30  2  0  0  0  0
 30 31  1  0  0  0  0
 30 34  1  0  0  0  0
 31 35  1  0  0  0  0
 32 31  2  0  0  0  0
 33 29  1  0  0  0  0
 33 32  1  0  0  0  0
 36 32  1  0  0  0  0
M  END
>  <minimizedAffinity>
-5.49927521

$$$$

 OpenBabel03252503173D

 36 39  0  0  0  0  0  0  0  0999 V2000
   37.5580   30.9420   40.8220 C   0  0  0  0  0  0  0  0  0  0  0  0
   36.4020   31.4530   40.8810 O   0  0  0  0  0  0  0  0  0  0  0  0
   37.9160   29.5560   41.2940 C   0  0  0  0  0  0  0  0  0  0  0  0
   37.5880   28.3640   40.6950 C   0  0  0  0  0  0  0  0  0  0  0  0
   38.1240   27.4210   41.4770 N   0  0  0  0  0  0  0  0  0  0  0  0
   38.7580   27.9940   42.5150 C   0  0  0  0  0  0  0  0  0  0  0  0
   38.6350   29.3320   42.4130 N   0  0  0  0  0  0  0  0  0  0  0  0
   39.4730   27.4320   43.6050 N   0  0  0  0  0  0  0  0  0  0  0  0
   37.0270   28.2270   39.8030 H   0  0  0  0  0  0  0  0  0  0  0  0
   40.4350   27.2010   43.2250 H   0  0  0  0  0  0  0  0  0  0  0  0
   39.1180   27.2840   44.5750 H   0  0  0  0  0  0  0  0  0  0  0  0
   38.0860   26.0070   41.3220 C   0  0  0  0  0  0  0  0  0  0  0  0
   39.1020   25.5150   40.4950 C   0  0  0  0  0  0  0  0  0  0  0  0
   39.8440   26.1460   40.0190 H   0  0  0  0  0  0  0  0  0  0  0  0
   39.1990   24.1670   40.2470 C   0  0  0  0  0  3  0  0  0  0  0  0
   38.3140   23.2720   40.7950 C   0  0  0  0  0  0  0  0  0  0  0  0
   38.4280   22.2230   40.5730 H   0  0  0  0  0  0  0  0  0  0  0  0
   37.3170   23.7660   41.6080 C   0  0  0  0  0  0  0  0  0  0  0  0
   36.6110   23.0890   42.0510 H   0  0  0  0  0  0  0  0  0  0  0  0
   37.1920   25.1050   41.8760 C   0  0  0  0  0  3  0  0  0  0  0  0
   39.2260   32.7330   41.0560 C   0  0  0  0  0  0  0  0  0  0  0  0
   38.5770   31.7750   40.2560 C   0  0  0  0  0  0  0  0  0  0  0  0
   39.0020   31.7280   38.9430 C   0  0  0  0  0  0  0  0  0  0  0  0
   39.9580   32.5300   38.4640 N   0  0  0  0  0  0  0  0  0  0  0  0
   40.5560   33.4390   39.2770 C   0  0  0  0  0  0  0  0  0  0  0  0
   40.1820   33.5310   40.5690 N   0  0  0  0  0  0  0  0  0  0  0  0
   38.9260   32.8080   42.0930 H   0  0  0  0  0  0  0  0  0  0  0  0
   41.3320   34.1020   38.9240 H   0  0  0  0  0  0  0  0  0  0  0  0
   38.3950   30.7920   38.0700 C   0  0  0  0  0  0  0  0  0  0  0  0
   37.2100   30.7070   37.4090 C   0  0  0  0  0  0  0  0  0  0  0  0
   36.8860   29.6930   36.6350 C   0  0  0  0  0  0  0  0  0  0  0  0
   37.8060   28.7110   36.5230 C   0  0  0  0  0  0  0  0  0  0  0  0
   39.1900   29.2760   37.5740 S   0  0  0  0  0  0  0  0  0  0  0  0
   36.5470   31.5780   37.5870 H   0  0  0  0  0  0  0  0  0  0  0  0
   35.9610   29.5750   36.0870 H   0  0  0  0  0  0  0  0  0  0  0  0
   37.7580   27.7330   35.9130 H   0  0  0  0  0  0  0  0  0  0  0  0
  1  2  2  0  0  0  0
  1  3  1  0  0  0  0
  3  7  1  0  0  0  0
  4  3  2  0  0  0  0
  4  5  1  0  0  0  0
  5  6  1  0  0  0  0
  6  8  1  0  0  0  0
  7  6  2  0  0  0  0
  8 11  1  0  0  0  0
  9  4  1  0  0  0  0
 10  8  1  0  0  0  0
 12  5  1  0  0  0  0
 12 20  1  0  0  0  0
 13 12  2  0  0  0  0
 14 13  1  0  0  0  0
 15 13  1  0  0  0  0
 15 16  2  0  0  0  0
 16 18  1  0  0  0  0
 17 16  1  0  0  0  0
 18 20  2  0  0  0  0
 18 19  1  0  0  0  0
 21 27  1  0  0  0  0
 22  1  1  0  0  0  0
 22 21  2  0  0  0  0
 23 22  1  0  0  0  0
 24 23  2  0  0  0  0
 24 25  1  0  0  0  0
 25 26  2  0  0  0  0
 26 21  1  0  0  0  0
 28 25  1  0  0  0  0
 29 23  1  0  0  0  0
 30 34  1  0  0  0  0
 30 29  2  0  0  0  0
 31 30  1  0  0  0  0
 32 31  2  0  0  0  0
 32 33  1  0  0  0  0
 33 29  1  0  0  0  0
 35 31  1  0  0  0  0
 36 32  1  0  0  0  0
M  END
>  <minimizedAffinity>
-5.45477247

$$$$
