
 OpenBabel03252509273D

 30 32  0  0  1  0  0  0  0  0999 V2000
   46.6480   35.0810   41.8540 C   0  0  1  0  0  0  0  0  0  0  0  0
   48.1750   35.3770   41.8350 C   0  0  0  0  0  0  0  0  0  0  0  0
   47.4570   34.1610   41.1710 C   0  0  2  0  0  0  0  0  0  0  0  0
   46.0440   35.8590   41.3440 H   0  0  0  0  0  0  0  0  0  0  0  0
   48.7620   35.1840   42.7360 H   0  0  0  0  0  0  0  0  0  0  0  0
   48.4670   36.1860   41.1510 H   0  0  0  0  0  0  0  0  0  0  0  0
   47.7900   33.1830   41.6380 H   0  0  0  0  0  0  0  0  0  0  0  0
   44.8060   35.1410   45.1240 C   0  0  0  0  0  0  0  0  0  0  0  0
   45.2070   35.5470   43.8060 C   0  0  0  0  0  0  0  0  0  0  0  0
   46.1900   34.7890   43.2630 C   0  0  0  0  0  0  0  0  0  0  0  0
   46.7560   33.7200   43.9240 N   0  0  0  0  0  0  0  0  0  0  0  0
   46.3470   33.3750   45.1650 C   0  0  0  0  0  0  0  0  0  0  0  0
   45.3640   34.0910   45.7680 N   0  0  0  0  0  0  0  0  0  0  0  0
   44.0110   35.7300   45.5980 H   0  0  0  0  0  0  0  0  0  0  0  0
   46.7360   32.5650   45.7350 H   0  0  0  0  0  0  0  0  0  0  0  0
   44.6470   36.6520   43.1470 N   0  0  0  0  0  0  0  0  0  0  0  0
   44.8200   37.4860   43.7840 H   0  0  0  0  0  0  0  0  0  0  0  0
   44.1680   36.6770   42.2430 H   0  0  0  0  0  0  0  0  0  0  0  0
   47.4590   34.0540   39.6650 C   0  0  0  0  0  0  0  0  0  0  0  0
   46.4640   33.6730   39.3120 H   0  0  0  0  0  0  0  0  0  0  0  0
   47.5820   35.0700   39.2540 H   0  0  0  0  0  0  0  0  0  0  0  0
   48.5000   33.1160   39.1590 C   0  0  0  0  0  0  0  0  0  0  0  0
   49.1530   32.2990   40.0780 C   0  0  0  0  0  0  0  0  0  0  0  0
   48.9450   32.3100   41.1420 H   0  0  0  0  0  0  0  0  0  0  0  0
   50.1110   31.4440   39.5700 C   0  0  0  0  0  3  0  0  0  0  0  0
   50.4270   31.3810   38.2130 C   0  0  0  0  0  0  0  0  0  0  0  0
   51.1780   30.7100   37.8140 H   0  0  0  0  0  0  0  0  0  0  0  0
   49.7490   32.2100   37.3600 C   0  0  0  0  0  0  0  0  0  0  0  0
   49.9850   32.1710   36.3040 H   0  0  0  0  0  0  0  0  0  0  0  0
   48.7890   33.0750   37.8300 C   0  0  0  0  0  3  0  0  0  0  0  0
  1  4  1  6  0  0  0
  1 10  1  0  0  0  0
  2  1  1  0  0  0  0
  2  5  1  0  0  0  0
  3  7  1  1  0  0  0
  3  2  1  0  0  0  0
  3  1  1  0  0  0  0
  6  2  1  0  0  0  0
  8 14  1  0  0  0  0
  8 13  1  0  0  0  0
  9  8  2  0  0  0  0
 10  9  1  0  0  0  0
 10 11  2  0  0  0  0
 11 12  1  0  0  0  0
 12 15  1  0  0  0  0
 12 13  2  0  0  0  0
 16 17  1  0  0  0  0
 16  9  1  0  0  0  0
 18 16  1  0  0  0  0
 19  3  1  0  0  0  0
 20 19  1  0  0  0  0
 21 19  1  0  0  0  0
 22 19  1  0  0  0  0
 22 23  1  0  0  0  0
 23 24  1  0  0  0  0
 25 23  2  0  0  0  0
 26 25  1  0  0  0  0
 27 26  1  0  0  0  0
 28 30  1  0  0  0  0
 28 26  2  0  0  0  0
 29 28  1  0  0  0  0
 30 22  2  0  0  0  0
M  END
>  <minimizedAffinity>
-4.84086514

>  <minimizedRMSD>
0.580048501

$$$$
