
 OpenBabel03252504473D

 27 28  0  0  0  0  0  0  0  0999 V2000
   34.3930   29.2450   39.3040 O   0  0  0  0  0  0  0  0  0  0  0  0
   35.7180   29.3950   40.0760 P   0  0  1  0  0  0  0  0  0  0  0  0
   35.4240   30.4320   41.3640 O   0  0  0  0  0  0  0  0  0  0  0  0
   35.7350   31.3520   41.1980 H   0  0  0  0  0  0  0  0  0  0  0  0
   36.1740   27.8450   40.5390 O   0  0  0  0  0  0  0  0  0  0  0  0
   38.5690   26.1930   42.6710 C   0  0  0  0  0  0  0  0  0  0  0  0
   38.7820   27.1520   43.6580 C   0  0  0  0  0  0  0  0  0  0  0  0
   38.0680   28.3540   43.5320 C   0  0  0  0  0  0  0  0  0  0  0  0
   37.2260   28.5090   42.4760 N   0  0  0  0  0  0  0  0  0  0  0  0
   37.0660   27.5350   41.5530 C   0  0  0  0  0  0  0  0  0  0  0  0
   37.7430   26.3750   41.6570 N   0  0  0  0  0  0  0  0  0  0  0  0
   39.4470   27.0490   44.5050 H   0  0  0  0  0  0  0  0  0  0  0  0
   38.1570   29.1600   44.2370 H   0  0  0  0  0  0  0  0  0  0  0  0
   39.3410   24.9070   42.8100 C   0  0  0  0  0  0  0  0  0  0  0  0
   39.7990   24.8110   43.8040 H   0  0  0  0  0  0  0  0  0  0  0  0
   40.1570   24.8680   42.0340 H   0  0  0  0  0  0  0  0  0  0  0  0
   38.6690   24.0460   42.6840 H   0  0  0  0  0  0  0  0  0  0  0  0
   36.9080   30.0990   39.0870 O   0  0  0  0  0  0  0  0  0  0  0  0
   37.5320   31.2520   39.5990 C   0  0  0  0  0  0  0  0  0  0  0  0
   38.5810   31.1210   40.4640 C   0  0  0  0  0  0  0  0  0  0  0  0
   38.9720   30.1610   40.7880 H   0  0  0  0  0  0  0  0  0  0  0  0
   39.2520   32.2180   41.0150 C   0  0  0  0  0  3  0  0  0  0  0  0
   38.8020   33.4820   40.6410 C   0  0  0  0  0  0  0  0  0  0  0  0
   39.3220   34.3330   41.0690 H   0  0  0  0  0  0  0  0  0  0  0  0
   37.7280   33.5950   39.7550 C   0  0  0  0  0  0  0  0  0  0  0  0
   37.4830   34.6110   39.5510 H   0  0  0  0  0  0  0  0  0  0  0  0
   37.0860   32.5040   39.2290 C   0  0  0  0  0  3  0  0  0  0  0  0
  2  1  2  6  0  0  0
  2  5  1  0  0  0  0
  2  3  1  0  0  0  0
  4  3  1  0  0  0  0
  5 10  1  0  0  0  0
  6 14  1  0  0  0  0
  6  7  1  0  0  0  0
  7 12  1  0  0  0  0
  8  7  2  0  0  0  0
  8 13  1  0  0  0  0
  9  8  1  0  0  0  0
 10 11  1  0  0  0  0
 10  9  2  0  0  0  0
 11  6  2  0  0  0  0
 14 15  1  0  0  0  0
 16 14  1  0  0  0  0
 17 14  1  0  0  0  0
 18 19  1  0  0  0  0
 18  2  1  0  0  0  0
 19 20  1  0  0  0  0
 20 21  1  0  0  0  0
 20 22  2  0  0  0  0
 23 22  1  0  0  0  0
 23 24  1  0  0  0  0
 25 23  2  0  0  0  0
 26 25  1  0  0  0  0
 27 19  2  0  0  0  0
 27 25  1  0  0  0  0
M  END
>  <minimizedAffinity>
-5.13179302

$$$$

 OpenBabel03252504473D

 27 28  0  0  0  0  0  0  0  0999 V2000
   36.8480   29.9260   39.4480 O   0  0  0  0  0  0  0  0  0  0  0  0
   37.0310   31.0170   40.5190 P   0  0  1  0  0  0  0  0  0  0  0  0
   35.6080   31.0800   41.4090 O   0  0  0  0  0  0  0  0  0  0  0  0
   35.0200   31.8250   41.1450 H   0  0  0  0  0  0  0  0  0  0  0  0
   38.3780   30.5740   41.4210 O   0  0  0  0  0  0  0  0  0  0  0  0
   39.6600   27.7480   43.2590 C   0  0  0  0  0  0  0  0  0  0  0  0
   38.4880   27.1250   43.6800 C   0  0  0  0  0  0  0  0  0  0  0  0
   37.2810   27.7310   43.2960 C   0  0  0  0  0  0  0  0  0  0  0  0
   37.3260   28.8670   42.5500 N   0  0  0  0  0  0  0  0  0  0  0  0
   38.5010   29.4200   42.1760 C   0  0  0  0  0  0  0  0  0  0  0  0
   39.6690   28.8520   42.5350 N   0  0  0  0  0  0  0  0  0  0  0  0
   38.4300   26.2220   44.2730 H   0  0  0  0  0  0  0  0  0  0  0  0
   36.3190   27.3340   43.5660 H   0  0  0  0  0  0  0  0  0  0  0  0
   40.9510   27.0950   43.6780 C   0  0  0  0  0  0  0  0  0  0  0  0
   40.7880   26.0810   44.0670 H   0  0  0  0  0  0  0  0  0  0  0  0
   41.4470   27.7120   44.4790 H   0  0  0  0  0  0  0  0  0  0  0  0
   41.6250   26.9990   42.8140 H   0  0  0  0  0  0  0  0  0  0  0  0
   37.2710   32.5340   39.7910 O   0  0  0  0  0  0  0  0  0  0  0  0
   38.5860   32.8190   39.3770 C   0  0  0  0  0  0  0  0  0  0  0  0
   39.1330   32.1130   38.3440 C   0  0  0  0  0  0  0  0  0  0  0  0
   38.6040   31.3300   37.8090 H   0  0  0  0  0  0  0  0  0  0  0  0
   40.4320   32.3360   37.8760 C   0  0  0  0  0  3  0  0  0  0  0  0
   41.1690   33.3300   38.5170 C   0  0  0  0  0  0  0  0  0  0  0  0
   42.1770   33.5030   38.1540 H   0  0  0  0  0  0  0  0  0  0  0  0
   40.5920   34.0400   39.5720 C   0  0  0  0  0  0  0  0  0  0  0  0
   41.2560   34.7680   39.9750 H   0  0  0  0  0  0  0  0  0  0  0  0
   39.3160   33.8020   40.0130 C   0  0  0  0  0  3  0  0  0  0  0  0
  2  1  2  6  0  0  0
  2  3  1  0  0  0  0
  2  5  1  0  0  0  0
  4  3  1  0  0  0  0
  5 10  1  0  0  0  0
  6 14  1  0  0  0  0
  6  7  1  0  0  0  0
  7 12  1  0  0  0  0
  8 13  1  0  0  0  0
  8  7  2  0  0  0  0
  9  8  1  0  0  0  0
 10 11  1  0  0  0  0
 10  9  2  0  0  0  0
 11  6  2  0  0  0  0
 14 15  1  0  0  0  0
 14 16  1  0  0  0  0
 17 14  1  0  0  0  0
 18  2  1  0  0  0  0
 19 18  1  0  0  0  0
 19 27  1  0  0  0  0
 20 19  2  0  0  0  0
 21 20  1  0  0  0  0
 22 20  1  0  0  0  0
 22 23  2  0  0  0  0
 23 25  1  0  0  0  0
 24 23  1  0  0  0  0
 25 26  1  0  0  0  0
 25 27  2  0  0  0  0
M  END
>  <minimizedAffinity>
-5.11140347

$$$$

 OpenBabel03252504473D

 27 28  0  0  0  0  0  0  0  0999 V2000
   37.7330   32.0630   40.6890 O   0  0  0  0  0  0  0  0  0  0  0  0
   37.1480   30.6710   40.9970 P   0  0  1  0  0  0  0  0  0  0  0  0
   35.4990   30.8730   41.2420 O   0  0  0  0  0  0  0  0  0  0  0  0
   35.2490   30.8850   42.1950 H   0  0  0  0  0  0  0  0  0  0  0  0
   37.5270   29.6970   39.6820 O   0  0  0  0  0  0  0  0  0  0  0  0
   34.7550   29.1320   37.4430 C   0  0  0  0  0  0  0  0  0  0  0  0
   35.3800   29.1700   36.2000 C   0  0  0  0  0  0  0  0  0  0  0  0
   36.7660   29.3950   36.1980 C   0  0  0  0  0  0  0  0  0  0  0  0
   37.4050   29.5590   37.3870 N   0  0  0  0  0  0  0  0  0  0  0  0
   36.7360   29.5110   38.5600 C   0  0  0  0  0  0  0  0  0  0  0  0
   35.4050   29.2960   38.5810 N   0  0  0  0  0  0  0  0  0  0  0  0
   34.8920   29.0430   35.2430 H   0  0  0  0  0  0  0  0  0  0  0  0
   37.3470   29.4430   35.2950 H   0  0  0  0  0  0  0  0  0  0  0  0
   33.2690   28.8940   37.4370 C   0  0  0  0  0  0  0  0  0  0  0  0
   32.9140   28.5520   36.4550 H   0  0  0  0  0  0  0  0  0  0  0  0
   32.7300   29.8470   37.7010 H   0  0  0  0  0  0  0  0  0  0  0  0
   33.0070   28.1090   38.1610 H   0  0  0  0  0  0  0  0  0  0  0  0
   37.8260   30.0410   42.4230 O   0  0  0  0  0  0  0  0  0  0  0  0
   37.9580   28.6420   42.4770 C   0  0  0  0  0  0  0  0  0  0  0  0
   39.2050   28.0850   42.5100 C   0  0  0  0  0  0  0  0  0  0  0  0
   40.1210   28.6700   42.4990 H   0  0  0  0  0  0  0  0  0  0  0  0
   39.4190   26.7040   42.5640 C   0  0  0  0  0  3  0  0  0  0  0  0
   38.2870   25.8930   42.5820 C   0  0  0  0  0  0  0  0  0  0  0  0
   38.4520   24.8210   42.6220 H   0  0  0  0  0  0  0  0  0  0  0  0
   37.0200   26.4810   42.5460 C   0  0  0  0  0  0  0  0  0  0  0  0
   36.2410   25.7550   42.5640 H   0  0  0  0  0  0  0  0  0  0  0  0
   36.8360   27.8380   42.4940 C   0  0  0  0  0  3  0  0  0  0  0  0
  2  1  2  6  0  0  0
  2  3  1  0  0  0  0
  2 18  1  0  0  0  0
  3  4  1  0  0  0  0
  5  2  1  0  0  0  0
  6 11  1  0  0  0  0
  7  6  2  0  0  0  0
  8  7  1  0  0  0  0
  8  9  2  0  0  0  0
  9 10  1  0  0  0  0
 10 11  2  0  0  0  0
 10  5  1  0  0  0  0
 12  7  1  0  0  0  0
 13  8  1  0  0  0  0
 14  6  1  0  0  0  0
 14 16  1  0  0  0  0
 14 17  1  0  0  0  0
 15 14  1  0  0  0  0
 18 19  1  0  0  0  0
 19 27  2  0  0  0  0
 19 20  1  0  0  0  0
 20 22  2  0  0  0  0
 21 20  1  0  0  0  0
 22 23  1  0  0  0  0
 23 24  1  0  0  0  0
 25 26  1  0  0  0  0
 25 23  2  0  0  0  0
 27 25  1  0  0  0  0
M  END
>  <minimizedAffinity>
-4.89547253

$$$$

 OpenBabel03252504473D

 27 28  0  0  0  0  0  0  0  0999 V2000
   37.1960   29.3340   39.9900 O   0  0  0  0  0  0  0  0  0  0  0  0
   36.9930   29.8480   41.4280 P   0  0  1  0  0  0  0  0  0  0  0  0
   35.7270   30.9500   41.3850 O   0  0  0  0  0  0  0  0  0  0  0  0
   36.0300   31.8870   41.3860 H   0  0  0  0  0  0  0  0  0  0  0  0
   36.6850   28.4940   42.3750 O   0  0  0  0  0  0  0  0  0  0  0  0
   38.2930   25.2700   42.1930 C   0  0  0  0  0  0  0  0  0  0  0  0
   39.3700   25.4390   43.0600 C   0  0  0  0  0  0  0  0  0  0  0  0
   39.4890   26.6930   43.6790 C   0  0  0  0  0  0  0  0  0  0  0  0
   38.5630   27.6510   43.4040 N   0  0  0  0  0  0  0  0  0  0  0  0
   37.5410   27.4200   42.5510 C   0  0  0  0  0  0  0  0  0  0  0  0
   37.4110   26.2220   41.9470 N   0  0  0  0  0  0  0  0  0  0  0  0
   40.1170   24.6920   43.2930 H   0  0  0  0  0  0  0  0  0  0  0  0
   40.2810   26.9300   44.3660 H   0  0  0  0  0  0  0  0  0  0  0  0
   38.1740   23.9240   41.5290 C   0  0  0  0  0  0  0  0  0  0  0  0
   38.8290   23.1770   41.9990 H   0  0  0  0  0  0  0  0  0  0  0  0
   38.4510   24.0110   40.4410 H   0  0  0  0  0  0  0  0  0  0  0  0
   37.1450   23.5460   41.6190 H   0  0  0  0  0  0  0  0  0  0  0  0
   38.3840   30.6570   41.9750 O   0  0  0  0  0  0  0  0  0  0  0  0
   39.0350   31.4720   41.0300 C   0  0  0  0  0  0  0  0  0  0  0  0
   38.5720   32.7360   40.8010 C   0  0  0  0  0  0  0  0  0  0  0  0
   37.7140   33.1600   41.3150 H   0  0  0  0  0  0  0  0  0  0  0  0
   39.1630   33.6060   39.8780 C   0  0  0  0  0  3  0  0  0  0  0  0
   40.2710   33.1260   39.1830 C   0  0  0  0  0  0  0  0  0  0  0  0
   40.7300   33.8000   38.4670 H   0  0  0  0  0  0  0  0  0  0  0  0
   40.7290   31.8300   39.4320 C   0  0  0  0  0  0  0  0  0  0  0  0
   41.5780   31.5850   38.8380 H   0  0  0  0  0  0  0  0  0  0  0  0
   40.1320   30.9960   40.3410 C   0  0  0  0  0  3  0  0  0  0  0  0
  2  1  2  6  0  0  0
  2 18  1  0  0  0  0
  2  5  1  0  0  0  0
  3  4  1  0  0  0  0
  3  2  1  0  0  0  0
  5 10  1  0  0  0  0
  6  7  1  0  0  0  0
  7 12  1  0  0  0  0
  7  8  2  0  0  0  0
  8 13  1  0  0  0  0
  9  8  1  0  0  0  0
 10  9  2  0  0  0  0
 11  6  2  0  0  0  0
 11 10  1  0  0  0  0
 14 17  1  0  0  0  0
 14 15  1  0  0  0  0
 14  6  1  0  0  0  0
 16 14  1  0  0  0  0
 19 18  1  0  0  0  0
 20 19  1  0  0  0  0
 20 21  1  0  0  0  0
 22 20  2  0  0  0  0
 23 25  2  0  0  0  0
 23 22  1  0  0  0  0
 24 23  1  0  0  0  0
 25 27  1  0  0  0  0
 26 25  1  0  0  0  0
 27 19  2  0  0  0  0
M  END
>  <minimizedAffinity>
-4.8954215

$$$$

 OpenBabel03252504473D

 27 28  0  0  0  0  0  0  0  0999 V2000
   37.7450   32.1010   40.5780 O   0  0  0  0  0  0  0  0  0  0  0  0
   37.1450   30.7300   40.9460 P   0  0  1  0  0  0  0  0  0  0  0  0
   35.5520   30.9960   41.4030 O   0  0  0  0  0  0  0  0  0  0  0  0
   35.4260   31.0050   42.3800 H   0  0  0  0  0  0  0  0  0  0  0  0
   37.3100   29.7610   39.5830 O   0  0  0  0  0  0  0  0  0  0  0  0
   35.4170   29.2360   36.5580 C   0  0  0  0  0  0  0  0  0  0  0  0
   34.1750   28.8580   37.0610 C   0  0  0  0  0  0  0  0  0  0  0  0
   34.0510   28.8020   38.4580 C   0  0  0  0  0  0  0  0  0  0  0  0
   35.1300   29.1150   39.2250 N   0  0  0  0  0  0  0  0  0  0  0  0
   36.3090   29.4740   38.6700 C   0  0  0  0  0  0  0  0  0  0  0  0
   36.4460   29.5330   37.3310 N   0  0  0  0  0  0  0  0  0  0  0  0
   33.3040   28.6060   36.4700 H   0  0  0  0  0  0  0  0  0  0  0  0
   33.1380   28.5240   38.9510 H   0  0  0  0  0  0  0  0  0  0  0  0
   35.5430   29.2900   35.0590 C   0  0  0  0  0  0  0  0  0  0  0  0
   34.5630   29.2450   34.5640 H   0  0  0  0  0  0  0  0  0  0  0  0
   36.1670   28.4240   34.6980 H   0  0  0  0  0  0  0  0  0  0  0  0
   36.0110   30.2370   34.7510 H   0  0  0  0  0  0  0  0  0  0  0  0
   37.9730   30.0520   42.2670 O   0  0  0  0  0  0  0  0  0  0  0  0
   37.9930   28.6460   42.3250 C   0  0  0  0  0  0  0  0  0  0  0  0
   39.1740   27.9830   42.1450 C   0  0  0  0  0  0  0  0  0  0  0  0
   40.1180   28.4850   41.9570 H   0  0  0  0  0  0  0  0  0  0  0  0
   39.2760   26.5890   42.1880 C   0  0  0  0  0  3  0  0  0  0  0  0
   38.1010   25.8800   42.4280 C   0  0  0  0  0  0  0  0  0  0  0  0
   38.1790   24.7980   42.4610 H   0  0  0  0  0  0  0  0  0  0  0  0
   36.9030   26.5760   42.6080 C   0  0  0  0  0  0  0  0  0  0  0  0
   36.0820   25.9210   42.7820 H   0  0  0  0  0  0  0  0  0  0  0  0
   36.8290   27.9440   42.5610 C   0  0  0  0  0  3  0  0  0  0  0  0
  2  1  2  6  0  0  0
  2  3  1  0  0  0  0
  2 18  1  0  0  0  0
  3  4  1  0  0  0  0
  5  2  1  0  0  0  0
  6  7  2  0  0  0  0
  6 11  1  0  0  0  0
  7  8  1  0  0  0  0
  8 13  1  0  0  0  0
  8  9  2  0  0  0  0
 10  9  1  0  0  0  0
 10  5  1  0  0  0  0
 11 10  2  0  0  0  0
 12  7  1  0  0  0  0
 14  6  1  0  0  0  0
 15 14  1  0  0  0  0
 16 14  1  0  0  0  0
 17 14  1  0  0  0  0
 18 19  1  0  0  0  0
 19 27  1  0  0  0  0
 20 22  1  0  0  0  0
 20 19  2  0  0  0  0
 21 20  1  0  0  0  0
 22 23  2  0  0  0  0
 23 24  1  0  0  0  0
 23 25  1  0  0  0  0
 25 26  1  0  0  0  0
 27 25  2  0  0  0  0
M  END
>  <minimizedAffinity>
-4.85582209

$$$$

 OpenBabel03252504473D

 27 28  0  0  0  0  0  0  0  0999 V2000
   36.9460   30.9570   38.8440 O   0  0  0  0  0  0  0  0  0  0  0  0
   37.3290   31.4660   40.2470 P   0  0  1  0  0  0  0  0  0  0  0  0
   36.9410   33.0990   40.3020 O   0  0  0  0  0  0  0  0  0  0  0  0
   37.7210   33.6870   40.1760 H   0  0  0  0  0  0  0  0  0  0  0  0
   36.4710   30.5250   41.3430 O   0  0  0  0  0  0  0  0  0  0  0  0
   37.0860   26.9790   41.5740 C   0  0  0  0  0  0  0  0  0  0  0  0
   37.6170   26.8640   42.8560 C   0  0  0  0  0  0  0  0  0  0  0  0
   37.7390   28.0510   43.5960 C   0  0  0  0  0  0  0  0  0  0  0  0
   37.3390   29.2210   43.0290 N   0  0  0  0  0  0  0  0  0  0  0  0
   36.8310   29.2600   41.7770 C   0  0  0  0  0  0  0  0  0  0  0  0
   36.7070   28.1310   41.0530 N   0  0  0  0  0  0  0  0  0  0  0  0
   37.9420   25.9450   43.3260 H   0  0  0  0  0  0  0  0  0  0  0  0
   38.1350   28.0760   44.5940 H   0  0  0  0  0  0  0  0  0  0  0  0
   36.9620   25.7020   40.7860 C   0  0  0  0  0  0  0  0  0  0  0  0
   37.0960   24.8150   41.4200 H   0  0  0  0  0  0  0  0  0  0  0  0
   37.7390   25.6810   39.9710 H   0  0  0  0  0  0  0  0  0  0  0  0
   35.9590   25.6270   40.3410 H   0  0  0  0  0  0  0  0  0  0  0  0
   39.0020   31.3080   40.5030 O   0  0  0  0  0  0  0  0  0  0  0  0
   39.8310   32.0280   39.6230 C   0  0  0  0  0  0  0  0  0  0  0  0
   40.2950   33.2580   39.9930 C   0  0  0  0  0  0  0  0  0  0  0  0
   40.0590   33.7250   40.9450 H   0  0  0  0  0  0  0  0  0  0  0  0
   41.1230   34.0350   39.1750 C   0  0  0  0  0  3  0  0  0  0  0  0
   41.4670   33.4970   37.9370 C   0  0  0  0  0  0  0  0  0  0  0  0
   42.1080   34.0990   37.3020 H   0  0  0  0  0  0  0  0  0  0  0  0
   40.9820   32.2370   37.5770 C   0  0  0  0  0  0  0  0  0  0  0  0
   41.3160   31.9410   36.6110 H   0  0  0  0  0  0  0  0  0  0  0  0
   40.1710   31.4950   38.3970 C   0  0  0  0  0  3  0  0  0  0  0  0
  2  1  2  6  0  0  0
  2  3  1  0  0  0  0
  2 18  1  0  0  0  0
  2  5  1  0  0  0  0
  4  3  1  0  0  0  0
  5 10  1  0  0  0  0
  6  7  1  0  0  0  0
  7 12  1  0  0  0  0
  7  8  2  0  0  0  0
  8 13  1  0  0  0  0
  9  8  1  0  0  0  0
 10  9  2  0  0  0  0
 11  6  2  0  0  0  0
 11 10  1  0  0  0  0
 14 15  1  0  0  0  0
 14  6  1  0  0  0  0
 16 14  1  0  0  0  0
 17 14  1  0  0  0  0
 19 20  1  0  0  0  0
 19 18  1  0  0  0  0
 20 21  1  0  0  0  0
 22 20  2  0  0  0  0
 23 22  1  0  0  0  0
 24 23  1  0  0  0  0
 25 23  2  0  0  0  0
 25 27  1  0  0  0  0
 26 25  1  0  0  0  0
 27 19  2  0  0  0  0
M  END
>  <minimizedAffinity>
-4.84672737

$$$$

 OpenBabel03252504473D

 27 28  0  0  0  0  0  0  0  0999 V2000
   39.2460   28.9220   41.1110 O   0  0  0  0  0  0  0  0  0  0  0  0
   38.5390   29.5950   42.3030 P   0  0  1  0  0  0  0  0  0  0  0  0
   39.6050   30.7280   42.9340 O   0  0  0  0  0  0  0  0  0  0  0  0
   40.0710   30.4130   43.7420 H   0  0  0  0  0  0  0  0  0  0  0  0
   37.1190   30.2590   41.6970 O   0  0  0  0  0  0  0  0  0  0  0  0
   36.4640   29.9810   38.1610 C   0  0  0  0  0  0  0  0  0  0  0  0
   35.2500   29.3000   38.1480 C   0  0  0  0  0  0  0  0  0  0  0  0
   34.7050   28.9610   39.3970 C   0  0  0  0  0  0  0  0  0  0  0  0
   35.3800   29.3130   40.5240 N   0  0  0  0  0  0  0  0  0  0  0  0
   36.5560   29.9750   40.4640 C   0  0  0  0  0  0  0  0  0  0  0  0
   37.0950   30.3070   39.2740 N   0  0  0  0  0  0  0  0  0  0  0  0
   34.6970   29.0110   37.2650 H   0  0  0  0  0  0  0  0  0  0  0  0
   33.7730   28.4360   39.5020 H   0  0  0  0  0  0  0  0  0  0  0  0
   37.0440   30.3370   36.8180 C   0  0  0  0  0  0  0  0  0  0  0  0
   36.3120   30.2120   36.0100 H   0  0  0  0  0  0  0  0  0  0  0  0
   37.9340   29.6810   36.6020 H   0  0  0  0  0  0  0  0  0  0  0  0
   37.3530   31.3930   36.8060 H   0  0  0  0  0  0  0  0  0  0  0  0
   38.1960   28.4540   43.5160 O   0  0  0  0  0  0  0  0  0  0  0  0
   38.2120   27.1050   43.1150 C   0  0  0  0  0  0  0  0  0  0  0  0
   39.3250   26.3480   43.3500 C   0  0  0  0  0  0  0  0  0  0  0  0
   40.2160   26.7310   43.8370 H   0  0  0  0  0  0  0  0  0  0  0  0
   39.4180   25.0010   42.9820 C   0  0  0  0  0  3  0  0  0  0  0  0
   38.3070   24.4440   42.3510 C   0  0  0  0  0  0  0  0  0  0  0  0
   38.3790   23.4000   42.0650 H   0  0  0  0  0  0  0  0  0  0  0  0
   37.1790   25.2350   42.1200 C   0  0  0  0  0  0  0  0  0  0  0  0
   36.4040   24.6930   41.6330 H   0  0  0  0  0  0  0  0  0  0  0  0
   37.1130   26.5530   42.4900 C   0  0  0  0  0  3  0  0  0  0  0  0
  2  1  2  6  0  0  0
  2  3  1  0  0  0  0
  2 18  1  0  0  0  0
  3  4  1  0  0  0  0
  5  2  1  0  0  0  0
  6 11  1  0  0  0  0
  7  6  2  0  0  0  0
  7  8  1  0  0  0  0
  8 13  1  0  0  0  0
  8  9  2  0  0  0  0
 10  9  1  0  0  0  0
 10  5  1  0  0  0  0
 11 10  2  0  0  0  0
 12  7  1  0  0  0  0
 14  6  1  0  0  0  0
 15 14  1  0  0  0  0
 16 14  1  0  0  0  0
 17 14  1  0  0  0  0
 19 20  1  0  0  0  0
 19 18  1  0  0  0  0
 20 21  1  0  0  0  0
 22 20  2  0  0  0  0
 23 22  1  0  0  0  0
 24 23  1  0  0  0  0
 25 23  2  0  0  0  0
 25 27  1  0  0  0  0
 26 25  1  0  0  0  0
 27 19  2  0  0  0  0
M  END
>  <minimizedAffinity>
-4.82414484

$$$$

 OpenBabel03252504473D

 27 28  0  0  0  0  0  0  0  0999 V2000
   37.8970   28.3420   41.3710 O   0  0  0  0  0  0  0  0  0  0  0  0
   37.6200   29.6570   42.1250 P   0  0  1  0  0  0  0  0  0  0  0  0
   37.1380   29.2420   43.6800 O   0  0  0  0  0  0  0  0  0  0  0  0
   36.1630   29.2840   43.8070 H   0  0  0  0  0  0  0  0  0  0  0  0
   39.0450   30.5450   42.0680 O   0  0  0  0  0  0  0  0  0  0  0  0
   40.4810   31.6400   38.9450 C   0  0  0  0  0  0  0  0  0  0  0  0
   40.2500   33.0120   38.9900 C   0  0  0  0  0  0  0  0  0  0  0  0
   39.5920   33.5020   40.1290 C   0  0  0  0  0  0  0  0  0  0  0  0
   39.2260   32.6270   41.1030 N   0  0  0  0  0  0  0  0  0  0  0  0
   39.4810   31.3040   40.9950 C   0  0  0  0  0  0  0  0  0  0  0  0
   40.1110   30.8160   39.9080 N   0  0  0  0  0  0  0  0  0  0  0  0
   40.5330   33.7250   38.2280 H   0  0  0  0  0  0  0  0  0  0  0  0
   39.3650   34.5440   40.2660 H   0  0  0  0  0  0  0  0  0  0  0  0
   41.1840   31.1200   37.7190 C   0  0  0  0  0  0  0  0  0  0  0  0
   41.6270   31.9320   37.1270 H   0  0  0  0  0  0  0  0  0  0  0  0
   40.4530   30.5600   37.0700 H   0  0  0  0  0  0  0  0  0  0  0  0
   42.0080   30.4510   38.0090 H   0  0  0  0  0  0  0  0  0  0  0  0
   36.3510   30.5120   41.3850 O   0  0  0  0  0  0  0  0  0  0  0  0
   35.9580   30.0560   40.1130 C   0  0  0  0  0  0  0  0  0  0  0  0
   36.6810   30.4240   39.0150 C   0  0  0  0  0  0  0  0  0  0  0  0
   37.5600   31.0600   39.0630 H   0  0  0  0  0  0  0  0  0  0  0  0
   36.3550   30.0120   37.7180 C   0  0  0  0  0  3  0  0  0  0  0  0
   35.2380   29.1910   37.5820 C   0  0  0  0  0  0  0  0  0  0  0  0
   34.9840   28.8720   36.5770 H   0  0  0  0  0  0  0  0  0  0  0  0
   34.5110   28.8260   38.7180 C   0  0  0  0  0  0  0  0  0  0  0  0
   33.6840   28.2000   38.4800 H   0  0  0  0  0  0  0  0  0  0  0  0
   34.8510   29.2430   39.9790 C   0  0  0  0  0  3  0  0  0  0  0  0
  2  1  2  6  0  0  0
  2  3  1  0  0  0  0
  3  4  1  0  0  0  0
  5  2  1  0  0  0  0
  6  7  2  0  0  0  0
  6 11  1  0  0  0  0
  7  8  1  0  0  0  0
  8 13  1  0  0  0  0
  8  9  2  0  0  0  0
 10  9  1  0  0  0  0
 10  5  1  0  0  0  0
 11 10  2  0  0  0  0
 12  7  1  0  0  0  0
 14 17  1  0  0  0  0
 14  6  1  0  0  0  0
 15 14  1  0  0  0  0
 16 14  1  0  0  0  0
 18  2  1  0  0  0  0
 19 18  1  0  0  0  0
 20 21  1  0  0  0  0
 20 19  2  0  0  0  0
 22 20  1  0  0  0  0
 23 22  2  0  0  0  0
 23 25  1  0  0  0  0
 24 23  1  0  0  0  0
 25 27  2  0  0  0  0
 26 25  1  0  0  0  0
 27 19  1  0  0  0  0
M  END
>  <minimizedAffinity>
-4.77447319

$$$$

 OpenBabel03252504473D

 27 28  0  0  0  0  0  0  0  0999 V2000
   39.2060   30.3750   42.9210 O   0  0  0  0  0  0  0  0  0  0  0  0
   38.3140   29.1960   42.4900 P   0  0  1  0  0  0  0  0  0  0  0  0
   36.7210   29.7190   42.5930 O   0  0  0  0  0  0  0  0  0  0  0  0
   36.2640   29.4090   43.4090 H   0  0  0  0  0  0  0  0  0  0  0  0
   38.7950   28.7810   40.9340 O   0  0  0  0  0  0  0  0  0  0  0  0
   37.6430   29.0870   37.5300 C   0  0  0  0  0  0  0  0  0  0  0  0
   36.9440   30.2910   37.5720 C   0  0  0  0  0  0  0  0  0  0  0  0
   36.9060   30.9530   38.8080 C   0  0  0  0  0  0  0  0  0  0  0  0
   37.5410   30.3930   39.8730 N   0  0  0  0  0  0  0  0  0  0  0  0
   38.2020   29.2200   39.7620 C   0  0  0  0  0  0  0  0  0  0  0  0
   38.2490   28.5700   38.5820 N   0  0  0  0  0  0  0  0  0  0  0  0
   36.4330   30.7540   36.7390 H   0  0  0  0  0  0  0  0  0  0  0  0
   36.3950   31.8880   38.9520 H   0  0  0  0  0  0  0  0  0  0  0  0
   37.6770   28.3800   36.2000 C   0  0  0  0  0  0  0  0  0  0  0  0
   37.3360   29.0300   35.3830 H   0  0  0  0  0  0  0  0  0  0  0  0
   37.0130   27.4710   36.2370 H   0  0  0  0  0  0  0  0  0  0  0  0
   38.7060   28.0770   35.9580 H   0  0  0  0  0  0  0  0  0  0  0  0
   38.5110   27.8800   43.5480 O   0  0  0  0  0  0  0  0  0  0  0  0
   38.3820   26.6020   42.9730 C   0  0  0  0  0  0  0  0  0  0  0  0
   37.1610   26.1850   42.5260 C   0  0  0  0  0  0  0  0  0  0  0  0
   36.2630   26.7930   42.5880 H   0  0  0  0  0  0  0  0  0  0  0  0
   36.9520   24.9300   41.9440 C   0  0  0  0  0  3  0  0  0  0  0  0
   38.0640   24.0980   41.8320 C   0  0  0  0  0  0  0  0  0  0  0  0
   37.9020   23.1240   41.3810 H   0  0  0  0  0  0  0  0  0  0  0  0
   39.3040   24.5420   42.2950 C   0  0  0  0  0  0  0  0  0  0  0  0
   40.0680   23.8140   42.1520 H   0  0  0  0  0  0  0  0  0  0  0  0
   39.4830   25.7760   42.8630 C   0  0  0  0  0  3  0  0  0  0  0  0
  2  3  1  0  0  0  0
  2  1  2  1  0  0  0
  2 18  1  0  0  0  0
  3  4  1  0  0  0  0
  5  2  1  0  0  0  0
  6  7  2  0  0  0  0
  6 11  1  0  0  0  0
  7  8  1  0  0  0  0
  8 13  1  0  0  0  0
  8  9  2  0  0  0  0
 10  9  1  0  0  0  0
 10  5  1  0  0  0  0
 11 10  2  0  0  0  0
 12  7  1  0  0  0  0
 14 16  1  0  0  0  0
 14  6  1  0  0  0  0
 15 14  1  0  0  0  0
 17 14  1  0  0  0  0
 19 18  1  0  0  0  0
 20 21  1  0  0  0  0
 20 19  2  0  0  0  0
 22 20  1  0  0  0  0
 23 22  2  0  0  0  0
 23 25  1  0  0  0  0
 24 23  1  0  0  0  0
 25 27  2  0  0  0  0
 26 25  1  0  0  0  0
 27 19  1  0  0  0  0
M  END
>  <minimizedAffinity>
-4.77289772

$$$$
