
 OpenBabel03252509273D

 30 32  0  0  1  0  0  0  0  0999 V2000
   47.1460   35.2850   41.8090 C   0  0  1  0  0  0  0  0  0  0  0  0
   48.6660   35.5840   41.9460 C   0  0  0  0  0  0  0  0  0  0  0  0
   48.0150   34.4770   41.0600 C   0  0  2  0  0  0  0  0  0  0  0  0
   46.5710   36.1280   41.3750 H   0  0  0  0  0  0  0  0  0  0  0  0
   49.1890   35.2620   42.8500 H   0  0  0  0  0  0  0  0  0  0  0  0
   48.9970   36.4850   41.4120 H   0  0  0  0  0  0  0  0  0  0  0  0
   48.3250   33.4420   41.4020 H   0  0  0  0  0  0  0  0  0  0  0  0
   44.9950   34.7700   44.8410 C   0  0  0  0  0  0  0  0  0  0  0  0
   45.4700   35.3630   43.6220 C   0  0  0  0  0  0  0  0  0  0  0  0
   46.5910   34.7880   43.1220 C   0  0  0  0  0  0  0  0  0  0  0  0
   47.2190   33.7250   43.7350 N   0  0  0  0  0  0  0  0  0  0  0  0
   46.7350   33.2000   44.8820 C   0  0  0  0  0  0  0  0  0  0  0  0
   45.6140   33.7270   45.4380 N   0  0  0  0  0  0  0  0  0  0  0  0
   44.0880   35.2070   45.2780 H   0  0  0  0  0  0  0  0  0  0  0  0
   47.1640   32.3820   45.4110 H   0  0  0  0  0  0  0  0  0  0  0  0
   44.8430   36.4620   43.0160 N   0  0  0  0  0  0  0  0  0  0  0  0
   44.8450   37.2350   43.7460 H   0  0  0  0  0  0  0  0  0  0  0  0
   44.4580   36.5310   42.0710 H   0  0  0  0  0  0  0  0  0  0  0  0
   48.1280   34.5930   39.5590 C   0  0  0  0  0  0  0  0  0  0  0  0
   47.3400   35.2930   39.1740 H   0  0  0  0  0  0  0  0  0  0  0  0
   49.1060   35.0450   39.3270 H   0  0  0  0  0  0  0  0  0  0  0  0
   47.9380   33.2870   38.8680 C   0  0  0  0  0  0  0  0  0  0  0  0
   46.8600   33.1550   37.9960 C   0  0  0  0  0  0  0  0  0  0  0  0
   46.1530   33.9510   37.7940 H   0  0  0  0  0  0  0  0  0  0  0  0
   46.7180   31.9300   37.3750 C   0  0  0  0  0  3  0  0  0  0  0  0
   47.5930   30.8650   37.5910 C   0  0  0  0  0  0  0  0  0  0  0  0
   47.4810   29.9030   37.1030 H   0  0  0  0  0  0  0  0  0  0  0  0
   48.6330   31.0580   38.4600 C   0  0  0  0  0  0  0  0  0  0  0  0
   49.3190   30.2390   38.6360 H   0  0  0  0  0  0  0  0  0  0  0  0
   48.8070   32.2640   39.0970 C   0  0  0  0  0  3  0  0  0  0  0  0
  1  4  1  6  0  0  0
  1  2  1  0  0  0  0
  1 10  1  0  0  0  0
  2  5  1  0  0  0  0
  3  7  1  1  0  0  0
  3  1  1  0  0  0  0
  3  2  1  0  0  0  0
  6  2  1  0  0  0  0
  8 14  1  0  0  0  0
  8 13  1  0  0  0  0
  9  8  2  0  0  0  0
 10  9  1  0  0  0  0
 10 11  2  0  0  0  0
 11 12  1  0  0  0  0
 12 15  1  0  0  0  0
 12 13  2  0  0  0  0
 16  9  1  0  0  0  0
 16 17  1  0  0  0  0
 18 16  1  0  0  0  0
 19  3  1  0  0  0  0
 20 19  1  0  0  0  0
 21 19  1  0  0  0  0
 22 30  1  0  0  0  0
 22 19  1  0  0  0  0
 23 22  2  0  0  0  0
 24 23  1  0  0  0  0
 25 26  2  0  0  0  0
 25 23  1  0  0  0  0
 26 28  1  0  0  0  0
 27 26  1  0  0  0  0
 28 29  1  0  0  0  0
 28 30  2  0  0  0  0
M  END
>  <minimizedAffinity>
-4.60154867

>  <minimizedRMSD>
1.36047316

$$$$
