
 OpenBabel03252504473D

 27 28  0  0  0  0  0  0  0  0999 V2000
   45.5500   30.9050   49.3410 O   0  0  0  0  0  0  0  0  0  0  0  0
   45.7490   31.0450   47.8200 P   0  0  1  0  0  0  0  0  0  0  0  0
   44.4940   30.2120   47.0780 O   0  0  0  0  0  0  0  0  0  0  0  0
   44.7600   29.3210   46.7530 H   0  0  0  0  0  0  0  0  0  0  0  0
   45.7580   32.6940   47.4940 O   0  0  0  0  0  0  0  0  0  0  0  0
   45.3580   34.7530   44.5600 C   0  0  0  0  0  0  0  0  0  0  0  0
   46.3390   34.2410   43.7150 C   0  0  0  0  0  0  0  0  0  0  0  0
   47.1110   33.1820   44.2170 C   0  0  0  0  0  0  0  0  0  0  0  0
   46.8600   32.7250   45.4730 N   0  0  0  0  0  0  0  0  0  0  0  0
   45.8900   33.2690   46.2410 C   0  0  0  0  0  0  0  0  0  0  0  0
   45.1390   34.2870   45.7750 N   0  0  0  0  0  0  0  0  0  0  0  0
   46.5560   34.5890   42.7140 H   0  0  0  0  0  0  0  0  0  0  0  0
   47.8940   32.7120   43.6500 H   0  0  0  0  0  0  0  0  0  0  0  0
   44.5360   35.8920   44.0160 C   0  0  0  0  0  0  0  0  0  0  0  0
   44.6720   36.0140   42.9330 H   0  0  0  0  0  0  0  0  0  0  0  0
   44.8330   36.8520   44.5250 H   0  0  0  0  0  0  0  0  0  0  0  0
   43.4660   35.7020   44.1830 H   0  0  0  0  0  0  0  0  0  0  0  0
   47.2170   30.3330   47.3420 O   0  0  0  0  0  0  0  0  0  0  0  0
   48.2810   30.4410   48.2560 C   0  0  0  0  0  0  0  0  0  0  0  0
   48.9490   29.3150   48.6460 C   0  0  0  0  0  0  0  0  0  0  0  0
   48.7040   28.3200   48.2860 H   0  0  0  0  0  0  0  0  0  0  0  0
   50.0160   29.3400   49.5510 C   0  0  0  0  0  0  0  0  0  0  0  0
   50.3840   30.5860   50.0530 C   0  0  0  0  0  0  0  0  0  0  0  0
   51.2110   30.6060   50.7550 H   0  0  0  0  0  0  0  0  0  0  0  0
   49.6880   31.7250   49.6430 C   0  0  0  0  0  0  0  0  0  0  0  0
   50.0660   32.6100   50.0980 H   0  0  0  0  0  0  0  0  0  0  0  0
   48.6450   31.6750   48.7550 C   0  0  0  0  0  0  0  0  0  0  0  0
  2  1  2  1  0  0  0
  3  2  1  0  0  0  0
  4  3  1  0  0  0  0
  5  2  1  0  0  0  0
  6 11  1  0  0  0  0
  7  8  1  0  0  0  0
  7  6  2  0  0  0  0
  8  9  2  0  0  0  0
  9 10  1  0  0  0  0
 10  5  1  0  0  0  0
 11 10  2  0  0  0  0
 12  7  1  0  0  0  0
 13  8  1  0  0  0  0
 14 17  1  0  0  0  0
 14 16  1  0  0  0  0
 14  6  1  0  0  0  0
 15 14  1  0  0  0  0
 18  2  1  0  0  0  0
 18 19  1  0  0  0  0
 19 20  2  0  0  0  0
 19 27  1  0  0  0  0
 20 22  1  0  0  0  0
 21 20  1  0  0  0  0
 22 23  2  0  0  0  0
 23 24  1  0  0  0  0
 25 23  1  0  0  0  0
 25 26  1  0  0  0  0
 27 25  2  0  0  0  0
M  END
>  <minimizedAffinity>
-4.89153194

>  <minimizedRMSD>
1.27090728

$$$$
