
 OpenBabel03242517043D

 33 35  0  0  0  0  0  0  0  0999 V2000
   46.6640   34.7820   42.0050 C   0  0  0  0  0  0  0  0  0  0  0  0
   47.9840   35.1850   41.9980 C   0  0  0  0  0  0  0  0  0  0  0  0
   48.7270   34.9990   40.8530 C   0  0  0  0  0  0  0  0  0  0  0  0
   48.1540   34.4270   39.7560 C   0  0  0  0  0  0  0  0  0  0  0  0
   46.8420   34.0140   39.7290 C   0  0  0  0  0  0  0  0  0  0  0  0
   46.0990   34.2100   40.9030 C   0  0  0  0  0  0  0  0  0  0  0  0
   48.4610   35.6420   42.8560 H   0  0  0  0  0  0  0  0  0  0  0  0
   49.7670   35.2780   40.7430 H   0  0  0  0  0  0  0  0  0  0  0  0
   48.6890   34.2520   38.8180 H   0  0  0  0  0  0  0  0  0  0  0  0
   46.2710   33.5560   38.9440 H   0  0  0  0  0  0  0  0  0  0  0  0
   44.5240   36.2320   44.7600 C   0  0  0  0  0  0  0  0  0  0  0  0
   45.1950   36.1240   43.5240 C   0  0  0  0  0  0  0  0  0  0  0  0
   45.9280   35.0030   43.2490 C   0  0  0  0  0  0  0  0  0  0  0  0
   45.9660   34.0340   44.2110 N   0  0  0  0  0  0  0  0  0  0  0  0
   45.3280   34.1260   45.3950 C   0  0  0  0  0  0  0  0  0  0  0  0
   44.5990   35.2320   45.6780 N   0  0  0  0  0  0  0  0  0  0  0  0
   43.9520   37.1020   44.9810 H   0  0  0  0  0  0  0  0  0  0  0  0
   45.1580   36.8880   42.7820 H   0  0  0  0  0  0  0  0  0  0  0  0
   45.4330   33.2990   46.0700 H   0  0  0  0  0  0  0  0  0  0  0  0
   43.5020   34.4580   40.8600 C   0  0  0  0  0  0  0  0  0  0  0  0
   43.3360   35.6300   40.5650 O   0  0  0  0  0  0  0  0  0  0  0  0
   44.7470   33.8280   41.0280 N   0  0  0  0  0  0  0  0  0  0  0  0
   44.8300   32.8060   41.3210 H   0  0  0  0  0  0  0  0  0  0  0  0
   42.3620   33.6740   41.0470 O   0  0  0  0  0  0  0  0  0  0  0  0
   41.2350   33.9300   40.2800 C   0  0  0  0  0  0  0  0  0  0  0  0
   41.3690   33.5460   38.9610 C   0  0  0  0  0  0  0  0  0  0  0  0
   42.2310   33.0980   38.5300 H   0  0  0  0  0  0  0  0  0  0  0  0
   40.3140   33.7410   38.0640 C   0  0  0  0  0  0  0  0  0  0  0  0
   39.1570   34.3290   38.5800 C   0  0  0  0  0  0  0  0  0  0  0  0
   38.2950   34.5080   37.9280 H   0  0  0  0  0  0  0  0  0  0  0  0
   39.0210   34.7110   39.8970 C   0  0  0  0  0  0  0  0  0  0  0  0
   38.1190   35.1650   40.2810 H   0  0  0  0  0  0  0  0  0  0  0  0
   40.0790   34.5110   40.7740 C   0  0  0  0  0  0  0  0  0  0  0  0
  1 13  1  0  0  0  0
  2  1  1  0  0  0  0
  2  7  1  0  0  0  0
  3  2  2  0  0  0  0
  4  3  1  0  0  0  0
  5  4  2  0  0  0  0
  5  6  1  0  0  0  0
  6 22  1  0  0  0  0
  6  1  2  0  0  0  0
  8  3  1  0  0  0  0
  9  4  1  0  0  0  0
 10  5  1  0  0  0  0
 11 17  1  0  0  0  0
 11 16  1  0  0  0  0
 12 11  2  0  0  0  0
 13 12  1  0  0  0  0
 13 14  2  0  0  0  0
 14 15  1  0  0  0  0
 15 16  2  0  0  0  0
 15 19  1  0  0  0  0
 18 12  1  0  0  0  0
 20 22  1  0  0  0  0
 20 24  1  0  0  0  0
 21 20  2  0  0  0  0
 22 23  1  0  0  0  0
 25 33  1  0  0  0  0
 25 24  1  0  0  0  0
 26 25  2  0  0  0  0
 27 26  1  0  0  0  0
 28 29  2  0  0  0  0
 28 26  1  0  0  0  0
 29 31  1  0  0  0  0
 30 29  1  0  0  0  0
 31 32  1  0  0  0  0
 31 33  2  0  0  0  0
M  END
>  <minimizedAffinity>
-6.79296255

>  <minimizedRMSD>
0.763470173

$$$$
