
 OpenBabel03252509273D

 30 32  0  0  1  0  0  0  0  0999 V2000
   46.5330   35.0550   41.9850 C   0  0  1  0  0  0  0  0  0  0  0  0
   48.0540   35.3770   41.9480 C   0  0  0  0  0  0  0  0  0  0  0  0
   47.3520   34.1360   41.3120 C   0  0  2  0  0  0  0  0  0  0  0  0
   45.9120   35.8130   41.4650 H   0  0  0  0  0  0  0  0  0  0  0  0
   48.6510   35.2110   42.8470 H   0  0  0  0  0  0  0  0  0  0  0  0
   48.3270   36.1780   41.2470 H   0  0  0  0  0  0  0  0  0  0  0  0
   47.7050   33.1730   41.7950 H   0  0  0  0  0  0  0  0  0  0  0  0
   44.7450   35.1760   45.2830 C   0  0  0  0  0  0  0  0  0  0  0  0
   45.1340   35.5650   43.9560 C   0  0  0  0  0  0  0  0  0  0  0  0
   46.0910   34.7820   43.4020 C   0  0  0  0  0  0  0  0  0  0  0  0
   46.6430   33.7040   44.0600 N   0  0  0  0  0  0  0  0  0  0  0  0
   46.2460   33.3750   45.3100 C   0  0  0  0  0  0  0  0  0  0  0  0
   45.2900   34.1170   45.9240 N   0  0  0  0  0  0  0  0  0  0  0  0
   43.9710   35.7850   45.7660 H   0  0  0  0  0  0  0  0  0  0  0  0
   46.6260   32.5600   45.8790 H   0  0  0  0  0  0  0  0  0  0  0  0
   44.5880   36.6790   43.3000 N   0  0  0  0  0  0  0  0  0  0  0  0
   44.7910   37.5120   43.9280 H   0  0  0  0  0  0  0  0  0  0  0  0
   44.0960   36.7090   42.4030 H   0  0  0  0  0  0  0  0  0  0  0  0
   47.3450   34.0020   39.8090 C   0  0  0  0  0  0  0  0  0  0  0  0
   46.3690   33.5580   39.4740 H   0  0  0  0  0  0  0  0  0  0  0  0
   47.4060   35.0150   39.3770 H   0  0  0  0  0  0  0  0  0  0  0  0
   48.4310   33.1150   39.3080 C   0  0  0  0  0  0  0  0  0  0  0  0
   49.1500   32.3650   40.2350 C   0  0  0  0  0  0  0  0  0  0  0  0
   48.9610   32.3920   41.3030 H   0  0  0  0  0  0  0  0  0  0  0  0
   50.1480   31.5550   39.7320 C   0  0  0  0  0  3  0  0  0  0  0  0
   50.4430   31.4730   38.3710 C   0  0  0  0  0  0  0  0  0  0  0  0
   51.2270   30.8380   37.9770 H   0  0  0  0  0  0  0  0  0  0  0  0
   49.7010   32.2360   37.5090 C   0  0  0  0  0  0  0  0  0  0  0  0
   49.9190   32.1810   36.4500 H   0  0  0  0  0  0  0  0  0  0  0  0
   48.6980   33.0530   37.9740 C   0  0  0  0  0  3  0  0  0  0  0  0
  1  4  1  6  0  0  0
  1 10  1  0  0  0  0
  2  1  1  0  0  0  0
  2  5  1  0  0  0  0
  3  7  1  1  0  0  0
  3  2  1  0  0  0  0
  3  1  1  0  0  0  0
  6  2  1  0  0  0  0
  8 14  1  0  0  0  0
  8 13  1  0  0  0  0
  9  8  2  0  0  0  0
 10  9  1  0  0  0  0
 10 11  2  0  0  0  0
 11 12  1  0  0  0  0
 12 15  1  0  0  0  0
 12 13  2  0  0  0  0
 16 17  1  0  0  0  0
 16  9  1  0  0  0  0
 18 16  1  0  0  0  0
 19  3  1  0  0  0  0
 20 19  1  0  0  0  0
 21 19  1  0  0  0  0
 22 19  1  0  0  0  0
 22 23  1  0  0  0  0
 23 24  1  0  0  0  0
 25 23  2  0  0  0  0
 26 25  1  0  0  0  0
 27 26  1  0  0  0  0
 28 30  1  0  0  0  0
 28 26  2  0  0  0  0
 29 28  1  0  0  0  0
 30 22  2  0  0  0  0
M  END
>  <minimizedAffinity>
-4.85680389

>  <minimizedRMSD>
0.460973233

$$$$
