
 OpenBabel03252500233D

 25 26  0  0  0  0  0  0  0  0999 V2000
   47.8050   32.5610   48.1120 O   0  0  0  0  0  0  0  0  0  0  0  0
   46.7710   31.8560   47.2550 P   0  0  2  0  0  0  0  0  0  0  0  0
   47.5770   31.1400   45.9530 O   0  0  0  0  0  0  0  0  0  0  0  0
   46.9020   30.6500   45.3900 H   0  0  0  0  0  0  0  0  0  0  0  0
   45.6500   33.0180   46.7410 O   0  0  0  0  0  0  0  0  0  0  0  0
   44.9880   35.4200   44.1750 C   0  0  0  0  0  0  0  0  0  0  0  0
   45.9700   35.1610   43.2060 C   0  0  0  0  0  0  0  0  0  0  0  0
   46.8830   34.1100   43.4720 C   0  0  0  0  0  0  0  0  0  0  0  0
   46.7560   33.4350   44.6230 N   0  0  0  0  0  0  0  0  0  0  0  0
   45.7850   33.7190   45.5430 C   0  0  0  0  0  0  0  0  0  0  0  0
   44.9120   34.7130   45.3010 N   0  0  0  0  0  0  0  0  0  0  0  0
   46.0830   35.6980   42.2740 H   0  0  0  0  0  0  0  0  0  0  0  0
   47.6740   33.8330   42.7900 H   0  0  0  0  0  0  0  0  0  0  0  0
   44.1170   36.4330   43.9020 O   0  0  0  0  0  0  0  0  0  0  0  0
   44.3430   37.1980   43.2680 H   0  0  0  0  0  0  0  0  0  0  0  0
   46.0670   30.6570   48.1960 O   0  0  0  0  0  0  0  0  0  0  0  0
   45.6070   29.5120   47.5270 C   0  0  0  0  0  0  0  0  0  0  0  0
   46.4060   28.3790   47.6860 C   0  0  0  0  0  0  0  0  0  0  0  0
   47.3120   28.4140   48.2910 H   0  0  0  0  0  0  0  0  0  0  0  0
   46.0040   27.2260   47.0540 C   0  0  0  0  0  0  0  0  0  0  0  0
   44.8400   27.2330   46.2950 C   0  0  0  0  0  0  0  0  0  0  0  0
   44.5160   26.3330   45.7930 H   0  0  0  0  0  0  0  0  0  0  0  0
   44.0840   28.3770   46.1670 C   0  0  0  0  0  0  0  0  0  0  0  0
   43.1610   28.4160   45.5750 H   0  0  0  0  0  0  0  0  0  0  0  0
   44.4480   29.5390   46.7780 C   0  0  0  0  0  0  0  0  0  0  0  0
  2  1  2  1  0  0  0
  2 16  1  0  0  0  0
  3  2  1  0  0  0  0
  4  3  1  0  0  0  0
  5  2  1  0  0  0  0
  6 11  1  0  0  0  0
  7  8  1  0  0  0  0
  7  6  2  0  0  0  0
  8  9  2  0  0  0  0
  9 10  1  0  0  0  0
 10  5  1  0  0  0  0
 11 10  2  0  0  0  0
 12  7  1  0  0  0  0
 13  8  1  0  0  0  0
 14  6  1  0  0  0  0
 15 14  1  0  0  0  0
 17 18  1  0  0  0  0
 17 16  1  0  0  0  0
 18 19  1  0  0  0  0
 20 18  2  0  0  0  0
 21 20  1  0  0  0  0
 22 21  1  0  0  0  0
 23 21  2  0  0  0  0
 23 25  1  0  0  0  0
 24 23  1  0  0  0  0
 25 17  2  0  0  0  0
M  END
>  <minimizedAffinity>
-4.53423071

>  <minimizedRMSD>
2.62529945

$$$$
