
 OpenBabel03252509273D

 30 32  0  0  1  0  0  0  0  0999 V2000
   46.5210   35.0240   42.0090 C   0  0  1  0  0  0  0  0  0  0  0  0
   48.0420   35.3440   41.9400 C   0  0  0  0  0  0  0  0  0  0  0  0
   47.3220   34.1200   41.2940 C   0  0  2  0  0  0  0  0  0  0  0  0
   45.8890   35.7940   41.5230 H   0  0  0  0  0  0  0  0  0  0  0  0
   48.6620   35.1570   42.8200 H   0  0  0  0  0  0  0  0  0  0  0  0
   48.2980   36.1620   41.2520 H   0  0  0  0  0  0  0  0  0  0  0  0
   47.6850   33.1460   41.7440 H   0  0  0  0  0  0  0  0  0  0  0  0
   44.7960   35.0460   45.3420 C   0  0  0  0  0  0  0  0  0  0  0  0
   45.1480   35.4650   44.0140 C   0  0  0  0  0  0  0  0  0  0  0  0
   46.1150   34.7170   43.4300 C   0  0  0  0  0  0  0  0  0  0  0  0
   46.7100   33.6470   44.0610 N   0  0  0  0  0  0  0  0  0  0  0  0
   46.3470   33.2890   45.3130 C   0  0  0  0  0  0  0  0  0  0  0  0
   45.3830   33.9950   45.9560 N   0  0  0  0  0  0  0  0  0  0  0  0
   44.0150   35.6260   45.8490 H   0  0  0  0  0  0  0  0  0  0  0  0
   46.7610   32.4760   45.8630 H   0  0  0  0  0  0  0  0  0  0  0  0
   44.5590   36.5730   43.3850 N   0  0  0  0  0  0  0  0  0  0  0  0
   44.7500   37.4020   44.0220 H   0  0  0  0  0  0  0  0  0  0  0  0
   44.0480   36.6020   42.4980 H   0  0  0  0  0  0  0  0  0  0  0  0
   47.2760   34.0210   39.7880 C   0  0  0  0  0  0  0  0  0  0  0  0
   46.3040   33.5580   39.4700 H   0  0  0  0  0  0  0  0  0  0  0  0
   47.2960   35.0450   39.3810 H   0  0  0  0  0  0  0  0  0  0  0  0
   48.3720   33.1780   39.2360 C   0  0  0  0  0  0  0  0  0  0  0  0
   48.6180   33.2330   37.8660 C   0  0  0  0  0  0  0  0  0  0  0  0
   48.0550   33.8570   37.1810 H   0  0  0  0  0  0  0  0  0  0  0  0
   49.6420   32.4370   37.3930 C   0  0  0  0  0  3  0  0  0  0  0  0
   50.4050   31.6120   38.2190 C   0  0  0  0  0  0  0  0  0  0  0  0
   51.2080   30.9880   37.8480 H   0  0  0  0  0  0  0  0  0  0  0  0
   50.1140   31.6020   39.5570 C   0  0  0  0  0  0  0  0  0  0  0  0
   50.6980   30.9670   40.2100 H   0  0  0  0  0  0  0  0  0  0  0  0
   49.1010   32.3820   40.0650 C   0  0  0  0  0  3  0  0  0  0  0  0
  1  4  1  6  0  0  0
  1 10  1  0  0  0  0
  2  1  1  0  0  0  0
  2  5  1  0  0  0  0
  3  7  1  1  0  0  0
  3  2  1  0  0  0  0
  3  1  1  0  0  0  0
  6  2  1  0  0  0  0
  8 14  1  0  0  0  0
  8 13  1  0  0  0  0
  9  8  2  0  0  0  0
 10  9  1  0  0  0  0
 10 11  2  0  0  0  0
 11 12  1  0  0  0  0
 12 15  1  0  0  0  0
 12 13  2  0  0  0  0
 16  9  1  0  0  0  0
 16 17  1  0  0  0  0
 18 16  1  0  0  0  0
 19  3  1  0  0  0  0
 20 19  1  0  0  0  0
 21 19  1  0  0  0  0
 22 19  1  0  0  0  0
 22 30  1  0  0  0  0
 23 22  2  0  0  0  0
 24 23  1  0  0  0  0
 25 23  1  0  0  0  0
 25 26  2  0  0  0  0
 26 28  1  0  0  0  0
 27 26  1  0  0  0  0
 28 30  2  0  0  0  0
 28 29  1  0  0  0  0
M  END
>  <minimizedAffinity>
-4.89385605

>  <minimizedRMSD>
0.627706289

$$$$
