
     RDKit          3D

 29 30  0  0  0  0  0  0  0  0999 V2000
   47.1570   33.9839   42.4761 C   0  0  0  0  0  0  0  0  0  0  0  0
   45.3018   34.2346   45.6973 C   0  0  0  0  0  0  0  0  0  0  0  0
   46.1689   33.7552   44.7135 C   0  0  0  0  0  0  0  0  0  0  0  0
   46.2664   34.4473   43.5286 C   0  0  0  0  0  0  0  0  0  0  0  0
   45.5026   35.5899   43.3579 N   0  0  0  0  0  0  0  0  0  0  0  0
   44.6686   36.0205   44.3482 C   0  0  0  0  0  0  0  0  0  0  0  0
   44.5710   35.3575   45.4915 N   0  0  0  0  0  0  0  0  0  0  0  0
   48.3207   33.4144   43.0169 O   0  0  0  0  0  0  0  0  0  0  0  0
   50.6642   33.1075   41.9037 O   0  0  0  0  0  0  0  0  0  0  0  0
   49.6213   34.1395   42.2159 P   0  0  2  0  0  0  0  0  0  0  0  0
   50.2080   35.3506   43.2501 O   0  0  0  0  0  0  0  0  0  0  0  0
   49.0706   34.8252   40.7871 O   0  0  0  0  0  0  0  0  0  0  0  0
   46.5981   33.2263   41.8695 H   0  0  0  0  0  0  0  0  0  0  0  0
   47.3697   34.8333   41.7929 H   0  0  0  0  0  0  0  0  0  0  0  0
   45.2815   33.6363   46.5979 H   0  0  0  0  0  0  0  0  0  0  0  0
   46.7751   32.8636   44.8267 H   0  0  0  0  0  0  0  0  0  0  0  0
   44.0871   36.9289   44.1629 H   0  0  0  0  0  0  0  0  0  0  0  0
   51.1616   35.1903   43.4103 H   0  0  0  0  0  0  0  0  0  0  0  0
   48.7981   34.0373   39.6804 C   0  0  0  0  0  0  0  0  0  0  0  0
   49.9726   33.4606   39.2023 C   0  0  0  0  0  0  0  0  0  0  0  0
   50.9701   33.5749   39.5944 H   0  0  0  0  0  0  0  0  0  0  0  0
   49.9528   32.6186   38.0853 C   0  0  0  0  0  0  0  0  0  0  0  0
   48.7557   32.3589   37.4529 C   0  0  0  0  0  0  0  0  0  0  0  0
   48.6658   31.7266   36.5959 H   0  0  0  0  0  0  0  0  0  0  0  0
   47.5850   32.9453   37.9448 C   0  0  0  0  0  0  0  0  0  0  0  0
   46.6070   32.7722   37.4798 H   0  0  0  0  0  0  0  0  0  0  0  0
   47.6067   33.7751   39.0463 C   0  0  0  0  0  0  0  0  0  0  0  0
   50.8309   32.1439   37.6703 H   0  0  0  0  0  0  0  0  0  0  0  0
   46.7778   34.2701   39.4998 H   0  0  0  0  0  0  0  0  0  0  0  0
  1  8  1  0
  1  4  1  0
  3  2  2  0
  4  3  1  0
  5  4  2  0
  5  6  1  0
  6  7  2  0
  7  2  1  0
  9 10  2  0
 10  8  1  1
 10 11  1  0
 12 10  1  0
  1 13  1  0
  1 14  1  0
  2 15  1  0
  3 16  1  0
  6 17  1  0
 11 18  1  0
 19 20  2  0
 20 21  1  0
 20 22  1  0
 22 23  2  0
 23 24  1  0
 23 25  1  0
 25 26  1  0
 25 27  2  0
 27 19  1  0
 22 28  1  0
 27 29  1  0
 12 19  1  0
M  ISO  8  13   8  14   8  15  14  16  14  17  14  18   3  21  16  24  16
M  ISO  1  26  16
M  END
>  <DihAtoms>  (1) 
9,11,18,19

>  <DihDeg>  (1) 
-155.86414018096852

$$$$
