
 OpenBabel03252509313D

 27 28  0  0  0  0  0  0  0  0999 V2000
   50.5190   32.6450   42.3680 O   0  0  0  0  0  0  0  0  0  0  0  0
   49.5100   33.7500   42.2710 P   0  0  2  0  0  0  0  0  0  0  0  0
   49.9860   35.1290   43.1410 O   0  0  0  0  0  0  0  0  0  0  0  0
   50.8830   34.9740   43.5050 H   0  0  0  0  0  0  0  0  0  0  0  0
   48.0420   33.2450   42.9400 O   0  0  0  0  0  0  0  0  0  0  0  0
   47.1170   34.2680   42.6780 C   0  0  0  0  0  0  0  0  0  0  0  0
   46.4680   33.9920   41.8080 H   0  0  0  0  0  0  0  0  0  0  0  0
   47.6020   35.2310   42.4120 H   0  0  0  0  0  0  0  0  0  0  0  0
   45.4520   33.9010   45.9900 C   0  0  0  0  0  0  0  0  0  0  0  0
   46.3050   33.6530   44.9140 C   0  0  0  0  0  0  0  0  0  0  0  0
   46.2460   34.4880   43.8220 C   0  0  0  0  0  0  0  0  0  0  0  0
   45.3440   35.5390   43.8330 N   0  0  0  0  0  0  0  0  0  0  0  0
   44.5290   35.7410   44.9080 C   0  0  0  0  0  0  0  0  0  0  0  0
   44.5820   34.9410   45.9630 N   0  0  0  0  0  0  0  0  0  0  0  0
   45.5590   33.2010   46.8080 H   0  0  0  0  0  0  0  0  0  0  0  0
   47.0180   32.8370   44.8850 H   0  0  0  0  0  0  0  0  0  0  0  0
   43.8340   36.5860   44.8670 H   0  0  0  0  0  0  0  0  0  0  0  0
   49.2710   34.1470   40.6590 O   0  0  0  0  0  0  0  0  0  0  0  0
   48.5260   33.3250   39.8280 C   0  0  0  0  0  0  0  0  0  0  0  0
   49.1640   32.0960   39.6750 C   0  0  0  0  0  0  0  0  0  0  0  0
   50.0970   31.7780   40.1140 H   0  0  0  0  0  0  0  0  0  0  0  0
   48.6020   31.0930   38.8780 C   0  0  0  0  0  3  0  0  0  0  0  0
   47.4050   31.3270   38.2380 C   0  0  0  0  0  0  0  0  0  0  0  0
   46.9180   30.6080   37.6140 H   0  0  0  0  0  0  0  0  0  0  0  0
   46.7770   32.5660   38.4010 C   0  0  0  0  0  0  0  0  0  0  0  0
   45.8230   32.8040   37.9150 H   0  0  0  0  0  0  0  0  0  0  0  0
   47.3320   33.5540   39.1880 C   0  0  0  0  0  3  0  0  0  0  0  0
  2  1  2  1  0  0  0
  2  5  1  0  0  0  0
  2  3  1  0  0  0  0
  3  4  1  0  0  0  0
  6  5  1  0  0  0  0
  6 11  1  0  0  0  0
  7  6  1  0  0  0  0
  8  6  1  0  0  0  0
  9 15  1  0  0  0  0
 10  9  2  0  0  0  0
 11 12  2  0  0  0  0
 11 10  1  0  0  0  0
 12 13  1  0  0  0  0
 13 14  2  0  0  0  0
 14  9  1  0  0  0  0
 16 10  1  0  0  0  0
 17 13  1  0  0  0  0
 18  2  1  0  0  0  0
 19 18  1  0  0  0  0
 20 19  1  0  0  0  0
 20 21  1  0  0  0  0
 22 20  2  0  0  0  0
 23 25  2  0  0  0  0
 23 22  1  0  0  0  0
 24 23  1  0  0  0  0
 25 27  1  0  0  0  0
 26 25  1  0  0  0  0
 27 19  2  0  0  0  0
M  END
>  <minimizedAffinity>
-4.25115681

>  <minimizedRMSD>
1.01226544

$$$$
