
 OpenBabel03252509313D

 27 28  0  0  0  0  0  0  0  0999 V2000
   49.8860   33.0640   41.4180 O   0  0  0  0  0  0  0  0  0  0  0  0
   49.1360   34.1390   42.1450 P   0  0  2  0  0  0  0  0  0  0  0  0
   50.1710   35.1630   43.0180 O   0  0  0  0  0  0  0  0  0  0  0  0
   51.0980   34.9000   42.8350 H   0  0  0  0  0  0  0  0  0  0  0  0
   48.0870   33.4430   43.2730 O   0  0  0  0  0  0  0  0  0  0  0  0
   46.8390   34.0580   43.0830 C   0  0  0  0  0  0  0  0  0  0  0  0
   46.2130   33.4580   42.3740 H   0  0  0  0  0  0  0  0  0  0  0  0
   46.9210   35.0730   42.6430 H   0  0  0  0  0  0  0  0  0  0  0  0
   45.6060   33.3680   46.5310 C   0  0  0  0  0  0  0  0  0  0  0  0
   46.3280   33.2390   45.3430 C   0  0  0  0  0  0  0  0  0  0  0  0
   46.1090   34.1530   44.3380 C   0  0  0  0  0  0  0  0  0  0  0  0
   45.1860   35.1640   44.5440 N   0  0  0  0  0  0  0  0  0  0  0  0
   44.5040   35.2500   45.7230 C   0  0  0  0  0  0  0  0  0  0  0  0
   44.7100   34.3720   46.6940 N   0  0  0  0  0  0  0  0  0  0  0  0
   45.8340   32.6120   47.2700 H   0  0  0  0  0  0  0  0  0  0  0  0
   47.0550   32.4570   45.1610 H   0  0  0  0  0  0  0  0  0  0  0  0
   43.7840   36.0670   45.8350 H   0  0  0  0  0  0  0  0  0  0  0  0
   48.2410   35.0350   41.0450 O   0  0  0  0  0  0  0  0  0  0  0  0
   48.0630   34.5910   39.7440 C   0  0  0  0  0  0  0  0  0  0  0  0
   46.9860   33.7090   39.6830 C   0  0  0  0  0  0  0  0  0  0  0  0
   46.3530   33.3850   40.4920 H   0  0  0  0  0  0  0  0  0  0  0  0
   46.6100   33.1230   38.4690 C   0  0  0  0  0  3  0  0  0  0  0  0
   47.3140   33.4260   37.3230 C   0  0  0  0  0  0  0  0  0  0  0  0
   47.0840   33.0170   36.3630 H   0  0  0  0  0  0  0  0  0  0  0  0
   48.3930   34.3130   37.4020 C   0  0  0  0  0  0  0  0  0  0  0  0
   48.9860   34.5870   36.5200 H   0  0  0  0  0  0  0  0  0  0  0  0
   48.7630   34.8890   38.5990 C   0  0  0  0  0  3  0  0  0  0  0  0
  2  1  2  6  0  0  0
  2  3  1  0  0  0  0
  2  5  1  0  0  0  0
  4  3  1  0  0  0  0
  6  5  1  0  0  0  0
  6 11  1  0  0  0  0
  7  6  1  0  0  0  0
  8  6  1  0  0  0  0
  9 14  1  0  0  0  0
  9 15  1  0  0  0  0
 10  9  2  0  0  0  0
 11 12  2  0  0  0  0
 11 10  1  0  0  0  0
 12 13  1  0  0  0  0
 13 17  1  0  0  0  0
 13 14  2  0  0  0  0
 16 10  1  0  0  0  0
 18  2  1  0  0  0  0
 19 18  1  0  0  0  0
 20 19  1  0  0  0  0
 20 21  1  0  0  0  0
 22 20  2  0  0  0  0
 23 25  2  0  0  0  0
 23 22  1  0  0  0  0
 24 23  1  0  0  0  0
 25 27  1  0  0  0  0
 26 25  1  0  0  0  0
 27 19  2  0  0  0  0
M  END
>  <minimizedAffinity>
-4.78235149

>  <minimizedRMSD>
1.05370402

$$$$
