
 OpenBabel03252509313D

 27 28  0  0  0  0  0  0  0  0999 V2000
   50.5170   32.6430   42.3660 O   0  0  0  0  0  0  0  0  0  0  0  0
   49.5090   33.7490   42.2690 P   0  0  2  0  0  0  0  0  0  0  0  0
   49.9850   35.1270   43.1400 O   0  0  0  0  0  0  0  0  0  0  0  0
   50.8820   34.9710   43.5050 H   0  0  0  0  0  0  0  0  0  0  0  0
   48.0400   33.2450   42.9360 O   0  0  0  0  0  0  0  0  0  0  0  0
   47.1160   34.2710   42.6770 C   0  0  0  0  0  0  0  0  0  0  0  0
   46.4670   33.9990   41.8060 H   0  0  0  0  0  0  0  0  0  0  0  0
   47.6040   35.2330   42.4130 H   0  0  0  0  0  0  0  0  0  0  0  0
   45.4530   33.9000   45.9890 C   0  0  0  0  0  0  0  0  0  0  0  0
   46.3060   33.6530   44.9120 C   0  0  0  0  0  0  0  0  0  0  0  0
   46.2460   34.4890   43.8210 C   0  0  0  0  0  0  0  0  0  0  0  0
   45.3440   35.5400   43.8340 N   0  0  0  0  0  0  0  0  0  0  0  0
   44.5290   35.7410   44.9090 C   0  0  0  0  0  0  0  0  0  0  0  0
   44.5830   34.9390   45.9640 N   0  0  0  0  0  0  0  0  0  0  0  0
   45.5610   33.1990   46.8070 H   0  0  0  0  0  0  0  0  0  0  0  0
   47.0190   32.8380   44.8820 H   0  0  0  0  0  0  0  0  0  0  0  0
   43.8340   36.5850   44.8690 H   0  0  0  0  0  0  0  0  0  0  0  0
   49.2720   34.1470   40.6570 O   0  0  0  0  0  0  0  0  0  0  0  0
   48.5240   33.3270   39.8250 C   0  0  0  0  0  0  0  0  0  0  0  0
   49.1600   32.0980   39.6700 C   0  0  0  0  0  0  0  0  0  0  0  0
   50.0920   31.7770   40.1050 H   0  0  0  0  0  0  0  0  0  0  0  0
   48.5960   31.0980   38.8700 C   0  0  0  0  0  3  0  0  0  0  0  0
   47.3970   31.3350   38.2330 C   0  0  0  0  0  0  0  0  0  0  0  0
   46.9090   30.6180   37.6080 H   0  0  0  0  0  0  0  0  0  0  0  0
   46.7720   32.5740   38.4000 C   0  0  0  0  0  0  0  0  0  0  0  0
   45.8170   32.8160   37.9150 H   0  0  0  0  0  0  0  0  0  0  0  0
   47.3300   33.5590   39.1870 C   0  0  0  0  0  3  0  0  0  0  0  0
  2  1  2  1  0  0  0
  2  5  1  0  0  0  0
  2  3  1  0  0  0  0
  3  4  1  0  0  0  0
  6  5  1  0  0  0  0
  6 11  1  0  0  0  0
  7  6  1  0  0  0  0
  8  6  1  0  0  0  0
  9 15  1  0  0  0  0
 10  9  2  0  0  0  0
 11 12  2  0  0  0  0
 11 10  1  0  0  0  0
 12 13  1  0  0  0  0
 13 14  2  0  0  0  0
 14  9  1  0  0  0  0
 16 10  1  0  0  0  0
 17 13  1  0  0  0  0
 18  2  1  0  0  0  0
 19 18  1  0  0  0  0
 20 19  1  0  0  0  0
 20 21  1  0  0  0  0
 22 20  2  0  0  0  0
 23 25  2  0  0  0  0
 23 22  1  0  0  0  0
 24 23  1  0  0  0  0
 25 27  1  0  0  0  0
 26 25  1  0  0  0  0
 27 19  2  0  0  0  0
M  END
>  <minimizedAffinity>
-4.24882269

>  <minimizedRMSD>
0.818121612

$$$$
