
 OpenBabel03252502563D

 37 39  0  0  0  0  0  0  0  0999 V2000
   45.6010   29.9330   44.7560 Br  0  0  0  0  0  0  0  0  0  0  0  0
   45.6610   30.5870   46.5790 C   0  0  0  0  0  0  0  0  0  0  0  0
   46.3470   31.7620   46.7680 C   0  0  0  0  0  0  0  0  0  0  0  0
   46.3700   32.2040   48.0920 C   0  0  0  0  0  0  0  0  0  0  0  0
   45.7620   31.5300   49.1330 C   0  0  0  0  0  0  0  0  0  0  0  0
   45.0940   30.3580   48.8620 C   0  0  0  0  0  0  0  0  0  0  0  0
   45.0370   29.8700   47.5640 C   0  0  0  0  0  0  0  0  0  0  0  0
   46.8920   33.1240   48.3220 H   0  0  0  0  0  0  0  0  0  0  0  0
   45.8040   31.9070   50.1460 H   0  0  0  0  0  0  0  0  0  0  0  0
   44.6010   29.7950   49.6460 H   0  0  0  0  0  0  0  0  0  0  0  0
   47.0270   32.5600   45.7530 C   0  0  0  0  0  0  0  0  0  0  0  0
   47.3550   31.9100   44.9100 H   0  0  0  0  0  0  0  0  0  0  0  0
   47.9760   32.9840   46.1680 H   0  0  0  0  0  0  0  0  0  0  0  0
   44.5480   35.3140   45.3950 C   0  0  0  0  0  0  0  0  0  0  0  0
   44.7630   35.7290   44.0760 C   0  0  0  0  0  0  0  0  0  0  0  0
   45.7350   35.0690   43.3520 C   0  0  0  0  0  0  0  0  0  0  0  0
   46.4370   34.0610   43.9240 N   0  0  0  0  0  0  0  0  0  0  0  0
   46.2100   33.6730   45.2110 C   0  0  0  0  0  0  0  0  0  0  0  0
   45.2580   34.3250   45.9130 N   0  0  0  0  0  0  0  0  0  0  0  0
   43.7970   35.8030   45.9980 H   0  0  0  0  0  0  0  0  0  0  0  0
   44.1420   36.5450   43.7280 H   0  0  0  0  0  0  0  0  0  0  0  0
   45.8920   35.3990   42.3320 H   0  0  0  0  0  0  0  0  0  0  0  0
   44.3580   28.6810   47.2970 O   0  0  0  0  0  0  0  0  0  0  0  0
   44.0980   26.1060   47.0240 O   0  0  0  0  0  0  0  0  0  0  0  0
   44.9480   27.1490   47.7600 P   0  0  2  0  0  0  0  0  0  0  0  0
   44.7450   27.0180   49.4130 O   0  0  0  0  0  0  0  0  0  0  0  0
   45.5300   27.4130   49.8570 H   0  0  0  0  0  0  0  0  0  0  0  0
   46.5450   26.9290   47.2880 O   0  0  0  0  0  0  0  0  0  0  0  0
   47.3800   26.1210   48.0470 C   0  0  0  0  0  0  0  0  0  0  0  0
   47.0520   24.8580   48.4920 C   0  0  0  0  0  0  0  0  0  0  0  0
   46.0790   24.4590   48.2370 H   0  0  0  0  0  0  0  0  0  0  0  0
   47.8900   24.0750   49.2400 C   0  0  0  0  0  0  0  0  0  0  0  0
   49.1430   24.5980   49.5640 C   0  0  0  0  0  0  0  0  0  0  0  0
   49.8080   23.9730   50.1590 H   0  0  0  0  0  0  0  0  0  0  0  0
   49.5270   25.8480   49.1500 C   0  0  0  0  0  0  0  0  0  0  0  0
   50.4970   26.1700   49.4390 H   0  0  0  0  0  0  0  0  0  0  0  0
   48.6310   26.5900   48.3950 C   0  0  0  0  0  0  0  0  0  0  0  0
  1  2  1  0  0  0  0
  2  3  2  0  0  0  0
  2  7  1  0  0  0  0
  3  4  1  0  0  0  0
  4  8  1  0  0  0  0
  4  5  2  0  0  0  0
  5  9  1  0  0  0  0
  6  5  1  0  0  0  0
  6 10  1  0  0  0  0
  7  6  2  0  0  0  0
 11 13  1  0  0  0  0
 11  3  1  0  0  0  0
 12 11  1  0  0  0  0
 14 19  1  0  0  0  0
 14 20  1  0  0  0  0
 15 14  2  0  0  0  0
 16 17  2  0  0  0  0
 16 15  1  0  0  0  0
 17 18  1  0  0  0  0
 18 11  1  0  0  0  0
 18 19  2  0  0  0  0
 21 15  1  0  0  0  0
 22 16  1  0  0  0  0
 23  7  1  0  0  0  0
 23 25  1  0  0  0  0
 25 24  2  6  0  0  0
 25 26  1  0  0  0  0
 26 27  1  0  0  0  0
 28 25  1  0  0  0  0
 28 29  1  0  0  0  0
 29 37  2  0  0  0  0
 29 30  1  0  0  0  0
 30 32  2  0  0  0  0
 31 30  1  0  0  0  0
 32 33  1  0  0  0  0
 33 34  1  0  0  0  0
 35 36  1  0  0  0  0
 35 33  2  0  0  0  0
 37 35  1  0  0  0  0
M  END
>  <minimizedAffinity>
-5.31726122

>  <minimizedRMSD>
0.408146381

$$$$
