
 OpenBabel03252502573D

 37 39  0  0  0  0  0  0  0  0999 V2000
   40.8920   31.3000   38.8670 Br  0  0  0  0  0  0  0  0  0  0  0  0
   40.0200   32.9290   39.4540 C   0  0  0  0  0  0  0  0  0  0  0  0
   40.8510   33.9960   39.6950 C   0  0  0  0  0  0  0  0  0  0  0  0
   40.1890   35.1510   40.1170 C   0  0  0  0  0  0  0  0  0  0  0  0
   38.8210   35.2310   40.2820 C   0  0  0  0  0  0  0  0  0  0  0  0
   38.0570   34.1170   40.0190 C   0  0  0  0  0  0  0  0  0  0  0  0
   38.6580   32.9400   39.5970 C   0  0  0  0  0  0  0  0  0  0  0  0
   40.7770   36.0350   40.3270 H   0  0  0  0  0  0  0  0  0  0  0  0
   38.3480   36.1460   40.6100 H   0  0  0  0  0  0  0  0  0  0  0  0
   36.9790   34.1320   40.1350 H   0  0  0  0  0  0  0  0  0  0  0  0
   42.3030   34.0320   39.5580 C   0  0  0  0  0  0  0  0  0  0  0  0
   42.6200   34.9930   39.0930 H   0  0  0  0  0  0  0  0  0  0  0  0
   42.6420   33.2460   38.8390 H   0  0  0  0  0  0  0  0  0  0  0  0
   43.8680   32.5400   42.5880 C   0  0  0  0  0  0  0  0  0  0  0  0
   44.4220   33.6630   43.2120 C   0  0  0  0  0  0  0  0  0  0  0  0
   44.2510   34.8840   42.5930 C   0  0  0  0  0  0  0  0  0  0  0  0
   43.5670   34.9610   41.4260 N   0  0  0  0  0  0  0  0  0  0  0  0
   43.0360   33.8530   40.8360 C   0  0  0  0  0  0  0  0  0  0  0  0
   43.2080   32.6620   41.4480 N   0  0  0  0  0  0  0  0  0  0  0  0
   43.9790   31.5650   43.0380 H   0  0  0  0  0  0  0  0  0  0  0  0
   44.9470   33.4790   44.1410 H   0  0  0  0  0  0  0  0  0  0  0  0
   44.6840   35.7470   43.0850 H   0  0  0  0  0  0  0  0  0  0  0  0
   37.8770   31.8140   39.3340 O   0  0  0  0  0  0  0  0  0  0  0  0
   37.2270   29.3610   39.9110 O   0  0  0  0  0  0  0  0  0  0  0  0
   37.3390   30.7500   40.5530 P   0  0  2  0  0  0  0  0  0  0  0  0
   35.8420   31.2900   41.0590 O   0  0  0  0  0  0  0  0  0  0  0  0
   35.9750   31.9670   41.7620 H   0  0  0  0  0  0  0  0  0  0  0  0
   38.4440   30.6390   41.8130 O   0  0  0  0  0  0  0  0  0  0  0  0
   38.5900   29.4380   42.4940 C   0  0  0  0  0  0  0  0  0  0  0  0
   37.5910   28.8240   43.2190 C   0  0  0  0  0  0  0  0  0  0  0  0
   36.6220   29.3030   43.2670 H   0  0  0  0  0  0  0  0  0  0  0  0
   37.7530   27.6380   43.8840 C   0  0  0  0  0  3  0  0  0  0  0  0
   39.0070   27.0290   43.8170 C   0  0  0  0  0  0  0  0  0  0  0  0
   39.1350   26.0840   44.3470 H   0  0  0  0  0  0  0  0  0  0  0  0
   40.0410   27.5900   43.1120 C   0  0  0  0  0  0  0  0  0  0  0  0
   40.9620   27.0610   43.1110 H   0  0  0  0  0  0  0  0  0  0  0  0
   39.8100   28.7920   42.4600 C   0  0  0  0  0  3  0  0  0  0  0  0
  1  2  1  0  0  0  0
  2  7  2  0  0  0  0
  2  3  1  0  0  0  0
  3  4  2  0  0  0  0
  4  5  1  0  0  0  0
  4  8  1  0  0  0  0
  5  9  1  0  0  0  0
  6 10  1  0  0  0  0
  6  5  2  0  0  0  0
  7  6  1  0  0  0  0
 11  3  1  0  0  0  0
 11 18  1  0  0  0  0
 12 11  1  0  0  0  0
 13 11  1  0  0  0  0
 14 20  1  0  0  0  0
 14 15  1  0  0  0  0
 15 21  1  0  0  0  0
 16 22  1  0  0  0  0
 16 15  2  0  0  0  0
 17 16  1  0  0  0  0
 18 17  2  0  0  0  0
 18 19  1  0  0  0  0
 19 14  2  0  0  0  0
 23  7  1  0  0  0  0
 23 25  1  0  0  0  0
 25 24  2  6  0  0  0
 25 26  1  0  0  0  0
 25 28  1  0  0  0  0
 26 27  1  0  0  0  0
 28 29  1  0  0  0  0
 29 30  1  0  0  0  0
 30 31  1  0  0  0  0
 30 32  2  0  0  0  0
 33 32  1  0  0  0  0
 33 34  1  0  0  0  0
 35 33  2  0  0  0  0
 36 35  1  0  0  0  0
 37 29  2  0  0  0  0
 37 35  1  0  0  0  0
M  END
>  <minimizedAffinity>
-6.17134523

$$$$

 OpenBabel03252502573D

 37 39  0  0  0  0  0  0  0  0999 V2000
   40.2370   30.9050   42.4760 Br  0  0  0  0  0  0  0  0  0  0  0  0
   38.9430   31.6610   41.2480 C   0  0  0  0  0  0  0  0  0  0  0  0
   39.3770   32.7340   40.5090 C   0  0  0  0  0  0  0  0  0  0  0  0
   38.4190   33.2530   39.6360 C   0  0  0  0  0  0  0  0  0  0  0  0
   37.1420   32.7430   39.5130 C   0  0  0  0  0  0  0  0  0  0  0  0
   36.7830   31.6640   40.2880 C   0  0  0  0  0  0  0  0  0  0  0  0
   37.6930   31.1060   41.1740 C   0  0  0  0  0  0  0  0  0  0  0  0
   38.6860   34.1010   39.0200 H   0  0  0  0  0  0  0  0  0  0  0  0
   36.4290   33.1740   38.8230 H   0  0  0  0  0  0  0  0  0  0  0  0
   35.7920   31.2300   40.2250 H   0  0  0  0  0  0  0  0  0  0  0  0
   40.6950   33.3600   40.5520 C   0  0  0  0  0  0  0  0  0  0  0  0
   41.2380   33.0480   41.4740 H   0  0  0  0  0  0  0  0  0  0  0  0
   40.5920   34.4690   40.6480 H   0  0  0  0  0  0  0  0  0  0  0  0
   42.5310   33.6360   37.3270 C   0  0  0  0  0  0  0  0  0  0  0  0
   43.1470   32.3820   37.2340 C   0  0  0  0  0  0  0  0  0  0  0  0
   42.9230   31.4870   38.2600 C   0  0  0  0  0  0  0  0  0  0  0  0
   42.1330   31.8370   39.3030 N   0  0  0  0  0  0  0  0  0  0  0  0
   41.5430   33.0640   39.3720 C   0  0  0  0  0  0  0  0  0  0  0  0
   41.7680   33.9350   38.3640 N   0  0  0  0  0  0  0  0  0  0  0  0
   42.6790   34.3670   36.5460 H   0  0  0  0  0  0  0  0  0  0  0  0
   43.7550   32.2160   36.3540 H   0  0  0  0  0  0  0  0  0  0  0  0
   43.4040   30.5200   38.1780 H   0  0  0  0  0  0  0  0  0  0  0  0
   37.3210   30.0130   41.9570 O   0  0  0  0  0  0  0  0  0  0  0  0
   37.2760   28.1860   40.1040 O   0  0  0  0  0  0  0  0  0  0  0  0
   36.4880   28.6610   41.3320 P   0  0  2  0  0  0  0  0  0  0  0  0
   34.9630   29.1790   40.8910 O   0  0  0  0  0  0  0  0  0  0  0  0
   34.3760   29.1290   41.6800 H   0  0  0  0  0  0  0  0  0  0  0  0
   36.4460   27.3930   42.4320 O   0  0  0  0  0  0  0  0  0  0  0  0
   37.6240   26.7420   42.7740 C   0  0  0  0  0  0  0  0  0  0  0  0
   38.5980   27.2700   43.5950 C   0  0  0  0  0  0  0  0  0  0  0  0
   38.4450   28.2590   44.0060 H   0  0  0  0  0  0  0  0  0  0  0  0
   39.7540   26.6130   43.9220 C   0  0  0  0  0  3  0  0  0  0  0  0
   39.9430   25.3370   43.3870 C   0  0  0  0  0  0  0  0  0  0  0  0
   40.8630   24.8150   43.6490 H   0  0  0  0  0  0  0  0  0  0  0  0
   39.0100   24.7590   42.5650 C   0  0  0  0  0  0  0  0  0  0  0  0
   39.2310   23.7850   42.2010 H   0  0  0  0  0  0  0  0  0  0  0  0
   37.8610   25.4780   42.2730 C   0  0  0  0  0  3  0  0  0  0  0  0
  2  1  1  0  0  0  0
  3 11  1  0  0  0  0
  3  2  2  0  0  0  0
  4  3  1  0  0  0  0
  5  4  2  0  0  0  0
  5  6  1  0  0  0  0
  6  7  2  0  0  0  0
  7  2  1  0  0  0  0
  7 23  1  0  0  0  0
  8  4  1  0  0  0  0
  9  5  1  0  0  0  0
 10  6  1  0  0  0  0
 11 13  1  0  0  0  0
 11 12  1  0  0  0  0
 14 19  1  0  0  0  0
 15 14  2  0  0  0  0
 15 16  1  0  0  0  0
 16 17  2  0  0  0  0
 17 18  1  0  0  0  0
 18 11  1  0  0  0  0
 19 18  2  0  0  0  0
 20 14  1  0  0  0  0
 21 15  1  0  0  0  0
 22 16  1  0  0  0  0
 25 24  2  6  0  0  0
 25 23  1  0  0  0  0
 25 28  1  0  0  0  0
 26 25  1  0  0  0  0
 26 27  1  0  0  0  0
 28 29  1  0  0  0  0
 29 30  1  0  0  0  0
 30 32  2  0  0  0  0
 30 31  1  0  0  0  0
 33 34  1  0  0  0  0
 33 32  1  0  0  0  0
 35 33  2  0  0  0  0
 36 35  1  0  0  0  0
 37 35  1  0  0  0  0
 37 29  2  0  0  0  0
M  END
>  <minimizedAffinity>
-6.09573126

$$$$

 OpenBabel03252502573D

 37 39  0  0  0  0  0  0  0  0999 V2000
   41.8170   29.1190   42.5130 Br  0  0  0  0  0  0  0  0  0  0  0  0
   39.9540   28.7350   42.8810 C   0  0  0  0  0  0  0  0  0  0  0  0
   39.0650   29.7300   42.5560 C   0  0  0  0  0  0  0  0  0  0  0  0
   37.7320   29.4200   42.8350 C   0  0  0  0  0  0  0  0  0  0  0  0
   37.3260   28.2230   43.3890 C   0  0  0  0  0  0  0  0  0  0  0  0
   38.2790   27.2750   43.6870 C   0  0  0  0  0  0  0  0  0  0  0  0
   39.6200   27.5270   43.4320 C   0  0  0  0  0  0  0  0  0  0  0  0
   36.9710   30.1560   42.6060 H   0  0  0  0  0  0  0  0  0  0  0  0
   36.2830   28.0220   43.5890 H   0  0  0  0  0  0  0  0  0  0  0  0
   38.0070   26.3210   44.1230 H   0  0  0  0  0  0  0  0  0  0  0  0
   39.3720   31.0310   41.9700 C   0  0  0  0  0  0  0  0  0  0  0  0
   40.4700   31.1310   41.8110 H   0  0  0  0  0  0  0  0  0  0  0  0
   39.1160   31.8480   42.6890 H   0  0  0  0  0  0  0  0  0  0  0  0
   37.1340   32.4570   39.3600 C   0  0  0  0  0  0  0  0  0  0  0  0
   37.4600   31.6810   38.2410 C   0  0  0  0  0  0  0  0  0  0  0  0
   38.4220   30.7050   38.4030 C   0  0  0  0  0  0  0  0  0  0  0  0
   39.0100   30.5280   39.6110 N   0  0  0  0  0  0  0  0  0  0  0  0
   38.6760   31.2960   40.6870 C   0  0  0  0  0  0  0  0  0  0  0  0
   37.7340   32.2490   40.5190 N   0  0  0  0  0  0  0  0  0  0  0  0
   36.3860   33.2320   39.2770 H   0  0  0  0  0  0  0  0  0  0  0  0
   36.9250   31.9140   37.3290 H   0  0  0  0  0  0  0  0  0  0  0  0
   38.6660   30.1100   37.5310 H   0  0  0  0  0  0  0  0  0  0  0  0
   40.5790   26.5620   43.7370 O   0  0  0  0  0  0  0  0  0  0  0  0
   39.8120   24.1200   43.2660 O   0  0  0  0  0  0  0  0  0  0  0  0
   40.8280   25.1660   42.7890 P   0  0  2  0  0  0  0  0  0  0  0  0
   42.3890   24.6450   43.0720 O   0  0  0  0  0  0  0  0  0  0  0  0
   42.9940   25.1230   42.4590 H   0  0  0  0  0  0  0  0  0  0  0  0
   40.5310   25.4590   41.1620 O   0  0  0  0  0  0  0  0  0  0  0  0
   39.2310   25.6900   40.7330 C   0  0  0  0  0  0  0  0  0  0  0  0
   38.1710   24.8350   40.9530 C   0  0  0  0  0  0  0  0  0  0  0  0
   38.3550   23.9180   41.4970 H   0  0  0  0  0  0  0  0  0  0  0  0
   36.8950   25.0810   40.5220 C   0  0  0  0  0  3  0  0  0  0  0  0
   36.6690   26.2660   39.8210 C   0  0  0  0  0  0  0  0  0  0  0  0
   35.6520   26.4600   39.4790 H   0  0  0  0  0  0  0  0  0  0  0  0
   37.6820   27.1570   39.5710 C   0  0  0  0  0  0  0  0  0  0  0  0
   37.4240   28.0350   39.0320 H   0  0  0  0  0  0  0  0  0  0  0  0
   38.9510   26.8480   40.0350 C   0  0  0  0  0  3  0  0  0  0  0  0
  1  2  1  0  0  0  0
  2  7  1  0  0  0  0
  3  4  1  0  0  0  0
  3  2  2  0  0  0  0
  4  5  2  0  0  0  0
  5  9  1  0  0  0  0
  5  6  1  0  0  0  0
  6 10  1  0  0  0  0
  7  6  2  0  0  0  0
  7 23  1  0  0  0  0
  8  4  1  0  0  0  0
 11  3  1  0  0  0  0
 11 13  1  0  0  0  0
 12 11  1  0  0  0  0
 14 19  1  0  0  0  0
 15 16  1  0  0  0  0
 15 14  2  0  0  0  0
 16 17  2  0  0  0  0
 17 18  1  0  0  0  0
 18 11  1  0  0  0  0
 19 18  2  0  0  0  0
 20 14  1  0  0  0  0
 21 15  1  0  0  0  0
 22 16  1  0  0  0  0
 25 26  1  0  0  0  0
 25 24  2  1  0  0  0
 25 23  1  0  0  0  0
 27 26  1  0  0  0  0
 28 25  1  0  0  0  0
 29 30  1  0  0  0  0
 29 28  1  0  0  0  0
 30 31  1  0  0  0  0
 32 30  2  0  0  0  0
 33 32  1  0  0  0  0
 34 33  1  0  0  0  0
 35 33  2  0  0  0  0
 35 37  1  0  0  0  0
 36 35  1  0  0  0  0
 37 29  2  0  0  0  0
M  END
>  <minimizedAffinity>
-5.8554101

$$$$

 OpenBabel03252502573D

 37 39  0  0  0  0  0  0  0  0999 V2000
   36.4920   28.1670   41.4730 Br  0  0  0  0  0  0  0  0  0  0  0  0
   38.0330   27.4070   42.3690 C   0  0  0  0  0  0  0  0  0  0  0  0
   38.1040   26.0360   42.3750 C   0  0  0  0  0  0  0  0  0  0  0  0
   39.2260   25.5230   43.0290 C   0  0  0  0  0  0  0  0  0  0  0  0
   40.1900   26.3120   43.6250 C   0  0  0  0  0  0  0  0  0  0  0  0
   40.0470   27.6800   43.5760 C   0  0  0  0  0  0  0  0  0  0  0  0
   38.9520   28.2470   42.9390 C   0  0  0  0  0  0  0  0  0  0  0  0
   39.3510   24.4490   43.0760 H   0  0  0  0  0  0  0  0  0  0  0  0
   41.0450   25.8750   44.1210 H   0  0  0  0  0  0  0  0  0  0  0  0
   40.7790   28.3400   44.0280 H   0  0  0  0  0  0  0  0  0  0  0  0
   37.1510   25.1010   41.7840 C   0  0  0  0  0  0  0  0  0  0  0  0
   36.2820   25.6540   41.3620 H   0  0  0  0  0  0  0  0  0  0  0  0
   36.7100   24.4470   42.5770 H   0  0  0  0  0  0  0  0  0  0  0  0
   38.3120   22.1500   39.8350 C   0  0  0  0  0  0  0  0  0  0  0  0
   38.8330   22.7490   38.6830 C   0  0  0  0  0  0  0  0  0  0  0  0
   38.7750   24.1250   38.6000 C   0  0  0  0  0  0  0  0  0  0  0  0
   38.2300   24.8410   39.6130 N   0  0  0  0  0  0  0  0  0  0  0  0
   37.7290   24.2360   40.7260 C   0  0  0  0  0  0  0  0  0  0  0  0
   37.7880   22.8890   40.7990 N   0  0  0  0  0  0  0  0  0  0  0  0
   38.3360   21.0750   39.9410 H   0  0  0  0  0  0  0  0  0  0  0  0
   39.2420   22.0750   37.9410 H   0  0  0  0  0  0  0  0  0  0  0  0
   39.1820   24.5780   37.7040 H   0  0  0  0  0  0  0  0  0  0  0  0
   38.8150   29.6350   42.8940 O   0  0  0  0  0  0  0  0  0  0  0  0
   40.6020   29.7100   41.0040 O   0  0  0  0  0  0  0  0  0  0  0  0
   39.8030   30.6360   41.9290 P   0  0  2  0  0  0  0  0  0  0  0  0
   40.8230   31.4670   42.9580 O   0  0  0  0  0  0  0  0  0  0  0  0
   40.3620   32.2810   43.2650 H   0  0  0  0  0  0  0  0  0  0  0  0
   38.8920   31.6610   40.9590 O   0  0  0  0  0  0  0  0  0  0  0  0
   39.4280   32.8730   40.5480 C   0  0  0  0  0  0  0  0  0  0  0  0
   40.6260   33.0110   39.8780 C   0  0  0  0  0  0  0  0  0  0  0  0
   41.1950   32.1190   39.6530 H   0  0  0  0  0  0  0  0  0  0  0  0
   41.1390   34.2160   39.4790 C   0  0  0  0  0  3  0  0  0  0  0  0
   40.3970   35.3620   39.7750 C   0  0  0  0  0  0  0  0  0  0  0  0
   40.8070   36.3200   39.4560 H   0  0  0  0  0  0  0  0  0  0  0  0
   39.1990   35.2890   40.4380 C   0  0  0  0  0  0  0  0  0  0  0  0
   38.6980   36.2080   40.6220 H   0  0  0  0  0  0  0  0  0  0  0  0
   38.7350   34.0370   40.8130 C   0  0  0  0  0  3  0  0  0  0  0  0
  1  2  1  0  0  0  0
  2  3  2  0  0  0  0
  2  7  1  0  0  0  0
  3  4  1  0  0  0  0
  4  8  1  0  0  0  0
  4  5  2  0  0  0  0
  5  9  1  0  0  0  0
  6  5  1  0  0  0  0
  6 10  1  0  0  0  0
  7  6  2  0  0  0  0
 11  3  1  0  0  0  0
 11 13  1  0  0  0  0
 12 11  1  0  0  0  0
 14 20  1  0  0  0  0
 14 19  1  0  0  0  0
 15 14  2  0  0  0  0
 16 15  1  0  0  0  0
 16 17  2  0  0  0  0
 17 18  1  0  0  0  0
 18 19  2  0  0  0  0
 18 11  1  0  0  0  0
 21 15  1  0  0  0  0
 22 16  1  0  0  0  0
 23  7  1  0  0  0  0
 25 24  2  6  0  0  0
 25 23  1  0  0  0  0
 25 26  1  0  0  0  0
 26 27  1  0  0  0  0
 28 25  1  0  0  0  0
 29 37  1  0  0  0  0
 29 28  1  0  0  0  0
 30 29  2  0  0  0  0
 31 30  1  0  0  0  0
 32 33  2  0  0  0  0
 32 30  1  0  0  0  0
 33 35  1  0  0  0  0
 34 33  1  0  0  0  0
 35 36  1  0  0  0  0
 35 37  2  0  0  0  0
M  END
>  <minimizedAffinity>
-5.6744585

$$$$

 OpenBabel03252502573D

 37 39  0  0  0  0  0  0  0  0999 V2000
   35.8150   28.8830   40.7600 Br  0  0  0  0  0  0  0  0  0  0  0  0
   37.4320   29.8250   41.2650 C   0  0  0  0  0  0  0  0  0  0  0  0
   38.0110   29.4250   42.4440 C   0  0  0  0  0  0  0  0  0  0  0  0
   39.1730   30.1250   42.7770 C   0  0  0  0  0  0  0  0  0  0  0  0
   39.7060   31.1340   42.0000 C   0  0  0  0  0  0  0  0  0  0  0  0
   39.0650   31.4770   40.8300 C   0  0  0  0  0  0  0  0  0  0  0  0
   37.9070   30.8160   40.4480 C   0  0  0  0  0  0  0  0  0  0  0  0
   39.6880   29.8670   43.6930 H   0  0  0  0  0  0  0  0  0  0  0  0
   40.6090   31.6520   42.2930 H   0  0  0  0  0  0  0  0  0  0  0  0
   39.4470   32.2620   40.1880 H   0  0  0  0  0  0  0  0  0  0  0  0
   37.5440   28.3780   43.3460 C   0  0  0  0  0  0  0  0  0  0  0  0
   36.4610   28.1810   43.1760 H   0  0  0  0  0  0  0  0  0  0  0  0
   37.6030   28.7280   44.4070 H   0  0  0  0  0  0  0  0  0  0  0  0
   40.0740   25.6790   43.7560 C   0  0  0  0  0  0  0  0  0  0  0  0
   39.5720   24.6790   42.9160 C   0  0  0  0  0  0  0  0  0  0  0  0
   38.3980   24.9470   42.2400 C   0  0  0  0  0  0  0  0  0  0  0  0
   37.7810   26.1410   42.4040 N   0  0  0  0  0  0  0  0  0  0  0  0
   38.2890   27.1010   43.2280 C   0  0  0  0  0  0  0  0  0  0  0  0
   39.4360   26.8300   43.8870 N   0  0  0  0  0  0  0  0  0  0  0  0
   40.9890   25.5110   44.3040 H   0  0  0  0  0  0  0  0  0  0  0  0
   40.1510   23.7660   42.8650 H   0  0  0  0  0  0  0  0  0  0  0  0
   38.0190   24.1660   41.5920 H   0  0  0  0  0  0  0  0  0  0  0  0
   37.2630   31.1700   39.2620 O   0  0  0  0  0  0  0  0  0  0  0  0
   38.7560   29.4640   37.9820 O   0  0  0  0  0  0  0  0  0  0  0  0
   37.7580   30.6020   37.7310 P   0  0  2  0  0  0  0  0  0  0  0  0
   38.4990   31.8750   36.9450 O   0  0  0  0  0  0  0  0  0  0  0  0
   37.8070   32.4030   36.4840 H   0  0  0  0  0  0  0  0  0  0  0  0
   36.4710   29.9660   36.8580 O   0  0  0  0  0  0  0  0  0  0  0  0
   36.4920   30.0160   35.4710 C   0  0  0  0  0  0  0  0  0  0  0  0
   36.5570   28.9100   34.6500 C   0  0  0  0  0  0  0  0  0  0  0  0
   36.5950   27.9310   35.1080 H   0  0  0  0  0  0  0  0  0  0  0  0
   36.5750   28.9790   33.2830 C   0  0  0  0  0  3  0  0  0  0  0  0
   36.5260   30.2470   32.7010 C   0  0  0  0  0  0  0  0  0  0  0  0
   36.5410   30.2990   31.6120 H   0  0  0  0  0  0  0  0  0  0  0  0
   36.4600   31.3850   33.4640 C   0  0  0  0  0  0  0  0  0  0  0  0
   36.4250   32.3090   32.9420 H   0  0  0  0  0  0  0  0  0  0  0  0
   36.4440   31.2450   34.8440 C   0  0  0  0  0  3  0  0  0  0  0  0
  1  2  1  0  0  0  0
  2  3  1  0  0  0  0
  3  4  2  0  0  0  0
  3 11  1  0  0  0  0
  4  8  1  0  0  0  0
  5  9  1  0  0  0  0
  5  4  1  0  0  0  0
  6  5  2  0  0  0  0
  7  6  1  0  0  0  0
  7  2  2  0  0  0  0
 10  6  1  0  0  0  0
 11 13  1  0  0  0  0
 12 11  1  0  0  0  0
 14 19  1  0  0  0  0
 14 20  1  0  0  0  0
 15 14  2  0  0  0  0
 16 17  2  0  0  0  0
 16 15  1  0  0  0  0
 17 18  1  0  0  0  0
 18 11  1  0  0  0  0
 18 19  2  0  0  0  0
 21 15  1  0  0  0  0
 22 16  1  0  0  0  0
 23  7  1  0  0  0  0
 25 24  2  1  0  0  0
 25 23  1  0  0  0  0
 26 25  1  0  0  0  0
 27 26  1  0  0  0  0
 28 25  1  0  0  0  0
 29 28  1  0  0  0  0
 30 31  1  0  0  0  0
 30 29  2  0  0  0  0
 32 30  1  0  0  0  0
 33 32  2  0  0  0  0
 33 35  1  0  0  0  0
 34 33  1  0  0  0  0
 35 37  2  0  0  0  0
 36 35  1  0  0  0  0
 37 29  1  0  0  0  0
M  END
>  <minimizedAffinity>
-5.58782768

$$$$

 OpenBabel03252502573D

 37 39  0  0  0  0  0  0  0  0999 V2000
   37.6420   32.7610   39.1080 Br  0  0  0  0  0  0  0  0  0  0  0  0
   38.4560   31.0580   38.6700 C   0  0  0  0  0  0  0  0  0  0  0  0
   37.8620   29.9520   39.2270 C   0  0  0  0  0  0  0  0  0  0  0  0
   38.4740   28.7430   38.8910 C   0  0  0  0  0  0  0  0  0  0  0  0
   39.5820   28.6490   38.0710 C   0  0  0  0  0  0  0  0  0  0  0  0
   40.1190   29.8050   37.5510 C   0  0  0  0  0  0  0  0  0  0  0  0
   39.5530   31.0360   37.8500 C   0  0  0  0  0  0  0  0  0  0  0  0
   38.0630   27.8260   39.2920 H   0  0  0  0  0  0  0  0  0  0  0  0
   40.0260   27.6920   37.8350 H   0  0  0  0  0  0  0  0  0  0  0  0
   40.9870   29.7800   36.9030 H   0  0  0  0  0  0  0  0  0  0  0  0
   36.6960   29.9250   40.1040 C   0  0  0  0  0  0  0  0  0  0  0  0
   35.8320   29.4580   39.5800 H   0  0  0  0  0  0  0  0  0  0  0  0
   36.3590   30.9670   40.3300 H   0  0  0  0  0  0  0  0  0  0  0  0
   36.4860   27.4870   42.9090 C   0  0  0  0  0  0  0  0  0  0  0  0
   37.4380   27.9890   43.8040 C   0  0  0  0  0  0  0  0  0  0  0  0
   38.1190   29.1310   43.4320 C   0  0  0  0  0  0  0  0  0  0  0  0
   37.8530   29.7200   42.2420 N   0  0  0  0  0  0  0  0  0  0  0  0
   36.9210   29.2130   41.3860 C   0  0  0  0  0  0  0  0  0  0  0  0
   36.2600   28.0950   41.7570 N   0  0  0  0  0  0  0  0  0  0  0  0
   35.9310   26.5950   43.1600 H   0  0  0  0  0  0  0  0  0  0  0  0
   37.5650   27.4340   44.7240 H   0  0  0  0  0  0  0  0  0  0  0  0
   38.8540   29.5110   44.1320 H   0  0  0  0  0  0  0  0  0  0  0  0
   40.1040   32.2030   37.3200 O   0  0  0  0  0  0  0  0  0  0  0  0
   41.2350   33.5960   39.2050 O   0  0  0  0  0  0  0  0  0  0  0  0
   41.5620   32.8830   37.8860 P   0  0  2  0  0  0  0  0  0  0  0  0
   42.0790   33.9780   36.7360 O   0  0  0  0  0  0  0  0  0  0  0  0
   42.6100   33.4950   36.0610 H   0  0  0  0  0  0  0  0  0  0  0  0
   42.7110   31.7040   38.2170 O   0  0  0  0  0  0  0  0  0  0  0  0
   43.5920   31.3060   37.2200 C   0  0  0  0  0  0  0  0  0  0  0  0
   43.2340   30.5740   36.1080 C   0  0  0  0  0  0  0  0  0  0  0  0
   42.1980   30.2850   35.9940 H   0  0  0  0  0  0  0  0  0  0  0  0
   44.1170   30.1900   35.1340 C   0  0  0  0  0  3  0  0  0  0  0  0
   45.4520   30.5670   35.2910 C   0  0  0  0  0  0  0  0  0  0  0  0
   46.1530   30.2610   34.5140 H   0  0  0  0  0  0  0  0  0  0  0  0
   45.8700   31.2960   36.3760 C   0  0  0  0  0  0  0  0  0  0  0  0
   46.9020   31.5420   36.4170 H   0  0  0  0  0  0  0  0  0  0  0  0
   44.9240   31.6530   37.3250 C   0  0  0  0  0  3  0  0  0  0  0  0
  2  1  1  0  0  0  0
  2  3  1  0  0  0  0
  3 11  1  0  0  0  0
  4  3  2  0  0  0  0
  4  8  1  0  0  0  0
  5  4  1  0  0  0  0
  6  7  1  0  0  0  0
  6  5  2  0  0  0  0
  7  2  2  0  0  0  0
  9  5  1  0  0  0  0
 10  6  1  0  0  0  0
 11 13  1  0  0  0  0
 11 18  1  0  0  0  0
 12 11  1  0  0  0  0
 14 20  1  0  0  0  0
 14 15  1  0  0  0  0
 15 21  1  0  0  0  0
 16 15  2  0  0  0  0
 16 22  1  0  0  0  0
 17 16  1  0  0  0  0
 18 19  1  0  0  0  0
 18 17  2  0  0  0  0
 19 14  2  0  0  0  0
 23  7  1  0  0  0  0
 23 25  1  0  0  0  0
 25 28  1  0  0  0  0
 25 24  2  1  0  0  0
 26 25  1  0  0  0  0
 27 26  1  0  0  0  0
 29 37  1  0  0  0  0
 29 28  1  0  0  0  0
 30 29  2  0  0  0  0
 31 30  1  0  0  0  0
 32 33  2  0  0  0  0
 32 30  1  0  0  0  0
 33 35  1  0  0  0  0
 34 33  1  0  0  0  0
 35 36  1  0  0  0  0
 35 37  2  0  0  0  0
M  END
>  <minimizedAffinity>
-5.56954145

$$$$

 OpenBabel03252502573D

 37 39  0  0  0  0  0  0  0  0999 V2000
   41.2440   30.0220   41.8690 Br  0  0  0  0  0  0  0  0  0  0  0  0
   39.8190   28.9650   42.6490 C   0  0  0  0  0  0  0  0  0  0  0  0
   40.2090   27.8080   43.2760 C   0  0  0  0  0  0  0  0  0  0  0  0
   39.1570   27.0720   43.8260 C   0  0  0  0  0  0  0  0  0  0  0  0
   37.8340   27.4600   43.7540 C   0  0  0  0  0  0  0  0  0  0  0  0
   37.5240   28.6350   43.1080 C   0  0  0  0  0  0  0  0  0  0  0  0
   38.5270   29.4090   42.5420 C   0  0  0  0  0  0  0  0  0  0  0  0
   39.3850   26.1460   44.3370 H   0  0  0  0  0  0  0  0  0  0  0  0
   37.0490   26.8610   44.1940 H   0  0  0  0  0  0  0  0  0  0  0  0
   36.4990   28.9800   43.0270 H   0  0  0  0  0  0  0  0  0  0  0  0
   41.5680   27.2940   43.4150 C   0  0  0  0  0  0  0  0  0  0  0  0
   41.6340   26.6150   44.2950 H   0  0  0  0  0  0  0  0  0  0  0  0
   42.2740   28.1300   43.6500 H   0  0  0  0  0  0  0  0  0  0  0  0
   41.8090   25.0920   40.4240 C   0  0  0  0  0  0  0  0  0  0  0  0
   43.1280   25.3080   40.0090 C   0  0  0  0  0  0  0  0  0  0  0  0
   43.8910   26.1880   40.7490 C   0  0  0  0  0  0  0  0  0  0  0  0
   43.3560   26.8030   41.8310 N   0  0  0  0  0  0  0  0  0  0  0  0
   42.0690   26.5760   42.2170 C   0  0  0  0  0  0  0  0  0  0  0  0
   41.3280   25.7150   41.4870 N   0  0  0  0  0  0  0  0  0  0  0  0
   41.1770   24.4110   39.8730 H   0  0  0  0  0  0  0  0  0  0  0  0
   43.4450   24.7610   39.1300 H   0  0  0  0  0  0  0  0  0  0  0  0
   44.9110   26.3480   40.4190 H   0  0  0  0  0  0  0  0  0  0  0  0
   38.2050   30.5980   41.8880 O   0  0  0  0  0  0  0  0  0  0  0  0
   37.4390   31.8270   39.7260 O   0  0  0  0  0  0  0  0  0  0  0  0
   37.0130   30.6960   40.6710 P   0  0  2  0  0  0  0  0  0  0  0  0
   35.5670   31.0650   41.4200 O   0  0  0  0  0  0  0  0  0  0  0  0
   35.1440   30.2250   41.7140 H   0  0  0  0  0  0  0  0  0  0  0  0
   36.9300   29.2820   39.7680 O   0  0  0  0  0  0  0  0  0  0  0  0
   36.0120   29.1840   38.7300 C   0  0  0  0  0  0  0  0  0  0  0  0
   36.3240   29.3340   37.3950 C   0  0  0  0  0  0  0  0  0  0  0  0
   37.3510   29.5430   37.1270 H   0  0  0  0  0  0  0  0  0  0  0  0
   35.4050   29.2340   36.3850 C   0  0  0  0  0  3  0  0  0  0  0  0
   34.0820   28.9640   36.7420 C   0  0  0  0  0  0  0  0  0  0  0  0
   33.3520   28.8840   35.9360 H   0  0  0  0  0  0  0  0  0  0  0  0
   33.7110   28.8040   38.0530 C   0  0  0  0  0  0  0  0  0  0  0  0
   32.6850   28.6010   38.2370 H   0  0  0  0  0  0  0  0  0  0  0  0
   34.6910   28.9180   39.0270 C   0  0  0  0  0  3  0  0  0  0  0  0
  1  2  1  0  0  0  0
  2  3  1  0  0  0  0
  3 11  1  0  0  0  0
  3  4  2  0  0  0  0
  4  8  1  0  0  0  0
  5  4  1  0  0  0  0
  5  9  1  0  0  0  0
  6  5  2  0  0  0  0
  7  2  2  0  0  0  0
  7  6  1  0  0  0  0
 10  6  1  0  0  0  0
 11 13  1  0  0  0  0
 11 12  1  0  0  0  0
 14 19  1  0  0  0  0
 15 14  2  0  0  0  0
 15 16  1  0  0  0  0
 16 17  2  0  0  0  0
 17 18  1  0  0  0  0
 18 11  1  0  0  0  0
 19 18  2  0  0  0  0
 20 14  1  0  0  0  0
 21 15  1  0  0  0  0
 22 16  1  0  0  0  0
 23  7  1  0  0  0  0
 25 24  2  6  0  0  0
 25 26  1  0  0  0  0
 25 23  1  0  0  0  0
 26 27  1  0  0  0  0
 28 25  1  0  0  0  0
 29 37  1  0  0  0  0
 29 28  1  0  0  0  0
 30 29  2  0  0  0  0
 31 30  1  0  0  0  0
 32 33  2  0  0  0  0
 32 30  1  0  0  0  0
 33 35  1  0  0  0  0
 34 33  1  0  0  0  0
 35 36  1  0  0  0  0
 35 37  2  0  0  0  0
M  END
>  <minimizedAffinity>
-5.55711699

$$$$

 OpenBabel03252502573D

 37 39  0  0  0  0  0  0  0  0999 V2000
   35.9710   28.5250   40.8530 Br  0  0  0  0  0  0  0  0  0  0  0  0
   37.4860   29.6290   41.3430 C   0  0  0  0  0  0  0  0  0  0  0  0
   38.0860   29.3200   42.5390 C   0  0  0  0  0  0  0  0  0  0  0  0
   39.1740   30.1350   42.8600 C   0  0  0  0  0  0  0  0  0  0  0  0
   39.6200   31.1660   42.0570 C   0  0  0  0  0  0  0  0  0  0  0  0
   38.9640   31.4120   40.8720 C   0  0  0  0  0  0  0  0  0  0  0  0
   37.8770   30.6340   40.5000 C   0  0  0  0  0  0  0  0  0  0  0  0
   39.6990   29.9540   43.7890 H   0  0  0  0  0  0  0  0  0  0  0  0
   40.4670   31.7730   42.3430 H   0  0  0  0  0  0  0  0  0  0  0  0
   39.2790   32.2100   40.2090 H   0  0  0  0  0  0  0  0  0  0  0  0
   37.7070   28.2610   43.4690 C   0  0  0  0  0  0  0  0  0  0  0  0
   36.6280   28.0130   43.3490 H   0  0  0  0  0  0  0  0  0  0  0  0
   37.7970   28.6240   44.5230 H   0  0  0  0  0  0  0  0  0  0  0  0
   40.3820   25.6910   43.7710 C   0  0  0  0  0  0  0  0  0  0  0  0
   39.8800   24.6530   42.9780 C   0  0  0  0  0  0  0  0  0  0  0  0
   38.6580   24.8530   42.3690 C   0  0  0  0  0  0  0  0  0  0  0  0
   37.9950   26.0210   42.5500 N   0  0  0  0  0  0  0  0  0  0  0  0
   38.5040   27.0180   43.3280 C   0  0  0  0  0  0  0  0  0  0  0  0
   39.7000   26.8140   43.9210 N   0  0  0  0  0  0  0  0  0  0  0  0
   41.3350   25.5760   44.2670 H   0  0  0  0  0  0  0  0  0  0  0  0
   40.4980   23.7670   42.9070 H   0  0  0  0  0  0  0  0  0  0  0  0
   38.2780   24.0440   41.7570 H   0  0  0  0  0  0  0  0  0  0  0  0
   37.2170   30.8910   39.2970 O   0  0  0  0  0  0  0  0  0  0  0  0
   39.1260   29.7630   37.9340 O   0  0  0  0  0  0  0  0  0  0  0  0
   37.9780   30.7680   37.7750 P   0  0  2  0  0  0  0  0  0  0  0  0
   38.5680   32.2820   37.3920 O   0  0  0  0  0  0  0  0  0  0  0  0
   37.8520   32.7940   36.9510 H   0  0  0  0  0  0  0  0  0  0  0  0
   36.9340   30.1670   36.6050 O   0  0  0  0  0  0  0  0  0  0  0  0
   36.0960   29.1040   36.9140 C   0  0  0  0  0  0  0  0  0  0  0  0
   34.7710   29.2320   37.2720 C   0  0  0  0  0  0  0  0  0  0  0  0
   34.3440   30.2250   37.3190 H   0  0  0  0  0  0  0  0  0  0  0  0
   33.9590   28.1710   37.5730 C   0  0  0  0  0  3  0  0  0  0  0  0
   34.5190   26.8930   37.5100 C   0  0  0  0  0  0  0  0  0  0  0  0
   33.8720   26.0500   37.7490 H   0  0  0  0  0  0  0  0  0  0  0  0
   35.8320   26.7020   37.1590 C   0  0  0  0  0  0  0  0  0  0  0  0
   36.1780   25.6980   37.1340 H   0  0  0  0  0  0  0  0  0  0  0  0
   36.5990   27.8190   36.8660 C   0  0  0  0  0  3  0  0  0  0  0  0
  1  2  1  0  0  0  0
  2  3  1  0  0  0  0
  3  4  2  0  0  0  0
  3 11  1  0  0  0  0
  4  8  1  0  0  0  0
  5  9  1  0  0  0  0
  5  4  1  0  0  0  0
  6  5  2  0  0  0  0
  7  6  1  0  0  0  0
  7  2  2  0  0  0  0
 10  6  1  0  0  0  0
 11 13  1  0  0  0  0
 12 11  1  0  0  0  0
 14 19  1  0  0  0  0
 14 20  1  0  0  0  0
 15 14  2  0  0  0  0
 16 17  2  0  0  0  0
 16 15  1  0  0  0  0
 17 18  1  0  0  0  0
 18 11  1  0  0  0  0
 18 19  2  0  0  0  0
 21 15  1  0  0  0  0
 22 16  1  0  0  0  0
 23  7  1  0  0  0  0
 25 24  2  1  0  0  0
 25 23  1  0  0  0  0
 26 25  1  0  0  0  0
 27 26  1  0  0  0  0
 28 29  1  0  0  0  0
 28 25  1  0  0  0  0
 29 30  1  0  0  0  0
 30 31  1  0  0  0  0
 30 32  2  0  0  0  0
 33 32  1  0  0  0  0
 33 34  1  0  0  0  0
 35 33  2  0  0  0  0
 36 35  1  0  0  0  0
 37 29  2  0  0  0  0
 37 35  1  0  0  0  0
M  END
>  <minimizedAffinity>
-5.53712559

$$$$

 OpenBabel03252502573D

 37 39  0  0  0  0  0  0  0  0999 V2000
   35.7270   28.7490   40.2520 Br  0  0  0  0  0  0  0  0  0  0  0  0
   37.2380   29.4270   41.2570 C   0  0  0  0  0  0  0  0  0  0  0  0
   37.5360   28.7520   42.4160 C   0  0  0  0  0  0  0  0  0  0  0  0
   38.6290   29.2680   43.1140 C   0  0  0  0  0  0  0  0  0  0  0  0
   39.3590   30.3620   42.6910 C   0  0  0  0  0  0  0  0  0  0  0  0
   38.9970   30.9840   41.5180 C   0  0  0  0  0  0  0  0  0  0  0  0
   37.9190   30.5160   40.7810 C   0  0  0  0  0  0  0  0  0  0  0  0
   38.9250   28.7890   44.0380 H   0  0  0  0  0  0  0  0  0  0  0  0
   40.2000   30.7300   43.2620 H   0  0  0  0  0  0  0  0  0  0  0  0
   39.5410   31.8450   41.1470 H   0  0  0  0  0  0  0  0  0  0  0  0
   36.8410   27.5910   42.9640 C   0  0  0  0  0  0  0  0  0  0  0  0
   35.7670   27.6140   42.6710 H   0  0  0  0  0  0  0  0  0  0  0  0
   36.8300   27.6410   44.0810 H   0  0  0  0  0  0  0  0  0  0  0  0
   37.3030   24.1960   41.5110 C   0  0  0  0  0  0  0  0  0  0  0  0
   38.6290   23.9090   41.8560 C   0  0  0  0  0  0  0  0  0  0  0  0
   39.3230   24.8680   42.5660 C   0  0  0  0  0  0  0  0  0  0  0  0
   38.7160   26.0320   42.9010 N   0  0  0  0  0  0  0  0  0  0  0  0
   37.4230   26.2900   42.5540 C   0  0  0  0  0  0  0  0  0  0  0  0
   36.7520   25.3460   41.8590 N   0  0  0  0  0  0  0  0  0  0  0  0
   36.7240   23.4730   40.9550 H   0  0  0  0  0  0  0  0  0  0  0  0
   39.0060   22.9470   41.5340 H   0  0  0  0  0  0  0  0  0  0  0  0
   40.3480   24.6360   42.8280 H   0  0  0  0  0  0  0  0  0  0  0  0
   37.5590   31.1520   39.5930 O   0  0  0  0  0  0  0  0  0  0  0  0
   37.9490   32.0280   37.1740 O   0  0  0  0  0  0  0  0  0  0  0  0
   38.3720   30.8940   38.1160 P   0  0  2  0  0  0  0  0  0  0  0  0
   37.8680   29.4150   37.5250 O   0  0  0  0  0  0  0  0  0  0  0  0
   38.4360   28.7120   37.9170 H   0  0  0  0  0  0  0  0  0  0  0  0
   40.0390   30.9800   38.3010 O   0  0  0  0  0  0  0  0  0  0  0  0
   40.6640   32.2200   38.3160 C   0  0  0  0  0  0  0  0  0  0  0  0
   40.4140   33.2100   39.2440 C   0  0  0  0  0  0  0  0  0  0  0  0
   39.6820   33.0170   40.0160 H   0  0  0  0  0  0  0  0  0  0  0  0
   41.0410   34.4270   39.2430 C   0  0  0  0  0  3  0  0  0  0  0  0
   41.9830   34.6660   38.2420 C   0  0  0  0  0  0  0  0  0  0  0  0
   42.4820   35.6350   38.2440 H   0  0  0  0  0  0  0  0  0  0  0  0
   42.2760   33.7210   37.2920 C   0  0  0  0  0  0  0  0  0  0  0  0
   43.0060   33.9830   36.5660 H   0  0  0  0  0  0  0  0  0  0  0  0
   41.6060   32.5080   37.3490 C   0  0  0  0  0  3  0  0  0  0  0  0
  1  2  1  0  0  0  0
  2  3  1  0  0  0  0
  3 11  1  0  0  0  0
  3  4  2  0  0  0  0
  4  8  1  0  0  0  0
  5  4  1  0  0  0  0
  5  9  1  0  0  0  0
  6  5  2  0  0  0  0
  7  2  2  0  0  0  0
  7  6  1  0  0  0  0
 10  6  1  0  0  0  0
 11 13  1  0  0  0  0
 12 11  1  0  0  0  0
 14 15  2  0  0  0  0
 14 19  1  0  0  0  0
 15 16  1  0  0  0  0
 16 22  1  0  0  0  0
 16 17  2  0  0  0  0
 18 17  1  0  0  0  0
 18 11  1  0  0  0  0
 19 18  2  0  0  0  0
 20 14  1  0  0  0  0
 21 15  1  0  0  0  0
 23  7  1  0  0  0  0
 25 24  2  6  0  0  0
 25 28  1  0  0  0  0
 25 23  1  0  0  0  0
 26 27  1  0  0  0  0
 26 25  1  0  0  0  0
 28 29  1  0  0  0  0
 29 30  1  0  0  0  0
 30 31  1  0  0  0  0
 32 30  2  0  0  0  0
 33 34  1  0  0  0  0
 33 32  1  0  0  0  0
 35 37  1  0  0  0  0
 35 33  2  0  0  0  0
 36 35  1  0  0  0  0
 37 29  2  0  0  0  0
M  END
>  <minimizedAffinity>
-5.50461388

$$$$
