
 OpenBabel03252509313D

 27 28  0  0  0  0  0  0  0  0999 V2000
   50.5180   32.6440   42.3670 O   0  0  0  0  0  0  0  0  0  0  0  0
   49.5100   33.7490   42.2700 P   0  0  2  0  0  0  0  0  0  0  0  0
   49.9860   35.1280   43.1400 O   0  0  0  0  0  0  0  0  0  0  0  0
   50.8830   34.9720   43.5050 H   0  0  0  0  0  0  0  0  0  0  0  0
   48.0410   33.2450   42.9380 O   0  0  0  0  0  0  0  0  0  0  0  0
   47.1170   34.2690   42.6770 C   0  0  0  0  0  0  0  0  0  0  0  0
   46.4680   33.9950   41.8070 H   0  0  0  0  0  0  0  0  0  0  0  0
   47.6030   35.2320   42.4120 H   0  0  0  0  0  0  0  0  0  0  0  0
   45.4520   33.9000   45.9900 C   0  0  0  0  0  0  0  0  0  0  0  0
   46.3060   33.6530   44.9130 C   0  0  0  0  0  0  0  0  0  0  0  0
   46.2460   34.4880   43.8220 C   0  0  0  0  0  0  0  0  0  0  0  0
   45.3440   35.5400   43.8340 N   0  0  0  0  0  0  0  0  0  0  0  0
   44.5290   35.7410   44.9090 C   0  0  0  0  0  0  0  0  0  0  0  0
   44.5820   34.9400   45.9640 N   0  0  0  0  0  0  0  0  0  0  0  0
   45.5600   33.2000   46.8080 H   0  0  0  0  0  0  0  0  0  0  0  0
   47.0180   32.8380   44.8840 H   0  0  0  0  0  0  0  0  0  0  0  0
   43.8340   36.5860   44.8680 H   0  0  0  0  0  0  0  0  0  0  0  0
   49.2710   34.1470   40.6580 O   0  0  0  0  0  0  0  0  0  0  0  0
   48.5250   33.3260   39.8270 C   0  0  0  0  0  0  0  0  0  0  0  0
   49.1630   32.0960   39.6720 C   0  0  0  0  0  0  0  0  0  0  0  0
   50.0940   31.7770   40.1090 H   0  0  0  0  0  0  0  0  0  0  0  0
   48.5990   31.0950   38.8750 C   0  0  0  0  0  3  0  0  0  0  0  0
   47.4010   31.3310   38.2360 C   0  0  0  0  0  0  0  0  0  0  0  0
   46.9130   30.6130   37.6120 H   0  0  0  0  0  0  0  0  0  0  0  0
   46.7730   32.5700   38.4010 C   0  0  0  0  0  0  0  0  0  0  0  0
   45.8200   32.8100   37.9150 H   0  0  0  0  0  0  0  0  0  0  0  0
   47.3310   33.5560   39.1880 C   0  0  0  0  0  3  0  0  0  0  0  0
  2  1  2  1  0  0  0
  2  5  1  0  0  0  0
  2  3  1  0  0  0  0
  3  4  1  0  0  0  0
  6  5  1  0  0  0  0
  6 11  1  0  0  0  0
  7  6  1  0  0  0  0
  8  6  1  0  0  0  0
  9 15  1  0  0  0  0
 10  9  2  0  0  0  0
 11 12  2  0  0  0  0
 11 10  1  0  0  0  0
 12 13  1  0  0  0  0
 13 14  2  0  0  0  0
 14  9  1  0  0  0  0
 16 10  1  0  0  0  0
 17 13  1  0  0  0  0
 18  2  1  0  0  0  0
 19 18  1  0  0  0  0
 20 19  1  0  0  0  0
 20 21  1  0  0  0  0
 22 20  2  0  0  0  0
 23 25  2  0  0  0  0
 23 22  1  0  0  0  0
 24 23  1  0  0  0  0
 25 27  1  0  0  0  0
 26 25  1  0  0  0  0
 27 19  2  0  0  0  0
M  END
>  <minimizedAffinity>
-4.25006771

>  <minimizedRMSD>
0.934018731

$$$$
