REMARK  Name = 
REMARK  3 active torsions:
REMARK  status: ('A' for Active; 'I' for Inactive)
REMARK    1  A    between atoms: C_2  and  N_12
REMARK    2  A    between atoms: C_11  and  S_13
REMARK    3  A    between atoms: S_13  and  C_25
REMARK                            x       y       z     vdW  Elec       q    Type
REMARK                         _______ _______ _______ _____ _____    ______ ____
ROOT
ATOM      1  C   UNL     1      44.493  35.749  44.991  0.00  0.00    +0.000 A 
ATOM      2  C   UNL     1      45.127  35.716  43.743  0.00  0.00    +0.000 A 
ATOM      3  C   UNL     1      46.010  34.715  43.492  0.00  0.00    +0.000 A 
ATOM      4  N   UNL     1      46.235  33.798  44.458  0.00  0.00    +0.000 NA
ATOM      5  C   UNL     1      45.623  33.840  45.648  0.00  0.00    +0.000 A 
ATOM      6  N   UNL     1      44.749  34.804  45.936  0.00  0.00    +0.000 NA
ATOM      7  N   UNL     1      45.924  32.836  46.612  0.00  0.00    +0.000 N 
ATOM      8  C   UNL     1      45.151  32.556  47.807  0.00  0.00    +0.000 C 
ATOM      9  C   UNL     1      46.252  32.249  48.813  0.00  0.00    +0.000 C 
ATOM     10  C   UNL     1      47.532  32.076  48.031  0.00  0.00    +0.000 C 
ATOM     11  C   UNL     1      47.036  31.907  46.608  0.00  0.00    +0.000 C 
ATOM     12  H   UNL     1      43.778  36.529  45.242  0.00  0.00    +0.000 HD
ATOM     13  H   UNL     1      46.477  34.710  42.544  0.00  0.00    +0.000 HD
ATOM     14  H   UNL     1      44.481  31.682  47.693  0.00  0.00    +0.000 HD
ATOM     15  H   UNL     1      44.526  33.430  48.115  0.00  0.00    +0.000 HD
ATOM     16  H   UNL     1      46.028  31.413  49.476  0.00  0.00    +0.000 HD
ATOM     17  H   UNL     1      46.359  33.170  49.430  0.00  0.00    +0.000 HD
ATOM     18  H   UNL     1      47.997  31.117  48.341  0.00  0.00    +0.000 HD
ATOM     19  H   UNL     1      48.223  32.916  48.163  0.00  0.00    +0.000 HD
ATOM     20  H   UNL     1      47.766  32.217  45.857  0.00  0.00    +0.000 HD
ENDROOT
BRANCH   2  21
ATOM     21  N   UNL     1      44.759  36.779  42.861  0.00  0.00    +0.000 N 
ATOM     22  H   UNL     1      44.517  37.726  43.228  0.00  0.00    +0.000 HD
ATOM     23  H   UNL     1      44.729  36.608  41.815  0.00  0.00    +0.000 HD
ENDBRANCH   2  21
BRANCH  11  24
ATOM     24  S   UNL     1      46.489  30.198  46.410  0.00  0.00    +0.000 S 
BRANCH  24  25
ATOM     25  C   UNL     1      45.761  29.912  44.804  0.00  0.00    +0.000 A 
ATOM     26  C   UNL     1      45.144  31.056  44.285  0.00  0.00    +0.000 A 
ATOM     27  H   UNL     1      45.095  32.029  44.779  0.00  0.00    +0.000 HD
ATOM     28  C   UNL     1      44.528  31.023  43.051  0.00  0.00    +0.000 A 
ATOM     29  C   UNL     1      44.522  29.850  42.329  0.00  0.00    +0.000 A 
ATOM     30  H   UNL     1      44.043  29.794  41.352  0.00  0.00    +0.000 HD
ATOM     31  C   UNL     1      45.136  28.711  42.844  0.00  0.00    +0.000 A 
ATOM     32  H   UNL     1      45.151  27.775  42.306  0.00  0.00    +0.000 HD
ATOM     33  C   UNL     1      45.754  28.737  44.078  0.00  0.00    +0.000 A 
ENDBRANCH  24  25
ENDBRANCH  11  24
TORSDOF 3
