
 OpenBabel03252509323D

 27 28  0  0  0  0  0  0  0  0999 V2000
   49.9060   33.0590   41.4770 O   0  0  0  0  0  0  0  0  0  0  0  0
   49.1500   34.0820   42.2710 P   0  0  2  0  0  0  0  0  0  0  0  0
   50.1830   35.2100   43.0080 O   0  0  0  0  0  0  0  0  0  0  0  0
   51.1030   35.0230   42.7260 H   0  0  0  0  0  0  0  0  0  0  0  0
   48.2980   33.3250   43.5180 O   0  0  0  0  0  0  0  0  0  0  0  0
   46.9580   33.2670   43.1020 C   0  0  0  0  0  0  0  0  0  0  0  0
   46.5980   32.2060   43.0960 H   0  0  0  0  0  0  0  0  0  0  0  0
   46.8100   33.6520   42.0710 H   0  0  0  0  0  0  0  0  0  0  0  0
   45.0500   34.3220   46.1230 C   0  0  0  0  0  0  0  0  0  0  0  0
   45.8810   33.5720   45.2900 C   0  0  0  0  0  0  0  0  0  0  0  0
   46.0990   34.0160   44.0060 C   0  0  0  0  0  0  0  0  0  0  0  0
   45.4880   35.1880   43.5920 N   0  0  0  0  0  0  0  0  0  0  0  0
   44.6840   35.8870   44.4430 C   0  0  0  0  0  0  0  0  0  0  0  0
   44.4700   35.4640   45.6810 N   0  0  0  0  0  0  0  0  0  0  0  0
   44.9290   33.9070   47.1150 H   0  0  0  0  0  0  0  0  0  0  0  0
   46.3690   32.6530   45.5930 H   0  0  0  0  0  0  0  0  0  0  0  0
   44.2240   36.8080   44.0670 H   0  0  0  0  0  0  0  0  0  0  0  0
   48.0640   34.8750   41.2670 O   0  0  0  0  0  0  0  0  0  0  0  0
   47.9680   34.5450   39.9240 C   0  0  0  0  0  0  0  0  0  0  0  0
   46.9200   33.6480   39.7260 C   0  0  0  0  0  0  0  0  0  0  0  0
   46.2530   33.2400   40.4680 H   0  0  0  0  0  0  0  0  0  0  0  0
   46.6230   33.1670   38.4470 C   0  0  0  0  0  3  0  0  0  0  0  0
   47.3790   33.5860   37.3730 C   0  0  0  0  0  0  0  0  0  0  0  0
   47.2110   33.2590   36.3690 H   0  0  0  0  0  0  0  0  0  0  0  0
   48.4280   34.4860   37.5870 C   0  0  0  0  0  0  0  0  0  0  0  0
   49.0600   34.8510   36.7690 H   0  0  0  0  0  0  0  0  0  0  0  0
   48.7180   34.9600   38.8500 C   0  0  0  0  0  3  0  0  0  0  0  0
  2  1  2  6  0  0  0
  2  3  1  0  0  0  0
  2  5  1  0  0  0  0
  4  3  1  0  0  0  0
  6  5  1  0  0  0  0
  6 11  1  0  0  0  0
  7  6  1  0  0  0  0
  8  6  1  0  0  0  0
  9 15  1  0  0  0  0
 10 16  1  0  0  0  0
 10  9  2  0  0  0  0
 11 10  1  0  0  0  0
 12 11  2  0  0  0  0
 12 13  1  0  0  0  0
 13 14  2  0  0  0  0
 14  9  1  0  0  0  0
 17 13  1  0  0  0  0
 18  2  1  0  0  0  0
 19 18  1  0  0  0  0
 20 19  1  0  0  0  0
 20 21  1  0  0  0  0
 22 20  2  0  0  0  0
 23 25  2  0  0  0  0
 23 22  1  0  0  0  0
 24 23  1  0  0  0  0
 25 27  1  0  0  0  0
 26 25  1  0  0  0  0
 27 19  2  0  0  0  0
M  END
>  <minimizedAffinity>
-5.08744907

>  <minimizedRMSD>
1.19071877

$$$$
