
 OpenBabel03242519473D

 38 40  0  0  1  0  0  0  0  0999 V2000
   46.4430   32.5370   46.7640 C   0  0  2  0  0  0  0  0  0  0  0  0
   47.0520   32.5580   45.4170 C   0  0  1  0  0  0  0  0  0  0  0  0
   46.7000   31.2440   44.8600 O   0  0  0  0  0  0  0  0  0  0  0  0
   47.2350   30.4800   45.9170 C   0  0  0  0  0  0  0  0  0  0  0  0
   46.3980   31.0540   47.0960 C   0  0  2  0  0  0  0  0  0  0  0  0
   46.9890   33.1100   47.5300 H   0  0  0  0  0  0  0  0  0  0  0  0
   48.1580   32.5870   45.4160 H   0  0  0  0  0  0  0  0  0  0  0  0
   48.2860   30.8200   46.0570 H   0  0  0  0  0  0  0  0  0  0  0  0
   47.1270   29.4240   45.7800 H   0  0  0  0  0  0  0  0  0  0  0  0
   46.9450   30.7790   48.0310 H   0  0  0  0  0  0  0  0  0  0  0  0
   44.8830   35.1940   44.1290 C   0  0  0  0  0  0  0  0  0  0  0  0
   45.5490   35.6480   42.9890 C   0  0  0  0  0  0  0  0  0  0  0  0
   46.7750   35.0340   42.6450 C   0  0  0  0  0  0  0  0  0  0  0  0
   47.2570   34.0280   43.4310 N   0  0  0  0  0  0  0  0  0  0  0  0
   46.5840   33.6160   44.5260 C   0  0  0  0  0  0  0  0  0  0  0  0
   45.4010   34.1860   44.8850 N   0  0  0  0  0  0  0  0  0  0  0  0
   45.1250   36.4530   42.3930 H   0  0  0  0  0  0  0  0  0  0  0  0
   47.3110   35.3700   41.7620 H   0  0  0  0  0  0  0  0  0  0  0  0
   43.6640   35.7610   44.5280 O   0  0  0  0  0  0  0  0  0  0  0  0
   42.8520   35.1400   44.4520 H   0  0  0  0  0  0  0  0  0  0  0  0
   45.0920   33.0170   46.6870 O   0  0  0  0  0  0  0  0  0  0  0  0
   44.5850   32.2800   46.2350 H   0  0  0  0  0  0  0  0  0  0  0  0
   45.1570   30.5360   46.9520 O   0  0  0  0  0  0  0  0  0  0  0  0
   44.9970   29.1780   46.9230 C   0  0  0  0  0  0  0  0  0  0  0  0
   45.7930   28.6650   47.4660 H   0  0  0  0  0  0  0  0  0  0  0  0
   44.1190   29.0450   47.7200 H   0  0  0  0  0  0  0  0  0  0  0  0
   44.5080   28.5880   45.6790 C   0  0  0  0  0  0  0  0  0  0  0  0
   45.2110   28.1810   44.9770 H   0  0  0  0  0  0  0  0  0  0  0  0
   43.9670   29.4010   45.1090 H   0  0  0  0  0  0  0  0  0  0  0  0
   43.4070   27.6220   46.0320 C   0  0  0  0  0  0  0  0  0  0  0  0
   43.7120   26.6430   46.9680 C   0  0  0  0  0  0  0  0  0  0  0  0
   44.6820   26.5970   47.4010 H   0  0  0  0  0  0  0  0  0  0  0  0
   42.7470   25.7280   47.3340 C   0  0  0  0  0  0  0  0  0  0  0  0
   41.4580   25.7520   46.7910 C   0  0  0  0  0  0  0  0  0  0  0  0
   40.6900   25.0410   47.0680 H   0  0  0  0  0  0  0  0  0  0  0  0
   41.2230   26.7520   45.8660 C   0  0  0  0  0  0  0  0  0  0  0  0
   40.2200   26.7590   45.4530 H   0  0  0  0  0  0  0  0  0  0  0  0
   42.1510   27.6900   45.4640 C   0  0  0  0  0  0  0  0  0  0  0  0
  1  5  1  0  0  0  0
  1  6  1  1  0  0  0
  2  7  1  1  0  0  0
  2  1  1  0  0  0  0
  3  2  1  0  0  0  0
  3  4  1  0  0  0  0
  4  8  1  0  0  0  0
  4  5  1  0  0  0  0
  5 10  1  1  0  0  0
  9  4  1  0  0  0  0
 11 19  1  0  0  0  0
 11 16  1  0  0  0  0
 12 11  2  0  0  0  0
 13 12  1  0  0  0  0
 13 14  2  0  0  0  0
 14 15  1  0  0  0  0
 15 16  2  0  0  0  0
 15  2  1  0  0  0  0
 17 12  1  0  0  0  0
 18 13  1  0  0  0  0
 20 19  1  0  0  0  0
 21  1  1  0  0  0  0
 22 21  1  0  0  0  0
 23  5  1  0  0  0  0
 24 23  1  0  0  0  0
 24 25  1  0  0  0  0
 24 26  1  0  0  0  0
 27 30  1  0  0  0  0
 27 24  1  0  0  0  0
 28 27  1  0  0  0  0
 29 27  1  0  0  0  0
 30 31  1  0  0  0  0
 31 33  2  0  0  0  0
 31 32  1  0  0  0  0
 34 35  1  0  0  0  0
 34 33  1  0  0  0  0
 36 34  2  0  0  0  0
 37 36  1  0  0  0  0
 38 36  1  0  0  0  0
 38 30  2  0  0  0  0
M  END
>  <minimizedAffinity>
-5.8162303

>  <minimizedRMSD>
2.48872018

$$$$
