
 OpenBabel03242518103D

 24 25  0  0  0  0  0  0  0  0999 V2000
   38.7950   29.3230   42.9040 C   0  0  0  0  0  0  0  0  0  0  0  0
   39.5890   28.7180   42.4780 H   0  0  0  0  0  0  0  0  0  0  0  0
   39.2690   29.8840   43.7440 H   0  0  0  0  0  0  0  0  0  0  0  0
   38.1190   30.1910   41.9420 C   0  0  0  0  0  0  0  0  0  0  0  0
   36.8010   29.9760   41.5550 C   0  0  0  0  0  0  0  0  0  0  0  0
   36.2230   30.8750   40.6170 C   0  0  0  0  0  0  0  0  0  0  0  0
   37.0050   31.8960   40.1550 N   0  0  0  0  0  0  0  0  0  0  0  0
   38.2900   32.0590   40.5670 C   0  0  0  0  0  0  0  0  0  0  0  0
   38.8360   31.2050   41.4580 N   0  0  0  0  0  0  0  0  0  0  0  0
   36.2370   29.1510   41.9580 H   0  0  0  0  0  0  0  0  0  0  0  0
   35.2080   30.7400   40.2950 H   0  0  0  0  0  0  0  0  0  0  0  0
   38.8650   32.8880   40.1670 H   0  0  0  0  0  0  0  0  0  0  0  0
   37.7870   28.3750   43.4900 C   0  0  0  0  0  0  0  0  0  0  0  0
   37.7160   28.4450   44.5990 H   0  0  0  0  0  0  0  0  0  0  0  0
   36.8140   28.5570   43.0030 H   0  0  0  0  0  0  0  0  0  0  0  0
   38.2730   26.9970   43.2030 C   0  0  0  0  0  0  0  0  0  0  0  0
   39.4870   26.5680   43.6800 C   0  0  0  0  0  0  0  0  0  0  0  0
   40.1120   27.2330   44.2770 H   0  0  0  0  0  0  0  0  0  0  0  0
   39.9400   25.2740   43.4080 C   0  0  0  0  0  3  0  0  0  0  0  0
   39.1850   24.4210   42.6660 C   0  0  0  0  0  0  0  0  0  0  0  0
   39.4880   23.4020   42.4230 H   0  0  0  0  0  0  0  0  0  0  0  0
   37.9420   24.8100   42.1570 C   0  0  0  0  0  0  0  0  0  0  0  0
   37.3130   24.1510   41.5610 H   0  0  0  0  0  0  0  0  0  0  0  0
   37.5410   26.1020   42.4570 C   0  0  0  0  0  3  0  0  0  0  0  0
  1 13  1  0  0  0  0
  1  3  1  0  0  0  0
  2  1  1  0  0  0  0
  4  1  1  0  0  0  0
  5  4  1  0  0  0  0
  5 10  1  0  0  0  0
  6  5  2  0  0  0  0
  7  8  2  0  0  0  0
  7  6  1  0  0  0  0
  8  9  1  0  0  0  0
  9  4  2  0  0  0  0
 11  6  1  0  0  0  0
 12  8  1  0  0  0  0
 13 14  1  0  0  0  0
 15 13  1  0  0  0  0
 16 13  1  0  0  0  0
 16 17  1  0  0  0  0
 17 18  1  0  0  0  0
 19 17  2  0  0  0  0
 20 19  1  0  0  0  0
 21 20  1  0  0  0  0
 22 24  1  0  0  0  0
 22 20  2  0  0  0  0
 23 22  1  0  0  0  0
 24 16  2  0  0  0  0
M  END
>  <minimizedAffinity>
-4.62574339

$$$$

 OpenBabel03242518103D

 24 25  0  0  0  0  0  0  0  0999 V2000
   38.7570   29.3980   42.9280 C   0  0  0  0  0  0  0  0  0  0  0  0
   39.5670   28.7920   42.5340 H   0  0  0  0  0  0  0  0  0  0  0  0
   39.2110   30.0040   43.7480 H   0  0  0  0  0  0  0  0  0  0  0  0
   38.0710   30.2100   41.9250 C   0  0  0  0  0  0  0  0  0  0  0  0
   36.7660   29.9420   41.5270 C   0  0  0  0  0  0  0  0  0  0  0  0
   36.1780   30.7890   40.5480 C   0  0  0  0  0  0  0  0  0  0  0  0
   36.9360   31.8150   40.0610 N   0  0  0  0  0  0  0  0  0  0  0  0
   38.2090   32.0320   40.4860 C   0  0  0  0  0  0  0  0  0  0  0  0
   38.7650   31.2270   41.4150 N   0  0  0  0  0  0  0  0  0  0  0  0
   36.2210   29.1150   41.9500 H   0  0  0  0  0  0  0  0  0  0  0  0
   35.1720   30.6120   40.2160 H   0  0  0  0  0  0  0  0  0  0  0  0
   38.7660   32.8630   40.0650 H   0  0  0  0  0  0  0  0  0  0  0  0
   37.7640   28.4540   43.5450 C   0  0  0  0  0  0  0  0  0  0  0  0
   37.7360   28.5160   44.6570 H   0  0  0  0  0  0  0  0  0  0  0  0
   36.7740   28.6470   43.0970 H   0  0  0  0  0  0  0  0  0  0  0  0
   38.2270   27.0740   43.2290 C   0  0  0  0  0  0  0  0  0  0  0  0
   37.4550   26.2340   42.4650 C   0  0  0  0  0  0  0  0  0  0  0  0
   36.4910   26.5680   42.0790 H   0  0  0  0  0  0  0  0  0  0  0  0
   37.8920   24.9390   42.1690 C   0  0  0  0  0  3  0  0  0  0  0  0
   39.0880   24.4930   42.6360 C   0  0  0  0  0  0  0  0  0  0  0  0
   39.4790   23.4940   42.4370 H   0  0  0  0  0  0  0  0  0  0  0  0
   39.9110   25.3090   43.4180 C   0  0  0  0  0  0  0  0  0  0  0  0
   40.8750   24.9820   43.8060 H   0  0  0  0  0  0  0  0  0  0  0  0
   39.4300   26.5830   43.6800 C   0  0  0  0  0  3  0  0  0  0  0  0
  1 13  1  0  0  0  0
  1  3  1  0  0  0  0
  2  1  1  0  0  0  0
  4  1  1  0  0  0  0
  5  4  1  0  0  0  0
  5 10  1  0  0  0  0
  6  5  2  0  0  0  0
  7  8  2  0  0  0  0
  7  6  1  0  0  0  0
  8  9  1  0  0  0  0
  9  4  2  0  0  0  0
 11  6  1  0  0  0  0
 12  8  1  0  0  0  0
 13 14  1  0  0  0  0
 15 13  1  0  0  0  0
 16 13  1  0  0  0  0
 16 24  1  0  0  0  0
 17 16  2  0  0  0  0
 18 17  1  0  0  0  0
 19 17  1  0  0  0  0
 19 20  2  0  0  0  0
 20 22  1  0  0  0  0
 21 20  1  0  0  0  0
 22 24  2  0  0  0  0
 22 23  1  0  0  0  0
M  END
>  <minimizedAffinity>
-4.57804823

$$$$

 OpenBabel03242518103D

 24 25  0  0  0  0  0  0  0  0999 V2000
   36.2680   28.0760   41.6470 C   0  0  0  0  0  0  0  0  0  0  0  0
   35.2550   27.9690   42.0210 H   0  0  0  0  0  0  0  0  0  0  0  0
   36.5040   27.1060   41.1490 H   0  0  0  0  0  0  0  0  0  0  0  0
   36.4690   29.2330   40.7780 C   0  0  0  0  0  0  0  0  0  0  0  0
   36.3510   29.1450   39.3950 C   0  0  0  0  0  0  0  0  0  0  0  0
   36.5590   30.3240   38.6280 C   0  0  0  0  0  0  0  0  0  0  0  0
   36.8630   31.4720   39.3030 N   0  0  0  0  0  0  0  0  0  0  0  0
   36.9670   31.5020   40.6580 C   0  0  0  0  0  0  0  0  0  0  0  0
   36.7680   30.3820   41.3830 N   0  0  0  0  0  0  0  0  0  0  0  0
   36.1080   28.2070   38.9220 H   0  0  0  0  0  0  0  0  0  0  0  0
   36.4760   30.2930   37.5580 H   0  0  0  0  0  0  0  0  0  0  0  0
   37.2100   32.4430   41.1430 H   0  0  0  0  0  0  0  0  0  0  0  0
   37.1650   28.2120   42.8460 C   0  0  0  0  0  0  0  0  0  0  0  0
   37.8810   29.0610   42.7610 H   0  0  0  0  0  0  0  0  0  0  0  0
   36.5320   28.2950   43.7470 H   0  0  0  0  0  0  0  0  0  0  0  0
   38.0020   26.9810   42.9000 C   0  0  0  0  0  0  0  0  0  0  0  0
   39.1680   26.9570   43.6240 C   0  0  0  0  0  0  0  0  0  0  0  0
   39.4960   27.8430   44.1700 H   0  0  0  0  0  0  0  0  0  0  0  0
   39.9510   25.8010   43.6730 C   0  0  0  0  0  3  0  0  0  0  0  0
   39.5690   24.6810   43.0030 C   0  0  0  0  0  0  0  0  0  0  0  0
   40.1390   23.7520   43.0060 H   0  0  0  0  0  0  0  0  0  0  0  0
   38.3900   24.6540   42.2510 C   0  0  0  0  0  0  0  0  0  0  0  0
   38.0560   23.7730   41.7050 H   0  0  0  0  0  0  0  0  0  0  0  0
   37.6520   25.8270   42.2380 C   0  0  0  0  0  3  0  0  0  0  0  0
  1  2  1  0  0  0  0
  1 13  1  0  0  0  0
  3  1  1  0  0  0  0
  4  9  1  0  0  0  0
  4  1  1  0  0  0  0
  5  4  2  0  0  0  0
  6  7  2  0  0  0  0
  6  5  1  0  0  0  0
  7  8  1  0  0  0  0
  8 12  1  0  0  0  0
  8  9  2  0  0  0  0
 10  5  1  0  0  0  0
 11  6  1  0  0  0  0
 13 16  1  0  0  0  0
 13 15  1  0  0  0  0
 14 13  1  0  0  0  0
 16 17  1  0  0  0  0
 17 19  2  0  0  0  0
 17 18  1  0  0  0  0
 20 21  1  0  0  0  0
 20 19  1  0  0  0  0
 22 20  2  0  0  0  0
 23 22  1  0  0  0  0
 24 22  1  0  0  0  0
 24 16  2  0  0  0  0
M  END
>  <minimizedAffinity>
-4.4849987

$$$$

 OpenBabel03242518103D

 24 25  0  0  0  0  0  0  0  0999 V2000
   35.4380   29.1800   40.3250 C   0  0  0  0  0  0  0  0  0  0  0  0
   35.2280   29.2420   41.3880 H   0  0  0  0  0  0  0  0  0  0  0  0
   34.4420   29.0730   39.8330 H   0  0  0  0  0  0  0  0  0  0  0  0
   36.2220   30.2960   39.8010 C   0  0  0  0  0  0  0  0  0  0  0  0
   36.5770   30.3800   38.4590 C   0  0  0  0  0  0  0  0  0  0  0  0
   37.3380   31.5060   38.0370 C   0  0  0  0  0  0  0  0  0  0  0  0
   37.6710   32.4340   38.9820 N   0  0  0  0  0  0  0  0  0  0  0  0
   37.2970   32.3020   40.2830 C   0  0  0  0  0  0  0  0  0  0  0  0
   36.5750   31.2330   40.6800 N   0  0  0  0  0  0  0  0  0  0  0  0
   36.2830   29.6120   37.7630 H   0  0  0  0  0  0  0  0  0  0  0  0
   37.6310   31.6040   37.0090 H   0  0  0  0  0  0  0  0  0  0  0  0
   37.5880   33.0710   40.9910 H   0  0  0  0  0  0  0  0  0  0  0  0
   36.2030   27.9060   40.1040 C   0  0  0  0  0  0  0  0  0  0  0  0
   35.5500   27.0050   40.0630 H   0  0  0  0  0  0  0  0  0  0  0  0
   36.8080   28.0170   39.1880 H   0  0  0  0  0  0  0  0  0  0  0  0
   37.0790   27.7170   41.2950 C   0  0  0  0  0  0  0  0  0  0  0  0
   36.5610   27.7880   42.5640 C   0  0  0  0  0  0  0  0  0  0  0  0
   35.4990   27.9840   42.7160 H   0  0  0  0  0  0  0  0  0  0  0  0
   37.3840   27.6100   43.6790 C   0  0  0  0  0  3  0  0  0  0  0  0
   38.7120   27.3640   43.5220 C   0  0  0  0  0  0  0  0  0  0  0  0
   39.4010   27.2170   44.3550 H   0  0  0  0  0  0  0  0  0  0  0  0
   39.2880   27.2820   42.2510 C   0  0  0  0  0  0  0  0  0  0  0  0
   40.3480   27.0860   42.0920 H   0  0  0  0  0  0  0  0  0  0  0  0
   38.4260   27.4660   41.1810 C   0  0  0  0  0  3  0  0  0  0  0  0
  1  2  1  0  0  0  0
  3  1  1  0  0  0  0
  4  1  1  0  0  0  0
  4  9  1  0  0  0  0
  5  4  2  0  0  0  0
  6  5  1  0  0  0  0
  6  7  2  0  0  0  0
  7  8  1  0  0  0  0
  8  9  2  0  0  0  0
  8 12  1  0  0  0  0
 10  5  1  0  0  0  0
 11  6  1  0  0  0  0
 13  1  1  0  0  0  0
 13 16  1  0  0  0  0
 14 13  1  0  0  0  0
 15 13  1  0  0  0  0
 16 17  1  0  0  0  0
 17 18  1  0  0  0  0
 17 19  2  0  0  0  0
 20 19  1  0  0  0  0
 20 21  1  0  0  0  0
 22 20  2  0  0  0  0
 23 22  1  0  0  0  0
 24 16  2  0  0  0  0
 24 22  1  0  0  0  0
M  END
>  <minimizedAffinity>
-4.41945934

$$$$

 OpenBabel03242518103D

 24 25  0  0  0  0  0  0  0  0999 V2000
   36.2270   27.9050   40.1740 C   0  0  0  0  0  0  0  0  0  0  0  0
   36.7550   28.0270   39.2340 H   0  0  0  0  0  0  0  0  0  0  0  0
   35.5370   27.0420   40.0160 H   0  0  0  0  0  0  0  0  0  0  0  0
   37.0990   27.7380   41.3350 C   0  0  0  0  0  0  0  0  0  0  0  0
   38.4600   27.4860   41.2040 C   0  0  0  0  0  0  0  0  0  0  0  0
   39.2330   27.3420   42.3900 C   0  0  0  0  0  0  0  0  0  0  0  0
   38.5840   27.4620   43.5850 N   0  0  0  0  0  0  0  0  0  0  0  0
   37.2480   27.7090   43.6570 C   0  0  0  0  0  0  0  0  0  0  0  0
   36.5180   27.8450   42.5290 N   0  0  0  0  0  0  0  0  0  0  0  0
   38.9130   27.4020   40.2290 H   0  0  0  0  0  0  0  0  0  0  0  0
   40.2870   27.1470   42.3260 H   0  0  0  0  0  0  0  0  0  0  0  0
   36.7840   27.7960   44.6340 H   0  0  0  0  0  0  0  0  0  0  0  0
   35.3920   29.1380   40.3720 C   0  0  0  0  0  0  0  0  0  0  0  0
   34.4510   29.1280   39.7760 H   0  0  0  0  0  0  0  0  0  0  0  0
   35.1930   29.2550   41.4510 H   0  0  0  0  0  0  0  0  0  0  0  0
   36.1870   30.2860   39.8530 C   0  0  0  0  0  0  0  0  0  0  0  0
   36.5710   31.3060   40.6870 C   0  0  0  0  0  0  0  0  0  0  0  0
   36.2980   31.2890   41.7430 H   0  0  0  0  0  0  0  0  0  0  0  0
   37.3180   32.3810   40.1980 C   0  0  0  0  0  3  0  0  0  0  0  0
   37.6740   32.4330   38.8860 C   0  0  0  0  0  0  0  0  0  0  0  0
   38.2550   33.2460   38.4500 H   0  0  0  0  0  0  0  0  0  0  0  0
   37.3070   31.4180   37.9960 C   0  0  0  0  0  0  0  0  0  0  0  0
   37.5770   31.4290   36.9410 H   0  0  0  0  0  0  0  0  0  0  0  0
   36.5690   30.3760   38.5350 C   0  0  0  0  0  3  0  0  0  0  0  0
  1 13  1  0  0  0  0
  1  4  1  0  0  0  0
  2  1  1  0  0  0  0
  3  1  1  0  0  0  0
  4  9  1  0  0  0  0
  5  4  2  0  0  0  0
  5  6  1  0  0  0  0
  6  7  2  0  0  0  0
  7  8  1  0  0  0  0
  8 12  1  0  0  0  0
  9  8  2  0  0  0  0
 10  5  1  0  0  0  0
 11  6  1  0  0  0  0
 13 15  1  0  0  0  0
 14 13  1  0  0  0  0
 16 13  1  0  0  0  0
 16 17  1  0  0  0  0
 17 18  1  0  0  0  0
 19 17  2  0  0  0  0
 20 19  1  0  0  0  0
 21 20  1  0  0  0  0
 22 24  1  0  0  0  0
 22 20  2  0  0  0  0
 23 22  1  0  0  0  0
 24 16  2  0  0  0  0
M  END
>  <minimizedAffinity>
-4.38160849

$$$$

 OpenBabel03242518103D

 24 25  0  0  0  0  0  0  0  0999 V2000
   35.8450   30.3000   40.5160 C   0  0  0  0  0  0  0  0  0  0  0  0
   36.5400   30.6340   41.2800 H   0  0  0  0  0  0  0  0  0  0  0  0
   34.9080   30.8800   40.6940 H   0  0  0  0  0  0  0  0  0  0  0  0
   36.3490   30.4250   39.1500 C   0  0  0  0  0  0  0  0  0  0  0  0
   37.2390   31.4280   38.7820 C   0  0  0  0  0  0  0  0  0  0  0  0
   37.6800   31.4690   37.4300 C   0  0  0  0  0  0  0  0  0  0  0  0
   37.1970   30.5170   36.5780 N   0  0  0  0  0  0  0  0  0  0  0  0
   36.3260   29.5580   36.9920 C   0  0  0  0  0  0  0  0  0  0  0  0
   35.9100   29.5210   38.2750 N   0  0  0  0  0  0  0  0  0  0  0  0
   37.5830   32.1500   39.5040 H   0  0  0  0  0  0  0  0  0  0  0  0
   38.3670   32.2300   37.1100 H   0  0  0  0  0  0  0  0  0  0  0  0
   35.9750   28.8260   36.2720 H   0  0  0  0  0  0  0  0  0  0  0  0
   35.5540   28.8520   40.7930 C   0  0  0  0  0  0  0  0  0  0  0  0
   34.5920   28.6960   41.3320 H   0  0  0  0  0  0  0  0  0  0  0  0
   35.5830   28.3020   39.8360 H   0  0  0  0  0  0  0  0  0  0  0  0
   36.6180   28.3660   41.7150 C   0  0  0  0  0  0  0  0  0  0  0  0
   36.8910   27.0250   41.8250 C   0  0  0  0  0  0  0  0  0  0  0  0
   36.3310   26.2980   41.2370 H   0  0  0  0  0  0  0  0  0  0  0  0
   37.8910   26.5720   42.6900 C   0  0  0  0  0  3  0  0  0  0  0  0
   38.6070   27.4540   43.4370 C   0  0  0  0  0  0  0  0  0  0  0  0
   39.3970   27.1580   44.1280 H   0  0  0  0  0  0  0  0  0  0  0  0
   38.3670   28.8300   43.3610 C   0  0  0  0  0  0  0  0  0  0  0  0
   38.9240   29.5620   43.9450 H   0  0  0  0  0  0  0  0  0  0  0  0
   37.3660   29.2240   42.4870 C   0  0  0  0  0  3  0  0  0  0  0  0
  1  3  1  0  0  0  0
  1 13  1  0  0  0  0
  1  2  1  0  0  0  0
  4  1  1  0  0  0  0
  5  4  1  0  0  0  0
  5 10  1  0  0  0  0
  6  5  2  0  0  0  0
  7  8  2  0  0  0  0
  7  6  1  0  0  0  0
  8  9  1  0  0  0  0
  9  4  2  0  0  0  0
 11  6  1  0  0  0  0
 12  8  1  0  0  0  0
 13 14  1  0  0  0  0
 13 16  1  0  0  0  0
 15 13  1  0  0  0  0
 16 17  2  0  0  0  0
 16 24  1  0  0  0  0
 17 19  1  0  0  0  0
 18 17  1  0  0  0  0
 19 20  2  0  0  0  0
 20 21  1  0  0  0  0
 22 20  1  0  0  0  0
 22 23  1  0  0  0  0
 24 22  2  0  0  0  0
M  END
>  <minimizedAffinity>
-4.37834311

$$$$

 OpenBabel03242518103D

 24 25  0  0  0  0  0  0  0  0999 V2000
   36.5680   30.1410   39.4950 C   0  0  0  0  0  0  0  0  0  0  0  0
   35.8840   30.3390   38.6770 H   0  0  0  0  0  0  0  0  0  0  0  0
   37.2030   29.2900   39.1510 H   0  0  0  0  0  0  0  0  0  0  0  0
   37.3450   31.3020   39.9240 C   0  0  0  0  0  0  0  0  0  0  0  0
   38.4170   31.1880   40.8020 C   0  0  0  0  0  0  0  0  0  0  0  0
   39.1190   32.3720   41.1600 C   0  0  0  0  0  0  0  0  0  0  0  0
   38.6920   33.5500   40.6150 N   0  0  0  0  0  0  0  0  0  0  0  0
   37.6360   33.6040   39.7600 C   0  0  0  0  0  0  0  0  0  0  0  0
   36.9720   32.4790   39.4220 N   0  0  0  0  0  0  0  0  0  0  0  0
   38.7050   30.2280   41.1970 H   0  0  0  0  0  0  0  0  0  0  0  0
   39.9520   32.3220   41.8360 H   0  0  0  0  0  0  0  0  0  0  0  0
   37.3400   34.5670   39.3560 H   0  0  0  0  0  0  0  0  0  0  0  0
   35.7390   29.6610   40.6530 C   0  0  0  0  0  0  0  0  0  0  0  0
   35.8570   30.2910   41.5640 H   0  0  0  0  0  0  0  0  0  0  0  0
   34.6860   29.6020   40.3270 H   0  0  0  0  0  0  0  0  0  0  0  0
   36.2540   28.3130   41.0230 C   0  0  0  0  0  0  0  0  0  0  0  0
   36.5400   28.0070   42.3300 C   0  0  0  0  0  0  0  0  0  0  0  0
   36.3940   28.7500   43.1160 H   0  0  0  0  0  0  0  0  0  0  0  0
   37.0230   26.7410   42.6750 C   0  0  0  0  0  3  0  0  0  0  0  0
   37.2160   25.7950   41.7190 C   0  0  0  0  0  0  0  0  0  0  0  0
   37.5900   24.7920   41.9290 H   0  0  0  0  0  0  0  0  0  0  0  0
   36.9400   26.0560   40.3730 C   0  0  0  0  0  0  0  0  0  0  0  0
   37.0830   25.3200   39.5840 H   0  0  0  0  0  0  0  0  0  0  0  0
   36.4630   27.3270   40.0880 C   0  0  0  0  0  3  0  0  0  0  0  0
  1  4  1  0  0  0  0
  1 13  1  0  0  0  0
  2  1  1  0  0  0  0
  3  1  1  0  0  0  0
  4  5  1  0  0  0  0
  5  6  2  0  0  0  0
  5 10  1  0  0  0  0
  6 11  1  0  0  0  0
  7  6  1  0  0  0  0
  8  7  2  0  0  0  0
  9  8  1  0  0  0  0
  9  4  2  0  0  0  0
 12  8  1  0  0  0  0
 13 16  1  0  0  0  0
 13 14  1  0  0  0  0
 15 13  1  0  0  0  0
 16 17  1  0  0  0  0
 17 19  2  0  0  0  0
 17 18  1  0  0  0  0
 20 21  1  0  0  0  0
 20 19  1  0  0  0  0
 22 20  2  0  0  0  0
 23 22  1  0  0  0  0
 24 22  1  0  0  0  0
 24 16  2  0  0  0  0
M  END
>  <minimizedAffinity>
-4.30880022

$$$$

 OpenBabel03242518103D

 24 25  0  0  0  0  0  0  0  0999 V2000
   36.8690   31.6360   40.5390 C   0  0  0  0  0  0  0  0  0  0  0  0
   36.7670   31.6450   41.6200 H   0  0  0  0  0  0  0  0  0  0  0  0
   35.9480   32.1300   40.1500 H   0  0  0  0  0  0  0  0  0  0  0  0
   38.1020   32.2490   40.0480 C   0  0  0  0  0  0  0  0  0  0  0  0
   38.6770   33.3500   40.6720 C   0  0  0  0  0  0  0  0  0  0  0  0
   39.8800   33.8770   40.1260 C   0  0  0  0  0  0  0  0  0  0  0  0
   40.3950   33.2640   39.0200 N   0  0  0  0  0  0  0  0  0  0  0  0
   39.7900   32.1880   38.4490 C   0  0  0  0  0  0  0  0  0  0  0  0
   38.6490   31.6900   38.9690 N   0  0  0  0  0  0  0  0  0  0  0  0
   38.2200   33.7890   41.5440 H   0  0  0  0  0  0  0  0  0  0  0  0
   40.3520   34.7280   40.5820 H   0  0  0  0  0  0  0  0  0  0  0  0
   40.2440   31.7390   37.5710 H   0  0  0  0  0  0  0  0  0  0  0  0
   36.8410   30.1970   40.1080 C   0  0  0  0  0  0  0  0  0  0  0  0
   35.8590   29.8870   39.6850 H   0  0  0  0  0  0  0  0  0  0  0  0
   37.6670   30.0290   39.3960 H   0  0  0  0  0  0  0  0  0  0  0  0
   37.0280   29.3750   41.3370 C   0  0  0  0  0  0  0  0  0  0  0  0
   36.2580   28.2610   41.5590 C   0  0  0  0  0  0  0  0  0  0  0  0
   35.4970   27.9630   40.8360 H   0  0  0  0  0  0  0  0  0  0  0  0
   36.4360   27.4910   42.7120 C   0  0  0  0  0  3  0  0  0  0  0  0
   37.3750   27.8370   43.6320 C   0  0  0  0  0  0  0  0  0  0  0  0
   37.5580   27.2750   44.5490 H   0  0  0  0  0  0  0  0  0  0  0  0
   38.1850   28.9630   43.4530 C   0  0  0  0  0  0  0  0  0  0  0  0
   38.9470   29.2660   44.1700 H   0  0  0  0  0  0  0  0  0  0  0  0
   37.9670   29.6890   42.2920 C   0  0  0  0  0  3  0  0  0  0  0  0
  1  2  1  0  0  0  0
  3  1  1  0  0  0  0
  4  1  1  0  0  0  0
  4  5  1  0  0  0  0
  5 10  1  0  0  0  0
  6 11  1  0  0  0  0
  6  5  2  0  0  0  0
  7  6  1  0  0  0  0
  8  9  1  0  0  0  0
  8  7  2  0  0  0  0
  9  4  2  0  0  0  0
 12  8  1  0  0  0  0
 13  1  1  0  0  0  0
 13 16  1  0  0  0  0
 14 13  1  0  0  0  0
 15 13  1  0  0  0  0
 16 17  2  0  0  0  0
 16 24  1  0  0  0  0
 17 19  1  0  0  0  0
 18 17  1  0  0  0  0
 19 20  2  0  0  0  0
 20 21  1  0  0  0  0
 22 20  1  0  0  0  0
 22 23  1  0  0  0  0
 24 22  2  0  0  0  0
M  END
>  <minimizedAffinity>
-4.29977655

$$$$

 OpenBabel03242518103D

 24 25  0  0  0  0  0  0  0  0999 V2000
   37.0330   27.7760   42.9690 C   0  0  0  0  0  0  0  0  0  0  0  0
   36.4380   28.0300   42.0980 H   0  0  0  0  0  0  0  0  0  0  0  0
   36.3160   27.7580   43.8230 H   0  0  0  0  0  0  0  0  0  0  0  0
   37.7980   26.5380   42.8340 C   0  0  0  0  0  0  0  0  0  0  0  0
   37.3030   25.4390   42.1410 C   0  0  0  0  0  0  0  0  0  0  0  0
   38.1200   24.2770   42.0560 C   0  0  0  0  0  0  0  0  0  0  0  0
   39.3420   24.3180   42.6640 N   0  0  0  0  0  0  0  0  0  0  0  0
   39.7770   25.4210   43.3300 C   0  0  0  0  0  0  0  0  0  0  0  0
   39.0000   26.5220   43.4080 N   0  0  0  0  0  0  0  0  0  0  0  0
   36.3280   25.4700   41.6830 H   0  0  0  0  0  0  0  0  0  0  0  0
   37.7700   23.4090   41.5290 H   0  0  0  0  0  0  0  0  0  0  0  0
   40.7580   25.3980   43.7940 H   0  0  0  0  0  0  0  0  0  0  0  0
   37.9910   28.9130   43.1920 C   0  0  0  0  0  0  0  0  0  0  0  0
   37.7930   29.4720   44.1350 H   0  0  0  0  0  0  0  0  0  0  0  0
   39.0200   28.5140   43.1590 H   0  0  0  0  0  0  0  0  0  0  0  0
   37.7670   29.8890   42.0890 C   0  0  0  0  0  0  0  0  0  0  0  0
   36.5410   29.9880   41.4800 C   0  0  0  0  0  0  0  0  0  0  0  0
   35.7130   29.3520   41.7970 H   0  0  0  0  0  0  0  0  0  0  0  0
   36.3330   30.9050   40.4450 C   0  0  0  0  0  3  0  0  0  0  0  0
   37.3440   31.7110   40.0260 C   0  0  0  0  0  0  0  0  0  0  0  0
   37.2400   32.4430   39.2240 H   0  0  0  0  0  0  0  0  0  0  0  0
   38.6120   31.6480   40.6140 C   0  0  0  0  0  0  0  0  0  0  0  0
   39.4420   32.2800   40.3020 H   0  0  0  0  0  0  0  0  0  0  0  0
   38.7620   30.7230   41.6350 C   0  0  0  0  0  3  0  0  0  0  0  0
  1 13  1  0  0  0  0
  1  3  1  0  0  0  0
  2  1  1  0  0  0  0
  4  1  1  0  0  0  0
  4  9  1  0  0  0  0
  5  4  2  0  0  0  0
  6  5  1  0  0  0  0
  6  7  2  0  0  0  0
  7  8  1  0  0  0  0
  8  9  2  0  0  0  0
  8 12  1  0  0  0  0
 10  5  1  0  0  0  0
 11  6  1  0  0  0  0
 13 14  1  0  0  0  0
 15 13  1  0  0  0  0
 16 13  1  0  0  0  0
 17 18  1  0  0  0  0
 17 16  2  0  0  0  0
 19 17  1  0  0  0  0
 20 19  2  0  0  0  0
 20 22  1  0  0  0  0
 21 20  1  0  0  0  0
 22 24  2  0  0  0  0
 23 22  1  0  0  0  0
 24 16  1  0  0  0  0
M  END
>  <minimizedAffinity>
-4.28937721

$$$$
