
 OpenBabel03252506353D

 33 35  0  0  1  0  0  0  0  0999 V2000
   37.8490   32.7780   39.1430 C   0  0  0  0  0  0  0  0  0  0  0  0
   38.0410   32.5680   40.5140 C   0  0  0  0  0  0  0  0  0  0  0  0
   37.6280   31.3910   41.0510 C   0  0  0  0  0  0  0  0  0  0  0  0
   37.0520   30.4780   40.2390 N   0  0  0  0  0  0  0  0  0  0  0  0
   36.8740   30.6910   38.9290 C   0  0  0  0  0  0  0  0  0  0  0  0
   37.2640   31.8310   38.3600 N   0  0  0  0  0  0  0  0  0  0  0  0
   36.2510   29.6770   38.1460 N   0  0  0  0  0  0  0  0  0  0  0  0
   36.2530   29.6110   36.6970 C   0  0  0  0  0  0  0  0  0  0  0  0
   34.8450   29.1040   36.4170 C   0  0  0  0  0  0  0  0  0  0  0  0
   34.2730   28.6310   37.7320 C   0  0  0  0  0  0  0  0  0  0  0  0
   35.5020   28.5290   38.6140 C   0  0  1  0  0  0  0  0  0  0  0  0
   38.1610   33.7030   38.6630 H   0  0  0  0  0  0  0  0  0  0  0  0
   37.7820   31.2530   42.0880 H   0  0  0  0  0  0  0  0  0  0  0  0
   37.0030   28.9010   36.2980 H   0  0  0  0  0  0  0  0  0  0  0  0
   36.4450   30.6100   36.2330 H   0  0  0  0  0  0  0  0  0  0  0  0
   34.7900   28.3590   35.6230 H   0  0  0  0  0  0  0  0  0  0  0  0
   34.2620   29.9990   36.1020 H   0  0  0  0  0  0  0  0  0  0  0  0
   33.8780   27.6050   37.5860 H   0  0  0  0  0  0  0  0  0  0  0  0
   33.5020   29.3040   38.1230 H   0  0  0  0  0  0  0  0  0  0  0  0
   35.2820   28.6480   39.6770 H   0  0  0  0  0  0  0  0  0  0  0  0
   38.6620   33.6560   41.2010 N   0  0  0  0  0  0  0  0  0  0  0  0
   38.4980   34.6440   40.9070 H   0  0  0  0  0  0  0  0  0  0  0  0
   39.3010   33.4620   42.0240 H   0  0  0  0  0  0  0  0  0  0  0  0
   36.3350   26.9740   38.2270 S   0  0  0  0  0  0  0  0  0  0  0  0
   36.5610   25.9590   39.6790 C   0  0  0  0  0  0  0  0  0  0  0  0
   36.9600   26.7030   40.7970 C   0  0  0  0  0  0  0  0  0  0  0  0
   37.1230   27.7830   40.8120 H   0  0  0  0  0  0  0  0  0  0  0  0
   37.1830   26.0850   42.0090 C   0  0  0  0  0  3  0  0  0  0  0  0
   37.0100   24.7220   42.1160 C   0  0  0  0  0  0  0  0  0  0  0  0
   37.1790   24.2060   43.0610 H   0  0  0  0  0  0  0  0  0  0  0  0
   36.6140   23.9810   41.0050 C   0  0  0  0  0  0  0  0  0  0  0  0
   36.4680   22.9120   41.0520 H   0  0  0  0  0  0  0  0  0  0  0  0
   36.3890   24.5920   39.7890 C   0  0  0  0  0  3  0  0  0  0  0  0
  1  2  1  0  0  0  0
  2  3  2  0  0  0  0
  2 21  1  0  0  0  0
  3 13  1  0  0  0  0
  4  3  1  0  0  0  0
  5  4  2  0  0  0  0
  6  5  1  0  0  0  0
  6  1  2  0  0  0  0
  7 11  1  0  0  0  0
  7  5  1  0  0  0  0
  8  7  1  0  0  0  0
  9  8  1  0  0  0  0
  9 10  1  0  0  0  0
 10 19  1  0  0  0  0
 10 11  1  0  0  0  0
 11 20  1  1  0  0  0
 12  1  1  0  0  0  0
 14  8  1  0  0  0  0
 15  8  1  0  0  0  0
 16  9  1  0  0  0  0
 17  9  1  0  0  0  0
 18 10  1  0  0  0  0
 21 23  1  0  0  0  0
 22 21  1  0  0  0  0
 24 11  1  0  0  0  0
 24 25  1  0  0  0  0
 25 33  2  0  0  0  0
 25 26  1  0  0  0  0
 26 27  1  0  0  0  0
 26 28  2  0  0  0  0
 28 29  1  0  0  0  0
 29 30  1  0  0  0  0
 31 32  1  0  0  0  0
 31 29  2  0  0  0  0
 33 31  1  0  0  0  0
M  END
>  <minimizedAffinity>
-5.3717165

$$$$

 OpenBabel03252506353D

 33 35  0  0  1  0  0  0  0  0999 V2000
   41.9150   33.4480   39.0530 C   0  0  0  0  0  0  0  0  0  0  0  0
   41.6030   33.2690   37.7000 C   0  0  0  0  0  0  0  0  0  0  0  0
   40.6430   32.3660   37.3720 C   0  0  0  0  0  0  0  0  0  0  0  0
   40.0340   31.6840   38.3660 N   0  0  0  0  0  0  0  0  0  0  0  0
   40.3410   31.8640   39.6560 C   0  0  0  0  0  0  0  0  0  0  0  0
   41.2760   32.7400   40.0230 N   0  0  0  0  0  0  0  0  0  0  0  0
   39.6530   31.0980   40.6400 N   0  0  0  0  0  0  0  0  0  0  0  0
   39.6390   31.3720   42.0640 C   0  0  0  0  0  0  0  0  0  0  0  0
   39.6940   29.9650   42.6430 C   0  0  0  0  0  0  0  0  0  0  0  0
   39.4210   29.0080   41.5080 C   0  0  0  0  0  0  0  0  0  0  0  0
   38.8450   29.9130   40.4360 C   0  0  1  0  0  0  0  0  0  0  0  0
   42.6760   34.1580   39.3690 H   0  0  0  0  0  0  0  0  0  0  0  0
   40.4240   32.2470   36.3450 H   0  0  0  0  0  0  0  0  0  0  0  0
   38.7170   31.8870   42.3960 H   0  0  0  0  0  0  0  0  0  0  0  0
   40.5120   31.9950   42.3790 H   0  0  0  0  0  0  0  0  0  0  0  0
   39.0480   29.8140   43.5080 H   0  0  0  0  0  0  0  0  0  0  0  0
   40.7510   29.8140   42.9610 H   0  0  0  0  0  0  0  0  0  0  0  0
   38.6160   28.3140   41.8300 H   0  0  0  0  0  0  0  0  0  0  0  0
   40.3170   28.4610   41.1920 H   0  0  0  0  0  0  0  0  0  0  0  0
   39.0010   29.5360   39.4230 H   0  0  0  0  0  0  0  0  0  0  0  0
   42.3640   34.0800   36.8020 N   0  0  0  0  0  0  0  0  0  0  0  0
   43.3530   34.3400   37.0150 H   0  0  0  0  0  0  0  0  0  0  0  0
   41.9220   34.4270   35.9030 H   0  0  0  0  0  0  0  0  0  0  0  0
   37.1070   30.2030   40.8300 S   0  0  0  0  0  0  0  0  0  0  0  0
   36.0260   29.6850   39.5060 C   0  0  0  0  0  0  0  0  0  0  0  0
   36.6100   29.8510   38.2430 C   0  0  0  0  0  0  0  0  0  0  0  0
   37.6100   30.2500   38.0560 H   0  0  0  0  0  0  0  0  0  0  0  0
   35.9210   29.5050   37.1000 C   0  0  0  0  0  3  0  0  0  0  0  0
   34.6470   28.9900   37.2080 C   0  0  0  0  0  0  0  0  0  0  0  0
   34.0790   28.7070   36.3220 H   0  0  0  0  0  0  0  0  0  0  0  0
   34.0660   28.8240   38.4620 C   0  0  0  0  0  0  0  0  0  0  0  0
   33.0710   28.4240   38.5850 H   0  0  0  0  0  0  0  0  0  0  0  0
   34.7490   29.1690   39.6100 C   0  0  0  0  0  3  0  0  0  0  0  0
  1 12  1  0  0  0  0
  1  6  1  0  0  0  0
  2  1  2  0  0  0  0
  3  2  1  0  0  0  0
  3  4  2  0  0  0  0
  4  5  1  0  0  0  0
  5  6  2  0  0  0  0
  5  7  1  0  0  0  0
  7  8  1  0  0  0  0
  8 15  1  0  0  0  0
  8 14  1  0  0  0  0
  8  9  1  0  0  0  0
  9 17  1  0  0  0  0
  9 16  1  0  0  0  0
 10 18  1  0  0  0  0
 10  9  1  0  0  0  0
 11 20  1  6  0  0  0
 11  7  1  0  0  0  0
 11 24  1  0  0  0  0
 11 10  1  0  0  0  0
 13  3  1  0  0  0  0
 19 10  1  0  0  0  0
 21 22  1  0  0  0  0
 21  2  1  0  0  0  0
 23 21  1  0  0  0  0
 25 33  1  0  0  0  0
 25 24  1  0  0  0  0
 26 25  2  0  0  0  0
 27 26  1  0  0  0  0
 28 29  2  0  0  0  0
 28 26  1  0  0  0  0
 29 31  1  0  0  0  0
 30 29  1  0  0  0  0
 31 32  1  0  0  0  0
 31 33  2  0  0  0  0
M  END
>  <minimizedAffinity>
-5.33163738

$$$$

 OpenBabel03252506353D

 33 35  0  0  1  0  0  0  0  0999 V2000
   40.6580   32.0770   39.7850 C   0  0  0  0  0  0  0  0  0  0  0  0
   40.1560   33.0850   40.6180 C   0  0  0  0  0  0  0  0  0  0  0  0
   38.8380   33.0590   40.9420 C   0  0  0  0  0  0  0  0  0  0  0  0
   38.0720   32.0620   40.4470 N   0  0  0  0  0  0  0  0  0  0  0  0
   38.5630   31.1040   39.6520 C   0  0  0  0  0  0  0  0  0  0  0  0
   39.8510   31.0900   39.3090 N   0  0  0  0  0  0  0  0  0  0  0  0
   37.6840   30.0930   39.1690 N   0  0  0  0  0  0  0  0  0  0  0  0
   38.0920   28.8400   38.5630 C   0  0  0  0  0  0  0  0  0  0  0  0
   37.0460   28.6810   37.4680 C   0  0  0  0  0  0  0  0  0  0  0  0
   35.9570   29.6900   37.7440 C   0  0  0  0  0  0  0  0  0  0  0  0
   36.2350   30.1000   39.1770 C   0  0  1  0  0  0  0  0  0  0  0  0
   41.7060   32.0520   39.4960 H   0  0  0  0  0  0  0  0  0  0  0  0
   38.4810   33.8300   41.5710 H   0  0  0  0  0  0  0  0  0  0  0  0
   38.0450   27.9850   39.2650 H   0  0  0  0  0  0  0  0  0  0  0  0
   39.1310   28.8920   38.1540 H   0  0  0  0  0  0  0  0  0  0  0  0
   36.6780   27.6610   37.3490 H   0  0  0  0  0  0  0  0  0  0  0  0
   37.5530   28.9860   36.5240 H   0  0  0  0  0  0  0  0  0  0  0  0
   34.9840   29.1570   37.7290 H   0  0  0  0  0  0  0  0  0  0  0  0
   35.9660   30.5240   37.0330 H   0  0  0  0  0  0  0  0  0  0  0  0
   35.8780   31.1050   39.4150 H   0  0  0  0  0  0  0  0  0  0  0  0
   41.1250   34.0520   41.0310 N   0  0  0  0  0  0  0  0  0  0  0  0
   41.9170   34.3230   40.4070 H   0  0  0  0  0  0  0  0  0  0  0  0
   41.0430   34.5030   41.9860 H   0  0  0  0  0  0  0  0  0  0  0  0
   35.5580   28.8250   40.2610 S   0  0  0  0  0  0  0  0  0  0  0  0
   36.6680   28.4330   41.6040 C   0  0  0  0  0  0  0  0  0  0  0  0
   36.9830   27.0690   41.6580 C   0  0  0  0  0  0  0  0  0  0  0  0
   36.6090   26.3060   40.9710 H   0  0  0  0  0  0  0  0  0  0  0  0
   37.8280   26.5810   42.6320 C   0  0  0  0  0  3  0  0  0  0  0  0
   38.3650   27.4490   43.5590 C   0  0  0  0  0  0  0  0  0  0  0  0
   39.0350   27.0920   44.3400 H   0  0  0  0  0  0  0  0  0  0  0  0
   38.0520   28.8050   43.5070 C   0  0  0  0  0  0  0  0  0  0  0  0
   38.4540   29.5130   44.2160 H   0  0  0  0  0  0  0  0  0  0  0  0
   37.2070   29.3000   42.5350 C   0  0  0  0  0  3  0  0  0  0  0  0
  1  2  1  0  0  0  0
  2  3  2  0  0  0  0
  2 21  1  0  0  0  0
  3 13  1  0  0  0  0
  4  3  1  0  0  0  0
  5  4  2  0  0  0  0
  6  5  1  0  0  0  0
  6  1  2  0  0  0  0
  7 11  1  0  0  0  0
  7  5  1  0  0  0  0
  8  7  1  0  0  0  0
  8 14  1  0  0  0  0
  9 10  1  0  0  0  0
  9  8  1  0  0  0  0
 10 11  1  0  0  0  0
 11 20  1  1  0  0  0
 11 24  1  0  0  0  0
 12  1  1  0  0  0  0
 15  8  1  0  0  0  0
 16  9  1  0  0  0  0
 17  9  1  0  0  0  0
 18 10  1  0  0  0  0
 19 10  1  0  0  0  0
 21 23  1  0  0  0  0
 22 21  1  0  0  0  0
 24 25  1  0  0  0  0
 25 26  2  0  0  0  0
 25 33  1  0  0  0  0
 26 28  1  0  0  0  0
 27 26  1  0  0  0  0
 28 29  2  0  0  0  0
 29 30  1  0  0  0  0
 31 29  1  0  0  0  0
 31 32  1  0  0  0  0
 33 31  2  0  0  0  0
M  END
>  <minimizedAffinity>
-5.27056122

$$$$

 OpenBabel03252506353D

 33 35  0  0  1  0  0  0  0  0999 V2000
   42.5120   33.8650   37.3690 C   0  0  0  0  0  0  0  0  0  0  0  0
   43.7390   33.2220   37.5730 C   0  0  0  0  0  0  0  0  0  0  0  0
   43.7750   32.1420   38.3950 C   0  0  0  0  0  0  0  0  0  0  0  0
   42.6260   31.7390   38.9790 N   0  0  0  0  0  0  0  0  0  0  0  0
   41.4580   32.3620   38.7770 C   0  0  0  0  0  0  0  0  0  0  0  0
   41.3770   33.4250   37.9770 N   0  0  0  0  0  0  0  0  0  0  0  0
   40.2950   31.8740   39.4380 N   0  0  0  0  0  0  0  0  0  0  0  0
   38.9270   32.2270   39.1080 C   0  0  0  0  0  0  0  0  0  0  0  0
   38.2950   32.3080   40.4900 C   0  0  0  0  0  0  0  0  0  0  0  0
   39.2730   31.6930   41.4630 C   0  0  0  0  0  0  0  0  0  0  0  0
   40.2290   30.9480   40.5510 C   0  0  1  0  0  0  0  0  0  0  0  0
   42.4290   34.7340   36.7210 H   0  0  0  0  0  0  0  0  0  0  0  0
   44.7120   31.6730   38.5340 H   0  0  0  0  0  0  0  0  0  0  0  0
   38.4180   31.4560   38.4980 H   0  0  0  0  0  0  0  0  0  0  0  0
   38.8680   33.1970   38.5560 H   0  0  0  0  0  0  0  0  0  0  0  0
   37.2940   31.8800   40.5470 H   0  0  0  0  0  0  0  0  0  0  0  0
   38.2290   33.3950   40.7260 H   0  0  0  0  0  0  0  0  0  0  0  0
   38.7280   30.9370   42.0660 H   0  0  0  0  0  0  0  0  0  0  0  0
   39.7590   32.4390   42.1010 H   0  0  0  0  0  0  0  0  0  0  0  0
   41.2260   30.8250   40.9800 H   0  0  0  0  0  0  0  0  0  0  0  0
   44.8400   33.8050   36.8710 N   0  0  0  0  0  0  0  0  0  0  0  0
   44.8840   34.8340   36.6950 H   0  0  0  0  0  0  0  0  0  0  0  0
   45.6270   33.1880   36.5200 H   0  0  0  0  0  0  0  0  0  0  0  0
   39.4520   29.3860   40.0870 S   0  0  0  0  0  0  0  0  0  0  0  0
   38.6090   28.6250   41.4660 C   0  0  0  0  0  0  0  0  0  0  0  0
   37.2290   28.5130   41.2540 C   0  0  0  0  0  0  0  0  0  0  0  0
   36.6980   28.8430   40.3580 H   0  0  0  0  0  0  0  0  0  0  0  0
   36.4150   27.9490   42.2130 C   0  0  0  0  0  3  0  0  0  0  0  0
   36.9700   27.4940   43.3890 C   0  0  0  0  0  0  0  0  0  0  0  0
   36.3510   27.0440   44.1650 H   0  0  0  0  0  0  0  0  0  0  0  0
   38.3420   27.6050   43.6020 C   0  0  0  0  0  0  0  0  0  0  0  0
   38.8110   27.2600   44.5110 H   0  0  0  0  0  0  0  0  0  0  0  0
   39.1630   28.1680   42.6460 C   0  0  0  0  0  3  0  0  0  0  0  0
  1  2  2  0  0  0  0
  1  6  1  0  0  0  0
  2  3  1  0  0  0  0
  3 13  1  0  0  0  0
  3  4  2  0  0  0  0
  5  4  1  0  0  0  0
  5  7  1  0  0  0  0
  6  5  2  0  0  0  0
  7 11  1  0  0  0  0
  8  7  1  0  0  0  0
  8  9  1  0  0  0  0
  9 16  1  0  0  0  0
  9 17  1  0  0  0  0
  9 10  1  0  0  0  0
 10 18  1  0  0  0  0
 10 19  1  0  0  0  0
 11 20  1  1  0  0  0
 11 10  1  0  0  0  0
 12  1  1  0  0  0  0
 14  8  1  0  0  0  0
 15  8  1  0  0  0  0
 21  2  1  0  0  0  0
 22 21  1  0  0  0  0
 23 21  1  0  0  0  0
 24 11  1  0  0  0  0
 24 25  1  0  0  0  0
 25 33  1  0  0  0  0
 26 25  2  0  0  0  0
 26 28  1  0  0  0  0
 27 26  1  0  0  0  0
 28 29  2  0  0  0  0
 29 31  1  0  0  0  0
 29 30  1  0  0  0  0
 31 32  1  0  0  0  0
 33 31  2  0  0  0  0
M  END
>  <minimizedAffinity>
-5.22530508

$$$$

 OpenBabel03252506353D

 33 35  0  0  1  0  0  0  0  0999 V2000
   39.3400   32.5460   39.5980 C   0  0  0  0  0  0  0  0  0  0  0  0
   39.9880   32.4970   40.8380 C   0  0  0  0  0  0  0  0  0  0  0  0
   39.6510   31.5080   41.7060 C   0  0  0  0  0  0  0  0  0  0  0  0
   38.7050   30.6190   41.3330 N   0  0  0  0  0  0  0  0  0  0  0  0
   38.0910   30.6760   40.1440 C   0  0  0  0  0  0  0  0  0  0  0  0
   38.3920   31.6290   39.2620 N   0  0  0  0  0  0  0  0  0  0  0  0
   37.1010   29.7010   39.8340 N   0  0  0  0  0  0  0  0  0  0  0  0
   36.5660   29.4340   38.5130 C   0  0  0  0  0  0  0  0  0  0  0  0
   35.0990   29.1730   38.8290 C   0  0  0  0  0  0  0  0  0  0  0  0
   34.9900   29.0080   40.3250 C   0  0  0  0  0  0  0  0  0  0  0  0
   36.4310   28.7950   40.7460 C   0  0  1  0  0  0  0  0  0  0  0  0
   39.5730   33.3170   38.8670 H   0  0  0  0  0  0  0  0  0  0  0  0
   40.1530   31.4900   42.6360 H   0  0  0  0  0  0  0  0  0  0  0  0
   37.0200   28.5440   38.0350 H   0  0  0  0  0  0  0  0  0  0  0  0
   36.7040   30.3020   37.8220 H   0  0  0  0  0  0  0  0  0  0  0  0
   34.6630   28.3480   38.2640 H   0  0  0  0  0  0  0  0  0  0  0  0
   34.5630   30.1100   38.5560 H   0  0  0  0  0  0  0  0  0  0  0  0
   34.4390   28.0660   40.5280 H   0  0  0  0  0  0  0  0  0  0  0  0
   34.5080   29.8640   40.8100 H   0  0  0  0  0  0  0  0  0  0  0  0
   36.6300   29.1020   41.7750 H   0  0  0  0  0  0  0  0  0  0  0  0
   40.9530   33.5310   41.0460 N   0  0  0  0  0  0  0  0  0  0  0  0
   40.8230   34.4810   40.6330 H   0  0  0  0  0  0  0  0  0  0  0  0
   41.8170   33.3350   41.6270 H   0  0  0  0  0  0  0  0  0  0  0  0
   36.8570   27.0710   40.4200 S   0  0  0  0  0  0  0  0  0  0  0  0
   38.0300   26.4370   41.6090 C   0  0  0  0  0  0  0  0  0  0  0  0
   38.2630   27.3320   42.6610 C   0  0  0  0  0  0  0  0  0  0  0  0
   37.7960   28.3140   42.7710 H   0  0  0  0  0  0  0  0  0  0  0  0
   39.1410   27.0110   43.6740 C   0  0  0  0  0  3  0  0  0  0  0  0
   39.7930   25.7970   43.6450 C   0  0  0  0  0  0  0  0  0  0  0  0
   40.4930   25.5170   44.4320 H   0  0  0  0  0  0  0  0  0  0  0  0
   39.5620   24.9060   42.6000 C   0  0  0  0  0  0  0  0  0  0  0  0
   40.0550   23.9470   42.5440 H   0  0  0  0  0  0  0  0  0  0  0  0
   38.6850   25.2210   41.5820 C   0  0  0  0  0  3  0  0  0  0  0  0
  1  2  1  0  0  0  0
  2 21  1  0  0  0  0
  2  3  2  0  0  0  0
  3 13  1  0  0  0  0
  4  3  1  0  0  0  0
  5  4  2  0  0  0  0
  6  1  2  0  0  0  0
  6  5  1  0  0  0  0
  7  5  1  0  0  0  0
  7 11  1  0  0  0  0
  8  9  1  0  0  0  0
  8  7  1  0  0  0  0
  9 10  1  0  0  0  0
 10 18  1  0  0  0  0
 10 11  1  0  0  0  0
 10 19  1  0  0  0  0
 11 20  1  1  0  0  0
 12  1  1  0  0  0  0
 14  8  1  0  0  0  0
 15  8  1  0  0  0  0
 16  9  1  0  0  0  0
 17  9  1  0  0  0  0
 21 23  1  0  0  0  0
 22 21  1  0  0  0  0
 24 11  1  0  0  0  0
 24 25  1  0  0  0  0
 25 26  1  0  0  0  0
 26 27  1  0  0  0  0
 26 28  2  0  0  0  0
 29 28  1  0  0  0  0
 29 30  1  0  0  0  0
 31 29  2  0  0  0  0
 32 31  1  0  0  0  0
 33 25  2  0  0  0  0
 33 31  1  0  0  0  0
M  END
>  <minimizedAffinity>
-5.22029305

$$$$

 OpenBabel03252506353D

 33 35  0  0  1  0  0  0  0  0999 V2000
   38.7120   24.0460   42.0380 C   0  0  0  0  0  0  0  0  0  0  0  0
   38.1340   23.5750   40.8530 C   0  0  0  0  0  0  0  0  0  0  0  0
   37.7010   24.4820   39.9390 C   0  0  0  0  0  0  0  0  0  0  0  0
   37.8490   25.7960   40.2160 N   0  0  0  0  0  0  0  0  0  0  0  0
   38.4030   26.2350   41.3530 C   0  0  0  0  0  0  0  0  0  0  0  0
   38.8420   25.3800   42.2760 N   0  0  0  0  0  0  0  0  0  0  0  0
   38.5140   27.6380   41.5670 N   0  0  0  0  0  0  0  0  0  0  0  0
   39.3410   28.2740   42.5760 C   0  0  0  0  0  0  0  0  0  0  0  0
   38.4460   29.4240   43.0170 C   0  0  0  0  0  0  0  0  0  0  0  0
   37.3270   29.5280   42.0090 C   0  0  0  0  0  0  0  0  0  0  0  0
   37.8430   28.7010   40.8470 C   0  0  1  0  0  0  0  0  0  0  0  0
   39.0750   23.3620   42.8010 H   0  0  0  0  0  0  0  0  0  0  0  0
   37.2680   24.1050   39.0520 H   0  0  0  0  0  0  0  0  0  0  0  0
   40.2940   28.6640   42.1700 H   0  0  0  0  0  0  0  0  0  0  0  0
   39.5840   27.5790   43.4160 H   0  0  0  0  0  0  0  0  0  0  0  0
   38.9760   30.3630   43.1800 H   0  0  0  0  0  0  0  0  0  0  0  0
   37.9970   29.1000   43.9830 H   0  0  0  0  0  0  0  0  0  0  0  0
   37.2660   30.5830   41.6700 H   0  0  0  0  0  0  0  0  0  0  0  0
   36.3670   29.1810   42.4080 H   0  0  0  0  0  0  0  0  0  0  0  0
   37.0470   28.2770   40.2320 H   0  0  0  0  0  0  0  0  0  0  0  0
   38.0630   22.1510   40.7510 N   0  0  0  0  0  0  0  0  0  0  0  0
   37.9250   21.5560   41.5970 H   0  0  0  0  0  0  0  0  0  0  0  0
   38.1510   21.6870   39.8020 H   0  0  0  0  0  0  0  0  0  0  0  0
   39.0030   29.7220   39.9130 S   0  0  0  0  0  0  0  0  0  0  0  0
   38.4950   31.4340   39.8620 C   0  0  0  0  0  0  0  0  0  0  0  0
   39.3620   32.2710   40.5740 C   0  0  0  0  0  0  0  0  0  0  0  0
   40.2570   31.9460   41.1110 H   0  0  0  0  0  0  0  0  0  0  0  0
   39.1280   33.6280   40.6460 C   0  0  0  0  0  3  0  0  0  0  0  0
   38.0270   34.1590   40.0080 C   0  0  0  0  0  0  0  0  0  0  0  0
   37.8170   35.2270   40.0470 H   0  0  0  0  0  0  0  0  0  0  0  0
   37.1640   33.3270   39.2990 C   0  0  0  0  0  0  0  0  0  0  0  0
   36.2930   33.7080   38.7870 H   0  0  0  0  0  0  0  0  0  0  0  0
   37.3930   31.9680   39.2230 C   0  0  0  0  0  3  0  0  0  0  0  0
  1  6  1  0  0  0  0
  1 12  1  0  0  0  0
  2  1  2  0  0  0  0
  3  4  2  0  0  0  0
  3  2  1  0  0  0  0
  4  5  1  0  0  0  0
  5  7  1  0  0  0  0
  5  6  2  0  0  0  0
  7  8  1  0  0  0  0
  8  9  1  0  0  0  0
  8 15  1  0  0  0  0
  9 16  1  0  0  0  0
  9 17  1  0  0  0  0
 10 19  1  0  0  0  0
 10  9  1  0  0  0  0
 11 20  1  6  0  0  0
 11  7  1  0  0  0  0
 11 10  1  0  0  0  0
 13  3  1  0  0  0  0
 14  8  1  0  0  0  0
 18 10  1  0  0  0  0
 21  2  1  0  0  0  0
 21 22  1  0  0  0  0
 23 21  1  0  0  0  0
 24 11  1  0  0  0  0
 25 24  1  0  0  0  0
 25 26  1  0  0  0  0
 26 28  2  0  0  0  0
 26 27  1  0  0  0  0
 29 30  1  0  0  0  0
 29 28  1  0  0  0  0
 31 29  2  0  0  0  0
 32 31  1  0  0  0  0
 33 31  1  0  0  0  0
 33 25  2  0  0  0  0
M  END
>  <minimizedAffinity>
-5.12551451

$$$$

 OpenBabel03252506353D

 33 35  0  0  1  0  0  0  0  0999 V2000
   37.2580   29.9150   36.8900 C   0  0  0  0  0  0  0  0  0  0  0  0
   38.0110   28.7490   36.7100 C   0  0  0  0  0  0  0  0  0  0  0  0
   38.9880   28.4640   37.6100 C   0  0  0  0  0  0  0  0  0  0  0  0
   39.1850   29.3180   38.6370 N   0  0  0  0  0  0  0  0  0  0  0  0
   38.4590   30.4310   38.7990 C   0  0  0  0  0  0  0  0  0  0  0  0
   37.4900   30.7490   37.9400 N   0  0  0  0  0  0  0  0  0  0  0  0
   38.7390   31.2800   39.9070 N   0  0  0  0  0  0  0  0  0  0  0  0
   37.8760   32.3380   40.3970 C   0  0  0  0  0  0  0  0  0  0  0  0
   38.8930   33.4070   40.7740 C   0  0  0  0  0  0  0  0  0  0  0  0
   40.2530   32.7510   40.7570 C   0  0  0  0  0  0  0  0  0  0  0  0
   39.9120   31.2730   40.7560 C   0  0  1  0  0  0  0  0  0  0  0  0
   36.4650   30.1890   36.1980 H   0  0  0  0  0  0  0  0  0  0  0  0
   39.5440   27.5790   37.4540 H   0  0  0  0  0  0  0  0  0  0  0  0
   37.2880   32.0380   41.2860 H   0  0  0  0  0  0  0  0  0  0  0  0
   37.1600   32.6900   39.6150 H   0  0  0  0  0  0  0  0  0  0  0  0
   38.6690   33.9260   41.7060 H   0  0  0  0  0  0  0  0  0  0  0  0
   38.8690   34.1480   39.9430 H   0  0  0  0  0  0  0  0  0  0  0  0
   40.7560   32.9790   41.7200 H   0  0  0  0  0  0  0  0  0  0  0  0
   40.8620   33.0660   39.9030 H   0  0  0  0  0  0  0  0  0  0  0  0
   40.6870   30.6520   40.3010 H   0  0  0  0  0  0  0  0  0  0  0  0
   37.6520   27.9810   35.5590 N   0  0  0  0  0  0  0  0  0  0  0  0
   37.3050   28.4420   34.6890 H   0  0  0  0  0  0  0  0  0  0  0  0
   37.7380   26.9240   35.5840 H   0  0  0  0  0  0  0  0  0  0  0  0
   39.5180   30.7930   42.4510 S   0  0  0  0  0  0  0  0  0  0  0  0
   38.5340   29.3030   42.5120 C   0  0  0  0  0  0  0  0  0  0  0  0
   39.2580   28.2020   42.9860 C   0  0  0  0  0  0  0  0  0  0  0  0
   40.3070   28.2190   43.2920 H   0  0  0  0  0  0  0  0  0  0  0  0
   38.6600   26.9650   43.1000 C   0  0  0  0  0  3  0  0  0  0  0  0
   37.3370   26.8170   42.7420 C   0  0  0  0  0  0  0  0  0  0  0  0
   36.8390   25.8510   42.8220 H   0  0  0  0  0  0  0  0  0  0  0  0
   36.6160   27.9110   42.2710 C   0  0  0  0  0  0  0  0  0  0  0  0
   35.5790   27.8320   41.9820 H   0  0  0  0  0  0  0  0  0  0  0  0
   37.2080   29.1520   42.1540 C   0  0  0  0  0  3  0  0  0  0  0  0
  1  6  1  0  0  0  0
  2  1  2  0  0  0  0
  2  3  1  0  0  0  0
  3  4  2  0  0  0  0
  4  5  1  0  0  0  0
  5  7  1  0  0  0  0
  6  5  2  0  0  0  0
  7  8  1  0  0  0  0
  7 11  1  0  0  0  0
  8  9  1  0  0  0  0
  8 14  1  0  0  0  0
  9 16  1  0  0  0  0
 10  9  1  0  0  0  0
 10 18  1  0  0  0  0
 11 20  1  6  0  0  0
 11 10  1  0  0  0  0
 11 24  1  0  0  0  0
 12  1  1  0  0  0  0
 13  3  1  0  0  0  0
 15  8  1  0  0  0  0
 17  9  1  0  0  0  0
 19 10  1  0  0  0  0
 21 23  1  0  0  0  0
 21  2  1  0  0  0  0
 22 21  1  0  0  0  0
 24 25  1  0  0  0  0
 25 26  1  0  0  0  0
 26 28  2  0  0  0  0
 26 27  1  0  0  0  0
 29 30  1  0  0  0  0
 29 28  1  0  0  0  0
 31 29  2  0  0  0  0
 32 31  1  0  0  0  0
 33 31  1  0  0  0  0
 33 25  2  0  0  0  0
M  END
>  <minimizedAffinity>
-5.03715086

$$$$

 OpenBabel03252506353D

 33 35  0  0  1  0  0  0  0  0999 V2000
   37.7310   31.3070   38.9200 C   0  0  0  0  0  0  0  0  0  0  0  0
   36.9550   31.7020   40.0170 C   0  0  0  0  0  0  0  0  0  0  0  0
   36.2500   30.7540   40.6860 C   0  0  0  0  0  0  0  0  0  0  0  0
   36.3300   29.4740   40.2630 N   0  0  0  0  0  0  0  0  0  0  0  0
   37.0750   29.1080   39.2120 C   0  0  0  0  0  0  0  0  0  0  0  0
   37.7830   30.0050   38.5280 N   0  0  0  0  0  0  0  0  0  0  0  0
   37.0970   27.7360   38.8290 N   0  0  0  0  0  0  0  0  0  0  0  0
   38.0590   27.1270   37.9320 C   0  0  0  0  0  0  0  0  0  0  0  0
   37.1780   26.1550   37.1590 C   0  0  0  0  0  0  0  0  0  0  0  0
   35.8610   26.0710   37.8930 C   0  0  0  0  0  0  0  0  0  0  0  0
   36.1870   26.6850   39.2400 C   0  0  1  0  0  0  0  0  0  0  0  0
   38.3150   32.0270   38.3510 H   0  0  0  0  0  0  0  0  0  0  0  0
   35.6710   31.0750   41.5100 H   0  0  0  0  0  0  0  0  0  0  0  0
   38.8600   26.5780   38.4650 H   0  0  0  0  0  0  0  0  0  0  0  0
   38.5450   27.8810   37.2650 H   0  0  0  0  0  0  0  0  0  0  0  0
   37.6400   25.1840   36.9770 H   0  0  0  0  0  0  0  0  0  0  0  0
   36.9830   26.6430   36.1770 H   0  0  0  0  0  0  0  0  0  0  0  0
   35.6280   24.9990   38.0600 H   0  0  0  0  0  0  0  0  0  0  0  0
   35.0490   26.5770   37.3600 H   0  0  0  0  0  0  0  0  0  0  0  0
   35.3200   27.1280   39.7340 H   0  0  0  0  0  0  0  0  0  0  0  0
   36.9990   33.1020   40.3020 N   0  0  0  0  0  0  0  0  0  0  0  0
   37.1060   33.8060   39.5370 H   0  0  0  0  0  0  0  0  0  0  0  0
   36.9220   33.4380   41.3040 H   0  0  0  0  0  0  0  0  0  0  0  0
   37.0130   25.4280   40.2390 S   0  0  0  0  0  0  0  0  0  0  0  0
   37.8600   26.1400   41.6410 C   0  0  0  0  0  0  0  0  0  0  0  0
   39.2120   25.7770   41.6900 C   0  0  0  0  0  0  0  0  0  0  0  0
   39.7220   25.1350   40.9680 H   0  0  0  0  0  0  0  0  0  0  0  0
   40.0250   26.2340   42.7060 C   0  0  0  0  0  3  0  0  0  0  0  0
   39.4960   27.0540   43.6800 C   0  0  0  0  0  0  0  0  0  0  0  0
   40.1140   27.4300   44.4940 H   0  0  0  0  0  0  0  0  0  0  0  0
   38.1520   27.4140   43.6320 C   0  0  0  0  0  0  0  0  0  0  0  0
   37.7040   28.0540   44.3770 H   0  0  0  0  0  0  0  0  0  0  0  0
   37.3320   26.9610   42.6180 C   0  0  0  0  0  3  0  0  0  0  0  0
  1  2  1  0  0  0  0
  2 21  1  0  0  0  0
  2  3  2  0  0  0  0
  3 13  1  0  0  0  0
  4  3  1  0  0  0  0
  5  4  2  0  0  0  0
  6  1  2  0  0  0  0
  6  5  1  0  0  0  0
  7  5  1  0  0  0  0
  7 11  1  0  0  0  0
  8 14  1  0  0  0  0
  8  7  1  0  0  0  0
  9 10  1  0  0  0  0
  9  8  1  0  0  0  0
 10 18  1  0  0  0  0
 10 11  1  0  0  0  0
 11 20  1  1  0  0  0
 11 24  1  0  0  0  0
 12  1  1  0  0  0  0
 15  8  1  0  0  0  0
 16  9  1  0  0  0  0
 17  9  1  0  0  0  0
 19 10  1  0  0  0  0
 21 23  1  0  0  0  0
 22 21  1  0  0  0  0
 24 25  1  0  0  0  0
 25 26  2  0  0  0  0
 25 33  1  0  0  0  0
 26 28  1  0  0  0  0
 27 26  1  0  0  0  0
 28 29  2  0  0  0  0
 29 30  1  0  0  0  0
 31 29  1  0  0  0  0
 31 32  1  0  0  0  0
 33 31  2  0  0  0  0
M  END
>  <minimizedAffinity>
-5.00704145

$$$$

 OpenBabel03252506353D

 33 35  0  0  1  0  0  0  0  0999 V2000
   37.8470   32.0710   38.5810 C   0  0  0  0  0  0  0  0  0  0  0  0
   38.0420   31.4120   37.3610 C   0  0  0  0  0  0  0  0  0  0  0  0
   38.1780   30.0600   37.3700 C   0  0  0  0  0  0  0  0  0  0  0  0
   38.1190   29.4150   38.5560 N   0  0  0  0  0  0  0  0  0  0  0  0
   37.9330   30.0560   39.7160 C   0  0  0  0  0  0  0  0  0  0  0  0
   37.7940   31.3810   39.7530 N   0  0  0  0  0  0  0  0  0  0  0  0
   37.8900   29.2990   40.9210 N   0  0  0  0  0  0  0  0  0  0  0  0
   37.4050   29.7780   42.2010 C   0  0  0  0  0  0  0  0  0  0  0  0
   38.3900   29.1240   43.1610 C   0  0  0  0  0  0  0  0  0  0  0  0
   39.1540   28.0860   42.3730 C   0  0  0  0  0  0  0  0  0  0  0  0
   38.3120   27.9270   41.1220 C   0  0  1  0  0  0  0  0  0  0  0  0
   37.7330   33.1510   38.6280 H   0  0  0  0  0  0  0  0  0  0  0  0
   38.3250   29.5840   36.4380 H   0  0  0  0  0  0  0  0  0  0  0  0
   36.3740   29.4450   42.4250 H   0  0  0  0  0  0  0  0  0  0  0  0
   37.4270   30.8940   42.2660 H   0  0  0  0  0  0  0  0  0  0  0  0
   37.9330   28.7340   44.0700 H   0  0  0  0  0  0  0  0  0  0  0  0
   39.1100   29.9260   43.4430 H   0  0  0  0  0  0  0  0  0  0  0  0
   39.1080   27.1280   42.9330 H   0  0  0  0  0  0  0  0  0  0  0  0
   40.1890   28.3840   42.1760 H   0  0  0  0  0  0  0  0  0  0  0  0
   38.8860   27.5920   40.2560 H   0  0  0  0  0  0  0  0  0  0  0  0
   38.0810   32.2720   36.2200 N   0  0  0  0  0  0  0  0  0  0  0  0
   38.4690   33.2390   36.2860 H   0  0  0  0  0  0  0  0  0  0  0  0
   37.7110   31.9270   35.2880 H   0  0  0  0  0  0  0  0  0  0  0  0
   36.9230   26.8450   41.5210 S   0  0  0  0  0  0  0  0  0  0  0  0
   37.1440   25.2020   40.8540 C   0  0  0  0  0  0  0  0  0  0  0  0
   36.5020   25.0350   39.6200 C   0  0  0  0  0  0  0  0  0  0  0  0
   35.9250   25.8010   39.0990 H   0  0  0  0  0  0  0  0  0  0  0  0
   36.5640   23.8290   38.9550 C   0  0  0  0  0  3  0  0  0  0  0  0
   37.2650   22.7820   39.5140 C   0  0  0  0  0  0  0  0  0  0  0  0
   37.3310   21.8180   39.0110 H   0  0  0  0  0  0  0  0  0  0  0  0
   37.9040   22.9480   40.7400 C   0  0  0  0  0  0  0  0  0  0  0  0
   38.4620   22.1500   41.2080 H   0  0  0  0  0  0  0  0  0  0  0  0
   37.8460   24.1520   41.4120 C   0  0  0  0  0  3  0  0  0  0  0  0
  1 12  1  0  0  0  0
  1  6  1  0  0  0  0
  2  3  1  0  0  0  0
  2  1  2  0  0  0  0
  3  4  2  0  0  0  0
  4  5  1  0  0  0  0
  5  6  2  0  0  0  0
  5  7  1  0  0  0  0
  7 11  1  0  0  0  0
  7  8  1  0  0  0  0
  8 15  1  0  0  0  0
  8 14  1  0  0  0  0
  8  9  1  0  0  0  0
  9 17  1  0  0  0  0
  9 16  1  0  0  0  0
 10 18  1  0  0  0  0
 10  9  1  0  0  0  0
 11 20  1  6  0  0  0
 11 24  1  0  0  0  0
 11 10  1  0  0  0  0
 13  3  1  0  0  0  0
 19 10  1  0  0  0  0
 21 22  1  0  0  0  0
 21  2  1  0  0  0  0
 23 21  1  0  0  0  0
 25 33  1  0  0  0  0
 25 24  1  0  0  0  0
 26 25  2  0  0  0  0
 27 26  1  0  0  0  0
 28 29  2  0  0  0  0
 28 26  1  0  0  0  0
 29 31  1  0  0  0  0
 30 29  1  0  0  0  0
 31 32  1  0  0  0  0
 31 33  2  0  0  0  0
M  END
>  <minimizedAffinity>
-4.97954512

$$$$
