
 OpenBabel03242519483D

 38 40  0  0  1  0  0  0  0  0999 V2000
   39.2090   30.9170   39.4220 C   0  0  2  0  0  0  0  0  0  0  0  0
   39.2700   32.3940   39.4270 C   0  0  1  0  0  0  0  0  0  0  0  0
   38.6190   32.7610   40.6930 O   0  0  0  0  0  0  0  0  0  0  0  0
   37.4200   32.0580   40.4590 C   0  0  0  0  0  0  0  0  0  0  0  0
   37.9960   30.6220   40.2900 C   0  0  2  0  0  0  0  0  0  0  0  0
   39.1190   30.4580   38.4260 H   0  0  0  0  0  0  0  0  0  0  0  0
   38.6660   32.8790   38.6380 H   0  0  0  0  0  0  0  0  0  0  0  0
   37.0450   32.3860   39.4640 H   0  0  0  0  0  0  0  0  0  0  0  0
   36.7080   32.1500   41.2520 H   0  0  0  0  0  0  0  0  0  0  0  0
   37.2020   30.0260   39.7760 H   0  0  0  0  0  0  0  0  0  0  0  0
   42.2360   33.9510   37.9810 C   0  0  0  0  0  0  0  0  0  0  0  0
   43.0920   34.1190   39.0720 C   0  0  0  0  0  0  0  0  0  0  0  0
   42.6460   33.6830   40.3410 C   0  0  0  0  0  0  0  0  0  0  0  0
   41.4080   33.1180   40.4520 N   0  0  0  0  0  0  0  0  0  0  0  0
   40.6100   32.9730   39.3730 C   0  0  0  0  0  0  0  0  0  0  0  0
   41.0080   33.3820   38.1380 N   0  0  0  0  0  0  0  0  0  0  0  0
   44.0700   34.5740   38.9340 H   0  0  0  0  0  0  0  0  0  0  0  0
   43.2940   33.8030   41.2050 H   0  0  0  0  0  0  0  0  0  0  0  0
   42.6160   34.3630   36.6950 O   0  0  0  0  0  0  0  0  0  0  0  0
   42.7610   33.6030   36.0230 H   0  0  0  0  0  0  0  0  0  0  0  0
   40.3680   30.3870   40.0850 O   0  0  0  0  0  0  0  0  0  0  0  0
   40.2190   30.5820   41.0550 H   0  0  0  0  0  0  0  0  0  0  0  0
   38.3420   30.2160   41.5320 O   0  0  0  0  0  0  0  0  0  0  0  0
   37.4300   29.5400   42.2950 C   0  0  0  0  0  0  0  0  0  0  0  0
   36.4780   30.0700   42.3520 H   0  0  0  0  0  0  0  0  0  0  0  0
   37.1100   28.6750   41.5360 H   0  0  0  0  0  0  0  0  0  0  0  0
   37.9260   28.8660   43.4920 C   0  0  0  0  0  0  0  0  0  0  0  0
   37.4000   28.9840   44.4200 H   0  0  0  0  0  0  0  0  0  0  0  0
   38.9670   29.2610   43.6960 H   0  0  0  0  0  0  0  0  0  0  0  0
   38.1700   27.4220   43.1370 C   0  0  0  0  0  0  0  0  0  0  0  0
   37.1720   26.7800   42.4150 C   0  0  0  0  0  0  0  0  0  0  0  0
   36.2890   27.3020   42.1380 H   0  0  0  0  0  0  0  0  0  0  0  0
   37.3350   25.4570   42.0590 C   0  0  0  0  0  3  0  0  0  0  0  0
   38.4810   24.7320   42.4020 C   0  0  0  0  0  0  0  0  0  0  0  0
   38.6220   23.6940   42.1300 H   0  0  0  0  0  0  0  0  0  0  0  0
   39.4320   25.4310   43.1200 C   0  0  0  0  0  0  0  0  0  0  0  0
   40.3160   24.8570   43.3790 H   0  0  0  0  0  0  0  0  0  0  0  0
   39.3210   26.7520   43.5020 C   0  0  0  0  0  3  0  0  0  0  0  0
  1  6  1  6  0  0  0
  1  2  1  0  0  0  0
  1 21  1  0  0  0  0
  1  5  1  0  0  0  0
  2  7  1  6  0  0  0
  2  3  1  0  0  0  0
  4  3  1  0  0  0  0
  4  9  1  0  0  0  0
  5 10  1  6  0  0  0
  5  4  1  0  0  0  0
  5 23  1  0  0  0  0
  8  4  1  0  0  0  0
 11 16  2  0  0  0  0
 11 12  1  0  0  0  0
 12 13  2  0  0  0  0
 13 14  1  0  0  0  0
 13 18  1  0  0  0  0
 15  2  1  0  0  0  0
 15 14  2  0  0  0  0
 16 15  1  0  0  0  0
 17 12  1  0  0  0  0
 19 11  1  0  0  0  0
 20 19  1  0  0  0  0
 21 22  1  0  0  0  0
 23 24  1  0  0  0  0
 24 25  1  0  0  0  0
 24 27  1  0  0  0  0
 26 24  1  0  0  0  0
 27 29  1  0  0  0  0
 27 28  1  0  0  0  0
 30 27  1  0  0  0  0
 30 38  1  0  0  0  0
 31 30  2  0  0  0  0
 32 31  1  0  0  0  0
 33 34  2  0  0  0  0
 33 31  1  0  0  0  0
 34 36  1  0  0  0  0
 35 34  1  0  0  0  0
 36 37  1  0  0  0  0
 36 38  2  0  0  0  0
M  END
>  <minimizedAffinity>
-5.96256495

$$$$

 OpenBabel03242519483D

 38 40  0  0  1  0  0  0  0  0999 V2000
   38.6050   29.8400   39.3340 C   0  0  2  0  0  0  0  0  0  0  0  0
   38.2180   31.1400   38.7440 C   0  0  1  0  0  0  0  0  0  0  0  0
   36.8580   31.3580   39.2570 O   0  0  0  0  0  0  0  0  0  0  0  0
   36.3230   30.1360   38.8020 C   0  0  0  0  0  0  0  0  0  0  0  0
   37.2670   29.1510   39.5510 C   0  0  2  0  0  0  0  0  0  0  0  0
   39.2820   29.2310   38.7140 H   0  0  0  0  0  0  0  0  0  0  0  0
   38.1150   31.1290   37.6430 H   0  0  0  0  0  0  0  0  0  0  0  0
   36.5610   30.0660   37.7170 H   0  0  0  0  0  0  0  0  0  0  0  0
   35.2870   30.0080   39.0370 H   0  0  0  0  0  0  0  0  0  0  0  0
   37.1710   28.1680   39.0280 H   0  0  0  0  0  0  0  0  0  0  0  0
   39.3240   34.1250   40.5260 C   0  0  0  0  0  0  0  0  0  0  0  0
   40.5430   34.4420   39.9240 C   0  0  0  0  0  0  0  0  0  0  0  0
   41.0020   33.6140   38.8740 C   0  0  0  0  0  0  0  0  0  0  0  0
   40.2430   32.5470   38.4880 N   0  0  0  0  0  0  0  0  0  0  0  0
   39.0680   32.2740   39.0950 C   0  0  0  0  0  0  0  0  0  0  0  0
   38.5980   33.0500   40.1100 N   0  0  0  0  0  0  0  0  0  0  0  0
   41.1130   35.3030   40.2650 H   0  0  0  0  0  0  0  0  0  0  0  0
   41.9480   33.8410   38.3900 H   0  0  0  0  0  0  0  0  0  0  0  0
   38.8120   34.9030   41.5750 O   0  0  0  0  0  0  0  0  0  0  0  0
   37.9600   35.4270   41.3490 H   0  0  0  0  0  0  0  0  0  0  0  0
   39.2070   30.0570   40.6200 O   0  0  0  0  0  0  0  0  0  0  0  0
   38.4460   30.3200   41.2160 H   0  0  0  0  0  0  0  0  0  0  0  0
   36.8800   29.1830   40.8460 O   0  0  0  0  0  0  0  0  0  0  0  0
   36.4150   28.0390   41.4350 C   0  0  0  0  0  0  0  0  0  0  0  0
   35.4060   27.7920   41.0970 H   0  0  0  0  0  0  0  0  0  0  0  0
   37.0190   27.2150   40.8170 H   0  0  0  0  0  0  0  0  0  0  0  0
   36.7530   27.8240   42.8390 C   0  0  0  0  0  0  0  0  0  0  0  0
   35.9650   27.7100   43.5600 H   0  0  0  0  0  0  0  0  0  0  0  0
   37.3380   28.7270   43.1890 H   0  0  0  0  0  0  0  0  0  0  0  0
   37.7670   26.7110   42.9010 C   0  0  0  0  0  0  0  0  0  0  0  0
   38.9100   26.9520   43.6530 C   0  0  0  0  0  0  0  0  0  0  0  0
   39.0410   27.8820   44.1510 H   0  0  0  0  0  0  0  0  0  0  0  0
   39.8780   25.9730   43.7500 C   0  0  0  0  0  3  0  0  0  0  0  0
   39.7480   24.7350   43.1120 C   0  0  0  0  0  0  0  0  0  0  0  0
   40.4980   23.9580   43.1780 H   0  0  0  0  0  0  0  0  0  0  0  0
   38.5870   24.5640   42.3800 C   0  0  0  0  0  0  0  0  0  0  0  0
   38.4990   23.5990   41.8920 H   0  0  0  0  0  0  0  0  0  0  0  0
   37.5890   25.5070   42.2500 C   0  0  0  0  0  3  0  0  0  0  0  0
  1  6  1  6  0  0  0
  1  5  1  0  0  0  0
  1 21  1  0  0  0  0
  2  7  1  6  0  0  0
  2 15  1  0  0  0  0
  2  3  1  0  0  0  0
  2  1  1  0  0  0  0
  4  9  1  0  0  0  0
  4  3  1  0  0  0  0
  4  5  1  0  0  0  0
  5 10  1  6  0  0  0
  5 23  1  0  0  0  0
  8  4  1  0  0  0  0
 11 19  1  0  0  0  0
 12 17  1  0  0  0  0
 12 11  2  0  0  0  0
 13 12  1  0  0  0  0
 14 13  2  0  0  0  0
 14 15  1  0  0  0  0
 15 16  2  0  0  0  0
 16 11  1  0  0  0  0
 18 13  1  0  0  0  0
 20 19  1  0  0  0  0
 21 22  1  0  0  0  0
 23 24  1  0  0  0  0
 24 27  1  0  0  0  0
 25 24  1  0  0  0  0
 26 24  1  0  0  0  0
 27 30  1  0  0  0  0
 27 29  1  0  0  0  0
 27 28  1  0  0  0  0
 30 31  1  0  0  0  0
 31 33  2  0  0  0  0
 31 32  1  0  0  0  0
 34 35  1  0  0  0  0
 34 33  1  0  0  0  0
 36 34  2  0  0  0  0
 37 36  1  0  0  0  0
 38 36  1  0  0  0  0
 38 30  2  0  0  0  0
M  END
>  <minimizedAffinity>
-5.83254337

$$$$

 OpenBabel03242519483D

 38 40  0  0  1  0  0  0  0  0999 V2000
   40.7630   30.6300   42.2810 C   0  0  2  0  0  0  0  0  0  0  0  0
   40.4450   30.9400   40.8700 C   0  0  1  0  0  0  0  0  0  0  0  0
   39.3560   30.0060   40.5510 O   0  0  0  0  0  0  0  0  0  0  0  0
   40.0410   28.8340   40.9290 C   0  0  0  0  0  0  0  0  0  0  0  0
   40.3330   29.1780   42.4180 C   0  0  2  0  0  0  0  0  0  0  0  0
   41.8180   30.7720   42.5620 H   0  0  0  0  0  0  0  0  0  0  0  0
   41.2540   30.6970   40.1570 H   0  0  0  0  0  0  0  0  0  0  0  0
   41.0130   28.8430   40.3880 H   0  0  0  0  0  0  0  0  0  0  0  0
   39.4680   27.9400   40.7940 H   0  0  0  0  0  0  0  0  0  0  0  0
   41.1510   28.4900   42.7430 H   0  0  0  0  0  0  0  0  0  0  0  0
   38.1900   33.6930   40.0680 C   0  0  0  0  0  0  0  0  0  0  0  0
   39.0130   34.8200   40.0990 C   0  0  0  0  0  0  0  0  0  0  0  0
   40.3820   34.6360   40.3980 C   0  0  0  0  0  0  0  0  0  0  0  0
   40.8460   33.3760   40.6420 N   0  0  0  0  0  0  0  0  0  0  0  0
   40.0180   32.3100   40.6030 C   0  0  0  0  0  0  0  0  0  0  0  0
   38.6940   32.4520   40.3180 N   0  0  0  0  0  0  0  0  0  0  0  0
   38.5980   35.8050   39.8970 H   0  0  0  0  0  0  0  0  0  0  0  0
   41.0430   35.4990   40.4290 H   0  0  0  0  0  0  0  0  0  0  0  0
   36.8210   33.8050   39.7790 O   0  0  0  0  0  0  0  0  0  0  0  0
   36.5310   33.3880   38.8890 H   0  0  0  0  0  0  0  0  0  0  0  0
   39.9320   31.4230   43.1440 O   0  0  0  0  0  0  0  0  0  0  0  0
   39.0190   31.0200   43.0600 H   0  0  0  0  0  0  0  0  0  0  0  0
   39.1510   29.0540   43.0630 O   0  0  0  0  0  0  0  0  0  0  0  0
   38.6600   27.8050   43.3260 C   0  0  0  0  0  0  0  0  0  0  0  0
   39.2840   27.0240   42.8870 H   0  0  0  0  0  0  0  0  0  0  0  0
   38.9880   27.6780   44.4670 H   0  0  0  0  0  0  0  0  0  0  0  0
   37.2090   27.6370   43.3010 C   0  0  0  0  0  0  0  0  0  0  0  0
   36.5950   28.2640   43.9190 H   0  0  0  0  0  0  0  0  0  0  0  0
   36.9850   26.5820   43.6460 H   0  0  0  0  0  0  0  0  0  0  0  0
   36.7730   27.6280   41.8590 C   0  0  0  0  0  0  0  0  0  0  0  0
   37.1010   26.5010   41.1160 C   0  0  0  0  0  0  0  0  0  0  0  0
   37.6340   25.6970   41.5640 H   0  0  0  0  0  0  0  0  0  0  0  0
   36.7310   26.4300   39.7880 C   0  0  0  0  0  3  0  0  0  0  0  0
   36.0290   27.4630   39.1590 C   0  0  0  0  0  0  0  0  0  0  0  0
   35.7320   27.4230   38.1190 H   0  0  0  0  0  0  0  0  0  0  0  0
   35.7360   28.5540   39.9560 C   0  0  0  0  0  0  0  0  0  0  0  0
   35.1910   29.3470   39.4550 H   0  0  0  0  0  0  0  0  0  0  0  0
   36.0820   28.6760   41.2860 C   0  0  0  0  0  3  0  0  0  0  0  0
  1  5  1  0  0  0  0
  1  6  1  1  0  0  0
  1 21  1  0  0  0  0
  2  7  1  6  0  0  0
  2  1  1  0  0  0  0
  3  2  1  0  0  0  0
  3  4  1  0  0  0  0
  4  5  1  0  0  0  0
  5 10  1  1  0  0  0
  5 23  1  0  0  0  0
  8  4  1  0  0  0  0
  9  4  1  0  0  0  0
 11 12  2  0  0  0  0
 11 16  1  0  0  0  0
 12 13  1  0  0  0  0
 13 18  1  0  0  0  0
 13 14  2  0  0  0  0
 15 14  1  0  0  0  0
 15  2  1  0  0  0  0
 16 15  2  0  0  0  0
 17 12  1  0  0  0  0
 19 11  1  0  0  0  0
 20 19  1  0  0  0  0
 22 21  1  0  0  0  0
 23 24  1  0  0  0  0
 24 26  1  0  0  0  0
 25 24  1  0  0  0  0
 27 24  1  0  0  0  0
 27 29  1  0  0  0  0
 27 28  1  0  0  0  0
 30 27  1  0  0  0  0
 31 32  1  0  0  0  0
 31 30  2  0  0  0  0
 33 31  1  0  0  0  0
 34 33  2  0  0  0  0
 34 36  1  0  0  0  0
 35 34  1  0  0  0  0
 36 38  2  0  0  0  0
 37 36  1  0  0  0  0
 38 30  1  0  0  0  0
M  END
>  <minimizedAffinity>
-5.76266003

$$$$

 OpenBabel03242519483D

 38 40  0  0  1  0  0  0  0  0999 V2000
   38.3360   31.6060   37.9930 C   0  0  2  0  0  0  0  0  0  0  0  0
   39.2700   32.3330   38.8790 C   0  0  1  0  0  0  0  0  0  0  0  0
   39.0670   31.6960   40.1880 O   0  0  0  0  0  0  0  0  0  0  0  0
   37.6720   31.8900   40.2410 C   0  0  0  0  0  0  0  0  0  0  0  0
   37.2590   31.1240   38.9510 C   0  0  2  0  0  0  0  0  0  0  0  0
   37.9130   32.2040   37.1710 H   0  0  0  0  0  0  0  0  0  0  0  0
   39.0170   33.3980   39.0330 H   0  0  0  0  0  0  0  0  0  0  0  0
   37.4930   32.9730   40.0570 H   0  0  0  0  0  0  0  0  0  0  0  0
   37.2200   31.5130   41.1350 H   0  0  0  0  0  0  0  0  0  0  0  0
   36.2300   31.4770   38.6950 H   0  0  0  0  0  0  0  0  0  0  0  0
   42.4260   33.3350   37.3490 C   0  0  0  0  0  0  0  0  0  0  0  0
   43.3170   32.3290   37.7290 C   0  0  0  0  0  0  0  0  0  0  0  0
   42.8250   31.2730   38.5290 C   0  0  0  0  0  0  0  0  0  0  0  0
   41.5110   31.2730   38.8960 N   0  0  0  0  0  0  0  0  0  0  0  0
   40.6800   32.2640   38.5070 C   0  0  0  0  0  0  0  0  0  0  0  0
   41.1210   33.2960   37.7370 N   0  0  0  0  0  0  0  0  0  0  0  0
   44.3560   32.3720   37.4110 H   0  0  0  0  0  0  0  0  0  0  0  0
   43.5000   30.4790   38.8380 H   0  0  0  0  0  0  0  0  0  0  0  0
   42.8490   34.4130   36.5560 O   0  0  0  0  0  0  0  0  0  0  0  0
   42.4520   34.4370   35.6110 H   0  0  0  0  0  0  0  0  0  0  0  0
   38.9940   30.4510   37.4470 O   0  0  0  0  0  0  0  0  0  0  0  0
   39.0660   29.8120   38.2150 H   0  0  0  0  0  0  0  0  0  0  0  0
   37.3870   29.8110   39.2470 O   0  0  0  0  0  0  0  0  0  0  0  0
   36.2670   29.0320   39.3390 C   0  0  0  0  0  0  0  0  0  0  0  0
   35.6400   29.1190   38.4500 H   0  0  0  0  0  0  0  0  0  0  0  0
   36.7340   27.9540   39.1250 H   0  0  0  0  0  0  0  0  0  0  0  0
   35.6200   28.9410   40.6450 C   0  0  0  0  0  0  0  0  0  0  0  0
   34.6500   28.4860   40.7230 H   0  0  0  0  0  0  0  0  0  0  0  0
   35.4750   29.9970   41.0250 H   0  0  0  0  0  0  0  0  0  0  0  0
   36.6180   28.3610   41.6130 C   0  0  0  0  0  0  0  0  0  0  0  0
   36.9100   27.0100   41.4720 C   0  0  0  0  0  0  0  0  0  0  0  0
   36.4390   26.4340   40.7120 H   0  0  0  0  0  0  0  0  0  0  0  0
   37.8160   26.4170   42.3280 C   0  0  0  0  0  3  0  0  0  0  0  0
   38.4590   27.1360   43.3410 C   0  0  0  0  0  0  0  0  0  0  0  0
   39.1720   26.6860   44.0190 H   0  0  0  0  0  0  0  0  0  0  0  0
   38.1210   28.4740   43.4240 C   0  0  0  0  0  0  0  0  0  0  0  0
   38.6280   29.0200   44.2140 H   0  0  0  0  0  0  0  0  0  0  0  0
   37.2230   29.1160   42.5970 C   0  0  0  0  0  3  0  0  0  0  0  0
  1  6  1  6  0  0  0
  1  2  1  0  0  0  0
  1  5  1  0  0  0  0
  2  7  1  1  0  0  0
  2  3  1  0  0  0  0
  3  4  1  0  0  0  0
  4  9  1  0  0  0  0
  5 10  1  6  0  0  0
  5 23  1  0  0  0  0
  5  4  1  0  0  0  0
  8  4  1  0  0  0  0
 11 12  2  0  0  0  0
 11 16  1  0  0  0  0
 12 13  1  0  0  0  0
 13 18  1  0  0  0  0
 13 14  2  0  0  0  0
 15  2  1  0  0  0  0
 15 14  1  0  0  0  0
 16 15  2  0  0  0  0
 17 12  1  0  0  0  0
 19 11  1  0  0  0  0
 20 19  1  0  0  0  0
 21  1  1  0  0  0  0
 21 22  1  0  0  0  0
 23 24  1  0  0  0  0
 24 27  1  0  0  0  0
 25 24  1  0  0  0  0
 26 24  1  0  0  0  0
 27 28  1  0  0  0  0
 27 29  1  0  0  0  0
 27 30  1  0  0  0  0
 30 38  1  0  0  0  0
 31 30  2  0  0  0  0
 31 33  1  0  0  0  0
 32 31  1  0  0  0  0
 33 34  2  0  0  0  0
 34 36  1  0  0  0  0
 34 35  1  0  0  0  0
 36 37  1  0  0  0  0
 38 36  2  0  0  0  0
M  END
>  <minimizedAffinity>
-5.65281868

$$$$

 OpenBabel03242519483D

 38 40  0  0  1  0  0  0  0  0999 V2000
   38.8370   30.0760   38.7990 C   0  0  2  0  0  0  0  0  0  0  0  0
   38.7920   31.3820   38.1050 C   0  0  1  0  0  0  0  0  0  0  0  0
   37.3560   31.6900   38.0470 O   0  0  0  0  0  0  0  0  0  0  0  0
   36.9650   30.4900   37.4200 C   0  0  0  0  0  0  0  0  0  0  0  0
   37.4800   29.4710   38.4770 C   0  0  2  0  0  0  0  0  0  0  0  0
   39.6620   29.4150   38.4930 H   0  0  0  0  0  0  0  0  0  0  0  0
   39.1250   31.3500   37.0510 H   0  0  0  0  0  0  0  0  0  0  0  0
   37.6010   30.3810   36.5140 H   0  0  0  0  0  0  0  0  0  0  0  0
   35.9130   30.4280   37.2320 H   0  0  0  0  0  0  0  0  0  0  0  0
   37.5340   28.4830   37.9580 H   0  0  0  0  0  0  0  0  0  0  0  0
   39.4220   34.0820   40.4760 C   0  0  0  0  0  0  0  0  0  0  0  0
   40.7020   34.5300   40.1410 C   0  0  0  0  0  0  0  0  0  0  0  0
   41.3700   33.8940   39.0700 C   0  0  0  0  0  0  0  0  0  0  0  0
   40.7460   32.8770   38.4070 N   0  0  0  0  0  0  0  0  0  0  0  0
   39.5070   32.4730   38.7610 C   0  0  0  0  0  0  0  0  0  0  0  0
   38.8360   33.0630   39.7870 N   0  0  0  0  0  0  0  0  0  0  0  0
   41.1580   35.3450   40.6990 H   0  0  0  0  0  0  0  0  0  0  0  0
   42.3670   34.2250   38.7910 H   0  0  0  0  0  0  0  0  0  0  0  0
   38.7040   34.6680   41.5300 O   0  0  0  0  0  0  0  0  0  0  0  0
   37.8710   35.1920   41.2460 H   0  0  0  0  0  0  0  0  0  0  0  0
   38.9030   30.2900   40.2180 O   0  0  0  0  0  0  0  0  0  0  0  0
   37.9880   30.6100   40.4700 H   0  0  0  0  0  0  0  0  0  0  0  0
   36.6220   29.5560   39.5190 O   0  0  0  0  0  0  0  0  0  0  0  0
   35.8500   28.4740   39.8420 C   0  0  0  0  0  0  0  0  0  0  0  0
   35.0330   28.7460   40.5130 H   0  0  0  0  0  0  0  0  0  0  0  0
   35.2220   28.3460   38.8350 H   0  0  0  0  0  0  0  0  0  0  0  0
   36.5360   27.2030   40.0570 C   0  0  0  0  0  0  0  0  0  0  0  0
   37.1750   26.8120   39.2880 H   0  0  0  0  0  0  0  0  0  0  0  0
   35.7420   26.4110   40.2040 H   0  0  0  0  0  0  0  0  0  0  0  0
   37.2120   27.2680   41.4020 C   0  0  0  0  0  0  0  0  0  0  0  0
   38.5370   26.8570   41.4540 C   0  0  0  0  0  0  0  0  0  0  0  0
   39.0300   26.5170   40.5750 H   0  0  0  0  0  0  0  0  0  0  0  0
   39.2130   26.8920   42.6570 C   0  0  0  0  0  3  0  0  0  0  0  0
   38.6050   27.3320   43.8370 C   0  0  0  0  0  0  0  0  0  0  0  0
   39.1220   27.3650   44.7870 H   0  0  0  0  0  0  0  0  0  0  0  0
   37.2850   27.7250   43.7130 C   0  0  0  0  0  0  0  0  0  0  0  0
   36.8270   28.0640   44.6360 H   0  0  0  0  0  0  0  0  0  0  0  0
   36.5640   27.7100   42.5370 C   0  0  0  0  0  3  0  0  0  0  0  0
  1  6  1  6  0  0  0
  1 21  1  0  0  0  0
  2  7  1  6  0  0  0
  2 15  1  0  0  0  0
  2  1  1  0  0  0  0
  3  2  1  0  0  0  0
  4  3  1  0  0  0  0
  4  5  1  0  0  0  0
  5 10  1  6  0  0  0
  5  1  1  0  0  0  0
  5 23  1  0  0  0  0
  8  4  1  0  0  0  0
  9  4  1  0  0  0  0
 11 19  1  0  0  0  0
 12 11  1  0  0  0  0
 12 17  1  0  0  0  0
 13 12  2  0  0  0  0
 14 15  2  0  0  0  0
 14 13  1  0  0  0  0
 15 16  1  0  0  0  0
 16 11  2  0  0  0  0
 18 13  1  0  0  0  0
 20 19  1  0  0  0  0
 21 22  1  0  0  0  0
 23 24  1  0  0  0  0
 24 27  1  0  0  0  0
 24 25  1  0  0  0  0
 26 24  1  0  0  0  0
 27 29  1  0  0  0  0
 27 30  1  0  0  0  0
 28 27  1  0  0  0  0
 30 31  2  0  0  0  0
 30 38  1  0  0  0  0
 31 33  1  0  0  0  0
 32 31  1  0  0  0  0
 33 34  2  0  0  0  0
 34 35  1  0  0  0  0
 36 34  1  0  0  0  0
 36 37  1  0  0  0  0
 38 36  2  0  0  0  0
M  END
>  <minimizedAffinity>
-5.48592234

$$$$

 OpenBabel03242519483D

 38 40  0  0  1  0  0  0  0  0999 V2000
   40.8520   29.9800   38.5180 C   0  0  2  0  0  0  0  0  0  0  0  0
   39.9370   31.1390   38.5910 C   0  0  1  0  0  0  0  0  0  0  0  0
   39.1200   30.8580   39.7810 O   0  0  0  0  0  0  0  0  0  0  0  0
   38.6870   29.5810   39.3720 C   0  0  0  0  0  0  0  0  0  0  0  0
   40.0680   28.8800   39.2170 C   0  0  2  0  0  0  0  0  0  0  0  0
   41.1490   29.6850   37.5000 H   0  0  0  0  0  0  0  0  0  0  0  0
   39.2170   31.2060   37.7540 H   0  0  0  0  0  0  0  0  0  0  0  0
   38.2560   29.7000   38.3530 H   0  0  0  0  0  0  0  0  0  0  0  0
   38.0340   29.1050   40.0750 H   0  0  0  0  0  0  0  0  0  0  0  0
   39.8900   27.9760   38.5850 H   0  0  0  0  0  0  0  0  0  0  0  0
   41.9650   34.0320   37.6820 C   0  0  0  0  0  0  0  0  0  0  0  0
   41.8410   34.8870   38.7790 C   0  0  0  0  0  0  0  0  0  0  0  0
   41.0440   34.4610   39.8670 C   0  0  0  0  0  0  0  0  0  0  0  0
   40.4320   33.2430   39.8060 N   0  0  0  0  0  0  0  0  0  0  0  0
   40.5770   32.4450   38.7260 C   0  0  0  0  0  0  0  0  0  0  0  0
   41.3370   32.8230   37.6630 N   0  0  0  0  0  0  0  0  0  0  0  0
   42.3480   35.8490   38.7820 H   0  0  0  0  0  0  0  0  0  0  0  0
   40.9320   35.1090   40.7320 H   0  0  0  0  0  0  0  0  0  0  0  0
   42.7390   34.3940   36.5690 O   0  0  0  0  0  0  0  0  0  0  0  0
   43.5860   33.8320   36.4300 H   0  0  0  0  0  0  0  0  0  0  0  0
   42.0290   30.2490   39.2960 O   0  0  0  0  0  0  0  0  0  0  0  0
   41.7240   30.1930   40.2480 H   0  0  0  0  0  0  0  0  0  0  0  0
   40.5100   28.6570   40.4750 O   0  0  0  0  0  0  0  0  0  0  0  0
   40.7620   27.3750   40.8790 C   0  0  0  0  0  0  0  0  0  0  0  0
   40.3960   26.6440   40.1560 H   0  0  0  0  0  0  0  0  0  0  0  0
   41.9290   27.2960   40.6400 H   0  0  0  0  0  0  0  0  0  0  0  0
   40.6190   27.0810   42.3030 C   0  0  0  0  0  0  0  0  0  0  0  0
   41.2180   27.6170   43.0150 H   0  0  0  0  0  0  0  0  0  0  0  0
   40.8940   25.9940   42.4530 H   0  0  0  0  0  0  0  0  0  0  0  0
   39.1490   27.1140   42.6320 C   0  0  0  0  0  0  0  0  0  0  0  0
   38.7190   28.1430   43.4590 C   0  0  0  0  0  0  0  0  0  0  0  0
   39.4100   28.8610   43.8300 H   0  0  0  0  0  0  0  0  0  0  0  0
   37.3840   28.2290   43.8000 C   0  0  0  0  0  3  0  0  0  0  0  0
   36.4390   27.3080   43.3350 C   0  0  0  0  0  0  0  0  0  0  0  0
   35.3900   27.3620   43.5930 H   0  0  0  0  0  0  0  0  0  0  0  0
   36.9370   26.3100   42.5180 C   0  0  0  0  0  0  0  0  0  0  0  0
   36.1930   25.6030   42.1650 H   0  0  0  0  0  0  0  0  0  0  0  0
   38.2590   26.1770   42.1470 C   0  0  0  0  0  3  0  0  0  0  0  0
  1  6  1  6  0  0  0
  1  2  1  0  0  0  0
  1  5  1  0  0  0  0
  1 21  1  0  0  0  0
  2  7  1  6  0  0  0
  2 15  1  0  0  0  0
  2  3  1  0  0  0  0
  4  3  1  0  0  0  0
  4  9  1  0  0  0  0
  5 10  1  6  0  0  0
  5  4  1  0  0  0  0
  5 23  1  0  0  0  0
  8  4  1  0  0  0  0
 11 12  1  0  0  0  0
 12 17  1  0  0  0  0
 12 13  2  0  0  0  0
 13 18  1  0  0  0  0
 14 13  1  0  0  0  0
 15 14  2  0  0  0  0
 16 11  2  0  0  0  0
 16 15  1  0  0  0  0
 19 11  1  0  0  0  0
 20 19  1  0  0  0  0
 21 22  1  0  0  0  0
 23 24  1  0  0  0  0
 24 27  1  0  0  0  0
 25 24  1  0  0  0  0
 26 24  1  0  0  0  0
 27 29  1  0  0  0  0
 27 30  1  0  0  0  0
 27 28  1  0  0  0  0
 30 31  1  0  0  0  0
 31 33  2  0  0  0  0
 31 32  1  0  0  0  0
 34 35  1  0  0  0  0
 34 33  1  0  0  0  0
 36 34  2  0  0  0  0
 37 36  1  0  0  0  0
 38 36  1  0  0  0  0
 38 30  2  0  0  0  0
M  END
>  <minimizedAffinity>
-5.45861244

$$$$

 OpenBabel03242519483D

 38 40  0  0  1  0  0  0  0  0999 V2000
   37.1790   28.0280   40.8520 C   0  0  2  0  0  0  0  0  0  0  0  0
   37.0070   29.1410   41.8110 C   0  0  1  0  0  0  0  0  0  0  0  0
   37.5230   28.5900   43.0720 O   0  0  0  0  0  0  0  0  0  0  0  0
   36.7000   27.4460   43.0890 C   0  0  0  0  0  0  0  0  0  0  0  0
   37.1360   26.7980   41.7430 C   0  0  2  0  0  0  0  0  0  0  0  0
   36.4230   27.9810   40.0540 H   0  0  0  0  0  0  0  0  0  0  0  0
   35.9530   29.4050   42.0190 H   0  0  0  0  0  0  0  0  0  0  0  0
   35.6530   27.8030   42.9640 H   0  0  0  0  0  0  0  0  0  0  0  0
   36.8540   26.8200   43.9430 H   0  0  0  0  0  0  0  0  0  0  0  0
   36.3330   26.0680   41.4740 H   0  0  0  0  0  0  0  0  0  0  0  0
   37.5320   32.4980   40.4830 C   0  0  0  0  0  0  0  0  0  0  0  0
   38.8610   32.7810   40.8050 C   0  0  0  0  0  0  0  0  0  0  0  0
   39.6040   31.7950   41.4930 C   0  0  0  0  0  0  0  0  0  0  0  0
   39.0020   30.6120   41.8130 N   0  0  0  0  0  0  0  0  0  0  0  0
   37.7140   30.3760   41.4840 C   0  0  0  0  0  0  0  0  0  0  0  0
   36.9710   31.3040   40.8210 N   0  0  0  0  0  0  0  0  0  0  0  0
   39.2980   33.7380   40.5290 H   0  0  0  0  0  0  0  0  0  0  0  0
   40.6400   31.9920   41.7550 H   0  0  0  0  0  0  0  0  0  0  0  0
   36.7390   33.4340   39.8030 O   0  0  0  0  0  0  0  0  0  0  0  0
   36.4730   33.1640   38.8500 H   0  0  0  0  0  0  0  0  0  0  0  0
   38.4870   28.1030   40.2610 O   0  0  0  0  0  0  0  0  0  0  0  0
   39.1130   27.8260   40.9920 H   0  0  0  0  0  0  0  0  0  0  0  0
   38.3660   26.2830   41.9650 O   0  0  0  0  0  0  0  0  0  0  0  0
   38.5170   24.9280   42.0680 C   0  0  0  0  0  0  0  0  0  0  0  0
   37.5810   24.4010   41.8720 H   0  0  0  0  0  0  0  0  0  0  0  0
   39.0750   24.6920   41.0390 H   0  0  0  0  0  0  0  0  0  0  0  0
   39.3910   24.4290   43.1260 C   0  0  0  0  0  0  0  0  0  0  0  0
   39.6410   23.3850   43.1560 H   0  0  0  0  0  0  0  0  0  0  0  0
   38.8760   24.6310   44.1130 H   0  0  0  0  0  0  0  0  0  0  0  0
   40.6030   25.3230   43.1800 C   0  0  0  0  0  0  0  0  0  0  0  0
   40.5900   26.3330   44.1330 C   0  0  0  0  0  0  0  0  0  0  0  0
   39.7560   26.4500   44.7820 H   0  0  0  0  0  0  0  0  0  0  0  0
   41.6700   27.1860   44.2340 C   0  0  0  0  0  3  0  0  0  0  0  0
   42.7880   27.0680   43.4020 C   0  0  0  0  0  0  0  0  0  0  0  0
   43.6420   27.7300   43.4690 H   0  0  0  0  0  0  0  0  0  0  0  0
   42.7340   26.0430   42.4760 C   0  0  0  0  0  0  0  0  0  0  0  0
   43.6080   25.9630   41.8380 H   0  0  0  0  0  0  0  0  0  0  0  0
   41.6810   25.1630   42.3330 C   0  0  0  0  0  3  0  0  0  0  0  0
  1  6  1  6  0  0  0
  1  5  1  0  0  0  0
  1  2  1  0  0  0  0
  2  7  1  1  0  0  0
  2  3  1  0  0  0  0
  3  4  1  0  0  0  0
  4  9  1  0  0  0  0
  5 10  1  6  0  0  0
  5 23  1  0  0  0  0
  5  4  1  0  0  0  0
  8  4  1  0  0  0  0
 11 12  2  0  0  0  0
 11 16  1  0  0  0  0
 12 13  1  0  0  0  0
 13 18  1  0  0  0  0
 13 14  2  0  0  0  0
 15  2  1  0  0  0  0
 15 14  1  0  0  0  0
 16 15  2  0  0  0  0
 17 12  1  0  0  0  0
 19 11  1  0  0  0  0
 20 19  1  0  0  0  0
 21  1  1  0  0  0  0
 21 22  1  0  0  0  0
 23 24  1  0  0  0  0
 24 27  1  0  0  0  0
 25 24  1  0  0  0  0
 26 24  1  0  0  0  0
 27 28  1  0  0  0  0
 27 30  1  0  0  0  0
 27 29  1  0  0  0  0
 30 31  1  0  0  0  0
 31 33  2  0  0  0  0
 31 32  1  0  0  0  0
 34 35  1  0  0  0  0
 34 33  1  0  0  0  0
 36 34  2  0  0  0  0
 37 36  1  0  0  0  0
 38 36  1  0  0  0  0
 38 30  2  0  0  0  0
M  END
>  <minimizedAffinity>
-5.39935827

$$$$

 OpenBabel03242519483D

 38 40  0  0  1  0  0  0  0  0999 V2000
   37.2280   29.2460   42.4920 C   0  0  2  0  0  0  0  0  0  0  0  0
   38.3770   29.6490   41.6520 C   0  0  1  0  0  0  0  0  0  0  0  0
   39.0040   28.3690   41.2920 O   0  0  0  0  0  0  0  0  0  0  0  0
   39.1630   27.8980   42.6100 C   0  0  0  0  0  0  0  0  0  0  0  0
   37.6760   27.9120   43.0680 C   0  0  2  0  0  0  0  0  0  0  0  0
   36.9580   29.9620   43.2840 H   0  0  0  0  0  0  0  0  0  0  0  0
   39.1600   30.2140   42.1910 H   0  0  0  0  0  0  0  0  0  0  0  0
   39.6930   28.6970   43.1740 H   0  0  0  0  0  0  0  0  0  0  0  0
   39.6260   26.9340   42.6680 H   0  0  0  0  0  0  0  0  0  0  0  0
   37.6920   27.8810   44.1840 H   0  0  0  0  0  0  0  0  0  0  0  0
   37.2990   32.4600   39.5930 C   0  0  0  0  0  0  0  0  0  0  0  0
   37.4040   31.9780   38.2860 C   0  0  0  0  0  0  0  0  0  0  0  0
   37.8530   30.6510   38.1010 C   0  0  0  0  0  0  0  0  0  0  0  0
   38.1620   29.8950   39.1950 N   0  0  0  0  0  0  0  0  0  0  0  0
   38.0470   30.3970   40.4430 C   0  0  0  0  0  0  0  0  0  0  0  0
   37.6180   31.6710   40.6560 N   0  0  0  0  0  0  0  0  0  0  0  0
   37.1460   32.6180   37.4450 H   0  0  0  0  0  0  0  0  0  0  0  0
   37.9440   30.2530   37.0940 H   0  0  0  0  0  0  0  0  0  0  0  0
   36.8620   33.7690   39.8460 O   0  0  0  0  0  0  0  0  0  0  0  0
   35.9510   33.8380   40.3110 H   0  0  0  0  0  0  0  0  0  0  0  0
   36.0840   29.0080   41.6570 O   0  0  0  0  0  0  0  0  0  0  0  0
   36.2870   28.1490   41.1850 H   0  0  0  0  0  0  0  0  0  0  0  0
   37.0900   26.8640   42.4460 O   0  0  0  0  0  0  0  0  0  0  0  0
   37.6790   25.6320   42.5100 C   0  0  0  0  0  0  0  0  0  0  0  0
   38.7630   25.6950   42.4000 H   0  0  0  0  0  0  0  0  0  0  0  0
   37.6290   25.4280   43.6860 H   0  0  0  0  0  0  0  0  0  0  0  0
   36.9760   24.5190   41.8760 C   0  0  0  0  0  0  0  0  0  0  0  0
   35.9610   24.6540   41.5510 H   0  0  0  0  0  0  0  0  0  0  0  0
   36.9290   23.6760   42.6290 H   0  0  0  0  0  0  0  0  0  0  0  0
   37.8690   23.9690   40.7960 C   0  0  0  0  0  0  0  0  0  0  0  0
   37.5890   22.6830   40.3510 C   0  0  0  0  0  0  0  0  0  0  0  0
   36.7800   22.1340   40.7680 H   0  0  0  0  0  0  0  0  0  0  0  0
   38.3710   22.1200   39.3620 C   0  0  0  0  0  3  0  0  0  0  0  0
   39.4450   22.8060   38.7850 C   0  0  0  0  0  0  0  0  0  0  0  0
   40.0670   22.3790   38.0100 H   0  0  0  0  0  0  0  0  0  0  0  0
   39.6670   24.0800   39.2750 C   0  0  0  0  0  0  0  0  0  0  0  0
   40.5020   24.6010   38.8190 H   0  0  0  0  0  0  0  0  0  0  0  0
   38.9180   24.6890   40.2600 C   0  0  0  0  0  3  0  0  0  0  0  0
  1  5  1  0  0  0  0
  1  6  1  1  0  0  0
  2  7  1  1  0  0  0
  2  1  1  0  0  0  0
  3  2  1  0  0  0  0
  3  4  1  0  0  0  0
  4  9  1  0  0  0  0
  4  5  1  0  0  0  0
  4  8  1  0  0  0  0
  5 10  1  1  0  0  0
 11 19  1  0  0  0  0
 11 16  1  0  0  0  0
 12 11  2  0  0  0  0
 13 12  1  0  0  0  0
 13 14  2  0  0  0  0
 14 15  1  0  0  0  0
 15 16  2  0  0  0  0
 15  2  1  0  0  0  0
 17 12  1  0  0  0  0
 18 13  1  0  0  0  0
 19 20  1  0  0  0  0
 21  1  1  0  0  0  0
 22 21  1  0  0  0  0
 23 24  1  0  0  0  0
 23  5  1  0  0  0  0
 24 26  1  0  0  0  0
 25 24  1  0  0  0  0
 27 24  1  0  0  0  0
 27 29  1  0  0  0  0
 28 27  1  0  0  0  0
 30 27  1  0  0  0  0
 31 32  1  0  0  0  0
 31 30  1  0  0  0  0
 33 31  2  0  0  0  0
 34 36  2  0  0  0  0
 34 33  1  0  0  0  0
 35 34  1  0  0  0  0
 36 38  1  0  0  0  0
 37 36  1  0  0  0  0
 38 30  2  0  0  0  0
M  END
>  <minimizedAffinity>
-5.37120867

$$$$

 OpenBabel03242519483D

 38 40  0  0  1  0  0  0  0  0999 V2000
   37.6510   27.3230   38.1960 C   0  0  2  0  0  0  0  0  0  0  0  0
   36.6840   28.3440   37.7400 C   0  0  1  0  0  0  0  0  0  0  0  0
   35.4270   27.9390   38.3860 O   0  0  0  0  0  0  0  0  0  0  0  0
   35.4180   26.6190   37.8920 C   0  0  0  0  0  0  0  0  0  0  0  0
   36.7690   26.1170   38.4790 C   0  0  2  0  0  0  0  0  0  0  0  0
   38.4490   27.0850   37.4760 H   0  0  0  0  0  0  0  0  0  0  0  0
   36.4730   28.3210   36.6550 H   0  0  0  0  0  0  0  0  0  0  0  0
   35.5400   26.6890   36.7880 H   0  0  0  0  0  0  0  0  0  0  0  0
   34.5690   26.0490   38.2070 H   0  0  0  0  0  0  0  0  0  0  0  0
   37.0440   25.2050   37.8960 H   0  0  0  0  0  0  0  0  0  0  0  0
   38.2430   31.6340   37.5080 C   0  0  0  0  0  0  0  0  0  0  0  0
   37.7060   32.3370   38.5890 C   0  0  0  0  0  0  0  0  0  0  0  0
   36.7860   31.6660   39.4270 C   0  0  0  0  0  0  0  0  0  0  0  0
   36.4600   30.3690   39.1530 N   0  0  0  0  0  0  0  0  0  0  0  0
   37.0020   29.7240   38.0980 C   0  0  0  0  0  0  0  0  0  0  0  0
   37.8910   30.3390   37.2720 N   0  0  0  0  0  0  0  0  0  0  0  0
   37.9960   33.3690   38.7670 H   0  0  0  0  0  0  0  0  0  0  0  0
   36.3540   32.1920   40.2740 H   0  0  0  0  0  0  0  0  0  0  0  0
   39.1600   32.2410   36.6370 O   0  0  0  0  0  0  0  0  0  0  0  0
   40.1110   31.8590   36.6750 H   0  0  0  0  0  0  0  0  0  0  0  0
   38.2420   27.7420   39.4370 O   0  0  0  0  0  0  0  0  0  0  0  0
   37.5140   27.6330   40.1150 H   0  0  0  0  0  0  0  0  0  0  0  0
   36.5520   25.9420   39.8020 O   0  0  0  0  0  0  0  0  0  0  0  0
   36.8130   24.7250   40.3680 C   0  0  0  0  0  0  0  0  0  0  0  0
   36.3790   23.9080   39.7890 H   0  0  0  0  0  0  0  0  0  0  0  0
   37.9560   24.5790   40.0560 H   0  0  0  0  0  0  0  0  0  0  0  0
   36.7780   24.6430   41.8260 C   0  0  0  0  0  0  0  0  0  0  0  0
   37.0510   23.7230   42.3090 H   0  0  0  0  0  0  0  0  0  0  0  0
   35.7110   24.8340   42.1500 H   0  0  0  0  0  0  0  0  0  0  0  0
   37.5230   25.8330   42.3710 C   0  0  0  0  0  0  0  0  0  0  0  0
   38.9090   25.7840   42.3050 C   0  0  0  0  0  0  0  0  0  0  0  0
   39.3990   24.9380   41.8870 H   0  0  0  0  0  0  0  0  0  0  0  0
   39.6510   26.8440   42.7870 C   0  0  0  0  0  3  0  0  0  0  0  0
   39.0490   27.9770   43.3440 C   0  0  0  0  0  0  0  0  0  0  0  0
   39.6170   28.8150   43.7260 H   0  0  0  0  0  0  0  0  0  0  0  0
   37.6680   27.9590   43.3790 C   0  0  0  0  0  0  0  0  0  0  0  0
   37.2150   28.8440   43.8130 H   0  0  0  0  0  0  0  0  0  0  0  0
   36.8790   26.9280   42.9120 C   0  0  0  0  0  3  0  0  0  0  0  0
  1  6  1  6  0  0  0
  1  5  1  0  0  0  0
  1 21  1  0  0  0  0
  2  7  1  6  0  0  0
  2 15  1  0  0  0  0
  2  1  1  0  0  0  0
  2  3  1  0  0  0  0
  4  9  1  0  0  0  0
  4  3  1  0  0  0  0
  4  5  1  0  0  0  0
  5 10  1  6  0  0  0
  5 23  1  0  0  0  0
  8  4  1  0  0  0  0
 11 12  1  0  0  0  0
 12 17  1  0  0  0  0
 12 13  2  0  0  0  0
 13 18  1  0  0  0  0
 14 13  1  0  0  0  0
 15 14  2  0  0  0  0
 16 11  2  0  0  0  0
 16 15  1  0  0  0  0
 19 20  1  0  0  0  0
 19 11  1  0  0  0  0
 21 22  1  0  0  0  0
 23 24  1  0  0  0  0
 24 27  1  0  0  0  0
 25 24  1  0  0  0  0
 26 24  1  0  0  0  0
 27 29  1  0  0  0  0
 27 28  1  0  0  0  0
 27 30  1  0  0  0  0
 30 38  1  0  0  0  0
 31 30  2  0  0  0  0
 31 33  1  0  0  0  0
 32 31  1  0  0  0  0
 33 34  2  0  0  0  0
 34 36  1  0  0  0  0
 34 35  1  0  0  0  0
 36 37  1  0  0  0  0
 38 36  2  0  0  0  0
M  END
>  <minimizedAffinity>
-5.32464123

$$$$
