
 OpenBabel03252508033D

 42 45  0  0  1  0  0  0  0  0999 V2000
   42.1500   33.2720   41.1920 C   0  0  0  0  0  0  0  0  0  0  0  0
   42.8410   34.4340   41.3650 C   0  0  0  0  0  0  0  0  0  0  0  0
   42.1270   35.6460   41.2840 C   0  0  0  0  0  0  0  0  0  0  0  0
   40.7810   35.7130   41.0420 C   0  0  0  0  0  0  0  0  0  0  0  0
   40.0900   34.5430   40.8700 C   0  0  0  0  0  0  0  0  0  0  0  0
   40.7720   33.3650   40.9460 C   0  0  0  0  0  0  0  0  0  0  0  0
   42.5980   36.6170   41.3980 H   0  0  0  0  0  0  0  0  0  0  0  0
   40.2480   36.6290   40.9820 H   0  0  0  0  0  0  0  0  0  0  0  0
   39.0460   34.5050   40.6790 H   0  0  0  0  0  0  0  0  0  0  0  0
   40.2190   32.4220   40.8080 H   0  0  0  0  0  0  0  0  0  0  0  0
   42.8810   31.7600   41.3100 S   0  0  0  0  0  0  0  0  0  0  0  0
   42.1500   30.9700   40.2060 O   0  0  0  0  0  0  0  0  0  0  0  0
   42.5470   31.0980   42.6360 O   0  0  0  0  0  0  0  0  0  0  0  0
   44.3310   31.1540   40.7850 C   0  0  0  0  0  0  0  0  0  0  0  0
   44.6010   31.1270   39.3940 C   0  0  0  0  0  0  0  0  0  0  0  0
   43.8410   31.4680   38.7040 H   0  0  0  0  0  0  0  0  0  0  0  0
   45.7980   30.6800   38.8990 C   0  0  0  0  0  0  0  0  0  0  0  0
   46.7520   30.2490   39.7700 C   0  0  0  0  0  0  0  0  0  0  0  0
   47.6690   29.9060   39.3140 H   0  0  0  0  0  0  0  0  0  0  0  0
   46.6790   30.1990   41.1190 C   0  0  0  0  0  0  0  0  0  0  0  0
   47.3960   29.8700   41.8410 H   0  0  0  0  0  0  0  0  0  0  0  0
   45.4460   30.6680   41.5200 C   0  0  0  0  0  0  0  0  0  0  0  0
   44.2760   34.4690   41.6130 C   0  0  0  0  0  0  0  0  0  0  0  0
   45.1670   34.4570   40.6960 O   0  0  0  0  0  0  0  0  0  0  0  0
   44.6030   34.5200   43.0060 C   0  0  0  0  0  0  0  0  0  0  0  0
   44.2980   35.7530   43.6730 C   0  0  0  0  0  0  0  0  0  0  0  0
   44.5990   35.8150   45.0240 C   0  0  0  0  0  0  0  0  0  0  0  0
   45.1510   34.7270   45.6210 N   0  0  0  0  0  0  0  0  0  0  0  0
   45.4240   33.5680   44.9380 C   0  0  0  0  0  0  0  0  0  0  0  0
   45.1440   33.5140   43.6840 N   0  0  0  0  0  0  0  0  0  0  0  0
   43.8730   36.6410   43.2900 H   0  0  0  0  0  0  0  0  0  0  0  0
   44.4350   36.6540   45.6570 H   0  0  0  0  0  0  0  0  0  0  0  0
   46.0160   32.4400   45.6730 C   0  0  1  0  0  0  0  0  0  0  0  0
   46.9730   32.7270   46.8130 C   0  0  0  0  0  0  0  0  0  0  0  0
   45.5590   32.2940   47.0810 C   0  0  1  0  0  0  0  0  0  0  0  0
   46.1530   31.4950   45.1330 H   0  0  0  0  0  0  0  0  0  0  0  0
   47.2970   33.7720   46.9640 H   0  0  0  0  0  0  0  0  0  0  0  0
   47.7100   31.9270   46.9990 H   0  0  0  0  0  0  0  0  0  0  0  0
   45.3650   31.3000   47.5340 H   0  0  0  0  0  0  0  0  0  0  0  0
   44.7860   33.3590   47.7000 N   0  0  0  0  0  0  0  0  0  0  0  0
   45.3380   34.1540   48.0340 H   0  0  0  0  0  0  0  0  0  0  0  0
   43.9050   33.5820   47.2280 H   0  0  0  0  0  0  0  0  0  0  0  0
  1 11  1  0  0  0  0
  1  2  1  0  0  0  0
  2 23  1  0  0  0  0
  3  2  2  0  0  0  0
  3  7  1  0  0  0  0
  4  3  1  0  0  0  0
  5  6  1  0  0  0  0
  5  4  2  0  0  0  0
  6  1  2  0  0  0  0
  8  4  1  0  0  0  0
  9  5  1  0  0  0  0
 10  6  1  0  0  0  0
 11 13  2  0  0  0  0
 12 11  2  0  0  0  0
 14 11  1  0  0  0  0
 14 22  1  0  0  0  0
 15 14  2  0  0  0  0
 16 15  1  0  0  0  0
 17 15  1  0  0  0  0
 17 18  2  0  0  0  0
 18 20  1  0  0  0  0
 19 18  1  0  0  0  0
 20 22  2  0  0  0  0
 20 21  1  0  0  0  0
 23 25  1  0  0  0  0
 24 23  2  0  0  0  0
 25 26  2  0  0  0  0
 25 30  1  0  0  0  0
 26 27  1  0  0  0  0
 27 28  2  0  0  0  0
 27 32  1  0  0  0  0
 29 28  1  0  0  0  0
 29 33  1  0  0  0  0
 30 29  2  0  0  0  0
 31 26  1  0  0  0  0
 33 36  1  6  0  0  0
 33 34  1  0  0  0  0
 33 35  1  0  0  0  0
 34 37  1  0  0  0  0
 34 38  1  0  0  0  0
 34 35  1  0  0  0  0
 35 39  1  1  0  0  0
 35 40  1  0  0  0  0
 40 41  1  0  0  0  0
 42 40  1  0  0  0  0
M  END
>  <minimizedAffinity>
-5.72198915

>  <minimizedRMSD>
0.864726841

$$$$
