
     RDKit          3D

 23 24  0  0  0  0  0  0  0  0999 V2000
   44.5594   36.0133   44.4928 C   0  0  0  0  0  0  0  0  0  0  0  0
   45.3085   35.9118   43.3049 C   0  0  0  0  0  0  0  0  0  0  0  0
   46.1954   34.8567   43.1706 C   0  0  0  0  0  0  0  0  0  0  0  0
   46.3040   33.9662   44.1899 N   0  0  0  0  0  0  0  0  0  0  0  0
   45.5694   34.0828   45.3317 C   0  0  0  0  0  0  0  0  0  0  0  0
   44.7077   35.1053   45.4657 N   0  0  0  0  0  0  0  0  0  0  0  0
   46.9576   34.7788   41.9274 C   0  0  0  0  0  0  0  0  0  0  0  0
   43.8829   36.8353   44.5720 H   0  0  0  0  0  0  0  0  0  0  0  0
   45.1785   36.6518   42.5282 H   0  0  0  0  0  0  0  0  0  0  0  0
   45.7301   33.3106   46.0978 H   0  0  0  0  0  0  0  0  0  0  0  0
   47.2701   33.7319   41.6533 H   0  0  0  0  0  0  0  0  0  0  0  0
   46.3605   35.2161   41.0884 H   0  0  0  0  0  0  0  0  0  0  0  0
   48.2158   35.5564   42.1603 C   0  0  0  0  0  0  0  0  0  0  0  0
   48.9793   35.9190   41.0802 C   0  0  0  0  0  0  0  0  0  0  0  0
   48.6282   35.6186   40.0835 H   0  0  0  0  0  0  0  0  0  0  0  0
   50.1586   36.6290   41.0883 C   0  0  0  0  0  0  0  0  0  0  0  0
   50.5993   37.0079   42.3609 C   0  0  0  0  0  0  0  0  0  0  0  0
   51.5286   37.5714   42.4127 H   0  0  0  0  0  0  0  0  0  0  0  0
   49.8604   36.6639   43.4837 C   0  0  0  0  0  0  0  0  0  0  0  0
   50.2351   36.9769   44.4626 H   0  0  0  0  0  0  0  0  0  0  0  0
   48.6805   35.9464   43.3954 C   0  0  0  0  0  0  0  0  0  0  0  0
   50.6814   36.8611   40.1680 H   0  0  0  0  0  0  0  0  0  0  0  0
   48.0922   35.6697   44.2591 H   0  0  0  0  0  0  0  0  0  0  0  0
  1  6  2  0
  2  1  1  0
  3  2  2  0
  3  4  1  0
  4  5  2  0
  5  6  1  0
  7  3  1  0
  1  8  1  0
  2  9  1  0
  5 10  1  0
  7 11  1  0
  7 12  1  0
 13 14  2  0
 14 15  1  0
 14 16  1  0
 16 17  2  0
 17 18  1  0
 17 19  1  0
 19 20  1  0
 19 21  2  0
 21 13  1  0
 16 22  1  0
 21 23  1  0
  7 13  1  0
M  ISO  8   8  14   9  14  10  14  11   8  12   8  15  16  18  16  20  16
M  END
>  <DihAtoms>  (1) 
2,6,12,13

>  <DihDeg>  (1) 
90.00949469141854

$$$$
