
 OpenBabel03242522343D

 33 35  0  0  0  0  0  0  0  0999 V2000
   36.3940   30.9340   40.0090 C   0  0  0  0  0  0  0  0  0  0  0  0
   37.0690   31.8770   39.2680 C   0  0  0  0  0  0  0  0  0  0  0  0
   37.3760   31.5700   37.9650 C   0  0  0  0  0  0  0  0  0  0  0  0
   37.0510   30.3660   37.3360 C   0  0  0  0  0  0  0  0  0  0  0  0
   36.3670   29.4280   38.1130 C   0  0  0  0  0  0  0  0  0  0  0  0
   36.0520   29.7280   39.4320 C   0  0  0  0  0  0  0  0  0  0  0  0
   37.9000   32.2640   37.3400 H   0  0  0  0  0  0  0  0  0  0  0  0
   37.2960   30.1430   36.3250 H   0  0  0  0  0  0  0  0  0  0  0  0
   36.1100   28.4940   37.6360 H   0  0  0  0  0  0  0  0  0  0  0  0
   37.4700   33.1890   39.8160 C   0  0  0  0  0  0  0  0  0  0  0  0
   36.8990   33.4290   40.7120 H   0  0  0  0  0  0  0  0  0  0  0  0
   37.1980   33.9900   39.0690 H   0  0  0  0  0  0  0  0  0  0  0  0
   41.0660   34.1070   40.1110 C   0  0  0  0  0  0  0  0  0  0  0  0
   41.5400   33.0770   40.9230 C   0  0  0  0  0  0  0  0  0  0  0  0
   40.6330   32.1120   41.3420 C   0  0  0  0  0  0  0  0  0  0  0  0
   39.3360   32.1940   40.9570 N   0  0  0  0  0  0  0  0  0  0  0  0
   38.9140   33.2190   40.1620 C   0  0  0  0  0  0  0  0  0  0  0  0
   39.7840   34.1610   39.7500 N   0  0  0  0  0  0  0  0  0  0  0  0
   41.6500   34.9350   39.7040 H   0  0  0  0  0  0  0  0  0  0  0  0
   42.5940   33.1190   41.1630 H   0  0  0  0  0  0  0  0  0  0  0  0
   41.0150   31.3280   41.9650 H   0  0  0  0  0  0  0  0  0  0  0  0
   36.0620   31.1850   41.3160 O   0  0  0  0  0  0  0  0  0  0  0  0
   35.1330   31.0580   41.6980 H   0  0  0  0  0  0  0  0  0  0  0  0
   35.3760   28.7690   40.1520 O   0  0  0  0  0  0  0  0  0  0  0  0
   36.1220   27.8160   40.8320 C   0  0  0  0  0  0  0  0  0  0  0  0
   36.5460   26.7360   40.0600 C   0  0  0  0  0  0  0  0  0  0  0  0
   36.3200   26.6360   39.0200 H   0  0  0  0  0  0  0  0  0  0  0  0
   37.2970   25.7470   40.6800 C   0  0  0  0  0  3  0  0  0  0  0  0
   37.6230   25.8250   42.0350 C   0  0  0  0  0  0  0  0  0  0  0  0
   38.2040   25.0780   42.5540 H   0  0  0  0  0  0  0  0  0  0  0  0
   37.1680   26.9280   42.7460 C   0  0  0  0  0  0  0  0  0  0  0  0
   37.4240   26.9890   43.8120 H   0  0  0  0  0  0  0  0  0  0  0  0
   36.4180   27.9400   42.1770 C   0  0  0  0  0  3  0  0  0  0  0  0
  1 22  1  0  0  0  0
  2 10  1  0  0  0  0
  2  1  2  0  0  0  0
  3  2  1  0  0  0  0
  4  3  2  0  0  0  0
  4  5  1  0  0  0  0
  5  6  2  0  0  0  0
  6  1  1  0  0  0  0
  6 24  1  0  0  0  0
  7  3  1  0  0  0  0
  8  4  1  0  0  0  0
  9  5  1  0  0  0  0
 10 17  1  0  0  0  0
 10 11  1  0  0  0  0
 12 10  1  0  0  0  0
 13 14  1  0  0  0  0
 14 20  1  0  0  0  0
 14 15  2  0  0  0  0
 15 21  1  0  0  0  0
 16 15  1  0  0  0  0
 17 16  2  0  0  0  0
 18 13  2  0  0  0  0
 18 17  1  0  0  0  0
 19 13  1  0  0  0  0
 22 23  1  0  0  0  0
 24 25  1  0  0  0  0
 25 33  1  0  0  0  0
 26 28  1  0  0  0  0
 26 25  2  0  0  0  0
 27 26  1  0  0  0  0
 28 29  2  0  0  0  0
 29 30  1  0  0  0  0
 29 31  1  0  0  0  0
 31 32  1  0  0  0  0
 33 31  2  0  0  0  0
M  END
>  <minimizedAffinity>
-5.85508823

$$$$

 OpenBabel03242522343D

 33 35  0  0  0  0  0  0  0  0999 V2000
   36.6540   29.3820   41.4160 C   0  0  0  0  0  0  0  0  0  0  0  0
   36.7030   30.2160   40.3230 C   0  0  0  0  0  0  0  0  0  0  0  0
   36.6390   29.6430   39.0760 C   0  0  0  0  0  0  0  0  0  0  0  0
   36.5270   28.2710   38.8390 C   0  0  0  0  0  0  0  0  0  0  0  0
   36.4810   27.4500   39.9680 C   0  0  0  0  0  0  0  0  0  0  0  0
   36.5450   28.0180   41.2330 C   0  0  0  0  0  0  0  0  0  0  0  0
   36.6720   30.2410   38.1890 H   0  0  0  0  0  0  0  0  0  0  0  0
   36.4790   27.8420   37.8660 H   0  0  0  0  0  0  0  0  0  0  0  0
   36.3940   26.3870   39.7960 H   0  0  0  0  0  0  0  0  0  0  0  0
   36.8200   31.6830   40.4390 C   0  0  0  0  0  0  0  0  0  0  0  0
   36.2950   32.0480   41.3210 H   0  0  0  0  0  0  0  0  0  0  0  0
   36.2900   32.1580   39.5630 H   0  0  0  0  0  0  0  0  0  0  0  0
   40.4390   31.9440   41.2720 C   0  0  0  0  0  0  0  0  0  0  0  0
   40.7980   33.0850   40.5540 C   0  0  0  0  0  0  0  0  0  0  0  0
   39.8090   33.7250   39.8170 C   0  0  0  0  0  0  0  0  0  0  0  0
   38.5470   33.2330   39.8140 N   0  0  0  0  0  0  0  0  0  0  0  0
   38.2390   32.1140   40.5300 C   0  0  0  0  0  0  0  0  0  0  0  0
   39.1880   31.4840   41.2490 N   0  0  0  0  0  0  0  0  0  0  0  0
   41.0970   31.3340   41.8940 H   0  0  0  0  0  0  0  0  0  0  0  0
   41.8350   33.3800   40.6350 H   0  0  0  0  0  0  0  0  0  0  0  0
   40.1030   34.6000   39.2720 H   0  0  0  0  0  0  0  0  0  0  0  0
   36.7140   29.8980   42.6860 O   0  0  0  0  0  0  0  0  0  0  0  0
   36.0590   29.6670   43.4230 H   0  0  0  0  0  0  0  0  0  0  0  0
   36.4940   27.1640   42.3110 O   0  0  0  0  0  0  0  0  0  0  0  0
   37.6480   26.4740   42.6530 C   0  0  0  0  0  0  0  0  0  0  0  0
   37.7110   25.1610   42.1900 C   0  0  0  0  0  0  0  0  0  0  0  0
   36.9340   24.7070   41.6130 H   0  0  0  0  0  0  0  0  0  0  0  0
   38.8400   24.4150   42.4970 C   0  0  0  0  0  3  0  0  0  0  0  0
   39.8860   24.9550   43.2460 C   0  0  0  0  0  0  0  0  0  0  0  0
   40.7800   24.4100   43.5060 H   0  0  0  0  0  0  0  0  0  0  0  0
   39.7590   26.2700   43.6770 C   0  0  0  0  0  0  0  0  0  0  0  0
   40.5820   26.6960   44.2660 H   0  0  0  0  0  0  0  0  0  0  0  0
   38.6580   27.0560   43.3970 C   0  0  0  0  0  3  0  0  0  0  0  0
  1 22  1  0  0  0  0
  2 10  1  0  0  0  0
  2  1  2  0  0  0  0
  3  2  1  0  0  0  0
  4  3  2  0  0  0  0
  4  5  1  0  0  0  0
  5  6  2  0  0  0  0
  6  1  1  0  0  0  0
  6 24  1  0  0  0  0
  7  3  1  0  0  0  0
  8  4  1  0  0  0  0
  9  5  1  0  0  0  0
 10 17  1  0  0  0  0
 10 11  1  0  0  0  0
 12 10  1  0  0  0  0
 13 19  1  0  0  0  0
 14 20  1  0  0  0  0
 14 13  2  0  0  0  0
 15 14  1  0  0  0  0
 16 15  2  0  0  0  0
 16 17  1  0  0  0  0
 17 18  2  0  0  0  0
 18 13  1  0  0  0  0
 21 15  1  0  0  0  0
 22 23  1  0  0  0  0
 24 25  1  0  0  0  0
 25 33  1  0  0  0  0
 26 28  1  0  0  0  0
 26 25  2  0  0  0  0
 27 26  1  0  0  0  0
 28 29  2  0  0  0  0
 29 30  1  0  0  0  0
 29 31  1  0  0  0  0
 31 32  1  0  0  0  0
 33 31  2  0  0  0  0
M  END
>  <minimizedAffinity>
-5.76941586

$$$$

 OpenBabel03242522343D

 33 35  0  0  0  0  0  0  0  0999 V2000
   36.8360   28.2360   41.9300 C   0  0  0  0  0  0  0  0  0  0  0  0
   36.1630   28.3820   40.7380 C   0  0  0  0  0  0  0  0  0  0  0  0
   36.2150   27.3420   39.8420 C   0  0  0  0  0  0  0  0  0  0  0  0
   36.9030   26.1460   40.0540 C   0  0  0  0  0  0  0  0  0  0  0  0
   37.5760   26.0270   41.2720 C   0  0  0  0  0  0  0  0  0  0  0  0
   37.5310   27.0720   42.1860 C   0  0  0  0  0  0  0  0  0  0  0  0
   35.7120   27.3980   38.8990 H   0  0  0  0  0  0  0  0  0  0  0  0
   36.9340   25.3490   39.3500 H   0  0  0  0  0  0  0  0  0  0  0  0
   38.1110   25.1050   41.4470 H   0  0  0  0  0  0  0  0  0  0  0  0
   35.3990   29.5970   40.3940 C   0  0  0  0  0  0  0  0  0  0  0  0
   34.9040   30.0100   41.2720 H   0  0  0  0  0  0  0  0  0  0  0  0
   34.5630   29.3100   39.6910 H   0  0  0  0  0  0  0  0  0  0  0  0
   37.3830   31.7340   38.0780 C   0  0  0  0  0  0  0  0  0  0  0  0
   37.9130   32.6700   38.9660 C   0  0  0  0  0  0  0  0  0  0  0  0
   37.5840   32.5490   40.3100 C   0  0  0  0  0  0  0  0  0  0  0  0
   36.7720   31.5430   40.7160 N   0  0  0  0  0  0  0  0  0  0  0  0
   36.2750   30.6480   39.8150 C   0  0  0  0  0  0  0  0  0  0  0  0
   36.5870   30.7560   38.5090 N   0  0  0  0  0  0  0  0  0  0  0  0
   37.5460   31.6950   37.0000 H   0  0  0  0  0  0  0  0  0  0  0  0
   38.5470   33.4260   38.5220 H   0  0  0  0  0  0  0  0  0  0  0  0
   38.0000   33.2770   40.9770 H   0  0  0  0  0  0  0  0  0  0  0  0
   36.8200   29.2410   42.8640 O   0  0  0  0  0  0  0  0  0  0  0  0
   36.5900   29.1030   43.8410 H   0  0  0  0  0  0  0  0  0  0  0  0
   38.2110   26.9030   43.3710 O   0  0  0  0  0  0  0  0  0  0  0  0
   39.5940   27.0160   43.3520 C   0  0  0  0  0  0  0  0  0  0  0  0
   40.2870   25.8520   43.6800 C   0  0  0  0  0  0  0  0  0  0  0  0
   39.8010   24.9330   43.9290 H   0  0  0  0  0  0  0  0  0  0  0  0
   41.6740   25.8970   43.6800 C   0  0  0  0  0  3  0  0  0  0  0  0
   42.3620   27.0690   43.3620 C   0  0  0  0  0  0  0  0  0  0  0  0
   43.4380   27.1460   43.3510 H   0  0  0  0  0  0  0  0  0  0  0  0
   41.6100   28.1940   43.0460 C   0  0  0  0  0  0  0  0  0  0  0  0
   42.1510   29.1150   42.7960 H   0  0  0  0  0  0  0  0  0  0  0  0
   40.2280   28.2010   43.0300 C   0  0  0  0  0  3  0  0  0  0  0  0
  1  6  1  0  0  0  0
  1 22  1  0  0  0  0
  2  1  2  0  0  0  0
  3  4  2  0  0  0  0
  3  2  1  0  0  0  0
  4  5  1  0  0  0  0
  5  9  1  0  0  0  0
  5  6  2  0  0  0  0
  6 24  1  0  0  0  0
  7  3  1  0  0  0  0
  8  4  1  0  0  0  0
 10  2  1  0  0  0  0
 10 11  1  0  0  0  0
 12 10  1  0  0  0  0
 13 18  2  0  0  0  0
 13 14  1  0  0  0  0
 14 15  2  0  0  0  0
 15 16  1  0  0  0  0
 15 21  1  0  0  0  0
 17 10  1  0  0  0  0
 17 16  2  0  0  0  0
 18 17  1  0  0  0  0
 19 13  1  0  0  0  0
 20 14  1  0  0  0  0
 22 23  1  0  0  0  0
 25 24  1  0  0  0  0
 25 26  1  0  0  0  0
 26 28  2  0  0  0  0
 26 27  1  0  0  0  0
 29 28  1  0  0  0  0
 30 29  1  0  0  0  0
 31 29  2  0  0  0  0
 32 31  1  0  0  0  0
 33 31  1  0  0  0  0
 33 25  2  0  0  0  0
M  END
>  <minimizedAffinity>
-5.69874287

$$$$

 OpenBabel03242522343D

 33 35  0  0  0  0  0  0  0  0999 V2000
   37.4990   30.0340   41.8440 C   0  0  0  0  0  0  0  0  0  0  0  0
   37.8740   31.0060   40.9440 C   0  0  0  0  0  0  0  0  0  0  0  0
   39.1990   31.3670   40.9060 C   0  0  0  0  0  0  0  0  0  0  0  0
   40.1940   30.8170   41.7160 C   0  0  0  0  0  0  0  0  0  0  0  0
   39.7840   29.8340   42.6200 C   0  0  0  0  0  0  0  0  0  0  0  0
   38.4460   29.4610   42.6670 C   0  0  0  0  0  0  0  0  0  0  0  0
   39.5490   32.1160   40.2270 H   0  0  0  0  0  0  0  0  0  0  0  0
   41.2160   31.1070   41.6750 H   0  0  0  0  0  0  0  0  0  0  0  0
   40.5450   29.4010   43.2510 H   0  0  0  0  0  0  0  0  0  0  0  0
   36.9180   31.6640   40.0320 C   0  0  0  0  0  0  0  0  0  0  0  0
   37.2600   32.6630   39.7620 H   0  0  0  0  0  0  0  0  0  0  0  0
   35.9460   31.8240   40.5830 H   0  0  0  0  0  0  0  0  0  0  0  0
   37.1880   30.3160   36.5720 C   0  0  0  0  0  0  0  0  0  0  0  0
   36.2040   29.3280   36.5920 C   0  0  0  0  0  0  0  0  0  0  0  0
   35.4850   29.1510   37.7680 C   0  0  0  0  0  0  0  0  0  0  0  0
   35.7550   29.9290   38.8450 N   0  0  0  0  0  0  0  0  0  0  0  0
   36.7260   30.8840   38.7830 C   0  0  0  0  0  0  0  0  0  0  0  0
   37.4290   31.0650   37.6480 N   0  0  0  0  0  0  0  0  0  0  0  0
   37.8320   30.5740   35.7300 H   0  0  0  0  0  0  0  0  0  0  0  0
   36.0810   28.7720   35.6720 H   0  0  0  0  0  0  0  0  0  0  0  0
   34.7330   28.3870   37.7660 H   0  0  0  0  0  0  0  0  0  0  0  0
   36.1890   29.6330   41.9270 O   0  0  0  0  0  0  0  0  0  0  0  0
   35.8910   28.6660   41.9030 H   0  0  0  0  0  0  0  0  0  0  0  0
   38.0950   28.4870   43.5740 O   0  0  0  0  0  0  0  0  0  0  0  0
   38.4080   27.1700   43.2720 C   0  0  0  0  0  0  0  0  0  0  0  0
   37.4440   26.4870   42.5330 C   0  0  0  0  0  0  0  0  0  0  0  0
   36.5260   26.9340   42.2160 H   0  0  0  0  0  0  0  0  0  0  0  0
   37.6950   25.1640   42.1970 C   0  0  0  0  0  3  0  0  0  0  0  0
   38.8760   24.5290   42.5840 C   0  0  0  0  0  0  0  0  0  0  0  0
   39.1100   23.5040   42.3430 H   0  0  0  0  0  0  0  0  0  0  0  0
   39.7950   25.2670   43.3200 C   0  0  0  0  0  0  0  0  0  0  0  0
   40.7240   24.7670   43.6230 H   0  0  0  0  0  0  0  0  0  0  0  0
   39.5940   26.5860   43.6790 C   0  0  0  0  0  3  0  0  0  0  0  0
  1 22  1  0  0  0  0
  1  6  1  0  0  0  0
  2  1  2  0  0  0  0
  3  2  1  0  0  0  0
  3  4  2  0  0  0  0
  4  5  1  0  0  0  0
  5  6  2  0  0  0  0
  5  9  1  0  0  0  0
  6 24  1  0  0  0  0
  7  3  1  0  0  0  0
  8  4  1  0  0  0  0
 10 12  1  0  0  0  0
 10  2  1  0  0  0  0
 11 10  1  0  0  0  0
 13 14  2  0  0  0  0
 13 18  1  0  0  0  0
 14 15  1  0  0  0  0
 15 16  2  0  0  0  0
 17 16  1  0  0  0  0
 17 10  1  0  0  0  0
 18 17  2  0  0  0  0
 19 13  1  0  0  0  0
 20 14  1  0  0  0  0
 21 15  1  0  0  0  0
 23 22  1  0  0  0  0
 25 24  1  0  0  0  0
 25 33  1  0  0  0  0
 26 25  2  0  0  0  0
 27 26  1  0  0  0  0
 28 26  1  0  0  0  0
 28 29  2  0  0  0  0
 29 31  1  0  0  0  0
 30 29  1  0  0  0  0
 31 32  1  0  0  0  0
 31 33  2  0  0  0  0
M  END
>  <minimizedAffinity>
-5.65653229

$$$$

 OpenBabel03242522343D

 33 35  0  0  0  0  0  0  0  0999 V2000
   37.0800   29.4520   41.9490 C   0  0  0  0  0  0  0  0  0  0  0  0
   38.0150   28.9750   42.8390 C   0  0  0  0  0  0  0  0  0  0  0  0
   39.2090   29.6470   42.9360 C   0  0  0  0  0  0  0  0  0  0  0  0
   39.5420   30.7830   42.1960 C   0  0  0  0  0  0  0  0  0  0  0  0
   38.5730   31.2440   41.3010 C   0  0  0  0  0  0  0  0  0  0  0  0
   37.3630   30.5720   41.1930 C   0  0  0  0  0  0  0  0  0  0  0  0
   39.9740   29.3230   43.6110 H   0  0  0  0  0  0  0  0  0  0  0  0
   40.4710   31.2930   42.2830 H   0  0  0  0  0  0  0  0  0  0  0  0
   38.8200   32.1230   40.7230 H   0  0  0  0  0  0  0  0  0  0  0  0
   37.7850   27.7830   43.6800 C   0  0  0  0  0  0  0  0  0  0  0  0
   36.7580   27.7520   44.0400 H   0  0  0  0  0  0  0  0  0  0  0  0
   38.4220   27.8680   44.6080 H   0  0  0  0  0  0  0  0  0  0  0  0
   39.4290   24.8780   42.0290 C   0  0  0  0  0  0  0  0  0  0  0  0
   38.3220   24.1910   41.5310 C   0  0  0  0  0  0  0  0  0  0  0  0
   37.0640   24.7300   41.7690 C   0  0  0  0  0  0  0  0  0  0  0  0
   36.9470   25.8870   42.4650 N   0  0  0  0  0  0  0  0  0  0  0  0
   38.0560   26.5270   42.9340 C   0  0  0  0  0  0  0  0  0  0  0  0
   39.2810   26.0140   42.7100 N   0  0  0  0  0  0  0  0  0  0  0  0
   40.4760   24.5860   41.9260 H   0  0  0  0  0  0  0  0  0  0  0  0
   38.5420   23.2790   40.9920 H   0  0  0  0  0  0  0  0  0  0  0  0
   36.2240   24.1880   41.3790 H   0  0  0  0  0  0  0  0  0  0  0  0
   35.8700   28.8210   41.8080 O   0  0  0  0  0  0  0  0  0  0  0  0
   34.9760   29.2960   41.8450 H   0  0  0  0  0  0  0  0  0  0  0  0
   36.4430   31.0680   40.2980 O   0  0  0  0  0  0  0  0  0  0  0  0
   36.6180   30.7740   38.9530 C   0  0  0  0  0  0  0  0  0  0  0  0
   35.9330   29.6480   38.4990 C   0  0  0  0  0  0  0  0  0  0  0  0
   35.3150   29.0470   39.1310 H   0  0  0  0  0  0  0  0  0  0  0  0
   36.0650   29.2990   37.1630 C   0  0  0  0  0  3  0  0  0  0  0  0
   36.8570   30.0470   36.2920 C   0  0  0  0  0  0  0  0  0  0  0  0
   36.9860   29.8100   35.2470 H   0  0  0  0  0  0  0  0  0  0  0  0
   37.5130   31.1580   36.8090 C   0  0  0  0  0  0  0  0  0  0  0  0
   38.1370   31.7470   36.1230 H   0  0  0  0  0  0  0  0  0  0  0  0
   37.4150   31.5490   38.1300 C   0  0  0  0  0  3  0  0  0  0  0  0
  1  2  1  0  0  0  0
  2  3  2  0  0  0  0
  2 10  1  0  0  0  0
  3  7  1  0  0  0  0
  4  8  1  0  0  0  0
  4  3  1  0  0  0  0
  5  4  2  0  0  0  0
  6  5  1  0  0  0  0
  6  1  2  0  0  0  0
  9  5  1  0  0  0  0
 10 11  1  0  0  0  0
 10 12  1  0  0  0  0
 13 18  1  0  0  0  0
 14 15  1  0  0  0  0
 14 13  2  0  0  0  0
 15 16  2  0  0  0  0
 16 17  1  0  0  0  0
 17 10  1  0  0  0  0
 18 17  2  0  0  0  0
 19 13  1  0  0  0  0
 20 14  1  0  0  0  0
 21 15  1  0  0  0  0
 22 23  1  0  0  0  0
 22  1  1  0  0  0  0
 24  6  1  0  0  0  0
 25 24  1  0  0  0  0
 26 25  1  0  0  0  0
 26 27  1  0  0  0  0
 28 26  2  0  0  0  0
 29 31  2  0  0  0  0
 29 28  1  0  0  0  0
 30 29  1  0  0  0  0
 31 33  1  0  0  0  0
 32 31  1  0  0  0  0
 33 25  2  0  0  0  0
M  END
>  <minimizedAffinity>
-5.64944124

$$$$

 OpenBabel03242522343D

 33 35  0  0  0  0  0  0  0  0999 V2000
   37.5620   31.1070   41.1790 C   0  0  0  0  0  0  0  0  0  0  0  0
   38.6460   31.9430   41.0440 C   0  0  0  0  0  0  0  0  0  0  0  0
   39.8020   31.6060   41.7050 C   0  0  0  0  0  0  0  0  0  0  0  0
   39.9560   30.4710   42.5040 C   0  0  0  0  0  0  0  0  0  0  0  0
   38.8390   29.6410   42.6230 C   0  0  0  0  0  0  0  0  0  0  0  0
   37.6640   29.9730   41.9590 C   0  0  0  0  0  0  0  0  0  0  0  0
   40.6780   32.2180   41.6380 H   0  0  0  0  0  0  0  0  0  0  0  0
   40.8590   30.2230   43.0100 H   0  0  0  0  0  0  0  0  0  0  0  0
   38.9470   28.7610   43.2380 H   0  0  0  0  0  0  0  0  0  0  0  0
   38.6120   33.1730   40.2280 C   0  0  0  0  0  0  0  0  0  0  0  0
   38.6220   34.0610   40.8590 H   0  0  0  0  0  0  0  0  0  0  0  0
   37.6270   33.2130   39.6780 H   0  0  0  0  0  0  0  0  0  0  0  0
   41.7600   34.1500   38.4960 C   0  0  0  0  0  0  0  0  0  0  0  0
   41.8130   33.1970   37.4790 C   0  0  0  0  0  0  0  0  0  0  0  0
   40.7890   32.2610   37.4130 C   0  0  0  0  0  0  0  0  0  0  0  0
   39.7830   32.2980   38.3220 N   0  0  0  0  0  0  0  0  0  0  0  0
   39.7700   33.2470   39.3000 C   0  0  0  0  0  0  0  0  0  0  0  0
   40.7580   34.1600   39.3750 N   0  0  0  0  0  0  0  0  0  0  0  0
   42.4840   34.9460   38.6800 H   0  0  0  0  0  0  0  0  0  0  0  0
   42.6640   33.2690   36.8160 H   0  0  0  0  0  0  0  0  0  0  0  0
   40.8460   31.5360   36.6260 H   0  0  0  0  0  0  0  0  0  0  0  0
   36.3810   31.3930   40.5430 O   0  0  0  0  0  0  0  0  0  0  0  0
   35.8700   30.7310   39.9710 H   0  0  0  0  0  0  0  0  0  0  0  0
   36.5940   29.1210   42.1090 O   0  0  0  0  0  0  0  0  0  0  0  0
   36.7280   27.8180   41.6510 C   0  0  0  0  0  0  0  0  0  0  0  0
   36.9070   26.8570   42.6450 C   0  0  0  0  0  0  0  0  0  0  0  0
   36.9400   27.0940   43.6870 H   0  0  0  0  0  0  0  0  0  0  0  0
   37.0480   25.5330   42.2540 C   0  0  0  0  0  3  0  0  0  0  0  0
   37.0120   25.1660   40.9090 C   0  0  0  0  0  0  0  0  0  0  0  0
   37.1170   24.1490   40.5630 H   0  0  0  0  0  0  0  0  0  0  0  0
   36.8310   26.1730   39.9690 C   0  0  0  0  0  0  0  0  0  0  0  0
   36.8030   25.8840   38.9100 H   0  0  0  0  0  0  0  0  0  0  0  0
   36.6850   27.5050   40.3050 C   0  0  0  0  0  3  0  0  0  0  0  0
  1  6  1  0  0  0  0
  2  1  2  0  0  0  0
  2  3  1  0  0  0  0
  3  4  2  0  0  0  0
  4  5  1  0  0  0  0
  4  8  1  0  0  0  0
  5  9  1  0  0  0  0
  6 24  1  0  0  0  0
  6  5  2  0  0  0  0
  7  3  1  0  0  0  0
 10 11  1  0  0  0  0
 10  2  1  0  0  0  0
 12 10  1  0  0  0  0
 13 19  1  0  0  0  0
 13 18  1  0  0  0  0
 14 13  2  0  0  0  0
 15 14  1  0  0  0  0
 15 16  2  0  0  0  0
 16 17  1  0  0  0  0
 17 18  2  0  0  0  0
 17 10  1  0  0  0  0
 20 14  1  0  0  0  0
 21 15  1  0  0  0  0
 22  1  1  0  0  0  0
 23 22  1  0  0  0  0
 25 24  1  0  0  0  0
 25 26  1  0  0  0  0
 26 27  1  0  0  0  0
 28 26  2  0  0  0  0
 29 28  1  0  0  0  0
 30 29  1  0  0  0  0
 31 33  1  0  0  0  0
 31 29  2  0  0  0  0
 32 31  1  0  0  0  0
 33 25  2  0  0  0  0
M  END
>  <minimizedAffinity>
-5.64658213

$$$$

 OpenBabel03242522343D

 33 35  0  0  0  0  0  0  0  0999 V2000
   36.7040   29.4340   41.3630 C   0  0  0  0  0  0  0  0  0  0  0  0
   36.7210   30.2040   40.2220 C   0  0  0  0  0  0  0  0  0  0  0  0
   36.5410   29.5690   39.0180 C   0  0  0  0  0  0  0  0  0  0  0  0
   36.3390   28.1960   38.8670 C   0  0  0  0  0  0  0  0  0  0  0  0
   36.3260   27.4400   40.0420 C   0  0  0  0  0  0  0  0  0  0  0  0
   36.5080   28.0710   41.2660 C   0  0  0  0  0  0  0  0  0  0  0  0
   36.5450   30.1160   38.0970 H   0  0  0  0  0  0  0  0  0  0  0  0
   36.2010   27.7190   37.9260 H   0  0  0  0  0  0  0  0  0  0  0  0
   36.1710   26.3770   39.9370 H   0  0  0  0  0  0  0  0  0  0  0  0
   36.9260   31.6660   40.2460 C   0  0  0  0  0  0  0  0  0  0  0  0
   36.5800   32.0930   41.1870 H   0  0  0  0  0  0  0  0  0  0  0  0
   36.2740   32.1340   39.4520 H   0  0  0  0  0  0  0  0  0  0  0  0
   40.2140   32.7040   38.8420 C   0  0  0  0  0  0  0  0  0  0  0  0
   41.0240   32.6340   39.9760 C   0  0  0  0  0  0  0  0  0  0  0  0
   40.4340   32.2400   41.1700 C   0  0  0  0  0  0  0  0  0  0  0  0
   39.1130   31.9400   41.2030 N   0  0  0  0  0  0  0  0  0  0  0  0
   38.3570   32.0220   40.0710 C   0  0  0  0  0  0  0  0  0  0  0  0
   38.9170   32.4030   38.9060 N   0  0  0  0  0  0  0  0  0  0  0  0
   40.5260   32.9940   37.8370 H   0  0  0  0  0  0  0  0  0  0  0  0
   42.0620   32.8970   39.8240 H   0  0  0  0  0  0  0  0  0  0  0  0
   41.0710   32.1920   42.0310 H   0  0  0  0  0  0  0  0  0  0  0  0
   36.8790   30.0130   42.5940 O   0  0  0  0  0  0  0  0  0  0  0  0
   36.2640   29.8600   43.3840 H   0  0  0  0  0  0  0  0  0  0  0  0
   36.4860   27.2810   42.3920 O   0  0  0  0  0  0  0  0  0  0  0  0
   37.5820   26.4680   42.6420 C   0  0  0  0  0  0  0  0  0  0  0  0
   38.6020   27.0610   43.3840 C   0  0  0  0  0  0  0  0  0  0  0  0
   38.5550   28.0670   43.7410 H   0  0  0  0  0  0  0  0  0  0  0  0
   39.7280   26.3010   43.6680 C   0  0  0  0  0  3  0  0  0  0  0  0
   39.8440   24.9820   43.2280 C   0  0  0  0  0  0  0  0  0  0  0  0
   40.7010   24.3580   43.4280 H   0  0  0  0  0  0  0  0  0  0  0  0
   38.7910   24.4520   42.4920 C   0  0  0  0  0  0  0  0  0  0  0  0
   38.8820   23.4140   42.1460 H   0  0  0  0  0  0  0  0  0  0  0  0
   37.6490   25.1650   42.1830 C   0  0  0  0  0  3  0  0  0  0  0  0
  1 22  1  0  0  0  0
  2 10  1  0  0  0  0
  2  1  2  0  0  0  0
  3  2  1  0  0  0  0
  4  3  2  0  0  0  0
  4  5  1  0  0  0  0
  5  6  2  0  0  0  0
  6  1  1  0  0  0  0
  6 24  1  0  0  0  0
  7  3  1  0  0  0  0
  8  4  1  0  0  0  0
  9  5  1  0  0  0  0
 10 11  1  0  0  0  0
 12 10  1  0  0  0  0
 13 18  2  0  0  0  0
 13 14  1  0  0  0  0
 14 15  2  0  0  0  0
 15 16  1  0  0  0  0
 15 21  1  0  0  0  0
 17 10  1  0  0  0  0
 17 16  2  0  0  0  0
 18 17  1  0  0  0  0
 19 13  1  0  0  0  0
 20 14  1  0  0  0  0
 22 23  1  0  0  0  0
 24 25  1  0  0  0  0
 25 26  1  0  0  0  0
 26 28  2  0  0  0  0
 26 27  1  0  0  0  0
 29 30  1  0  0  0  0
 29 28  1  0  0  0  0
 31 29  2  0  0  0  0
 32 31  1  0  0  0  0
 33 31  1  0  0  0  0
 33 25  2  0  0  0  0
M  END
>  <minimizedAffinity>
-5.63534975

$$$$

 OpenBabel03242522343D

 33 35  0  0  0  0  0  0  0  0999 V2000
   34.9330   29.4670   39.1680 C   0  0  0  0  0  0  0  0  0  0  0  0
   36.0870   30.0840   39.5960 C   0  0  0  0  0  0  0  0  0  0  0  0
   37.0770   30.3050   38.6700 C   0  0  0  0  0  0  0  0  0  0  0  0
   36.9960   29.9490   37.3220 C   0  0  0  0  0  0  0  0  0  0  0  0
   35.8130   29.3250   36.9170 C   0  0  0  0  0  0  0  0  0  0  0  0
   34.8060   29.0950   37.8460 C   0  0  0  0  0  0  0  0  0  0  0  0
   37.9960   30.7800   38.9440 H   0  0  0  0  0  0  0  0  0  0  0  0
   37.7720   30.1270   36.6170 H   0  0  0  0  0  0  0  0  0  0  0  0
   35.7400   29.0450   35.8770 H   0  0  0  0  0  0  0  0  0  0  0  0
   36.2960   30.5090   40.9950 C   0  0  0  0  0  0  0  0  0  0  0  0
   35.3560   30.8030   41.4580 H   0  0  0  0  0  0  0  0  0  0  0  0
   36.9310   31.4420   40.9960 H   0  0  0  0  0  0  0  0  0  0  0  0
   36.9480   27.3110   42.7860 C   0  0  0  0  0  0  0  0  0  0  0  0
   38.1950   27.5710   43.3540 C   0  0  0  0  0  0  0  0  0  0  0  0
   38.7710   28.8120   43.1140 C   0  0  0  0  0  0  0  0  0  0  0  0
   38.1180   29.7210   42.3490 N   0  0  0  0  0  0  0  0  0  0  0  0
   36.9000   29.4250   41.8120 C   0  0  0  0  0  0  0  0  0  0  0  0
   36.3310   28.2250   42.0380 N   0  0  0  0  0  0  0  0  0  0  0  0
   36.3700   26.3900   42.8810 H   0  0  0  0  0  0  0  0  0  0  0  0
   38.6150   26.7680   43.9450 H   0  0  0  0  0  0  0  0  0  0  0  0
   39.7290   28.9950   43.5580 H   0  0  0  0  0  0  0  0  0  0  0  0
   33.9110   29.2200   40.0490 O   0  0  0  0  0  0  0  0  0  0  0  0
   32.9450   29.4740   39.8810 H   0  0  0  0  0  0  0  0  0  0  0  0
   33.6620   28.4780   37.3940 O   0  0  0  0  0  0  0  0  0  0  0  0
   32.7590   29.2330   36.6590 C   0  0  0  0  0  0  0  0  0  0  0  0
   31.7110   29.7850   37.3950 C   0  0  0  0  0  0  0  0  0  0  0  0
   31.6000   29.6440   38.4490 H   0  0  0  0  0  0  0  0  0  0  0  0
   30.7730   30.5510   36.7190 C   0  0  0  0  0  3  0  0  0  0  0  0
   30.8680   30.7690   35.3440 C   0  0  0  0  0  0  0  0  0  0  0  0
   30.1600   31.3590   34.7820 H   0  0  0  0  0  0  0  0  0  0  0  0
   31.9360   30.1900   34.6710 C   0  0  0  0  0  0  0  0  0  0  0  0
   32.0110   30.3620   33.5890 H   0  0  0  0  0  0  0  0  0  0  0  0
   32.8970   29.4200   35.2960 C   0  0  0  0  0  3  0  0  0  0  0  0
  1  2  1  0  0  0  0
  1 22  1  0  0  0  0
  2 10  1  0  0  0  0
  3  7  1  0  0  0  0
  3  2  2  0  0  0  0
  4  3  1  0  0  0  0
  5  4  2  0  0  0  0
  5  6  1  0  0  0  0
  6  1  2  0  0  0  0
  8  4  1  0  0  0  0
  9  5  1  0  0  0  0
 10 12  1  0  0  0  0
 10 11  1  0  0  0  0
 10 17  1  0  0  0  0
 13 19  1  0  0  0  0
 13 14  1  0  0  0  0
 14 20  1  0  0  0  0
 15 14  2  0  0  0  0
 15 21  1  0  0  0  0
 16 15  1  0  0  0  0
 17 18  1  0  0  0  0
 17 16  2  0  0  0  0
 18 13  2  0  0  0  0
 23 22  1  0  0  0  0
 24  6  1  0  0  0  0
 25 24  1  0  0  0  0
 25 26  1  0  0  0  0
 26 27  1  0  0  0  0
 28 26  2  0  0  0  0
 29 28  1  0  0  0  0
 30 29  1  0  0  0  0
 31 33  1  0  0  0  0
 31 29  2  0  0  0  0
 32 31  1  0  0  0  0
 33 25  2  0  0  0  0
M  END
>  <minimizedAffinity>
-5.53536463

$$$$

 OpenBabel03242522343D

 33 35  0  0  0  0  0  0  0  0999 V2000
   33.6720   29.1070   38.6470 C   0  0  0  0  0  0  0  0  0  0  0  0
   34.9710   29.1100   39.1010 C   0  0  0  0  0  0  0  0  0  0  0  0
   35.9710   28.9000   38.1820 C   0  0  0  0  0  0  0  0  0  0  0  0
   35.7630   28.6850   36.8190 C   0  0  0  0  0  0  0  0  0  0  0  0
   34.4340   28.6870   36.3870 C   0  0  0  0  0  0  0  0  0  0  0  0
   33.4150   28.8970   37.3070 C   0  0  0  0  0  0  0  0  0  0  0  0
   37.0000   28.8920   38.4760 H   0  0  0  0  0  0  0  0  0  0  0  0
   36.5490   28.5240   36.1200 H   0  0  0  0  0  0  0  0  0  0  0  0
   34.2620   28.5210   35.3340 H   0  0  0  0  0  0  0  0  0  0  0  0
   35.3240   29.3260   40.5180 C   0  0  0  0  0  0  0  0  0  0  0  0
   35.5710   28.3850   41.0070 H   0  0  0  0  0  0  0  0  0  0  0  0
   34.4120   29.7110   41.0610 H   0  0  0  0  0  0  0  0  0  0  0  0
   37.5990   32.2710   40.4010 C   0  0  0  0  0  0  0  0  0  0  0  0
   38.7340   31.7580   41.0270 C   0  0  0  0  0  0  0  0  0  0  0  0
   38.6930   30.4400   41.4650 C   0  0  0  0  0  0  0  0  0  0  0  0
   37.5720   29.7020   41.2770 N   0  0  0  0  0  0  0  0  0  0  0  0
   36.4830   30.2440   40.6600 C   0  0  0  0  0  0  0  0  0  0  0  0
   36.5110   31.5200   40.2300 N   0  0  0  0  0  0  0  0  0  0  0  0
   37.4760   33.2810   40.0040 H   0  0  0  0  0  0  0  0  0  0  0  0
   39.5660   32.4430   41.1190 H   0  0  0  0  0  0  0  0  0  0  0  0
   39.5750   30.0620   41.9440 H   0  0  0  0  0  0  0  0  0  0  0  0
   32.6320   29.3100   39.5180 O   0  0  0  0  0  0  0  0  0  0  0  0
   31.8900   29.9830   39.3670 H   0  0  0  0  0  0  0  0  0  0  0  0
   32.1240   28.8900   36.8300 O   0  0  0  0  0  0  0  0  0  0  0  0
   31.6640   30.0230   36.1730 C   0  0  0  0  0  0  0  0  0  0  0  0
   30.8550   30.8620   36.9370 C   0  0  0  0  0  0  0  0  0  0  0  0
   30.6000   30.6590   37.9550 H   0  0  0  0  0  0  0  0  0  0  0  0
   30.3620   32.0130   36.3400 C   0  0  0  0  0  3  0  0  0  0  0  0
   30.6620   32.3290   35.0140 C   0  0  0  0  0  0  0  0  0  0  0  0
   30.3000   33.2130   34.5130 H   0  0  0  0  0  0  0  0  0  0  0  0
   31.4740   31.4490   34.3090 C   0  0  0  0  0  0  0  0  0  0  0  0
   31.7100   31.6970   33.2660 H   0  0  0  0  0  0  0  0  0  0  0  0
   31.9910   30.2910   34.8570 C   0  0  0  0  0  3  0  0  0  0  0  0
  1  2  1  0  0  0  0
  1 22  1  0  0  0  0
  2 10  1  0  0  0  0
  3  7  1  0  0  0  0
  3  2  2  0  0  0  0
  4  3  1  0  0  0  0
  5  4  2  0  0  0  0
  5  6  1  0  0  0  0
  6  1  2  0  0  0  0
  8  4  1  0  0  0  0
  9  5  1  0  0  0  0
 10 17  1  0  0  0  0
 10 11  1  0  0  0  0
 10 12  1  0  0  0  0
 13 14  1  0  0  0  0
 14 20  1  0  0  0  0
 14 15  2  0  0  0  0
 15 21  1  0  0  0  0
 16 15  1  0  0  0  0
 17 16  2  0  0  0  0
 18 13  2  0  0  0  0
 18 17  1  0  0  0  0
 19 13  1  0  0  0  0
 23 22  1  0  0  0  0
 24  6  1  0  0  0  0
 25 24  1  0  0  0  0
 25 26  1  0  0  0  0
 26 27  1  0  0  0  0
 28 26  2  0  0  0  0
 29 28  1  0  0  0  0
 30 29  1  0  0  0  0
 31 33  1  0  0  0  0
 31 29  2  0  0  0  0
 32 31  1  0  0  0  0
 33 25  2  0  0  0  0
M  END
>  <minimizedAffinity>
-5.40082502

$$$$
