
 OpenBabel03252501573D

 31 33  0  0  0  0  0  0  0  0999 V2000
   39.7930   32.1850   40.7770 C   0  0  0  0  0  0  0  0  0  0  0  0
   38.8440   31.1970   40.4310 C   0  0  0  0  0  0  0  0  0  0  0  0
   37.6250   31.6790   39.9490 C   0  0  0  0  0  0  0  0  0  0  0  0
   37.4170   33.0150   39.8430 N   0  0  0  0  0  0  0  0  0  0  0  0
   38.3750   33.9040   40.1970 C   0  0  0  0  0  0  0  0  0  0  0  0
   39.5820   33.4990   40.6700 N   0  0  0  0  0  0  0  0  0  0  0  0
   40.7540   31.8580   41.1530 H   0  0  0  0  0  0  0  0  0  0  0  0
   37.9950   34.9020   40.0350 H   0  0  0  0  0  0  0  0  0  0  0  0
   36.6100   30.6950   39.5820 C   0  0  0  0  0  0  0  0  0  0  0  0
   35.6050   30.1700   40.3820 C   0  0  0  0  0  0  0  0  0  0  0  0
   34.7270   29.2400   39.8780 C   0  0  0  0  0  0  0  0  0  0  0  0
   34.8540   28.8350   38.5750 C   0  0  0  0  0  0  0  0  0  0  0  0
   35.8460   29.3490   37.7690 C   0  0  0  0  0  0  0  0  0  0  0  0
   36.7370   30.2920   38.2790 C   0  0  0  0  0  0  0  0  0  0  0  0
   35.6570   30.6090   41.3950 H   0  0  0  0  0  0  0  0  0  0  0  0
   33.9830   28.9040   40.6090 H   0  0  0  0  0  0  0  0  0  0  0  0
   34.1300   28.0940   38.2320 H   0  0  0  0  0  0  0  0  0  0  0  0
   35.9040   28.9980   36.7520 H   0  0  0  0  0  0  0  0  0  0  0  0
   37.4720   30.6310   37.5790 H   0  0  0  0  0  0  0  0  0  0  0  0
   39.1960   29.8080   40.6100 C   0  0  0  0  0  0  0  0  0  0  0  0
   40.3130   29.7820   40.8730 H   0  0  0  0  0  0  0  0  0  0  0  0
   39.0750   29.2770   39.6170 H   0  0  0  0  0  0  0  0  0  0  0  0
   38.4850   29.0480   41.6230 C   0  0  0  0  0  0  0  0  0  0  0  0
   38.1320   29.2720   42.9390 C   0  0  0  0  0  0  0  0  0  0  0  0
   38.4830   30.2700   43.2580 H   0  0  0  0  0  0  0  0  0  0  0  0
   37.4470   28.3430   43.6790 C   0  0  0  0  0  3  0  0  0  0  0  0
   37.0570   27.1370   43.2010 C   0  0  0  0  0  0  0  0  0  0  0  0
   36.5250   26.4420   43.8140 H   0  0  0  0  0  0  0  0  0  0  0  0
   37.3870   26.8530   41.8720 C   0  0  0  0  0  0  0  0  0  0  0  0
   37.0720   25.8880   41.5050 H   0  0  0  0  0  0  0  0  0  0  0  0
   38.0790   27.8020   41.1370 C   0  0  0  0  0  3  0  0  0  0  0  0
  1  7  1  0  0  0  0
  2 20  1  0  0  0  0
  2  1  2  0  0  0  0
  3  2  1  0  0  0  0
  4  3  2  0  0  0  0
  4  5  1  0  0  0  0
  5  6  2  0  0  0  0
  6  1  1  0  0  0  0
  8  5  1  0  0  0  0
  9  3  1  0  0  0  0
  9 10  1  0  0  0  0
 10 15  1  0  0  0  0
 11 10  2  0  0  0  0
 11 16  1  0  0  0  0
 12 11  1  0  0  0  0
 13 14  1  0  0  0  0
 13 12  2  0  0  0  0
 14  9  2  0  0  0  0
 17 12  1  0  0  0  0
 18 13  1  0  0  0  0
 19 14  1  0  0  0  0
 20 21  1  0  0  0  0
 20 23  1  0  0  0  0
 22 20  1  0  0  0  0
 23 24  1  0  0  0  0
 24 25  1  0  0  0  0
 24 26  2  0  0  0  0
 27 26  1  0  0  0  0
 27 28  1  0  0  0  0
 29 27  2  0  0  0  0
 30 29  1  0  0  0  0
 31 23  2  0  0  0  0
 31 29  1  0  0  0  0
M  END
>  <minimizedAffinity>
-5.68209648

$$$$

 OpenBabel03252501573D

 31 33  0  0  0  0  0  0  0  0999 V2000
   35.5810   29.1540   38.3390 C   0  0  0  0  0  0  0  0  0  0  0  0
   36.2370   30.1880   39.0450 C   0  0  0  0  0  0  0  0  0  0  0  0
   37.1200   30.9640   38.2920 C   0  0  0  0  0  0  0  0  0  0  0  0
   37.3020   30.6990   36.9730 N   0  0  0  0  0  0  0  0  0  0  0  0
   36.6390   29.6880   36.3640 C   0  0  0  0  0  0  0  0  0  0  0  0
   35.7650   28.8980   37.0410 N   0  0  0  0  0  0  0  0  0  0  0  0
   34.8860   28.5280   38.8810 H   0  0  0  0  0  0  0  0  0  0  0  0
   36.9380   29.6570   35.3260 H   0  0  0  0  0  0  0  0  0  0  0  0
   37.8230   32.0420   38.9800 C   0  0  0  0  0  0  0  0  0  0  0  0
   37.2990   33.2430   39.4390 C   0  0  0  0  0  0  0  0  0  0  0  0
   38.1070   34.1610   40.0660 C   0  0  0  0  0  0  0  0  0  0  0  0
   39.4370   33.8800   40.2360 C   0  0  0  0  0  0  0  0  0  0  0  0
   39.9710   32.6910   39.7870 C   0  0  0  0  0  0  0  0  0  0  0  0
   39.1530   31.7590   39.1500 C   0  0  0  0  0  0  0  0  0  0  0  0
   36.2190   33.2970   39.2150 H   0  0  0  0  0  0  0  0  0  0  0  0
   37.5740   35.0660   40.3790 H   0  0  0  0  0  0  0  0  0  0  0  0
   40.0280   34.6470   40.7400 H   0  0  0  0  0  0  0  0  0  0  0  0
   41.0230   32.5180   39.9440 H   0  0  0  0  0  0  0  0  0  0  0  0
   39.6570   30.8690   38.8360 H   0  0  0  0  0  0  0  0  0  0  0  0
   35.9570   30.3460   40.4540 C   0  0  0  0  0  0  0  0  0  0  0  0
   34.8180   30.2770   40.5740 H   0  0  0  0  0  0  0  0  0  0  0  0
   36.2630   31.3920   40.7640 H   0  0  0  0  0  0  0  0  0  0  0  0
   36.5570   29.4020   41.3790 C   0  0  0  0  0  0  0  0  0  0  0  0
   36.2530   28.1220   41.7980 C   0  0  0  0  0  0  0  0  0  0  0  0
   35.3400   27.7660   41.2870 H   0  0  0  0  0  0  0  0  0  0  0  0
   37.0180   27.4540   42.7190 C   0  0  0  0  0  3  0  0  0  0  0  0
   38.1270   27.9750   43.2980 C   0  0  0  0  0  0  0  0  0  0  0  0
   38.6940   27.4200   44.0130 H   0  0  0  0  0  0  0  0  0  0  0  0
   38.4860   29.2700   42.9130 C   0  0  0  0  0  0  0  0  0  0  0  0
   39.3700   29.6740   43.3820 H   0  0  0  0  0  0  0  0  0  0  0  0
   37.7030   29.9330   41.9800 C   0  0  0  0  0  3  0  0  0  0  0  0
  1  7  1  0  0  0  0
  1  2  1  0  0  0  0
  2 20  1  0  0  0  0
  3  9  1  0  0  0  0
  3  2  2  0  0  0  0
  4  3  1  0  0  0  0
  5  4  2  0  0  0  0
  5  6  1  0  0  0  0
  6  1  2  0  0  0  0
  8  5  1  0  0  0  0
  9 14  2  0  0  0  0
  9 10  1  0  0  0  0
 10 11  2  0  0  0  0
 11 12  1  0  0  0  0
 11 16  1  0  0  0  0
 12 17  1  0  0  0  0
 13 18  1  0  0  0  0
 13 12  2  0  0  0  0
 14 13  1  0  0  0  0
 15 10  1  0  0  0  0
 19 14  1  0  0  0  0
 20 21  1  0  0  0  0
 20 22  1  0  0  0  0
 20 23  1  0  0  0  0
 23 24  2  0  0  0  0
 23 31  1  0  0  0  0
 24 26  1  0  0  0  0
 25 24  1  0  0  0  0
 26 27  2  0  0  0  0
 27 28  1  0  0  0  0
 29 27  1  0  0  0  0
 29 30  1  0  0  0  0
 31 29  2  0  0  0  0
M  END
>  <minimizedAffinity>
-5.6631093

$$$$

 OpenBabel03252501573D

 31 33  0  0  0  0  0  0  0  0999 V2000
   35.1650   27.3820   38.0450 C   0  0  0  0  0  0  0  0  0  0  0  0
   35.7010   27.9190   39.2370 C   0  0  0  0  0  0  0  0  0  0  0  0
   36.5510   27.0700   39.9500 C   0  0  0  0  0  0  0  0  0  0  0  0
   36.8100   25.8210   39.4850 N   0  0  0  0  0  0  0  0  0  0  0  0
   36.2560   25.3740   38.3330 C   0  0  0  0  0  0  0  0  0  0  0  0
   35.4230   26.1520   37.5940 N   0  0  0  0  0  0  0  0  0  0  0  0
   34.5030   28.0040   37.4590 H   0  0  0  0  0  0  0  0  0  0  0  0
   36.5930   24.3630   38.1600 H   0  0  0  0  0  0  0  0  0  0  0  0
   37.1260   27.5800   41.1910 C   0  0  0  0  0  0  0  0  0  0  0  0
   36.5290   27.6440   42.4420 C   0  0  0  0  0  0  0  0  0  0  0  0
   37.2140   28.1630   43.5150 C   0  0  0  0  0  0  0  0  0  0  0  0
   38.4950   28.6160   43.3380 C   0  0  0  0  0  0  0  0  0  0  0  0
   39.1010   28.5570   42.1020 C   0  0  0  0  0  0  0  0  0  0  0  0
   38.4070   28.0310   41.0130 C   0  0  0  0  0  0  0  0  0  0  0  0
   35.5030   27.2380   42.3960 H   0  0  0  0  0  0  0  0  0  0  0  0
   36.6330   28.1590   44.4440 H   0  0  0  0  0  0  0  0  0  0  0  0
   38.9880   29.0180   44.2260 H   0  0  0  0  0  0  0  0  0  0  0  0
   40.1090   28.9270   42.0140 H   0  0  0  0  0  0  0  0  0  0  0  0
   38.9590   28.0280   40.0960 H   0  0  0  0  0  0  0  0  0  0  0  0
   35.3270   29.2610   39.6190 C   0  0  0  0  0  0  0  0  0  0  0  0
   35.1870   29.2530   40.7580 H   0  0  0  0  0  0  0  0  0  0  0  0
   34.3190   29.4960   39.1600 H   0  0  0  0  0  0  0  0  0  0  0  0
   36.2400   30.3420   39.2940 C   0  0  0  0  0  0  0  0  0  0  0  0
   36.8940   30.7540   38.1490 C   0  0  0  0  0  0  0  0  0  0  0  0
   36.6340   30.0880   37.3070 H   0  0  0  0  0  0  0  0  0  0  0  0
   37.7290   31.8420   38.1360 C   0  0  0  0  0  3  0  0  0  0  0  0
   37.9910   32.6040   39.2260 C   0  0  0  0  0  0  0  0  0  0  0  0
   38.6510   33.4420   39.1710 H   0  0  0  0  0  0  0  0  0  0  0  0
   37.3580   32.2350   40.4160 C   0  0  0  0  0  0  0  0  0  0  0  0
   37.5760   32.8500   41.2760 H   0  0  0  0  0  0  0  0  0  0  0  0
   36.5160   31.1340   40.4130 C   0  0  0  0  0  3  0  0  0  0  0  0
  1  2  1  0  0  0  0
  2 20  1  0  0  0  0
  2  3  2  0  0  0  0
  3  9  1  0  0  0  0
  4  3  1  0  0  0  0
  5  4  2  0  0  0  0
  6  1  2  0  0  0  0
  6  5  1  0  0  0  0
  7  1  1  0  0  0  0
  8  5  1  0  0  0  0
  9 10  1  0  0  0  0
 10 11  2  0  0  0  0
 11 16  1  0  0  0  0
 12 11  1  0  0  0  0
 12 17  1  0  0  0  0
 13 12  2  0  0  0  0
 14  9  2  0  0  0  0
 14 13  1  0  0  0  0
 15 10  1  0  0  0  0
 18 13  1  0  0  0  0
 19 14  1  0  0  0  0
 20 21  1  0  0  0  0
 22 20  1  0  0  0  0
 23 20  1  0  0  0  0
 23 31  1  0  0  0  0
 24 23  2  0  0  0  0
 25 24  1  0  0  0  0
 26 24  1  0  0  0  0
 26 27  2  0  0  0  0
 27 29  1  0  0  0  0
 28 27  1  0  0  0  0
 29 30  1  0  0  0  0
 31 29  2  0  0  0  0
M  END
>  <minimizedAffinity>
-5.27887106

$$$$

 OpenBabel03252501573D

 31 33  0  0  0  0  0  0  0  0999 V2000
   36.1430   29.8990   38.1890 C   0  0  0  0  0  0  0  0  0  0  0  0
   36.4990   29.6530   39.5340 C   0  0  0  0  0  0  0  0  0  0  0  0
   36.9280   28.3540   39.8150 C   0  0  0  0  0  0  0  0  0  0  0  0
   36.9780   27.4270   38.8250 N   0  0  0  0  0  0  0  0  0  0  0  0
   36.6170   27.7360   37.5570 C   0  0  0  0  0  0  0  0  0  0  0  0
   36.1940   28.9810   37.2200 N   0  0  0  0  0  0  0  0  0  0  0  0
   35.8060   30.8920   37.9240 H   0  0  0  0  0  0  0  0  0  0  0  0
   36.7310   26.8540   36.9440 H   0  0  0  0  0  0  0  0  0  0  0  0
   37.3040   28.0520   41.1930 C   0  0  0  0  0  0  0  0  0  0  0  0
   36.4640   27.8440   42.2780 C   0  0  0  0  0  0  0  0  0  0  0  0
   36.9850   27.5730   43.5200 C   0  0  0  0  0  0  0  0  0  0  0  0
   38.3450   27.5090   43.6790 C   0  0  0  0  0  0  0  0  0  0  0  0
   39.1900   27.7120   42.6100 C   0  0  0  0  0  0  0  0  0  0  0  0
   38.6630   27.9870   41.3490 C   0  0  0  0  0  0  0  0  0  0  0  0
   35.4090   27.9350   41.9650 H   0  0  0  0  0  0  0  0  0  0  0  0
   36.2190   27.4300   44.2910 H   0  0  0  0  0  0  0  0  0  0  0  0
   38.6990   27.2920   44.6880 H   0  0  0  0  0  0  0  0  0  0  0  0
   40.2520   27.6520   42.7870 H   0  0  0  0  0  0  0  0  0  0  0  0
   39.3980   28.1310   40.5840 H   0  0  0  0  0  0  0  0  0  0  0  0
   36.3830   30.7330   40.4870 C   0  0  0  0  0  0  0  0  0  0  0  0
   36.5110   30.2690   41.5290 H   0  0  0  0  0  0  0  0  0  0  0  0
   35.3290   31.1460   40.4330 H   0  0  0  0  0  0  0  0  0  0  0  0
   37.3140   31.8420   40.3790 C   0  0  0  0  0  0  0  0  0  0  0  0
   37.2660   33.1030   39.8160 C   0  0  0  0  0  0  0  0  0  0  0  0
   36.2750   33.2720   39.3570 H   0  0  0  0  0  0  0  0  0  0  0  0
   38.3330   33.9620   39.8590 C   0  0  0  0  0  3  0  0  0  0  0  0
   39.5180   33.6650   40.4460 C   0  0  0  0  0  0  0  0  0  0  0  0
   40.3240   34.3650   40.4550 H   0  0  0  0  0  0  0  0  0  0  0  0
   39.6260   32.4010   41.0340 C   0  0  0  0  0  0  0  0  0  0  0  0
   40.5750   32.1770   41.4970 H   0  0  0  0  0  0  0  0  0  0  0  0
   38.5390   31.5430   40.9830 C   0  0  0  0  0  3  0  0  0  0  0  0
  1  2  1  0  0  0  0
  2  3  2  0  0  0  0
  2 20  1  0  0  0  0
  3  9  1  0  0  0  0
  4  3  1  0  0  0  0
  5  4  2  0  0  0  0
  6  5  1  0  0  0  0
  6  1  2  0  0  0  0
  7  1  1  0  0  0  0
  8  5  1  0  0  0  0
  9 14  2  0  0  0  0
  9 10  1  0  0  0  0
 10 11  2  0  0  0  0
 11 12  1  0  0  0  0
 11 16  1  0  0  0  0
 12 17  1  0  0  0  0
 13 18  1  0  0  0  0
 13 12  2  0  0  0  0
 14 13  1  0  0  0  0
 15 10  1  0  0  0  0
 19 14  1  0  0  0  0
 20 21  1  0  0  0  0
 22 20  1  0  0  0  0
 23 20  1  0  0  0  0
 23 31  1  0  0  0  0
 24 26  1  0  0  0  0
 24 23  2  0  0  0  0
 25 24  1  0  0  0  0
 26 27  2  0  0  0  0
 27 28  1  0  0  0  0
 27 29  1  0  0  0  0
 29 30  1  0  0  0  0
 31 29  2  0  0  0  0
M  END
>  <minimizedAffinity>
-5.26906681

$$$$

 OpenBabel03252501573D

 31 33  0  0  0  0  0  0  0  0999 V2000
   39.8040   26.9490   43.5560 C   0  0  0  0  0  0  0  0  0  0  0  0
   38.8250   27.6510   42.8180 C   0  0  0  0  0  0  0  0  0  0  0  0
   39.2710   28.8080   42.1750 C   0  0  0  0  0  0  0  0  0  0  0  0
   40.5690   29.1890   42.2860 N   0  0  0  0  0  0  0  0  0  0  0  0
   41.4510   28.4650   43.0150 C   0  0  0  0  0  0  0  0  0  0  0  0
   41.0800   27.3290   43.6610 N   0  0  0  0  0  0  0  0  0  0  0  0
   39.5040   26.0450   44.0690 H   0  0  0  0  0  0  0  0  0  0  0  0
   42.4150   28.9500   42.9680 H   0  0  0  0  0  0  0  0  0  0  0  0
   38.2930   29.5690   41.4030 C   0  0  0  0  0  0  0  0  0  0  0  0
   37.1290   30.1710   41.8610 C   0  0  0  0  0  0  0  0  0  0  0  0
   36.3090   30.8510   40.9940 C   0  0  0  0  0  0  0  0  0  0  0  0
   36.6520   30.9320   39.6690 C   0  0  0  0  0  0  0  0  0  0  0  0
   37.8050   30.3410   39.2010 C   0  0  0  0  0  0  0  0  0  0  0  0
   38.6380   29.6500   40.0800 C   0  0  0  0  0  0  0  0  0  0  0  0
   37.0160   30.0020   42.9470 H   0  0  0  0  0  0  0  0  0  0  0  0
   35.4230   31.2780   41.4780 H   0  0  0  0  0  0  0  0  0  0  0  0
   35.9610   31.4840   39.0290 H   0  0  0  0  0  0  0  0  0  0  0  0
   38.0300   30.4320   38.1510 H   0  0  0  0  0  0  0  0  0  0  0  0
   39.5080   29.2250   39.6240 H   0  0  0  0  0  0  0  0  0  0  0  0
   37.4750   27.1370   42.7990 C   0  0  0  0  0  0  0  0  0  0  0  0
   36.7910   28.0140   42.5160 H   0  0  0  0  0  0  0  0  0  0  0  0
   37.1970   26.8230   43.8510 H   0  0  0  0  0  0  0  0  0  0  0  0
   37.1760   26.0360   41.9000 C   0  0  0  0  0  0  0  0  0  0  0  0
   37.1210   24.6620   42.0280 C   0  0  0  0  0  0  0  0  0  0  0  0
   37.3590   24.3710   43.0660 H   0  0  0  0  0  0  0  0  0  0  0  0
   36.8110   23.8430   40.9720 C   0  0  0  0  0  3  0  0  0  0  0  0
   36.5330   24.2930   39.7250 C   0  0  0  0  0  0  0  0  0  0  0  0
   36.2980   23.6180   38.9310 H   0  0  0  0  0  0  0  0  0  0  0  0
   36.5740   25.6770   39.5340 C   0  0  0  0  0  0  0  0  0  0  0  0
   36.3520   26.0220   38.5350 H   0  0  0  0  0  0  0  0  0  0  0  0
   36.8890   26.4930   40.6100 C   0  0  0  0  0  3  0  0  0  0  0  0
  1  6  1  0  0  0  0
  1  7  1  0  0  0  0
  2  1  2  0  0  0  0
  3  4  2  0  0  0  0
  3  2  1  0  0  0  0
  4  5  1  0  0  0  0
  5  6  2  0  0  0  0
  8  5  1  0  0  0  0
  9 10  1  0  0  0  0
  9  3  1  0  0  0  0
 10 15  1  0  0  0  0
 11 16  1  0  0  0  0
 11 10  2  0  0  0  0
 12 11  1  0  0  0  0
 13 12  2  0  0  0  0
 13 14  1  0  0  0  0
 14  9  2  0  0  0  0
 17 12  1  0  0  0  0
 18 13  1  0  0  0  0
 19 14  1  0  0  0  0
 20  2  1  0  0  0  0
 20 22  1  0  0  0  0
 21 20  1  0  0  0  0
 23 24  1  0  0  0  0
 23 20  1  0  0  0  0
 24 25  1  0  0  0  0
 26 24  2  0  0  0  0
 27 26  1  0  0  0  0
 28 27  1  0  0  0  0
 29 27  2  0  0  0  0
 29 31  1  0  0  0  0
 30 29  1  0  0  0  0
 31 23  2  0  0  0  0
M  END
>  <minimizedAffinity>
-5.21613455

$$$$

 OpenBabel03252501573D

 31 33  0  0  0  0  0  0  0  0999 V2000
   34.9610   26.4570   37.4190 C   0  0  0  0  0  0  0  0  0  0  0  0
   35.7070   27.4380   38.1100 C   0  0  0  0  0  0  0  0  0  0  0  0
   35.1420   28.7150   38.1370 C   0  0  0  0  0  0  0  0  0  0  0  0
   33.9540   28.9440   37.5230 N   0  0  0  0  0  0  0  0  0  0  0  0
   33.2960   27.9530   36.8770 C   0  0  0  0  0  0  0  0  0  0  0  0
   33.7920   26.6900   36.8170 N   0  0  0  0  0  0  0  0  0  0  0  0
   35.3590   25.4520   37.3730 H   0  0  0  0  0  0  0  0  0  0  0  0
   32.3840   28.3580   36.4640 H   0  0  0  0  0  0  0  0  0  0  0  0
   35.8790   29.7630   38.8360 C   0  0  0  0  0  0  0  0  0  0  0  0
   36.8250   30.6330   38.3110 C   0  0  0  0  0  0  0  0  0  0  0  0
   37.4350   31.5660   39.1150 C   0  0  0  0  0  0  0  0  0  0  0  0
   37.1000   31.6310   40.4420 C   0  0  0  0  0  0  0  0  0  0  0  0
   36.1620   30.7740   40.9760 C   0  0  0  0  0  0  0  0  0  0  0  0
   35.5420   29.8270   40.1620 C   0  0  0  0  0  0  0  0  0  0  0  0
   36.9670   30.4360   37.2340 H   0  0  0  0  0  0  0  0  0  0  0  0
   38.1610   32.1900   38.5820 H   0  0  0  0  0  0  0  0  0  0  0  0
   37.6180   32.3910   41.0300 H   0  0  0  0  0  0  0  0  0  0  0  0
   35.9340   30.8640   42.0260 H   0  0  0  0  0  0  0  0  0  0  0  0
   34.8310   29.2070   40.6670 H   0  0  0  0  0  0  0  0  0  0  0  0
   36.9670   27.0550   38.7050 C   0  0  0  0  0  0  0  0  0  0  0  0
   37.4560   28.0180   39.0920 H   0  0  0  0  0  0  0  0  0  0  0  0
   37.6380   26.6450   37.8890 H   0  0  0  0  0  0  0  0  0  0  0  0
   36.9420   26.1000   39.7980 C   0  0  0  0  0  0  0  0  0  0  0  0
   36.8110   24.7280   39.8910 C   0  0  0  0  0  0  0  0  0  0  0  0
   36.7090   24.2910   38.8820 H   0  0  0  0  0  0  0  0  0  0  0  0
   36.8150   24.0740   41.0960 C   0  0  0  0  0  3  0  0  0  0  0  0
   36.9450   24.6980   42.2920 C   0  0  0  0  0  0  0  0  0  0  0  0
   36.9410   24.1490   43.2080 H   0  0  0  0  0  0  0  0  0  0  0  0
   37.0810   26.0890   42.2620 C   0  0  0  0  0  0  0  0  0  0  0  0
   37.1820   26.5740   43.2220 H   0  0  0  0  0  0  0  0  0  0  0  0
   37.0760   26.7360   41.0360 C   0  0  0  0  0  3  0  0  0  0  0  0
  1  2  1  0  0  0  0
  2  3  2  0  0  0  0
  2 20  1  0  0  0  0
  3  9  1  0  0  0  0
  4  3  1  0  0  0  0
  5  4  2  0  0  0  0
  6  5  1  0  0  0  0
  6  1  2  0  0  0  0
  7  1  1  0  0  0  0
  8  5  1  0  0  0  0
  9 14  1  0  0  0  0
 10  9  2  0  0  0  0
 10 11  1  0  0  0  0
 11 12  2  0  0  0  0
 12 13  1  0  0  0  0
 12 17  1  0  0  0  0
 13 18  1  0  0  0  0
 14 19  1  0  0  0  0
 14 13  2  0  0  0  0
 15 10  1  0  0  0  0
 16 11  1  0  0  0  0
 20 21  1  0  0  0  0
 20 23  1  0  0  0  0
 22 20  1  0  0  0  0
 23 24  2  0  0  0  0
 23 31  1  0  0  0  0
 24 26  1  0  0  0  0
 25 24  1  0  0  0  0
 26 27  2  0  0  0  0
 27 28  1  0  0  0  0
 29 27  1  0  0  0  0
 29 30  1  0  0  0  0
 31 29  2  0  0  0  0
M  END
>  <minimizedAffinity>
-5.20835257

$$$$

 OpenBabel03252501573D

 31 33  0  0  0  0  0  0  0  0999 V2000
   34.9850   28.8860   36.9540 C   0  0  0  0  0  0  0  0  0  0  0  0
   35.6840   29.4640   38.0380 C   0  0  0  0  0  0  0  0  0  0  0  0
   36.7860   30.2490   37.6930 C   0  0  0  0  0  0  0  0  0  0  0  0
   37.1210   30.4130   36.3880 N   0  0  0  0  0  0  0  0  0  0  0  0
   36.4030   29.8250   35.4010 C   0  0  0  0  0  0  0  0  0  0  0  0
   35.3200   29.0510   35.6720 N   0  0  0  0  0  0  0  0  0  0  0  0
   34.1230   28.2710   37.1730 H   0  0  0  0  0  0  0  0  0  0  0  0
   36.8470   30.0860   34.4520 H   0  0  0  0  0  0  0  0  0  0  0  0
   37.5420   30.8640   38.7800 C   0  0  0  0  0  0  0  0  0  0  0  0
   38.6600   30.3600   39.4290 C   0  0  0  0  0  0  0  0  0  0  0  0
   39.2540   31.0700   40.4460 C   0  0  0  0  0  0  0  0  0  0  0  0
   38.7310   32.2820   40.8120 C   0  0  0  0  0  0  0  0  0  0  0  0
   37.6220   32.7950   40.1750 C   0  0  0  0  0  0  0  0  0  0  0  0
   37.0190   32.0760   39.1440 C   0  0  0  0  0  0  0  0  0  0  0  0
   38.9370   29.3790   39.0050 H   0  0  0  0  0  0  0  0  0  0  0  0
   40.1260   30.5640   40.8770 H   0  0  0  0  0  0  0  0  0  0  0  0
   39.2440   32.7980   41.6260 H   0  0  0  0  0  0  0  0  0  0  0  0
   37.2490   33.7520   40.5010 H   0  0  0  0  0  0  0  0  0  0  0  0
   36.1640   32.5550   38.7120 H   0  0  0  0  0  0  0  0  0  0  0  0
   35.2230   29.1920   39.3800 C   0  0  0  0  0  0  0  0  0  0  0  0
   34.1300   28.8520   39.2910 H   0  0  0  0  0  0  0  0  0  0  0  0
   35.2250   30.1630   39.9620 H   0  0  0  0  0  0  0  0  0  0  0  0
   35.9350   28.1920   40.1570 C   0  0  0  0  0  0  0  0  0  0  0  0
   36.4800   26.9530   39.8830 C   0  0  0  0  0  0  0  0  0  0  0  0
   36.3250   26.7010   38.8190 H   0  0  0  0  0  0  0  0  0  0  0  0
   37.1070   26.2040   40.8460 C   0  0  0  0  0  3  0  0  0  0  0  0
   37.2490   26.5970   42.1350 C   0  0  0  0  0  0  0  0  0  0  0  0
   37.7440   25.9800   42.8520 H   0  0  0  0  0  0  0  0  0  0  0  0
   36.7160   27.8450   42.4710 C   0  0  0  0  0  0  0  0  0  0  0  0
   36.8340   28.1450   43.5020 H   0  0  0  0  0  0  0  0  0  0  0  0
   36.0850   28.5910   41.4880 C   0  0  0  0  0  3  0  0  0  0  0  0
  1  7  1  0  0  0  0
  1  2  1  0  0  0  0
  2 20  1  0  0  0  0
  3  2  2  0  0  0  0
  3  9  1  0  0  0  0
  4  3  1  0  0  0  0
  5  6  1  0  0  0  0
  5  4  2  0  0  0  0
  6  1  2  0  0  0  0
  8  5  1  0  0  0  0
  9 14  2  0  0  0  0
  9 10  1  0  0  0  0
 10 11  2  0  0  0  0
 11 12  1  0  0  0  0
 11 16  1  0  0  0  0
 12 17  1  0  0  0  0
 13 18  1  0  0  0  0
 13 12  2  0  0  0  0
 14 13  1  0  0  0  0
 15 10  1  0  0  0  0
 19 14  1  0  0  0  0
 20 22  1  0  0  0  0
 20 23  1  0  0  0  0
 21 20  1  0  0  0  0
 23 31  1  0  0  0  0
 24 23  2  0  0  0  0
 24 26  1  0  0  0  0
 25 24  1  0  0  0  0
 26 27  2  0  0  0  0
 27 29  1  0  0  0  0
 27 28  1  0  0  0  0
 29 30  1  0  0  0  0
 31 29  2  0  0  0  0
M  END
>  <minimizedAffinity>
-5.11590719

$$$$

 OpenBabel03252501573D

 31 33  0  0  0  0  0  0  0  0999 V2000
   37.4170   25.1220   42.4230 C   0  0  0  0  0  0  0  0  0  0  0  0
   37.2740   26.4790   42.0540 C   0  0  0  0  0  0  0  0  0  0  0  0
   36.8450   26.7030   40.7440 C   0  0  0  0  0  0  0  0  0  0  0  0
   36.5980   25.6530   39.9210 N   0  0  0  0  0  0  0  0  0  0  0  0
   36.7610   24.3770   40.3460 C   0  0  0  0  0  0  0  0  0  0  0  0
   37.1740   24.0930   41.6080 N   0  0  0  0  0  0  0  0  0  0  0  0
   37.7460   24.9010   43.4300 H   0  0  0  0  0  0  0  0  0  0  0  0
   36.5150   23.7100   39.5320 H   0  0  0  0  0  0  0  0  0  0  0  0
   36.6860   28.0890   40.3160 C   0  0  0  0  0  0  0  0  0  0  0  0
   35.6700   28.9730   40.6540 C   0  0  0  0  0  0  0  0  0  0  0  0
   35.6660   30.2540   40.1550 C   0  0  0  0  0  0  0  0  0  0  0  0
   36.6770   30.6520   39.3190 C   0  0  0  0  0  0  0  0  0  0  0  0
   37.6920   29.7860   38.9770 C   0  0  0  0  0  0  0  0  0  0  0  0
   37.6980   28.4860   39.4820 C   0  0  0  0  0  0  0  0  0  0  0  0
   34.9480   28.4820   41.3290 H   0  0  0  0  0  0  0  0  0  0  0  0
   34.8110   30.8500   40.4950 H   0  0  0  0  0  0  0  0  0  0  0  0
   36.6190   31.6790   38.9540 H   0  0  0  0  0  0  0  0  0  0  0  0
   38.4640   30.1470   38.3160 H   0  0  0  0  0  0  0  0  0  0  0  0
   38.5250   27.8890   39.1590 H   0  0  0  0  0  0  0  0  0  0  0  0
   37.5860   27.4970   43.0310 C   0  0  0  0  0  0  0  0  0  0  0  0
   37.6030   26.9780   44.0540 H   0  0  0  0  0  0  0  0  0  0  0  0
   36.7370   28.2460   43.0510 H   0  0  0  0  0  0  0  0  0  0  0  0
   38.8340   28.2250   42.8830 C   0  0  0  0  0  0  0  0  0  0  0  0
   40.1630   27.8670   42.7680 C   0  0  0  0  0  0  0  0  0  0  0  0
   40.2590   26.7670   42.7920 H   0  0  0  0  0  0  0  0  0  0  0  0
   41.1610   28.7980   42.6450 C   0  0  0  0  0  3  0  0  0  0  0  0
   40.9470   30.1360   42.6260 C   0  0  0  0  0  0  0  0  0  0  0  0
   41.7560   30.8270   42.5310 H   0  0  0  0  0  0  0  0  0  0  0  0
   39.6190   30.5600   42.7400 C   0  0  0  0  0  0  0  0  0  0  0  0
   39.4630   31.6280   42.7250 H   0  0  0  0  0  0  0  0  0  0  0  0
   38.6200   29.6070   42.8620 C   0  0  0  0  0  3  0  0  0  0  0  0
  1  7  1  0  0  0  0
  2  1  1  0  0  0  0
  2 20  1  0  0  0  0
  3  2  2  0  0  0  0
  4  5  2  0  0  0  0
  4  3  1  0  0  0  0
  5  6  1  0  0  0  0
  6  1  2  0  0  0  0
  8  5  1  0  0  0  0
  9 10  1  0  0  0  0
  9  3  1  0  0  0  0
 10 15  1  0  0  0  0
 11 16  1  0  0  0  0
 11 10  2  0  0  0  0
 12 11  1  0  0  0  0
 13 12  2  0  0  0  0
 13 14  1  0  0  0  0
 14  9  2  0  0  0  0
 17 12  1  0  0  0  0
 18 13  1  0  0  0  0
 19 14  1  0  0  0  0
 20 22  1  0  0  0  0
 20 21  1  0  0  0  0
 23 20  1  0  0  0  0
 24 25  1  0  0  0  0
 24 23  2  0  0  0  0
 26 24  1  0  0  0  0
 27 26  2  0  0  0  0
 27 29  1  0  0  0  0
 28 27  1  0  0  0  0
 29 31  2  0  0  0  0
 30 29  1  0  0  0  0
 31 23  1  0  0  0  0
M  END
>  <minimizedAffinity>
-5.11417818

$$$$

 OpenBabel03252501573D

 31 33  0  0  0  0  0  0  0  0999 V2000
   39.1940   31.5710   38.8900 C   0  0  0  0  0  0  0  0  0  0  0  0
   38.8770   30.4850   39.7370 C   0  0  0  0  0  0  0  0  0  0  0  0
   39.1220   30.6920   41.0960 C   0  0  0  0  0  0  0  0  0  0  0  0
   39.6330   31.8740   41.5220 N   0  0  0  0  0  0  0  0  0  0  0  0
   39.9150   32.8700   40.6500 C   0  0  0  0  0  0  0  0  0  0  0  0
   39.6970   32.7330   39.3160 N   0  0  0  0  0  0  0  0  0  0  0  0
   39.0190   31.4580   37.8290 H   0  0  0  0  0  0  0  0  0  0  0  0
   40.3120   33.7090   41.2020 H   0  0  0  0  0  0  0  0  0  0  0  0
   38.8130   29.5960   42.0100 C   0  0  0  0  0  0  0  0  0  0  0  0
   37.6260   29.3650   42.6920 C   0  0  0  0  0  0  0  0  0  0  0  0
   37.5010   28.2800   43.5260 C   0  0  0  0  0  0  0  0  0  0  0  0
   38.5610   27.4240   43.6770 C   0  0  0  0  0  0  0  0  0  0  0  0
   39.7450   27.6400   43.0050 C   0  0  0  0  0  0  0  0  0  0  0  0
   39.8730   28.7410   42.1590 C   0  0  0  0  0  0  0  0  0  0  0  0
   36.8900   30.1530   42.4510 H   0  0  0  0  0  0  0  0  0  0  0  0
   36.5180   28.2120   44.0050 H   0  0  0  0  0  0  0  0  0  0  0  0
   38.4030   26.5820   44.3530 H   0  0  0  0  0  0  0  0  0  0  0  0
   40.5480   26.9390   43.1580 H   0  0  0  0  0  0  0  0  0  0  0  0
   40.8280   28.8240   41.6830 H   0  0  0  0  0  0  0  0  0  0  0  0
   38.3510   29.2780   39.1430 C   0  0  0  0  0  0  0  0  0  0  0  0
   38.6450   28.4130   39.8370 H   0  0  0  0  0  0  0  0  0  0  0  0
   38.8790   29.1060   38.1550 H   0  0  0  0  0  0  0  0  0  0  0  0
   36.9200   29.1960   38.9160 C   0  0  0  0  0  0  0  0  0  0  0  0
   35.8070   29.1240   39.7310 C   0  0  0  0  0  0  0  0  0  0  0  0
   36.1160   29.1410   40.7910 H   0  0  0  0  0  0  0  0  0  0  0  0
   34.5350   29.0450   39.2250 C   0  0  0  0  0  3  0  0  0  0  0  0
   34.2510   29.0290   37.9000 C   0  0  0  0  0  0  0  0  0  0  0  0
   33.2440   28.9650   37.5490 H   0  0  0  0  0  0  0  0  0  0  0  0
   35.3380   29.0990   37.0240 C   0  0  0  0  0  0  0  0  0  0  0  0
   35.0970   29.0830   35.9720 H   0  0  0  0  0  0  0  0  0  0  0  0
   36.6180   29.1790   37.5510 C   0  0  0  0  0  3  0  0  0  0  0  0
  1  6  2  0  0  0  0
  1  2  1  0  0  0  0
  2  3  2  0  0  0  0
  3  4  1  0  0  0  0
  3  9  1  0  0  0  0
  5  8  1  0  0  0  0
  5  4  2  0  0  0  0
  6  5  1  0  0  0  0
  7  1  1  0  0  0  0
  9 14  2  0  0  0  0
  9 10  1  0  0  0  0
 10 11  2  0  0  0  0
 11 12  1  0  0  0  0
 11 16  1  0  0  0  0
 12 17  1  0  0  0  0
 13 18  1  0  0  0  0
 13 12  2  0  0  0  0
 14 13  1  0  0  0  0
 15 10  1  0  0  0  0
 19 14  1  0  0  0  0
 20  2  1  0  0  0  0
 20 21  1  0  0  0  0
 22 20  1  0  0  0  0
 23 20  1  0  0  0  0
 23 24  1  0  0  0  0
 24 25  1  0  0  0  0
 26 24  2  0  0  0  0
 27 26  1  0  0  0  0
 28 27  1  0  0  0  0
 29 31  1  0  0  0  0
 29 27  2  0  0  0  0
 30 29  1  0  0  0  0
 31 23  2  0  0  0  0
M  END
>  <minimizedAffinity>
-5.0025692

$$$$
