
 OpenBabel03252505133D

 44 47  0  0  1  0  0  0  0  0999 V2000
   40.0240   35.0270   39.8940 C   0  0  0  0  0  0  0  0  0  0  0  0
   38.9640   34.1150   40.0880 C   0  0  0  0  0  0  0  0  0  0  0  0
   39.2090   32.7340   39.7830 C   0  0  0  0  0  0  0  0  0  0  0  0
   40.4330   32.3720   39.3280 N   0  0  0  0  0  0  0  0  0  0  0  0
   41.4100   33.2740   39.1590 C   0  0  0  0  0  0  0  0  0  0  0  0
   41.2190   34.6080   39.4380 N   0  0  0  0  0  0  0  0  0  0  0  0
   39.8780   36.0670   40.1100 H   0  0  0  0  0  0  0  0  0  0  0  0
   38.0170   34.4540   40.4500 H   0  0  0  0  0  0  0  0  0  0  0  0
   42.7320   32.8240   38.6540 C   0  0  2  0  0  0  0  0  0  0  0  0
   43.4580   32.3100   39.8780 C   0  0  0  0  0  0  0  0  0  0  0  0
   44.5190   33.1700   40.4180 C   0  0  0  0  0  0  0  0  0  0  0  0
   45.4710   33.4310   39.2530 C   0  0  0  0  0  0  0  0  0  0  0  0
   44.8470   34.2010   38.1900 C   0  0  0  0  0  0  0  0  0  0  0  0
   43.4290   33.8440   37.9240 C   0  0  0  0  0  0  0  0  0  0  0  0
   42.4990   31.9640   37.9770 H   0  0  0  0  0  0  0  0  0  0  0  0
   43.9210   31.3340   39.5970 H   0  0  0  0  0  0  0  0  0  0  0  0
   42.7730   32.0500   40.7160 H   0  0  0  0  0  0  0  0  0  0  0  0
   45.1030   32.5880   41.1440 H   0  0  0  0  0  0  0  0  0  0  0  0
   44.1440   34.1270   40.8110 H   0  0  0  0  0  0  0  0  0  0  0  0
   45.8680   32.4790   38.8750 H   0  0  0  0  0  0  0  0  0  0  0  0
   46.2580   34.0840   39.6840 H   0  0  0  0  0  0  0  0  0  0  0  0
   45.1330   34.9760   37.5280 H   0  0  0  0  0  0  0  0  0  0  0  0
   42.6890   34.5200   36.9040 N   0  0  0  0  0  0  0  0  0  0  0  0
   42.5370   33.9110   36.0570 H   0  0  0  0  0  0  0  0  0  0  0  0
   42.4260   35.4880   37.1640 H   0  0  0  0  0  0  0  0  0  0  0  0
   38.1380   31.7720   39.9760 C   0  0  0  0  0  0  0  0  0  0  0  0
   37.2300   31.6040   38.9920 C   0  0  0  0  0  0  0  0  0  0  0  0
   36.2110   30.6650   39.2310 C   0  0  0  0  0  0  0  0  0  0  0  0
   36.2480   30.0130   40.4520 C   0  0  0  0  0  0  0  0  0  0  0  0
   37.1740   30.1880   41.4540 C   0  0  0  0  0  0  0  0  0  0  0  0
   38.1270   31.1070   41.1560 N   0  0  0  0  0  0  0  0  0  0  0  0
   37.2390   32.1360   38.0500 H   0  0  0  0  0  0  0  0  0  0  0  0
   35.4320   30.4510   38.5110 H   0  0  0  0  0  0  0  0  0  0  0  0
   35.4450   29.2890   40.6160 H   0  0  0  0  0  0  0  0  0  0  0  0
   37.1150   29.4900   42.6350 O   0  0  0  0  0  0  0  0  0  0  0  0
   37.6790   28.2210   42.6750 C   0  0  0  0  0  0  0  0  0  0  0  0
   37.0210   27.0830   42.2560 C   0  0  0  0  0  0  0  0  0  0  0  0
   36.0120   27.1740   41.8730 H   0  0  0  0  0  0  0  0  0  0  0  0
   37.6920   25.8800   42.3490 C   0  0  0  0  0  3  0  0  0  0  0  0
   38.9810   25.8420   42.8490 C   0  0  0  0  0  0  0  0  0  0  0  0
   39.4910   24.8860   42.9130 H   0  0  0  0  0  0  0  0  0  0  0  0
   39.6360   26.9860   43.2680 C   0  0  0  0  0  0  0  0  0  0  0  0
   40.6540   26.9520   43.6620 H   0  0  0  0  0  0  0  0  0  0  0  0
   38.9660   28.2010   43.1770 C   0  0  0  0  0  3  0  0  0  0  0  0
  1  2  1  0  0  0  0
  1  7  1  0  0  0  0
  2  8  1  0  0  0  0
  3 26  1  0  0  0  0
  3  2  2  0  0  0  0
  4  3  1  0  0  0  0
  5  4  2  0  0  0  0
  5  6  1  0  0  0  0
  6  1  2  0  0  0  0
  9 15  1  6  0  0  0
  9  5  1  0  0  0  0
  9 10  1  0  0  0  0
 10 11  1  0  0  0  0
 10 17  1  0  0  0  0
 11 19  1  0  0  0  0
 11 18  1  0  0  0  0
 12 21  1  0  0  0  0
 12 11  1  0  0  0  0
 13 12  1  0  0  0  0
 14 13  2  0  0  0  0
 14  9  1  0  0  0  0
 16 10  1  0  0  0  0
 20 12  1  0  0  0  0
 22 13  1  0  0  0  0
 23 25  1  0  0  0  0
 23 14  1  0  0  0  0
 24 23  1  0  0  0  0
 26 31  1  0  0  0  0
 27 28  1  0  0  0  0
 27 26  2  0  0  0  0
 28 29  2  0  0  0  0
 29 34  1  0  0  0  0
 29 30  1  0  0  0  0
 30 35  1  0  0  0  0
 31 30  2  0  0  0  0
 32 27  1  0  0  0  0
 33 28  1  0  0  0  0
 35 36  1  0  0  0  0
 36 44  1  0  0  0  0
 37 39  1  0  0  0  0
 37 36  2  0  0  0  0
 38 37  1  0  0  0  0
 39 40  2  0  0  0  0
 40 41  1  0  0  0  0
 40 42  1  0  0  0  0
 42 43  1  0  0  0  0
 44 42  2  0  0  0  0
M  END
>  <minimizedAffinity>
-6.81832314

$$$$

 OpenBabel03252505133D

 44 47  0  0  1  0  0  0  0  0999 V2000
   33.0620   26.9000   36.1160 C   0  0  0  0  0  0  0  0  0  0  0  0
   34.2220   27.4440   36.7080 C   0  0  0  0  0  0  0  0  0  0  0  0
   34.1310   28.7650   37.2610 C   0  0  0  0  0  0  0  0  0  0  0  0
   32.9480   29.4230   37.1920 N   0  0  0  0  0  0  0  0  0  0  0  0
   31.8720   28.8650   36.6210 C   0  0  0  0  0  0  0  0  0  0  0  0
   31.9140   27.6020   36.0770 N   0  0  0  0  0  0  0  0  0  0  0  0
   33.0920   25.9160   35.6920 H   0  0  0  0  0  0  0  0  0  0  0  0
   35.1310   26.8810   36.7350 H   0  0  0  0  0  0  0  0  0  0  0  0
   30.6000   29.6310   36.5690 C   0  0  2  0  0  0  0  0  0  0  0  0
   30.6420   30.3590   35.2420 C   0  0  0  0  0  0  0  0  0  0  0  0
   30.9230   31.7990   35.2960 C   0  0  0  0  0  0  0  0  0  0  0  0
   29.8780   32.3880   36.2410 C   0  0  0  0  0  0  0  0  0  0  0  0
   30.0330   31.9090   37.6040 C   0  0  0  0  0  0  0  0  0  0  0  0
   30.4080   30.4750   37.7130 C   0  0  0  0  0  0  0  0  0  0  0  0
   29.8000   28.8490   36.5330 H   0  0  0  0  0  0  0  0  0  0  0  0
   29.6420   30.2250   34.7650 H   0  0  0  0  0  0  0  0  0  0  0  0
   31.3500   29.9020   34.5150 H   0  0  0  0  0  0  0  0  0  0  0  0
   30.7000   32.2340   34.3110 H   0  0  0  0  0  0  0  0  0  0  0  0
   31.9320   32.0320   35.6680 H   0  0  0  0  0  0  0  0  0  0  0  0
   28.8690   32.1810   35.8590 H   0  0  0  0  0  0  0  0  0  0  0  0
   30.1130   33.4720   36.2680 H   0  0  0  0  0  0  0  0  0  0  0  0
   29.9510   32.3140   38.5790 H   0  0  0  0  0  0  0  0  0  0  0  0
   30.5930   29.8680   38.9940 N   0  0  0  0  0  0  0  0  0  0  0  0
   29.7990   29.2200   39.2440 H   0  0  0  0  0  0  0  0  0  0  0  0
   31.4700   30.1620   39.4620 H   0  0  0  0  0  0  0  0  0  0  0  0
   35.3080   29.3500   37.8790 C   0  0  0  0  0  0  0  0  0  0  0  0
   36.3270   29.7460   37.0890 C   0  0  0  0  0  0  0  0  0  0  0  0
   37.4450   30.3010   37.7370 C   0  0  0  0  0  0  0  0  0  0  0  0
   37.3800   30.3800   39.1180 C   0  0  0  0  0  0  0  0  0  0  0  0
   36.3410   29.9730   39.9210 C   0  0  0  0  0  0  0  0  0  0  0  0
   35.2960   29.4490   39.2300 N   0  0  0  0  0  0  0  0  0  0  0  0
   36.3360   29.6660   36.0110 H   0  0  0  0  0  0  0  0  0  0  0  0
   38.3180   30.6520   37.2010 H   0  0  0  0  0  0  0  0  0  0  0  0
   38.2610   30.8140   39.6000 H   0  0  0  0  0  0  0  0  0  0  0  0
   36.3810   30.0930   41.2880 O   0  0  0  0  0  0  0  0  0  0  0  0
   37.1220   29.1640   42.0060 C   0  0  0  0  0  0  0  0  0  0  0  0
   38.3860   29.4160   42.4980 C   0  0  0  0  0  0  0  0  0  0  0  0
   38.8320   30.3870   42.3200 H   0  0  0  0  0  0  0  0  0  0  0  0
   39.0190   28.4070   43.1960 C   0  0  0  0  0  3  0  0  0  0  0  0
   38.3860   27.1910   43.3840 C   0  0  0  0  0  0  0  0  0  0  0  0
   38.9010   26.4120   43.9360 H   0  0  0  0  0  0  0  0  0  0  0  0
   37.1180   26.9440   42.8880 C   0  0  0  0  0  0  0  0  0  0  0  0
   36.6220   25.9820   43.0390 H   0  0  0  0  0  0  0  0  0  0  0  0
   36.4760   27.9560   42.1840 C   0  0  0  0  0  3  0  0  0  0  0  0
  1  2  1  0  0  0  0
  2  8  1  0  0  0  0
  2  3  2  0  0  0  0
  3 26  1  0  0  0  0
  4  3  1  0  0  0  0
  5  4  2  0  0  0  0
  6  1  2  0  0  0  0
  6  5  1  0  0  0  0
  7  1  1  0  0  0  0
  9 15  1  6  0  0  0
  9  5  1  0  0  0  0
  9 14  1  0  0  0  0
 10 11  1  0  0  0  0
 10  9  1  0  0  0  0
 11 19  1  0  0  0  0
 11 12  1  0  0  0  0
 12 21  1  0  0  0  0
 12 13  1  0  0  0  0
 13 14  2  0  0  0  0
 13 22  1  0  0  0  0
 14 23  1  0  0  0  0
 16 10  1  0  0  0  0
 17 10  1  0  0  0  0
 18 11  1  0  0  0  0
 20 12  1  0  0  0  0
 23 24  1  0  0  0  0
 23 25  1  0  0  0  0
 26 31  1  0  0  0  0
 27 28  1  0  0  0  0
 27 26  2  0  0  0  0
 28 29  2  0  0  0  0
 29 34  1  0  0  0  0
 29 30  1  0  0  0  0
 30 35  1  0  0  0  0
 31 30  2  0  0  0  0
 32 27  1  0  0  0  0
 33 28  1  0  0  0  0
 35 36  1  0  0  0  0
 36 44  2  0  0  0  0
 36 37  1  0  0  0  0
 37 39  2  0  0  0  0
 38 37  1  0  0  0  0
 39 40  1  0  0  0  0
 40 41  1  0  0  0  0
 42 43  1  0  0  0  0
 42 40  2  0  0  0  0
 44 42  1  0  0  0  0
M  END
>  <minimizedAffinity>
-6.74715471

$$$$

 OpenBabel03252505133D

 44 47  0  0  1  0  0  0  0  0999 V2000
   36.1770   25.3030   39.0930 C   0  0  0  0  0  0  0  0  0  0  0  0
   36.2820   26.6180   38.5910 C   0  0  0  0  0  0  0  0  0  0  0  0
   36.8790   27.6090   39.4390 C   0  0  0  0  0  0  0  0  0  0  0  0
   37.3120   27.2420   40.6700 N   0  0  0  0  0  0  0  0  0  0  0  0
   37.1910   25.9810   41.1050 C   0  0  0  0  0  0  0  0  0  0  0  0
   36.6250   24.9980   40.3250 N   0  0  0  0  0  0  0  0  0  0  0  0
   35.7360   24.5350   38.4880 H   0  0  0  0  0  0  0  0  0  0  0  0
   35.9240   26.8540   37.6110 H   0  0  0  0  0  0  0  0  0  0  0  0
   37.6790   25.6330   42.4640 C   0  0  2  0  0  0  0  0  0  0  0  0
   37.9630   26.9650   43.1250 C   0  0  0  0  0  0  0  0  0  0  0  0
   39.3760   27.3390   43.2600 C   0  0  0  0  0  0  0  0  0  0  0  0
   40.0400   26.1780   43.9980 C   0  0  0  0  0  0  0  0  0  0  0  0
   40.0340   24.9520   43.2190 C   0  0  0  0  0  0  0  0  0  0  0  0
   38.7870   24.7210   42.4450 C   0  0  0  0  0  0  0  0  0  0  0  0
   36.8000   25.1540   42.9650 H   0  0  0  0  0  0  0  0  0  0  0  0
   37.5220   26.9200   44.1490 H   0  0  0  0  0  0  0  0  0  0  0  0
   37.4310   27.8150   42.6410 H   0  0  0  0  0  0  0  0  0  0  0  0
   39.4450   28.1950   43.9460 H   0  0  0  0  0  0  0  0  0  0  0  0
   39.8780   27.4990   42.2950 H   0  0  0  0  0  0  0  0  0  0  0  0
   39.5600   26.0320   44.9750 H   0  0  0  0  0  0  0  0  0  0  0  0
   41.1040   26.4830   44.0840 H   0  0  0  0  0  0  0  0  0  0  0  0
   40.6980   24.1460   43.0420 H   0  0  0  0  0  0  0  0  0  0  0  0
   38.6410   23.5530   41.6330 N   0  0  0  0  0  0  0  0  0  0  0  0
   37.9760   22.8550   42.0610 H   0  0  0  0  0  0  0  0  0  0  0  0
   39.2070   23.5860   40.7650 H   0  0  0  0  0  0  0  0  0  0  0  0
   37.0030   28.9710   38.9480 C   0  0  0  0  0  0  0  0  0  0  0  0
   37.0220   29.1810   37.6150 C   0  0  0  0  0  0  0  0  0  0  0  0
   37.1480   30.5170   37.1920 C   0  0  0  0  0  0  0  0  0  0  0  0
   37.2400   31.4730   38.1890 C   0  0  0  0  0  0  0  0  0  0  0  0
   37.2220   31.2550   39.5470 C   0  0  0  0  0  0  0  0  0  0  0  0
   37.0970   29.9460   39.8840 N   0  0  0  0  0  0  0  0  0  0  0  0
   36.9460   28.4020   36.8690 H   0  0  0  0  0  0  0  0  0  0  0  0
   37.1730   30.8000   36.1480 H   0  0  0  0  0  0  0  0  0  0  0  0
   37.3380   32.5030   37.8360 H   0  0  0  0  0  0  0  0  0  0  0  0
   37.3260   32.2800   40.4540 O   0  0  0  0  0  0  0  0  0  0  0  0
   38.4690   33.0670   40.4260 C   0  0  0  0  0  0  0  0  0  0  0  0
   38.4500   34.4290   40.2020 C   0  0  0  0  0  0  0  0  0  0  0  0
   37.4970   34.9180   40.0390 H   0  0  0  0  0  0  0  0  0  0  0  0
   39.6570   35.0990   40.1980 C   0  0  0  0  0  3  0  0  0  0  0  0
   40.8340   34.4060   40.4140 C   0  0  0  0  0  0  0  0  0  0  0  0
   41.7720   34.9520   40.4080 H   0  0  0  0  0  0  0  0  0  0  0  0
   40.8490   33.0410   40.6380 C   0  0  0  0  0  0  0  0  0  0  0  0
   41.7810   32.4980   40.8090 H   0  0  0  0  0  0  0  0  0  0  0  0
   39.6360   32.3610   40.6430 C   0  0  0  0  0  3  0  0  0  0  0  0
  1  6  1  0  0  0  0
  2  1  2  0  0  0  0
  2  3  1  0  0  0  0
  3  4  2  0  0  0  0
  4  5  1  0  0  0  0
  5  9  1  0  0  0  0
  6  5  2  0  0  0  0
  7  1  1  0  0  0  0
  8  2  1  0  0  0  0
  9 15  1  1  0  0  0
  9 10  1  0  0  0  0
 10 11  1  0  0  0  0
 10 16  1  0  0  0  0
 11 18  1  0  0  0  0
 11 12  1  0  0  0  0
 12 21  1  0  0  0  0
 12 20  1  0  0  0  0
 13 12  1  0  0  0  0
 14  9  1  0  0  0  0
 14 13  2  0  0  0  0
 17 10  1  0  0  0  0
 19 11  1  0  0  0  0
 22 13  1  0  0  0  0
 23 24  1  0  0  0  0
 23 14  1  0  0  0  0
 25 23  1  0  0  0  0
 26  3  1  0  0  0  0
 26 31  1  0  0  0  0
 27 26  2  0  0  0  0
 28 27  1  0  0  0  0
 28 29  2  0  0  0  0
 29 30  1  0  0  0  0
 30 31  2  0  0  0  0
 30 35  1  0  0  0  0
 32 27  1  0  0  0  0
 33 28  1  0  0  0  0
 34 29  1  0  0  0  0
 36 35  1  0  0  0  0
 36 44  1  0  0  0  0
 37 36  2  0  0  0  0
 38 37  1  0  0  0  0
 39 37  1  0  0  0  0
 39 40  2  0  0  0  0
 40 42  1  0  0  0  0
 41 40  1  0  0  0  0
 42 44  2  0  0  0  0
 42 43  1  0  0  0  0
M  END
>  <minimizedAffinity>
-6.69123602

$$$$

 OpenBabel03252505133D

 44 47  0  0  1  0  0  0  0  0999 V2000
   35.3200   28.1340   37.2660 C   0  0  0  0  0  0  0  0  0  0  0  0
   35.7110   27.1450   38.1940 C   0  0  0  0  0  0  0  0  0  0  0  0
   36.4350   27.5720   39.3570 C   0  0  0  0  0  0  0  0  0  0  0  0
   36.7070   28.8900   39.5110 N   0  0  0  0  0  0  0  0  0  0  0  0
   36.3170   29.7940   38.6020 C   0  0  0  0  0  0  0  0  0  0  0  0
   35.6200   29.4300   37.4720 N   0  0  0  0  0  0  0  0  0  0  0  0
   34.7780   27.8530   36.3840 H   0  0  0  0  0  0  0  0  0  0  0  0
   35.4690   26.1170   38.0240 H   0  0  0  0  0  0  0  0  0  0  0  0
   36.6450   31.2270   38.8170 C   0  0  2  0  0  0  0  0  0  0  0  0
   37.8310   31.4900   37.9150 C   0  0  0  0  0  0  0  0  0  0  0  0
   39.1380   31.6110   38.5720 C   0  0  0  0  0  0  0  0  0  0  0  0
   38.9690   32.7000   39.6300 C   0  0  0  0  0  0  0  0  0  0  0  0
   38.0390   32.3120   40.6780 C   0  0  0  0  0  0  0  0  0  0  0  0
   36.8550   31.5520   40.1990 C   0  0  0  0  0  0  0  0  0  0  0  0
   35.7550   31.7820   38.4270 H   0  0  0  0  0  0  0  0  0  0  0  0
   37.6280   32.4500   37.3820 H   0  0  0  0  0  0  0  0  0  0  0  0
   37.9310   30.7440   37.0940 H   0  0  0  0  0  0  0  0  0  0  0  0
   39.8550   32.0210   37.8470 H   0  0  0  0  0  0  0  0  0  0  0  0
   39.4720   30.6790   39.0500 H   0  0  0  0  0  0  0  0  0  0  0  0
   38.6610   33.6400   39.1530 H   0  0  0  0  0  0  0  0  0  0  0  0
   39.9650   32.7680   40.1130 H   0  0  0  0  0  0  0  0  0  0  0  0
   37.9690   32.4240   41.7280 H   0  0  0  0  0  0  0  0  0  0  0  0
   35.8560   31.1060   41.1200 N   0  0  0  0  0  0  0  0  0  0  0  0
   34.9690   31.6700   41.0440 H   0  0  0  0  0  0  0  0  0  0  0  0
   36.1670   30.3090   41.7050 H   0  0  0  0  0  0  0  0  0  0  0  0
   36.8470   26.5760   40.3310 C   0  0  0  0  0  0  0  0  0  0  0  0
   36.6130   25.2740   40.0680 C   0  0  0  0  0  0  0  0  0  0  0  0
   37.0270   24.3510   41.0460 C   0  0  0  0  0  0  0  0  0  0  0  0
   37.6300   24.8790   42.1750 C   0  0  0  0  0  0  0  0  0  0  0  0
   37.8660   26.2070   42.4410 C   0  0  0  0  0  0  0  0  0  0  0  0
   37.4420   27.0410   41.4560 N   0  0  0  0  0  0  0  0  0  0  0  0
   36.1380   24.9050   39.1700 H   0  0  0  0  0  0  0  0  0  0  0  0
   36.8900   23.2830   40.9380 H   0  0  0  0  0  0  0  0  0  0  0  0
   37.9430   24.1430   42.9210 H   0  0  0  0  0  0  0  0  0  0  0  0
   38.4700   26.6260   43.6000 O   0  0  0  0  0  0  0  0  0  0  0  0
   39.7750   27.0950   43.5280 C   0  0  0  0  0  0  0  0  0  0  0  0
   40.1160   28.3120   42.9740 C   0  0  0  0  0  0  0  0  0  0  0  0
   39.3310   28.9420   42.5730 H   0  0  0  0  0  0  0  0  0  0  0  0
   41.4510   28.6640   42.9620 C   0  0  0  0  0  3  0  0  0  0  0  0
   42.3980   27.8070   43.4930 C   0  0  0  0  0  0  0  0  0  0  0  0
   43.4420   28.1030   43.4740 H   0  0  0  0  0  0  0  0  0  0  0  0
   42.0510   26.5870   44.0460 C   0  0  0  0  0  0  0  0  0  0  0  0
   42.8030   25.9140   44.4650 H   0  0  0  0  0  0  0  0  0  0  0  0
   40.7080   26.2280   44.0620 C   0  0  0  0  0  3  0  0  0  0  0  0
  1  6  2  0  0  0  0
  1  2  1  0  0  0  0
  2  3  2  0  0  0  0
  3  4  1  0  0  0  0
  3 26  1  0  0  0  0
  5  9  1  0  0  0  0
  5  4  2  0  0  0  0
  6  5  1  0  0  0  0
  7  1  1  0  0  0  0
  8  2  1  0  0  0  0
  9 15  1  6  0  0  0
  9 14  1  0  0  0  0
 10 11  1  0  0  0  0
 10  9  1  0  0  0  0
 11 19  1  0  0  0  0
 11 12  1  0  0  0  0
 12 21  1  0  0  0  0
 12 13  1  0  0  0  0
 13 22  1  0  0  0  0
 14 13  2  0  0  0  0
 14 23  1  0  0  0  0
 16 10  1  0  0  0  0
 17 10  1  0  0  0  0
 18 11  1  0  0  0  0
 20 12  1  0  0  0  0
 23 25  1  0  0  0  0
 24 23  1  0  0  0  0
 26 31  1  0  0  0  0
 27 26  2  0  0  0  0
 27 28  1  0  0  0  0
 28 29  2  0  0  0  0
 29 30  1  0  0  0  0
 29 34  1  0  0  0  0
 30 35  1  0  0  0  0
 31 30  2  0  0  0  0
 32 27  1  0  0  0  0
 33 28  1  0  0  0  0
 36 35  1  0  0  0  0
 36 44  1  0  0  0  0
 37 36  2  0  0  0  0
 38 37  1  0  0  0  0
 39 37  1  0  0  0  0
 39 40  2  0  0  0  0
 40 42  1  0  0  0  0
 41 40  1  0  0  0  0
 42 44  2  0  0  0  0
 42 43  1  0  0  0  0
M  END
>  <minimizedAffinity>
-6.57611322

$$$$

 OpenBabel03252505133D

 44 47  0  0  1  0  0  0  0  0999 V2000
   38.3060   34.0280   40.1510 C   0  0  0  0  0  0  0  0  0  0  0  0
   38.3050   32.7460   40.7420 C   0  0  0  0  0  0  0  0  0  0  0  0
   39.5750   32.1580   41.0600 C   0  0  0  0  0  0  0  0  0  0  0  0
   40.7050   32.8520   40.7810 N   0  0  0  0  0  0  0  0  0  0  0  0
   40.6570   34.0670   40.2180 C   0  0  0  0  0  0  0  0  0  0  0  0
   39.4620   34.6690   39.8970 N   0  0  0  0  0  0  0  0  0  0  0  0
   37.3760   34.4980   39.8990 H   0  0  0  0  0  0  0  0  0  0  0  0
   37.3830   32.2420   40.9410 H   0  0  0  0  0  0  0  0  0  0  0  0
   41.9260   34.7830   39.9300 C   0  0  2  0  0  0  0  0  0  0  0  0
   42.1790   34.5430   38.4570 C   0  0  0  0  0  0  0  0  0  0  0  0
   43.2330   33.5770   38.1240 C   0  0  0  0  0  0  0  0  0  0  0  0
   44.4850   34.0680   38.8490 C   0  0  0  0  0  0  0  0  0  0  0  0
   44.3460   34.0100   40.2940 C   0  0  0  0  0  0  0  0  0  0  0  0
   43.0000   34.3900   40.7970 C   0  0  0  0  0  0  0  0  0  0  0  0
   41.6840   35.8640   40.0900 H   0  0  0  0  0  0  0  0  0  0  0  0
   42.4630   35.5260   38.0110 H   0  0  0  0  0  0  0  0  0  0  0  0
   41.2620   34.2500   37.8980 H   0  0  0  0  0  0  0  0  0  0  0  0
   43.4640   33.6700   37.0530 H   0  0  0  0  0  0  0  0  0  0  0  0
   43.0000   32.5510   38.4420 H   0  0  0  0  0  0  0  0  0  0  0  0
   44.7380   35.0830   38.5130 H   0  0  0  0  0  0  0  0  0  0  0  0
   45.2630   33.3220   38.5850 H   0  0  0  0  0  0  0  0  0  0  0  0
   44.9600   33.7620   41.1200 H   0  0  0  0  0  0  0  0  0  0  0  0
   42.7190   34.3800   42.1990 N   0  0  0  0  0  0  0  0  0  0  0  0
   42.6530   35.3550   42.5960 H   0  0  0  0  0  0  0  0  0  0  0  0
   42.6260   33.4240   42.5900 H   0  0  0  0  0  0  0  0  0  0  0  0
   39.6050   30.8410   41.6720 C   0  0  0  0  0  0  0  0  0  0  0  0
   40.7910   30.3370   42.0720 C   0  0  0  0  0  0  0  0  0  0  0  0
   40.7640   29.0560   42.6540 C   0  0  0  0  0  0  0  0  0  0  0  0
   39.5240   28.4510   42.7540 C   0  0  0  0  0  0  0  0  0  0  0  0
   38.3170   28.9670   42.3450 C   0  0  0  0  0  0  0  0  0  0  0  0
   38.4160   30.2030   41.7940 N   0  0  0  0  0  0  0  0  0  0  0  0
   41.7390   30.8470   41.9740 H   0  0  0  0  0  0  0  0  0  0  0  0
   41.6570   28.5570   43.0100 H   0  0  0  0  0  0  0  0  0  0  0  0
   39.5290   27.4560   43.2090 H   0  0  0  0  0  0  0  0  0  0  0  0
   37.1390   28.2760   42.4870 O   0  0  0  0  0  0  0  0  0  0  0  0
   37.0040   27.0660   41.8200 C   0  0  0  0  0  0  0  0  0  0  0  0
   37.0850   25.8390   42.4460 C   0  0  0  0  0  0  0  0  0  0  0  0
   37.2630   25.8080   43.5150 H   0  0  0  0  0  0  0  0  0  0  0  0
   36.9340   24.7070   41.6700 C   0  0  0  0  0  3  0  0  0  0  0  0
   36.7080   24.8250   40.3100 C   0  0  0  0  0  0  0  0  0  0  0  0
   36.5920   23.9230   39.7180 H   0  0  0  0  0  0  0  0  0  0  0  0
   36.6280   26.0580   39.6870 C   0  0  0  0  0  0  0  0  0  0  0  0
   36.4490   26.1460   38.6130 H   0  0  0  0  0  0  0  0  0  0  0  0
   36.7790   27.2010   40.4640 C   0  0  0  0  0  3  0  0  0  0  0  0
  1  2  1  0  0  0  0
  2  8  1  0  0  0  0
  2  3  2  0  0  0  0
  3 26  1  0  0  0  0
  4  3  1  0  0  0  0
  5  4  2  0  0  0  0
  6  1  2  0  0  0  0
  6  5  1  0  0  0  0
  7  1  1  0  0  0  0
  9 15  1  1  0  0  0
  9  5  1  0  0  0  0
  9 14  1  0  0  0  0
 10  9  1  0  0  0  0
 11 19  1  0  0  0  0
 11 10  1  0  0  0  0
 11 12  1  0  0  0  0
 12 13  1  0  0  0  0
 13 14  2  0  0  0  0
 13 22  1  0  0  0  0
 14 23  1  0  0  0  0
 16 10  1  0  0  0  0
 17 10  1  0  0  0  0
 18 11  1  0  0  0  0
 20 12  1  0  0  0  0
 21 12  1  0  0  0  0
 23 25  1  0  0  0  0
 23 24  1  0  0  0  0
 26 31  2  0  0  0  0
 26 27  1  0  0  0  0
 27 28  2  0  0  0  0
 28 29  1  0  0  0  0
 28 33  1  0  0  0  0
 29 34  1  0  0  0  0
 30 35  1  0  0  0  0
 30 29  2  0  0  0  0
 31 30  1  0  0  0  0
 32 27  1  0  0  0  0
 36 37  1  0  0  0  0
 36 35  1  0  0  0  0
 37 38  1  0  0  0  0
 39 37  2  0  0  0  0
 40 39  1  0  0  0  0
 41 40  1  0  0  0  0
 42 40  2  0  0  0  0
 42 44  1  0  0  0  0
 43 42  1  0  0  0  0
 44 36  2  0  0  0  0
M  END
>  <minimizedAffinity>
-6.57547569

$$$$

 OpenBabel03252505133D

 44 47  0  0  1  0  0  0  0  0999 V2000
   35.8700   29.2260   37.8630 C   0  0  0  0  0  0  0  0  0  0  0  0
   36.0160   28.5550   39.0970 C   0  0  0  0  0  0  0  0  0  0  0  0
   36.8840   29.1440   40.0760 C   0  0  0  0  0  0  0  0  0  0  0  0
   37.5170   30.3040   39.7770 N   0  0  0  0  0  0  0  0  0  0  0  0
   37.3490   30.9050   38.5920 C   0  0  0  0  0  0  0  0  0  0  0  0
   36.5260   30.3770   37.6230 N   0  0  0  0  0  0  0  0  0  0  0  0
   35.2310   28.8170   37.1060 H   0  0  0  0  0  0  0  0  0  0  0  0
   35.4920   27.6410   39.2810 H   0  0  0  0  0  0  0  0  0  0  0  0
   38.0690   32.1730   38.3130 C   0  0  2  0  0  0  0  0  0  0  0  0
   39.3900   31.7430   37.7120 C   0  0  0  0  0  0  0  0  0  0  0  0
   40.5690   31.8490   38.5810 C   0  0  0  0  0  0  0  0  0  0  0  0
   40.6000   33.3010   39.0570 C   0  0  0  0  0  0  0  0  0  0  0  0
   39.4630   33.6310   39.9000 C   0  0  0  0  0  0  0  0  0  0  0  0
   38.1800   33.0200   39.4670 C   0  0  0  0  0  0  0  0  0  0  0  0
   37.4560   32.6810   37.5270 H   0  0  0  0  0  0  0  0  0  0  0  0
   39.5670   32.3870   36.8180 H   0  0  0  0  0  0  0  0  0  0  0  0
   39.3660   30.7100   37.2980 H   0  0  0  0  0  0  0  0  0  0  0  0
   41.4690   31.7280   37.9620 H   0  0  0  0  0  0  0  0  0  0  0  0
   40.5310   31.1760   39.4500 H   0  0  0  0  0  0  0  0  0  0  0  0
   40.6650   33.9760   38.1930 H   0  0  0  0  0  0  0  0  0  0  0  0
   41.4940   33.3540   39.7120 H   0  0  0  0  0  0  0  0  0  0  0  0
   39.2890   34.2080   40.7700 H   0  0  0  0  0  0  0  0  0  0  0  0
   36.9770   33.2590   40.2020 N   0  0  0  0  0  0  0  0  0  0  0  0
   36.3250   33.9120   39.6920 H   0  0  0  0  0  0  0  0  0  0  0  0
   36.9450   32.7550   41.1070 H   0  0  0  0  0  0  0  0  0  0  0  0
   37.0510   28.4770   41.3560 C   0  0  0  0  0  0  0  0  0  0  0  0
   37.4170   29.2090   42.4280 C   0  0  0  0  0  0  0  0  0  0  0  0
   37.5690   28.5150   43.6410 C   0  0  0  0  0  0  0  0  0  0  0  0
   37.3280   27.1520   43.6050 C   0  0  0  0  0  0  0  0  0  0  0  0
   36.9570   26.4070   42.5110 C   0  0  0  0  0  0  0  0  0  0  0  0
   36.8270   27.1410   41.3750 N   0  0  0  0  0  0  0  0  0  0  0  0
   37.5960   30.2760   42.4110 H   0  0  0  0  0  0  0  0  0  0  0  0
   37.8590   29.0030   44.5630 H   0  0  0  0  0  0  0  0  0  0  0  0
   37.4540   26.6330   44.5600 H   0  0  0  0  0  0  0  0  0  0  0  0
   36.7460   25.0530   42.5840 O   0  0  0  0  0  0  0  0  0  0  0  0
   37.1520   24.2670   41.5130 C   0  0  0  0  0  0  0  0  0  0  0  0
   38.4630   23.8960   41.2970 C   0  0  0  0  0  0  0  0  0  0  0  0
   39.2230   24.2290   41.9940 H   0  0  0  0  0  0  0  0  0  0  0  0
   38.7380   23.1120   40.1930 C   0  0  0  0  0  3  0  0  0  0  0  0
   37.7150   22.7250   39.3470 C   0  0  0  0  0  0  0  0  0  0  0  0
   37.9520   22.1080   38.4860 H   0  0  0  0  0  0  0  0  0  0  0  0
   36.4020   23.1000   39.5680 C   0  0  0  0  0  0  0  0  0  0  0  0
   35.5970   22.7910   38.8970 H   0  0  0  0  0  0  0  0  0  0  0  0
   36.1190   23.8890   40.6780 C   0  0  0  0  0  3  0  0  0  0  0  0
  1  2  1  0  0  0  0
  2  8  1  0  0  0  0
  2  3  2  0  0  0  0
  3 26  1  0  0  0  0
  4  3  1  0  0  0  0
  5  4  2  0  0  0  0
  6  1  2  0  0  0  0
  6  5  1  0  0  0  0
  7  1  1  0  0  0  0
  9 15  1  6  0  0  0
  9  5  1  0  0  0  0
  9 14  1  0  0  0  0
 10  9  1  0  0  0  0
 10 11  1  0  0  0  0
 11 12  1  0  0  0  0
 11 19  1  0  0  0  0
 12 21  1  0  0  0  0
 12 13  1  0  0  0  0
 13 22  1  0  0  0  0
 14 13  2  0  0  0  0
 14 23  1  0  0  0  0
 16 10  1  0  0  0  0
 17 10  1  0  0  0  0
 18 11  1  0  0  0  0
 20 12  1  0  0  0  0
 23 25  1  0  0  0  0
 24 23  1  0  0  0  0
 26 31  2  0  0  0  0
 26 27  1  0  0  0  0
 27 28  2  0  0  0  0
 28 33  1  0  0  0  0
 29 28  1  0  0  0  0
 29 34  1  0  0  0  0
 30 35  1  0  0  0  0
 30 29  2  0  0  0  0
 31 30  1  0  0  0  0
 32 27  1  0  0  0  0
 36 35  1  0  0  0  0
 37 36  1  0  0  0  0
 37 38  1  0  0  0  0
 39 37  2  0  0  0  0
 40 42  2  0  0  0  0
 40 39  1  0  0  0  0
 41 40  1  0  0  0  0
 42 44  1  0  0  0  0
 43 42  1  0  0  0  0
 44 36  2  0  0  0  0
M  END
>  <minimizedAffinity>
-6.51129293

$$$$

 OpenBabel03252505133D

 44 47  0  0  1  0  0  0  0  0999 V2000
   38.6260   34.2990   40.2340 C   0  0  0  0  0  0  0  0  0  0  0  0
   37.7210   33.2160   40.2790 C   0  0  0  0  0  0  0  0  0  0  0  0
   38.2570   31.9120   40.5500 C   0  0  0  0  0  0  0  0  0  0  0  0
   39.5910   31.7810   40.7480 N   0  0  0  0  0  0  0  0  0  0  0  0
   40.4120   32.8380   40.6950 C   0  0  0  0  0  0  0  0  0  0  0  0
   39.9420   34.1060   40.4380 N   0  0  0  0  0  0  0  0  0  0  0  0
   38.2630   35.2880   40.0330 H   0  0  0  0  0  0  0  0  0  0  0  0
   36.6770   33.3750   40.1160 H   0  0  0  0  0  0  0  0  0  0  0  0
   41.8660   32.6390   40.9160 C   0  0  2  0  0  0  0  0  0  0  0  0
   42.4330   32.3720   39.5380 C   0  0  0  0  0  0  0  0  0  0  0  0
   42.7980   30.9810   39.2390 C   0  0  0  0  0  0  0  0  0  0  0  0
   43.7620   30.5610   40.3470 C   0  0  0  0  0  0  0  0  0  0  0  0
   43.1220   30.5250   41.6520 C   0  0  0  0  0  0  0  0  0  0  0  0
   42.1510   31.6250   41.8910 C   0  0  0  0  0  0  0  0  0  0  0  0
   42.2360   33.6300   41.2800 H   0  0  0  0  0  0  0  0  0  0  0  0
   43.3540   32.9950   39.4380 H   0  0  0  0  0  0  0  0  0  0  0  0
   41.7740   32.7340   38.7160 H   0  0  0  0  0  0  0  0  0  0  0  0
   43.3950   30.9690   38.3170 H   0  0  0  0  0  0  0  0  0  0  0  0
   41.9350   30.3000   39.2210 H   0  0  0  0  0  0  0  0  0  0  0  0
   44.6380   31.2230   40.3520 H   0  0  0  0  0  0  0  0  0  0  0  0
   44.0180   29.5100   40.1020 H   0  0  0  0  0  0  0  0  0  0  0  0
   43.1570   29.9090   42.5120 H   0  0  0  0  0  0  0  0  0  0  0  0
   41.4470   31.7150   43.1320 N   0  0  0  0  0  0  0  0  0  0  0  0
   41.8080   32.5020   43.7340 H   0  0  0  0  0  0  0  0  0  0  0  0
   40.7050   30.9990   43.2340 H   0  0  0  0  0  0  0  0  0  0  0  0
   37.3490   30.7790   40.6060 C   0  0  0  0  0  0  0  0  0  0  0  0
   36.4720   30.5990   39.5970 C   0  0  0  0  0  0  0  0  0  0  0  0
   35.6130   29.4900   39.7020 C   0  0  0  0  0  0  0  0  0  0  0  0
   35.7590   28.7030   40.8310 C   0  0  0  0  0  0  0  0  0  0  0  0
   36.6530   28.8890   41.8590 C   0  0  0  0  0  0  0  0  0  0  0  0
   37.4510   29.9760   41.6920 N   0  0  0  0  0  0  0  0  0  0  0  0
   36.3920   31.2410   38.7310 H   0  0  0  0  0  0  0  0  0  0  0  0
   34.8710   29.2510   38.9500 H   0  0  0  0  0  0  0  0  0  0  0  0
   35.0800   27.8470   40.8910 H   0  0  0  0  0  0  0  0  0  0  0  0
   36.7120   28.0470   42.9410 O   0  0  0  0  0  0  0  0  0  0  0  0
   37.5870   26.9700   42.8860 C   0  0  0  0  0  0  0  0  0  0  0  0
   37.3200   25.8080   42.1920 C   0  0  0  0  0  0  0  0  0  0  0  0
   36.3810   25.7220   41.6580 H   0  0  0  0  0  0  0  0  0  0  0  0
   38.2730   24.8080   42.2170 C   0  0  0  0  0  3  0  0  0  0  0  0
   39.4490   24.9890   42.9210 C   0  0  0  0  0  0  0  0  0  0  0  0
   40.1850   24.1920   42.9270 H   0  0  0  0  0  0  0  0  0  0  0  0
   39.7120   26.1570   43.6160 C   0  0  0  0  0  0  0  0  0  0  0  0
   40.6420   26.2960   44.1710 H   0  0  0  0  0  0  0  0  0  0  0  0
   38.7560   27.1660   43.5950 C   0  0  0  0  0  3  0  0  0  0  0  0
  1  2  2  0  0  0  0
  1  6  1  0  0  0  0
  2  3  1  0  0  0  0
  3 26  1  0  0  0  0
  3  4  2  0  0  0  0
  5  4  1  0  0  0  0
  5  9  1  0  0  0  0
  6  5  2  0  0  0  0
  7  1  1  0  0  0  0
  8  2  1  0  0  0  0
  9 15  1  1  0  0  0
  9 14  1  0  0  0  0
 10  9  1  0  0  0  0
 11 10  1  0  0  0  0
 11 12  1  0  0  0  0
 12 20  1  0  0  0  0
 12 13  1  0  0  0  0
 13 14  2  0  0  0  0
 13 22  1  0  0  0  0
 14 23  1  0  0  0  0
 16 10  1  0  0  0  0
 17 10  1  0  0  0  0
 18 11  1  0  0  0  0
 19 11  1  0  0  0  0
 21 12  1  0  0  0  0
 23 25  1  0  0  0  0
 23 24  1  0  0  0  0
 26 31  1  0  0  0  0
 27 28  1  0  0  0  0
 27 26  2  0  0  0  0
 28 29  2  0  0  0  0
 29 34  1  0  0  0  0
 29 30  1  0  0  0  0
 30 35  1  0  0  0  0
 31 30  2  0  0  0  0
 32 27  1  0  0  0  0
 33 28  1  0  0  0  0
 36 35  1  0  0  0  0
 36 44  1  0  0  0  0
 37 39  1  0  0  0  0
 37 36  2  0  0  0  0
 38 37  1  0  0  0  0
 39 40  2  0  0  0  0
 40 41  1  0  0  0  0
 40 42  1  0  0  0  0
 42 43  1  0  0  0  0
 44 42  2  0  0  0  0
M  END
>  <minimizedAffinity>
-6.49307346

$$$$

 OpenBabel03252505133D

 44 47  0  0  1  0  0  0  0  0999 V2000
   37.3530   32.4440   39.9320 C   0  0  0  0  0  0  0  0  0  0  0  0
   37.0050   31.2500   40.5990 C   0  0  0  0  0  0  0  0  0  0  0  0
   38.0280   30.2560   40.7620 C   0  0  0  0  0  0  0  0  0  0  0  0
   39.2670   30.5060   40.2750 N   0  0  0  0  0  0  0  0  0  0  0  0
   39.5510   31.6560   39.6480 C   0  0  0  0  0  0  0  0  0  0  0  0
   38.6020   32.6360   39.4690 N   0  0  0  0  0  0  0  0  0  0  0  0
   36.6150   33.2090   39.7900 H   0  0  0  0  0  0  0  0  0  0  0  0
   36.0110   31.1030   40.9650 H   0  0  0  0  0  0  0  0  0  0  0  0
   40.9250   31.8780   39.1290 C   0  0  2  0  0  0  0  0  0  0  0  0
   41.6950   32.4390   40.3060 C   0  0  0  0  0  0  0  0  0  0  0  0
   41.9890   33.8770   40.2690 C   0  0  0  0  0  0  0  0  0  0  0  0
   42.7110   34.1160   38.9440 C   0  0  0  0  0  0  0  0  0  0  0  0
   41.8560   33.8630   37.7960 C   0  0  0  0  0  0  0  0  0  0  0  0
   40.9530   32.6920   37.9480 C   0  0  0  0  0  0  0  0  0  0  0  0
   41.3080   30.8530   38.8940 H   0  0  0  0  0  0  0  0  0  0  0  0
   42.6680   31.8930   40.3480 H   0  0  0  0  0  0  0  0  0  0  0  0
   41.2200   32.2140   41.2870 H   0  0  0  0  0  0  0  0  0  0  0  0
   42.7330   34.0990   41.0470 H   0  0  0  0  0  0  0  0  0  0  0  0
   41.0890   34.5060   40.3190 H   0  0  0  0  0  0  0  0  0  0  0  0
   43.6250   33.5090   38.9010 H   0  0  0  0  0  0  0  0  0  0  0  0
   42.9170   35.2060   38.9390 H   0  0  0  0  0  0  0  0  0  0  0  0
   41.6910   34.2980   36.8450 H   0  0  0  0  0  0  0  0  0  0  0  0
   40.0560   32.3250   36.8970 N   0  0  0  0  0  0  0  0  0  0  0  0
   40.3730   31.4530   36.3940 H   0  0  0  0  0  0  0  0  0  0  0  0
   39.2510   32.9700   36.8020 H   0  0  0  0  0  0  0  0  0  0  0  0
   37.6990   29.0180   41.4480 C   0  0  0  0  0  0  0  0  0  0  0  0
   37.2310   29.0790   42.7110 C   0  0  0  0  0  0  0  0  0  0  0  0
   36.9320   27.8520   43.3310 C   0  0  0  0  0  0  0  0  0  0  0  0
   37.1540   26.7120   42.5770 C   0  0  0  0  0  0  0  0  0  0  0  0
   37.6330   26.6520   41.2900 C   0  0  0  0  0  0  0  0  0  0  0  0
   37.8980   27.8710   40.7540 N   0  0  0  0  0  0  0  0  0  0  0  0
   37.0730   29.9950   43.2640 H   0  0  0  0  0  0  0  0  0  0  0  0
   36.5510   27.7840   44.3410 H   0  0  0  0  0  0  0  0  0  0  0  0
   36.9150   25.7700   43.0800 H   0  0  0  0  0  0  0  0  0  0  0  0
   37.8200   25.4620   40.6320 O   0  0  0  0  0  0  0  0  0  0  0  0
   36.7980   24.9960   39.8160 C   0  0  0  0  0  0  0  0  0  0  0  0
   36.3810   25.6470   38.6730 C   0  0  0  0  0  0  0  0  0  0  0  0
   36.8710   26.5700   38.3890 H   0  0  0  0  0  0  0  0  0  0  0  0
   35.3530   25.0800   37.9460 C   0  0  0  0  0  3  0  0  0  0  0  0
   34.7750   23.8970   38.3710 C   0  0  0  0  0  0  0  0  0  0  0  0
   33.9680   23.4680   37.7850 H   0  0  0  0  0  0  0  0  0  0  0  0
   35.1960   23.2480   39.5180 C   0  0  0  0  0  0  0  0  0  0  0  0
   34.7370   22.3140   39.8490 H   0  0  0  0  0  0  0  0  0  0  0  0
   36.2310   23.8150   40.2530 C   0  0  0  0  0  3  0  0  0  0  0  0
  1  2  1  0  0  0  0
  2  3  2  0  0  0  0
  2  8  1  0  0  0  0
  3 26  1  0  0  0  0
  4  3  1  0  0  0  0
  5  4  2  0  0  0  0
  6  5  1  0  0  0  0
  6  1  2  0  0  0  0
  7  1  1  0  0  0  0
  9 15  1  6  0  0  0
  9  5  1  0  0  0  0
  9 10  1  0  0  0  0
 10 16  1  0  0  0  0
 10 17  1  0  0  0  0
 11 10  1  0  0  0  0
 11 19  1  0  0  0  0
 11 18  1  0  0  0  0
 12 11  1  0  0  0  0
 13 14  2  0  0  0  0
 13 12  1  0  0  0  0
 14  9  1  0  0  0  0
 20 12  1  0  0  0  0
 21 12  1  0  0  0  0
 22 13  1  0  0  0  0
 23 14  1  0  0  0  0
 24 23  1  0  0  0  0
 25 23  1  0  0  0  0
 26 27  1  0  0  0  0
 27 32  1  0  0  0  0
 27 28  2  0  0  0  0
 28 33  1  0  0  0  0
 29 34  1  0  0  0  0
 29 28  1  0  0  0  0
 30 29  2  0  0  0  0
 31 30  1  0  0  0  0
 31 26  2  0  0  0  0
 35 30  1  0  0  0  0
 36 44  1  0  0  0  0
 36 35  1  0  0  0  0
 37 36  2  0  0  0  0
 38 37  1  0  0  0  0
 39 40  2  0  0  0  0
 39 37  1  0  0  0  0
 40 42  1  0  0  0  0
 41 40  1  0  0  0  0
 42 43  1  0  0  0  0
 42 44  2  0  0  0  0
M  END
>  <minimizedAffinity>
-6.46130037

$$$$

 OpenBabel03252505133D

 44 47  0  0  1  0  0  0  0  0999 V2000
   41.0240   34.1610   40.1830 C   0  0  0  0  0  0  0  0  0  0  0  0
   41.5870   33.1720   41.0180 C   0  0  0  0  0  0  0  0  0  0  0  0
   40.8880   31.9240   41.1360 C   0  0  0  0  0  0  0  0  0  0  0  0
   39.7320   31.7530   40.4500 N   0  0  0  0  0  0  0  0  0  0  0  0
   39.2350   32.7220   39.6700 C   0  0  0  0  0  0  0  0  0  0  0  0
   39.8710   33.9340   39.5260 N   0  0  0  0  0  0  0  0  0  0  0  0
   41.5170   35.1060   40.0700 H   0  0  0  0  0  0  0  0  0  0  0  0
   42.5030   33.3580   41.5370 H   0  0  0  0  0  0  0  0  0  0  0  0
   37.9620   32.4850   38.9420 C   0  0  2  0  0  0  0  0  0  0  0  0
   37.0600   31.8080   39.9520 C   0  0  0  0  0  0  0  0  0  0  0  0
   36.8470   30.3670   39.7750 C   0  0  0  0  0  0  0  0  0  0  0  0
   36.3350   30.1980   38.3460 C   0  0  0  0  0  0  0  0  0  0  0  0
   37.3320   30.5690   37.3550 C   0  0  0  0  0  0  0  0  0  0  0  0
   38.1440   31.7600   37.7170 C   0  0  0  0  0  0  0  0  0  0  0  0
   37.5660   33.5080   38.7230 H   0  0  0  0  0  0  0  0  0  0  0  0
   36.0650   32.3100   39.8880 H   0  0  0  0  0  0  0  0  0  0  0  0
   37.3790   31.9780   41.0050 H   0  0  0  0  0  0  0  0  0  0  0  0
   36.0120   30.0570   40.4190 H   0  0  0  0  0  0  0  0  0  0  0  0
   37.7610   29.7710   39.9140 H   0  0  0  0  0  0  0  0  0  0  0  0
   35.4070   30.7690   38.2110 H   0  0  0  0  0  0  0  0  0  0  0  0
   36.1860   29.1040   38.2370 H   0  0  0  0  0  0  0  0  0  0  0  0
   37.6520   30.2130   36.4110 H   0  0  0  0  0  0  0  0  0  0  0  0
   39.1620   32.2400   36.8350 N   0  0  0  0  0  0  0  0  0  0  0  0
   38.8780   33.1340   36.3520 H   0  0  0  0  0  0  0  0  0  0  0  0
   40.0040   31.6360   36.8160 H   0  0  0  0  0  0  0  0  0  0  0  0
   41.4460   30.8850   41.9860 C   0  0  0  0  0  0  0  0  0  0  0  0
   42.5770   31.1470   42.6730 C   0  0  0  0  0  0  0  0  0  0  0  0
   43.0780   30.1060   43.4770 C   0  0  0  0  0  0  0  0  0  0  0  0
   42.3570   28.9250   43.4750 C   0  0  0  0  0  0  0  0  0  0  0  0
   41.2050   28.6610   42.7720 C   0  0  0  0  0  0  0  0  0  0  0  0
   40.7780   29.7070   42.0190 N   0  0  0  0  0  0  0  0  0  0  0  0
   43.1090   32.0870   42.6450 H   0  0  0  0  0  0  0  0  0  0  0  0
   43.9780   30.2070   44.0700 H   0  0  0  0  0  0  0  0  0  0  0  0
   42.7660   28.1310   44.1060 H   0  0  0  0  0  0  0  0  0  0  0  0
   40.5680   27.4470   42.8380 O   0  0  0  0  0  0  0  0  0  0  0  0
   39.1820   27.4280   42.7620 C   0  0  0  0  0  0  0  0  0  0  0  0
   38.3580   27.7610   43.8170 C   0  0  0  0  0  0  0  0  0  0  0  0
   38.8070   28.0550   44.7580 H   0  0  0  0  0  0  0  0  0  0  0  0
   36.9930   27.7010   43.6130 C   0  0  0  0  0  3  0  0  0  0  0  0
   36.4930   27.3170   42.3830 C   0  0  0  0  0  0  0  0  0  0  0  0
   35.4170   27.2770   42.2440 H   0  0  0  0  0  0  0  0  0  0  0  0
   37.3240   26.9830   41.3280 C   0  0  0  0  0  0  0  0  0  0  0  0
   36.9240   26.6810   40.3570 H   0  0  0  0  0  0  0  0  0  0  0  0
   38.6980   27.0420   41.5270 C   0  0  0  0  0  3  0  0  0  0  0  0
  1  2  1  0  0  0  0
  2  3  2  0  0  0  0
  2  8  1  0  0  0  0
  3 26  1  0  0  0  0
  4  3  1  0  0  0  0
  5  4  2  0  0  0  0
  6  5  1  0  0  0  0
  6  1  2  0  0  0  0
  7  1  1  0  0  0  0
  9 15  1  6  0  0  0
  9  5  1  0  0  0  0
  9 10  1  0  0  0  0
 10 17  1  0  0  0  0
 11 19  1  0  0  0  0
 11 10  1  0  0  0  0
 11 18  1  0  0  0  0
 12 11  1  0  0  0  0
 13 14  2  0  0  0  0
 13 12  1  0  0  0  0
 14  9  1  0  0  0  0
 16 10  1  0  0  0  0
 20 12  1  0  0  0  0
 21 12  1  0  0  0  0
 22 13  1  0  0  0  0
 23 14  1  0  0  0  0
 24 23  1  0  0  0  0
 25 23  1  0  0  0  0
 26 31  2  0  0  0  0
 26 27  1  0  0  0  0
 27 28  2  0  0  0  0
 28 33  1  0  0  0  0
 29 28  1  0  0  0  0
 29 34  1  0  0  0  0
 30 35  1  0  0  0  0
 30 29  2  0  0  0  0
 31 30  1  0  0  0  0
 32 27  1  0  0  0  0
 36 35  1  0  0  0  0
 36 37  1  0  0  0  0
 37 38  1  0  0  0  0
 39 37  2  0  0  0  0
 40 39  1  0  0  0  0
 41 40  1  0  0  0  0
 42 44  1  0  0  0  0
 42 40  2  0  0  0  0
 43 42  1  0  0  0  0
 44 36  2  0  0  0  0
M  END
>  <minimizedAffinity>
-6.45362997

$$$$
