
 OpenBabel03242522343D

 33 35  0  0  0  0  0  0  0  0999 V2000
   43.7190   35.1380   42.3020 C   0  0  0  0  0  0  0  0  0  0  0  0
   42.8050   35.1010   41.2730 C   0  0  0  0  0  0  0  0  0  0  0  0
   43.1790   34.4820   40.1050 C   0  0  0  0  0  0  0  0  0  0  0  0
   44.4220   33.8850   39.8870 C   0  0  0  0  0  0  0  0  0  0  0  0
   45.3290   33.9380   40.9480 C   0  0  0  0  0  0  0  0  0  0  0  0
   44.9620   34.5620   42.1340 C   0  0  0  0  0  0  0  0  0  0  0  0
   42.5110   34.4230   39.2710 H   0  0  0  0  0  0  0  0  0  0  0  0
   44.6970   33.4090   38.9760 H   0  0  0  0  0  0  0  0  0  0  0  0
   46.2930   33.4790   40.7910 H   0  0  0  0  0  0  0  0  0  0  0  0
   41.4580   35.6960   41.3770 C   0  0  0  0  0  0  0  0  0  0  0  0
   41.3560   36.5530   40.7130 H   0  0  0  0  0  0  0  0  0  0  0  0
   41.3280   36.1120   42.4190 H   0  0  0  0  0  0  0  0  0  0  0  0
   39.2150   32.7250   41.3020 C   0  0  0  0  0  0  0  0  0  0  0  0
   38.3780   33.0480   40.2340 C   0  0  0  0  0  0  0  0  0  0  0  0
   38.5990   34.2520   39.5780 C   0  0  0  0  0  0  0  0  0  0  0  0
   39.6020   35.0670   39.9860 N   0  0  0  0  0  0  0  0  0  0  0  0
   40.3980   34.7130   41.0360 C   0  0  0  0  0  0  0  0  0  0  0  0
   40.1930   33.5470   41.6790 N   0  0  0  0  0  0  0  0  0  0  0  0
   39.1690   31.8220   41.9140 H   0  0  0  0  0  0  0  0  0  0  0  0
   37.6140   32.3180   40.0030 H   0  0  0  0  0  0  0  0  0  0  0  0
   37.9470   34.4840   38.7600 H   0  0  0  0  0  0  0  0  0  0  0  0
   43.4010   35.7430   43.4910 O   0  0  0  0  0  0  0  0  0  0  0  0
   43.5250   35.3090   44.3980 H   0  0  0  0  0  0  0  0  0  0  0  0
   45.8920   34.5850   43.1480 O   0  0  0  0  0  0  0  0  0  0  0  0
   47.2360   34.5780   42.8020 C   0  0  0  0  0  0  0  0  0  0  0  0
   47.9500   33.4600   43.2290 C   0  0  0  0  0  0  0  0  0  0  0  0
   47.5070   32.6600   43.7820 H   0  0  0  0  0  0  0  0  0  0  0  0
   49.3000   33.3910   42.9150 C   0  0  0  0  0  0  0  0  0  0  0  0
   49.9310   34.4050   42.1940 C   0  0  0  0  0  0  0  0  0  0  0  0
   50.9770   34.3890   41.9300 H   0  0  0  0  0  0  0  0  0  0  0  0
   49.1610   35.4920   41.8000 C   0  0  0  0  0  0  0  0  0  0  0  0
   49.6570   36.2900   41.2330 H   0  0  0  0  0  0  0  0  0  0  0  0
   47.8140   35.6090   42.0860 C   0  0  0  0  0  0  0  0  0  0  0  0
  1 22  1  0  0  0  0
  2 10  1  0  0  0  0
  2  1  2  0  0  0  0
  3  2  1  0  0  0  0
  4  3  2  0  0  0  0
  4  5  1  0  0  0  0
  5  6  2  0  0  0  0
  6  1  1  0  0  0  0
  6 24  1  0  0  0  0
  7  3  1  0  0  0  0
  8  4  1  0  0  0  0
  9  5  1  0  0  0  0
 10 12  1  0  0  0  0
 11 10  1  0  0  0  0
 13 18  1  0  0  0  0
 13 19  1  0  0  0  0
 14 13  2  0  0  0  0
 15 16  2  0  0  0  0
 15 14  1  0  0  0  0
 16 17  1  0  0  0  0
 17 10  1  0  0  0  0
 17 18  2  0  0  0  0
 20 14  1  0  0  0  0
 21 15  1  0  0  0  0
 22 23  1  0  0  0  0
 25 24  1  0  0  0  0
 25 26  1  0  0  0  0
 26 27  1  0  0  0  0
 28 26  2  0  0  0  0
 29 28  1  0  0  0  0
 30 29  1  0  0  0  0
 31 33  1  0  0  0  0
 31 29  2  0  0  0  0
 32 31  1  0  0  0  0
 33 25  2  0  0  0  0
M  END
>  <minimizedAffinity>
-6.29818058

>  <minimizedRMSD>
8.30175781

$$$$
