
 OpenBabel03252509043D

 48 50  0  0  1  0  0  0  0  0999 V2000
   47.0610   34.3150   43.1820 N   0  0  0  0  0  0  0  0  0  0  0  0
   46.5060   35.4480   42.5520 C   0  0  0  0  0  0  0  0  0  0  0  0
   45.0100   35.5930   42.7130 C   0  0  0  0  0  0  0  0  0  0  0  0
   44.4920   35.1170   44.0470 C   0  0  0  0  0  0  0  0  0  0  0  0
   45.6130   34.6600   44.9580 C   0  0  0  0  0  0  0  0  0  0  0  0
   46.3580   33.5670   44.0940 C   0  0  2  0  0  0  0  0  0  0  0  0
   46.9410   36.3610   43.0400 H   0  0  0  0  0  0  0  0  0  0  0  0
   46.7060   35.5610   41.4770 H   0  0  0  0  0  0  0  0  0  0  0  0
   44.7530   36.6680   42.5720 H   0  0  0  0  0  0  0  0  0  0  0  0
   44.4600   35.0410   41.9080 H   0  0  0  0  0  0  0  0  0  0  0  0
   44.0020   35.9750   44.5830 H   0  0  0  0  0  0  0  0  0  0  0  0
   43.7460   34.3220   43.9910 H   0  0  0  0  0  0  0  0  0  0  0  0
   45.1710   34.1270   45.8130 H   0  0  0  0  0  0  0  0  0  0  0  0
   46.3180   35.4450   45.2300 H   0  0  0  0  0  0  0  0  0  0  0  0
   45.5670   32.8800   43.7310 H   0  0  0  0  0  0  0  0  0  0  0  0
   48.1190   33.6800   42.4370 C   0  0  0  0  0  0  0  0  0  0  0  0
   48.9120   33.2700   43.0900 H   0  0  0  0  0  0  0  0  0  0  0  0
   48.6150   34.4960   41.8630 H   0  0  0  0  0  0  0  0  0  0  0  0
   47.5070   32.7140   41.4910 C   0  0  0  0  0  0  0  0  0  0  0  0
   46.3930   32.7980   41.4330 H   0  0  0  0  0  0  0  0  0  0  0  0
   47.7230   31.6840   41.8180 H   0  0  0  0  0  0  0  0  0  0  0  0
   49.3830   32.2420   38.2750 C   0  0  0  0  0  0  0  0  0  0  0  0
   48.8810   32.0400   39.5740 C   0  0  0  0  0  0  0  0  0  0  0  0
   48.0240   32.9430   40.1230 C   0  0  0  0  0  0  0  0  0  0  0  0
   47.6960   33.9990   39.3850 N   0  0  0  0  0  0  0  0  0  0  0  0
   48.1650   34.2100   38.1430 C   0  0  0  0  0  0  0  0  0  0  0  0
   49.0120   33.3330   37.5770 N   0  0  0  0  0  0  0  0  0  0  0  0
   50.0700   31.5100   37.8450 H   0  0  0  0  0  0  0  0  0  0  0  0
   49.1990   31.1470   40.1140 H   0  0  0  0  0  0  0  0  0  0  0  0
   47.8750   35.0810   37.5740 H   0  0  0  0  0  0  0  0  0  0  0  0
   47.1570   32.9790   45.0560 O   0  0  0  0  0  0  0  0  0  0  0  0
   47.5050   30.4710   44.2460 O   0  0  0  0  0  0  0  0  0  0  0  0
   46.8020   31.3410   45.2800 P   0  0  2  0  0  0  0  0  0  0  0  0
   45.1350   31.1850   44.9790 O   0  0  0  0  0  0  0  0  0  0  0  0
   44.9390   30.3940   44.4180 H   0  0  0  0  0  0  0  0  0  0  0  0
   47.0970   30.8300   46.8420 O   0  0  0  0  0  0  0  0  0  0  0  0
   47.9460   29.7340   46.8030 C   0  0  0  0  0  0  0  0  0  0  0  0
   48.6370   29.7520   45.9310 H   0  0  0  0  0  0  0  0  0  0  0  0
   47.3590   28.7900   46.7780 H   0  0  0  0  0  0  0  0  0  0  0  0
   48.7180   29.7820   48.0900 C   0  0  0  0  0  0  0  0  0  0  0  0
   49.4130   28.6450   48.4610 C   0  0  0  0  0  0  0  0  0  0  0  0
   49.3980   27.7490   47.8390 H   0  0  0  0  0  0  0  0  0  0  0  0
   50.1560   28.5640   49.6150 C   0  0  0  0  0  3  0  0  0  0  0  0
   50.2250   29.6650   50.4610 C   0  0  0  0  0  0  0  0  0  0  0  0
   50.8040   29.6140   51.3710 H   0  0  0  0  0  0  0  0  0  0  0  0
   49.5230   30.8030   50.0770 C   0  0  0  0  0  0  0  0  0  0  0  0
   49.5470   31.6840   50.7050 H   0  0  0  0  0  0  0  0  0  0  0  0
   48.7760   30.8820   48.9170 C   0  0  0  0  0  3  0  0  0  0  0  0
  1  6  1  0  0  0  0
  2  3  1  0  0  0  0
  2  7  1  0  0  0  0
  2  1  1  0  0  0  0
  3  4  1  0  0  0  0
  4 11  1  0  0  0  0
  4  5  1  0  0  0  0
  5 14  1  0  0  0  0
  5 13  1  0  0  0  0
  6 15  1  6  0  0  0
  6  5  1  0  0  0  0
  6 31  1  0  0  0  0
  8  2  1  0  0  0  0
  9  3  1  0  0  0  0
 10  3  1  0  0  0  0
 12  4  1  0  0  0  0
 16 17  1  0  0  0  0
 16  1  1  0  0  0  0
 18 16  1  0  0  0  0
 19 21  1  0  0  0  0
 19 16  1  0  0  0  0
 20 19  1  0  0  0  0
 22 23  1  0  0  0  0
 23 29  1  0  0  0  0
 23 24  2  0  0  0  0
 24 19  1  0  0  0  0
 25 24  1  0  0  0  0
 26 25  2  0  0  0  0
 27 26  1  0  0  0  0
 27 22  2  0  0  0  0
 28 22  1  0  0  0  0
 30 26  1  0  0  0  0
 31 33  1  0  0  0  0
 33 32  2  6  0  0  0
 33 36  1  0  0  0  0
 34 33  1  0  0  0  0
 35 34  1  0  0  0  0
 37 36  1  0  0  0  0
 37 40  1  0  0  0  0
 38 37  1  0  0  0  0
 39 37  1  0  0  0  0
 40 41  2  0  0  0  0
 40 48  1  0  0  0  0
 41 43  1  0  0  0  0
 42 41  1  0  0  0  0
 43 44  2  0  0  0  0
 44 45  1  0  0  0  0
 46 44  1  0  0  0  0
 46 47  1  0  0  0  0
 48 46  2  0  0  0  0
M  END
>  <minimizedAffinity>
-4.58503532

>  <minimizedRMSD>
1.99675059

$$$$
