
 OpenBabel03252509303D

 21 22  0  0  0  0  0  0  0  0999 V2000
   46.0050   32.5490   39.9290 C   0  0  0  0  0  0  0  0  0  0  0  0
   45.7390   31.4690   40.1040 H   0  0  0  0  0  0  0  0  0  0  0  0
   45.1010   33.0950   39.5590 H   0  0  0  0  0  0  0  0  0  0  0  0
   46.4290   35.0780   42.6290 C   0  0  0  0  0  0  0  0  0  0  0  0
   45.9370   34.4080   41.4920 C   0  0  0  0  0  0  0  0  0  0  0  0
   46.5390   33.2210   41.1120 C   0  0  0  0  0  0  0  0  0  0  0  0
   47.5780   32.7530   41.8510 N   0  0  0  0  0  0  0  0  0  0  0  0
   48.0400   33.4180   42.9470 C   0  0  0  0  0  0  0  0  0  0  0  0
   47.4580   34.5700   43.3190 N   0  0  0  0  0  0  0  0  0  0  0  0
   45.9490   35.9910   42.9010 H   0  0  0  0  0  0  0  0  0  0  0  0
   45.1050   34.8290   40.9440 H   0  0  0  0  0  0  0  0  0  0  0  0
   48.8850   32.9570   43.4780 H   0  0  0  0  0  0  0  0  0  0  0  0
   47.1010   32.5640   38.9100 C   0  0  0  0  0  0  0  0  0  0  0  0
   47.6790   31.3760   38.5420 C   0  0  0  0  0  0  0  0  0  0  0  0
   47.3050   30.4580   39.0170 H   0  0  0  0  0  0  0  0  0  0  0  0
   48.6920   31.1830   37.6300 C   0  0  0  0  0  3  0  0  0  0  0  0
   49.1630   32.3570   37.0310 C   0  0  0  0  0  0  0  0  0  0  0  0
   49.9650   32.2500   36.3020 H   0  0  0  0  0  0  0  0  0  0  0  0
   48.6100   33.5830   37.3710 C   0  0  0  0  0  0  0  0  0  0  0  0
   49.0030   34.4790   36.8810 H   0  0  0  0  0  0  0  0  0  0  0  0
   47.5900   33.6960   38.3000 C   0  0  0  0  0  3  0  0  0  0  0  0
  1  2  1  0  0  0  0
  1  6  1  0  0  0  0
  3  1  1  0  0  0  0
  4 10  1  0  0  0  0
  4  9  1  0  0  0  0
  5  4  2  0  0  0  0
  6  5  1  0  0  0  0
  6  7  2  0  0  0  0
  7  8  1  0  0  0  0
  8  9  2  0  0  0  0
  8 12  1  0  0  0  0
 11  5  1  0  0  0  0
 13  1  1  0  0  0  0
 14 13  1  0  0  0  0
 14 15  1  0  0  0  0
 16 14  2  0  0  0  0
 17 19  2  0  0  0  0
 17 16  1  0  0  0  0
 18 17  1  0  0  0  0
 19 21  1  0  0  0  0
 20 19  1  0  0  0  0
 21 13  2  0  0  0  0
M  END
>  <minimizedAffinity>
-2.55057931

>  <minimizedRMSD>
4.67165041

$$$$
