
 OpenBabel03252504253D

 21 22  0  0  0  0  0  0  0  0999 V2000
   37.6160   28.3500   43.6730 C   0  0  0  0  0  0  0  0  0  0  0  0
   36.5100   28.2560   43.6250 H   0  0  0  0  0  0  0  0  0  0  0  0
   37.8830   28.6280   44.7030 H   0  0  0  0  0  0  0  0  0  0  0  0
   36.9920   29.8180   41.8370 C   0  0  0  0  0  0  0  0  0  0  0  0
   37.9920   29.4220   42.7440 C   0  0  0  0  0  0  0  0  0  0  0  0
   39.2020   30.0880   42.6520 C   0  0  0  0  0  0  0  0  0  0  0  0
   39.3670   31.0560   41.7270 N   0  0  0  0  0  0  0  0  0  0  0  0
   38.3830   31.4100   40.8710 C   0  0  0  0  0  0  0  0  0  0  0  0
   37.1640   30.7980   40.9040 N   0  0  0  0  0  0  0  0  0  0  0  0
   35.9900   29.3680   41.8100 H   0  0  0  0  0  0  0  0  0  0  0  0
   39.9350   29.7650   43.3510 H   0  0  0  0  0  0  0  0  0  0  0  0
   38.6180   32.1980   40.1680 H   0  0  0  0  0  0  0  0  0  0  0  0
   38.2200   27.0590   43.2960 C   0  0  0  0  0  0  0  0  0  0  0  0
   39.4630   26.5940   43.6780 C   0  0  0  0  0  0  0  0  0  0  0  0
   40.0420   27.2400   44.3140 H   0  0  0  0  0  0  0  0  0  0  0  0
   39.9260   25.3510   43.2550 C   0  0  0  0  0  3  0  0  0  0  0  0
   39.1670   24.5360   42.4390 C   0  0  0  0  0  0  0  0  0  0  0  0
   39.4800   23.5620   42.0810 H   0  0  0  0  0  0  0  0  0  0  0  0
   37.9270   24.9550   42.0320 C   0  0  0  0  0  0  0  0  0  0  0  0
   37.2720   24.3690   41.3910 H   0  0  0  0  0  0  0  0  0  0  0  0
   37.5020   26.1900   42.4720 C   0  0  0  0  0  3  0  0  0  0  0  0
  1  3  1  0  0  0  0
  2  1  1  0  0  0  0
  4  5  1  0  0  0  0
  5  1  1  0  0  0  0
  6  5  2  0  0  0  0
  6 11  1  0  0  0  0
  7  6  1  0  0  0  0
  8  9  1  0  0  0  0
  8  7  2  0  0  0  0
  9  4  2  0  0  0  0
 10  4  1  0  0  0  0
 12  8  1  0  0  0  0
 13  1  1  0  0  0  0
 13 14  1  0  0  0  0
 14 15  1  0  0  0  0
 16 14  2  0  0  0  0
 17 16  1  0  0  0  0
 18 17  1  0  0  0  0
 19 17  2  0  0  0  0
 19 21  1  0  0  0  0
 20 19  1  0  0  0  0
 21 13  2  0  0  0  0
M  END
>  <minimizedAffinity>
-4.42870665

$$$$

 OpenBabel03252504253D

 21 22  0  0  0  0  0  0  0  0999 V2000
   35.3140   29.2380   40.4910 C   0  0  0  0  0  0  0  0  0  0  0  0
   34.5950   28.8960   39.7170 H   0  0  0  0  0  0  0  0  0  0  0  0
   34.7320   29.6500   41.3280 H   0  0  0  0  0  0  0  0  0  0  0  0
   36.5940   31.2890   40.7470 C   0  0  0  0  0  0  0  0  0  0  0  0
   36.1340   30.2880   39.8740 C   0  0  0  0  0  0  0  0  0  0  0  0
   36.5060   30.4120   38.5460 C   0  0  0  0  0  0  0  0  0  0  0  0
   37.2700   31.4530   38.1580 N   0  0  0  0  0  0  0  0  0  0  0  0
   37.6950   32.3980   39.0260 C   0  0  0  0  0  0  0  0  0  0  0  0
   37.3680   32.3410   40.3480 N   0  0  0  0  0  0  0  0  0  0  0  0
   36.3690   31.3040   41.8210 H   0  0  0  0  0  0  0  0  0  0  0  0
   36.1410   29.6380   37.9140 H   0  0  0  0  0  0  0  0  0  0  0  0
   38.3040   33.1910   38.6110 H   0  0  0  0  0  0  0  0  0  0  0  0
   36.1300   28.0870   40.9240 C   0  0  0  0  0  0  0  0  0  0  0  0
   36.6090   27.0740   40.1180 C   0  0  0  0  0  0  0  0  0  0  0  0
   36.3610   27.1350   39.0730 H   0  0  0  0  0  0  0  0  0  0  0  0
   37.3730   26.0370   40.6470 C   0  0  0  0  0  3  0  0  0  0  0  0
   37.6810   25.9780   41.9900 C   0  0  0  0  0  0  0  0  0  0  0  0
   38.2690   25.1940   42.4520 H   0  0  0  0  0  0  0  0  0  0  0  0
   37.2260   26.9610   42.8310 C   0  0  0  0  0  0  0  0  0  0  0  0
   37.4280   26.9820   43.9000 H   0  0  0  0  0  0  0  0  0  0  0  0
   36.4740   27.9720   42.2720 C   0  0  0  0  0  3  0  0  0  0  0  0
  1 13  1  0  0  0  0
  1  3  1  0  0  0  0
  2  1  1  0  0  0  0
  4 10  1  0  0  0  0
  5  1  1  0  0  0  0
  5  4  2  0  0  0  0
  6  5  1  0  0  0  0
  7  6  2  0  0  0  0
  7  8  1  0  0  0  0
  8  9  2  0  0  0  0
  9  4  1  0  0  0  0
 11  6  1  0  0  0  0
 12  8  1  0  0  0  0
 13 21  1  0  0  0  0
 14 16  1  0  0  0  0
 14 13  2  0  0  0  0
 15 14  1  0  0  0  0
 16 17  2  0  0  0  0
 17 18  1  0  0  0  0
 17 19  1  0  0  0  0
 19 20  1  0  0  0  0
 21 19  2  0  0  0  0
M  END
>  <minimizedAffinity>
-4.28009748

$$$$

 OpenBabel03252504253D

 21 22  0  0  0  0  0  0  0  0999 V2000
   35.5180   28.8650   40.7960 C   0  0  0  0  0  0  0  0  0  0  0  0
   34.8720   29.3030   41.5860 H   0  0  0  0  0  0  0  0  0  0  0  0
   34.8770   28.2620   40.1360 H   0  0  0  0  0  0  0  0  0  0  0  0
   36.9560   26.9040   40.7350 C   0  0  0  0  0  0  0  0  0  0  0  0
   36.4980   28.0080   41.4750 C   0  0  0  0  0  0  0  0  0  0  0  0
   37.0230   28.1550   42.7480 C   0  0  0  0  0  0  0  0  0  0  0  0
   37.9220   27.2620   43.2100 N   0  0  0  0  0  0  0  0  0  0  0  0
   38.3400   26.2110   42.4690 C   0  0  0  0  0  0  0  0  0  0  0  0
   37.8660   26.0040   41.2070 N   0  0  0  0  0  0  0  0  0  0  0  0
   36.6170   26.6790   39.7150 H   0  0  0  0  0  0  0  0  0  0  0  0
   36.6560   29.0000   43.2800 H   0  0  0  0  0  0  0  0  0  0  0  0
   39.0640   25.5540   42.9340 H   0  0  0  0  0  0  0  0  0  0  0  0
   36.1690   29.9600   40.0510 C   0  0  0  0  0  0  0  0  0  0  0  0
   36.4650   29.9690   38.7020 C   0  0  0  0  0  0  0  0  0  0  0  0
   36.1920   29.0910   38.1460 H   0  0  0  0  0  0  0  0  0  0  0  0
   37.0830   31.0690   38.1120 C   0  0  0  0  0  3  0  0  0  0  0  0
   37.4250   32.1860   38.8440 C   0  0  0  0  0  0  0  0  0  0  0  0
   37.9080   33.0660   38.4350 H   0  0  0  0  0  0  0  0  0  0  0  0
   37.1520   32.2230   40.1870 C   0  0  0  0  0  0  0  0  0  0  0  0
   37.3910   33.0680   40.8290 H   0  0  0  0  0  0  0  0  0  0  0  0
   36.5380   31.1180   40.7370 C   0  0  0  0  0  3  0  0  0  0  0  0
  1  5  1  0  0  0  0
  1  2  1  0  0  0  0
  3  1  1  0  0  0  0
  4  9  2  0  0  0  0
  4  5  1  0  0  0  0
  5  6  2  0  0  0  0
  6  7  1  0  0  0  0
  6 11  1  0  0  0  0
  8 12  1  0  0  0  0
  8  7  2  0  0  0  0
  9  8  1  0  0  0  0
 10  4  1  0  0  0  0
 13 21  1  0  0  0  0
 13  1  1  0  0  0  0
 14 13  2  0  0  0  0
 15 14  1  0  0  0  0
 16 14  1  0  0  0  0
 16 17  2  0  0  0  0
 17 19  1  0  0  0  0
 18 17  1  0  0  0  0
 19 21  2  0  0  0  0
 19 20  1  0  0  0  0
M  END
>  <minimizedAffinity>
-4.27774382

$$$$

 OpenBabel03252504253D

 21 22  0  0  0  0  0  0  0  0999 V2000
   35.4020   29.0630   40.6560 C   0  0  0  0  0  0  0  0  0  0  0  0
   34.8660   29.4140   41.5620 H   0  0  0  0  0  0  0  0  0  0  0  0
   34.6520   28.6720   39.9530 H   0  0  0  0  0  0  0  0  0  0  0  0
   36.7410   28.0610   42.4220 C   0  0  0  0  0  0  0  0  0  0  0  0
   36.3040   27.9870   41.0870 C   0  0  0  0  0  0  0  0  0  0  0  0
   36.7720   26.9160   40.3450 C   0  0  0  0  0  0  0  0  0  0  0  0
   37.6010   26.0170   40.9150 N   0  0  0  0  0  0  0  0  0  0  0  0
   38.0010   26.1190   42.2010 C   0  0  0  0  0  0  0  0  0  0  0  0
   37.5800   27.1480   42.9920 N   0  0  0  0  0  0  0  0  0  0  0  0
   36.4410   28.8600   43.1120 H   0  0  0  0  0  0  0  0  0  0  0  0
   36.4210   26.8910   39.3420 H   0  0  0  0  0  0  0  0  0  0  0  0
   38.6670   25.3450   42.5600 H   0  0  0  0  0  0  0  0  0  0  0  0
   36.1410   30.1970   40.0700 C   0  0  0  0  0  0  0  0  0  0  0  0
   36.5730   31.3250   40.7390 C   0  0  0  0  0  0  0  0  0  0  0  0
   36.3460   31.3760   41.7890 H   0  0  0  0  0  0  0  0  0  0  0  0
   37.2650   32.3330   40.0730 C   0  0  0  0  0  3  0  0  0  0  0  0
   37.5470   32.2490   38.7250 C   0  0  0  0  0  0  0  0  0  0  0  0
   38.0800   33.0040   38.1600 H   0  0  0  0  0  0  0  0  0  0  0  0
   37.1370   31.1480   38.0180 C   0  0  0  0  0  0  0  0  0  0  0  0
   37.3220   31.0100   36.9550 H   0  0  0  0  0  0  0  0  0  0  0  0
   36.4560   30.1700   38.7100 C   0  0  0  0  0  3  0  0  0  0  0  0
  1  5  1  0  0  0  0
  1  2  1  0  0  0  0
  3  1  1  0  0  0  0
  4  9  1  0  0  0  0
  4 10  1  0  0  0  0
  5  4  2  0  0  0  0
  6  7  2  0  0  0  0
  6  5  1  0  0  0  0
  7  8  1  0  0  0  0
  8 12  1  0  0  0  0
  8  9  2  0  0  0  0
 11  6  1  0  0  0  0
 13  1  1  0  0  0  0
 13 14  1  0  0  0  0
 14 15  1  0  0  0  0
 16 14  2  0  0  0  0
 17 16  1  0  0  0  0
 18 17  1  0  0  0  0
 19 21  1  0  0  0  0
 19 17  2  0  0  0  0
 20 19  1  0  0  0  0
 21 13  2  0  0  0  0
M  END
>  <minimizedAffinity>
-4.24571896

$$$$

 OpenBabel03252504253D

 21 22  0  0  0  0  0  0  0  0999 V2000
   36.1040   30.3620   41.0790 C   0  0  0  0  0  0  0  0  0  0  0  0
   35.0870   29.9340   40.9520 H   0  0  0  0  0  0  0  0  0  0  0  0
   36.0010   31.3130   41.6220 H   0  0  0  0  0  0  0  0  0  0  0  0
   37.0350   31.9210   39.4610 C   0  0  0  0  0  0  0  0  0  0  0  0
   36.6360   30.6000   39.7310 C   0  0  0  0  0  0  0  0  0  0  0  0
   36.7910   29.6880   38.7010 C   0  0  0  0  0  0  0  0  0  0  0  0
   37.3020   30.0910   37.5200 N   0  0  0  0  0  0  0  0  0  0  0  0
   37.6760   31.3690   37.2950 C   0  0  0  0  0  0  0  0  0  0  0  0
   37.5520   32.3220   38.2630 N   0  0  0  0  0  0  0  0  0  0  0  0
   36.9640   32.7350   40.1940 H   0  0  0  0  0  0  0  0  0  0  0  0
   36.4790   28.6990   38.9400 H   0  0  0  0  0  0  0  0  0  0  0  0
   38.0750   31.5880   36.3130 H   0  0  0  0  0  0  0  0  0  0  0  0
   36.9330   29.4040   41.8360 C   0  0  0  0  0  0  0  0  0  0  0  0
   38.1740   29.6540   42.3880 C   0  0  0  0  0  0  0  0  0  0  0  0
   38.5690   30.6450   42.2500 H   0  0  0  0  0  0  0  0  0  0  0  0
   38.8620   28.6630   43.0830 C   0  0  0  0  0  3  0  0  0  0  0  0
   38.3360   27.3980   43.2490 C   0  0  0  0  0  0  0  0  0  0  0  0
   38.8300   26.5920   43.7790 H   0  0  0  0  0  0  0  0  0  0  0  0
   37.1080   27.1020   42.7180 C   0  0  0  0  0  0  0  0  0  0  0  0
   36.6300   26.1300   42.8070 H   0  0  0  0  0  0  0  0  0  0  0  0
   36.4560   28.1080   42.0370 C   0  0  0  0  0  3  0  0  0  0  0  0
  1  3  1  0  0  0  0
  1 13  1  0  0  0  0
  2  1  1  0  0  0  0
  4  5  1  0  0  0  0
  4 10  1  0  0  0  0
  5  1  1  0  0  0  0
  6 11  1  0  0  0  0
  6  5  2  0  0  0  0
  7  6  1  0  0  0  0
  8  7  2  0  0  0  0
  8  9  1  0  0  0  0
  9  4  2  0  0  0  0
 12  8  1  0  0  0  0
 13 21  2  0  0  0  0
 13 14  1  0  0  0  0
 14 16  2  0  0  0  0
 15 14  1  0  0  0  0
 16 17  1  0  0  0  0
 17 18  1  0  0  0  0
 19 20  1  0  0  0  0
 19 17  2  0  0  0  0
 21 19  1  0  0  0  0
M  END
>  <minimizedAffinity>
-4.22334385

$$$$

 OpenBabel03252504253D

 21 22  0  0  0  0  0  0  0  0999 V2000
   36.7990   27.3460   43.0450 C   0  0  0  0  0  0  0  0  0  0  0  0
   35.7830   27.0730   43.3970 H   0  0  0  0  0  0  0  0  0  0  0  0
   37.3640   27.7210   43.9100 H   0  0  0  0  0  0  0  0  0  0  0  0
   37.4100   29.5620   42.2510 C   0  0  0  0  0  0  0  0  0  0  0  0
   36.6300   28.4100   42.0470 C   0  0  0  0  0  0  0  0  0  0  0  0
   35.8020   28.4160   40.9370 C   0  0  0  0  0  0  0  0  0  0  0  0
   35.7780   29.4920   40.1240 N   0  0  0  0  0  0  0  0  0  0  0  0
   36.5420   30.5830   40.3510 C   0  0  0  0  0  0  0  0  0  0  0  0
   37.3810   30.6480   41.4240 N   0  0  0  0  0  0  0  0  0  0  0  0
   38.1050   29.6800   43.0920 H   0  0  0  0  0  0  0  0  0  0  0  0
   35.2270   27.5300   40.8140 H   0  0  0  0  0  0  0  0  0  0  0  0
   36.4470   31.3920   39.6380 H   0  0  0  0  0  0  0  0  0  0  0  0
   37.4410   26.1490   42.4680 C   0  0  0  0  0  0  0  0  0  0  0  0
   36.8070   24.9790   42.0980 C   0  0  0  0  0  0  0  0  0  0  0  0
   35.7430   24.9430   42.2470 H   0  0  0  0  0  0  0  0  0  0  0  0
   37.5260   23.9140   41.5620 C   0  0  0  0  0  3  0  0  0  0  0  0
   38.8910   23.9800   41.3790 C   0  0  0  0  0  0  0  0  0  0  0  0
   39.4970   23.1810   40.9680 H   0  0  0  0  0  0  0  0  0  0  0  0
   39.5650   25.1210   41.7330 C   0  0  0  0  0  0  0  0  0  0  0  0
   40.6390   25.2480   41.6190 H   0  0  0  0  0  0  0  0  0  0  0  0
   38.8210   26.1560   42.2590 C   0  0  0  0  0  3  0  0  0  0  0  0
  1  2  1  0  0  0  0
  1  3  1  0  0  0  0
  4 10  1  0  0  0  0
  5  4  1  0  0  0  0
  5  1  1  0  0  0  0
  6  5  2  0  0  0  0
  7  8  2  0  0  0  0
  7  6  1  0  0  0  0
  8  9  1  0  0  0  0
  9  4  2  0  0  0  0
 11  6  1  0  0  0  0
 12  8  1  0  0  0  0
 13  1  1  0  0  0  0
 14 15  1  0  0  0  0
 14 13  2  0  0  0  0
 16 14  1  0  0  0  0
 17 16  2  0  0  0  0
 17 19  1  0  0  0  0
 18 17  1  0  0  0  0
 19 21  2  0  0  0  0
 20 19  1  0  0  0  0
 21 13  1  0  0  0  0
M  END
>  <minimizedAffinity>
-4.16044998

$$$$

 OpenBabel03252504253D

 21 22  0  0  0  0  0  0  0  0999 V2000
   37.1270   27.3270   43.1570 C   0  0  0  0  0  0  0  0  0  0  0  0
   36.2920   28.0570   43.1040 H   0  0  0  0  0  0  0  0  0  0  0  0
   37.1010   26.8610   44.1530 H   0  0  0  0  0  0  0  0  0  0  0  0
   38.2150   29.4830   42.8760 C   0  0  0  0  0  0  0  0  0  0  0  0
   38.3690   28.0900   42.9830 C   0  0  0  0  0  0  0  0  0  0  0  0
   39.6650   27.6080   42.9140 C   0  0  0  0  0  0  0  0  0  0  0  0
   40.6930   28.4660   42.7510 N   0  0  0  0  0  0  0  0  0  0  0  0
   40.5080   29.8010   42.6520 C   0  0  0  0  0  0  0  0  0  0  0  0
   39.2590   30.3470   42.7120 N   0  0  0  0  0  0  0  0  0  0  0  0
   37.2420   29.9880   42.9170 H   0  0  0  0  0  0  0  0  0  0  0  0
   39.7450   26.5500   42.9980 H   0  0  0  0  0  0  0  0  0  0  0  0
   41.3990   30.4010   42.5230 H   0  0  0  0  0  0  0  0  0  0  0  0
   36.9480   26.3200   42.0930 C   0  0  0  0  0  0  0  0  0  0  0  0
   36.8950   24.9510   42.2640 C   0  0  0  0  0  0  0  0  0  0  0  0
   36.9940   24.5890   43.2720 H   0  0  0  0  0  0  0  0  0  0  0  0
   36.7200   24.0990   41.1760 C   0  0  0  0  0  3  0  0  0  0  0  0
   36.5950   24.5840   39.8910 C   0  0  0  0  0  0  0  0  0  0  0  0
   36.4580   23.9660   39.0110 H   0  0  0  0  0  0  0  0  0  0  0  0
   36.6420   25.9360   39.6710 C   0  0  0  0  0  0  0  0  0  0  0  0
   36.5500   26.3920   38.6880 H   0  0  0  0  0  0  0  0  0  0  0  0
   36.8140   26.7490   40.7720 C   0  0  0  0  0  3  0  0  0  0  0  0
  1  3  1  0  0  0  0
  2  1  1  0  0  0  0
  4 10  1  0  0  0  0
  4  5  1  0  0  0  0
  5  1  1  0  0  0  0
  6  5  2  0  0  0  0
  6 11  1  0  0  0  0
  7  6  1  0  0  0  0
  8  9  1  0  0  0  0
  8  7  2  0  0  0  0
  9  4  2  0  0  0  0
 12  8  1  0  0  0  0
 13 14  1  0  0  0  0
 13  1  1  0  0  0  0
 14 15  1  0  0  0  0
 16 14  2  0  0  0  0
 17 16  1  0  0  0  0
 18 17  1  0  0  0  0
 19 17  2  0  0  0  0
 19 21  1  0  0  0  0
 20 19  1  0  0  0  0
 21 13  2  0  0  0  0
M  END
>  <minimizedAffinity>
-4.11503458

$$$$

 OpenBabel03252504253D

 21 22  0  0  0  0  0  0  0  0999 V2000
   36.2870   30.4110   41.3860 C   0  0  0  0  0  0  0  0  0  0  0  0
   36.7260   31.4310   41.3600 H   0  0  0  0  0  0  0  0  0  0  0  0
   35.3800   30.4530   42.0070 H   0  0  0  0  0  0  0  0  0  0  0  0
   36.8290   28.2600   42.3820 C   0  0  0  0  0  0  0  0  0  0  0  0
   37.2890   29.5350   42.0050 C   0  0  0  0  0  0  0  0  0  0  0  0
   38.6220   29.8080   42.2610 C   0  0  0  0  0  0  0  0  0  0  0  0
   39.3990   28.8720   42.8420 N   0  0  0  0  0  0  0  0  0  0  0  0
   38.9240   27.6560   43.1910 C   0  0  0  0  0  0  0  0  0  0  0  0
   37.6210   27.3170   42.9700 N   0  0  0  0  0  0  0  0  0  0  0  0
   35.7960   27.9230   42.2330 H   0  0  0  0  0  0  0  0  0  0  0  0
   38.9350   30.7800   41.9630 H   0  0  0  0  0  0  0  0  0  0  0  0
   39.6310   26.9780   43.6520 H   0  0  0  0  0  0  0  0  0  0  0  0
   35.9690   29.9940   40.0070 C   0  0  0  0  0  0  0  0  0  0  0  0
   36.7230   30.2540   38.8790 C   0  0  0  0  0  0  0  0  0  0  0  0
   37.6280   30.8150   39.0270 H   0  0  0  0  0  0  0  0  0  0  0  0
   36.3160   29.8050   37.6260 C   0  0  0  0  0  3  0  0  0  0  0  0
   35.1510   29.0860   37.4580 C   0  0  0  0  0  0  0  0  0  0  0  0
   34.7890   28.7150   36.5060 H   0  0  0  0  0  0  0  0  0  0  0  0
   34.3680   28.8050   38.5480 C   0  0  0  0  0  0  0  0  0  0  0  0
   33.4380   28.2440   38.4940 H   0  0  0  0  0  0  0  0  0  0  0  0
   34.8030   29.2640   39.7730 C   0  0  0  0  0  3  0  0  0  0  0  0
  1  5  1  0  0  0  0
  1  3  1  0  0  0  0
  2  1  1  0  0  0  0
  4  9  1  0  0  0  0
  5  6  1  0  0  0  0
  5  4  2  0  0  0  0
  6  7  2  0  0  0  0
  7  8  1  0  0  0  0
  8 12  1  0  0  0  0
  9  8  2  0  0  0  0
 10  4  1  0  0  0  0
 11  6  1  0  0  0  0
 13  1  1  0  0  0  0
 14 15  1  0  0  0  0
 14 13  2  0  0  0  0
 16 14  1  0  0  0  0
 17 16  2  0  0  0  0
 17 19  1  0  0  0  0
 18 17  1  0  0  0  0
 19 21  2  0  0  0  0
 20 19  1  0  0  0  0
 21 13  1  0  0  0  0
M  END
>  <minimizedAffinity>
-4.11146021

$$$$

 OpenBabel03252504253D

 21 22  0  0  0  0  0  0  0  0999 V2000
   36.4550   30.6300   41.1310 C   0  0  0  0  0  0  0  0  0  0  0  0
   35.6730   30.2470   40.4420 H   0  0  0  0  0  0  0  0  0  0  0  0
   35.9790   31.3550   41.8070 H   0  0  0  0  0  0  0  0  0  0  0  0
   37.9160   30.5600   39.1880 C   0  0  0  0  0  0  0  0  0  0  0  0
   37.4650   31.2950   40.2990 C   0  0  0  0  0  0  0  0  0  0  0  0
   38.0230   32.5500   40.4720 C   0  0  0  0  0  0  0  0  0  0  0  0
   38.9450   33.0010   39.5980 N   0  0  0  0  0  0  0  0  0  0  0  0
   39.3560   32.2660   38.5410 C   0  0  0  0  0  0  0  0  0  0  0  0
   38.8500   31.0210   38.3070 N   0  0  0  0  0  0  0  0  0  0  0  0
   37.5510   29.5540   38.9410 H   0  0  0  0  0  0  0  0  0  0  0  0
   37.6590   33.0780   41.3210 H   0  0  0  0  0  0  0  0  0  0  0  0
   40.1010   32.7210   37.9000 H   0  0  0  0  0  0  0  0  0  0  0  0
   37.0240   29.4950   41.8830 C   0  0  0  0  0  0  0  0  0  0  0  0
   38.1490   29.5260   42.6840 C   0  0  0  0  0  0  0  0  0  0  0  0
   38.6540   30.4710   42.7630 H   0  0  0  0  0  0  0  0  0  0  0  0
   38.5890   28.3820   43.3460 C   0  0  0  0  0  3  0  0  0  0  0  0
   37.9250   27.1780   43.2300 C   0  0  0  0  0  0  0  0  0  0  0  0
   38.2250   26.2610   43.7220 H   0  0  0  0  0  0  0  0  0  0  0  0
   36.8030   27.0990   42.4460 C   0  0  0  0  0  0  0  0  0  0  0  0
   36.2280   26.1860   42.3060 H   0  0  0  0  0  0  0  0  0  0  0  0
   36.3960   28.2500   41.8070 C   0  0  0  0  0  3  0  0  0  0  0  0
  1  3  1  0  0  0  0
  1 13  1  0  0  0  0
  2  1  1  0  0  0  0
  4  5  1  0  0  0  0
  5  6  2  0  0  0  0
  5  1  1  0  0  0  0
  6 11  1  0  0  0  0
  7  6  1  0  0  0  0
  8  7  2  0  0  0  0
  9  8  1  0  0  0  0
  9  4  2  0  0  0  0
 10  4  1  0  0  0  0
 12  8  1  0  0  0  0
 13 14  1  0  0  0  0
 14 15  1  0  0  0  0
 14 16  2  0  0  0  0
 17 16  1  0  0  0  0
 17 18  1  0  0  0  0
 19 17  2  0  0  0  0
 20 19  1  0  0  0  0
 21 13  2  0  0  0  0
 21 19  1  0  0  0  0
M  END
>  <minimizedAffinity>
-4.09449148

$$$$
