
 OpenBabel03252505313D

 27 28  0  0  0  0  0  0  0  0999 V2000
   47.0000   31.9900   48.2910 O   0  0  0  0  0  0  0  0  0  0  0  0
   45.9540   32.3180   47.2200 P   0  0  1  0  0  0  0  0  0  0  0  0
   44.6950   33.2390   47.8730 O   0  0  0  0  0  0  0  0  0  0  0  0
   43.8080   32.9370   47.5720 H   0  0  0  0  0  0  0  0  0  0  0  0
   46.7360   33.1450   45.9710 O   0  0  0  0  0  0  0  0  0  0  0  0
   44.4860   35.6210   44.7590 C   0  0  0  0  0  0  0  0  0  0  0  0
   44.8860   35.8150   43.4080 C   0  0  0  0  0  0  0  0  0  0  0  0
   45.9670   35.0450   42.9520 C   0  0  0  0  0  0  0  0  0  0  0  0
   46.5610   34.1660   43.8310 N   0  0  0  0  0  0  0  0  0  0  0  0
   46.1330   34.0330   45.0920 C   0  0  0  0  0  0  0  0  0  0  0  0
   45.1150   34.7500   45.5400 N   0  0  0  0  0  0  0  0  0  0  0  0
   43.6530   36.2010   45.1430 H   0  0  0  0  0  0  0  0  0  0  0  0
   44.3780   36.5180   42.7770 H   0  0  0  0  0  0  0  0  0  0  0  0
   46.3070   35.1570   41.9320 H   0  0  0  0  0  0  0  0  0  0  0  0
   45.3140   30.8480   46.7010 O   0  0  0  0  0  0  0  0  0  0  0  0
   45.7020   29.8760   47.5870 C   0  0  0  0  0  0  0  0  0  0  0  0
   46.7950   29.6860   47.3870 H   0  0  0  0  0  0  0  0  0  0  0  0
   45.5890   30.2310   48.6300 H   0  0  0  0  0  0  0  0  0  0  0  0
   44.9090   28.6490   47.3160 C   0  0  0  0  0  0  0  0  0  0  0  0
   44.0940   28.6780   46.1850 C   0  0  0  0  0  0  0  0  0  0  0  0
   44.0110   29.5360   45.5030 H   0  0  0  0  0  0  0  0  0  0  0  0
   43.3350   27.5670   45.8830 C   0  0  0  0  0  0  0  0  0  0  0  0
   43.3290   26.4000   46.6480 C   0  0  0  0  0  0  0  0  0  0  0  0
   42.7440   25.5390   46.4190 H   0  0  0  0  0  0  0  0  0  0  0  0
   44.1630   26.4590   47.7480 C   0  0  0  0  0  0  0  0  0  0  0  0
   44.2170   25.5780   48.4060 H   0  0  0  0  0  0  0  0  0  0  0  0
   44.9450   27.5210   48.1110 C   0  0  0  0  0  0  0  0  0  0  0  0
  2  3  1  0  0  0  0
  2  1  2  1  0  0  0
  4  3  1  0  0  0  0
  5  2  1  0  0  0  0
  6 12  1  0  0  0  0
  6 11  1  0  0  0  0
  7  6  2  0  0  0  0
  8  7  1  0  0  0  0
  8  9  2  0  0  0  0
  9 10  1  0  0  0  0
 10 11  2  0  0  0  0
 10  5  1  0  0  0  0
 13  7  1  0  0  0  0
 14  8  1  0  0  0  0
 15  2  1  0  0  0  0
 15 16  1  0  0  0  0
 16 18  1  0  0  0  0
 17 16  1  0  0  0  0
 19 16  1  0  0  0  0
 19 27  1  0  0  0  0
 20 19  2  0  0  0  0
 21 20  1  0  0  0  0
 22 20  1  0  0  0  0
 22 23  2  0  0  0  0
 23 25  1  0  0  0  0
 24 23  1  0  0  0  0
 25 27  2  0  0  0  0
 25 26  1  0  0  0  0
M  END
>  <minimizedAffinity>
-4.94404936

>  <minimizedRMSD>
0.646402359

$$$$
