
 OpenBabel03242511483D

 44 46  0  0  0  0  0  0  0  0999 V2000
   35.5030   29.1110   40.6650 C   0  0  0  0  0  0  0  0  0  0  0  0
   35.7920   30.2550   39.8850 C   0  0  0  0  0  0  0  0  0  0  0  0
   36.9740   30.9120   40.1610 C   0  0  0  0  0  0  0  0  0  0  0  0
   37.7840   30.4520   41.1350 N   0  0  0  0  0  0  0  0  0  0  0  0
   37.4480   29.3480   41.8460 C   0  0  0  0  0  0  0  0  0  0  0  0
   36.3480   28.6890   41.6300 N   0  0  0  0  0  0  0  0  0  0  0  0
   34.5910   28.5470   40.5010 H   0  0  0  0  0  0  0  0  0  0  0  0
   35.0490   30.5090   39.1340 H   0  0  0  0  0  0  0  0  0  0  0  0
   38.3920   28.9090   42.8980 C   0  0  0  0  0  0  0  0  0  0  0  0
   39.3910   28.6510   42.4720 H   0  0  0  0  0  0  0  0  0  0  0  0
   38.5880   29.7170   43.6360 H   0  0  0  0  0  0  0  0  0  0  0  0
   37.8030   27.7360   43.6210 C   0  0  0  0  0  0  0  0  0  0  0  0
   36.6870   27.7650   43.6300 H   0  0  0  0  0  0  0  0  0  0  0  0
   38.0740   27.7520   44.7180 H   0  0  0  0  0  0  0  0  0  0  0  0
   38.2210   26.4700   43.0530 C   0  0  0  0  0  0  0  0  0  0  0  0
   37.5610   25.6830   42.1240 C   0  0  0  0  0  0  0  0  0  0  0  0
   38.0510   24.5050   41.6520 C   0  0  0  0  0  0  0  0  0  0  0  0
   39.2580   24.0750   42.1190 C   0  0  0  0  0  0  0  0  0  0  0  0
   39.9370   24.8510   43.0540 C   0  0  0  0  0  0  0  0  0  0  0  0
   39.4250   26.0310   43.5150 C   0  0  0  0  0  0  0  0  0  0  0  0
   36.6060   26.0760   41.7880 H   0  0  0  0  0  0  0  0  0  0  0  0
   37.4480   23.9820   40.9310 H   0  0  0  0  0  0  0  0  0  0  0  0
   39.6060   23.1190   41.7040 H   0  0  0  0  0  0  0  0  0  0  0  0
   40.8800   24.3560   43.3150 H   0  0  0  0  0  0  0  0  0  0  0  0
   41.4630   27.2840   43.8630 C   0  0  0  0  0  0  0  0  0  0  0  0
   41.9180   27.5770   42.6810 O   0  0  0  0  0  0  0  0  0  0  0  0
   40.3580   26.5720   44.4590 N   0  0  0  0  0  0  0  0  0  0  0  0
   42.2730   27.8080   44.3630 H   0  0  0  0  0  0  0  0  0  0  0  0
   40.4360   26.5790   45.4770 H   0  0  0  0  0  0  0  0  0  0  0  0
   37.2680   32.1090   39.3370 C   0  0  0  0  0  0  0  0  0  0  0  0
   36.3440   32.3470   38.7710 H   0  0  0  0  0  0  0  0  0  0  0  0
   38.0810   31.8500   38.6170 H   0  0  0  0  0  0  0  0  0  0  0  0
   37.6920   33.2850   40.2040 C   0  0  0  0  0  0  0  0  0  0  0  0
   36.8910   34.0480   40.1160 H   0  0  0  0  0  0  0  0  0  0  0  0
   37.6290   32.9330   41.2580 H   0  0  0  0  0  0  0  0  0  0  0  0
   39.0150   33.8070   39.8190 C   0  0  0  0  0  0  0  0  0  0  0  0
   39.8040   32.9190   39.0810 C   0  0  0  0  0  0  0  0  0  0  0  0
   39.4730   31.9190   38.8090 H   0  0  0  0  0  0  0  0  0  0  0  0
   41.0610   33.3650   38.6940 C   0  0  0  0  0  3  0  0  0  0  0  0
   41.5580   34.6170   38.9970 C   0  0  0  0  0  0  0  0  0  0  0  0
   42.5310   34.9240   38.6800 H   0  0  0  0  0  0  0  0  0  0  0  0
   40.7340   35.4720   39.7360 C   0  0  0  0  0  0  0  0  0  0  0  0
   41.1120   36.4680   39.9840 H   0  0  0  0  0  0  0  0  0  0  0  0
   39.4630   35.0690   40.1480 C   0  0  0  0  0  3  0  0  0  0  0  0
  1  6  1  0  0  0  0
  2  3  1  0  0  0  0
  2  1  2  0  0  0  0
  3  4  2  0  0  0  0
  4  5  1  0  0  0  0
  5  9  1  0  0  0  0
  6  5  2  0  0  0  0
  7  1  1  0  0  0  0
  8  2  1  0  0  0  0
  9 12  1  0  0  0  0
  9 11  1  0  0  0  0
 10  9  1  0  0  0  0
 12 13  1  0  0  0  0
 12 14  1  0  0  0  0
 15 20  1  0  0  0  0
 15 12  1  0  0  0  0
 16 15  2  0  0  0  0
 17 18  2  0  0  0  0
 17 16  1  0  0  0  0
 18 19  1  0  0  0  0
 19 24  1  0  0  0  0
 19 20  2  0  0  0  0
 20 27  1  0  0  0  0
 21 16  1  0  0  0  0
 22 17  1  0  0  0  0
 23 18  1  0  0  0  0
 25 28  1  0  0  0  0
 25 27  1  0  0  0  0
 26 25  2  0  0  0  0
 27 29  1  0  0  0  0
 30  3  1  0  0  0  0
 30 33  1  0  0  0  0
 31 30  1  0  0  0  0
 32 30  1  0  0  0  0
 33 35  1  0  0  0  0
 34 33  1  0  0  0  0
 36 44  1  0  0  0  0
 36 33  1  0  0  0  0
 37 36  2  0  0  0  0
 38 37  1  0  0  0  0
 39 40  2  0  0  0  0
 39 37  1  0  0  0  0
 40 42  1  0  0  0  0
 41 40  1  0  0  0  0
 42 43  1  0  0  0  0
 42 44  2  0  0  0  0
M  END
>  <minimizedAffinity>
-6.20618391

$$$$

 OpenBabel03242511483D

 44 46  0  0  0  0  0  0  0  0999 V2000
   41.1230   27.5860   43.4430 C   0  0  0  0  0  0  0  0  0  0  0  0
   39.7630   27.2290   43.6000 C   0  0  0  0  0  0  0  0  0  0  0  0
   38.8280   28.1670   43.2130 C   0  0  0  0  0  0  0  0  0  0  0  0
   39.2340   29.3520   42.7160 N   0  0  0  0  0  0  0  0  0  0  0  0
   40.5550   29.6310   42.5920 C   0  0  0  0  0  0  0  0  0  0  0  0
   41.4800   28.7860   42.9400 N   0  0  0  0  0  0  0  0  0  0  0  0
   41.9110   26.8950   43.7270 H   0  0  0  0  0  0  0  0  0  0  0  0
   39.5830   26.2400   44.0120 H   0  0  0  0  0  0  0  0  0  0  0  0
   40.9170   30.9540   42.0380 C   0  0  0  0  0  0  0  0  0  0  0  0
   41.0180   31.7230   42.8410 H   0  0  0  0  0  0  0  0  0  0  0  0
   41.9060   30.9300   41.5300 H   0  0  0  0  0  0  0  0  0  0  0  0
   39.8790   31.3630   41.0370 C   0  0  0  0  0  0  0  0  0  0  0  0
   38.8440   31.1280   41.3850 H   0  0  0  0  0  0  0  0  0  0  0  0
   39.9750   30.7710   40.0800 H   0  0  0  0  0  0  0  0  0  0  0  0
   39.9430   32.7760   40.7220 C   0  0  0  0  0  0  0  0  0  0  0  0
   41.0610   33.5870   40.6220 C   0  0  0  0  0  0  0  0  0  0  0  0
   41.0060   34.9110   40.3120 C   0  0  0  0  0  0  0  0  0  0  0  0
   39.7830   35.4700   40.0880 C   0  0  0  0  0  0  0  0  0  0  0  0
   38.6460   34.6720   40.1830 C   0  0  0  0  0  0  0  0  0  0  0  0
   38.7250   33.3460   40.4960 C   0  0  0  0  0  0  0  0  0  0  0  0
   42.0060   33.0870   40.8110 H   0  0  0  0  0  0  0  0  0  0  0  0
   41.9420   35.4380   40.2640 H   0  0  0  0  0  0  0  0  0  0  0  0
   39.7970   36.5400   39.8410 H   0  0  0  0  0  0  0  0  0  0  0  0
   37.7600   35.2840   39.9730 H   0  0  0  0  0  0  0  0  0  0  0  0
   36.9480   32.2670   39.2610 C   0  0  0  0  0  0  0  0  0  0  0  0
   37.3890   32.1130   38.0480 O   0  0  0  0  0  0  0  0  0  0  0  0
   37.3910   32.8220   40.5180 N   0  0  0  0  0  0  0  0  0  0  0  0
   36.0020   31.7850   39.0350 H   0  0  0  0  0  0  0  0  0  0  0  0
   36.6550   32.7420   41.2220 H   0  0  0  0  0  0  0  0  0  0  0  0
   37.4060   27.7840   43.3800 C   0  0  0  0  0  0  0  0  0  0  0  0
   36.8090   28.7170   43.3160 H   0  0  0  0  0  0  0  0  0  0  0  0
   37.2780   27.3380   44.3970 H   0  0  0  0  0  0  0  0  0  0  0  0
   36.9730   26.7880   42.3140 C   0  0  0  0  0  0  0  0  0  0  0  0
   37.8600   26.1610   42.0890 H   0  0  0  0  0  0  0  0  0  0  0  0
   36.2570   26.0950   42.8100 H   0  0  0  0  0  0  0  0  0  0  0  0
   36.4360   27.4590   41.1170 C   0  0  0  0  0  0  0  0  0  0  0  0
   36.6440   26.7710   39.9170 C   0  0  0  0  0  0  0  0  0  0  0  0
   37.1620   25.8160   39.8640 H   0  0  0  0  0  0  0  0  0  0  0  0
   36.1560   27.3630   38.7590 C   0  0  0  0  0  3  0  0  0  0  0  0
   35.4890   28.5720   38.7370 C   0  0  0  0  0  0  0  0  0  0  0  0
   35.1290   28.9960   37.8250 H   0  0  0  0  0  0  0  0  0  0  0  0
   35.3040   29.2240   39.9610 C   0  0  0  0  0  0  0  0  0  0  0  0
   34.7770   30.1830   39.9620 H   0  0  0  0  0  0  0  0  0  0  0  0
   35.7760   28.6690   41.1510 C   0  0  0  0  0  3  0  0  0  0  0  0
  1  2  1  0  0  0  0
  1  7  1  0  0  0  0
  2  8  1  0  0  0  0
  3 30  1  0  0  0  0
  3  2  2  0  0  0  0
  4  3  1  0  0  0  0
  5  4  2  0  0  0  0
  5  6  1  0  0  0  0
  6  1  2  0  0  0  0
  9  5  1  0  0  0  0
  9 10  1  0  0  0  0
 11  9  1  0  0  0  0
 12 13  1  0  0  0  0
 12  9  1  0  0  0  0
 14 12  1  0  0  0  0
 15 12  1  0  0  0  0
 16 15  1  0  0  0  0
 16 21  1  0  0  0  0
 17 16  2  0  0  0  0
 18 19  2  0  0  0  0
 18 17  1  0  0  0  0
 19 20  1  0  0  0  0
 20 27  1  0  0  0  0
 20 15  2  0  0  0  0
 22 17  1  0  0  0  0
 23 18  1  0  0  0  0
 24 19  1  0  0  0  0
 25 27  1  0  0  0  0
 26 25  2  0  0  0  0
 27 29  1  0  0  0  0
 28 25  1  0  0  0  0
 30 32  1  0  0  0  0
 31 30  1  0  0  0  0
 33 35  1  0  0  0  0
 33 30  1  0  0  0  0
 34 33  1  0  0  0  0
 36 44  1  0  0  0  0
 36 33  1  0  0  0  0
 37 36  2  0  0  0  0
 38 37  1  0  0  0  0
 39 37  1  0  0  0  0
 40 39  2  0  0  0  0
 40 42  1  0  0  0  0
 41 40  1  0  0  0  0
 42 43  1  0  0  0  0
 42 44  2  0  0  0  0
M  END
>  <minimizedAffinity>
-6.09979963

$$$$

 OpenBabel03242511483D

 44 46  0  0  0  0  0  0  0  0999 V2000
   35.7470   28.6360   39.3280 C   0  0  0  0  0  0  0  0  0  0  0  0
   36.1340   29.8350   38.6840 C   0  0  0  0  0  0  0  0  0  0  0  0
   36.9110   30.7090   39.4170 C   0  0  0  0  0  0  0  0  0  0  0  0
   37.2620   30.3960   40.6800 N   0  0  0  0  0  0  0  0  0  0  0  0
   36.8570   29.2280   41.2380 C   0  0  0  0  0  0  0  0  0  0  0  0
   36.1240   28.3670   40.5960 N   0  0  0  0  0  0  0  0  0  0  0  0
   35.1350   27.9050   38.8100 H   0  0  0  0  0  0  0  0  0  0  0  0
   35.7800   29.9540   37.6640 H   0  0  0  0  0  0  0  0  0  0  0  0
   37.2850   28.9600   42.6290 C   0  0  0  0  0  0  0  0  0  0  0  0
   38.3720   29.1670   42.7720 H   0  0  0  0  0  0  0  0  0  0  0  0
   36.7630   29.6230   43.3530 H   0  0  0  0  0  0  0  0  0  0  0  0
   36.9640   27.5370   42.9710 C   0  0  0  0  0  0  0  0  0  0  0  0
   36.2820   27.0680   42.2220 H   0  0  0  0  0  0  0  0  0  0  0  0
   36.3820   27.4670   43.9360 H   0  0  0  0  0  0  0  0  0  0  0  0
   38.1520   26.7150   43.0810 C   0  0  0  0  0  0  0  0  0  0  0  0
   39.3630   27.0250   43.6770 C   0  0  0  0  0  0  0  0  0  0  0  0
   40.4190   26.1690   43.7280 C   0  0  0  0  0  0  0  0  0  0  0  0
   40.2780   24.9380   43.1610 C   0  0  0  0  0  0  0  0  0  0  0  0
   39.0690   24.6050   42.5560 C   0  0  0  0  0  0  0  0  0  0  0  0
   38.0220   25.4810   42.5160 C   0  0  0  0  0  0  0  0  0  0  0  0
   39.4160   28.0190   44.1110 H   0  0  0  0  0  0  0  0  0  0  0  0
   41.3090   26.5230   44.2180 H   0  0  0  0  0  0  0  0  0  0  0  0
   41.1610   24.2870   43.2320 H   0  0  0  0  0  0  0  0  0  0  0  0
   39.1360   23.5850   42.1570 H   0  0  0  0  0  0  0  0  0  0  0  0
   37.0040   24.9510   40.3880 C   0  0  0  0  0  0  0  0  0  0  0  0
   37.7510   25.5040   39.4790 O   0  0  0  0  0  0  0  0  0  0  0  0
   36.9420   24.8390   41.8260 N   0  0  0  0  0  0  0  0  0  0  0  0
   36.3290   24.5260   39.6510 H   0  0  0  0  0  0  0  0  0  0  0  0
   36.1170   24.3090   42.1080 H   0  0  0  0  0  0  0  0  0  0  0  0
   37.3130   31.9620   38.7340 C   0  0  0  0  0  0  0  0  0  0  0  0
   36.5730   32.1430   37.9280 H   0  0  0  0  0  0  0  0  0  0  0  0
   38.3200   31.8070   38.2760 H   0  0  0  0  0  0  0  0  0  0  0  0
   37.3540   33.1320   39.7060 C   0  0  0  0  0  0  0  0  0  0  0  0
   36.6670   33.9040   39.3010 H   0  0  0  0  0  0  0  0  0  0  0  0
   36.8600   32.7780   40.6390 H   0  0  0  0  0  0  0  0  0  0  0  0
   38.7240   33.6400   39.9010 C   0  0  0  0  0  0  0  0  0  0  0  0
   38.8000   34.9490   40.3870 C   0  0  0  0  0  0  0  0  0  0  0  0
   37.9210   35.5520   40.6050 H   0  0  0  0  0  0  0  0  0  0  0  0
   40.0700   35.4730   40.5870 C   0  0  0  0  0  3  0  0  0  0  0  0
   41.2360   34.7780   40.3350 C   0  0  0  0  0  0  0  0  0  0  0  0
   42.1960   35.2160   40.5030 H   0  0  0  0  0  0  0  0  0  0  0  0
   41.1120   33.4710   39.8510 C   0  0  0  0  0  0  0  0  0  0  0  0
   42.0260   32.9060   39.6470 H   0  0  0  0  0  0  0  0  0  0  0  0
   39.8570   32.9010   39.6340 C   0  0  0  0  0  3  0  0  0  0  0  0
  1  6  1  0  0  0  0
  2  1  2  0  0  0  0
  2  3  1  0  0  0  0
  3  4  2  0  0  0  0
  4  5  1  0  0  0  0
  5  9  1  0  0  0  0
  6  5  2  0  0  0  0
  7  1  1  0  0  0  0
  8  2  1  0  0  0  0
  9 10  1  0  0  0  0
  9 12  1  0  0  0  0
  9 11  1  0  0  0  0
 12 15  1  0  0  0  0
 12 14  1  0  0  0  0
 13 12  1  0  0  0  0
 15 16  1  0  0  0  0
 16 17  2  0  0  0  0
 16 21  1  0  0  0  0
 17 22  1  0  0  0  0
 18 23  1  0  0  0  0
 18 17  1  0  0  0  0
 19 18  2  0  0  0  0
 20 19  1  0  0  0  0
 20 15  2  0  0  0  0
 24 19  1  0  0  0  0
 25 27  1  0  0  0  0
 26 25  2  0  0  0  0
 27 29  1  0  0  0  0
 27 20  1  0  0  0  0
 28 25  1  0  0  0  0
 30  3  1  0  0  0  0
 30 33  1  0  0  0  0
 31 30  1  0  0  0  0
 32 30  1  0  0  0  0
 33 36  1  0  0  0  0
 33 35  1  0  0  0  0
 34 33  1  0  0  0  0
 36 37  1  0  0  0  0
 37 39  2  0  0  0  0
 37 38  1  0  0  0  0
 40 41  1  0  0  0  0
 40 39  1  0  0  0  0
 42 40  2  0  0  0  0
 43 42  1  0  0  0  0
 44 42  1  0  0  0  0
 44 36  2  0  0  0  0
M  END
>  <minimizedAffinity>
-6.08829832

$$$$

 OpenBabel03242511483D

 44 46  0  0  0  0  0  0  0  0999 V2000
   35.6750   29.6750   39.8700 C   0  0  0  0  0  0  0  0  0  0  0  0
   36.1700   29.0400   41.0330 C   0  0  0  0  0  0  0  0  0  0  0  0
   37.1290   29.7220   41.7530 C   0  0  0  0  0  0  0  0  0  0  0  0
   37.5460   30.9330   41.3320 N   0  0  0  0  0  0  0  0  0  0  0  0
   37.0310   31.4870   40.2070 C   0  0  0  0  0  0  0  0  0  0  0  0
   36.1250   30.8900   39.4900 N   0  0  0  0  0  0  0  0  0  0  0  0
   34.9200   29.1940   39.2580 H   0  0  0  0  0  0  0  0  0  0  0  0
   35.7420   28.0650   41.2520 H   0  0  0  0  0  0  0  0  0  0  0  0
   37.5420   32.8180   39.8140 C   0  0  0  0  0  0  0  0  0  0  0  0
   38.0080   32.7970   38.8000 H   0  0  0  0  0  0  0  0  0  0  0  0
   36.7240   33.5680   39.7450 H   0  0  0  0  0  0  0  0  0  0  0  0
   38.5280   33.2840   40.8420 C   0  0  0  0  0  0  0  0  0  0  0  0
   38.7730   32.4850   41.5820 H   0  0  0  0  0  0  0  0  0  0  0  0
   38.0960   34.1090   41.4810 H   0  0  0  0  0  0  0  0  0  0  0  0
   39.7660   33.7500   40.2500 C   0  0  0  0  0  0  0  0  0  0  0  0
   40.0960   35.0300   39.8390 C   0  0  0  0  0  0  0  0  0  0  0  0
   41.2980   35.3600   39.2960 C   0  0  0  0  0  0  0  0  0  0  0  0
   42.2300   34.3760   39.1470 C   0  0  0  0  0  0  0  0  0  0  0  0
   41.9180   33.0820   39.5530 C   0  0  0  0  0  0  0  0  0  0  0  0
   40.7040   32.7730   40.0960 C   0  0  0  0  0  0  0  0  0  0  0  0
   39.3150   35.7710   39.9830 H   0  0  0  0  0  0  0  0  0  0  0  0
   41.4390   36.3890   39.0150 H   0  0  0  0  0  0  0  0  0  0  0  0
   43.1830   34.6980   38.7040 H   0  0  0  0  0  0  0  0  0  0  0  0
   42.7780   32.4280   39.3600 H   0  0  0  0  0  0  0  0  0  0  0  0
   40.4380   30.5190   39.2630 C   0  0  0  0  0  0  0  0  0  0  0  0
   40.1550   30.6280   37.9990 O   0  0  0  0  0  0  0  0  0  0  0  0
   40.7040   31.3720   40.3970 N   0  0  0  0  0  0  0  0  0  0  0  0
   40.4190   29.4330   39.2290 H   0  0  0  0  0  0  0  0  0  0  0  0
   40.8480   30.8120   41.2390 H   0  0  0  0  0  0  0  0  0  0  0  0
   37.6400   29.0490   42.9700 C   0  0  0  0  0  0  0  0  0  0  0  0
   37.4320   29.7230   43.8250 H   0  0  0  0  0  0  0  0  0  0  0  0
   38.7460   28.9230   42.8650 H   0  0  0  0  0  0  0  0  0  0  0  0
   36.9770   27.6940   43.1720 C   0  0  0  0  0  0  0  0  0  0  0  0
   36.4770   27.7320   44.1620 H   0  0  0  0  0  0  0  0  0  0  0  0
   36.1420   27.6440   42.4370 H   0  0  0  0  0  0  0  0  0  0  0  0
   37.9420   26.5850   43.0680 C   0  0  0  0  0  0  0  0  0  0  0  0
   39.1280   26.7700   43.7860 C   0  0  0  0  0  0  0  0  0  0  0  0
   39.3290   27.6600   44.3770 H   0  0  0  0  0  0  0  0  0  0  0  0
   40.0690   25.7510   43.7190 C   0  0  0  0  0  3  0  0  0  0  0  0
   39.8940   24.5900   42.9920 C   0  0  0  0  0  0  0  0  0  0  0  0
   40.6430   23.8290   42.9660 H   0  0  0  0  0  0  0  0  0  0  0  0
   38.6930   24.4490   42.2900 C   0  0  0  0  0  0  0  0  0  0  0  0
   38.5370   23.5340   41.7100 H   0  0  0  0  0  0  0  0  0  0  0  0
   37.7160   25.4440   42.3260 C   0  0  0  0  0  3  0  0  0  0  0  0
  1  2  1  0  0  0  0
  2  8  1  0  0  0  0
  2  3  2  0  0  0  0
  3 30  1  0  0  0  0
  4  3  1  0  0  0  0
  5  4  2  0  0  0  0
  6  1  2  0  0  0  0
  6  5  1  0  0  0  0
  7  1  1  0  0  0  0
  9  5  1  0  0  0  0
  9 12  1  0  0  0  0
 10  9  1  0  0  0  0
 11  9  1  0  0  0  0
 12 14  1  0  0  0  0
 12 13  1  0  0  0  0
 15 12  1  0  0  0  0
 16 21  1  0  0  0  0
 16 15  2  0  0  0  0
 17 16  1  0  0  0  0
 18 17  2  0  0  0  0
 18 19  1  0  0  0  0
 19 20  2  0  0  0  0
 20 15  1  0  0  0  0
 20 27  1  0  0  0  0
 22 17  1  0  0  0  0
 23 18  1  0  0  0  0
 24 19  1  0  0  0  0
 25 27  1  0  0  0  0
 26 25  2  0  0  0  0
 27 29  1  0  0  0  0
 28 25  1  0  0  0  0
 30 33  1  0  0  0  0
 30 31  1  0  0  0  0
 32 30  1  0  0  0  0
 33 34  1  0  0  0  0
 35 33  1  0  0  0  0
 36 33  1  0  0  0  0
 36 37  1  0  0  0  0
 37 38  1  0  0  0  0
 39 37  2  0  0  0  0
 40 39  1  0  0  0  0
 41 40  1  0  0  0  0
 42 44  1  0  0  0  0
 42 40  2  0  0  0  0
 43 42  1  0  0  0  0
 44 36  2  0  0  0  0
M  END
>  <minimizedAffinity>
-5.93595791

$$$$

 OpenBabel03242511483D

 44 46  0  0  0  0  0  0  0  0999 V2000
   36.4010   29.4160   37.5940 C   0  0  0  0  0  0  0  0  0  0  0  0
   36.5750   30.6110   38.3300 C   0  0  0  0  0  0  0  0  0  0  0  0
   36.8610   30.4760   39.6730 C   0  0  0  0  0  0  0  0  0  0  0  0
   36.9600   29.2460   40.2160 N   0  0  0  0  0  0  0  0  0  0  0  0
   36.7820   28.1390   39.4530 C   0  0  0  0  0  0  0  0  0  0  0  0
   36.5110   28.2060   38.1830 N   0  0  0  0  0  0  0  0  0  0  0  0
   36.1740   29.4500   36.5330 H   0  0  0  0  0  0  0  0  0  0  0  0
   36.4670   31.5310   37.7620 H   0  0  0  0  0  0  0  0  0  0  0  0
   36.9080   26.8280   40.1260 C   0  0  0  0  0  0  0  0  0  0  0  0
   36.1310   26.1080   39.7720 H   0  0  0  0  0  0  0  0  0  0  0  0
   37.8820   26.3420   39.8990 H   0  0  0  0  0  0  0  0  0  0  0  0
   36.8110   27.0290   41.6070 C   0  0  0  0  0  0  0  0  0  0  0  0
   35.8840   26.5770   42.0340 H   0  0  0  0  0  0  0  0  0  0  0  0
   36.7110   28.1240   41.8670 H   0  0  0  0  0  0  0  0  0  0  0  0
   37.9510   26.4830   42.3150 C   0  0  0  0  0  0  0  0  0  0  0  0
   38.4290   25.1830   42.3050 C   0  0  0  0  0  0  0  0  0  0  0  0
   39.5200   24.7760   43.0090 C   0  0  0  0  0  0  0  0  0  0  0  0
   40.1790   25.6980   43.7650 C   0  0  0  0  0  0  0  0  0  0  0  0
   39.7150   27.0110   43.7890 C   0  0  0  0  0  0  0  0  0  0  0  0
   38.6170   27.3970   43.0750 C   0  0  0  0  0  0  0  0  0  0  0  0
   37.8640   24.4930   41.6850 H   0  0  0  0  0  0  0  0  0  0  0  0
   39.7960   23.7400   42.9220 H   0  0  0  0  0  0  0  0  0  0  0  0
   41.0530   25.3160   44.3110 H   0  0  0  0  0  0  0  0  0  0  0  0
   40.3620   27.6080   44.4440 H   0  0  0  0  0  0  0  0  0  0  0  0
   39.2940   29.6660   42.5890 C   0  0  0  0  0  0  0  0  0  0  0  0
   40.2930   29.5800   41.7620 O   0  0  0  0  0  0  0  0  0  0  0  0
   38.4060   28.7930   43.3190 N   0  0  0  0  0  0  0  0  0  0  0  0
   39.3090   30.7520   42.5770 H   0  0  0  0  0  0  0  0  0  0  0  0
   37.7660   29.3380   43.8980 H   0  0  0  0  0  0  0  0  0  0  0  0
   37.0430   31.7330   40.4360 C   0  0  0  0  0  0  0  0  0  0  0  0
   37.8770   31.5630   41.1470 H   0  0  0  0  0  0  0  0  0  0  0  0
   36.1070   31.9340   41.0130 H   0  0  0  0  0  0  0  0  0  0  0  0
   37.3470   32.9020   39.5110 C   0  0  0  0  0  0  0  0  0  0  0  0
   37.3730   32.4900   38.4800 H   0  0  0  0  0  0  0  0  0  0  0  0
   36.4460   33.5560   39.5290 H   0  0  0  0  0  0  0  0  0  0  0  0
   38.5990   33.5870   39.8770 C   0  0  0  0  0  0  0  0  0  0  0  0
   39.7430   32.7830   39.8300 C   0  0  0  0  0  0  0  0  0  0  0  0
   39.7170   31.7340   39.5460 H   0  0  0  0  0  0  0  0  0  0  0  0
   40.9480   33.3840   40.1680 C   0  0  0  0  0  3  0  0  0  0  0  0
   41.0690   34.7080   40.5400 C   0  0  0  0  0  0  0  0  0  0  0  0
   42.0160   35.1340   40.7940 H   0  0  0  0  0  0  0  0  0  0  0  0
   39.8980   35.4730   40.5740 C   0  0  0  0  0  0  0  0  0  0  0  0
   39.9760   36.5250   40.8660 H   0  0  0  0  0  0  0  0  0  0  0  0
   38.6630   34.9150   40.2430 C   0  0  0  0  0  3  0  0  0  0  0  0
  1  6  2  0  0  0  0
  1  2  1  0  0  0  0
  2  3  2  0  0  0  0
  3  4  1  0  0  0  0
  3 30  1  0  0  0  0
  5  9  1  0  0  0  0
  5  4  2  0  0  0  0
  6  5  1  0  0  0  0
  7  1  1  0  0  0  0
  8  2  1  0  0  0  0
  9 12  1  0  0  0  0
 10  9  1  0  0  0  0
 11  9  1  0  0  0  0
 12 14  1  0  0  0  0
 12 13  1  0  0  0  0
 12 15  1  0  0  0  0
 15 20  1  0  0  0  0
 16 15  2  0  0  0  0
 16 17  1  0  0  0  0
 17 18  2  0  0  0  0
 18 19  1  0  0  0  0
 18 23  1  0  0  0  0
 19 24  1  0  0  0  0
 20 27  1  0  0  0  0
 20 19  2  0  0  0  0
 21 16  1  0  0  0  0
 22 17  1  0  0  0  0
 25 27  1  0  0  0  0
 26 25  2  0  0  0  0
 27 29  1  0  0  0  0
 28 25  1  0  0  0  0
 30 32  1  0  0  0  0
 30 31  1  0  0  0  0
 33 35  1  0  0  0  0
 33 36  1  0  0  0  0
 33 30  1  0  0  0  0
 34 33  1  0  0  0  0
 36 44  1  0  0  0  0
 37 36  2  0  0  0  0
 37 39  1  0  0  0  0
 38 37  1  0  0  0  0
 39 40  2  0  0  0  0
 40 42  1  0  0  0  0
 40 41  1  0  0  0  0
 42 43  1  0  0  0  0
 44 42  2  0  0  0  0
M  END
>  <minimizedAffinity>
-5.8578434

$$$$

 OpenBabel03242511483D

 44 46  0  0  0  0  0  0  0  0999 V2000
   39.2640   31.0270   41.4250 C   0  0  0  0  0  0  0  0  0  0  0  0
   39.0110   30.1370   42.4940 C   0  0  0  0  0  0  0  0  0  0  0  0
   37.7870   29.5010   42.4950 C   0  0  0  0  0  0  0  0  0  0  0  0
   36.9050   29.7450   41.5060 N   0  0  0  0  0  0  0  0  0  0  0  0
   37.2100   30.6110   40.5080 C   0  0  0  0  0  0  0  0  0  0  0  0
   38.3480   31.2380   40.4560 N   0  0  0  0  0  0  0  0  0  0  0  0
   40.2070   31.5610   41.3630 H   0  0  0  0  0  0  0  0  0  0  0  0
   39.8130   30.0360   43.2200 H   0  0  0  0  0  0  0  0  0  0  0  0
   36.1880   30.8240   39.4600 C   0  0  0  0  0  0  0  0  0  0  0  0
   35.3530   31.4690   39.8260 H   0  0  0  0  0  0  0  0  0  0  0  0
   36.6070   31.3580   38.5800 H   0  0  0  0  0  0  0  0  0  0  0  0
   35.6720   29.4920   39.0070 C   0  0  0  0  0  0  0  0  0  0  0  0
   34.6470   29.2820   39.3980 H   0  0  0  0  0  0  0  0  0  0  0  0
   36.2910   28.6460   39.4290 H   0  0  0  0  0  0  0  0  0  0  0  0
   35.6400   29.3740   37.5630 C   0  0  0  0  0  0  0  0  0  0  0  0
   36.6440   29.6620   36.6530 C   0  0  0  0  0  0  0  0  0  0  0  0
   36.5080   29.5090   35.3090 C   0  0  0  0  0  0  0  0  0  0  0  0
   35.3180   29.0470   34.8300 C   0  0  0  0  0  0  0  0  0  0  0  0
   34.2960   28.7520   35.7270 C   0  0  0  0  0  0  0  0  0  0  0  0
   34.4550   28.9140   37.0740 C   0  0  0  0  0  0  0  0  0  0  0  0
   37.5680   30.0260   37.0930 H   0  0  0  0  0  0  0  0  0  0  0  0
   37.3580   29.7650   34.7010 H   0  0  0  0  0  0  0  0  0  0  0  0
   35.2640   28.9420   33.7370 H   0  0  0  0  0  0  0  0  0  0  0  0
   33.4200   28.3960   35.1700 H   0  0  0  0  0  0  0  0  0  0  0  0
   32.0780   29.3000   37.2930 C   0  0  0  0  0  0  0  0  0  0  0  0
   31.7970   30.3000   36.5110 O   0  0  0  0  0  0  0  0  0  0  0  0
   33.2280   28.5300   37.7070 N   0  0  0  0  0  0  0  0  0  0  0  0
   31.0430   29.1800   37.6000 H   0  0  0  0  0  0  0  0  0  0  0  0
   32.9570   27.8290   38.3990 H   0  0  0  0  0  0  0  0  0  0  0  0
   37.5300   28.5690   43.6190 C   0  0  0  0  0  0  0  0  0  0  0  0
   37.0360   29.1560   44.4200 H   0  0  0  0  0  0  0  0  0  0  0  0
   38.5130   28.1930   43.9960 H   0  0  0  0  0  0  0  0  0  0  0  0
   36.6570   27.4030   43.1820 C   0  0  0  0  0  0  0  0  0  0  0  0
   35.9960   27.1640   44.0420 H   0  0  0  0  0  0  0  0  0  0  0  0
   35.9700   27.8040   42.4030 H   0  0  0  0  0  0  0  0  0  0  0  0
   37.4570   26.2450   42.7460 C   0  0  0  0  0  0  0  0  0  0  0  0
   38.8010   26.2830   43.1310 C   0  0  0  0  0  0  0  0  0  0  0  0
   39.2290   27.1010   43.7070 H   0  0  0  0  0  0  0  0  0  0  0  0
   39.5970   25.2140   42.7430 C   0  0  0  0  0  3  0  0  0  0  0  0
   39.1350   24.1370   42.0120 C   0  0  0  0  0  0  0  0  0  0  0  0
   39.7800   23.3330   41.7320 H   0  0  0  0  0  0  0  0  0  0  0  0
   37.7840   24.1420   41.6490 C   0  0  0  0  0  0  0  0  0  0  0  0
   37.4010   23.2970   41.0700 H   0  0  0  0  0  0  0  0  0  0  0  0
   36.9440   25.1940   42.0160 C   0  0  0  0  0  3  0  0  0  0  0  0
  1  2  1  0  0  0  0
  2  3  2  0  0  0  0
  2  8  1  0  0  0  0
  3 30  1  0  0  0  0
  4  3  1  0  0  0  0
  5  4  2  0  0  0  0
  6  5  1  0  0  0  0
  6  1  2  0  0  0  0
  7  1  1  0  0  0  0
  9 10  1  0  0  0  0
  9  5  1  0  0  0  0
 11  9  1  0  0  0  0
 12 13  1  0  0  0  0
 12 14  1  0  0  0  0
 12  9  1  0  0  0  0
 15 12  1  0  0  0  0
 16 21  1  0  0  0  0
 16 15  2  0  0  0  0
 17 16  1  0  0  0  0
 18 17  2  0  0  0  0
 18 19  1  0  0  0  0
 19 20  2  0  0  0  0
 20 15  1  0  0  0  0
 20 27  1  0  0  0  0
 22 17  1  0  0  0  0
 23 18  1  0  0  0  0
 24 19  1  0  0  0  0
 25 28  1  0  0  0  0
 25 27  1  0  0  0  0
 26 25  2  0  0  0  0
 27 29  1  0  0  0  0
 30 32  1  0  0  0  0
 30 31  1  0  0  0  0
 33 30  1  0  0  0  0
 33 34  1  0  0  0  0
 35 33  1  0  0  0  0
 36 37  1  0  0  0  0
 36 33  1  0  0  0  0
 37 38  1  0  0  0  0
 39 37  2  0  0  0  0
 40 39  1  0  0  0  0
 41 40  1  0  0  0  0
 42 40  2  0  0  0  0
 42 44  1  0  0  0  0
 43 42  1  0  0  0  0
 44 36  2  0  0  0  0
M  END
>  <minimizedAffinity>
-5.77698994

$$$$

 OpenBabel03242511483D

 44 46  0  0  0  0  0  0  0  0999 V2000
   40.3990   25.5280   43.0620 C   0  0  0  0  0  0  0  0  0  0  0  0
   39.2310   24.7960   42.7440 C   0  0  0  0  0  0  0  0  0  0  0  0
   38.0900   25.5290   42.4920 C   0  0  0  0  0  0  0  0  0  0  0  0
   38.1300   26.8750   42.5570 N   0  0  0  0  0  0  0  0  0  0  0  0
   39.2840   27.5150   42.8680 C   0  0  0  0  0  0  0  0  0  0  0  0
   40.3900   26.8760   43.1150 N   0  0  0  0  0  0  0  0  0  0  0  0
   41.3320   25.0140   43.2720 H   0  0  0  0  0  0  0  0  0  0  0  0
   39.3460   23.7150   42.7260 H   0  0  0  0  0  0  0  0  0  0  0  0
   39.2440   28.9930   42.9190 C   0  0  0  0  0  0  0  0  0  0  0  0
   39.3900   29.3730   43.9580 H   0  0  0  0  0  0  0  0  0  0  0  0
   40.0660   29.4470   42.3230 H   0  0  0  0  0  0  0  0  0  0  0  0
   37.9350   29.4640   42.3590 C   0  0  0  0  0  0  0  0  0  0  0  0
   37.2350   29.8050   43.1580 H   0  0  0  0  0  0  0  0  0  0  0  0
   37.3740   28.6190   41.8620 H   0  0  0  0  0  0  0  0  0  0  0  0
   38.0990   30.5430   41.4060 C   0  0  0  0  0  0  0  0  0  0  0  0
   39.2700   31.1440   40.9780 C   0  0  0  0  0  0  0  0  0  0  0  0
   39.3090   32.1550   40.0680 C   0  0  0  0  0  0  0  0  0  0  0  0
   38.1300   32.6000   39.5480 C   0  0  0  0  0  0  0  0  0  0  0  0
   36.9400   32.0080   39.9650 C   0  0  0  0  0  0  0  0  0  0  0  0
   36.9250   30.9960   40.8810 C   0  0  0  0  0  0  0  0  0  0  0  0
   40.1770   30.7480   41.4260 H   0  0  0  0  0  0  0  0  0  0  0  0
   40.2790   32.5430   39.8130 H   0  0  0  0  0  0  0  0  0  0  0  0
   38.2190   33.4150   38.8180 H   0  0  0  0  0  0  0  0  0  0  0  0
   36.1000   32.4880   39.4480 H   0  0  0  0  0  0  0  0  0  0  0  0
   35.0940   29.5560   40.2350 C   0  0  0  0  0  0  0  0  0  0  0  0
   35.5370   28.8180   39.2610 O   0  0  0  0  0  0  0  0  0  0  0  0
   35.5590   30.6190   41.0940 N   0  0  0  0  0  0  0  0  0  0  0  0
   34.1190   29.0760   40.2260 H   0  0  0  0  0  0  0  0  0  0  0  0
   34.8120   30.9250   41.7190 H   0  0  0  0  0  0  0  0  0  0  0  0
   36.8710   24.7540   42.1580 C   0  0  0  0  0  0  0  0  0  0  0  0
   36.0790   25.4880   41.9060 H   0  0  0  0  0  0  0  0  0  0  0  0
   36.5610   24.1780   43.0640 H   0  0  0  0  0  0  0  0  0  0  0  0
   37.1220   23.8040   40.9960 C   0  0  0  0  0  0  0  0  0  0  0  0
   38.2070   23.8590   40.7710 H   0  0  0  0  0  0  0  0  0  0  0  0
   36.9700   22.7760   41.3970 H   0  0  0  0  0  0  0  0  0  0  0  0
   36.2850   24.1280   39.8270 C   0  0  0  0  0  0  0  0  0  0  0  0
   35.2920   23.1870   39.5380 C   0  0  0  0  0  0  0  0  0  0  0  0
   35.1420   22.2840   40.1250 H   0  0  0  0  0  0  0  0  0  0  0  0
   34.4770   23.4480   38.4440 C   0  0  0  0  0  3  0  0  0  0  0  0
   34.5980   24.5680   37.6460 C   0  0  0  0  0  0  0  0  0  0  0  0
   33.9510   24.7330   36.8120 H   0  0  0  0  0  0  0  0  0  0  0  0
   35.6060   25.4810   37.9730 C   0  0  0  0  0  0  0  0  0  0  0  0
   35.7160   26.3750   37.3510 H   0  0  0  0  0  0  0  0  0  0  0  0
   36.4500   25.2630   39.0620 C   0  0  0  0  0  3  0  0  0  0  0  0
  1  6  1  0  0  0  0
  1  7  1  0  0  0  0
  2  1  2  0  0  0  0
  3  4  2  0  0  0  0
  3  2  1  0  0  0  0
  4  5  1  0  0  0  0
  5  9  1  0  0  0  0
  5  6  2  0  0  0  0
  8  2  1  0  0  0  0
  9 10  1  0  0  0  0
 11  9  1  0  0  0  0
 12  9  1  0  0  0  0
 12 13  1  0  0  0  0
 14 12  1  0  0  0  0
 15 12  1  0  0  0  0
 16 15  1  0  0  0  0
 16 21  1  0  0  0  0
 17 16  2  0  0  0  0
 18 19  2  0  0  0  0
 18 17  1  0  0  0  0
 19 20  1  0  0  0  0
 20 27  1  0  0  0  0
 20 15  2  0  0  0  0
 22 17  1  0  0  0  0
 23 18  1  0  0  0  0
 24 19  1  0  0  0  0
 25 27  1  0  0  0  0
 26 25  2  0  0  0  0
 27 29  1  0  0  0  0
 28 25  1  0  0  0  0
 30  3  1  0  0  0  0
 30 32  1  0  0  0  0
 31 30  1  0  0  0  0
 33 35  1  0  0  0  0
 33 30  1  0  0  0  0
 34 33  1  0  0  0  0
 36 33  1  0  0  0  0
 37 36  1  0  0  0  0
 37 38  1  0  0  0  0
 39 37  2  0  0  0  0
 40 42  2  0  0  0  0
 40 39  1  0  0  0  0
 41 40  1  0  0  0  0
 42 44  1  0  0  0  0
 43 42  1  0  0  0  0
 44 36  2  0  0  0  0
M  END
>  <minimizedAffinity>
-5.76758385

$$$$

 OpenBabel03242511483D

 44 46  0  0  0  0  0  0  0  0999 V2000
   41.4280   27.6910   43.5820 C   0  0  0  0  0  0  0  0  0  0  0  0
   40.2020   26.9870   43.6190 C   0  0  0  0  0  0  0  0  0  0  0  0
   39.1280   27.5790   42.9850 C   0  0  0  0  0  0  0  0  0  0  0  0
   39.2850   28.7700   42.3740 N   0  0  0  0  0  0  0  0  0  0  0  0
   40.4890   29.3920   42.3750 C   0  0  0  0  0  0  0  0  0  0  0  0
   41.5350   28.8820   42.9560 N   0  0  0  0  0  0  0  0  0  0  0  0
   42.3130   27.2840   44.0600 H   0  0  0  0  0  0  0  0  0  0  0  0
   40.2230   26.0380   44.1470 H   0  0  0  0  0  0  0  0  0  0  0  0
   40.5760   30.6960   41.6810 C   0  0  0  0  0  0  0  0  0  0  0  0
   41.2030   31.4230   42.2510 H   0  0  0  0  0  0  0  0  0  0  0  0
   41.0680   30.6010   40.6880 H   0  0  0  0  0  0  0  0  0  0  0  0
   39.1920   31.2320   41.4770 C   0  0  0  0  0  0  0  0  0  0  0  0
   39.0970   32.2920   41.8140 H   0  0  0  0  0  0  0  0  0  0  0  0
   38.4410   30.6850   42.1200 H   0  0  0  0  0  0  0  0  0  0  0  0
   38.7680   31.1550   40.0930 C   0  0  0  0  0  0  0  0  0  0  0  0
   39.0610   30.1790   39.1560 C   0  0  0  0  0  0  0  0  0  0  0  0
   38.6030   30.2030   37.8750 C   0  0  0  0  0  0  0  0  0  0  0  0
   37.8110   31.2440   37.4940 C   0  0  0  0  0  0  0  0  0  0  0  0
   37.5040   32.2360   38.4210 C   0  0  0  0  0  0  0  0  0  0  0  0
   37.9760   32.1920   39.7010 C   0  0  0  0  0  0  0  0  0  0  0  0
   39.6950   29.3740   39.5170 H   0  0  0  0  0  0  0  0  0  0  0  0
   38.8980   29.3880   37.2380 H   0  0  0  0  0  0  0  0  0  0  0  0
   37.4680   31.2130   36.4500 H   0  0  0  0  0  0  0  0  0  0  0  0
   36.8630   32.9880   37.9430 H   0  0  0  0  0  0  0  0  0  0  0  0
   38.3690   34.4930   40.3310 C   0  0  0  0  0  0  0  0  0  0  0  0
   39.5380   34.8070   39.8580 O   0  0  0  0  0  0  0  0  0  0  0  0
   37.4870   33.3510   40.3880 N   0  0  0  0  0  0  0  0  0  0  0  0
   38.2080   35.4870   40.7400 H   0  0  0  0  0  0  0  0  0  0  0  0
   36.6460   33.5760   40.9220 H   0  0  0  0  0  0  0  0  0  0  0  0
   37.8480   26.8330   43.0280 C   0  0  0  0  0  0  0  0  0  0  0  0
   37.7810   26.3610   44.0300 H   0  0  0  0  0  0  0  0  0  0  0  0
   37.8790   26.0330   42.2490 H   0  0  0  0  0  0  0  0  0  0  0  0
   36.6630   27.7560   42.7830 C   0  0  0  0  0  0  0  0  0  0  0  0
   35.8120   27.3380   43.3600 H   0  0  0  0  0  0  0  0  0  0  0  0
   36.9050   28.7150   43.2940 H   0  0  0  0  0  0  0  0  0  0  0  0
   36.3580   27.8950   41.3480 C   0  0  0  0  0  0  0  0  0  0  0  0
   35.7100   29.0840   40.9980 C   0  0  0  0  0  0  0  0  0  0  0  0
   35.4480   29.8500   41.7230 H   0  0  0  0  0  0  0  0  0  0  0  0
   35.4010   29.2610   39.6560 C   0  0  0  0  0  3  0  0  0  0  0  0
   35.6970   28.3390   38.6710 C   0  0  0  0  0  0  0  0  0  0  0  0
   35.4420   28.5120   37.6480 H   0  0  0  0  0  0  0  0  0  0  0  0
   36.3450   27.1640   39.0680 C   0  0  0  0  0  0  0  0  0  0  0  0
   36.5880   26.4230   38.3000 H   0  0  0  0  0  0  0  0  0  0  0  0
   36.6770   26.9400   40.4050 C   0  0  0  0  0  3  0  0  0  0  0  0
  1  2  1  0  0  0  0
  1  7  1  0  0  0  0
  2  8  1  0  0  0  0
  3 30  1  0  0  0  0
  3  2  2  0  0  0  0
  4  5  2  0  0  0  0
  4  3  1  0  0  0  0
  5  6  1  0  0  0  0
  6  1  2  0  0  0  0
  9 10  1  0  0  0  0
  9  5  1  0  0  0  0
 11  9  1  0  0  0  0
 12  9  1  0  0  0  0
 12 13  1  0  0  0  0
 12 14  1  0  0  0  0
 15 12  1  0  0  0  0
 16 21  1  0  0  0  0
 16 15  2  0  0  0  0
 17 16  1  0  0  0  0
 18 17  2  0  0  0  0
 18 19  1  0  0  0  0
 19 20  2  0  0  0  0
 20 15  1  0  0  0  0
 20 27  1  0  0  0  0
 22 17  1  0  0  0  0
 23 18  1  0  0  0  0
 24 19  1  0  0  0  0
 25 27  1  0  0  0  0
 25 28  1  0  0  0  0
 26 25  2  0  0  0  0
 27 29  1  0  0  0  0
 30 31  1  0  0  0  0
 32 30  1  0  0  0  0
 33 30  1  0  0  0  0
 33 35  1  0  0  0  0
 33 34  1  0  0  0  0
 36 33  1  0  0  0  0
 37 36  1  0  0  0  0
 37 38  1  0  0  0  0
 39 37  2  0  0  0  0
 40 42  2  0  0  0  0
 40 39  1  0  0  0  0
 41 40  1  0  0  0  0
 42 44  1  0  0  0  0
 43 42  1  0  0  0  0
 44 36  2  0  0  0  0
M  END
>  <minimizedAffinity>
-5.75480032

$$$$

 OpenBabel03242511483D

 44 46  0  0  0  0  0  0  0  0999 V2000
   35.8880   29.3170   38.9220 C   0  0  0  0  0  0  0  0  0  0  0  0
   35.9590   28.4300   40.0220 C   0  0  0  0  0  0  0  0  0  0  0  0
   36.5010   28.9310   41.1880 C   0  0  0  0  0  0  0  0  0  0  0  0
   36.9290   30.2090   41.2320 N   0  0  0  0  0  0  0  0  0  0  0  0
   36.8310   31.0070   40.1410 C   0  0  0  0  0  0  0  0  0  0  0  0
   36.3290   30.5890   39.0160 N   0  0  0  0  0  0  0  0  0  0  0  0
   35.4730   28.9880   37.9750 H   0  0  0  0  0  0  0  0  0  0  0  0
   35.5760   27.4290   39.8430 H   0  0  0  0  0  0  0  0  0  0  0  0
   37.3240   32.3960   40.2730 C   0  0  0  0  0  0  0  0  0  0  0  0
   37.3320   32.9240   39.2900 H   0  0  0  0  0  0  0  0  0  0  0  0
   36.6630   33.0050   40.9270 H   0  0  0  0  0  0  0  0  0  0  0  0
   38.6960   32.3700   40.8750 C   0  0  0  0  0  0  0  0  0  0  0  0
   38.7920   31.5920   41.6700 H   0  0  0  0  0  0  0  0  0  0  0  0
   38.9230   33.3320   41.4210 H   0  0  0  0  0  0  0  0  0  0  0  0
   39.7290   32.1380   39.8850 C   0  0  0  0  0  0  0  0  0  0  0  0
   40.2610   30.9320   39.4610 C   0  0  0  0  0  0  0  0  0  0  0  0
   41.2320   30.8290   38.5140 C   0  0  0  0  0  0  0  0  0  0  0  0
   41.7080   31.9750   37.9510 C   0  0  0  0  0  0  0  0  0  0  0  0
   41.1870   33.1990   38.3640 C   0  0  0  0  0  0  0  0  0  0  0  0
   40.2130   33.2790   39.3170 C   0  0  0  0  0  0  0  0  0  0  0  0
   39.8420   30.0540   39.9440 H   0  0  0  0  0  0  0  0  0  0  0  0
   41.5660   29.8370   38.2660 H   0  0  0  0  0  0  0  0  0  0  0  0
   42.4900   31.8340   37.1930 H   0  0  0  0  0  0  0  0  0  0  0  0
   41.6830   34.0050   37.8100 H   0  0  0  0  0  0  0  0  0  0  0  0
   40.8430   35.3690   40.3550 C   0  0  0  0  0  0  0  0  0  0  0  0
   41.9140   35.1230   41.0500 O   0  0  0  0  0  0  0  0  0  0  0  0
   39.9050   34.6650   39.5130 N   0  0  0  0  0  0  0  0  0  0  0  0
   40.8480   36.4220   40.6220 H   0  0  0  0  0  0  0  0  0  0  0  0
   39.1670   35.2950   39.1960 H   0  0  0  0  0  0  0  0  0  0  0  0
   36.5710   27.9950   42.3350 C   0  0  0  0  0  0  0  0  0  0  0  0
   36.9920   27.0440   41.9520 H   0  0  0  0  0  0  0  0  0  0  0  0
   35.5330   27.8120   42.7050 H   0  0  0  0  0  0  0  0  0  0  0  0
   37.4330   28.5580   43.4560 C   0  0  0  0  0  0  0  0  0  0  0  0
   37.3120   29.6610   43.4240 H   0  0  0  0  0  0  0  0  0  0  0  0
   36.9450   28.2500   44.4080 H   0  0  0  0  0  0  0  0  0  0  0  0
   38.8410   28.1410   43.3340 C   0  0  0  0  0  0  0  0  0  0  0  0
   39.1290   26.8840   43.8760 C   0  0  0  0  0  0  0  0  0  0  0  0
   38.3770   26.2590   44.3530 H   0  0  0  0  0  0  0  0  0  0  0  0
   40.4430   26.4450   43.7860 C   0  0  0  0  0  3  0  0  0  0  0  0
   41.4580   27.1760   43.1990 C   0  0  0  0  0  0  0  0  0  0  0  0
   42.4580   26.8040   43.1490 H   0  0  0  0  0  0  0  0  0  0  0  0
   41.1230   28.4270   42.6690 C   0  0  0  0  0  0  0  0  0  0  0  0
   41.9150   29.0180   42.2000 H   0  0  0  0  0  0  0  0  0  0  0  0
   39.8160   28.9110   42.7360 C   0  0  0  0  0  3  0  0  0  0  0  0
  1  6  2  0  0  0  0
  1  2  1  0  0  0  0
  2  3  2  0  0  0  0
  3  4  1  0  0  0  0
  3 30  1  0  0  0  0
  5  9  1  0  0  0  0
  5  4  2  0  0  0  0
  6  5  1  0  0  0  0
  7  1  1  0  0  0  0
  8  2  1  0  0  0  0
  9 12  1  0  0  0  0
  9 11  1  0  0  0  0
 10  9  1  0  0  0  0
 12 14  1  0  0  0  0
 12 13  1  0  0  0  0
 15 12  1  0  0  0  0
 16 15  1  0  0  0  0
 16 21  1  0  0  0  0
 17 16  2  0  0  0  0
 18 19  2  0  0  0  0
 18 17  1  0  0  0  0
 19 20  1  0  0  0  0
 20 27  1  0  0  0  0
 20 15  2  0  0  0  0
 22 17  1  0  0  0  0
 23 18  1  0  0  0  0
 24 19  1  0  0  0  0
 25 28  1  0  0  0  0
 25 26  2  0  0  0  0
 27 25  1  0  0  0  0
 29 27  1  0  0  0  0
 30 32  1  0  0  0  0
 30 33  1  0  0  0  0
 31 30  1  0  0  0  0
 33 35  1  0  0  0  0
 34 33  1  0  0  0  0
 36 33  1  0  0  0  0
 36 37  1  0  0  0  0
 37 38  1  0  0  0  0
 39 37  2  0  0  0  0
 40 39  1  0  0  0  0
 41 40  1  0  0  0  0
 42 44  1  0  0  0  0
 42 40  2  0  0  0  0
 43 42  1  0  0  0  0
 44 36  2  0  0  0  0
M  END
>  <minimizedAffinity>
-5.73541832

$$$$
