
 OpenBabel03252503003D

 22 23  0  0  0  0  0  0  0  0999 V2000
   44.1490   34.3760   40.5810 C   0  0  0  0  0  0  0  0  0  0  0  0
   44.1700   33.2540   40.5520 H   0  0  0  0  0  0  0  0  0  0  0  0
   44.8050   34.6670   39.7100 H   0  0  0  0  0  0  0  0  0  0  0  0
   42.7920   34.9160   40.4350 C   0  0  0  0  0  0  0  0  0  0  0  0
   42.0530   35.2670   41.5710 C   0  0  0  0  0  0  0  0  0  0  0  0
   42.4390   35.1580   42.5760 H   0  0  0  0  0  0  0  0  0  0  0  0
   40.7640   35.7800   41.4250 C   0  0  0  0  0  3  0  0  0  0  0  0
   40.2140   35.9420   40.1540 C   0  0  0  0  0  0  0  0  0  0  0  0
   39.1990   36.3440   40.0190 H   0  0  0  0  0  0  0  0  0  0  0  0
   40.9140   35.6060   39.0040 C   0  0  0  0  0  0  0  0  0  0  0  0
   40.5070   35.7230   38.0090 H   0  0  0  0  0  0  0  0  0  0  0  0
   42.1820   35.1050   39.2120 C   0  0  0  0  0  3  0  0  0  0  0  0
   44.9840   34.9310   42.0680 S   0  0  0  0  0  0  0  0  0  0  0  0
   47.4950   34.3600   43.1060 C   0  0  0  0  0  0  0  0  0  0  0  0
   46.7450   34.5290   41.9480 C   0  0  0  0  0  0  0  0  0  0  0  0
   47.3270   34.3930   40.6820 C   0  0  0  0  0  0  0  0  0  0  0  0
   48.6550   34.0900   40.6650 N   0  0  0  0  0  0  0  0  0  0  0  0
   49.3430   33.9360   41.8010 C   0  0  0  0  0  0  0  0  0  0  0  0
   48.8150   34.0590   43.0180 N   0  0  0  0  0  0  0  0  0  0  0  0
   47.0600   34.4620   44.0940 H   0  0  0  0  0  0  0  0  0  0  0  0
   46.6900   34.5360   39.8210 H   0  0  0  0  0  0  0  0  0  0  0  0
   50.3860   33.6960   41.5450 H   0  0  0  0  0  0  0  0  0  0  0  0
  1 13  1  0  0  0  0
  2  1  1  0  0  0  0
  3  1  1  0  0  0  0
  4  1  1  0  0  0  0
  4  5  1  0  0  0  0
  5  6  1  0  0  0  0
  7  5  2  0  0  0  0
  8  7  1  0  0  0  0
  9  8  1  0  0  0  0
 10 12  1  0  0  0  0
 10  8  2  0  0  0  0
 11 10  1  0  0  0  0
 12  4  2  0  0  0  0
 14 20  1  0  0  0  0
 15 13  1  0  0  0  0
 15 14  2  0  0  0  0
 16 15  1  0  0  0  0
 17 16  2  0  0  0  0
 17 18  1  0  0  0  0
 18 19  2  0  0  0  0
 19 14  1  0  0  0  0
 21 16  1  0  0  0  0
 22 18  1  0  0  0  0
M  END
>  <minimizedAffinity>
-4.18177414

>  <minimizedRMSD>
3.62150025

$$$$
