
     RDKit          3D

 24 25  0  0  0  0  0  0  0  0999 V2000
   44.2590   35.7435   44.2595 C   0  0  0  0  0  0  0  0  0  0  0  0
   44.4311   34.9351   43.1417 C   0  0  0  0  0  0  0  0  0  0  0  0
   45.0735   33.6960   43.2359 C   0  0  0  0  0  0  0  0  0  0  0  0
   45.5108   33.3433   44.4775 N   0  0  0  0  0  0  0  0  0  0  0  0
   45.3266   34.1481   45.5294 C   0  0  0  0  0  0  0  0  0  0  0  0
   44.7186   35.3323   45.4676 N   0  0  0  0  0  0  0  0  0  0  0  0
   43.8161   35.4875   41.5307 S   0  0  0  0  0  0  0  0  0  0  0  0
   43.8703   34.1152   40.3768 C   0  0  0  0  0  0  0  0  0  0  0  0
   43.7640   36.7055   44.2042 H   0  0  0  0  0  0  0  0  0  0  0  0
   45.1758   33.1154   42.3310 H   0  0  0  0  0  0  0  0  0  0  0  0
   45.7571   33.6612   46.4166 H   0  0  0  0  0  0  0  0  0  0  0  0
   43.3152   33.2467   40.8221 H   0  0  0  0  0  0  0  0  0  0  0  0
   44.9375   33.7505   40.3533 H   0  0  0  0  0  0  0  0  0  0  0  0
   43.3897   34.4596   39.0337 C   0  0  0  0  0  0  0  0  0  0  0  0
   44.3033   34.6345   37.9873 C   0  0  0  0  0  0  0  0  0  0  0  0
   45.3713   34.5267   38.1196 H   0  0  0  0  0  0  0  0  0  0  0  0
   43.8383   34.9621   36.7129 C   0  0  0  0  0  0  0  0  0  0  0  0
   42.4725   35.1141   36.4824 C   0  0  0  0  0  0  0  0  0  0  0  0
   42.0871   35.3721   35.4846 H   0  0  0  0  0  0  0  0  0  0  0  0
   41.5355   34.9492   37.4928 C   0  0  0  0  0  0  0  0  0  0  0  0
   40.4712   35.0621   37.3373 H   0  0  0  0  0  0  0  0  0  0  0  0
   42.0549   34.6267   38.7286 C   0  0  0  0  0  0  0  0  0  0  0  0
   44.5527   35.0967   35.9041 H   0  0  0  0  0  0  0  0  0  0  0  0
   41.3178   34.4956   39.5293 H   0  0  0  0  0  0  0  0  0  0  0  0
  1  6  2  0
  2  3  2  0
  2  1  1  0
  3  4  1  0
  4  5  2  0
  6  5  1  0
  7  2  1  0
  8  7  1  0
  1  9  1  0
  3 10  1  0
  5 11  1  0
  8 12  1  0
  8 13  1  0
 14 15  2  0
 15 16  1  0
 15 17  1  0
 17 18  2  0
 18 19  1  0
 18 20  1  0
 20 21  1  0
 20 22  2  0
 22 14  1  0
 17 23  1  0
 22 24  1  0
  8 14  1  0
M  ISO  8   9  14  10  14  11  14  12   8  13   8  16  16  19  16  21  16
M  END
>  <DihAtoms>  (1) 
6,7,13,14

>  <DihDeg>  (1) 
-90.01100321285926

$$$$
