
 OpenBabel03242515103D

 36 38  0  0  0  0  0  0  0  0999 V2000
   45.7060   33.8340   45.7130 C   0  0  0  0  0  0  0  0  0  0  0  0
   44.8170   34.8730   45.7500 C   0  0  0  0  0  0  0  0  0  0  0  0
   44.5460   35.7140   44.6930 C   0  0  0  0  0  0  0  0  0  0  0  0
   45.2070   35.5070   43.5130 C   0  0  0  0  0  0  0  0  0  0  0  0
   46.0990   34.4880   43.4320 C   0  0  0  0  0  0  0  0  0  0  0  0
   46.3580   33.6510   44.5110 C   0  0  0  0  0  0  0  0  0  0  0  0
   44.2610   35.0800   46.6670 H   0  0  0  0  0  0  0  0  0  0  0  0
   43.8330   36.5240   44.7670 H   0  0  0  0  0  0  0  0  0  0  0  0
   44.9850   36.1780   42.6870 H   0  0  0  0  0  0  0  0  0  0  0  0
   46.5990   34.3680   42.4690 H   0  0  0  0  0  0  0  0  0  0  0  0
   47.5240   31.8520   48.1830 C   0  0  0  0  0  0  0  0  0  0  0  0
   46.5090   31.3560   49.0080 C   0  0  0  0  0  0  0  0  0  0  0  0
   45.2020   31.7060   48.7090 C   0  0  0  0  0  0  0  0  0  0  0  0
   44.9170   32.5180   47.6330 N   0  0  0  0  0  0  0  0  0  0  0  0
   45.9540   32.9790   46.8540 C   0  0  0  0  0  0  0  0  0  0  0  0
   47.2210   32.6320   47.1530 N   0  0  0  0  0  0  0  0  0  0  0  0
   48.5470   31.6200   48.3590 H   0  0  0  0  0  0  0  0  0  0  0  0
   46.7680   30.7210   49.8440 H   0  0  0  0  0  0  0  0  0  0  0  0
   44.4050   31.3430   49.3200 H   0  0  0  0  0  0  0  0  0  0  0  0
   47.3080   32.6420   44.2660 N   0  0  0  0  0  0  0  0  0  0  0  0
   48.2830   33.0060   44.3760 H   0  0  0  0  0  0  0  0  0  0  0  0
   47.1630   30.9900   43.8370 S   0  0  0  0  0  0  0  0  0  0  0  0
   46.7240   30.2170   45.0840 O   0  0  0  0  0  0  0  0  0  0  0  0
   47.0420   29.2840   45.2940 H   0  0  0  0  0  0  0  0  0  0  0  0
   46.2030   30.7190   42.7480 O   0  0  0  0  0  0  0  0  0  0  0  0
   45.8120   31.4080   42.1300 H   0  0  0  0  0  0  0  0  0  0  0  0
   48.7230   30.4430   43.5170 O   0  0  0  0  0  0  0  0  0  0  0  0
   49.4950   30.8840   42.4690 C   0  0  0  0  0  0  0  0  0  0  0  0
   50.4190   31.9030   42.5170 C   0  0  0  0  0  0  0  0  0  0  0  0
   50.5400   32.3960   43.4760 H   0  0  0  0  0  0  0  0  0  0  0  0
   51.1530   32.2750   41.3970 C   0  0  0  0  0  0  0  0  0  0  0  0
   50.9260   31.5870   40.2270 C   0  0  0  0  0  0  0  0  0  0  0  0
   51.4860   31.8630   39.3480 H   0  0  0  0  0  0  0  0  0  0  0  0
   50.0080   30.5660   40.1520 C   0  0  0  0  0  0  0  0  0  0  0  0
   49.8530   30.0450   39.2210 H   0  0  0  0  0  0  0  0  0  0  0  0
   49.2740   30.1940   41.2730 C   0  0  0  0  0  0  0  0  0  0  0  0
  1  2  1  0  0  0  0
  1 15  1  0  0  0  0
  2  7  1  0  0  0  0
  3  8  1  0  0  0  0
  3  2  2  0  0  0  0
  4  3  1  0  0  0  0
  5  4  2  0  0  0  0
  5  6  1  0  0  0  0
  6  1  2  0  0  0  0
  9  4  1  0  0  0  0
 10  5  1  0  0  0  0
 11 17  1  0  0  0  0
 11 12  1  0  0  0  0
 12 18  1  0  0  0  0
 13 12  2  0  0  0  0
 13 19  1  0  0  0  0
 14 13  1  0  0  0  0
 15 16  1  0  0  0  0
 15 14  2  0  0  0  0
 16 11  2  0  0  0  0
 20 21  1  0  0  0  0
 20  6  1  0  0  0  0
 22 20  1  0  0  0  0
 22 23  1  0  0  0  0
 23 24  1  0  0  0  0
 25 22  1  0  0  0  0
 26 25  1  0  0  0  0
 27 22  1  0  0  0  0
 28 29  1  0  0  0  0
 28 27  1  0  0  0  0
 29 30  1  0  0  0  0
 31 29  2  0  0  0  0
 32 31  1  0  0  0  0
 33 32  1  0  0  0  0
 34 32  2  0  0  0  0
 34 36  1  0  0  0  0
 35 34  1  0  0  0  0
 36 28  2  0  0  0  0
M  END
>  <minimizedAffinity>
-4.95967531

>  <minimizedRMSD>
2.30287194

$$$$
