
 OpenBabel03252503003D

 22 23  0  0  0  0  0  0  0  0999 V2000
   36.9430   27.9130   42.9920 C   0  0  0  0  0  0  0  0  0  0  0  0
   35.9890   27.6780   43.5340 H   0  0  0  0  0  0  0  0  0  0  0  0
   37.3570   28.7900   43.5700 H   0  0  0  0  0  0  0  0  0  0  0  0
   37.8790   26.7830   42.9860 C   0  0  0  0  0  0  0  0  0  0  0  0
   37.5590   25.6120   42.2900 C   0  0  0  0  0  0  0  0  0  0  0  0
   36.6340   25.4920   41.7430 H   0  0  0  0  0  0  0  0  0  0  0  0
   38.4540   24.5420   42.2900 C   0  0  0  0  0  3  0  0  0  0  0  0
   39.6620   24.6390   42.9780 C   0  0  0  0  0  0  0  0  0  0  0  0
   40.3820   23.8070   42.9890 H   0  0  0  0  0  0  0  0  0  0  0  0
   40.0170   25.7830   43.6790 C   0  0  0  0  0  0  0  0  0  0  0  0
   40.9490   25.8800   44.2200 H   0  0  0  0  0  0  0  0  0  0  0  0
   39.0920   26.8040   43.6430 C   0  0  0  0  0  3  0  0  0  0  0  0
   36.5410   28.5180   41.3520 S   0  0  0  0  0  0  0  0  0  0  0  0
   36.6210   31.1390   40.4410 C   0  0  0  0  0  0  0  0  0  0  0  0
   37.3150   30.1360   41.1070 C   0  0  0  0  0  0  0  0  0  0  0  0
   38.6080   30.3520   41.5950 C   0  0  0  0  0  0  0  0  0  0  0  0
   39.1300   31.5910   41.3770 N   0  0  0  0  0  0  0  0  0  0  0  0
   38.4310   32.5310   40.7310 C   0  0  0  0  0  0  0  0  0  0  0  0
   37.1990   32.3530   40.2560 N   0  0  0  0  0  0  0  0  0  0  0  0
   35.6190   30.9880   40.0550 H   0  0  0  0  0  0  0  0  0  0  0  0
   39.0940   29.5320   42.1050 H   0  0  0  0  0  0  0  0  0  0  0  0
   39.0460   33.4410   40.6730 H   0  0  0  0  0  0  0  0  0  0  0  0
  1  2  1  0  0  0  0
  1  3  1  0  0  0  0
  4  1  1  0  0  0  0
  4 12  1  0  0  0  0
  5  4  2  0  0  0  0
  6  5  1  0  0  0  0
  7  5  1  0  0  0  0
  7  8  2  0  0  0  0
  8  9  1  0  0  0  0
  8 10  1  0  0  0  0
 10 11  1  0  0  0  0
 12 10  2  0  0  0  0
 13  1  1  0  0  0  0
 14 15  1  0  0  0  0
 15 13  1  0  0  0  0
 15 16  2  0  0  0  0
 16 21  1  0  0  0  0
 17 16  1  0  0  0  0
 18 17  2  0  0  0  0
 19 14  2  0  0  0  0
 19 18  1  0  0  0  0
 20 14  1  0  0  0  0
 22 18  1  0  0  0  0
M  END
>  <minimizedAffinity>
-4.36445761

$$$$

 OpenBabel03252503003D

 22 23  0  0  0  0  0  0  0  0999 V2000
   36.6590   27.8520   42.8870 C   0  0  0  0  0  0  0  0  0  0  0  0
   35.6750   27.5490   43.3320 H   0  0  0  0  0  0  0  0  0  0  0  0
   36.9830   28.7120   43.5420 H   0  0  0  0  0  0  0  0  0  0  0  0
   37.6430   26.7630   42.9060 C   0  0  0  0  0  0  0  0  0  0  0  0
   38.8720   26.9410   43.5530 C   0  0  0  0  0  0  0  0  0  0  0  0
   39.1420   27.8620   44.0520 H   0  0  0  0  0  0  0  0  0  0  0  0
   39.8020   25.9010   43.5670 C   0  0  0  0  0  3  0  0  0  0  0  0
   39.5100   24.6910   42.9410 C   0  0  0  0  0  0  0  0  0  0  0  0
   40.2290   23.8590   42.9410 H   0  0  0  0  0  0  0  0  0  0  0  0
   38.3030   24.4750   42.2900 C   0  0  0  0  0  0  0  0  0  0  0  0
   38.0540   23.5440   41.7970 H   0  0  0  0  0  0  0  0  0  0  0  0
   37.4270   25.5380   42.3100 C   0  0  0  0  0  3  0  0  0  0  0  0
   36.3700   28.5270   41.2510 S   0  0  0  0  0  0  0  0  0  0  0  0
   38.5320   30.2330   41.6010 C   0  0  0  0  0  0  0  0  0  0  0  0
   37.2440   30.1050   41.0940 C   0  0  0  0  0  0  0  0  0  0  0  0
   36.6040   31.1760   40.4610 C   0  0  0  0  0  0  0  0  0  0  0  0
   37.3190   32.3330   40.3770 N   0  0  0  0  0  0  0  0  0  0  0  0
   38.5560   32.4180   40.8770 C   0  0  0  0  0  0  0  0  0  0  0  0
   39.1880   31.4150   41.4850 N   0  0  0  0  0  0  0  0  0  0  0  0
   39.0410   29.4140   42.0950 H   0  0  0  0  0  0  0  0  0  0  0  0
   35.6030   31.0120   40.0880 H   0  0  0  0  0  0  0  0  0  0  0  0
   38.9330   33.4350   40.6960 H   0  0  0  0  0  0  0  0  0  0  0  0
  1  4  1  0  0  0  0
  1  2  1  0  0  0  0
  1  3  1  0  0  0  0
  4  5  1  0  0  0  0
  5  7  2  0  0  0  0
  5  6  1  0  0  0  0
  8  7  1  0  0  0  0
  9  8  1  0  0  0  0
 10 12  1  0  0  0  0
 10  8  2  0  0  0  0
 11 10  1  0  0  0  0
 12  4  2  0  0  0  0
 13  1  1  0  0  0  0
 14 20  1  0  0  0  0
 15 13  1  0  0  0  0
 15 14  2  0  0  0  0
 16 15  1  0  0  0  0
 17 16  2  0  0  0  0
 17 18  1  0  0  0  0
 18 19  2  0  0  0  0
 19 14  1  0  0  0  0
 21 16  1  0  0  0  0
 22 18  1  0  0  0  0
M  END
>  <minimizedAffinity>
-4.35998058

$$$$

 OpenBabel03252503003D

 22 23  0  0  0  0  0  0  0  0999 V2000
   36.2800   30.6610   40.9930 C   0  0  0  0  0  0  0  0  0  0  0  0
   35.1710   30.5180   40.8980 H   0  0  0  0  0  0  0  0  0  0  0  0
   36.3650   31.6360   41.5550 H   0  0  0  0  0  0  0  0  0  0  0  0
   36.9280   29.5640   41.7200 C   0  0  0  0  0  0  0  0  0  0  0  0
   36.3260   28.3010   41.7640 C   0  0  0  0  0  0  0  0  0  0  0  0
   35.3830   28.0850   41.2800 H   0  0  0  0  0  0  0  0  0  0  0  0
   36.9480   27.2630   42.4580 C   0  0  0  0  0  3  0  0  0  0  0  0
   38.1640   27.4800   43.1020 C   0  0  0  0  0  0  0  0  0  0  0  0
   38.6710   26.6750   43.6540 H   0  0  0  0  0  0  0  0  0  0  0  0
   38.7940   28.7170   43.0810 C   0  0  0  0  0  0  0  0  0  0  0  0
   39.7380   28.9090   43.5740 H   0  0  0  0  0  0  0  0  0  0  0  0
   38.1310   29.7020   42.3820 C   0  0  0  0  0  3  0  0  0  0  0  0
   36.9670   30.9420   39.3600 S   0  0  0  0  0  0  0  0  0  0  0  0
   38.3310   33.0840   40.4830 C   0  0  0  0  0  0  0  0  0  0  0  0
   38.3400   32.1160   39.4850 C   0  0  0  0  0  0  0  0  0  0  0  0
   39.3940   32.0290   38.5690 C   0  0  0  0  0  0  0  0  0  0  0  0
   40.3930   32.9420   38.7210 N   0  0  0  0  0  0  0  0  0  0  0  0
   40.3490   33.8590   39.6940 C   0  0  0  0  0  0  0  0  0  0  0  0
   39.3590   33.9640   40.5790 N   0  0  0  0  0  0  0  0  0  0  0  0
   37.5220   33.1650   41.2000 H   0  0  0  0  0  0  0  0  0  0  0  0
   39.3410   31.2550   37.8180 H   0  0  0  0  0  0  0  0  0  0  0  0
   41.2540   34.4810   39.6240 H   0  0  0  0  0  0  0  0  0  0  0  0
  1  3  1  0  0  0  0
  1  4  1  0  0  0  0
  2  1  1  0  0  0  0
  4  5  2  0  0  0  0
  4 12  1  0  0  0  0
  5  7  1  0  0  0  0
  6  5  1  0  0  0  0
  7  8  2  0  0  0  0
  8  9  1  0  0  0  0
 10  8  1  0  0  0  0
 10 11  1  0  0  0  0
 12 10  2  0  0  0  0
 13 15  1  0  0  0  0
 13  1  1  0  0  0  0
 14 19  1  0  0  0  0
 14 20  1  0  0  0  0
 15 14  2  0  0  0  0
 16 17  2  0  0  0  0
 16 15  1  0  0  0  0
 17 18  1  0  0  0  0
 18 19  2  0  0  0  0
 21 16  1  0  0  0  0
 22 18  1  0  0  0  0
M  END
>  <minimizedAffinity>
-4.23846054

$$$$

 OpenBabel03252503003D

 22 23  0  0  0  0  0  0  0  0999 V2000
   39.2470   29.9850   42.9300 C   0  0  0  0  0  0  0  0  0  0  0  0
   38.6460   30.8220   43.3770 H   0  0  0  0  0  0  0  0  0  0  0  0
   40.0930   29.8560   43.6660 H   0  0  0  0  0  0  0  0  0  0  0  0
   38.4680   28.7500   42.7840 C   0  0  0  0  0  0  0  0  0  0  0  0
   37.3570   28.5210   43.6050 C   0  0  0  0  0  0  0  0  0  0  0  0
   37.0350   29.2240   44.3610 H   0  0  0  0  0  0  0  0  0  0  0  0
   36.6230   27.3440   43.4600 C   0  0  0  0  0  3  0  0  0  0  0  0
   36.9910   26.4010   42.5020 C   0  0  0  0  0  0  0  0  0  0  0  0
   36.4250   25.4670   42.3720 H   0  0  0  0  0  0  0  0  0  0  0  0
   38.0850   26.5910   41.6690 C   0  0  0  0  0  0  0  0  0  0  0  0
   38.3900   25.8730   40.9190 H   0  0  0  0  0  0  0  0  0  0  0  0
   38.7710   27.7710   41.8600 C   0  0  0  0  0  3  0  0  0  0  0  0
   39.9780   30.5560   41.3950 S   0  0  0  0  0  0  0  0  0  0  0  0
   39.1000   33.1170   40.7790 C   0  0  0  0  0  0  0  0  0  0  0  0
   38.8680   31.7560   40.6160 C   0  0  0  0  0  0  0  0  0  0  0  0
   37.7880   31.2910   39.8590 C   0  0  0  0  0  0  0  0  0  0  0  0
   36.9940   32.2470   39.3010 N   0  0  0  0  0  0  0  0  0  0  0  0
   37.2490   33.5470   39.4810 C   0  0  0  0  0  0  0  0  0  0  0  0
   38.2700   34.0180   40.1970 N   0  0  0  0  0  0  0  0  0  0  0  0
   39.9310   33.4940   41.3640 H   0  0  0  0  0  0  0  0  0  0  0  0
   37.6630   30.2210   39.7700 H   0  0  0  0  0  0  0  0  0  0  0  0
   36.4850   34.1280   38.9430 H   0  0  0  0  0  0  0  0  0  0  0  0
  1  2  1  0  0  0  0
  1  3  1  0  0  0  0
  4  1  1  0  0  0  0
  4  5  1  0  0  0  0
  5  6  1  0  0  0  0
  7  5  2  0  0  0  0
  8  7  1  0  0  0  0
  9  8  1  0  0  0  0
 10 12  1  0  0  0  0
 10  8  2  0  0  0  0
 11 10  1  0  0  0  0
 12  4  2  0  0  0  0
 13  1  1  0  0  0  0
 14 20  1  0  0  0  0
 15 14  1  0  0  0  0
 15 13  1  0  0  0  0
 16 15  2  0  0  0  0
 17 18  2  0  0  0  0
 17 16  1  0  0  0  0
 18 19  1  0  0  0  0
 19 14  2  0  0  0  0
 21 16  1  0  0  0  0
 22 18  1  0  0  0  0
M  END
>  <minimizedAffinity>
-4.18017864

$$$$

 OpenBabel03252503003D

 22 23  0  0  0  0  0  0  0  0999 V2000
   38.0390   28.8570   39.6660 C   0  0  0  0  0  0  0  0  0  0  0  0
   39.1390   29.0110   39.5000 H   0  0  0  0  0  0  0  0  0  0  0  0
   37.7850   28.0280   38.9430 H   0  0  0  0  0  0  0  0  0  0  0  0
   37.7270   28.4780   41.0480 C   0  0  0  0  0  0  0  0  0  0  0  0
   37.0190   27.2990   41.3100 C   0  0  0  0  0  0  0  0  0  0  0  0
   36.6800   26.6360   40.5250 H   0  0  0  0  0  0  0  0  0  0  0  0
   36.7260   26.9470   42.6260 C   0  0  0  0  0  3  0  0  0  0  0  0
   37.1380   27.7620   43.6790 C   0  0  0  0  0  0  0  0  0  0  0  0
   36.9170   27.5020   44.7250 H   0  0  0  0  0  0  0  0  0  0  0  0
   37.8410   28.9390   43.4620 C   0  0  0  0  0  0  0  0  0  0  0  0
   38.1710   29.5880   44.2630 H   0  0  0  0  0  0  0  0  0  0  0  0
   38.1000   29.2340   42.1410 C   0  0  0  0  0  3  0  0  0  0  0  0
   37.1620   30.3190   39.1080 S   0  0  0  0  0  0  0  0  0  0  0  0
   39.4330   31.8810   38.7810 C   0  0  0  0  0  0  0  0  0  0  0  0
   38.1920   31.7790   39.3980 C   0  0  0  0  0  0  0  0  0  0  0  0
   37.7190   32.7870   40.2450 C   0  0  0  0  0  0  0  0  0  0  0  0
   38.5440   33.8570   40.4190 N   0  0  0  0  0  0  0  0  0  0  0  0
   39.7320   33.9190   39.8070 C   0  0  0  0  0  0  0  0  0  0  0  0
   40.2070   32.9740   38.9970 N   0  0  0  0  0  0  0  0  0  0  0  0
   39.8150   31.1090   38.1230 H   0  0  0  0  0  0  0  0  0  0  0  0
   36.7460   32.6480   40.6940 H   0  0  0  0  0  0  0  0  0  0  0  0
   40.2190   34.8640   40.0920 H   0  0  0  0  0  0  0  0  0  0  0  0
  1  4  1  0  0  0  0
  2  1  1  0  0  0  0
  3  1  1  0  0  0  0
  4  5  2  0  0  0  0
  4 12  1  0  0  0  0
  5  7  1  0  0  0  0
  6  5  1  0  0  0  0
  7  8  2  0  0  0  0
  8  9  1  0  0  0  0
 10  8  1  0  0  0  0
 10 11  1  0  0  0  0
 12 10  2  0  0  0  0
 13 15  1  0  0  0  0
 13  1  1  0  0  0  0
 14 19  2  0  0  0  0
 14 15  1  0  0  0  0
 15 16  2  0  0  0  0
 16 17  1  0  0  0  0
 16 21  1  0  0  0  0
 18 22  1  0  0  0  0
 18 17  2  0  0  0  0
 19 18  1  0  0  0  0
 20 14  1  0  0  0  0
M  END
>  <minimizedAffinity>
-3.98172379

$$$$

 OpenBabel03252503003D

 22 23  0  0  0  0  0  0  0  0999 V2000
   36.4860   28.2080   39.5250 C   0  0  0  0  0  0  0  0  0  0  0  0
   37.4280   28.5390   39.0130 H   0  0  0  0  0  0  0  0  0  0  0  0
   35.7730   28.0390   38.6670 H   0  0  0  0  0  0  0  0  0  0  0  0
   36.6750   26.9860   40.3150 C   0  0  0  0  0  0  0  0  0  0  0  0
   36.9710   27.0720   41.6800 C   0  0  0  0  0  0  0  0  0  0  0  0
   37.0720   28.0170   42.1970 H   0  0  0  0  0  0  0  0  0  0  0  0
   37.1500   25.9060   42.4230 C   0  0  0  0  0  3  0  0  0  0  0  0
   37.0320   24.6590   41.8110 C   0  0  0  0  0  0  0  0  0  0  0  0
   37.1690   23.7270   42.3800 H   0  0  0  0  0  0  0  0  0  0  0  0
   36.7390   24.5310   40.4610 C   0  0  0  0  0  0  0  0  0  0  0  0
   36.6430   23.5740   39.9640 H   0  0  0  0  0  0  0  0  0  0  0  0
   36.5750   25.7170   39.7800 C   0  0  0  0  0  3  0  0  0  0  0  0
   35.8340   29.5810   40.4770 S   0  0  0  0  0  0  0  0  0  0  0  0
   38.2610   30.5560   41.4120 C   0  0  0  0  0  0  0  0  0  0  0  0
   37.1220   30.8400   40.6660 C   0  0  0  0  0  0  0  0  0  0  0  0
   36.9500   32.0860   40.0540 C   0  0  0  0  0  0  0  0  0  0  0  0
   37.9570   32.9850   40.2360 N   0  0  0  0  0  0  0  0  0  0  0  0
   39.0370   32.6740   40.9610 C   0  0  0  0  0  0  0  0  0  0  0  0
   39.2270   31.4970   41.5550 N   0  0  0  0  0  0  0  0  0  0  0  0
   38.4090   29.5960   41.8930 H   0  0  0  0  0  0  0  0  0  0  0  0
   36.0440   32.2450   39.4880 H   0  0  0  0  0  0  0  0  0  0  0  0
   39.7100   33.5450   40.9700 H   0  0  0  0  0  0  0  0  0  0  0  0
  1  4  1  0  0  0  0
  1 13  1  0  0  0  0
  2  1  1  0  0  0  0
  3  1  1  0  0  0  0
  4  5  1  0  0  0  0
  5  6  1  0  0  0  0
  5  7  2  0  0  0  0
  8  9  1  0  0  0  0
  8  7  1  0  0  0  0
 10  8  2  0  0  0  0
 11 10  1  0  0  0  0
 12  4  2  0  0  0  0
 12 10  1  0  0  0  0
 13 15  1  0  0  0  0
 14 19  1  0  0  0  0
 14 20  1  0  0  0  0
 15 14  2  0  0  0  0
 16 17  2  0  0  0  0
 16 15  1  0  0  0  0
 17 18  1  0  0  0  0
 18 22  1  0  0  0  0
 18 19  2  0  0  0  0
 21 16  1  0  0  0  0
M  END
>  <minimizedAffinity>
-3.94984198

$$$$

 OpenBabel03252503003D

 22 23  0  0  0  0  0  0  0  0999 V2000
   36.7260   28.4330   40.5430 C   0  0  0  0  0  0  0  0  0  0  0  0
   36.1180   28.7270   39.6460 H   0  0  0  0  0  0  0  0  0  0  0  0
   36.1930   28.9470   41.3940 H   0  0  0  0  0  0  0  0  0  0  0  0
   36.7730   26.9790   40.7380 C   0  0  0  0  0  0  0  0  0  0  0  0
   36.5360   26.1190   39.6590 C   0  0  0  0  0  0  0  0  0  0  0  0
   36.3130   26.4790   38.6630 H   0  0  0  0  0  0  0  0  0  0  0  0
   36.5820   24.7390   39.8530 C   0  0  0  0  0  3  0  0  0  0  0  0
   36.8650   24.2170   41.1140 C   0  0  0  0  0  0  0  0  0  0  0  0
   36.9070   23.1320   41.2870 H   0  0  0  0  0  0  0  0  0  0  0  0
   37.1070   25.0360   42.2080 C   0  0  0  0  0  0  0  0  0  0  0  0
   37.3290   24.6530   43.1960 H   0  0  0  0  0  0  0  0  0  0  0  0
   37.0470   26.3890   41.9540 C   0  0  0  0  0  3  0  0  0  0  0  0
   38.3470   29.1910   40.4140 S   0  0  0  0  0  0  0  0  0  0  0  0
   37.2680   31.4830   39.2790 C   0  0  0  0  0  0  0  0  0  0  0  0
   38.1540   30.9810   40.2250 C   0  0  0  0  0  0  0  0  0  0  0  0
   38.9060   31.8350   41.0380 C   0  0  0  0  0  0  0  0  0  0  0  0
   38.7110   33.1700   40.8430 N   0  0  0  0  0  0  0  0  0  0  0  0
   37.8490   33.6150   39.9230 C   0  0  0  0  0  0  0  0  0  0  0  0
   37.1210   32.8240   39.1350 N   0  0  0  0  0  0  0  0  0  0  0  0
   36.6780   30.8350   38.6400 H   0  0  0  0  0  0  0  0  0  0  0  0
   39.5770   31.3830   41.7540 H   0  0  0  0  0  0  0  0  0  0  0  0
   37.8580   34.7150   39.9440 H   0  0  0  0  0  0  0  0  0  0  0  0
  1  4  1  0  0  0  0
  1  3  1  0  0  0  0
  2  1  1  0  0  0  0
  4 12  1  0  0  0  0
  5  7  1  0  0  0  0
  5  4  2  0  0  0  0
  6  5  1  0  0  0  0
  7  8  2  0  0  0  0
  8  9  1  0  0  0  0
  8 10  1  0  0  0  0
 10 11  1  0  0  0  0
 12 10  2  0  0  0  0
 13  1  1  0  0  0  0
 14 15  1  0  0  0  0
 15 13  1  0  0  0  0
 15 16  2  0  0  0  0
 16 21  1  0  0  0  0
 17 16  1  0  0  0  0
 18 22  1  0  0  0  0
 18 17  2  0  0  0  0
 19 14  2  0  0  0  0
 19 18  1  0  0  0  0
 20 14  1  0  0  0  0
M  END
>  <minimizedAffinity>
-3.86861682

$$$$

 OpenBabel03252503003D

 22 23  0  0  0  0  0  0  0  0999 V2000
   38.3230   26.4020   42.5940 C   0  0  0  0  0  0  0  0  0  0  0  0
   38.8980   26.1370   43.5210 H   0  0  0  0  0  0  0  0  0  0  0  0
   39.0280   27.0900   42.0430 H   0  0  0  0  0  0  0  0  0  0  0  0
   37.9820   25.2240   41.7880 C   0  0  0  0  0  0  0  0  0  0  0  0
   38.9710   24.2910   41.4560 C   0  0  0  0  0  0  0  0  0  0  0  0
   40.0020   24.3960   41.7700 H   0  0  0  0  0  0  0  0  0  0  0  0
   38.6390   23.1750   40.6890 C   0  0  0  0  0  3  0  0  0  0  0  0
   37.3280   22.9870   40.2560 C   0  0  0  0  0  0  0  0  0  0  0  0
   37.0460   22.1130   39.6510 H   0  0  0  0  0  0  0  0  0  0  0  0
   36.3180   23.8880   40.5640 C   0  0  0  0  0  0  0  0  0  0  0  0
   35.2930   23.7620   40.2390 H   0  0  0  0  0  0  0  0  0  0  0  0
   36.7080   24.9700   41.3230 C   0  0  0  0  0  3  0  0  0  0  0  0
   36.8990   27.3870   43.0620 S   0  0  0  0  0  0  0  0  0  0  0  0
   37.6230   29.8290   41.9560 C   0  0  0  0  0  0  0  0  0  0  0  0
   36.7240   28.7690   41.9050 C   0  0  0  0  0  0  0  0  0  0  0  0
   35.6810   28.7480   40.9730 C   0  0  0  0  0  0  0  0  0  0  0  0
   35.6090   29.8180   40.1330 N   0  0  0  0  0  0  0  0  0  0  0  0
   36.4920   30.8190   40.2130 C   0  0  0  0  0  0  0  0  0  0  0  0
   37.4940   30.8650   41.0910 N   0  0  0  0  0  0  0  0  0  0  0  0
   38.4350   29.8610   42.6730 H   0  0  0  0  0  0  0  0  0  0  0  0
   35.0170   27.8960   40.9840 H   0  0  0  0  0  0  0  0  0  0  0  0
   36.2410   31.5650   39.4450 H   0  0  0  0  0  0  0  0  0  0  0  0
  1 13  1  0  0  0  0
  1  2  1  0  0  0  0
  3  1  1  0  0  0  0
  4  1  1  0  0  0  0
  5  6  1  0  0  0  0
  5  4  1  0  0  0  0
  7  5  2  0  0  0  0
  8 10  2  0  0  0  0
  8  7  1  0  0  0  0
  9  8  1  0  0  0  0
 10 12  1  0  0  0  0
 11 10  1  0  0  0  0
 12  4  2  0  0  0  0
 14 20  1  0  0  0  0
 15 14  1  0  0  0  0
 15 13  1  0  0  0  0
 16 21  1  0  0  0  0
 16 15  2  0  0  0  0
 17 18  2  0  0  0  0
 17 16  1  0  0  0  0
 18 19  1  0  0  0  0
 19 14  2  0  0  0  0
 22 18  1  0  0  0  0
M  END
>  <minimizedAffinity>
-3.86697221

$$$$

 OpenBabel03252503003D

 22 23  0  0  0  0  0  0  0  0999 V2000
   38.2610   28.5240   43.2840 C   0  0  0  0  0  0  0  0  0  0  0  0
   37.7930   28.7430   44.2810 H   0  0  0  0  0  0  0  0  0  0  0  0
   39.3120   28.9170   43.4020 H   0  0  0  0  0  0  0  0  0  0  0  0
   38.2560   27.0920   42.9640 C   0  0  0  0  0  0  0  0  0  0  0  0
   39.4010   26.3190   43.1910 C   0  0  0  0  0  0  0  0  0  0  0  0
   40.3130   26.7320   43.5980 H   0  0  0  0  0  0  0  0  0  0  0  0
   39.3880   24.9590   42.8830 C   0  0  0  0  0  3  0  0  0  0  0  0
   38.2410   24.3690   42.3560 C   0  0  0  0  0  0  0  0  0  0  0  0
   38.2100   23.2980   42.1070 H   0  0  0  0  0  0  0  0  0  0  0  0
   37.0850   25.1010   42.1170 C   0  0  0  0  0  0  0  0  0  0  0  0
   36.1830   24.6650   41.7080 H   0  0  0  0  0  0  0  0  0  0  0  0
   37.1590   26.4380   42.4400 C   0  0  0  0  0  3  0  0  0  0  0  0
   37.4640   29.5380   42.0380 S   0  0  0  0  0  0  0  0  0  0  0  0
   39.0750   31.6730   41.2910 C   0  0  0  0  0  0  0  0  0  0  0  0
   38.7320   30.3510   41.0330 C   0  0  0  0  0  0  0  0  0  0  0  0
   39.3490   29.6310   40.0050 C   0  0  0  0  0  0  0  0  0  0  0  0
   40.2930   30.3020   39.2880 N   0  0  0  0  0  0  0  0  0  0  0  0
   40.5960   31.5750   39.5670 C   0  0  0  0  0  0  0  0  0  0  0  0
   40.0240   32.2850   40.5390 N   0  0  0  0  0  0  0  0  0  0  0  0
   38.6050   32.2460   42.0830 H   0  0  0  0  0  0  0  0  0  0  0  0
   39.0390   28.6070   39.8550 H   0  0  0  0  0  0  0  0  0  0  0  0
   41.3770   31.9070   38.8670 H   0  0  0  0  0  0  0  0  0  0  0  0
  1  3  1  0  0  0  0
  1  2  1  0  0  0  0
  4  5  1  0  0  0  0
  4  1  1  0  0  0  0
  5  6  1  0  0  0  0
  7  5  2  0  0  0  0
  8  7  1  0  0  0  0
  9  8  1  0  0  0  0
 10  8  2  0  0  0  0
 10 12  1  0  0  0  0
 11 10  1  0  0  0  0
 12  4  2  0  0  0  0
 13  1  1  0  0  0  0
 14 20  1  0  0  0  0
 15 14  1  0  0  0  0
 15 13  1  0  0  0  0
 16 15  2  0  0  0  0
 17 18  2  0  0  0  0
 17 16  1  0  0  0  0
 18 19  1  0  0  0  0
 19 14  2  0  0  0  0
 21 16  1  0  0  0  0
 22 18  1  0  0  0  0
M  END
>  <minimizedAffinity>
-3.80948424

$$$$
