
 OpenBabel03252507413D

 25 26  0  0  0  0  0  0  0  0999 V2000
   45.6050   32.9250   42.2230 C   0  0  0  0  0  0  0  0  0  0  0  0
   46.1870   32.3980   41.4670 H   0  0  0  0  0  0  0  0  0  0  0  0
   45.2330   32.1280   42.9230 H   0  0  0  0  0  0  0  0  0  0  0  0
   44.4090   33.5830   41.6780 C   0  0  0  0  0  0  0  0  0  0  0  0
   43.2450   32.7950   41.6590 C   0  0  0  0  0  0  0  0  0  0  0  0
   42.0790   33.3660   41.1530 C   0  0  0  0  0  0  0  0  0  0  0  0
   42.0920   34.6520   40.6960 N   0  0  0  0  0  0  0  0  0  0  0  0
   43.2440   35.3670   40.7380 C   0  0  0  0  0  0  0  0  0  0  0  0
   44.3880   34.8530   41.2180 N   0  0  0  0  0  0  0  0  0  0  0  0
   41.1920   32.7340   41.1500 H   0  0  0  0  0  0  0  0  0  0  0  0
   43.1400   36.3710   40.3510 H   0  0  0  0  0  0  0  0  0  0  0  0
   43.2580   31.1180   42.2630 S   0  0  0  0  0  0  0  0  0  0  0  0
   43.5420   31.0630   43.6340 H   0  0  0  0  0  0  0  0  0  0  0  0
   46.4470   33.8410   43.0860 C   0  0  0  0  0  0  0  0  0  0  0  0
   46.2140   33.6160   44.1480 H   0  0  0  0  0  0  0  0  0  0  0  0
   46.1610   34.8740   42.8380 H   0  0  0  0  0  0  0  0  0  0  0  0
   47.8770   33.6640   42.8100 C   0  0  0  0  0  0  0  0  0  0  0  0
   48.6900   34.7860   42.7020 C   0  0  0  0  0  0  0  0  0  0  0  0
   48.2320   35.7650   42.8280 H   0  0  0  0  0  0  0  0  0  0  0  0
   50.0540   34.6870   42.4410 C   0  0  0  0  0  3  0  0  0  0  0  0
   50.5960   33.4170   42.2880 C   0  0  0  0  0  0  0  0  0  0  0  0
   51.6530   33.4220   42.0900 H   0  0  0  0  0  0  0  0  0  0  0  0
   49.8400   32.2660   42.3850 C   0  0  0  0  0  0  0  0  0  0  0  0
   50.3010   31.3030   42.2600 H   0  0  0  0  0  0  0  0  0  0  0  0
   48.5070   32.4550   42.6440 C   0  0  0  0  0  3  0  0  0  0  0  0
  1  3  1  0  0  0  0
  1 14  1  0  0  0  0
  2  1  1  0  0  0  0
  4  1  1  0  0  0  0
  5  4  1  0  0  0  0
  5 12  1  0  0  0  0
  6  5  2  0  0  0  0
  7  8  2  0  0  0  0
  7  6  1  0  0  0  0
  8  9  1  0  0  0  0
  9  4  2  0  0  0  0
 10  6  1  0  0  0  0
 11  8  1  0  0  0  0
 12 13  1  0  0  0  0
 14 15  1  0  0  0  0
 16 14  1  0  0  0  0
 17 14  1  0  0  0  0
 18 17  1  0  0  0  0
 18 19  1  0  0  0  0
 20 18  2  0  0  0  0
 21 23  2  0  0  0  0
 21 20  1  0  0  0  0
 22 21  1  0  0  0  0
 23 25  1  0  0  0  0
 24 23  1  0  0  0  0
 25 17  2  0  0  0  0
M  END
>  <minimizedAffinity>
-3.76273727

>  <minimizedRMSD>
5.3563323

$$$$
