
 OpenBabel03252503003D

 22 23  0  0  0  0  0  0  0  0999 V2000
   44.2920   34.8250   41.2770 C   0  0  0  0  0  0  0  0  0  0  0  0
   44.4350   33.7440   41.5440 H   0  0  0  0  0  0  0  0  0  0  0  0
   45.0720   34.9970   40.4790 H   0  0  0  0  0  0  0  0  0  0  0  0
   42.9420   35.1070   40.7780 C   0  0  0  0  0  0  0  0  0  0  0  0
   42.6730   35.0330   39.4060 C   0  0  0  0  0  0  0  0  0  0  0  0
   43.4280   34.7730   38.6760 H   0  0  0  0  0  0  0  0  0  0  0  0
   41.3860   35.3010   38.9390 C   0  0  0  0  0  3  0  0  0  0  0  0
   40.3730   35.6410   39.8330 C   0  0  0  0  0  0  0  0  0  0  0  0
   39.3520   35.8560   39.4840 H   0  0  0  0  0  0  0  0  0  0  0  0
   40.5980   35.7250   41.1990 C   0  0  0  0  0  0  0  0  0  0  0  0
   39.8270   35.9870   41.9110 H   0  0  0  0  0  0  0  0  0  0  0  0
   41.8880   35.4480   41.6000 C   0  0  0  0  0  3  0  0  0  0  0  0
   44.7600   35.8330   42.6850 S   0  0  0  0  0  0  0  0  0  0  0  0
   44.8570   34.8060   45.2630 C   0  0  0  0  0  0  0  0  0  0  0  0
   45.4160   34.7640   43.9910 C   0  0  0  0  0  0  0  0  0  0  0  0
   46.4830   33.9080   43.6970 C   0  0  0  0  0  0  0  0  0  0  0  0
   46.9270   33.1330   44.7250 N   0  0  0  0  0  0  0  0  0  0  0  0
   46.3620   33.2010   45.9360 C   0  0  0  0  0  0  0  0  0  0  0  0
   45.3470   34.0070   46.2430 N   0  0  0  0  0  0  0  0  0  0  0  0
   44.0300   35.4640   45.5070 H   0  0  0  0  0  0  0  0  0  0  0  0
   46.8730   33.9230   42.6900 H   0  0  0  0  0  0  0  0  0  0  0  0
   46.8790   32.4920   46.5990 H   0  0  0  0  0  0  0  0  0  0  0  0
  1  2  1  0  0  0  0
  1 13  1  0  0  0  0
  3  1  1  0  0  0  0
  4  1  1  0  0  0  0
  4 12  1  0  0  0  0
  5  4  2  0  0  0  0
  6  5  1  0  0  0  0
  7  5  1  0  0  0  0
  7  8  2  0  0  0  0
  8 10  1  0  0  0  0
  9  8  1  0  0  0  0
 10 12  2  0  0  0  0
 10 11  1  0  0  0  0
 13 15  1  0  0  0  0
 14 20  1  0  0  0  0
 14 19  1  0  0  0  0
 15 14  2  0  0  0  0
 16 15  1  0  0  0  0
 16 17  2  0  0  0  0
 17 18  1  0  0  0  0
 18 19  2  0  0  0  0
 18 22  1  0  0  0  0
 21 16  1  0  0  0  0
M  END
>  <minimizedAffinity>
-4.44113827

>  <minimizedRMSD>
2.32413483

$$$$
