
 OpenBabel03242515113D

 36 38  0  0  0  0  0  0  0  0999 V2000
   36.6930   30.6020   39.2650 C   0  0  0  0  0  0  0  0  0  0  0  0
   36.4670   30.4040   37.9310 C   0  0  0  0  0  0  0  0  0  0  0  0
   35.7130   29.3790   37.4040 C   0  0  0  0  0  0  0  0  0  0  0  0
   35.1420   28.4840   38.2680 C   0  0  0  0  0  0  0  0  0  0  0  0
   35.3410   28.6410   39.6000 C   0  0  0  0  0  0  0  0  0  0  0  0
   36.1060   29.6830   40.1110 C   0  0  0  0  0  0  0  0  0  0  0  0
   36.8990   31.0910   37.1990 H   0  0  0  0  0  0  0  0  0  0  0  0
   35.5600   29.2610   36.3400 H   0  0  0  0  0  0  0  0  0  0  0  0
   34.5500   27.6790   37.8400 H   0  0  0  0  0  0  0  0  0  0  0  0
   34.8650   27.9000   40.2450 H   0  0  0  0  0  0  0  0  0  0  0  0
   39.3700   32.3810   40.9990 C   0  0  0  0  0  0  0  0  0  0  0  0
   39.0720   33.7260   40.7570 C   0  0  0  0  0  0  0  0  0  0  0  0
   37.9490   34.0140   39.9970 C   0  0  0  0  0  0  0  0  0  0  0  0
   37.1560   33.0040   39.4980 N   0  0  0  0  0  0  0  0  0  0  0  0
   37.4950   31.6980   39.7660 C   0  0  0  0  0  0  0  0  0  0  0  0
   38.5880   31.4280   40.5060 N   0  0  0  0  0  0  0  0  0  0  0  0
   40.2180   32.0930   41.5750 H   0  0  0  0  0  0  0  0  0  0  0  0
   39.7170   34.4930   41.1630 H   0  0  0  0  0  0  0  0  0  0  0  0
   37.6960   35.0310   39.7950 H   0  0  0  0  0  0  0  0  0  0  0  0
   36.2160   29.7080   41.5130 N   0  0  0  0  0  0  0  0  0  0  0  0
   35.5430   30.3890   41.9340 H   0  0  0  0  0  0  0  0  0  0  0  0
   37.2170   28.8580   42.6140 S   0  0  0  0  0  0  0  0  0  0  0  0
   38.1660   29.8690   43.2640 O   0  0  0  0  0  0  0  0  0  0  0  0
   39.1200   29.6520   43.5060 H   0  0  0  0  0  0  0  0  0  0  0  0
   36.4880   28.1390   43.6790 O   0  0  0  0  0  0  0  0  0  0  0  0
   35.5020   27.9430   43.6820 H   0  0  0  0  0  0  0  0  0  0  0  0
   38.2120   27.8660   41.6860 O   0  0  0  0  0  0  0  0  0  0  0  0
   38.6560   26.6290   42.0860 C   0  0  0  0  0  0  0  0  0  0  0  0
   38.2350   25.4170   41.5880 C   0  0  0  0  0  0  0  0  0  0  0  0
   37.4810   25.4540   40.8080 H   0  0  0  0  0  0  0  0  0  0  0  0
   38.7500   24.2160   42.0620 C   0  0  0  0  0  3  0  0  0  0  0  0
   39.7030   24.2760   43.0520 C   0  0  0  0  0  0  0  0  0  0  0  0
   40.1120   23.3530   43.4320 H   0  0  0  0  0  0  0  0  0  0  0  0
   40.1410   25.4730   43.5670 C   0  0  0  0  0  0  0  0  0  0  0  0
   40.8890   25.4880   44.3430 H   0  0  0  0  0  0  0  0  0  0  0  0
   39.6260   26.6750   43.0930 C   0  0  0  0  0  3  0  0  0  0  0  0
  1 15  1  0  0  0  0
  1  6  1  0  0  0  0
  2  1  2  0  0  0  0
  3  2  1  0  0  0  0
  3  4  2  0  0  0  0
  4  5  1  0  0  0  0
  5  6  2  0  0  0  0
  5 10  1  0  0  0  0
  6 20  1  0  0  0  0
  7  2  1  0  0  0  0
  8  3  1  0  0  0  0
  9  4  1  0  0  0  0
 11 17  1  0  0  0  0
 12 11  1  0  0  0  0
 12 18  1  0  0  0  0
 13 12  2  0  0  0  0
 14 15  2  0  0  0  0
 14 13  1  0  0  0  0
 15 16  1  0  0  0  0
 16 11  2  0  0  0  0
 19 13  1  0  0  0  0
 20 21  1  0  0  0  0
 20 22  1  0  0  0  0
 22 23  1  0  0  0  0
 22 25  1  0  0  0  0
 23 24  1  0  0  0  0
 25 26  1  0  0  0  0
 27 28  1  0  0  0  0
 27 22  1  0  0  0  0
 28 36  1  0  0  0  0
 29 31  1  0  0  0  0
 29 28  2  0  0  0  0
 30 29  1  0  0  0  0
 31 32  2  0  0  0  0
 32 33  1  0  0  0  0
 32 34  1  0  0  0  0
 34 35  1  0  0  0  0
 36 34  2  0  0  0  0
M  END
>  <minimizedAffinity>
-6.2282238

$$$$

 OpenBabel03242515113D

 36 38  0  0  0  0  0  0  0  0999 V2000
   36.6090   30.3760   38.9310 C   0  0  0  0  0  0  0  0  0  0  0  0
   36.1780   30.0990   37.6620 C   0  0  0  0  0  0  0  0  0  0  0  0
   35.1110   29.2840   37.3550 C   0  0  0  0  0  0  0  0  0  0  0  0
   34.4220   28.7020   38.3840 C   0  0  0  0  0  0  0  0  0  0  0  0
   34.8150   28.9480   39.6580 C   0  0  0  0  0  0  0  0  0  0  0  0
   35.8950   29.7750   39.9470 C   0  0  0  0  0  0  0  0  0  0  0  0
   36.6920   30.5400   36.8050 H   0  0  0  0  0  0  0  0  0  0  0  0
   34.8040   29.0930   36.3360 H   0  0  0  0  0  0  0  0  0  0  0  0
   33.5820   28.0600   38.1280 H   0  0  0  0  0  0  0  0  0  0  0  0
   34.2330   28.4590   40.4410 H   0  0  0  0  0  0  0  0  0  0  0  0
   38.5620   33.1400   40.3040 C   0  0  0  0  0  0  0  0  0  0  0  0
   39.8340   32.9360   39.7590 C   0  0  0  0  0  0  0  0  0  0  0  0
   40.0130   31.8470   38.9200 C   0  0  0  0  0  0  0  0  0  0  0  0
   38.9690   30.9960   38.6360 N   0  0  0  0  0  0  0  0  0  0  0  0
   37.7380   31.2420   39.1990 C   0  0  0  0  0  0  0  0  0  0  0  0
   37.5730   32.3030   40.0120 N   0  0  0  0  0  0  0  0  0  0  0  0
   38.3590   33.9570   40.9540 H   0  0  0  0  0  0  0  0  0  0  0  0
   40.6320   33.6240   40.0040 H   0  0  0  0  0  0  0  0  0  0  0  0
   40.9730   31.6660   38.4890 H   0  0  0  0  0  0  0  0  0  0  0  0
   36.1760   29.9300   41.3170 N   0  0  0  0  0  0  0  0  0  0  0  0
   35.4780   30.5580   41.7780 H   0  0  0  0  0  0  0  0  0  0  0  0
   37.4090   29.3000   42.3270 S   0  0  0  0  0  0  0  0  0  0  0  0
   38.4990   30.3680   42.4610 O   0  0  0  0  0  0  0  0  0  0  0  0
   39.4800   30.1480   42.5170 H   0  0  0  0  0  0  0  0  0  0  0  0
   36.9570   28.9120   43.6790 O   0  0  0  0  0  0  0  0  0  0  0  0
   36.0000   28.7930   43.9630 H   0  0  0  0  0  0  0  0  0  0  0  0
   38.1350   28.0470   41.4690 O   0  0  0  0  0  0  0  0  0  0  0  0
   37.6110   26.7810   41.3630 C   0  0  0  0  0  0  0  0  0  0  0  0
   37.4220   25.8930   42.3970 C   0  0  0  0  0  0  0  0  0  0  0  0
   37.7190   26.2350   43.3840 H   0  0  0  0  0  0  0  0  0  0  0  0
   36.8810   24.6300   42.1850 C   0  0  0  0  0  3  0  0  0  0  0  0
   36.5360   24.2920   40.8960 C   0  0  0  0  0  0  0  0  0  0  0  0
   36.1160   23.3160   40.7140 H   0  0  0  0  0  0  0  0  0  0  0  0
   36.7150   25.1600   39.8460 C   0  0  0  0  0  0  0  0  0  0  0  0
   36.4340   24.8650   38.8470 H   0  0  0  0  0  0  0  0  0  0  0  0
   37.2560   26.4230   40.0580 C   0  0  0  0  0  3  0  0  0  0  0  0
  1 15  1  0  0  0  0
  1  6  1  0  0  0  0
  2  1  2  0  0  0  0
  3  2  1  0  0  0  0
  3  4  2  0  0  0  0
  4  5  1  0  0  0  0
  5  6  2  0  0  0  0
  5 10  1  0  0  0  0
  6 20  1  0  0  0  0
  7  2  1  0  0  0  0
  8  3  1  0  0  0  0
  9  4  1  0  0  0  0
 11 17  1  0  0  0  0
 12 18  1  0  0  0  0
 12 11  2  0  0  0  0
 13 12  1  0  0  0  0
 14 13  2  0  0  0  0
 14 15  1  0  0  0  0
 15 16  2  0  0  0  0
 16 11  1  0  0  0  0
 19 13  1  0  0  0  0
 20 21  1  0  0  0  0
 20 22  1  0  0  0  0
 22 23  1  0  0  0  0
 22 25  1  0  0  0  0
 23 24  1  0  0  0  0
 25 26  1  0  0  0  0
 27 22  1  0  0  0  0
 28 27  1  0  0  0  0
 28 29  1  0  0  0  0
 29 30  1  0  0  0  0
 31 29  2  0  0  0  0
 32 31  1  0  0  0  0
 33 32  1  0  0  0  0
 34 36  1  0  0  0  0
 34 32  2  0  0  0  0
 35 34  1  0  0  0  0
 36 28  2  0  0  0  0
M  END
>  <minimizedAffinity>
-6.04317236

$$$$

 OpenBabel03242515113D

 36 38  0  0  0  0  0  0  0  0999 V2000
   36.3940   29.9370   38.9970 C   0  0  0  0  0  0  0  0  0  0  0  0
   36.8660   30.8990   38.1480 C   0  0  0  0  0  0  0  0  0  0  0  0
   37.3230   32.1380   38.5390 C   0  0  0  0  0  0  0  0  0  0  0  0
   37.3090   32.4430   39.8730 C   0  0  0  0  0  0  0  0  0  0  0  0
   36.8480   31.5180   40.7520 C   0  0  0  0  0  0  0  0  0  0  0  0
   36.3920   30.2730   40.3350 C   0  0  0  0  0  0  0  0  0  0  0  0
   36.9000   30.7060   37.0730 H   0  0  0  0  0  0  0  0  0  0  0  0
   37.6890   32.8690   37.8320 H   0  0  0  0  0  0  0  0  0  0  0  0
   37.6720   33.4240   40.1690 H   0  0  0  0  0  0  0  0  0  0  0  0
   36.8580   31.8120   41.8030 H   0  0  0  0  0  0  0  0  0  0  0  0
   36.2410   26.3240   38.4820 C   0  0  0  0  0  0  0  0  0  0  0  0
   35.1000   26.1600   37.6900 C   0  0  0  0  0  0  0  0  0  0  0  0
   34.3880   27.2960   37.3370 C   0  0  0  0  0  0  0  0  0  0  0  0
   34.7950   28.5430   37.7550 N   0  0  0  0  0  0  0  0  0  0  0  0
   35.9250   28.6480   38.5330 C   0  0  0  0  0  0  0  0  0  0  0  0
   36.6110   27.5380   38.8710 N   0  0  0  0  0  0  0  0  0  0  0  0
   36.8310   25.4930   38.7870 H   0  0  0  0  0  0  0  0  0  0  0  0
   34.8090   25.1660   37.3790 H   0  0  0  0  0  0  0  0  0  0  0  0
   33.5120   27.2030   36.7320 H   0  0  0  0  0  0  0  0  0  0  0  0
   35.9460   29.4270   41.3680 N   0  0  0  0  0  0  0  0  0  0  0  0
   34.9030   29.3580   41.3770 H   0  0  0  0  0  0  0  0  0  0  0  0
   36.7730   28.5250   42.5670 S   0  0  0  0  0  0  0  0  0  0  0  0
   37.3970   29.5150   43.5540 O   0  0  0  0  0  0  0  0  0  0  0  0
   38.2900   29.3640   43.9960 H   0  0  0  0  0  0  0  0  0  0  0  0
   35.9250   27.5770   43.3190 O   0  0  0  0  0  0  0  0  0  0  0  0
   35.0020   27.2820   43.0520 H   0  0  0  0  0  0  0  0  0  0  0  0
   38.0830   27.7980   41.7980 O   0  0  0  0  0  0  0  0  0  0  0  0
   38.7240   26.6750   42.2640 C   0  0  0  0  0  0  0  0  0  0  0  0
   39.6500   26.6340   43.2810 C   0  0  0  0  0  0  0  0  0  0  0  0
   39.8890   27.5830   43.7510 H   0  0  0  0  0  0  0  0  0  0  0  0
   40.2430   25.4420   43.6800 C   0  0  0  0  0  3  0  0  0  0  0  0
   39.8720   24.2920   43.0200 C   0  0  0  0  0  0  0  0  0  0  0  0
   40.3230   23.3590   43.3160 H   0  0  0  0  0  0  0  0  0  0  0  0
   38.9500   24.3060   42.0000 C   0  0  0  0  0  0  0  0  0  0  0  0
   38.6800   23.3890   41.5030 H   0  0  0  0  0  0  0  0  0  0  0  0
   38.3570   25.4990   41.6020 C   0  0  0  0  0  3  0  0  0  0  0  0
  1  6  1  0  0  0  0
  2  3  1  0  0  0  0
  2  1  2  0  0  0  0
  3  4  2  0  0  0  0
  4  9  1  0  0  0  0
  4  5  1  0  0  0  0
  5 10  1  0  0  0  0
  6  5  2  0  0  0  0
  6 20  1  0  0  0  0
  7  2  1  0  0  0  0
  8  3  1  0  0  0  0
 11 17  1  0  0  0  0
 11 16  1  0  0  0  0
 12 11  2  0  0  0  0
 13 12  1  0  0  0  0
 13 14  2  0  0  0  0
 14 15  1  0  0  0  0
 15 16  2  0  0  0  0
 15  1  1  0  0  0  0
 18 12  1  0  0  0  0
 19 13  1  0  0  0  0
 20 21  1  0  0  0  0
 20 22  1  0  0  0  0
 22 25  1  0  0  0  0
 22 23  1  0  0  0  0
 23 24  1  0  0  0  0
 26 25  1  0  0  0  0
 27 28  1  0  0  0  0
 27 22  1  0  0  0  0
 28 29  1  0  0  0  0
 29 31  2  0  0  0  0
 29 30  1  0  0  0  0
 32 33  1  0  0  0  0
 32 31  1  0  0  0  0
 34 32  2  0  0  0  0
 35 34  1  0  0  0  0
 36 34  1  0  0  0  0
 36 28  2  0  0  0  0
M  END
>  <minimizedAffinity>
-5.96213245

$$$$

 OpenBabel03242515113D

 36 38  0  0  0  0  0  0  0  0999 V2000
   37.3480   31.6400   39.5230 C   0  0  0  0  0  0  0  0  0  0  0  0
   37.2510   32.9680   39.2100 C   0  0  0  0  0  0  0  0  0  0  0  0
   37.9660   33.9740   39.8220 C   0  0  0  0  0  0  0  0  0  0  0  0
   38.8420   33.6350   40.8170 C   0  0  0  0  0  0  0  0  0  0  0  0
   38.9690   32.3290   41.1600 C   0  0  0  0  0  0  0  0  0  0  0  0
   38.2380   31.3290   40.5310 C   0  0  0  0  0  0  0  0  0  0  0  0
   36.5680   33.2920   38.4220 H   0  0  0  0  0  0  0  0  0  0  0  0
   37.8580   35.0130   39.5410 H   0  0  0  0  0  0  0  0  0  0  0  0
   39.4000   34.4380   41.2920 H   0  0  0  0  0  0  0  0  0  0  0  0
   39.6800   32.1130   41.9610 H   0  0  0  0  0  0  0  0  0  0  0  0
   36.1680   29.4210   36.8730 C   0  0  0  0  0  0  0  0  0  0  0  0
   35.1430   28.6980   37.4920 C   0  0  0  0  0  0  0  0  0  0  0  0
   34.8620   28.9780   38.8200 C   0  0  0  0  0  0  0  0  0  0  0  0
   35.5740   29.9390   39.5040 N   0  0  0  0  0  0  0  0  0  0  0  0
   36.5720   30.6210   38.8480 C   0  0  0  0  0  0  0  0  0  0  0  0
   36.8370   30.3420   37.5570 N   0  0  0  0  0  0  0  0  0  0  0  0
   36.4320   29.2530   35.8560 H   0  0  0  0  0  0  0  0  0  0  0  0
   34.6050   27.9510   36.9250 H   0  0  0  0  0  0  0  0  0  0  0  0
   34.0850   28.4430   39.3200 H   0  0  0  0  0  0  0  0  0  0  0  0
   38.4840   30.0260   41.0010 N   0  0  0  0  0  0  0  0  0  0  0  0
   39.2850   29.5850   40.4930 H   0  0  0  0  0  0  0  0  0  0  0  0
   37.7370   29.0670   42.2090 S   0  0  0  0  0  0  0  0  0  0  0  0
   38.2570   29.5360   43.5710 O   0  0  0  0  0  0  0  0  0  0  0  0
   38.4260   28.9090   44.3410 H   0  0  0  0  0  0  0  0  0  0  0  0
   36.2610   29.1290   42.2180 O   0  0  0  0  0  0  0  0  0  0  0  0
   35.6870   29.4980   41.4790 H   0  0  0  0  0  0  0  0  0  0  0  0
   38.3480   27.5090   42.0260 O   0  0  0  0  0  0  0  0  0  0  0  0
   37.6950   26.4970   41.3630 C   0  0  0  0  0  0  0  0  0  0  0  0
   37.3080   26.5110   40.0430 C   0  0  0  0  0  0  0  0  0  0  0  0
   37.5460   27.4100   39.4820 H   0  0  0  0  0  0  0  0  0  0  0  0
   36.6500   25.4320   39.4640 C   0  0  0  0  0  3  0  0  0  0  0  0
   36.3950   24.3390   40.2600 C   0  0  0  0  0  0  0  0  0  0  0  0
   35.8840   23.4930   39.8280 H   0  0  0  0  0  0  0  0  0  0  0  0
   36.7700   24.3000   41.5820 C   0  0  0  0  0  0  0  0  0  0  0  0
   36.5550   23.4280   42.1800 H   0  0  0  0  0  0  0  0  0  0  0  0
   37.4280   25.3790   42.1610 C   0  0  0  0  0  3  0  0  0  0  0  0
  1  6  1  0  0  0  0
  2  1  2  0  0  0  0
  2  3  1  0  0  0  0
  3  4  2  0  0  0  0
  4  5  1  0  0  0  0
  4  9  1  0  0  0  0
  5 10  1  0  0  0  0
  6 20  1  0  0  0  0
  6  5  2  0  0  0  0
  7  2  1  0  0  0  0
  8  3  1  0  0  0  0
 11 12  2  0  0  0  0
 11 16  1  0  0  0  0
 12 13  1  0  0  0  0
 13 19  1  0  0  0  0
 13 14  2  0  0  0  0
 15 14  1  0  0  0  0
 15  1  1  0  0  0  0
 16 15  2  0  0  0  0
 17 11  1  0  0  0  0
 18 12  1  0  0  0  0
 20 22  1  0  0  0  0
 21 20  1  0  0  0  0
 22 25  1  0  0  0  0
 22 23  1  0  0  0  0
 23 24  1  0  0  0  0
 26 25  1  0  0  0  0
 27 22  1  0  0  0  0
 28 27  1  0  0  0  0
 28 36  1  0  0  0  0
 29 28  2  0  0  0  0
 30 29  1  0  0  0  0
 31 29  1  0  0  0  0
 31 32  2  0  0  0  0
 32 34  1  0  0  0  0
 33 32  1  0  0  0  0
 34 36  2  0  0  0  0
 34 35  1  0  0  0  0
M  END
>  <minimizedAffinity>
-5.88372803

$$$$

 OpenBabel03242515113D

 36 38  0  0  0  0  0  0  0  0999 V2000
   39.4380   29.3310   42.1100 C   0  0  0  0  0  0  0  0  0  0  0  0
   40.5130   28.5530   42.4440 C   0  0  0  0  0  0  0  0  0  0  0  0
   40.4480   27.4100   43.2110 C   0  0  0  0  0  0  0  0  0  0  0  0
   39.2260   27.0120   43.6790 C   0  0  0  0  0  0  0  0  0  0  0  0
   38.1330   27.7540   43.3730 C   0  0  0  0  0  0  0  0  0  0  0  0
   38.2200   28.9040   42.5970 C   0  0  0  0  0  0  0  0  0  0  0  0
   41.5110   28.8260   42.0940 H   0  0  0  0  0  0  0  0  0  0  0  0
   41.3250   26.8240   43.4500 H   0  0  0  0  0  0  0  0  0  0  0  0
   39.1880   26.1080   44.2830 H   0  0  0  0  0  0  0  0  0  0  0  0
   37.1830   27.3930   43.7720 H   0  0  0  0  0  0  0  0  0  0  0  0
   40.2630   31.4830   39.2770 C   0  0  0  0  0  0  0  0  0  0  0  0
   39.8330   32.7460   39.6970 C   0  0  0  0  0  0  0  0  0  0  0  0
   39.2610   32.8510   40.9550 C   0  0  0  0  0  0  0  0  0  0  0  0
   39.1220   31.7430   41.7620 N   0  0  0  0  0  0  0  0  0  0  0  0
   39.5620   30.5240   41.3000 C   0  0  0  0  0  0  0  0  0  0  0  0
   40.1170   30.4330   40.0760 N   0  0  0  0  0  0  0  0  0  0  0  0
   40.7090   31.3360   38.3230 H   0  0  0  0  0  0  0  0  0  0  0  0
   39.9570   33.5940   39.0380 H   0  0  0  0  0  0  0  0  0  0  0  0
   38.9230   33.8020   41.3040 H   0  0  0  0  0  0  0  0  0  0  0  0
   36.9970   29.5620   42.3690 N   0  0  0  0  0  0  0  0  0  0  0  0
   36.5510   29.8550   43.2680 H   0  0  0  0  0  0  0  0  0  0  0  0
   36.1390   29.9530   40.9380 S   0  0  0  0  0  0  0  0  0  0  0  0
   34.7470   29.3220   41.0370 O   0  0  0  0  0  0  0  0  0  0  0  0
   34.2590   28.9390   40.2430 H   0  0  0  0  0  0  0  0  0  0  0  0
   35.9860   31.4010   40.6890 O   0  0  0  0  0  0  0  0  0  0  0  0
   36.5020   32.1300   41.1500 H   0  0  0  0  0  0  0  0  0  0  0  0
   36.9000   29.1260   39.6850 O   0  0  0  0  0  0  0  0  0  0  0  0
   36.6390   29.3350   38.3520 C   0  0  0  0  0  0  0  0  0  0  0  0
   37.2630   30.2520   37.5390 C   0  0  0  0  0  0  0  0  0  0  0  0
   38.0320   30.8610   38.0030 H   0  0  0  0  0  0  0  0  0  0  0  0
   36.9250   30.3870   36.1970 C   0  0  0  0  0  3  0  0  0  0  0  0
   35.9370   29.5660   35.7020 C   0  0  0  0  0  0  0  0  0  0  0  0
   35.6610   29.6580   34.6640 H   0  0  0  0  0  0  0  0  0  0  0  0
   35.2970   28.6430   36.4940 C   0  0  0  0  0  0  0  0  0  0  0  0
   34.5260   28.0140   36.0770 H   0  0  0  0  0  0  0  0  0  0  0  0
   35.6350   28.5080   37.8360 C   0  0  0  0  0  3  0  0  0  0  0  0
  1  2  2  0  0  0  0
  1  6  1  0  0  0  0
  2  3  1  0  0  0  0
  3  8  1  0  0  0  0
  3  4  2  0  0  0  0
  4  9  1  0  0  0  0
  5  4  1  0  0  0  0
  5 10  1  0  0  0  0
  6  5  2  0  0  0  0
  7  2  1  0  0  0  0
 11 12  2  0  0  0  0
 11 16  1  0  0  0  0
 12 13  1  0  0  0  0
 13 19  1  0  0  0  0
 13 14  2  0  0  0  0
 15 14  1  0  0  0  0
 15  1  1  0  0  0  0
 16 15  2  0  0  0  0
 17 11  1  0  0  0  0
 18 12  1  0  0  0  0
 20  6  1  0  0  0  0
 20 21  1  0  0  0  0
 22 23  1  0  0  0  0
 22 20  1  0  0  0  0
 24 23  1  0  0  0  0
 25 22  1  0  0  0  0
 25 26  1  0  0  0  0
 27 22  1  0  0  0  0
 28 27  1  0  0  0  0
 29 30  1  0  0  0  0
 29 28  2  0  0  0  0
 31 29  1  0  0  0  0
 32 31  2  0  0  0  0
 32 34  1  0  0  0  0
 33 32  1  0  0  0  0
 34 36  2  0  0  0  0
 35 34  1  0  0  0  0
 36 28  1  0  0  0  0
M  END
>  <minimizedAffinity>
-5.59190702

$$$$

 OpenBabel03242515113D

 36 38  0  0  0  0  0  0  0  0999 V2000
   39.6700   29.4710   38.8670 C   0  0  0  0  0  0  0  0  0  0  0  0
   40.4160   28.3320   38.7380 C   0  0  0  0  0  0  0  0  0  0  0  0
   39.9490   27.0560   38.9630 C   0  0  0  0  0  0  0  0  0  0  0  0
   38.6450   26.9010   39.3460 C   0  0  0  0  0  0  0  0  0  0  0  0
   37.8680   28.0040   39.4880 C   0  0  0  0  0  0  0  0  0  0  0  0
   38.3600   29.2830   39.2550 C   0  0  0  0  0  0  0  0  0  0  0  0
   41.4630   28.4000   38.4330 H   0  0  0  0  0  0  0  0  0  0  0  0
   40.5750   26.1820   38.8470 H   0  0  0  0  0  0  0  0  0  0  0  0
   38.2880   25.8890   39.5210 H   0  0  0  0  0  0  0  0  0  0  0  0
   36.8360   27.8250   39.7960 H   0  0  0  0  0  0  0  0  0  0  0  0
   40.4890   32.9940   39.3710 C   0  0  0  0  0  0  0  0  0  0  0  0
   41.2080   33.3250   38.2170 C   0  0  0  0  0  0  0  0  0  0  0  0
   41.4070   32.3330   37.2700 C   0  0  0  0  0  0  0  0  0  0  0  0
   40.9110   31.0630   37.4640 N   0  0  0  0  0  0  0  0  0  0  0  0
   40.2110   30.7900   38.6170 C   0  0  0  0  0  0  0  0  0  0  0  0
   40.0230   31.7620   39.5320 N   0  0  0  0  0  0  0  0  0  0  0  0
   40.3030   33.7110   40.1350 H   0  0  0  0  0  0  0  0  0  0  0  0
   41.5830   34.3320   38.0970 H   0  0  0  0  0  0  0  0  0  0  0  0
   41.9510   32.5550   36.3790 H   0  0  0  0  0  0  0  0  0  0  0  0
   37.4290   30.3220   39.4450 N   0  0  0  0  0  0  0  0  0  0  0  0
   36.9830   30.6010   38.5410 H   0  0  0  0  0  0  0  0  0  0  0  0
   36.9150   31.1790   40.8370 S   0  0  0  0  0  0  0  0  0  0  0  0
   37.0140   32.6760   40.5310 O   0  0  0  0  0  0  0  0  0  0  0  0
   37.2850   33.3620   41.2170 H   0  0  0  0  0  0  0  0  0  0  0  0
   35.5360   30.8750   41.2720 O   0  0  0  0  0  0  0  0  0  0  0  0
   34.9860   30.0920   40.9640 H   0  0  0  0  0  0  0  0  0  0  0  0
   38.0770   30.9020   42.0230 O   0  0  0  0  0  0  0  0  0  0  0  0
   38.3680   29.6640   42.5430 C   0  0  0  0  0  0  0  0  0  0  0  0
   37.4610   28.7720   43.0670 C   0  0  0  0  0  0  0  0  0  0  0  0
   36.4220   29.0870   43.0660 H   0  0  0  0  0  0  0  0  0  0  0  0
   37.8580   27.5380   43.5700 C   0  0  0  0  0  3  0  0  0  0  0  0
   39.1990   27.2330   43.5260 C   0  0  0  0  0  0  0  0  0  0  0  0
   39.5250   26.2800   43.9120 H   0  0  0  0  0  0  0  0  0  0  0  0
   40.1260   28.1060   43.0080 C   0  0  0  0  0  0  0  0  0  0  0  0
   41.1700   27.8370   42.9870 H   0  0  0  0  0  0  0  0  0  0  0  0
   39.7280   29.3400   42.5050 C   0  0  0  0  0  3  0  0  0  0  0  0
  1  6  1  0  0  0  0
  2  1  2  0  0  0  0
  2  3  1  0  0  0  0
  3  4  2  0  0  0  0
  4  5  1  0  0  0  0
  4  9  1  0  0  0  0
  5 10  1  0  0  0  0
  6 20  1  0  0  0  0
  6  5  2  0  0  0  0
  7  2  1  0  0  0  0
  8  3  1  0  0  0  0
 11 16  1  0  0  0  0
 11 17  1  0  0  0  0
 12 11  2  0  0  0  0
 13 14  2  0  0  0  0
 13 12  1  0  0  0  0
 14 15  1  0  0  0  0
 15  1  1  0  0  0  0
 15 16  2  0  0  0  0
 18 12  1  0  0  0  0
 19 13  1  0  0  0  0
 20 22  1  0  0  0  0
 21 20  1  0  0  0  0
 22 25  1  0  0  0  0
 22 27  1  0  0  0  0
 23 22  1  0  0  0  0
 23 24  1  0  0  0  0
 26 25  1  0  0  0  0
 27 28  1  0  0  0  0
 28 29  1  0  0  0  0
 29 31  2  0  0  0  0
 30 29  1  0  0  0  0
 32 31  1  0  0  0  0
 32 33  1  0  0  0  0
 34 32  2  0  0  0  0
 35 34  1  0  0  0  0
 36 28  2  0  0  0  0
 36 34  1  0  0  0  0
M  END
>  <minimizedAffinity>
-5.59091616

$$$$

 OpenBabel03242515113D

 36 38  0  0  0  0  0  0  0  0999 V2000
   36.8640   26.2700   39.9870 C   0  0  0  0  0  0  0  0  0  0  0  0
   36.4500   24.9680   39.9060 C   0  0  0  0  0  0  0  0  0  0  0  0
   36.5950   24.0340   40.9080 C   0  0  0  0  0  0  0  0  0  0  0  0
   37.1950   24.4210   42.0750 C   0  0  0  0  0  0  0  0  0  0  0  0
   37.6220   25.7020   42.1980 C   0  0  0  0  0  0  0  0  0  0  0  0
   37.4660   26.6300   41.1750 C   0  0  0  0  0  0  0  0  0  0  0  0
   35.9640   24.6090   38.9970 H   0  0  0  0  0  0  0  0  0  0  0  0
   36.2510   23.0140   40.8010 H   0  0  0  0  0  0  0  0  0  0  0  0
   37.3030   23.6740   42.8570 H   0  0  0  0  0  0  0  0  0  0  0  0
   38.0940   25.9590   43.1480 H   0  0  0  0  0  0  0  0  0  0  0  0
   35.5670   29.1050   38.0840 C   0  0  0  0  0  0  0  0  0  0  0  0
   36.2910   29.0470   36.8880 C   0  0  0  0  0  0  0  0  0  0  0  0
   37.2220   28.0310   36.7430 C   0  0  0  0  0  0  0  0  0  0  0  0
   37.4260   27.1100   37.7460 N   0  0  0  0  0  0  0  0  0  0  0  0
   36.6870   27.2130   38.9030 C   0  0  0  0  0  0  0  0  0  0  0  0
   35.7840   28.2040   39.0350 N   0  0  0  0  0  0  0  0  0  0  0  0
   34.8390   29.8600   38.2580 H   0  0  0  0  0  0  0  0  0  0  0  0
   36.1060   29.7860   36.1210 H   0  0  0  0  0  0  0  0  0  0  0  0
   37.7890   27.9610   35.8400 H   0  0  0  0  0  0  0  0  0  0  0  0
   37.9610   27.9170   41.4580 N   0  0  0  0  0  0  0  0  0  0  0  0
   38.9500   28.0210   41.1350 H   0  0  0  0  0  0  0  0  0  0  0  0
   37.2630   29.2900   42.2070 S   0  0  0  0  0  0  0  0  0  0  0  0
   35.8600   29.4820   41.6240 O   0  0  0  0  0  0  0  0  0  0  0  0
   35.4520   30.3890   41.4580 H   0  0  0  0  0  0  0  0  0  0  0  0
   37.1570   29.2020   43.6780 O   0  0  0  0  0  0  0  0  0  0  0  0
   37.6310   28.5310   44.2580 H   0  0  0  0  0  0  0  0  0  0  0  0
   38.1400   30.6230   41.6700 O   0  0  0  0  0  0  0  0  0  0  0  0
   38.1040   31.1020   40.3830 C   0  0  0  0  0  0  0  0  0  0  0  0
   37.2330   32.0480   39.8950 C   0  0  0  0  0  0  0  0  0  0  0  0
   36.5100   32.4450   40.6010 H   0  0  0  0  0  0  0  0  0  0  0  0
   37.2780   32.4680   38.5700 C   0  0  0  0  0  3  0  0  0  0  0  0
   38.2320   31.9030   37.7540 C   0  0  0  0  0  0  0  0  0  0  0  0
   38.2800   32.2160   36.7230 H   0  0  0  0  0  0  0  0  0  0  0  0
   39.1140   30.9560   38.2170 C   0  0  0  0  0  0  0  0  0  0  0  0
   39.8500   30.5320   37.5530 H   0  0  0  0  0  0  0  0  0  0  0  0
   39.0680   30.5360   39.5410 C   0  0  0  0  0  3  0  0  0  0  0  0
  1  6  1  0  0  0  0
  2  1  2  0  0  0  0
  2  3  1  0  0  0  0
  3  4  2  0  0  0  0
  4  5  1  0  0  0  0
  4  9  1  0  0  0  0
  5 10  1  0  0  0  0
  6 20  1  0  0  0  0
  6  5  2  0  0  0  0
  7  2  1  0  0  0  0
  8  3  1  0  0  0  0
 11 17  1  0  0  0  0
 11 16  1  0  0  0  0
 12 11  2  0  0  0  0
 13 12  1  0  0  0  0
 13 14  2  0  0  0  0
 14 15  1  0  0  0  0
 15 16  2  0  0  0  0
 15  1  1  0  0  0  0
 18 12  1  0  0  0  0
 19 13  1  0  0  0  0
 20 22  1  0  0  0  0
 21 20  1  0  0  0  0
 22 25  1  0  0  0  0
 23 22  1  0  0  0  0
 24 23  1  0  0  0  0
 25 26  1  0  0  0  0
 27 22  1  0  0  0  0
 28 27  1  0  0  0  0
 29 28  1  0  0  0  0
 29 30  1  0  0  0  0
 31 29  2  0  0  0  0
 32 34  2  0  0  0  0
 32 31  1  0  0  0  0
 33 32  1  0  0  0  0
 34 36  1  0  0  0  0
 35 34  1  0  0  0  0
 36 28  2  0  0  0  0
M  END
>  <minimizedAffinity>
-5.58012724

$$$$

 OpenBabel03242515113D

 36 38  0  0  0  0  0  0  0  0999 V2000
   37.9450   26.7930   40.0430 C   0  0  0  0  0  0  0  0  0  0  0  0
   38.3210   25.9190   39.0600 C   0  0  0  0  0  0  0  0  0  0  0  0
   37.5760   25.6300   37.9380 C   0  0  0  0  0  0  0  0  0  0  0  0
   36.3700   26.2550   37.7810 C   0  0  0  0  0  0  0  0  0  0  0  0
   35.9570   27.1300   38.7320 C   0  0  0  0  0  0  0  0  0  0  0  0
   36.7240   27.4070   39.8580 C   0  0  0  0  0  0  0  0  0  0  0  0
   39.2760   25.3940   39.1360 H   0  0  0  0  0  0  0  0  0  0  0  0
   37.9140   24.9310   37.1840 H   0  0  0  0  0  0  0  0  0  0  0  0
   35.7920   26.0180   36.8920 H   0  0  0  0  0  0  0  0  0  0  0  0
   34.9870   27.6010   38.5590 H   0  0  0  0  0  0  0  0  0  0  0  0
   39.0090   26.9330   43.5340 C   0  0  0  0  0  0  0  0  0  0  0  0
   40.2690   27.5370   43.4620 C   0  0  0  0  0  0  0  0  0  0  0  0
   40.7460   27.8930   42.2110 C   0  0  0  0  0  0  0  0  0  0  0  0
   40.0000   27.6580   41.0770 N   0  0  0  0  0  0  0  0  0  0  0  0
   38.7670   27.0610   41.2040 C   0  0  0  0  0  0  0  0  0  0  0  0
   38.3110   26.7180   42.4250 N   0  0  0  0  0  0  0  0  0  0  0  0
   38.5860   26.6360   44.4640 H   0  0  0  0  0  0  0  0  0  0  0  0
   40.8280   27.7070   44.3720 H   0  0  0  0  0  0  0  0  0  0  0  0
   41.7040   28.3560   42.1240 H   0  0  0  0  0  0  0  0  0  0  0  0
   36.1570   28.3360   40.7500 N   0  0  0  0  0  0  0  0  0  0  0  0
   35.2360   27.9980   41.1140 H   0  0  0  0  0  0  0  0  0  0  0  0
   36.6810   29.8620   41.3250 S   0  0  0  0  0  0  0  0  0  0  0  0
   35.4830   30.8150   41.2910 O   0  0  0  0  0  0  0  0  0  0  0  0
   35.5630   31.7930   41.0640 H   0  0  0  0  0  0  0  0  0  0  0  0
   37.2350   29.8470   42.6950 O   0  0  0  0  0  0  0  0  0  0  0  0
   37.5120   29.0250   43.2030 H   0  0  0  0  0  0  0  0  0  0  0  0
   37.7470   30.4670   40.1700 O   0  0  0  0  0  0  0  0  0  0  0  0
   38.3250   31.7120   40.2310 C   0  0  0  0  0  0  0  0  0  0  0  0
   37.7000   32.9090   39.9700 C   0  0  0  0  0  0  0  0  0  0  0  0
   36.6530   32.8530   39.6900 H   0  0  0  0  0  0  0  0  0  0  0  0
   38.3760   34.1200   40.0610 C   0  0  0  0  0  3  0  0  0  0  0  0
   39.7030   34.0850   40.4260 C   0  0  0  0  0  0  0  0  0  0  0  0
   40.2430   35.0150   40.5010 H   0  0  0  0  0  0  0  0  0  0  0  0
   40.3510   32.9020   40.6920 C   0  0  0  0  0  0  0  0  0  0  0  0
   41.3920   32.9070   40.9750 H   0  0  0  0  0  0  0  0  0  0  0  0
   39.6750   31.6910   40.6000 C   0  0  0  0  0  3  0  0  0  0  0  0
  1 15  1  0  0  0  0
  2  7  1  0  0  0  0
  2  1  2  0  0  0  0
  3  2  1  0  0  0  0
  4  3  2  0  0  0  0
  4  5  1  0  0  0  0
  5  6  2  0  0  0  0
  6  1  1  0  0  0  0
  6 20  1  0  0  0  0
  8  3  1  0  0  0  0
  9  4  1  0  0  0  0
 10  5  1  0  0  0  0
 11 17  1  0  0  0  0
 12 11  1  0  0  0  0
 12 18  1  0  0  0  0
 13 12  2  0  0  0  0
 14 15  2  0  0  0  0
 14 13  1  0  0  0  0
 15 16  1  0  0  0  0
 16 11  2  0  0  0  0
 19 13  1  0  0  0  0
 20 21  1  0  0  0  0
 20 22  1  0  0  0  0
 22 25  1  0  0  0  0
 23 22  1  0  0  0  0
 24 23  1  0  0  0  0
 25 26  1  0  0  0  0
 27 28  1  0  0  0  0
 27 22  1  0  0  0  0
 28 36  1  0  0  0  0
 29 31  1  0  0  0  0
 29 28  2  0  0  0  0
 30 29  1  0  0  0  0
 31 32  2  0  0  0  0
 32 33  1  0  0  0  0
 32 34  1  0  0  0  0
 34 35  1  0  0  0  0
 36 34  2  0  0  0  0
M  END
>  <minimizedAffinity>
-5.44152689

$$$$

 OpenBabel03242515113D

 36 38  0  0  0  0  0  0  0  0999 V2000
   36.3000   28.0970   39.1080 C   0  0  0  0  0  0  0  0  0  0  0  0
   35.5480   27.3420   38.2510 C   0  0  0  0  0  0  0  0  0  0  0  0
   35.1310   27.7490   37.0030 C   0  0  0  0  0  0  0  0  0  0  0  0
   35.4880   28.9990   36.5760 C   0  0  0  0  0  0  0  0  0  0  0  0
   36.2330   29.7830   37.3930 C   0  0  0  0  0  0  0  0  0  0  0  0
   36.6440   29.3530   38.6500 C   0  0  0  0  0  0  0  0  0  0  0  0
   35.2380   26.3360   38.5430 H   0  0  0  0  0  0  0  0  0  0  0  0
   34.5370   27.1170   36.3570 H   0  0  0  0  0  0  0  0  0  0  0  0
   35.1520   29.3090   35.5890 H   0  0  0  0  0  0  0  0  0  0  0  0
   36.4900   30.7710   37.0050 H   0  0  0  0  0  0  0  0  0  0  0  0
   38.0650   26.1570   41.6490 C   0  0  0  0  0  0  0  0  0  0  0  0
   37.5510   26.6580   42.8500 C   0  0  0  0  0  0  0  0  0  0  0  0
   36.5990   27.6620   42.7790 C   0  0  0  0  0  0  0  0  0  0  0  0
   36.1750   28.1480   41.5620 N   0  0  0  0  0  0  0  0  0  0  0  0
   36.7130   27.6200   40.4110 C   0  0  0  0  0  0  0  0  0  0  0  0
   37.6380   26.6440   40.4910 N   0  0  0  0  0  0  0  0  0  0  0  0
   38.7980   25.3870   41.6360 H   0  0  0  0  0  0  0  0  0  0  0  0
   37.9070   26.2540   43.7880 H   0  0  0  0  0  0  0  0  0  0  0  0
   36.1880   28.0640   43.6790 H   0  0  0  0  0  0  0  0  0  0  0  0
   37.4110   30.2830   39.3760 N   0  0  0  0  0  0  0  0  0  0  0  0
   38.4290   30.1840   39.1600 H   0  0  0  0  0  0  0  0  0  0  0  0
   36.9930   31.5010   40.5060 S   0  0  0  0  0  0  0  0  0  0  0  0
   36.7030   32.7870   39.7260 O   0  0  0  0  0  0  0  0  0  0  0  0
   36.9410   33.7040   40.0680 H   0  0  0  0  0  0  0  0  0  0  0  0
   35.8230   31.1830   41.3500 O   0  0  0  0  0  0  0  0  0  0  0  0
   35.4100   30.2730   41.4550 H   0  0  0  0  0  0  0  0  0  0  0  0
   38.3910   31.8350   41.3840 O   0  0  0  0  0  0  0  0  0  0  0  0
   39.4090   30.9340   41.5850 C   0  0  0  0  0  0  0  0  0  0  0  0
   39.3910   29.8750   42.4630 C   0  0  0  0  0  0  0  0  0  0  0  0
   38.4840   29.7500   43.0470 H   0  0  0  0  0  0  0  0  0  0  0  0
   40.4770   29.0160   42.5930 C   0  0  0  0  0  3  0  0  0  0  0  0
   41.5800   29.2590   41.8070 C   0  0  0  0  0  0  0  0  0  0  0  0
   42.4310   28.6030   41.8950 H   0  0  0  0  0  0  0  0  0  0  0  0
   41.6230   30.3100   40.9210 C   0  0  0  0  0  0  0  0  0  0  0  0
   42.5020   30.4740   40.3190 H   0  0  0  0  0  0  0  0  0  0  0  0
   40.5370   31.1690   40.7930 C   0  0  0  0  0  3  0  0  0  0  0  0
  1 15  1  0  0  0  0
  2  7  1  0  0  0  0
  2  1  2  0  0  0  0
  3  2  1  0  0  0  0
  4  3  2  0  0  0  0
  4  5  1  0  0  0  0
  5  6  2  0  0  0  0
  6  1  1  0  0  0  0
  6 20  1  0  0  0  0
  8  3  1  0  0  0  0
  9  4  1  0  0  0  0
 10  5  1  0  0  0  0
 11 12  1  0  0  0  0
 12 18  1  0  0  0  0
 13 12  2  0  0  0  0
 13 19  1  0  0  0  0
 14 13  1  0  0  0  0
 15 16  1  0  0  0  0
 15 14  2  0  0  0  0
 16 11  2  0  0  0  0
 17 11  1  0  0  0  0
 20 22  1  0  0  0  0
 21 20  1  0  0  0  0
 22 25  1  0  0  0  0
 22 27  1  0  0  0  0
 23 24  1  0  0  0  0
 23 22  1  0  0  0  0
 25 26  1  0  0  0  0
 27 28  1  0  0  0  0
 28 29  1  0  0  0  0
 29 31  2  0  0  0  0
 29 30  1  0  0  0  0
 32 33  1  0  0  0  0
 32 31  1  0  0  0  0
 34 32  2  0  0  0  0
 35 34  1  0  0  0  0
 36 34  1  0  0  0  0
 36 28  2  0  0  0  0
M  END
>  <minimizedAffinity>
-5.41954327

$$$$
