
 OpenBabel03252509243D

 27 29  0  0  1  0  0  0  0  0999 V2000
   47.0740   34.2420   41.8510 C   0  0  1  0  0  0  0  0  0  0  0  0
   48.1520   35.3450   41.6990 C   0  0  0  0  0  0  0  0  0  0  0  0
   48.1840   34.1780   42.7320 C   0  0  2  0  0  0  0  0  0  0  0  0
   46.9610   33.6300   40.9350 H   0  0  0  0  0  0  0  0  0  0  0  0
   48.8910   35.2340   40.8870 H   0  0  0  0  0  0  0  0  0  0  0  0
   47.9620   36.3440   42.0720 H   0  0  0  0  0  0  0  0  0  0  0  0
   48.0790   34.5400   43.7790 H   0  0  0  0  0  0  0  0  0  0  0  0
   49.2340   33.1310   42.5000 C   0  0  0  0  0  0  0  0  0  0  0  0
   50.5360   33.5250   42.2600 C   0  0  0  0  0  0  0  0  0  0  0  0
   50.8260   34.5610   42.2330 H   0  0  0  0  0  0  0  0  0  0  0  0
   51.5210   32.5560   42.0430 C   0  0  0  0  0  3  0  0  0  0  0  0
   51.0870   31.2440   42.0900 C   0  0  0  0  0  0  0  0  0  0  0  0
   51.8570   30.4810   41.9200 H   0  0  0  0  0  0  0  0  0  0  0  0
   49.7930   30.8100   42.3280 C   0  0  0  0  0  0  0  0  0  0  0  0
   49.5990   29.7480   42.3360 H   0  0  0  0  0  0  0  0  0  0  0  0
   48.8370   31.8090   42.5400 C   0  0  0  0  0  3  0  0  0  0  0  0
   43.4880   35.3160   42.0710 C   0  0  0  0  0  0  0  0  0  0  0  0
   44.7070   34.8110   41.4940 C   0  0  0  0  0  0  0  0  0  0  0  0
   45.7810   34.8320   42.3420 C   0  0  0  0  0  0  0  0  0  0  0  0
   45.6880   35.3030   43.6360 N   0  0  0  0  0  0  0  0  0  0  0  0
   44.5250   35.7650   44.1280 C   0  0  0  0  0  0  0  0  0  0  0  0
   43.4190   35.7700   43.3370 N   0  0  0  0  0  0  0  0  0  0  0  0
   42.6070   35.3220   41.4430 H   0  0  0  0  0  0  0  0  0  0  0  0
   44.6140   36.0950   45.1520 H   0  0  0  0  0  0  0  0  0  0  0  0
   44.7860   34.3570   40.1560 N   0  0  0  0  0  0  0  0  0  0  0  0
   44.8320   35.1810   39.5050 H   0  0  0  0  0  0  0  0  0  0  0  0
   44.8040   33.4160   39.7420 H   0  0  0  0  0  0  0  0  0  0  0  0
  1  4  1  6  0  0  0
  1 19  1  0  0  0  0
  1  3  1  0  0  0  0
  2  1  1  0  0  0  0
  2  6  1  0  0  0  0
  2  3  1  0  0  0  0
  3  7  1  1  0  0  0
  5  2  1  0  0  0  0
  8 16  1  0  0  0  0
  8  3  1  0  0  0  0
  9  8  2  0  0  0  0
 10  9  1  0  0  0  0
 11 12  2  0  0  0  0
 11  9  1  0  0  0  0
 12 14  1  0  0  0  0
 13 12  1  0  0  0  0
 14 15  1  0  0  0  0
 14 16  2  0  0  0  0
 17 22  1  0  0  0  0
 18 17  2  0  0  0  0
 18 19  1  0  0  0  0
 19 20  2  0  0  0  0
 20 21  1  0  0  0  0
 21 24  1  0  0  0  0
 22 21  2  0  0  0  0
 23 17  1  0  0  0  0
 25 18  1  0  0  0  0
 26 25  1  0  0  0  0
 27 25  1  0  0  0  0
M  END
>  <minimizedAffinity>
-4.27541733

>  <minimizedRMSD>
3.6895678

$$$$
