
 OpenBabel03242513383D

 34 37  0  0  0  0  0  0  0  0999 V2000
   47.7290   31.0830   45.9790 C   0  0  0  0  0  0  0  0  0  0  0  0
   46.9690   32.0960   45.4510 C   0  0  0  0  0  0  0  0  0  0  0  0
   45.9020   32.5770   46.1940 C   0  0  0  0  0  0  0  0  0  0  0  0
   45.5770   32.0750   47.4440 C   0  0  0  0  0  0  0  0  0  0  0  0
   44.6580   32.2920   48.3960 N   0  0  0  0  0  0  0  0  0  0  0  0
   44.8460   31.4610   49.4400 C   0  0  0  0  0  0  0  0  0  0  0  0
   45.9270   30.6920   49.1300 N   0  0  0  0  0  0  0  0  0  0  0  0
   46.3870   31.0560   47.9100 C   0  0  0  0  0  0  0  0  0  0  0  0
   47.4450   30.5470   47.2220 C   0  0  0  0  0  0  0  0  0  0  0  0
   48.5590   30.7110   45.3940 H   0  0  0  0  0  0  0  0  0  0  0  0
   45.2690   33.3740   45.8310 H   0  0  0  0  0  0  0  0  0  0  0  0
   43.9100   33.0130   48.3120 H   0  0  0  0  0  0  0  0  0  0  0  0
   44.2600   31.4040   50.3540 H   0  0  0  0  0  0  0  0  0  0  0  0
   48.2730   29.4660   47.7600 C   0  0  0  0  0  0  0  0  0  0  0  0
   48.1070   28.0960   47.5570 C   0  0  0  0  0  0  0  0  0  0  0  0
   47.2600   27.8420   46.9240 H   0  0  0  0  0  0  0  0  0  0  0  0
   48.9960   27.2270   48.1520 C   0  0  0  0  0  0  0  0  0  0  0  0
   50.0320   27.6640   48.9330 C   0  0  0  0  0  0  0  0  0  0  0  0
   50.7080   26.9410   49.3820 H   0  0  0  0  0  0  0  0  0  0  0  0
   50.2030   29.0270   49.1390 C   0  0  0  0  0  0  0  0  0  0  0  0
   51.0210   29.4000   49.7570 H   0  0  0  0  0  0  0  0  0  0  0  0
   49.3200   29.9260   48.5500 C   0  0  0  0  0  0  0  0  0  0  0  0
   47.2810   34.4440   42.6510 C   0  0  0  0  0  0  0  0  0  0  0  0
   47.8630   33.6710   41.6610 C   0  0  0  0  0  0  0  0  0  0  0  0
   48.1430   32.3330   41.9810 C   0  0  0  0  0  0  0  0  0  0  0  0
   47.8400   31.8610   43.2150 N   0  0  0  0  0  0  0  0  0  0  0  0
   47.2740   32.6560   44.1390 C   0  0  0  0  0  0  0  0  0  0  0  0
   46.9920   33.9420   43.8690 N   0  0  0  0  0  0  0  0  0  0  0  0
   47.0180   35.4950   42.5220 H   0  0  0  0  0  0  0  0  0  0  0  0
   48.5980   31.7330   41.2050 H   0  0  0  0  0  0  0  0  0  0  0  0
   48.1470   34.3030   40.3510 C   0  0  0  0  0  0  0  0  0  0  0  0
   48.6740   35.5460   40.6430 F   0  0  0  0  0  0  0  0  0  0  0  0
   46.9510   34.4350   39.6770 F   0  0  0  0  0  0  0  0  0  0  0  0
   49.0090   33.4900   39.6480 F   0  0  0  0  0  0  0  0  0  0  0  0
  1  9  1  0  0  0  0
  2  1  2  0  0  0  0
  2  3  1  0  0  0  0
  3  4  2  0  0  0  0
  4  8  1  0  0  0  0
  4  5  1  0  0  0  0
  5  6  1  0  0  0  0
  6 13  1  0  0  0  0
  7  6  2  0  0  0  0
  8  7  1  0  0  0  0
  9 14  1  0  0  0  0
  9  8  2  0  0  0  0
 10  1  1  0  0  0  0
 11  3  1  0  0  0  0
 12  5  1  0  0  0  0
 14 22  1  0  0  0  0
 15 14  2  0  0  0  0
 15 17  1  0  0  0  0
 16 15  1  0  0  0  0
 17 18  2  0  0  0  0
 18 20  1  0  0  0  0
 18 19  1  0  0  0  0
 20 21  1  0  0  0  0
 22 20  2  0  0  0  0
 23 28  1  0  0  0  0
 24 25  1  0  0  0  0
 24 23  2  0  0  0  0
 25 26  2  0  0  0  0
 26 27  1  0  0  0  0
 27  2  1  0  0  0  0
 28 27  2  0  0  0  0
 29 23  1  0  0  0  0
 30 25  1  0  0  0  0
 31 32  1  0  0  0  0
 31 24  1  0  0  0  0
 33 31  1  0  0  0  0
 34 31  1  0  0  0  0
M  END
>  <minimizedAffinity>
-5.83682489

>  <minimizedRMSD>
0.209541157

$$$$
