
 OpenBabel03242523343D

 37 40  0  0  0  0  0  0  0  0999 V2000
   45.5700   33.1440   46.5410 C   0  0  0  0  0  0  0  0  0  0  0  0
   45.7820   33.5200   47.5410 H   0  0  0  0  0  0  0  0  0  0  0  0
   44.5890   32.5800   46.5750 H   0  0  0  0  0  0  0  0  0  0  0  0
   44.4130   36.2030   44.7810 C   0  0  0  0  0  0  0  0  0  0  0  0
   45.0940   36.0670   43.5540 C   0  0  0  0  0  0  0  0  0  0  0  0
   45.9160   34.9570   43.3620 C   0  0  0  0  0  0  0  0  0  0  0  0
   46.0390   34.0310   44.3680 N   0  0  0  0  0  0  0  0  0  0  0  0
   45.3650   34.2010   45.5340 C   0  0  0  0  0  0  0  0  0  0  0  0
   44.5710   35.2640   45.7320 N   0  0  0  0  0  0  0  0  0  0  0  0
   43.7660   37.0440   44.9780 H   0  0  0  0  0  0  0  0  0  0  0  0
   44.9750   36.8140   42.7840 H   0  0  0  0  0  0  0  0  0  0  0  0
   46.6530   34.7430   42.1260 C   0  0  0  0  0  0  0  0  0  0  0  0
   46.2110   33.9820   41.0670 C   0  0  0  0  0  0  0  0  0  0  0  0
   45.2470   33.5000   41.1390 H   0  0  0  0  0  0  0  0  0  0  0  0
   46.9350   33.7990   39.9100 C   0  0  0  0  0  0  0  0  0  0  0  0
   48.1660   34.3950   39.7740 C   0  0  0  0  0  0  0  0  0  0  0  0
   48.7650   34.2740   38.8780 H   0  0  0  0  0  0  0  0  0  0  0  0
   48.6560   35.1700   40.8110 C   0  0  0  0  0  0  0  0  0  0  0  0
   49.6300   35.6490   40.7210 H   0  0  0  0  0  0  0  0  0  0  0  0
   47.8870   35.3160   41.9430 C   0  0  0  0  0  0  0  0  0  0  0  0
   46.7760   31.9730   45.8850 S   0  0  0  0  0  0  0  0  0  0  0  0
   47.7240   31.2450   47.2010 C   0  0  0  0  0  0  0  0  0  0  0  0
   47.9930   32.0160   48.3090 C   0  0  0  0  0  0  0  0  0  0  0  0
   48.7200   31.4590   49.3220 C   0  0  0  0  0  0  0  0  0  0  0  0
   49.1920   30.1540   49.2710 C   0  0  0  0  0  0  0  0  0  0  0  0
   49.9070   29.6400   50.2930 N   0  0  0  0  0  0  0  0  0  0  0  0
   50.3700   28.3730   50.2560 C   0  0  0  0  0  0  0  0  0  0  0  0
   50.1090   27.5940   49.1510 C   0  0  0  0  0  0  0  0  0  0  0  0
   49.3730   28.1180   48.0950 C   0  0  0  0  0  0  0  0  0  0  0  0
   48.8890   29.4380   48.1340 C   0  0  0  0  0  0  0  0  0  0  0  0
   48.1630   29.9450   47.0870 C   0  0  0  0  0  0  0  0  0  0  0  0
   47.6950   33.0300   48.4830 H   0  0  0  0  0  0  0  0  0  0  0  0
   48.9750   32.0050   50.2370 H   0  0  0  0  0  0  0  0  0  0  0  0
   50.9460   27.9610   51.0780 H   0  0  0  0  0  0  0  0  0  0  0  0
   50.4630   26.5780   49.0850 H   0  0  0  0  0  0  0  0  0  0  0  0
   49.1890   27.4720   47.2470 H   0  0  0  0  0  0  0  0  0  0  0  0
   47.9550   29.3390   46.2200 H   0  0  0  0  0  0  0  0  0  0  0  0
  1  3  1  0  0  0  0
  1  2  1  0  0  0  0
  4 10  1  0  0  0  0
  4  9  1  0  0  0  0
  5  4  2  0  0  0  0
  6  5  1  0  0  0  0
  6  7  2  0  0  0  0
  7  8  1  0  0  0  0
  8  9  2  0  0  0  0
  8  1  1  0  0  0  0
 11  5  1  0  0  0  0
 12  6  1  0  0  0  0
 13 14  1  0  0  0  0
 13 12  2  0  0  0  0
 15 13  1  0  0  0  0
 16 15  2  0  0  0  0
 16 18  1  0  0  0  0
 17 16  1  0  0  0  0
 18 20  2  0  0  0  0
 19 18  1  0  0  0  0
 20 12  1  0  0  0  0
 21  1  1  0  0  0  0
 21 22  1  0  0  0  0
 22 23  1  0  0  0  0
 23 32  1  0  0  0  0
 23 24  2  0  0  0  0
 24 33  1  0  0  0  0
 25 24  1  0  0  0  0
 25 26  1  0  0  0  0
 27 26  2  0  0  0  0
 27 34  1  0  0  0  0
 28 27  1  0  0  0  0
 29 30  1  0  0  0  0
 29 28  2  0  0  0  0
 30 25  2  0  0  0  0
 31 22  2  0  0  0  0
 31 30  1  0  0  0  0
 35 28  1  0  0  0  0
 36 29  1  0  0  0  0
 37 31  1  0  0  0  0
M  END
>  <minimizedAffinity>
-6.65442228

>  <minimizedRMSD>
0.447579026

$$$$
