
 OpenBabel03252509253D

 27 29  0  0  1  0  0  0  0  0999 V2000
   38.7590   29.2180   42.6290 C   0  0  1  0  0  0  0  0  0  0  0  0
   37.5680   28.8570   43.5530 C   0  0  0  0  0  0  0  0  0  0  0  0
   38.0270   28.0490   42.3010 C   0  0  2  0  0  0  0  0  0  0  0  0
   39.7270   29.2250   43.1670 H   0  0  0  0  0  0  0  0  0  0  0  0
   37.7930   28.3520   44.5090 H   0  0  0  0  0  0  0  0  0  0  0  0
   36.6410   29.4110   43.4850 H   0  0  0  0  0  0  0  0  0  0  0  0
   37.2730   28.0810   41.4820 H   0  0  0  0  0  0  0  0  0  0  0  0
   38.6390   26.7070   42.5790 C   0  0  0  0  0  0  0  0  0  0  0  0
   39.8490   26.6440   43.2420 C   0  0  0  0  0  0  0  0  0  0  0  0
   40.3730   27.5260   43.5680 H   0  0  0  0  0  0  0  0  0  0  0  0
   40.4270   25.3970   43.5060 C   0  0  0  0  0  3  0  0  0  0  0  0
   39.7080   24.3020   43.0620 C   0  0  0  0  0  0  0  0  0  0  0  0
   40.1580   23.3230   43.2670 H   0  0  0  0  0  0  0  0  0  0  0  0
   38.4940   24.3260   42.3950 C   0  0  0  0  0  0  0  0  0  0  0  0
   38.0460   23.3860   42.1070 H   0  0  0  0  0  0  0  0  0  0  0  0
   37.9500   25.5900   42.1510 C   0  0  0  0  0  3  0  0  0  0  0  0
   39.1320   32.6160   41.0870 C   0  0  0  0  0  0  0  0  0  0  0  0
   39.4430   31.4650   41.8950 C   0  0  0  0  0  0  0  0  0  0  0  0
   38.4790   30.4930   41.8830 C   0  0  0  0  0  0  0  0  0  0  0  0
   37.3130   30.6210   41.1560 N   0  0  0  0  0  0  0  0  0  0  0  0
   37.0700   31.7180   40.4160 C   0  0  0  0  0  0  0  0  0  0  0  0
   37.9880   32.7190   40.3840 N   0  0  0  0  0  0  0  0  0  0  0  0
   39.8610   33.4150   41.0600 H   0  0  0  0  0  0  0  0  0  0  0  0
   36.1200   31.6680   39.9070 H   0  0  0  0  0  0  0  0  0  0  0  0
   40.6330   31.3650   42.6540 N   0  0  0  0  0  0  0  0  0  0  0  0
   40.5440   31.9420   43.5280 H   0  0  0  0  0  0  0  0  0  0  0  0
   41.5130   30.8560   42.5010 H   0  0  0  0  0  0  0  0  0  0  0  0
  1  4  1  1  0  0  0
  1  2  1  0  0  0  0
  2  5  1  0  0  0  0
  3  7  1  6  0  0  0
  3  8  1  0  0  0  0
  3  1  1  0  0  0  0
  3  2  1  0  0  0  0
  6  2  1  0  0  0  0
  8  9  1  0  0  0  0
  9 11  2  0  0  0  0
  9 10  1  0  0  0  0
 12 13  1  0  0  0  0
 12 11  1  0  0  0  0
 14 12  2  0  0  0  0
 15 14  1  0  0  0  0
 16 14  1  0  0  0  0
 16  8  2  0  0  0  0
 17 18  1  0  0  0  0
 18 25  1  0  0  0  0
 19 18  2  0  0  0  0
 19  1  1  0  0  0  0
 20 19  1  0  0  0  0
 21 20  2  0  0  0  0
 22 21  1  0  0  0  0
 22 17  2  0  0  0  0
 23 17  1  0  0  0  0
 24 21  1  0  0  0  0
 25 26  1  0  0  0  0
 27 25  1  0  0  0  0
M  END
>  <minimizedAffinity>
-5.12341166

$$$$

 OpenBabel03252509253D

 27 29  0  0  1  0  0  0  0  0999 V2000
   36.2960   28.7010   39.8390 C   0  0  1  0  0  0  0  0  0  0  0  0
   35.3790   28.0430   38.7760 C   0  0  0  0  0  0  0  0  0  0  0  0
   36.7820   27.5250   39.2140 C   0  0  2  0  0  0  0  0  0  0  0  0
   35.8270   28.7330   40.8410 H   0  0  0  0  0  0  0  0  0  0  0  0
   34.5460   27.4140   39.1330 H   0  0  0  0  0  0  0  0  0  0  0  0
   35.2880   28.4840   37.7910 H   0  0  0  0  0  0  0  0  0  0  0  0
   37.5330   27.6050   38.3950 H   0  0  0  0  0  0  0  0  0  0  0  0
   36.7890   26.2400   39.9900 C   0  0  0  0  0  0  0  0  0  0  0  0
   36.5070   25.0570   39.3360 C   0  0  0  0  0  0  0  0  0  0  0  0
   36.2800   25.0220   38.2840 H   0  0  0  0  0  0  0  0  0  0  0  0
   36.5120   23.8550   40.0520 C   0  0  0  0  0  3  0  0  0  0  0  0
   36.8090   23.9650   41.3980 C   0  0  0  0  0  0  0  0  0  0  0  0
   36.8140   23.0240   41.9630 H   0  0  0  0  0  0  0  0  0  0  0  0
   37.0970   25.1310   42.0880 C   0  0  0  0  0  0  0  0  0  0  0  0
   37.3120   25.0650   43.1450 H   0  0  0  0  0  0  0  0  0  0  0  0
   37.0820   26.3100   41.3370 C   0  0  0  0  0  3  0  0  0  0  0  0
   37.1090   32.3580   39.6630 C   0  0  0  0  0  0  0  0  0  0  0  0
   36.5360   31.1300   40.1520 C   0  0  0  0  0  0  0  0  0  0  0  0
   36.7810   30.0410   39.3600 C   0  0  0  0  0  0  0  0  0  0  0  0
   37.5130   30.1300   38.1930 N   0  0  0  0  0  0  0  0  0  0  0  0
   38.0260   31.3020   37.7790 C   0  0  0  0  0  0  0  0  0  0  0  0
   37.8210   32.4210   38.5220 N   0  0  0  0  0  0  0  0  0  0  0  0
   36.9460   33.2500   40.2530 H   0  0  0  0  0  0  0  0  0  0  0  0
   38.5720   31.2070   36.8520 H   0  0  0  0  0  0  0  0  0  0  0  0
   35.7670   31.0660   41.3390 N   0  0  0  0  0  0  0  0  0  0  0  0
   34.7990   31.4300   41.1520 H   0  0  0  0  0  0  0  0  0  0  0  0
   35.9850   30.7440   42.2910 H   0  0  0  0  0  0  0  0  0  0  0  0
  1  4  1  1  0  0  0
  2  5  1  0  0  0  0
  2  3  1  0  0  0  0
  2  1  1  0  0  0  0
  3  7  1  6  0  0  0
  3  1  1  0  0  0  0
  3  8  1  0  0  0  0
  6  2  1  0  0  0  0
  8 16  1  0  0  0  0
  9  8  2  0  0  0  0
  9 11  1  0  0  0  0
 10  9  1  0  0  0  0
 11 12  2  0  0  0  0
 12 13  1  0  0  0  0
 12 14  1  0  0  0  0
 14 15  1  0  0  0  0
 16 14  2  0  0  0  0
 17 18  1  0  0  0  0
 17 23  1  0  0  0  0
 18 25  1  0  0  0  0
 19  1  1  0  0  0  0
 19 18  2  0  0  0  0
 20 19  1  0  0  0  0
 21 20  2  0  0  0  0
 21 22  1  0  0  0  0
 22 17  2  0  0  0  0
 24 21  1  0  0  0  0
 25 27  1  0  0  0  0
 26 25  1  0  0  0  0
M  END
>  <minimizedAffinity>
-5.02480221

$$$$

 OpenBabel03252509253D

 27 29  0  0  1  0  0  0  0  0999 V2000
   38.3510   31.2900   40.7100 C   0  0  1  0  0  0  0  0  0  0  0  0
   37.0640   30.9770   39.9050 C   0  0  0  0  0  0  0  0  0  0  0  0
   38.1480   29.9400   40.3280 C   0  0  2  0  0  0  0  0  0  0  0  0
   38.1340   31.7000   41.7160 H   0  0  0  0  0  0  0  0  0  0  0  0
   36.1180   30.8780   40.4650 H   0  0  0  0  0  0  0  0  0  0  0  0
   37.0010   31.2440   38.8580 H   0  0  0  0  0  0  0  0  0  0  0  0
   38.6960   29.5250   39.4530 H   0  0  0  0  0  0  0  0  0  0  0  0
   37.7270   28.9460   41.3720 C   0  0  0  0  0  0  0  0  0  0  0  0
   37.7370   29.3210   42.7010 C   0  0  0  0  0  0  0  0  0  0  0  0
   38.0390   30.3040   43.0190 H   0  0  0  0  0  0  0  0  0  0  0  0
   37.3470   28.4010   43.6800 C   0  0  0  0  0  3  0  0  0  0  0  0
   36.9720   27.1540   43.2110 C   0  0  0  0  0  0  0  0  0  0  0  0
   36.6650   26.4310   43.9750 H   0  0  0  0  0  0  0  0  0  0  0  0
   36.9490   26.7430   41.8880 C   0  0  0  0  0  0  0  0  0  0  0  0
   36.6320   25.7340   41.6680 H   0  0  0  0  0  0  0  0  0  0  0  0
   37.3460   27.6910   40.9410 C   0  0  0  0  0  3  0  0  0  0  0  0
   40.4740   34.1550   39.5490 C   0  0  0  0  0  0  0  0  0  0  0  0
   39.5040   33.4310   40.3290 C   0  0  0  0  0  0  0  0  0  0  0  0
   39.2830   32.1490   39.9010 C   0  0  0  0  0  0  0  0  0  0  0  0
   39.9380   31.6140   38.8110 N   0  0  0  0  0  0  0  0  0  0  0  0
   40.8360   32.3340   38.1150 C   0  0  0  0  0  0  0  0  0  0  0  0
   41.1030   33.6130   38.4900 N   0  0  0  0  0  0  0  0  0  0  0  0
   40.6870   35.1740   39.8450 H   0  0  0  0  0  0  0  0  0  0  0  0
   41.2610   31.7770   37.2940 H   0  0  0  0  0  0  0  0  0  0  0  0
   38.8240   34.0070   41.4290 N   0  0  0  0  0  0  0  0  0  0  0  0
   38.0570   34.6360   41.0790 H   0  0  0  0  0  0  0  0  0  0  0  0
   38.9490   33.9200   42.4450 H   0  0  0  0  0  0  0  0  0  0  0  0
  1  4  1  1  0  0  0
  2  3  1  0  0  0  0
  2  5  1  0  0  0  0
  2  1  1  0  0  0  0
  3  7  1  6  0  0  0
  3  1  1  0  0  0  0
  3  8  1  0  0  0  0
  6  2  1  0  0  0  0
  8  9  1  0  0  0  0
  9 10  1  0  0  0  0
  9 11  2  0  0  0  0
 12 11  1  0  0  0  0
 12 13  1  0  0  0  0
 14 12  2  0  0  0  0
 15 14  1  0  0  0  0
 16  8  2  0  0  0  0
 16 14  1  0  0  0  0
 17 23  1  0  0  0  0
 17 18  1  0  0  0  0
 18 25  1  0  0  0  0
 19 18  2  0  0  0  0
 19  1  1  0  0  0  0
 20 19  1  0  0  0  0
 21 22  1  0  0  0  0
 21 20  2  0  0  0  0
 22 17  2  0  0  0  0
 24 21  1  0  0  0  0
 25 27  1  0  0  0  0
 26 25  1  0  0  0  0
M  END
>  <minimizedAffinity>
-5.01974487

$$$$

 OpenBabel03252509253D

 27 29  0  0  1  0  0  0  0  0999 V2000
   38.0810   30.6990   40.9550 C   0  0  1  0  0  0  0  0  0  0  0  0
   37.8590   29.9020   39.6440 C   0  0  0  0  0  0  0  0  0  0  0  0
   38.6160   29.3860   40.9050 C   0  0  2  0  0  0  0  0  0  0  0  0
   37.1300   30.9720   41.4510 H   0  0  0  0  0  0  0  0  0  0  0  0
   36.8770   29.4220   39.4940 H   0  0  0  0  0  0  0  0  0  0  0  0
   38.4450   30.1340   38.7630 H   0  0  0  0  0  0  0  0  0  0  0  0
   39.7030   29.2400   40.7120 H   0  0  0  0  0  0  0  0  0  0  0  0
   37.9320   28.2940   41.6750 C   0  0  0  0  0  0  0  0  0  0  0  0
   37.8770   27.0240   41.1360 C   0  0  0  0  0  0  0  0  0  0  0  0
   38.3080   26.7870   40.1780 H   0  0  0  0  0  0  0  0  0  0  0  0
   37.2420   26.0000   41.8460 C   0  0  0  0  0  3  0  0  0  0  0  0
   36.7070   26.3660   43.0680 C   0  0  0  0  0  0  0  0  0  0  0  0
   36.2090   25.5650   43.6280 H   0  0  0  0  0  0  0  0  0  0  0  0
   36.7430   27.6270   43.6410 C   0  0  0  0  0  0  0  0  0  0  0  0
   36.2800   27.7670   44.6070 H   0  0  0  0  0  0  0  0  0  0  0  0
   37.3860   28.6220   42.9000 C   0  0  0  0  0  3  0  0  0  0  0  0
   39.3480   34.1600   40.2650 C   0  0  0  0  0  0  0  0  0  0  0  0
   38.4130   33.0720   40.3960 C   0  0  0  0  0  0  0  0  0  0  0  0
   38.9900   31.8720   40.7120 C   0  0  0  0  0  0  0  0  0  0  0  0
   40.3530   31.7320   40.8820 N   0  0  0  0  0  0  0  0  0  0  0  0
   41.1830   32.7810   40.7480 C   0  0  0  0  0  0  0  0  0  0  0  0
   40.6740   34.0010   40.4370 N   0  0  0  0  0  0  0  0  0  0  0  0
   38.9440   35.1330   40.0160 H   0  0  0  0  0  0  0  0  0  0  0  0
   42.2150   32.5110   40.9120 H   0  0  0  0  0  0  0  0  0  0  0  0
   37.0220   33.2320   40.1920 N   0  0  0  0  0  0  0  0  0  0  0  0
   36.8180   33.2680   39.1610 H   0  0  0  0  0  0  0  0  0  0  0  0
   36.2300   33.3140   40.8420 H   0  0  0  0  0  0  0  0  0  0  0  0
  1  4  1  1  0  0  0
  2  3  1  0  0  0  0
  2  1  1  0  0  0  0
  3  7  1  6  0  0  0
  3  1  1  0  0  0  0
  3  8  1  0  0  0  0
  5  2  1  0  0  0  0
  6  2  1  0  0  0  0
  8 16  1  0  0  0  0
  9  8  2  0  0  0  0
  9 11  1  0  0  0  0
 10  9  1  0  0  0  0
 11 12  2  0  0  0  0
 12 13  1  0  0  0  0
 12 14  1  0  0  0  0
 14 15  1  0  0  0  0
 16 14  2  0  0  0  0
 17 18  2  0  0  0  0
 17 22  1  0  0  0  0
 18 19  1  0  0  0  0
 19 20  2  0  0  0  0
 19  1  1  0  0  0  0
 21 20  1  0  0  0  0
 21 24  1  0  0  0  0
 22 21  2  0  0  0  0
 23 17  1  0  0  0  0
 25 18  1  0  0  0  0
 25 27  1  0  0  0  0
 26 25  1  0  0  0  0
M  END
>  <minimizedAffinity>
-4.92791796

$$$$

 OpenBabel03252509253D

 27 29  0  0  1  0  0  0  0  0999 V2000
   36.9490   29.0250   41.4430 C   0  0  1  0  0  0  0  0  0  0  0  0
   35.6060   28.9520   40.6720 C   0  0  0  0  0  0  0  0  0  0  0  0
   36.8930   28.1380   40.3390 C   0  0  2  0  0  0  0  0  0  0  0  0
   36.8460   28.7190   42.5020 H   0  0  0  0  0  0  0  0  0  0  0  0
   34.7970   28.3390   41.1040 H   0  0  0  0  0  0  0  0  0  0  0  0
   35.3250   29.7510   39.9970 H   0  0  0  0  0  0  0  0  0  0  0  0
   37.3410   28.4400   39.3650 H   0  0  0  0  0  0  0  0  0  0  0  0
   36.8150   26.6610   40.5960 C   0  0  0  0  0  0  0  0  0  0  0  0
   36.4600   25.8160   39.5640 C   0  0  0  0  0  0  0  0  0  0  0  0
   36.2340   26.1790   38.5760 H   0  0  0  0  0  0  0  0  0  0  0  0
   36.3850   24.4380   39.7950 C   0  0  0  0  0  3  0  0  0  0  0  0
   36.6840   24.0330   41.0840 C   0  0  0  0  0  0  0  0  0  0  0  0
   36.6270   22.9540   41.2680 H   0  0  0  0  0  0  0  0  0  0  0  0
   37.0440   24.8500   42.1430 C   0  0  0  0  0  0  0  0  0  0  0  0
   37.2510   24.3920   43.0990 H   0  0  0  0  0  0  0  0  0  0  0  0
   37.1080   26.2200   41.8710 C   0  0  0  0  0  3  0  0  0  0  0  0
   39.4120   31.8530   41.4910 C   0  0  0  0  0  0  0  0  0  0  0  0
   38.8430   30.5610   41.7770 C   0  0  0  0  0  0  0  0  0  0  0  0
   37.5850   30.3760   41.2690 C   0  0  0  0  0  0  0  0  0  0  0  0
   36.9300   31.3560   40.5500 N   0  0  0  0  0  0  0  0  0  0  0  0
   37.5070   32.5470   40.3110 C   0  0  0  0  0  0  0  0  0  0  0  0
   38.7550   32.7930   40.7860 N   0  0  0  0  0  0  0  0  0  0  0  0
   40.4060   32.0500   41.8690 H   0  0  0  0  0  0  0  0  0  0  0  0
   36.8700   33.2040   39.7370 H   0  0  0  0  0  0  0  0  0  0  0  0
   39.5210   29.5790   42.5380 N   0  0  0  0  0  0  0  0  0  0  0  0
   39.4600   29.8200   43.5590 H   0  0  0  0  0  0  0  0  0  0  0  0
   40.0310   28.7260   42.2740 H   0  0  0  0  0  0  0  0  0  0  0  0
  1  4  1  1  0  0  0
  2  5  1  0  0  0  0
  2  1  1  0  0  0  0
  3  7  1  6  0  0  0
  3  8  1  0  0  0  0
  3  2  1  0  0  0  0
  3  1  1  0  0  0  0
  6  2  1  0  0  0  0
  8 16  1  0  0  0  0
  9 11  1  0  0  0  0
  9  8  2  0  0  0  0
 10  9  1  0  0  0  0
 11 12  2  0  0  0  0
 12 13  1  0  0  0  0
 12 14  1  0  0  0  0
 14 15  1  0  0  0  0
 16 14  2  0  0  0  0
 17 18  1  0  0  0  0
 17 23  1  0  0  0  0
 18 25  1  0  0  0  0
 19  1  1  0  0  0  0
 19 18  2  0  0  0  0
 20 19  1  0  0  0  0
 21 20  2  0  0  0  0
 21 22  1  0  0  0  0
 22 17  2  0  0  0  0
 24 21  1  0  0  0  0
 25 26  1  0  0  0  0
 27 25  1  0  0  0  0
M  END
>  <minimizedAffinity>
-4.90455055

$$$$

 OpenBabel03252509253D

 27 29  0  0  1  0  0  0  0  0999 V2000
   37.7180   28.9320   41.1380 C   0  0  1  0  0  0  0  0  0  0  0  0
   36.5520   27.9640   40.8100 C   0  0  0  0  0  0  0  0  0  0  0  0
   38.0700   27.6520   40.6380 C   0  0  2  0  0  0  0  0  0  0  0  0
   37.7430   29.2180   42.2070 H   0  0  0  0  0  0  0  0  0  0  0  0
   36.0830   27.4210   41.6470 H   0  0  0  0  0  0  0  0  0  0  0  0
   35.9630   28.1110   39.9140 H   0  0  0  0  0  0  0  0  0  0  0  0
   38.3570   27.5370   39.5680 H   0  0  0  0  0  0  0  0  0  0  0  0
   38.6370   26.6340   41.5840 C   0  0  0  0  0  0  0  0  0  0  0  0
   39.1590   27.0540   42.7910 C   0  0  0  0  0  0  0  0  0  0  0  0
   39.1760   28.0910   43.0810 H   0  0  0  0  0  0  0  0  0  0  0  0
   39.6900   26.1120   43.6790 C   0  0  0  0  0  3  0  0  0  0  0  0
   39.6420   24.7970   43.2510 C   0  0  0  0  0  0  0  0  0  0  0  0
   40.0560   24.0560   43.9450 H   0  0  0  0  0  0  0  0  0  0  0  0
   39.1260   24.3390   42.0500 C   0  0  0  0  0  0  0  0  0  0  0  0
   39.1550   23.2770   41.8490 H   0  0  0  0  0  0  0  0  0  0  0  0
   38.6050   25.3110   41.1920 C   0  0  0  0  0  3  0  0  0  0  0  0
   36.8930   32.2190   39.5330 C   0  0  0  0  0  0  0  0  0  0  0  0
   36.7790   31.0900   40.4200 C   0  0  0  0  0  0  0  0  0  0  0  0
   37.7070   30.1080   40.2020 C   0  0  0  0  0  0  0  0  0  0  0  0
   38.6620   30.2050   39.2100 N   0  0  0  0  0  0  0  0  0  0  0  0
   38.7250   31.2820   38.4070 C   0  0  0  0  0  0  0  0  0  0  0  0
   37.8340   32.2940   38.5730 N   0  0  0  0  0  0  0  0  0  0  0  0
   36.1830   33.0250   39.6640 H   0  0  0  0  0  0  0  0  0  0  0  0
   39.5240   31.2090   37.6840 H   0  0  0  0  0  0  0  0  0  0  0  0
   35.7760   30.9990   41.4150 N   0  0  0  0  0  0  0  0  0  0  0  0
   34.8620   30.7290   40.9710 H   0  0  0  0  0  0  0  0  0  0  0  0
   35.7920   31.1450   42.4320 H   0  0  0  0  0  0  0  0  0  0  0  0
  1  4  1  1  0  0  0
  2  1  1  0  0  0  0
  2  5  1  0  0  0  0
  3  7  1  6  0  0  0
  3  2  1  0  0  0  0
  3  1  1  0  0  0  0
  3  8  1  0  0  0  0
  6  2  1  0  0  0  0
  8  9  1  0  0  0  0
  9 10  1  0  0  0  0
  9 11  2  0  0  0  0
 12 11  1  0  0  0  0
 12 13  1  0  0  0  0
 14 12  2  0  0  0  0
 15 14  1  0  0  0  0
 16  8  2  0  0  0  0
 16 14  1  0  0  0  0
 17 23  1  0  0  0  0
 17 18  1  0  0  0  0
 18 25  1  0  0  0  0
 19 18  2  0  0  0  0
 19  1  1  0  0  0  0
 20 19  1  0  0  0  0
 21 22  1  0  0  0  0
 21 20  2  0  0  0  0
 22 17  2  0  0  0  0
 24 21  1  0  0  0  0
 25 27  1  0  0  0  0
 26 25  1  0  0  0  0
M  END
>  <minimizedAffinity>
-4.83378553

$$$$

 OpenBabel03252509253D

 27 29  0  0  1  0  0  0  0  0999 V2000
   35.8910   28.8880   39.3050 C   0  0  1  0  0  0  0  0  0  0  0  0
   34.5590   28.7770   38.5190 C   0  0  0  0  0  0  0  0  0  0  0  0
   35.8680   27.9920   38.2060 C   0  0  2  0  0  0  0  0  0  0  0  0
   35.7840   28.5870   40.3650 H   0  0  0  0  0  0  0  0  0  0  0  0
   33.7600   28.1480   38.9470 H   0  0  0  0  0  0  0  0  0  0  0  0
   34.2660   29.5640   37.8350 H   0  0  0  0  0  0  0  0  0  0  0  0
   36.3200   28.2970   37.2350 H   0  0  0  0  0  0  0  0  0  0  0  0
   35.8230   26.5150   38.4740 C   0  0  0  0  0  0  0  0  0  0  0  0
   35.1540   25.6920   37.5910 C   0  0  0  0  0  0  0  0  0  0  0  0
   34.6590   26.0710   36.7130 H   0  0  0  0  0  0  0  0  0  0  0  0
   35.1070   24.3150   37.8330 C   0  0  0  0  0  3  0  0  0  0  0  0
   35.7580   23.8880   38.9770 C   0  0  0  0  0  0  0  0  0  0  0  0
   35.7230   22.8080   39.1690 H   0  0  0  0  0  0  0  0  0  0  0  0
   36.4390   24.6830   39.8840 C   0  0  0  0  0  0  0  0  0  0  0  0
   36.9030   24.2090   40.7370 H   0  0  0  0  0  0  0  0  0  0  0  0
   36.4630   26.0530   39.6060 C   0  0  0  0  0  3  0  0  0  0  0  0
   37.1110   32.3740   39.9580 C   0  0  0  0  0  0  0  0  0  0  0  0
   36.4320   31.1230   40.1810 C   0  0  0  0  0  0  0  0  0  0  0  0
   36.4970   30.2530   39.1260 C   0  0  0  0  0  0  0  0  0  0  0  0
   37.1550   30.5640   37.9540 N   0  0  0  0  0  0  0  0  0  0  0  0
   37.7730   31.7480   37.7950 C   0  0  0  0  0  0  0  0  0  0  0  0
   37.7490   32.6560   38.8060 N   0  0  0  0  0  0  0  0  0  0  0  0
   37.0920   33.0980   40.7610 H   0  0  0  0  0  0  0  0  0  0  0  0
   38.2410   31.8400   36.8270 H   0  0  0  0  0  0  0  0  0  0  0  0
   35.7410   30.8330   41.3820 N   0  0  0  0  0  0  0  0  0  0  0  0
   34.8120   31.3250   41.3810 H   0  0  0  0  0  0  0  0  0  0  0  0
   35.9820   30.2610   42.2010 H   0  0  0  0  0  0  0  0  0  0  0  0
  1  4  1  1  0  0  0
  2  5  1  0  0  0  0
  2  1  1  0  0  0  0
  3  7  1  6  0  0  0
  3  8  1  0  0  0  0
  3  2  1  0  0  0  0
  3  1  1  0  0  0  0
  6  2  1  0  0  0  0
  8 16  1  0  0  0  0
  9 11  1  0  0  0  0
  9  8  2  0  0  0  0
 10  9  1  0  0  0  0
 11 12  2  0  0  0  0
 12 13  1  0  0  0  0
 12 14  1  0  0  0  0
 14 15  1  0  0  0  0
 16 14  2  0  0  0  0
 17 18  1  0  0  0  0
 17 23  1  0  0  0  0
 18 25  1  0  0  0  0
 19  1  1  0  0  0  0
 19 18  2  0  0  0  0
 20 19  1  0  0  0  0
 21 20  2  0  0  0  0
 21 22  1  0  0  0  0
 22 17  2  0  0  0  0
 24 21  1  0  0  0  0
 25 27  1  0  0  0  0
 26 25  1  0  0  0  0
M  END
>  <minimizedAffinity>
-4.63290834

$$$$

 OpenBabel03252509253D

 27 29  0  0  1  0  0  0  0  0999 V2000
   35.0910   29.3630   38.9980 C   0  0  1  0  0  0  0  0  0  0  0  0
   35.9750   29.7460   37.7840 C   0  0  0  0  0  0  0  0  0  0  0  0
   34.8490   28.6680   37.7860 C   0  0  2  0  0  0  0  0  0  0  0  0
   34.4860   30.2130   39.3670 H   0  0  0  0  0  0  0  0  0  0  0  0
   35.7100   30.6580   37.2210 H   0  0  0  0  0  0  0  0  0  0  0  0
   37.0010   29.4040   37.7310 H   0  0  0  0  0  0  0  0  0  0  0  0
   35.2520   27.6390   37.6490 H   0  0  0  0  0  0  0  0  0  0  0  0
   33.6230   29.0040   36.9880 C   0  0  0  0  0  0  0  0  0  0  0  0
   32.4720   29.3830   37.6510 C   0  0  0  0  0  0  0  0  0  0  0  0
   32.4210   29.4450   38.7250 H   0  0  0  0  0  0  0  0  0  0  0  0
   31.3240   29.6990   36.9160 C   0  0  0  0  0  3  0  0  0  0  0  0
   31.4510   29.5990   35.5420 C   0  0  0  0  0  0  0  0  0  0  0  0
   30.5530   29.8460   34.9620 H   0  0  0  0  0  0  0  0  0  0  0  0
   32.5860   29.2230   34.8430 C   0  0  0  0  0  0  0  0  0  0  0  0
   32.5390   29.1900   33.7630 H   0  0  0  0  0  0  0  0  0  0  0  0
   33.7110   28.9170   35.6130 C   0  0  0  0  0  3  0  0  0  0  0  0
   36.9070   28.6930   42.2100 C   0  0  0  0  0  0  0  0  0  0  0  0
   36.1820   29.4250   41.2030 C   0  0  0  0  0  0  0  0  0  0  0  0
   35.9190   28.7060   40.0670 C   0  0  0  0  0  0  0  0  0  0  0  0
   36.3240   27.3960   39.9150 N   0  0  0  0  0  0  0  0  0  0  0  0
   36.9990   26.7580   40.8880 C   0  0  0  0  0  0  0  0  0  0  0  0
   37.2900   27.4140   42.0410 N   0  0  0  0  0  0  0  0  0  0  0  0
   37.1400   29.2150   43.1290 H   0  0  0  0  0  0  0  0  0  0  0  0
   37.2440   25.7410   40.6190 H   0  0  0  0  0  0  0  0  0  0  0  0
   35.7980   30.7770   41.3690 N   0  0  0  0  0  0  0  0  0  0  0  0
   36.6290   31.4010   41.2100 H   0  0  0  0  0  0  0  0  0  0  0  0
   34.9010   31.2200   41.6050 H   0  0  0  0  0  0  0  0  0  0  0  0
  1  4  1  1  0  0  0
  1 19  1  0  0  0  0
  2  3  1  0  0  0  0
  2  1  1  0  0  0  0
  3  7  1  6  0  0  0
  3  1  1  0  0  0  0
  5  2  1  0  0  0  0
  6  2  1  0  0  0  0
  8  9  1  0  0  0  0
  8  3  1  0  0  0  0
  9 10  1  0  0  0  0
 11  9  2  0  0  0  0
 12 11  1  0  0  0  0
 13 12  1  0  0  0  0
 14 12  2  0  0  0  0
 14 16  1  0  0  0  0
 15 14  1  0  0  0  0
 16  8  2  0  0  0  0
 17 23  1  0  0  0  0
 18 25  1  0  0  0  0
 18 17  2  0  0  0  0
 19 18  1  0  0  0  0
 20 19  2  0  0  0  0
 20 21  1  0  0  0  0
 21 22  2  0  0  0  0
 22 17  1  0  0  0  0
 24 21  1  0  0  0  0
 25 27  1  0  0  0  0
 26 25  1  0  0  0  0
M  END
>  <minimizedAffinity>
-4.63140249

$$$$

 OpenBabel03252509253D

 27 29  0  0  1  0  0  0  0  0999 V2000
   36.5530   30.5460   39.9300 C   0  0  1  0  0  0  0  0  0  0  0  0
   36.9690   31.5380   38.8140 C   0  0  0  0  0  0  0  0  0  0  0  0
   36.8730   29.9890   38.6660 C   0  0  2  0  0  0  0  0  0  0  0  0
   35.5240   30.7260   40.2960 H   0  0  0  0  0  0  0  0  0  0  0  0
   36.1670   32.0810   38.2830 H   0  0  0  0  0  0  0  0  0  0  0  0
   37.9550   31.9850   38.8250 H   0  0  0  0  0  0  0  0  0  0  0  0
   37.8700   29.5200   38.5050 H   0  0  0  0  0  0  0  0  0  0  0  0
   35.7610   29.4850   37.7920 C   0  0  0  0  0  0  0  0  0  0  0  0
   34.5780   29.0790   38.3760 C   0  0  0  0  0  0  0  0  0  0  0  0
   34.4220   29.1100   39.4410 H   0  0  0  0  0  0  0  0  0  0  0  0
   33.5370   28.6080   37.5700 C   0  0  0  0  0  3  0  0  0  0  0  0
   33.7960   28.5900   36.2110 C   0  0  0  0  0  0  0  0  0  0  0  0
   32.9820   28.2220   35.5750 H   0  0  0  0  0  0  0  0  0  0  0  0
   34.9680   28.9890   35.5900 C   0  0  0  0  0  0  0  0  0  0  0  0
   35.0300   28.9200   34.5130 H   0  0  0  0  0  0  0  0  0  0  0  0
   35.9840   29.4540   36.4300 C   0  0  0  0  0  3  0  0  0  0  0  0
   38.5260   29.5660   42.9650 C   0  0  0  0  0  0  0  0  0  0  0  0
   37.4520   29.5750   42.0050 C   0  0  0  0  0  0  0  0  0  0  0  0
   37.5840   30.5220   41.0250 C   0  0  0  0  0  0  0  0  0  0  0  0
   38.6570   31.3880   40.9760 N   0  0  0  0  0  0  0  0  0  0  0  0
   39.6350   31.3380   41.8990 C   0  0  0  0  0  0  0  0  0  0  0  0
   39.5650   30.4190   42.8970 N   0  0  0  0  0  0  0  0  0  0  0  0
   38.4720   28.8350   43.7610 H   0  0  0  0  0  0  0  0  0  0  0  0
   40.4020   32.0770   41.7240 H   0  0  0  0  0  0  0  0  0  0  0  0
   36.3470   28.6950   42.0870 N   0  0  0  0  0  0  0  0  0  0  0  0
   35.6780   29.0360   42.8230 H   0  0  0  0  0  0  0  0  0  0  0  0
   36.1070   27.8330   41.5800 H   0  0  0  0  0  0  0  0  0  0  0  0
  1  4  1  1  0  0  0
  1 19  1  0  0  0  0
  2  6  1  0  0  0  0
  2  1  1  0  0  0  0
  3  7  1  6  0  0  0
  3  2  1  0  0  0  0
  3  1  1  0  0  0  0
  5  2  1  0  0  0  0
  8  9  1  0  0  0  0
  8  3  1  0  0  0  0
  9 10  1  0  0  0  0
 11  9  2  0  0  0  0
 12 11  1  0  0  0  0
 13 12  1  0  0  0  0
 14 12  2  0  0  0  0
 14 16  1  0  0  0  0
 15 14  1  0  0  0  0
 16  8  2  0  0  0  0
 17 23  1  0  0  0  0
 18 25  1  0  0  0  0
 18 17  2  0  0  0  0
 19 18  1  0  0  0  0
 20 19  2  0  0  0  0
 20 21  1  0  0  0  0
 21 22  2  0  0  0  0
 22 17  1  0  0  0  0
 24 21  1  0  0  0  0
 25 26  1  0  0  0  0
 27 25  1  0  0  0  0
M  END
>  <minimizedAffinity>
-4.62050676

$$$$
