
 OpenBabel03252506493D

 29 31  0  0  0  0  0  0  0  0999 V2000
   44.0580   34.3450   41.2280 C   0  0  0  0  0  0  0  0  0  0  0  0
   44.8090   33.7880   40.1850 C   0  0  0  0  0  0  0  0  0  0  0  0
   45.8380   32.8920   40.5040 C   0  0  0  0  0  0  0  0  0  0  0  0
   46.0530   32.6120   41.8210 N   0  0  0  0  0  0  0  0  0  0  0  0
   45.3090   33.1690   42.7930 C   0  0  0  0  0  0  0  0  0  0  0  0
   44.3110   34.0340   42.5260 N   0  0  0  0  0  0  0  0  0  0  0  0
   44.6290   34.0180   39.1570 H   0  0  0  0  0  0  0  0  0  0  0  0
   46.4470   32.4350   39.7260 H   0  0  0  0  0  0  0  0  0  0  0  0
   45.6270   32.7960   44.1660 C   0  0  0  0  0  0  0  0  0  0  0  0
   45.9910   31.5220   44.5470 C   0  0  0  0  0  0  0  0  0  0  0  0
   46.0480   30.7370   43.7830 H   0  0  0  0  0  0  0  0  0  0  0  0
   46.2940   31.1650   45.8440 C   0  0  0  0  0  0  0  0  0  0  0  0
   46.2280   32.1400   46.8200 C   0  0  0  0  0  0  0  0  0  0  0  0
   46.4440   31.9720   47.8650 H   0  0  0  0  0  0  0  0  0  0  0  0
   45.8640   33.4400   46.4710 C   0  0  0  0  0  0  0  0  0  0  0  0
   45.8040   34.2310   47.2210 H   0  0  0  0  0  0  0  0  0  0  0  0
   45.5630   33.7730   45.1460 C   0  0  0  0  0  0  0  0  0  0  0  0
   42.7700   35.4750   40.7130 S   0  0  0  0  0  0  0  0  0  0  0  0
   41.2260   35.5700   37.9150 Cl  0  0  0  0  0  0  0  0  0  0  0  0
   40.5020   34.6630   39.2470 C   0  0  0  0  0  0  0  0  0  0  0  0
   41.2230   34.6730   40.4010 C   0  0  0  0  0  0  0  0  0  0  0  0
   40.7140   33.9790   41.4900 C   0  0  0  0  0  0  0  0  0  0  0  0
   39.4920   33.3030   41.3610 C   0  0  0  0  0  0  0  0  0  0  0  0
   38.7660   33.2970   40.1880 C   0  0  0  0  0  0  0  0  0  0  0  0
   39.3020   34.0050   39.1040 C   0  0  0  0  0  0  0  0  0  0  0  0
   38.4720   34.0710   37.5610 Cl  0  0  0  0  0  0  0  0  0  0  0  0
   41.1850   33.9150   42.4430 H   0  0  0  0  0  0  0  0  0  0  0  0
   39.0650   32.7530   42.1890 H   0  0  0  0  0  0  0  0  0  0  0  0
   37.8400   32.7840   40.0920 H   0  0  0  0  0  0  0  0  0  0  0  0
  1  6  1  0  0  0  0
  2  3  1  0  0  0  0
  2  1  2  0  0  0  0
  3  4  2  0  0  0  0
  4  5  1  0  0  0  0
  5  9  1  0  0  0  0
  6  5  2  0  0  0  0
  7  2  1  0  0  0  0
  8  3  1  0  0  0  0
  9 10  2  0  0  0  0
  9 17  1  0  0  0  0
 10 12  1  0  0  0  0
 11 10  1  0  0  0  0
 12 13  2  0  0  0  0
 13 14  1  0  0  0  0
 15 13  1  0  0  0  0
 15 16  1  0  0  0  0
 17 15  2  0  0  0  0
 18  1  1  0  0  0  0
 19 20  1  0  0  0  0
 20 21  1  0  0  0  0
 21 18  1  0  0  0  0
 21 22  2  0  0  0  0
 22 27  1  0  0  0  0
 23 22  1  0  0  0  0
 23 28  1  0  0  0  0
 24 23  2  0  0  0  0
 25 20  2  0  0  0  0
 25 24  1  0  0  0  0
 26 25  1  0  0  0  0
 29 24  1  0  0  0  0
M  END
>  <minimizedAffinity>
-5.30403996

>  <minimizedRMSD>
4.08217049

$$$$
