
 OpenBabel03242520343D

 28 30  0  0  1  0  0  0  0  0999 V2000
   46.0140   33.1250   42.7390 C   0  0  0  0  0  0  0  0  0  0  0  0
   47.3100   32.7360   42.2670 C   0  0  0  0  0  0  0  0  0  0  0  0
   48.1130   32.0100   43.1260 C   0  0  0  0  0  0  0  0  0  0  0  0
   47.6230   31.7110   44.3630 N   0  0  0  0  0  0  0  0  0  0  0  0
   46.4180   32.0790   44.7850 C   0  0  0  0  0  0  0  0  0  0  0  0
   45.6200   32.7920   43.9550 N   0  0  0  0  0  0  0  0  0  0  0  0
   45.3840   33.6880   42.0800 H   0  0  0  0  0  0  0  0  0  0  0  0
   49.0860   31.7050   42.8040 H   0  0  0  0  0  0  0  0  0  0  0  0
   45.9660   31.7200   46.1250 C   0  0  0  0  0  0  0  0  0  0  0  0
   45.6750   30.3970   46.4350 C   0  0  0  0  0  0  0  0  0  0  0  0
   45.7970   29.6590   45.6520 H   0  0  0  0  0  0  0  0  0  0  0  0
   45.2480   30.0810   47.7110 C   0  0  0  0  0  0  0  0  0  0  0  0
   45.1370   31.1200   48.6130 C   0  0  0  0  0  0  0  0  0  0  0  0
   44.7990   30.9020   49.6360 H   0  0  0  0  0  0  0  0  0  0  0  0
   45.4130   32.4540   48.3580 C   0  0  0  0  0  0  0  0  0  0  0  0
   45.2960   33.2010   49.1270 H   0  0  0  0  0  0  0  0  0  0  0  0
   45.8400   32.7330   47.0600 C   0  0  0  0  0  0  0  0  0  0  0  0
   47.7950   33.1040   40.9060 C   0  0  1  0  0  0  0  0  0  0  0  0
   47.1300   34.1440   40.1500 C   0  0  0  0  0  0  0  0  0  0  0  0
   48.4610   34.4620   40.7280 C   0  0  1  0  0  0  0  0  0  0  0  0
   48.2770   32.2550   40.3980 H   0  0  0  0  0  0  0  0  0  0  0  0
   46.2610   34.6610   40.6520 H   0  0  0  0  0  0  0  0  0  0  0  0
   46.9910   34.0820   39.0530 H   0  0  0  0  0  0  0  0  0  0  0  0
   49.3120   34.4640   40.0220 H   0  0  0  0  0  0  0  0  0  0  0  0
   48.5950   35.3900   41.8840 C   0  0  0  0  0  0  0  0  0  0  0  0
   49.2850   36.5430   41.5480 F   0  0  0  0  0  0  0  0  0  0  0  0
   49.2410   34.7740   42.9560 F   0  0  0  0  0  0  0  0  0  0  0  0
   47.3410   35.7710   42.2800 F   0  0  0  0  0  0  0  0  0  0  0  0
  1  6  1  0  0  0  0
  2  1  2  0  0  0  0
  2  3  1  0  0  0  0
  3  4  2  0  0  0  0
  4  5  1  0  0  0  0
  5  9  1  0  0  0  0
  6  5  2  0  0  0  0
  7  1  1  0  0  0  0
  8  3  1  0  0  0  0
  9 10  2  0  0  0  0
  9 17  1  0  0  0  0
 10 12  1  0  0  0  0
 11 10  1  0  0  0  0
 12 13  2  0  0  0  0
 13 14  1  0  0  0  0
 15 13  1  0  0  0  0
 15 16  1  0  0  0  0
 17 15  2  0  0  0  0
 18 21  1  6  0  0  0
 18  2  1  0  0  0  0
 19 22  1  0  0  0  0
 19 20  1  0  0  0  0
 19 18  1  0  0  0  0
 20 24  1  6  0  0  0
 20 18  1  0  0  0  0
 20 25  1  0  0  0  0
 23 19  1  0  0  0  0
 25 28  1  0  0  0  0
 25 27  1  0  0  0  0
 26 25  1  0  0  0  0
M  END
>  <minimizedAffinity>
-5.43940592

>  <minimizedRMSD>
2.06546259

$$$$
