
 OpenBabel03252509243D

 27 29  0  0  1  0  0  0  0  0999 V2000
   46.9590   34.7750   41.9440 C   0  0  1  0  0  0  0  0  0  0  0  0
   48.3340   35.4870   42.0260 C   0  0  0  0  0  0  0  0  0  0  0  0
   48.1040   33.9870   41.6650 C   0  0  2  0  0  0  0  0  0  0  0  0
   46.2970   35.2180   41.1750 H   0  0  0  0  0  0  0  0  0  0  0  0
   48.6460   36.1030   41.1650 H   0  0  0  0  0  0  0  0  0  0  0  0
   48.7700   35.7130   42.9900 H   0  0  0  0  0  0  0  0  0  0  0  0
   48.5060   33.3010   42.4450 H   0  0  0  0  0  0  0  0  0  0  0  0
   48.3950   33.6070   40.2420 C   0  0  0  0  0  0  0  0  0  0  0  0
   47.9730   34.4380   39.2240 C   0  0  0  0  0  0  0  0  0  0  0  0
   47.4400   35.3550   39.4130 H   0  0  0  0  0  0  0  0  0  0  0  0
   48.2390   34.0920   37.8950 C   0  0  0  0  0  3  0  0  0  0  0  0
   48.9270   32.9040   37.7150 C   0  0  0  0  0  0  0  0  0  0  0  0
   49.1370   32.6290   36.6760 H   0  0  0  0  0  0  0  0  0  0  0  0
   49.3650   32.0460   38.7110 C   0  0  0  0  0  0  0  0  0  0  0  0
   49.8930   31.1480   38.4210 H   0  0  0  0  0  0  0  0  0  0  0  0
   49.0790   32.4280   40.0240 C   0  0  0  0  0  3  0  0  0  0  0  0
   44.6990   35.3610   44.8790 C   0  0  0  0  0  0  0  0  0  0  0  0
   45.3060   35.5630   43.5890 C   0  0  0  0  0  0  0  0  0  0  0  0
   46.3250   34.6940   43.3050 C   0  0  0  0  0  0  0  0  0  0  0  0
   46.7270   33.7160   44.1930 N   0  0  0  0  0  0  0  0  0  0  0  0
   46.1270   33.5690   45.3870 C   0  0  0  0  0  0  0  0  0  0  0  0
   45.1060   34.3990   45.7290 N   0  0  0  0  0  0  0  0  0  0  0  0
   43.8870   36.0210   45.1530 H   0  0  0  0  0  0  0  0  0  0  0  0
   46.5530   32.7630   45.9650 H   0  0  0  0  0  0  0  0  0  0  0  0
   44.8960   36.5890   42.7040 N   0  0  0  0  0  0  0  0  0  0  0  0
   45.2920   37.5090   43.0230 H   0  0  0  0  0  0  0  0  0  0  0  0
   44.3120   36.5830   41.8580 H   0  0  0  0  0  0  0  0  0  0  0  0
  1  4  1  6  0  0  0
  1  2  1  0  0  0  0
  1 19  1  0  0  0  0
  2  6  1  0  0  0  0
  3  1  1  0  0  0  0
  3  2  1  0  0  0  0
  3  7  1  1  0  0  0
  5  2  1  0  0  0  0
  8  3  1  0  0  0  0
  9 10  1  0  0  0  0
  9  8  2  0  0  0  0
 11  9  1  0  0  0  0
 12 11  2  0  0  0  0
 12 14  1  0  0  0  0
 13 12  1  0  0  0  0
 14 16  2  0  0  0  0
 15 14  1  0  0  0  0
 16  8  1  0  0  0  0
 17 23  1  0  0  0  0
 17 22  1  0  0  0  0
 18 17  2  0  0  0  0
 19 18  1  0  0  0  0
 19 20  2  0  0  0  0
 20 21  1  0  0  0  0
 21 22  2  0  0  0  0
 21 24  1  0  0  0  0
 25 26  1  0  0  0  0
 25 18  1  0  0  0  0
 27 25  1  0  0  0  0
M  END
>  <minimizedAffinity>
-5.02870893

>  <minimizedRMSD>
0.882162213

$$$$
