
 OpenBabel03252508363D

 31 33  0  0  0  0  0  0  0  0999 V2000
   45.1300   33.9400   40.7010 C   0  0  0  0  0  0  0  0  0  0  0  0
   44.0790   33.6360   39.8760 C   0  0  0  0  0  0  0  0  0  0  0  0
   44.3790   33.1560   38.6310 C   0  0  0  0  0  0  0  0  0  0  0  0
   45.6610   32.9670   38.1710 C   0  0  0  0  0  0  0  0  0  0  0  0
   46.6940   33.2820   39.0230 C   0  0  0  0  0  0  0  0  0  0  0  0
   46.4400   33.7680   40.2860 C   0  0  0  0  0  0  0  0  0  0  0  0
   43.5480   32.9150   37.9790 H   0  0  0  0  0  0  0  0  0  0  0  0
   45.7860   32.5790   37.1610 H   0  0  0  0  0  0  0  0  0  0  0  0
   47.7080   33.1320   38.6600 H   0  0  0  0  0  0  0  0  0  0  0  0
   40.7960   35.2590   40.7910 C   0  0  0  0  0  0  0  0  0  0  0  0
   42.0950   35.0930   40.2730 C   0  0  0  0  0  0  0  0  0  0  0  0
   42.7440   33.8490   40.3960 C   0  0  0  0  0  0  0  0  0  0  0  0
   42.0330   32.8830   41.0260 N   0  0  0  0  0  0  0  0  0  0  0  0
   40.8040   33.0610   41.5090 C   0  0  0  0  0  0  0  0  0  0  0  0
   40.1890   34.2450   41.3920 N   0  0  0  0  0  0  0  0  0  0  0  0
   40.1920   36.5270   40.6410 N   0  0  0  0  0  0  0  0  0  0  0  0
   42.6030   35.9130   39.7800 H   0  0  0  0  0  0  0  0  0  0  0  0
   40.2800   32.2460   42.0080 H   0  0  0  0  0  0  0  0  0  0  0  0
   40.5780   37.2800   41.2700 H   0  0  0  0  0  0  0  0  0  0  0  0
   39.4200   36.7060   39.9570 H   0  0  0  0  0  0  0  0  0  0  0  0
   47.6010   34.0730   41.1160 C   0  0  0  0  0  0  0  0  0  0  0  0
   48.1380   35.3320   40.9510 C   0  0  0  0  0  0  0  0  0  0  0  0
   47.7360   36.0620   40.2530 H   0  0  0  0  0  0  0  0  0  0  0  0
   49.2440   35.8030   41.6530 C   0  0  0  0  0  0  0  0  0  0  0  0
   49.8270   34.9460   42.5650 C   0  0  0  0  0  0  0  0  0  0  0  0
   50.6860   35.2510   43.1410 H   0  0  0  0  0  0  0  0  0  0  0  0
   49.3100   33.6820   42.7500 C   0  0  0  0  0  0  0  0  0  0  0  0
   49.7250   32.9580   43.4560 H   0  0  0  0  0  0  0  0  0  0  0  0
   48.2050   33.2420   42.0360 C   0  0  0  0  0  0  0  0  0  0  0  0
   44.7210   34.8620   43.1110 N   0  0  0  0  0  0  0  0  0  0  0  0
   44.9030   34.4510   42.0270 C   0  0  0  0  0  0  0  0  0  0  0  0
  1 31  1  0  0  0  0
  2 12  1  0  0  0  0
  2  1  2  0  0  0  0
  3  2  1  0  0  0  0
  4  3  2  0  0  0  0
  4  5  1  0  0  0  0
  5  6  2  0  0  0  0
  6  1  1  0  0  0  0
  6 21  1  0  0  0  0
  7  3  1  0  0  0  0
  8  4  1  0  0  0  0
  9  5  1  0  0  0  0
 10 15  1  0  0  0  0
 11 12  1  0  0  0  0
 11 10  2  0  0  0  0
 12 13  2  0  0  0  0
 13 14  1  0  0  0  0
 14 18  1  0  0  0  0
 15 14  2  0  0  0  0
 16 10  1  0  0  0  0
 16 19  1  0  0  0  0
 17 11  1  0  0  0  0
 20 16  1  0  0  0  0
 21 29  1  0  0  0  0
 22 21  2  0  0  0  0
 22 24  1  0  0  0  0
 23 22  1  0  0  0  0
 24 25  2  0  0  0  0
 25 27  1  0  0  0  0
 25 26  1  0  0  0  0
 27 28  1  0  0  0  0
 29 27  2  0  0  0  0
 31 30  3  0  0  0  0
M  END
>  <minimizedAffinity>
-5.81200981

>  <minimizedRMSD>
4.3499527

$$$$
