
 OpenBabel03252509243D

 27 29  0  0  1  0  0  0  0  0999 V2000
   46.5440   34.7240   42.0100 C   0  0  1  0  0  0  0  0  0  0  0  0
   47.9910   35.2810   41.9840 C   0  0  0  0  0  0  0  0  0  0  0  0
   47.5770   33.8070   41.6890 C   0  0  2  0  0  0  0  0  0  0  0  0
   45.8870   35.2160   41.2680 H   0  0  0  0  0  0  0  0  0  0  0  0
   48.3120   35.8350   41.0860 H   0  0  0  0  0  0  0  0  0  0  0  0
   48.5110   35.4830   42.9120 H   0  0  0  0  0  0  0  0  0  0  0  0
   47.9520   33.1020   42.4650 H   0  0  0  0  0  0  0  0  0  0  0  0
   47.7330   33.3590   40.2640 C   0  0  0  0  0  0  0  0  0  0  0  0
   46.7020   33.5810   39.3730 C   0  0  0  0  0  0  0  0  0  0  0  0
   45.7860   34.0670   39.6610 H   0  0  0  0  0  0  0  0  0  0  0  0
   46.8390   33.1670   38.0440 C   0  0  0  0  0  3  0  0  0  0  0  0
   48.0380   32.5500   37.7320 C   0  0  0  0  0  0  0  0  0  0  0  0
   48.1480   32.2240   36.6900 H   0  0  0  0  0  0  0  0  0  0  0  0
   49.0920   32.3100   38.5970 C   0  0  0  0  0  0  0  0  0  0  0  0
   49.9720   31.8150   38.2140 H   0  0  0  0  0  0  0  0  0  0  0  0
   48.9160   32.7380   39.9170 C   0  0  0  0  0  3  0  0  0  0  0  0
   44.5320   35.6110   45.0480 C   0  0  0  0  0  0  0  0  0  0  0  0
   45.0700   35.7110   43.7160 C   0  0  0  0  0  0  0  0  0  0  0  0
   45.9950   34.7490   43.4100 C   0  0  0  0  0  0  0  0  0  0  0  0
   46.3720   33.7760   44.3130 N   0  0  0  0  0  0  0  0  0  0  0  0
   45.8390   33.7270   45.5470 C   0  0  0  0  0  0  0  0  0  0  0  0
   44.9140   34.6520   45.9130 N   0  0  0  0  0  0  0  0  0  0  0  0
   43.7960   36.3470   45.3410 H   0  0  0  0  0  0  0  0  0  0  0  0
   46.2350   32.9110   46.1330 H   0  0  0  0  0  0  0  0  0  0  0  0
   44.6880   36.7320   42.8130 N   0  0  0  0  0  0  0  0  0  0  0  0
   45.1770   37.6270   43.0660 H   0  0  0  0  0  0  0  0  0  0  0  0
   44.0530   36.7420   42.0050 H   0  0  0  0  0  0  0  0  0  0  0  0
  1  4  1  6  0  0  0
  1 19  1  0  0  0  0
  2  1  1  0  0  0  0
  2  6  1  0  0  0  0
  3  2  1  0  0  0  0
  3  1  1  0  0  0  0
  3  7  1  1  0  0  0
  5  2  1  0  0  0  0
  8  3  1  0  0  0  0
  9 10  1  0  0  0  0
  9  8  2  0  0  0  0
 11  9  1  0  0  0  0
 12 11  2  0  0  0  0
 12 14  1  0  0  0  0
 13 12  1  0  0  0  0
 14 16  2  0  0  0  0
 15 14  1  0  0  0  0
 16  8  1  0  0  0  0
 17 23  1  0  0  0  0
 17 22  1  0  0  0  0
 18 17  2  0  0  0  0
 19 18  1  0  0  0  0
 19 20  2  0  0  0  0
 20 21  1  0  0  0  0
 21 22  2  0  0  0  0
 21 24  1  0  0  0  0
 25 26  1  0  0  0  0
 25 18  1  0  0  0  0
 27 25  1  0  0  0  0
M  END
>  <minimizedAffinity>
-4.750319

>  <minimizedRMSD>
0.575562835

$$$$
