
 OpenBabel03252509243D

 27 29  0  0  1  0  0  0  0  0999 V2000
   46.5180   35.0300   41.9620 C   0  0  1  0  0  0  0  0  0  0  0  0
   48.0420   35.3120   41.9230 C   0  0  0  0  0  0  0  0  0  0  0  0
   47.3360   34.0450   41.3520 C   0  0  2  0  0  0  0  0  0  0  0  0
   45.9320   35.7900   41.4100 H   0  0  0  0  0  0  0  0  0  0  0  0
   48.4190   35.9950   41.1420 H   0  0  0  0  0  0  0  0  0  0  0  0
   48.6380   35.1980   42.8190 H   0  0  0  0  0  0  0  0  0  0  0  0
   47.6050   33.1240   41.9170 H   0  0  0  0  0  0  0  0  0  0  0  0
   47.3290   33.9200   39.8560 C   0  0  0  0  0  0  0  0  0  0  0  0
   48.3440   34.5100   39.1270 C   0  0  0  0  0  0  0  0  0  0  0  0
   49.1430   35.0570   39.5940 H   0  0  0  0  0  0  0  0  0  0  0  0
   48.3450   34.3970   37.7330 C   0  0  0  0  0  3  0  0  0  0  0  0
   47.2930   33.6810   37.1910 C   0  0  0  0  0  0  0  0  0  0  0  0
   47.2910   33.5910   36.0990 H   0  0  0  0  0  0  0  0  0  0  0  0
   46.2590   33.0780   37.8890 C   0  0  0  0  0  0  0  0  0  0  0  0
   45.5010   32.5480   37.3310 H   0  0  0  0  0  0  0  0  0  0  0  0
   46.2940   33.2130   39.2810 C   0  0  0  0  0  3  0  0  0  0  0  0
   44.6650   35.3720   45.2040 C   0  0  0  0  0  0  0  0  0  0  0  0
   45.1150   35.6890   43.8730 C   0  0  0  0  0  0  0  0  0  0  0  0
   46.0560   34.8260   43.3780 C   0  0  0  0  0  0  0  0  0  0  0  0
   46.5260   33.7520   44.1060 N   0  0  0  0  0  0  0  0  0  0  0  0
   46.0720   33.5000   45.3470 C   0  0  0  0  0  0  0  0  0  0  0  0
   45.1360   34.3170   45.8960 N   0  0  0  0  0  0  0  0  0  0  0  0
   43.9200   36.0220   45.6430 H   0  0  0  0  0  0  0  0  0  0  0  0
   46.5340   32.6270   45.7830 H   0  0  0  0  0  0  0  0  0  0  0  0
   44.6400   36.8110   43.1530 N   0  0  0  0  0  0  0  0  0  0  0  0
   45.1090   37.6820   43.5080 H   0  0  0  0  0  0  0  0  0  0  0  0
   43.9560   36.9080   42.3920 H   0  0  0  0  0  0  0  0  0  0  0  0
  1  4  1  6  0  0  0
  1 19  1  0  0  0  0
  2  1  1  0  0  0  0
  2  6  1  0  0  0  0
  3  7  1  1  0  0  0
  3  2  1  0  0  0  0
  3  1  1  0  0  0  0
  5  2  1  0  0  0  0
  8  3  1  0  0  0  0
  9 10  1  0  0  0  0
  9  8  2  0  0  0  0
 11  9  1  0  0  0  0
 12 11  2  0  0  0  0
 12 14  1  0  0  0  0
 13 12  1  0  0  0  0
 14 16  2  0  0  0  0
 15 14  1  0  0  0  0
 16  8  1  0  0  0  0
 17 23  1  0  0  0  0
 17 22  1  0  0  0  0
 18 17  2  0  0  0  0
 19 18  1  0  0  0  0
 19 20  2  0  0  0  0
 20 21  1  0  0  0  0
 21 24  1  0  0  0  0
 21 22  2  0  0  0  0
 25 26  1  0  0  0  0
 25 18  1  0  0  0  0
 27 25  1  0  0  0  0
M  END
>  <minimizedAffinity>
-5.50569153

>  <minimizedRMSD>
0.634104311

$$$$
