
 OpenBabel03242512583D

 28 30  0  0  0  0  0  0  0  0999 V2000
   45.2050   33.5160   41.1420 F   0  0  0  0  0  0  0  0  0  0  0  0
   46.4150   34.1560   41.0710 C   0  0  0  0  0  0  0  0  0  0  0  0
   46.9310   34.8500   42.1280 C   0  0  0  0  0  0  0  0  0  0  0  0
   48.1460   35.4500   41.9450 C   0  0  0  0  0  0  0  0  0  0  0  0
   48.8590   35.3910   40.7740 C   0  0  0  0  0  0  0  0  0  0  0  0
   48.2900   34.6770   39.7390 C   0  0  0  0  0  0  0  0  0  0  0  0
   47.0720   34.0550   39.8690 C   0  0  0  0  0  0  0  0  0  0  0  0
   48.5730   36.0050   42.7720 H   0  0  0  0  0  0  0  0  0  0  0  0
   49.8140   35.8740   40.6580 H   0  0  0  0  0  0  0  0  0  0  0  0
   48.8580   34.6290   38.8010 H   0  0  0  0  0  0  0  0  0  0  0  0
   44.4670   35.9150   44.8080 C   0  0  0  0  0  0  0  0  0  0  0  0
   45.2020   35.8920   43.6230 C   0  0  0  0  0  0  0  0  0  0  0  0
   46.1500   34.8940   43.3600 C   0  0  0  0  0  0  0  0  0  0  0  0
   46.2950   33.9640   44.3370 N   0  0  0  0  0  0  0  0  0  0  0  0
   45.5810   33.9970   45.4730 C   0  0  0  0  0  0  0  0  0  0  0  0
   44.6820   34.9540   45.7070 N   0  0  0  0  0  0  0  0  0  0  0  0
   43.7510   36.6930   44.9750 H   0  0  0  0  0  0  0  0  0  0  0  0
   45.0540   36.6650   42.8580 H   0  0  0  0  0  0  0  0  0  0  0  0
   45.8360   33.1650   46.1380 H   0  0  0  0  0  0  0  0  0  0  0  0
   46.5560   33.3240   38.7130 C   0  0  0  0  0  0  0  0  0  0  0  0
   45.3630   32.6300   38.8000 C   0  0  0  0  0  0  0  0  0  0  0  0
   44.7840   32.6090   39.7150 H   0  0  0  0  0  0  0  0  0  0  0  0
   44.9520   31.9680   37.6620 C   0  0  0  0  0  0  0  0  0  0  0  0
   45.6790   31.9800   36.4700 C   0  0  0  0  0  0  0  0  0  0  0  0
   45.3360   31.4600   35.6080 H   0  0  0  0  0  0  0  0  0  0  0  0
   46.8760   32.7010   36.4540 C   0  0  0  0  0  0  0  0  0  0  0  0
   47.4100   32.6870   35.5180 H   0  0  0  0  0  0  0  0  0  0  0  0
   47.3310   33.3830   37.5730 C   0  0  0  0  0  0  0  0  0  0  0  0
  2  1  1  0  0  0  0
  2  3  1  0  0  0  0
  3 13  1  0  0  0  0
  4  3  2  0  0  0  0
  4  8  1  0  0  0  0
  5  4  1  0  0  0  0
  6  7  1  0  0  0  0
  6  5  2  0  0  0  0
  7  2  2  0  0  0  0
  9  5  1  0  0  0  0
 10  6  1  0  0  0  0
 11 17  1  0  0  0  0
 11 16  1  0  0  0  0
 12 11  2  0  0  0  0
 13 12  1  0  0  0  0
 13 14  2  0  0  0  0
 14 15  1  0  0  0  0
 15 16  2  0  0  0  0
 15 19  1  0  0  0  0
 18 12  1  0  0  0  0
 20 21  1  0  0  0  0
 20  7  1  0  0  0  0
 21 22  1  0  0  0  0
 23 21  2  0  0  0  0
 24 23  1  0  0  0  0
 25 24  1  0  0  0  0
 26 24  2  0  0  0  0
 26 28  1  0  0  0  0
 27 26  1  0  0  0  0
 28 20  2  0  0  0  0
M  END
>  <minimizedAffinity>
-5.76440287

>  <minimizedRMSD>
0.27537629

$$$$
