
 OpenBabel03252503513D

 21 22  0  0  0  0  0  0  0  0999 V2000
   47.6180   34.9810   42.3100 C   0  0  0  0  0  0  0  0  0  0  0  0
   47.8350   33.9800   43.2760 C   0  0  0  0  0  0  0  0  0  0  0  0
   46.7940   33.6360   44.1380 C   0  0  0  0  0  0  0  0  0  0  0  0
   45.6250   34.2900   43.9980 N   0  0  0  0  0  0  0  0  0  0  0  0
   45.4240   35.2570   43.0620 C   0  0  0  0  0  0  0  0  0  0  0  0
   46.4200   35.5950   42.2250 N   0  0  0  0  0  0  0  0  0  0  0  0
   48.7740   33.4740   43.3660 H   0  0  0  0  0  0  0  0  0  0  0  0
   44.4660   35.7620   42.9800 H   0  0  0  0  0  0  0  0  0  0  0  0
   46.9040   32.6220   45.1690 C   0  0  0  0  0  0  0  0  0  0  0  0
   46.5740   32.9940   46.4540 C   0  0  0  0  0  0  0  0  0  0  0  0
   46.2440   33.9870   46.7210 H   0  0  0  0  0  0  0  0  0  0  0  0
   46.6460   32.0920   47.5190 C   0  0  0  0  0  0  0  0  0  0  0  0
   47.0610   30.8060   47.2480 C   0  0  0  0  0  0  0  0  0  0  0  0
   47.1220   30.1050   48.0430 H   0  0  0  0  0  0  0  0  0  0  0  0
   47.3990   30.4020   45.9720 C   0  0  0  0  0  0  0  0  0  0  0  0
   47.7240   29.4130   45.7270 H   0  0  0  0  0  0  0  0  0  0  0  0
   47.3160   31.3290   44.9280 C   0  0  0  0  0  0  0  0  0  0  0  0
   48.7690   35.2980   41.4210 C   0  0  0  0  0  0  0  0  0  0  0  0
   48.4170   35.2290   40.0950 F   0  0  0  0  0  0  0  0  0  0  0  0
   49.2130   36.5820   41.7490 F   0  0  0  0  0  0  0  0  0  0  0  0
   49.8390   34.4480   41.7010 F   0  0  0  0  0  0  0  0  0  0  0  0
  1  2  1  0  0  0  0
  2  7  1  0  0  0  0
  2  3  2  0  0  0  0
  3  9  1  0  0  0  0
  4  3  1  0  0  0  0
  5  4  2  0  0  0  0
  6  1  2  0  0  0  0
  6  5  1  0  0  0  0
  8  5  1  0  0  0  0
  9 10  1  0  0  0  0
 10 11  1  0  0  0  0
 10 12  2  0  0  0  0
 13 12  1  0  0  0  0
 13 14  1  0  0  0  0
 15 13  2  0  0  0  0
 16 15  1  0  0  0  0
 17  9  2  0  0  0  0
 17 15  1  0  0  0  0
 18 21  1  0  0  0  0
 18 20  1  0  0  0  0
 18  1  1  0  0  0  0
 19 18  1  0  0  0  0
M  END
>  <minimizedAffinity>
-5.1828227

>  <minimizedRMSD>
0.579060376

$$$$
