
 OpenBabel03252508553D

 43 46  0  0  1  0  0  0  0  0999 V2000
   43.3220   34.4240   40.7770 C   0  0  0  0  0  0  0  0  0  0  0  0
   43.2480   35.6590   40.4520 O   0  0  0  0  0  0  0  0  0  0  0  0
   41.9720   34.0010   40.4610 N   0  0  0  0  0  0  0  0  0  0  0  0
   41.5960   34.1630   39.0720 C   0  0  0  0  0  0  0  0  0  0  0  0
   40.7650   35.4620   39.0390 C   0  0  0  0  0  0  0  0  0  0  0  0
   39.9750   35.5000   40.3580 C   0  0  0  0  0  0  0  0  0  0  0  0
   39.6590   34.1000   40.8390 C   0  0  0  0  0  0  0  0  0  0  0  0
   40.9480   33.4450   41.3240 C   0  0  1  0  0  0  0  0  0  0  0  0
   42.4570   34.2230   38.3840 H   0  0  0  0  0  0  0  0  0  0  0  0
   40.9030   33.3560   38.7260 H   0  0  0  0  0  0  0  0  0  0  0  0
   41.4240   36.3560   39.0330 H   0  0  0  0  0  0  0  0  0  0  0  0
   40.1080   35.4800   38.1600 H   0  0  0  0  0  0  0  0  0  0  0  0
   40.5550   36.0000   41.1480 H   0  0  0  0  0  0  0  0  0  0  0  0
   38.9830   35.9810   40.1680 H   0  0  0  0  0  0  0  0  0  0  0  0
   39.2240   33.5820   39.9650 H   0  0  0  0  0  0  0  0  0  0  0  0
   38.9530   34.2180   41.6830 H   0  0  0  0  0  0  0  0  0  0  0  0
   41.1340   33.8560   42.3400 H   0  0  0  0  0  0  0  0  0  0  0  0
   40.8740   31.9830   41.3260 C   0  0  0  0  0  0  0  0  0  0  0  0
   40.3770   31.4040   42.4800 C   0  0  0  0  0  0  0  0  0  0  0  0
   40.0570   31.9650   43.3420 H   0  0  0  0  0  0  0  0  0  0  0  0
   40.2440   30.0450   42.6370 C   0  0  0  0  0  3  0  0  0  0  0  0
   40.6160   29.1990   41.6120 C   0  0  0  0  0  0  0  0  0  0  0  0
   40.5160   28.1240   41.7200 H   0  0  0  0  0  0  0  0  0  0  0  0
   41.1210   29.7440   40.4330 C   0  0  0  0  0  0  0  0  0  0  0  0
   41.4240   29.1140   39.6060 H   0  0  0  0  0  0  0  0  0  0  0  0
   41.2370   31.1150   40.3220 C   0  0  0  0  0  3  0  0  0  0  0  0
   44.4110   33.7820   41.2710 O   0  0  0  0  0  0  0  0  0  0  0  0
   45.7320   34.1140   41.1070 C   0  0  0  0  0  0  0  0  0  0  0  0
   46.3690   34.7470   42.1860 C   0  0  0  0  0  0  0  0  0  0  0  0
   47.7230   35.0770   41.9940 C   0  0  0  0  0  0  0  0  0  0  0  0
   48.3180   34.7680   40.8020 N   0  0  0  0  0  0  0  0  0  0  0  0
   47.6550   34.1670   39.8230 C   0  0  0  0  0  0  0  0  0  0  0  0
   46.3630   33.8360   39.9670 N   0  0  0  0  0  0  0  0  0  0  0  0
   48.1980   35.5600   42.8240 H   0  0  0  0  0  0  0  0  0  0  0  0
   48.1970   33.9600   38.9200 H   0  0  0  0  0  0  0  0  0  0  0  0
   45.6450   35.0270   43.4030 C   0  0  0  0  0  0  0  0  0  0  0  0
   45.0030   36.2380   43.6420 C   0  0  0  0  0  0  0  0  0  0  0  0
   44.4560   36.0760   44.8880 C   0  0  0  0  0  0  0  0  0  0  0  0
   44.7430   34.8530   45.3770 N   0  0  0  0  0  0  0  0  0  0  0  0
   45.4550   34.2510   44.4630 N   0  0  0  0  0  0  0  0  0  0  0  0
   44.9700   37.0890   42.9660 H   0  0  0  0  0  0  0  0  0  0  0  0
   43.8700   36.8260   45.4180 H   0  0  0  0  0  0  0  0  0  0  0  0
   44.4910   34.3980   46.2830 H   0  0  0  0  0  0  0  0  0  0  0  0
  1 27  1  0  0  0  0
  2  1  2  0  0  0  0
  3  1  1  0  0  0  0
  3  8  1  0  0  0  0
  4  3  1  0  0  0  0
  5  4  1  0  0  0  0
  5  6  1  0  0  0  0
  6  7  1  0  0  0  0
  6 13  1  0  0  0  0
  7  8  1  0  0  0  0
  7 16  1  0  0  0  0
  8 18  1  0  0  0  0
  8 17  1  1  0  0  0
  9  4  1  0  0  0  0
 10  4  1  0  0  0  0
 11  5  1  0  0  0  0
 12  5  1  0  0  0  0
 14  6  1  0  0  0  0
 15  7  1  0  0  0  0
 18 19  1  0  0  0  0
 19 21  2  0  0  0  0
 19 20  1  0  0  0  0
 22 23  1  0  0  0  0
 22 21  1  0  0  0  0
 24 22  2  0  0  0  0
 25 24  1  0  0  0  0
 26 24  1  0  0  0  0
 26 18  2  0  0  0  0
 28 27  1  0  0  0  0
 28 29  1  0  0  0  0
 29 36  1  0  0  0  0
 30 29  2  0  0  0  0
 30 34  1  0  0  0  0
 31 30  1  0  0  0  0
 32 33  1  0  0  0  0
 32 31  2  0  0  0  0
 33 28  2  0  0  0  0
 35 32  1  0  0  0  0
 36 37  1  0  0  0  0
 36 40  2  0  0  0  0
 37 38  2  0  0  0  0
 38 39  1  0  0  0  0
 38 42  1  0  0  0  0
 39 43  1  0  0  0  0
 40 39  1  0  0  0  0
 41 37  1  0  0  0  0
M  END
>  <minimizedAffinity>
-6.73379278

>  <minimizedRMSD>
0.20846945

$$$$
