
 OpenBabel03252508543D

 43 46  0  0  1  0  0  0  0  0999 V2000
   42.9800   34.2480   40.5660 C   0  0  0  0  0  0  0  0  0  0  0  0
   42.9500   35.3550   39.9240 O   0  0  0  0  0  0  0  0  0  0  0  0
   41.6180   33.7990   40.3550 N   0  0  0  0  0  0  0  0  0  0  0  0
   41.2550   33.5990   38.9670 C   0  0  0  0  0  0  0  0  0  0  0  0
   40.4690   34.8680   38.5790 C   0  0  0  0  0  0  0  0  0  0  0  0
   39.6740   35.2800   39.8300 C   0  0  0  0  0  0  0  0  0  0  0  0
   39.3080   34.0680   40.6600 C   0  0  0  0  0  0  0  0  0  0  0  0
   40.5720   33.5240   41.3190 C   0  0  1  0  0  0  0  0  0  0  0  0
   42.1210   33.4480   38.3000 H   0  0  0  0  0  0  0  0  0  0  0  0
   40.5360   32.7520   38.8370 H   0  0  0  0  0  0  0  0  0  0  0  0
   41.1580   35.7070   38.3460 H   0  0  0  0  0  0  0  0  0  0  0  0
   39.8180   34.6740   37.7180 H   0  0  0  0  0  0  0  0  0  0  0  0
   40.2660   35.9520   40.4680 H   0  0  0  0  0  0  0  0  0  0  0  0
   38.7000   35.7240   39.5060 H   0  0  0  0  0  0  0  0  0  0  0  0
   38.8600   33.3510   39.9480 H   0  0  0  0  0  0  0  0  0  0  0  0
   38.6020   34.4270   41.4330 H   0  0  0  0  0  0  0  0  0  0  0  0
   40.7660   34.1850   42.1930 H   0  0  0  0  0  0  0  0  0  0  0  0
   40.4480   32.1180   41.7080 C   0  0  0  0  0  0  0  0  0  0  0  0
   39.2410   31.5110   41.4020 C   0  0  0  0  0  0  0  0  0  0  0  0
   38.4260   32.0130   40.9100 H   0  0  0  0  0  0  0  0  0  0  0  0
   38.9700   30.1970   41.7000 C   0  0  0  0  0  3  0  0  0  0  0  0
   39.9260   29.4270   42.3310 C   0  0  0  0  0  0  0  0  0  0  0  0
   39.7280   28.3890   42.5730 H   0  0  0  0  0  0  0  0  0  0  0  0
   41.1540   30.0040   42.6560 C   0  0  0  0  0  0  0  0  0  0  0  0
   41.9300   29.4340   43.1510 H   0  0  0  0  0  0  0  0  0  0  0  0
   41.3810   31.3280   42.3360 C   0  0  0  0  0  3  0  0  0  0  0  0
   44.0440   33.7260   41.2280 O   0  0  0  0  0  0  0  0  0  0  0  0
   45.3770   33.9290   40.9750 C   0  0  0  0  0  0  0  0  0  0  0  0
   46.1330   34.5390   41.9890 C   0  0  0  0  0  0  0  0  0  0  0  0
   47.4970   34.7350   41.7060 C   0  0  0  0  0  0  0  0  0  0  0  0
   47.9880   34.3320   40.4950 N   0  0  0  0  0  0  0  0  0  0  0  0
   47.2150   33.7610   39.5810 C   0  0  0  0  0  0  0  0  0  0  0  0
   45.9090   33.5560   39.8130 N   0  0  0  0  0  0  0  0  0  0  0  0
   48.0620   35.2020   42.4870 H   0  0  0  0  0  0  0  0  0  0  0  0
   47.6800   33.4740   38.6570 H   0  0  0  0  0  0  0  0  0  0  0  0
   45.5130   34.9260   43.2330 C   0  0  0  0  0  0  0  0  0  0  0  0
   45.0080   36.2010   43.4650 C   0  0  0  0  0  0  0  0  0  0  0  0
   44.5220   36.1330   44.7440 C   0  0  0  0  0  0  0  0  0  0  0  0
   44.7140   34.9020   45.2590 N   0  0  0  0  0  0  0  0  0  0  0  0
   45.3090   34.2050   44.3290 N   0  0  0  0  0  0  0  0  0  0  0  0
   45.0200   37.0310   42.7620 H   0  0  0  0  0  0  0  0  0  0  0  0
   44.0440   36.9530   45.2780 H   0  0  0  0  0  0  0  0  0  0  0  0
   44.4720   34.5020   46.1930 H   0  0  0  0  0  0  0  0  0  0  0  0
  1 27  1  0  0  0  0
  2  1  2  0  0  0  0
  3  1  1  0  0  0  0
  3  8  1  0  0  0  0
  4  3  1  0  0  0  0
  5  4  1  0  0  0  0
  5  6  1  0  0  0  0
  6 13  1  0  0  0  0
  6  7  1  0  0  0  0
  7  8  1  0  0  0  0
  7 16  1  0  0  0  0
  8 18  1  0  0  0  0
  8 17  1  1  0  0  0
  9  4  1  0  0  0  0
 10  4  1  0  0  0  0
 11  5  1  0  0  0  0
 12  5  1  0  0  0  0
 14  6  1  0  0  0  0
 15  7  1  0  0  0  0
 18 26  1  0  0  0  0
 19 21  1  0  0  0  0
 19 18  2  0  0  0  0
 20 19  1  0  0  0  0
 21 22  2  0  0  0  0
 22 23  1  0  0  0  0
 22 24  1  0  0  0  0
 24 25  1  0  0  0  0
 26 24  2  0  0  0  0
 28 27  1  0  0  0  0
 28 29  1  0  0  0  0
 29 36  1  0  0  0  0
 30 29  2  0  0  0  0
 30 34  1  0  0  0  0
 31 30  1  0  0  0  0
 32 33  1  0  0  0  0
 32 31  2  0  0  0  0
 33 28  2  0  0  0  0
 35 32  1  0  0  0  0
 36 37  1  0  0  0  0
 36 40  2  0  0  0  0
 37 38  2  0  0  0  0
 38 39  1  0  0  0  0
 38 42  1  0  0  0  0
 39 43  1  0  0  0  0
 40 39  1  0  0  0  0
 41 37  1  0  0  0  0
M  END
>  <minimizedAffinity>
-6.73712826

>  <minimizedRMSD>
1.07396591

$$$$
