
 OpenBabel03242515173D

 37 39  0  0  0  0  0  0  0  0999 V2000
   45.4160   30.5770   47.2380 C   0  0  0  0  0  0  0  0  0  0  0  0
   45.3300   29.9320   46.0290 C   0  0  0  0  0  0  0  0  0  0  0  0
   45.0430   28.6010   46.2870 C   0  0  0  0  0  0  0  0  0  0  0  0
   44.9620   28.4630   47.6020 N   0  0  0  0  0  0  0  0  0  0  0  0
   45.1880   29.6580   48.1650 N   0  0  0  0  0  0  0  0  0  0  0  0
   45.4790   30.4710   45.1040 H   0  0  0  0  0  0  0  0  0  0  0  0
   44.9330   27.7090   45.1720 C   0  0  0  0  0  0  0  0  0  0  0  0
   45.8110   26.8340   44.5860 C   0  0  0  0  0  0  0  0  0  0  0  0
   46.7750   26.7420   45.0410 H   0  0  0  0  0  0  0  0  0  0  0  0
   45.5780   26.0560   43.4940 C   0  0  0  0  0  0  0  0  0  0  0  0
   44.3570   26.1090   42.8770 C   0  0  0  0  0  0  0  0  0  0  0  0
   44.1680   25.4990   42.0180 H   0  0  0  0  0  0  0  0  0  0  0  0
   43.3930   26.9530   43.3790 C   0  0  0  0  0  0  0  0  0  0  0  0
   42.4320   27.0040   42.9040 H   0  0  0  0  0  0  0  0  0  0  0  0
   43.7100   27.7070   44.4870 C   0  0  0  0  0  0  0  0  0  0  0  0
   44.6880   27.2220   48.3420 C   0  0  0  0  0  0  0  0  0  0  0  0
   44.2930   27.5530   49.6580 F   0  0  0  0  0  0  0  0  0  0  0  0
   45.7770   26.4120   48.3390 F   0  0  0  0  0  0  0  0  0  0  0  0
   43.6120   26.5970   47.7820 F   0  0  0  0  0  0  0  0  0  0  0  0
   45.6960   31.9860   47.5270 C   0  0  0  0  0  0  0  0  0  0  0  0
   44.7690   32.5910   47.6090 H   0  0  0  0  0  0  0  0  0  0  0  0
   46.1820   32.0630   48.5220 H   0  0  0  0  0  0  0  0  0  0  0  0
   46.6410   32.5850   46.5200 C   0  0  0  0  0  0  0  0  0  0  0  0
   47.5020   33.1130   47.0260 H   0  0  0  0  0  0  0  0  0  0  0  0
   47.0730   31.7650   45.9690 H   0  0  0  0  0  0  0  0  0  0  0  0
   44.5860   35.3690   45.1410 C   0  0  0  0  0  0  0  0  0  0  0  0
   45.1050   35.4480   43.8330 C   0  0  0  0  0  0  0  0  0  0  0  0
   46.1120   34.5600   43.4940 C   0  0  0  0  0  0  0  0  0  0  0  0
   46.5050   33.7010   44.4460 N   0  0  0  0  0  0  0  0  0  0  0  0
   46.0110   33.6320   45.6800 C   0  0  0  0  0  0  0  0  0  0  0  0
   45.0510   34.4710   46.0190 N   0  0  0  0  0  0  0  0  0  0  0  0
   43.7950   36.0500   45.4440 H   0  0  0  0  0  0  0  0  0  0  0  0
   44.6650   36.2070   43.1960 H   0  0  0  0  0  0  0  0  0  0  0  0
   46.6420   34.6550   42.1370 C   0  0  0  0  0  0  0  0  0  0  0  0
   47.4260   33.5290   41.8700 F   0  0  0  0  0  0  0  0  0  0  0  0
   47.5510   35.7170   42.1520 F   0  0  0  0  0  0  0  0  0  0  0  0
   45.6760   34.7870   41.1890 F   0  0  0  0  0  0  0  0  0  0  0  0
  1 20  1  0  0  0  0
  1  5  2  0  0  0  0
  2  3  2  0  0  0  0
  2  1  1  0  0  0  0
  3  4  1  0  0  0  0
  4  5  1  0  0  0  0
  4 16  1  0  0  0  0
  6  2  1  0  0  0  0
  7  3  1  0  0  0  0
  8  9  1  0  0  0  0
  8  7  1  0  0  0  0
 10  8  2  0  0  0  0
 11 13  2  0  0  0  0
 11 10  1  0  0  0  0
 12 11  1  0  0  0  0
 13 15  1  0  0  0  0
 14 13  1  0  0  0  0
 15  7  2  0  0  0  0
 16 17  1  0  0  0  0
 18 16  1  0  0  0  0
 19 16  1  0  0  0  0
 20 21  1  0  0  0  0
 20 22  1  0  0  0  0
 23 24  1  0  0  0  0
 23 20  1  0  0  0  0
 25 23  1  0  0  0  0
 26 32  1  0  0  0  0
 26 31  1  0  0  0  0
 27 26  2  0  0  0  0
 28 27  1  0  0  0  0
 28 29  2  0  0  0  0
 29 30  1  0  0  0  0
 30 31  2  0  0  0  0
 30 23  1  0  0  0  0
 33 27  1  0  0  0  0
 34 36  1  0  0  0  0
 34 28  1  0  0  0  0
 35 34  1  0  0  0  0
 37 34  1  0  0  0  0
M  END
>  <minimizedAffinity>
-5.20116329

>  <minimizedRMSD>
0.810529828

$$$$
