
 OpenBabel03252501183D

 21 22  0  0  0  0  0  0  0  0999 V2000
   45.3760   35.9720   43.2030 C   0  0  0  0  0  0  0  0  0  0  0  0
   46.2230   34.8230   43.1750 C   0  0  0  0  0  0  0  0  0  0  0  0
   46.1650   34.0050   44.3010 C   0  0  0  0  0  0  0  0  0  0  0  0
   45.3240   34.3480   45.3190 N   0  0  0  0  0  0  0  0  0  0  0  0
   44.5450   35.4470   45.2930 C   0  0  0  0  0  0  0  0  0  0  0  0
   44.5780   36.2510   44.2310 N   0  0  0  0  0  0  0  0  0  0  0  0
   45.3100   36.7020   42.4040 H   0  0  0  0  0  0  0  0  0  0  0  0
   43.9730   35.5050   46.2060 H   0  0  0  0  0  0  0  0  0  0  0  0
   46.9930   34.7760   41.9560 C   0  0  0  0  0  0  0  0  0  0  0  0
   46.3780   33.9820   40.9750 C   0  0  0  0  0  0  0  0  0  0  0  0
   45.4250   33.4450   41.1270 H   0  0  0  0  0  0  0  0  0  0  0  0
   46.8750   33.7680   39.7040 C   0  0  0  0  0  0  0  0  0  0  0  0
   48.0640   34.3840   39.3830 C   0  0  0  0  0  0  0  0  0  0  0  0
   48.5300   34.2790   38.4190 H   0  0  0  0  0  0  0  0  0  0  0  0
   48.7190   35.1740   40.2920 C   0  0  0  0  0  0  0  0  0  0  0  0
   49.6350   35.6700   40.0950 H   0  0  0  0  0  0  0  0  0  0  0  0
   48.1670   35.3440   41.5390 C   0  0  0  0  0  0  0  0  0  0  0  0
   47.0420   32.8420   44.2420 C   0  0  0  0  0  0  0  0  0  0  0  0
   47.1890   32.3380   45.5460 F   0  0  0  0  0  0  0  0  0  0  0  0
   48.2980   33.2980   43.9180 F   0  0  0  0  0  0  0  0  0  0  0  0
   46.5840   31.8240   43.4800 F   0  0  0  0  0  0  0  0  0  0  0  0
  1  6  1  0  0  0  0
  2  1  2  0  0  0  0
  2  3  1  0  0  0  0
  3  4  2  0  0  0  0
  5  4  1  0  0  0  0
  5  8  1  0  0  0  0
  6  5  2  0  0  0  0
  7  1  1  0  0  0  0
  9  2  1  0  0  0  0
 10 11  1  0  0  0  0
 10  9  2  0  0  0  0
 12 10  1  0  0  0  0
 13 12  2  0  0  0  0
 13 15  1  0  0  0  0
 14 13  1  0  0  0  0
 15 17  2  0  0  0  0
 16 15  1  0  0  0  0
 17  9  1  0  0  0  0
 18  3  1  0  0  0  0
 18 19  1  0  0  0  0
 20 18  1  0  0  0  0
 21 18  1  0  0  0  0
M  END
>  <minimizedAffinity>
-5.32362604

>  <minimizedRMSD>
3.42472553

$$$$
