
 OpenBabel03252508553D

 43 46  0  0  1  0  0  0  0  0999 V2000
   43.2100   34.3390   40.6150 C   0  0  0  0  0  0  0  0  0  0  0  0
   43.1850   35.4970   40.0710 O   0  0  0  0  0  0  0  0  0  0  0  0
   41.8270   33.9470   40.4290 N   0  0  0  0  0  0  0  0  0  0  0  0
   41.3970   33.8760   39.0480 C   0  0  0  0  0  0  0  0  0  0  0  0
   40.6340   35.1940   38.8060 C   0  0  0  0  0  0  0  0  0  0  0  0
   39.9070   35.5180   40.1220 C   0  0  0  0  0  0  0  0  0  0  0  0
   39.5410   34.2500   40.8630 C   0  0  0  0  0  0  0  0  0  0  0  0
   40.8150   33.6180   41.4150 C   0  0  1  0  0  0  0  0  0  0  0  0
   42.2280   33.7590   38.3310 H   0  0  0  0  0  0  0  0  0  0  0  0
   40.6480   33.0620   38.8800 H   0  0  0  0  0  0  0  0  0  0  0  0
   41.3380   36.0310   38.6120 H   0  0  0  0  0  0  0  0  0  0  0  0
   39.9400   35.0920   37.9620 H   0  0  0  0  0  0  0  0  0  0  0  0
   40.5480   36.1170   40.7860 H   0  0  0  0  0  0  0  0  0  0  0  0
   38.9340   36.0150   39.8820 H   0  0  0  0  0  0  0  0  0  0  0  0
   39.0410   33.6090   40.1140 H   0  0  0  0  0  0  0  0  0  0  0  0
   38.8810   34.5600   41.6950 H   0  0  0  0  0  0  0  0  0  0  0  0
   41.0680   34.1950   42.3310 H   0  0  0  0  0  0  0  0  0  0  0  0
   40.6650   32.1880   41.6880 C   0  0  0  0  0  0  0  0  0  0  0  0
   39.4150   31.6510   41.4310 C   0  0  0  0  0  0  0  0  0  0  0  0
   38.5830   32.2220   41.0560 H   0  0  0  0  0  0  0  0  0  0  0  0
   39.1150   30.3260   41.6350 C   0  0  0  0  0  3  0  0  0  0  0  0
   40.0870   29.4710   42.1160 C   0  0  0  0  0  0  0  0  0  0  0  0
   39.8650   28.4220   42.2810 H   0  0  0  0  0  0  0  0  0  0  0  0
   41.3590   29.9740   42.3850 C   0  0  0  0  0  0  0  0  0  0  0  0
   42.1480   29.3350   42.7630 H   0  0  0  0  0  0  0  0  0  0  0  0
   41.6130   31.3120   42.1660 C   0  0  0  0  0  3  0  0  0  0  0  0
   44.2850   33.7340   41.1800 O   0  0  0  0  0  0  0  0  0  0  0  0
   45.6130   34.0130   40.9780 C   0  0  0  0  0  0  0  0  0  0  0  0
   46.3010   34.6360   42.0310 C   0  0  0  0  0  0  0  0  0  0  0  0
   47.6610   34.9120   41.8010 C   0  0  0  0  0  0  0  0  0  0  0  0
   48.2130   34.5650   40.5990 N   0  0  0  0  0  0  0  0  0  0  0  0
   47.5030   33.9770   39.6450 C   0  0  0  0  0  0  0  0  0  0  0  0
   46.2030   33.6970   39.8270 N   0  0  0  0  0  0  0  0  0  0  0  0
   48.1740   35.3880   42.6120 H   0  0  0  0  0  0  0  0  0  0  0  0
   48.0130   33.7380   38.7320 H   0  0  0  0  0  0  0  0  0  0  0  0
   45.6190   34.9590   43.2620 C   0  0  0  0  0  0  0  0  0  0  0  0
   45.0140   36.1900   43.4940 C   0  0  0  0  0  0  0  0  0  0  0  0
   44.4990   36.0670   44.7580 C   0  0  0  0  0  0  0  0  0  0  0  0
   44.7700   34.8480   45.2650 N   0  0  0  0  0  0  0  0  0  0  0  0
   45.4410   34.2100   44.3440 N   0  0  0  0  0  0  0  0  0  0  0  0
   44.9820   37.0270   42.8010 H   0  0  0  0  0  0  0  0  0  0  0  0
   43.9470   36.8430   45.2880 H   0  0  0  0  0  0  0  0  0  0  0  0
   44.5340   34.4180   46.1870 H   0  0  0  0  0  0  0  0  0  0  0  0
  1 27  1  0  0  0  0
  2  1  2  0  0  0  0
  3  1  1  0  0  0  0
  3  8  1  0  0  0  0
  4  3  1  0  0  0  0
  5  4  1  0  0  0  0
  5  6  1  0  0  0  0
  6 13  1  0  0  0  0
  6  7  1  0  0  0  0
  7  8  1  0  0  0  0
  7 16  1  0  0  0  0
  8 18  1  0  0  0  0
  8 17  1  1  0  0  0
  9  4  1  0  0  0  0
 10  4  1  0  0  0  0
 11  5  1  0  0  0  0
 12  5  1  0  0  0  0
 14  6  1  0  0  0  0
 15  7  1  0  0  0  0
 18 26  1  0  0  0  0
 19 21  1  0  0  0  0
 19 18  2  0  0  0  0
 20 19  1  0  0  0  0
 21 22  2  0  0  0  0
 22 23  1  0  0  0  0
 22 24  1  0  0  0  0
 24 25  1  0  0  0  0
 26 24  2  0  0  0  0
 28 27  1  0  0  0  0
 28 29  1  0  0  0  0
 29 36  1  0  0  0  0
 30 29  2  0  0  0  0
 30 34  1  0  0  0  0
 31 30  1  0  0  0  0
 32 33  1  0  0  0  0
 32 31  2  0  0  0  0
 33 28  2  0  0  0  0
 35 32  1  0  0  0  0
 36 37  1  0  0  0  0
 36 40  2  0  0  0  0
 37 38  2  0  0  0  0
 38 39  1  0  0  0  0
 38 42  1  0  0  0  0
 39 43  1  0  0  0  0
 40 39  1  0  0  0  0
 41 37  1  0  0  0  0
M  END
>  <minimizedAffinity>
-6.76498175

>  <minimizedRMSD>
0.748304427

$$$$
