
 OpenBabel03252508543D

 43 46  0  0  1  0  0  0  0  0999 V2000
   43.2800   34.4020   40.7490 C   0  0  0  0  0  0  0  0  0  0  0  0
   43.2180   35.6150   40.3470 O   0  0  0  0  0  0  0  0  0  0  0  0
   41.9290   33.9710   40.4510 N   0  0  0  0  0  0  0  0  0  0  0  0
   41.5630   34.0500   39.0510 C   0  0  0  0  0  0  0  0  0  0  0  0
   40.7420   35.3510   38.9330 C   0  0  0  0  0  0  0  0  0  0  0  0
   39.9450   35.4770   40.2420 C   0  0  0  0  0  0  0  0  0  0  0  0
   39.6140   34.1120   40.8060 C   0  0  0  0  0  0  0  0  0  0  0  0
   40.8950   33.4770   41.3390 C   0  0  1  0  0  0  0  0  0  0  0  0
   42.4280   34.0610   38.3670 H   0  0  0  0  0  0  0  0  0  0  0  0
   40.8650   33.2290   38.7520 H   0  0  0  0  0  0  0  0  0  0  0  0
   41.4090   36.2380   38.8760 H   0  0  0  0  0  0  0  0  0  0  0  0
   40.0910   35.3200   38.0510 H   0  0  0  0  0  0  0  0  0  0  0  0
   40.5240   36.0200   41.0040 H   0  0  0  0  0  0  0  0  0  0  0  0
   38.9580   35.9530   40.0160 H   0  0  0  0  0  0  0  0  0  0  0  0
   39.1810   33.5440   39.9630 H   0  0  0  0  0  0  0  0  0  0  0  0
   38.9040   34.2870   41.6370 H   0  0  0  0  0  0  0  0  0  0  0  0
   41.0780   33.9490   42.3290 H   0  0  0  0  0  0  0  0  0  0  0  0
   40.8090   32.0190   41.4310 C   0  0  0  0  0  0  0  0  0  0  0  0
   40.9920   31.3260   40.2460 C   0  0  0  0  0  0  0  0  0  0  0  0
   41.1860   31.8010   39.2990 H   0  0  0  0  0  0  0  0  0  0  0  0
   40.9420   29.9560   40.1670 C   0  0  0  0  0  3  0  0  0  0  0  0
   40.7000   29.2140   41.3040 C   0  0  0  0  0  0  0  0  0  0  0  0
   40.6570   28.1300   41.2590 H   0  0  0  0  0  0  0  0  0  0  0  0
   40.5100   29.8750   42.5180 C   0  0  0  0  0  0  0  0  0  0  0  0
   40.3180   29.3290   43.4330 H   0  0  0  0  0  0  0  0  0  0  0  0
   40.5690   31.2530   42.5480 C   0  0  0  0  0  3  0  0  0  0  0  0
   44.3610   33.7830   41.2890 O   0  0  0  0  0  0  0  0  0  0  0  0
   45.6860   34.0980   41.1180 C   0  0  0  0  0  0  0  0  0  0  0  0
   46.3340   34.7270   42.1920 C   0  0  0  0  0  0  0  0  0  0  0  0
   47.6920   35.0390   41.9940 C   0  0  0  0  0  0  0  0  0  0  0  0
   48.2780   34.7190   40.8010 N   0  0  0  0  0  0  0  0  0  0  0  0
   47.6040   34.1230   39.8270 C   0  0  0  0  0  0  0  0  0  0  0  0
   46.3080   33.8080   39.9780 N   0  0  0  0  0  0  0  0  0  0  0  0
   48.1750   35.5200   42.8210 H   0  0  0  0  0  0  0  0  0  0  0  0
   48.1400   33.9060   38.9230 H   0  0  0  0  0  0  0  0  0  0  0  0
   45.6180   35.0210   43.4110 C   0  0  0  0  0  0  0  0  0  0  0  0
   44.9880   36.2380   43.6460 C   0  0  0  0  0  0  0  0  0  0  0  0
   44.4450   36.0880   44.8950 C   0  0  0  0  0  0  0  0  0  0  0  0
   44.7230   34.8650   45.3910 N   0  0  0  0  0  0  0  0  0  0  0  0
   45.4260   34.2520   44.4760 N   0  0  0  0  0  0  0  0  0  0  0  0
   44.9590   37.0850   42.9660 H   0  0  0  0  0  0  0  0  0  0  0  0
   43.8680   36.8470   45.4240 H   0  0  0  0  0  0  0  0  0  0  0  0
   44.4720   34.4180   46.3000 H   0  0  0  0  0  0  0  0  0  0  0  0
  1 27  1  0  0  0  0
  2  1  2  0  0  0  0
  3  1  1  0  0  0  0
  3  8  1  0  0  0  0
  4  3  1  0  0  0  0
  5  4  1  0  0  0  0
  5  6  1  0  0  0  0
  6  7  1  0  0  0  0
  6 13  1  0  0  0  0
  7  8  1  0  0  0  0
  7 16  1  0  0  0  0
  8 18  1  0  0  0  0
  8 17  1  1  0  0  0
  9  4  1  0  0  0  0
 10  4  1  0  0  0  0
 11  5  1  0  0  0  0
 12  5  1  0  0  0  0
 14  6  1  0  0  0  0
 15  7  1  0  0  0  0
 18 26  1  0  0  0  0
 19 18  2  0  0  0  0
 20 19  1  0  0  0  0
 21 19  1  0  0  0  0
 21 22  2  0  0  0  0
 22 24  1  0  0  0  0
 23 22  1  0  0  0  0
 24 26  2  0  0  0  0
 24 25  1  0  0  0  0
 28 27  1  0  0  0  0
 28 29  1  0  0  0  0
 29 36  1  0  0  0  0
 30 29  2  0  0  0  0
 30 34  1  0  0  0  0
 31 30  1  0  0  0  0
 32 33  1  0  0  0  0
 32 31  2  0  0  0  0
 33 28  2  0  0  0  0
 35 32  1  0  0  0  0
 36 37  1  0  0  0  0
 36 40  2  0  0  0  0
 37 38  2  0  0  0  0
 38 39  1  0  0  0  0
 38 42  1  0  0  0  0
 39 43  1  0  0  0  0
 40 39  1  0  0  0  0
 41 37  1  0  0  0  0
M  END
>  <minimizedAffinity>
-6.71487093

>  <minimizedRMSD>
0.379036039

$$$$
