
 OpenBabel03252508553D

 43 46  0  0  1  0  0  0  0  0999 V2000
   38.1500   29.8440   38.0740 C   0  0  0  0  0  0  0  0  0  0  0  0
   37.7990   30.3750   36.9640 O   0  0  0  0  0  0  0  0  0  0  0  0
   37.0750   28.8860   38.2430 N   0  0  0  0  0  0  0  0  0  0  0  0
   36.9730   27.8980   37.1890 C   0  0  0  0  0  0  0  0  0  0  0  0
   35.8340   28.4070   36.2820 C   0  0  0  0  0  0  0  0  0  0  0  0
   34.8040   29.0670   37.2150 C   0  0  0  0  0  0  0  0  0  0  0  0
   34.8030   28.4020   38.5740 C   0  0  0  0  0  0  0  0  0  0  0  0
   36.0920   28.7720   39.3030 C   0  0  1  0  0  0  0  0  0  0  0  0
   37.9070   27.7620   36.6180 H   0  0  0  0  0  0  0  0  0  0  0  0
   36.6270   26.9060   37.5730 H   0  0  0  0  0  0  0  0  0  0  0  0
   36.1980   29.2000   35.5940 H   0  0  0  0  0  0  0  0  0  0  0  0
   35.4020   27.5830   35.7010 H   0  0  0  0  0  0  0  0  0  0  0  0
   35.0360   30.1320   37.3650 H   0  0  0  0  0  0  0  0  0  0  0  0
   33.7800   28.8940   36.7980 H   0  0  0  0  0  0  0  0  0  0  0  0
   34.7300   27.3190   38.3690 H   0  0  0  0  0  0  0  0  0  0  0  0
   33.9310   28.8130   39.1160 H   0  0  0  0  0  0  0  0  0  0  0  0
   35.9320   29.8000   39.6970 H   0  0  0  0  0  0  0  0  0  0  0  0
   36.4370   27.8220   40.3610 C   0  0  0  0  0  0  0  0  0  0  0  0
   36.4000   28.3170   41.6540 C   0  0  0  0  0  0  0  0  0  0  0  0
   36.1380   29.3320   41.9000 H   0  0  0  0  0  0  0  0  0  0  0  0
   36.6960   27.5510   42.7550 C   0  0  0  0  0  3  0  0  0  0  0  0
   37.0480   26.2270   42.5930 C   0  0  0  0  0  0  0  0  0  0  0  0
   37.2850   25.6090   43.4530 H   0  0  0  0  0  0  0  0  0  0  0  0
   37.0970   25.6920   41.3060 C   0  0  0  0  0  0  0  0  0  0  0  0
   37.3690   24.6570   41.1360 H   0  0  0  0  0  0  0  0  0  0  0  0
   36.7920   26.5000   40.2300 C   0  0  0  0  0  3  0  0  0  0  0  0
   39.2450   30.1590   38.8120 O   0  0  0  0  0  0  0  0  0  0  0  0
   39.4990   29.8410   40.1220 C   0  0  0  0  0  0  0  0  0  0  0  0
   39.1610   30.8010   41.0880 C   0  0  0  0  0  0  0  0  0  0  0  0
   39.4300   30.4520   42.4240 C   0  0  0  0  0  0  0  0  0  0  0  0
   39.9900   29.2330   42.6910 N   0  0  0  0  0  0  0  0  0  0  0  0
   40.2850   28.3720   41.7260 C   0  0  0  0  0  0  0  0  0  0  0  0
   40.0420   28.6670   40.4400 N   0  0  0  0  0  0  0  0  0  0  0  0
   39.1680   31.1930   43.1520 H   0  0  0  0  0  0  0  0  0  0  0  0
   40.7210   27.4370   42.0220 H   0  0  0  0  0  0  0  0  0  0  0  0
   38.5730   32.0600   40.6960 C   0  0  0  0  0  0  0  0  0  0  0  0
   39.3100   33.2310   40.5590 C   0  0  0  0  0  0  0  0  0  0  0  0
   38.3770   34.1610   40.1810 C   0  0  0  0  0  0  0  0  0  0  0  0
   37.1540   33.5990   40.0930 N   0  0  0  0  0  0  0  0  0  0  0  0
   37.3080   32.3400   40.4070 N   0  0  0  0  0  0  0  0  0  0  0  0
   40.3790   33.3380   40.7250 H   0  0  0  0  0  0  0  0  0  0  0  0
   38.5840   35.2120   39.9780 H   0  0  0  0  0  0  0  0  0  0  0  0
   36.2270   34.0050   39.8360 H   0  0  0  0  0  0  0  0  0  0  0  0
  1  3  1  0  0  0  0
  1 27  1  0  0  0  0
  2  1  2  0  0  0  0
  3  8  1  0  0  0  0
  4 10  1  0  0  0  0
  4  3  1  0  0  0  0
  5  4  1  0  0  0  0
  5  6  1  0  0  0  0
  6 13  1  0  0  0  0
  6  7  1  0  0  0  0
  7 16  1  0  0  0  0
  7  8  1  0  0  0  0
  8 17  1  1  0  0  0
  8 18  1  0  0  0  0
  9  4  1  0  0  0  0
 11  5  1  0  0  0  0
 12  5  1  0  0  0  0
 14  6  1  0  0  0  0
 15  7  1  0  0  0  0
 18 19  1  0  0  0  0
 19 20  1  0  0  0  0
 19 21  2  0  0  0  0
 22 21  1  0  0  0  0
 22 23  1  0  0  0  0
 24 22  2  0  0  0  0
 25 24  1  0  0  0  0
 26 18  2  0  0  0  0
 26 24  1  0  0  0  0
 27 28  1  0  0  0  0
 28 33  2  0  0  0  0
 28 29  1  0  0  0  0
 29 30  2  0  0  0  0
 30 31  1  0  0  0  0
 30 34  1  0  0  0  0
 32 35  1  0  0  0  0
 32 31  2  0  0  0  0
 33 32  1  0  0  0  0
 36 29  1  0  0  0  0
 37 36  1  0  0  0  0
 37 41  1  0  0  0  0
 38 37  2  0  0  0  0
 39 38  1  0  0  0  0
 39 40  1  0  0  0  0
 40 36  2  0  0  0  0
 42 38  1  0  0  0  0
 43 39  1  0  0  0  0
M  END
>  <minimizedAffinity>
-6.31163216

$$$$

 OpenBabel03252508553D

 43 46  0  0  1  0  0  0  0  0999 V2000
   37.2140   28.7810   40.1790 C   0  0  0  0  0  0  0  0  0  0  0  0
   36.1340   28.0950   40.1510 O   0  0  0  0  0  0  0  0  0  0  0  0
   37.8350   28.2210   41.3630 N   0  0  0  0  0  0  0  0  0  0  0  0
   38.1100   26.8000   41.2870 C   0  0  0  0  0  0  0  0  0  0  0  0
   36.9590   26.1350   42.0690 C   0  0  0  0  0  0  0  0  0  0  0  0
   36.6230   27.0860   43.2310 C   0  0  0  0  0  0  0  0  0  0  0  0
   37.8530   27.8460   43.6790 C   0  0  0  0  0  0  0  0  0  0  0  0
   38.2190   28.8650   42.6030 C   0  0  1  0  0  0  0  0  0  0  0  0
   38.1660   26.4150   40.2550 H   0  0  0  0  0  0  0  0  0  0  0  0
   39.0440   26.5220   41.8370 H   0  0  0  0  0  0  0  0  0  0  0  0
   36.0450   26.0580   41.4430 H   0  0  0  0  0  0  0  0  0  0  0  0
   37.2530   25.1380   42.4190 H   0  0  0  0  0  0  0  0  0  0  0  0
   35.8680   27.8250   42.9280 H   0  0  0  0  0  0  0  0  0  0  0  0
   36.3130   26.4750   44.1150 H   0  0  0  0  0  0  0  0  0  0  0  0
   38.6360   27.0790   43.8180 H   0  0  0  0  0  0  0  0  0  0  0  0
   37.5690   28.3670   44.6130 H   0  0  0  0  0  0  0  0  0  0  0  0
   37.5200   29.7190   42.7450 H   0  0  0  0  0  0  0  0  0  0  0  0
   39.6200   29.2820   42.6720 C   0  0  0  0  0  0  0  0  0  0  0  0
   39.8600   30.6310   42.4730 C   0  0  0  0  0  0  0  0  0  0  0  0
   39.0870   31.3550   42.2780 H   0  0  0  0  0  0  0  0  0  0  0  0
   41.1200   31.1780   42.5070 C   0  0  0  0  0  3  0  0  0  0  0  0
   42.2110   30.3690   42.7480 C   0  0  0  0  0  0  0  0  0  0  0  0
   43.2130   30.7860   42.7780 H   0  0  0  0  0  0  0  0  0  0  0  0
   42.0100   29.0040   42.9530 C   0  0  0  0  0  0  0  0  0  0  0  0
   42.8400   28.3350   43.1450 H   0  0  0  0  0  0  0  0  0  0  0  0
   40.7260   28.4990   42.9090 C   0  0  0  0  0  3  0  0  0  0  0  0
   37.5830   29.7450   39.2980 O   0  0  0  0  0  0  0  0  0  0  0  0
   38.7850   29.8800   38.6500 C   0  0  0  0  0  0  0  0  0  0  0  0
   39.3010   31.1800   38.5290 C   0  0  0  0  0  0  0  0  0  0  0  0
   40.5350   31.2930   37.8630 C   0  0  0  0  0  0  0  0  0  0  0  0
   41.1380   30.1620   37.3880 N   0  0  0  0  0  0  0  0  0  0  0  0
   40.5930   28.9620   37.5380 C   0  0  0  0  0  0  0  0  0  0  0  0
   39.4180   28.8120   38.1680 N   0  0  0  0  0  0  0  0  0  0  0  0
   40.9170   32.2910   37.7760 H   0  0  0  0  0  0  0  0  0  0  0  0
   41.1320   28.1260   37.1360 H   0  0  0  0  0  0  0  0  0  0  0  0
   38.5800   32.3080   39.0690 C   0  0  0  0  0  0  0  0  0  0  0  0
   39.1400   33.2040   39.9740 C   0  0  0  0  0  0  0  0  0  0  0  0
   38.1290   34.0970   40.2160 C   0  0  0  0  0  0  0  0  0  0  0  0
   37.0280   33.7720   39.5090 N   0  0  0  0  0  0  0  0  0  0  0  0
   37.3330   32.6970   38.8320 N   0  0  0  0  0  0  0  0  0  0  0  0
   40.1510   33.1640   40.3710 H   0  0  0  0  0  0  0  0  0  0  0  0
   38.1970   34.9540   40.8860 H   0  0  0  0  0  0  0  0  0  0  0  0
   36.0890   34.2250   39.4520 H   0  0  0  0  0  0  0  0  0  0  0  0
  1  3  1  0  0  0  0
  2  1  2  0  0  0  0
  3  8  1  0  0  0  0
  4  3  1  0  0  0  0
  4 10  1  0  0  0  0
  4  5  1  0  0  0  0
  5 12  1  0  0  0  0
  5  6  1  0  0  0  0
  6  7  1  0  0  0  0
  6 14  1  0  0  0  0
  7 15  1  0  0  0  0
  7 16  1  0  0  0  0
  8 18  1  0  0  0  0
  8 17  1  1  0  0  0
  8  7  1  0  0  0  0
  9  4  1  0  0  0  0
 11  5  1  0  0  0  0
 13  6  1  0  0  0  0
 18 26  1  0  0  0  0
 19 21  1  0  0  0  0
 19 18  2  0  0  0  0
 20 19  1  0  0  0  0
 21 22  2  0  0  0  0
 22 23  1  0  0  0  0
 22 24  1  0  0  0  0
 24 25  1  0  0  0  0
 26 24  2  0  0  0  0
 27  1  1  0  0  0  0
 28 27  1  0  0  0  0
 29 28  1  0  0  0  0
 29 36  1  0  0  0  0
 30 29  2  0  0  0  0
 31 32  2  0  0  0  0
 31 30  1  0  0  0  0
 32 33  1  0  0  0  0
 33 28  2  0  0  0  0
 34 30  1  0  0  0  0
 35 32  1  0  0  0  0
 36 37  1  0  0  0  0
 37 38  2  0  0  0  0
 37 41  1  0  0  0  0
 38 42  1  0  0  0  0
 39 38  1  0  0  0  0
 40 36  2  0  0  0  0
 40 39  1  0  0  0  0
 43 39  1  0  0  0  0
M  END
>  <minimizedAffinity>
-6.20747089

$$$$

 OpenBabel03252508553D

 43 46  0  0  1  0  0  0  0  0999 V2000
   37.5880   30.1340   38.0050 C   0  0  0  0  0  0  0  0  0  0  0  0
   36.9100   30.1650   36.9200 O   0  0  0  0  0  0  0  0  0  0  0  0
   36.7180   29.3070   38.8180 N   0  0  0  0  0  0  0  0  0  0  0  0
   36.4870   27.9760   38.2970 C   0  0  0  0  0  0  0  0  0  0  0  0
   35.1050   28.0550   37.6170 C   0  0  0  0  0  0  0  0  0  0  0  0
   34.2600   29.0160   38.4710 C   0  0  0  0  0  0  0  0  0  0  0  0
   34.6790   28.9570   39.9240 C   0  0  0  0  0  0  0  0  0  0  0  0
   36.0490   29.6130   40.0670 C   0  0  1  0  0  0  0  0  0  0  0  0
   37.2610   27.6370   37.5880 H   0  0  0  0  0  0  0  0  0  0  0  0
   36.3750   27.2180   39.1120 H   0  0  0  0  0  0  0  0  0  0  0  0
   35.1840   28.5080   36.6060 H   0  0  0  0  0  0  0  0  0  0  0  0
   34.6520   27.0580   37.5420 H   0  0  0  0  0  0  0  0  0  0  0  0
   34.3850   30.0550   38.1310 H   0  0  0  0  0  0  0  0  0  0  0  0
   33.1960   28.6710   38.4530 H   0  0  0  0  0  0  0  0  0  0  0  0
   34.6960   27.8820   40.1800 H   0  0  0  0  0  0  0  0  0  0  0  0
   33.9210   29.5360   40.4850 H   0  0  0  0  0  0  0  0  0  0  0  0
   35.8620   30.7100   40.0650 H   0  0  0  0  0  0  0  0  0  0  0  0
   36.7620   29.1780   41.2690 C   0  0  0  0  0  0  0  0  0  0  0  0
   36.1940   28.1210   41.9600 C   0  0  0  0  0  0  0  0  0  0  0  0
   35.2850   27.6280   41.6590 H   0  0  0  0  0  0  0  0  0  0  0  0
   36.7420   27.5970   43.1050 C   0  0  0  0  0  3  0  0  0  0  0  0
   37.9110   28.1290   43.6100 C   0  0  0  0  0  0  0  0  0  0  0  0
   38.3560   27.7260   44.5140 H   0  0  0  0  0  0  0  0  0  0  0  0
   38.5130   29.1950   42.9420 C   0  0  0  0  0  0  0  0  0  0  0  0
   39.4310   29.6410   43.3060 H   0  0  0  0  0  0  0  0  0  0  0  0
   37.9250   29.6890   41.7960 C   0  0  0  0  0  3  0  0  0  0  0  0
   38.7810   30.7400   38.2310 O   0  0  0  0  0  0  0  0  0  0  0  0
   39.0210   31.8940   38.9320 C   0  0  0  0  0  0  0  0  0  0  0  0
   40.3470   32.3560   38.9650 C   0  0  0  0  0  0  0  0  0  0  0  0
   40.5680   33.5410   39.6890 C   0  0  0  0  0  0  0  0  0  0  0  0
   39.5080   34.1530   40.2990 N   0  0  0  0  0  0  0  0  0  0  0  0
   38.2790   33.6610   40.2270 C   0  0  0  0  0  0  0  0  0  0  0  0
   38.0270   32.5330   39.5450 N   0  0  0  0  0  0  0  0  0  0  0  0
   41.5830   33.8820   39.7070 H   0  0  0  0  0  0  0  0  0  0  0  0
   37.5040   34.2030   40.7340 H   0  0  0  0  0  0  0  0  0  0  0  0
   41.3930   31.6300   38.2840 C   0  0  0  0  0  0  0  0  0  0  0  0
   41.8000   31.9250   36.9880 C   0  0  0  0  0  0  0  0  0  0  0  0
   42.7920   31.0130   36.7420 C   0  0  0  0  0  0  0  0  0  0  0  0
   42.9800   30.2160   37.8130 N   0  0  0  0  0  0  0  0  0  0  0  0
   42.1260   30.6130   38.7180 N   0  0  0  0  0  0  0  0  0  0  0  0
   41.3940   32.7090   36.3520 H   0  0  0  0  0  0  0  0  0  0  0  0
   43.3570   30.9350   35.8130 H   0  0  0  0  0  0  0  0  0  0  0  0
   43.6430   29.4240   37.9730 H   0  0  0  0  0  0  0  0  0  0  0  0
  1 27  1  0  0  0  0
  1  3  1  0  0  0  0
  2  1  2  0  0  0  0
  3  8  1  0  0  0  0
  4  3  1  0  0  0  0
  4 10  1  0  0  0  0
  5  4  1  0  0  0  0
  5  6  1  0  0  0  0
  6  7  1  0  0  0  0
  7  8  1  0  0  0  0
  7 15  1  0  0  0  0
  7 16  1  0  0  0  0
  8 17  1  1  0  0  0
  8 18  1  0  0  0  0
  9  4  1  0  0  0  0
 11  5  1  0  0  0  0
 12  5  1  0  0  0  0
 13  6  1  0  0  0  0
 14  6  1  0  0  0  0
 18 26  2  0  0  0  0
 18 19  1  0  0  0  0
 19 21  2  0  0  0  0
 20 19  1  0  0  0  0
 21 22  1  0  0  0  0
 22 23  1  0  0  0  0
 24 25  1  0  0  0  0
 24 22  2  0  0  0  0
 26 24  1  0  0  0  0
 27 28  1  0  0  0  0
 28 29  2  0  0  0  0
 28 33  1  0  0  0  0
 29 30  1  0  0  0  0
 30 34  1  0  0  0  0
 30 31  2  0  0  0  0
 32 31  1  0  0  0  0
 32 35  1  0  0  0  0
 33 32  2  0  0  0  0
 36 40  2  0  0  0  0
 36 29  1  0  0  0  0
 37 36  1  0  0  0  0
 38 37  2  0  0  0  0
 38 39  1  0  0  0  0
 39 43  1  0  0  0  0
 39 40  1  0  0  0  0
 41 37  1  0  0  0  0
 42 38  1  0  0  0  0
M  END
>  <minimizedAffinity>
-5.96297503

$$$$

 OpenBabel03252508553D

 43 46  0  0  1  0  0  0  0  0999 V2000
   39.8200   30.7260   41.3450 C   0  0  0  0  0  0  0  0  0  0  0  0
   40.6510   31.6510   41.6490 O   0  0  0  0  0  0  0  0  0  0  0  0
   38.9640   31.4520   40.4270 N   0  0  0  0  0  0  0  0  0  0  0  0
   39.6370   31.9690   39.2530 C   0  0  0  0  0  0  0  0  0  0  0  0
   39.8830   33.4590   39.5650 C   0  0  0  0  0  0  0  0  0  0  0  0
   38.6690   33.9330   40.3820 C   0  0  0  0  0  0  0  0  0  0  0  0
   37.4230   33.1660   39.9920 C   0  0  0  0  0  0  0  0  0  0  0  0
   37.5450   31.7360   40.5100 C   0  0  1  0  0  0  0  0  0  0  0  0
   40.5810   31.4490   39.0190 H   0  0  0  0  0  0  0  0  0  0  0  0
   38.9760   31.9580   38.3500 H   0  0  0  0  0  0  0  0  0  0  0  0
   40.7760   33.5870   40.2140 H   0  0  0  0  0  0  0  0  0  0  0  0
   40.0120   34.0330   38.6400 H   0  0  0  0  0  0  0  0  0  0  0  0
   38.8340   33.7750   41.4580 H   0  0  0  0  0  0  0  0  0  0  0  0
   38.4560   35.0000   40.1210 H   0  0  0  0  0  0  0  0  0  0  0  0
   37.3840   33.2150   38.8890 H   0  0  0  0  0  0  0  0  0  0  0  0
   36.5790   33.6790   40.4910 H   0  0  0  0  0  0  0  0  0  0  0  0
   37.2950   31.7830   41.5920 H   0  0  0  0  0  0  0  0  0  0  0  0
   36.6870   30.7970   39.7860 C   0  0  0  0  0  0  0  0  0  0  0  0
   35.8140   30.0540   40.5620 C   0  0  0  0  0  0  0  0  0  0  0  0
   35.7450   30.1370   41.6330 H   0  0  0  0  0  0  0  0  0  0  0  0
   34.9440   29.1320   40.0320 C   0  0  0  0  0  3  0  0  0  0  0  0
   34.9190   28.9190   38.6690 C   0  0  0  0  0  0  0  0  0  0  0  0
   34.2380   28.1940   38.2360 H   0  0  0  0  0  0  0  0  0  0  0  0
   35.7840   29.6480   37.8530 C   0  0  0  0  0  0  0  0  0  0  0  0
   35.7960   29.5100   36.7800 H   0  0  0  0  0  0  0  0  0  0  0  0
   36.6410   30.5630   38.4310 C   0  0  0  0  0  3  0  0  0  0  0  0
   39.8240   29.4500   41.8080 O   0  0  0  0  0  0  0  0  0  0  0  0
   38.7510   28.6950   42.2080 C   0  0  0  0  0  0  0  0  0  0  0  0
   38.4240   27.5830   41.4150 C   0  0  0  0  0  0  0  0  0  0  0  0
   37.3210   26.8230   41.8450 C   0  0  0  0  0  0  0  0  0  0  0  0
   36.6550   27.2040   42.9770 N   0  0  0  0  0  0  0  0  0  0  0  0
   37.0190   28.2680   43.6800 C   0  0  0  0  0  0  0  0  0  0  0  0
   38.0660   29.0180   43.3020 N   0  0  0  0  0  0  0  0  0  0  0  0
   37.0820   25.9780   41.2320 H   0  0  0  0  0  0  0  0  0  0  0  0
   36.4420   28.4970   44.5550 H   0  0  0  0  0  0  0  0  0  0  0  0
   39.1970   27.2700   40.2370 C   0  0  0  0  0  0  0  0  0  0  0  0
   38.8620   27.7260   38.9660 C   0  0  0  0  0  0  0  0  0  0  0  0
   39.8420   27.2050   38.1640 C   0  0  0  0  0  0  0  0  0  0  0  0
   40.7170   26.4800   38.8910 N   0  0  0  0  0  0  0  0  0  0  0  0
   40.3010   26.5410   40.1280 N   0  0  0  0  0  0  0  0  0  0  0  0
   38.0080   28.3500   38.7160 H   0  0  0  0  0  0  0  0  0  0  0  0
   39.9140   27.3500   37.0860 H   0  0  0  0  0  0  0  0  0  0  0  0
   41.5720   25.9500   38.6100 H   0  0  0  0  0  0  0  0  0  0  0  0
  1  2  2  0  0  0  0
  1 27  1  0  0  0  0
  3  8  1  0  0  0  0
  3  1  1  0  0  0  0
  4  5  1  0  0  0  0
  4  3  1  0  0  0  0
  5 11  1  0  0  0  0
  5  6  1  0  0  0  0
  6 13  1  0  0  0  0
  7  6  1  0  0  0  0
  7 16  1  0  0  0  0
  7  8  1  0  0  0  0
  8 17  1  1  0  0  0
  9  4  1  0  0  0  0
 10  4  1  0  0  0  0
 12  5  1  0  0  0  0
 14  6  1  0  0  0  0
 15  7  1  0  0  0  0
 18  8  1  0  0  0  0
 18 19  1  0  0  0  0
 19 20  1  0  0  0  0
 21 19  2  0  0  0  0
 22 21  1  0  0  0  0
 23 22  1  0  0  0  0
 24 26  1  0  0  0  0
 24 22  2  0  0  0  0
 25 24  1  0  0  0  0
 26 18  2  0  0  0  0
 27 28  1  0  0  0  0
 28 33  1  0  0  0  0
 29 30  1  0  0  0  0
 29 28  2  0  0  0  0
 30 31  2  0  0  0  0
 31 32  1  0  0  0  0
 32 35  1  0  0  0  0
 33 32  2  0  0  0  0
 34 30  1  0  0  0  0
 36 29  1  0  0  0  0
 37 36  1  0  0  0  0
 38 39  1  0  0  0  0
 38 37  2  0  0  0  0
 39 40  1  0  0  0  0
 40 36  2  0  0  0  0
 41 37  1  0  0  0  0
 42 38  1  0  0  0  0
 43 39  1  0  0  0  0
M  END
>  <minimizedAffinity>
-5.95026159

$$$$

 OpenBabel03252508553D

 43 46  0  0  1  0  0  0  0  0999 V2000
   39.4710   28.9080   40.3990 C   0  0  0  0  0  0  0  0  0  0  0  0
   40.2450   28.8930   41.4190 O   0  0  0  0  0  0  0  0  0  0  0  0
   38.1970   28.6760   41.0490 N   0  0  0  0  0  0  0  0  0  0  0  0
   37.8190   29.6840   42.0180 C   0  0  0  0  0  0  0  0  0  0  0  0
   38.1710   29.0660   43.3860 C   0  0  0  0  0  0  0  0  0  0  0  0
   37.8860   27.5590   43.2630 C   0  0  0  0  0  0  0  0  0  0  0  0
   36.7560   27.3010   42.2900 C   0  0  0  0  0  0  0  0  0  0  0  0
   37.2510   27.5910   40.8760 C   0  0  1  0  0  0  0  0  0  0  0  0
   38.3310   30.6510   41.8740 H   0  0  0  0  0  0  0  0  0  0  0  0
   36.7130   29.8510   42.0430 H   0  0  0  0  0  0  0  0  0  0  0  0
   39.2560   29.1700   43.6030 H   0  0  0  0  0  0  0  0  0  0  0  0
   37.5870   29.5360   44.1870 H   0  0  0  0  0  0  0  0  0  0  0  0
   38.7720   27.0210   42.8950 H   0  0  0  0  0  0  0  0  0  0  0  0
   37.5200   27.1820   44.2510 H   0  0  0  0  0  0  0  0  0  0  0  0
   35.9420   27.9810   42.6000 H   0  0  0  0  0  0  0  0  0  0  0  0
   36.5030   26.2290   42.3900 H   0  0  0  0  0  0  0  0  0  0  0  0
   37.8440   26.7000   40.5740 H   0  0  0  0  0  0  0  0  0  0  0  0
   36.1600   27.8710   39.9410 C   0  0  0  0  0  0  0  0  0  0  0  0
   35.2780   28.8680   40.3210 C   0  0  0  0  0  0  0  0  0  0  0  0
   35.3610   29.4230   41.2400 H   0  0  0  0  0  0  0  0  0  0  0  0
   34.2050   29.2480   39.5530 C   0  0  0  0  0  3  0  0  0  0  0  0
   33.9730   28.6240   38.3440 C   0  0  0  0  0  0  0  0  0  0  0  0
   33.1290   28.9130   37.7260 H   0  0  0  0  0  0  0  0  0  0  0  0
   34.8390   27.6130   37.9270 C   0  0  0  0  0  0  0  0  0  0  0  0
   34.6910   27.0990   36.9850 H   0  0  0  0  0  0  0  0  0  0  0  0
   35.9040   27.2650   38.7320 C   0  0  0  0  0  3  0  0  0  0  0  0
   39.8400   29.0980   39.1070 O   0  0  0  0  0  0  0  0  0  0  0  0
   39.1160   28.8240   37.9740 C   0  0  0  0  0  0  0  0  0  0  0  0
   38.2760   29.8410   37.4930 C   0  0  0  0  0  0  0  0  0  0  0  0
   37.5450   29.5370   36.3310 C   0  0  0  0  0  0  0  0  0  0  0  0
   37.6930   28.3050   35.7570 N   0  0  0  0  0  0  0  0  0  0  0  0
   38.5070   27.3890   36.2660 C   0  0  0  0  0  0  0  0  0  0  0  0
   39.2220   27.6410   37.3730 N   0  0  0  0  0  0  0  0  0  0  0  0
   36.9070   30.3210   35.9740 H   0  0  0  0  0  0  0  0  0  0  0  0
   38.5650   26.4480   35.7540 H   0  0  0  0  0  0  0  0  0  0  0  0
   38.1950   31.1090   38.1780 C   0  0  0  0  0  0  0  0  0  0  0  0
   37.0440   31.5520   38.8200 C   0  0  0  0  0  0  0  0  0  0  0  0
   37.4010   32.7750   39.3240 C   0  0  0  0  0  0  0  0  0  0  0  0
   38.6810   33.0620   39.0120 N   0  0  0  0  0  0  0  0  0  0  0  0
   39.1270   32.0430   38.3270 N   0  0  0  0  0  0  0  0  0  0  0  0
   36.0990   31.0170   38.8820 H   0  0  0  0  0  0  0  0  0  0  0  0
   36.7480   33.4330   39.8980 H   0  0  0  0  0  0  0  0  0  0  0  0
   39.2720   33.8950   39.2300 H   0  0  0  0  0  0  0  0  0  0  0  0
  1  3  1  0  0  0  0
  1  2  2  0  0  0  0
  3  4  1  0  0  0  0
  4 10  1  0  0  0  0
  4  5  1  0  0  0  0
  5 11  1  0  0  0  0
  5 12  1  0  0  0  0
  6  5  1  0  0  0  0
  6 14  1  0  0  0  0
  7 16  1  0  0  0  0
  7 15  1  0  0  0  0
  7  6  1  0  0  0  0
  8 17  1  6  0  0  0
  8  3  1  0  0  0  0
  8  7  1  0  0  0  0
  9  4  1  0  0  0  0
 13  6  1  0  0  0  0
 18 19  1  0  0  0  0
 18  8  1  0  0  0  0
 19 20  1  0  0  0  0
 21 19  2  0  0  0  0
 22 21  1  0  0  0  0
 23 22  1  0  0  0  0
 24 22  2  0  0  0  0
 24 26  1  0  0  0  0
 25 24  1  0  0  0  0
 26 18  2  0  0  0  0
 27  1  1  0  0  0  0
 28 27  1  0  0  0  0
 29 28  1  0  0  0  0
 29 36  1  0  0  0  0
 30 29  2  0  0  0  0
 31 32  2  0  0  0  0
 31 30  1  0  0  0  0
 32 33  1  0  0  0  0
 33 28  2  0  0  0  0
 34 30  1  0  0  0  0
 35 32  1  0  0  0  0
 36 40  2  0  0  0  0
 36 37  1  0  0  0  0
 37 41  1  0  0  0  0
 37 38  2  0  0  0  0
 38 42  1  0  0  0  0
 39 43  1  0  0  0  0
 39 38  1  0  0  0  0
 40 39  1  0  0  0  0
M  END
>  <minimizedAffinity>
-5.91878939

$$$$

 OpenBabel03252508553D

 43 46  0  0  1  0  0  0  0  0999 V2000
   38.6680   29.2330   38.0460 C   0  0  0  0  0  0  0  0  0  0  0  0
   38.2820   29.3300   36.8290 O   0  0  0  0  0  0  0  0  0  0  0  0
   37.4320   28.8000   38.6650 N   0  0  0  0  0  0  0  0  0  0  0  0
   36.9140   27.5410   38.1700 C   0  0  0  0  0  0  0  0  0  0  0  0
   35.8050   27.9360   37.1740 C   0  0  0  0  0  0  0  0  0  0  0  0
   35.1390   29.1980   37.7510 C   0  0  0  0  0  0  0  0  0  0  0  0
   35.1980   29.1950   39.2640 C   0  0  0  0  0  0  0  0  0  0  0  0
   36.6400   29.4360   39.7000 C   0  0  1  0  0  0  0  0  0  0  0  0
   37.6780   26.9080   37.6850 H   0  0  0  0  0  0  0  0  0  0  0  0
   36.4000   26.9520   38.9700 H   0  0  0  0  0  0  0  0  0  0  0  0
   36.2350   28.2220   36.1910 H   0  0  0  0  0  0  0  0  0  0  0  0
   35.0910   27.1140   37.0410 H   0  0  0  0  0  0  0  0  0  0  0  0
   35.6510   30.1060   37.4010 H   0  0  0  0  0  0  0  0  0  0  0  0
   34.0510   29.1780   37.4950 H   0  0  0  0  0  0  0  0  0  0  0  0
   34.8240   28.2010   39.5690 H   0  0  0  0  0  0  0  0  0  0  0  0
   34.5570   30.0330   39.5970 H   0  0  0  0  0  0  0  0  0  0  0  0
   36.8080   30.5300   39.5990 H   0  0  0  0  0  0  0  0  0  0  0  0
   36.9070   28.9600   41.0580 C   0  0  0  0  0  0  0  0  0  0  0  0
   37.9290   29.6030   41.7340 C   0  0  0  0  0  0  0  0  0  0  0  0
   38.5110   30.4080   41.3170 H   0  0  0  0  0  0  0  0  0  0  0  0
   38.3010   29.2740   43.0150 C   0  0  0  0  0  3  0  0  0  0  0  0
   37.6410   28.2600   43.6800 C   0  0  0  0  0  0  0  0  0  0  0  0
   37.9230   27.9880   44.6920 H   0  0  0  0  0  0  0  0  0  0  0  0
   36.6050   27.5880   43.0310 C   0  0  0  0  0  0  0  0  0  0  0  0
   36.0630   26.7860   43.5180 H   0  0  0  0  0  0  0  0  0  0  0  0
   36.2680   27.9530   41.7450 C   0  0  0  0  0  3  0  0  0  0  0  0
   39.9130   29.4870   38.5220 O   0  0  0  0  0  0  0  0  0  0  0  0
   40.9220   30.1900   37.9130 C   0  0  0  0  0  0  0  0  0  0  0  0
   41.1760   31.4850   38.3930 C   0  0  0  0  0  0  0  0  0  0  0  0
   42.2140   32.1860   37.7530 C   0  0  0  0  0  0  0  0  0  0  0  0
   42.8930   31.5800   36.7320 N   0  0  0  0  0  0  0  0  0  0  0  0
   42.5990   30.3510   36.3290 C   0  0  0  0  0  0  0  0  0  0  0  0
   41.6160   29.6500   36.9140 N   0  0  0  0  0  0  0  0  0  0  0  0
   42.3980   33.1730   38.1290 H   0  0  0  0  0  0  0  0  0  0  0  0
   43.1800   29.9490   35.5210 H   0  0  0  0  0  0  0  0  0  0  0  0
   40.3970   32.0300   39.4800 C   0  0  0  0  0  0  0  0  0  0  0  0
   39.1940   32.7010   39.2890 C   0  0  0  0  0  0  0  0  0  0  0  0
   38.8050   33.0400   40.5580 C   0  0  0  0  0  0  0  0  0  0  0  0
   39.7060   32.6070   41.4630 N   0  0  0  0  0  0  0  0  0  0  0  0
   40.6450   32.0060   40.7830 N   0  0  0  0  0  0  0  0  0  0  0  0
   38.7120   32.8910   38.3330 H   0  0  0  0  0  0  0  0  0  0  0  0
   37.8950   33.5840   40.8110 H   0  0  0  0  0  0  0  0  0  0  0  0
   39.7290   32.6880   42.5040 H   0  0  0  0  0  0  0  0  0  0  0  0
  1 27  1  0  0  0  0
  1  3  1  0  0  0  0
  2  1  2  0  0  0  0
  3  8  1  0  0  0  0
  4  3  1  0  0  0  0
  4 10  1  0  0  0  0
  5  6  1  0  0  0  0
  5  4  1  0  0  0  0
  6  7  1  0  0  0  0
  7 15  1  0  0  0  0
  7 16  1  0  0  0  0
  7  8  1  0  0  0  0
  8 17  1  6  0  0  0
  8 18  1  0  0  0  0
  9  4  1  0  0  0  0
 11  5  1  0  0  0  0
 12  5  1  0  0  0  0
 13  6  1  0  0  0  0
 14  6  1  0  0  0  0
 18 19  2  0  0  0  0
 18 26  1  0  0  0  0
 19 21  1  0  0  0  0
 20 19  1  0  0  0  0
 21 22  2  0  0  0  0
 22 23  1  0  0  0  0
 24 25  1  0  0  0  0
 24 22  1  0  0  0  0
 26 24  2  0  0  0  0
 28 29  1  0  0  0  0
 28 27  1  0  0  0  0
 29 36  1  0  0  0  0
 30 34  1  0  0  0  0
 30 29  2  0  0  0  0
 31 30  1  0  0  0  0
 32 31  2  0  0  0  0
 32 33  1  0  0  0  0
 33 28  2  0  0  0  0
 35 32  1  0  0  0  0
 36 40  2  0  0  0  0
 37 36  1  0  0  0  0
 37 38  2  0  0  0  0
 38 42  1  0  0  0  0
 38 39  1  0  0  0  0
 39 43  1  0  0  0  0
 40 39  1  0  0  0  0
 41 37  1  0  0  0  0
M  END
>  <minimizedAffinity>
-5.80383396

$$$$

 OpenBabel03252508553D

 43 46  0  0  1  0  0  0  0  0999 V2000
   37.9430   28.9570   38.0670 C   0  0  0  0  0  0  0  0  0  0  0  0
   37.6880   29.6180   37.0020 O   0  0  0  0  0  0  0  0  0  0  0  0
   37.1230   27.7850   37.8350 N   0  0  0  0  0  0  0  0  0  0  0  0
   37.4670   27.0310   36.6470 C   0  0  0  0  0  0  0  0  0  0  0  0
   36.4300   27.4670   35.5920 C   0  0  0  0  0  0  0  0  0  0  0  0
   35.1130   27.6970   36.3530 C   0  0  0  0  0  0  0  0  0  0  0  0
   35.0190   26.7850   37.5570 C   0  0  0  0  0  0  0  0  0  0  0  0
   36.0170   27.2580   38.6100 C   0  0  1  0  0  0  0  0  0  0  0  0
   38.4960   27.2090   36.2920 H   0  0  0  0  0  0  0  0  0  0  0  0
   37.3080   25.9320   36.7840 H   0  0  0  0  0  0  0  0  0  0  0  0
   36.7110   28.4400   35.1360 H   0  0  0  0  0  0  0  0  0  0  0  0
   36.3300   26.7060   34.8080 H   0  0  0  0  0  0  0  0  0  0  0  0
   35.0450   28.7340   36.7140 H   0  0  0  0  0  0  0  0  0  0  0  0
   34.2600   27.4050   35.6900 H   0  0  0  0  0  0  0  0  0  0  0  0
   35.2530   25.7740   37.1770 H   0  0  0  0  0  0  0  0  0  0  0  0
   33.9860   26.8890   37.9400 H   0  0  0  0  0  0  0  0  0  0  0  0
   35.5390   28.1290   39.1100 H   0  0  0  0  0  0  0  0  0  0  0  0
   36.3780   26.2050   39.5600 C   0  0  0  0  0  0  0  0  0  0  0  0
   36.9900   26.6290   40.7280 C   0  0  0  0  0  0  0  0  0  0  0  0
   37.2010   27.6600   40.9540 H   0  0  0  0  0  0  0  0  0  0  0  0
   37.3880   25.7640   41.7180 C   0  0  0  0  0  3  0  0  0  0  0  0
   37.1800   24.4080   41.5670 C   0  0  0  0  0  0  0  0  0  0  0  0
   37.4890   23.7120   42.3410 H   0  0  0  0  0  0  0  0  0  0  0  0
   36.5670   23.9420   40.4040 C   0  0  0  0  0  0  0  0  0  0  0  0
   36.3860   22.8860   40.2470 H   0  0  0  0  0  0  0  0  0  0  0  0
   36.1850   24.8490   39.4370 C   0  0  0  0  0  3  0  0  0  0  0  0
   38.7690   29.3350   39.0760 O   0  0  0  0  0  0  0  0  0  0  0  0
   39.2800   30.5850   39.3240 C   0  0  0  0  0  0  0  0  0  0  0  0
   39.0820   31.1100   40.6110 C   0  0  0  0  0  0  0  0  0  0  0  0
   39.6160   32.3910   40.8410 C   0  0  0  0  0  0  0  0  0  0  0  0
   40.2740   33.0270   39.8260 N   0  0  0  0  0  0  0  0  0  0  0  0
   40.4240   32.4710   38.6310 C   0  0  0  0  0  0  0  0  0  0  0  0
   39.9310   31.2510   38.3720 N   0  0  0  0  0  0  0  0  0  0  0  0
   39.4580   32.7800   41.8270 H   0  0  0  0  0  0  0  0  0  0  0  0
   40.9540   33.0380   37.8900 H   0  0  0  0  0  0  0  0  0  0  0  0
   38.3710   30.3500   41.6110 C   0  0  0  0  0  0  0  0  0  0  0  0
   39.0100   29.6520   42.6310 C   0  0  0  0  0  0  0  0  0  0  0  0
   37.9790   29.0880   43.3350 C   0  0  0  0  0  0  0  0  0  0  0  0
   36.7920   29.4180   42.7870 N   0  0  0  0  0  0  0  0  0  0  0  0
   37.0630   30.1750   41.7570 N   0  0  0  0  0  0  0  0  0  0  0  0
   40.0830   29.5950   42.7910 H   0  0  0  0  0  0  0  0  0  0  0  0
   38.0930   28.4590   44.2180 H   0  0  0  0  0  0  0  0  0  0  0  0
   35.8150   29.1680   43.0590 H   0  0  0  0  0  0  0  0  0  0  0  0
  1 27  1  0  0  0  0
  2  1  2  0  0  0  0
  3  1  1  0  0  0  0
  3  8  1  0  0  0  0
  4 10  1  0  0  0  0
  4  3  1  0  0  0  0
  5  6  1  0  0  0  0
  5  4  1  0  0  0  0
  6 13  1  0  0  0  0
  6  7  1  0  0  0  0
  7 16  1  0  0  0  0
  7  8  1  0  0  0  0
  8 17  1  1  0  0  0
  8 18  1  0  0  0  0
  9  4  1  0  0  0  0
 11  5  1  0  0  0  0
 12  5  1  0  0  0  0
 14  6  1  0  0  0  0
 15  7  1  0  0  0  0
 18 19  1  0  0  0  0
 19 20  1  0  0  0  0
 19 21  2  0  0  0  0
 22 21  1  0  0  0  0
 22 23  1  0  0  0  0
 24 22  2  0  0  0  0
 25 24  1  0  0  0  0
 26 18  2  0  0  0  0
 26 24  1  0  0  0  0
 27 28  1  0  0  0  0
 28 29  1  0  0  0  0
 29 30  2  0  0  0  0
 29 36  1  0  0  0  0
 30 34  1  0  0  0  0
 31 30  1  0  0  0  0
 32 31  2  0  0  0  0
 33 32  1  0  0  0  0
 33 28  2  0  0  0  0
 35 32  1  0  0  0  0
 36 40  2  0  0  0  0
 36 37  1  0  0  0  0
 37 41  1  0  0  0  0
 37 38  2  0  0  0  0
 38 42  1  0  0  0  0
 39 43  1  0  0  0  0
 39 38  1  0  0  0  0
 40 39  1  0  0  0  0
M  END
>  <minimizedAffinity>
-5.74036741

$$$$

 OpenBabel03252508553D

 43 46  0  0  1  0  0  0  0  0999 V2000
   37.4250   30.9940   39.3440 C   0  0  0  0  0  0  0  0  0  0  0  0
   37.1410   31.6540   38.2850 O   0  0  0  0  0  0  0  0  0  0  0  0
   36.8970   29.6950   38.9780 N   0  0  0  0  0  0  0  0  0  0  0  0
   37.5060   29.1030   37.8050 C   0  0  0  0  0  0  0  0  0  0  0  0
   36.5090   29.3800   36.6620 C   0  0  0  0  0  0  0  0  0  0  0  0
   35.1050   29.2870   37.2850 C   0  0  0  0  0  0  0  0  0  0  0  0
   35.0880   28.3030   38.4340 C   0  0  0  0  0  0  0  0  0  0  0  0
   35.8560   28.9060   39.6070 C   0  0  1  0  0  0  0  0  0  0  0  0
   38.5040   29.5100   37.5710 H   0  0  0  0  0  0  0  0  0  0  0  0
   37.5700   27.9880   37.8810 H   0  0  0  0  0  0  0  0  0  0  0  0
   36.6220   30.4170   36.2780 H   0  0  0  0  0  0  0  0  0  0  0  0
   36.6480   28.6650   35.8420 H   0  0  0  0  0  0  0  0  0  0  0  0
   34.7850   30.2640   37.6780 H   0  0  0  0  0  0  0  0  0  0  0  0
   34.4020   28.8670   36.5230 H   0  0  0  0  0  0  0  0  0  0  0  0
   35.5660   27.3880   38.0420 H   0  0  0  0  0  0  0  0  0  0  0  0
   34.0250   28.1690   38.7070 H   0  0  0  0  0  0  0  0  0  0  0  0
   35.1600   29.6270   40.0870 H   0  0  0  0  0  0  0  0  0  0  0  0
   36.3370   27.8930   40.5490 C   0  0  0  0  0  0  0  0  0  0  0  0
   36.2750   28.2350   41.8890 C   0  0  0  0  0  0  0  0  0  0  0  0
   35.9020   29.1790   42.2500 H   0  0  0  0  0  0  0  0  0  0  0  0
   36.6860   27.3940   42.8940 C   0  0  0  0  0  3  0  0  0  0  0  0
   37.1880   26.1480   42.5800 C   0  0  0  0  0  0  0  0  0  0  0  0
   37.5180   25.4720   43.3640 H   0  0  0  0  0  0  0  0  0  0  0  0
   37.2670   25.7660   41.2410 C   0  0  0  0  0  0  0  0  0  0  0  0
   37.6550   24.7970   40.9540 H   0  0  0  0  0  0  0  0  0  0  0  0
   36.8420   26.6450   40.2660 C   0  0  0  0  0  3  0  0  0  0  0  0
   38.0490   31.4720   40.4510 O   0  0  0  0  0  0  0  0  0  0  0  0
   39.2220   32.1810   40.5170 C   0  0  0  0  0  0  0  0  0  0  0  0
   40.3730   31.4740   40.8980 C   0  0  0  0  0  0  0  0  0  0  0  0
   41.5630   32.2230   40.9580 C   0  0  0  0  0  0  0  0  0  0  0  0
   41.5250   33.5540   40.6500 N   0  0  0  0  0  0  0  0  0  0  0  0
   40.3990   34.1600   40.2960 C   0  0  0  0  0  0  0  0  0  0  0  0
   39.2440   33.4810   40.2270 N   0  0  0  0  0  0  0  0  0  0  0  0
   42.4350   31.6720   41.2510 H   0  0  0  0  0  0  0  0  0  0  0  0
   40.4570   35.2070   40.0710 H   0  0  0  0  0  0  0  0  0  0  0  0
   40.3020   30.0650   41.2030 C   0  0  0  0  0  0  0  0  0  0  0  0
   40.2200   29.5730   42.5010 C   0  0  0  0  0  0  0  0  0  0  0  0
   40.1730   28.2140   42.3320 C   0  0  0  0  0  0  0  0  0  0  0  0
   40.2220   27.8960   41.0220 N   0  0  0  0  0  0  0  0  0  0  0  0
   40.2980   29.0280   40.3750 N   0  0  0  0  0  0  0  0  0  0  0  0
   40.2020   30.1680   43.4110 H   0  0  0  0  0  0  0  0  0  0  0  0
   40.1060   27.4830   43.1380 H   0  0  0  0  0  0  0  0  0  0  0  0
   40.2070   26.9710   40.5380 H   0  0  0  0  0  0  0  0  0  0  0  0
  1 27  1  0  0  0  0
  2  1  2  0  0  0  0
  3  1  1  0  0  0  0
  3  8  1  0  0  0  0
  4 10  1  0  0  0  0
  4  3  1  0  0  0  0
  5  6  1  0  0  0  0
  5  4  1  0  0  0  0
  6 13  1  0  0  0  0
  6  7  1  0  0  0  0
  7 16  1  0  0  0  0
  7  8  1  0  0  0  0
  8 17  1  1  0  0  0
  8 18  1  0  0  0  0
  9  4  1  0  0  0  0
 11  5  1  0  0  0  0
 12  5  1  0  0  0  0
 14  6  1  0  0  0  0
 15  7  1  0  0  0  0
 18 19  1  0  0  0  0
 19 20  1  0  0  0  0
 19 21  2  0  0  0  0
 22 21  1  0  0  0  0
 22 23  1  0  0  0  0
 24 22  2  0  0  0  0
 25 24  1  0  0  0  0
 26 18  2  0  0  0  0
 26 24  1  0  0  0  0
 27 28  1  0  0  0  0
 28 29  1  0  0  0  0
 29 30  2  0  0  0  0
 29 36  1  0  0  0  0
 30 34  1  0  0  0  0
 31 30  1  0  0  0  0
 32 31  2  0  0  0  0
 33 32  1  0  0  0  0
 33 28  2  0  0  0  0
 35 32  1  0  0  0  0
 36 37  1  0  0  0  0
 37 41  1  0  0  0  0
 38 37  2  0  0  0  0
 38 42  1  0  0  0  0
 39 38  1  0  0  0  0
 40 39  1  0  0  0  0
 40 36  2  0  0  0  0
 43 39  1  0  0  0  0
M  END
>  <minimizedAffinity>
-5.73156357

$$$$

 OpenBabel03252508553D

 43 46  0  0  1  0  0  0  0  0999 V2000
   39.3330   29.2870   41.5800 C   0  0  0  0  0  0  0  0  0  0  0  0
   39.7630   28.9910   42.7490 O   0  0  0  0  0  0  0  0  0  0  0  0
   38.1120   28.5070   41.5590 N   0  0  0  0  0  0  0  0  0  0  0  0
   37.1500   28.8580   42.5840 C   0  0  0  0  0  0  0  0  0  0  0  0
   37.3370   27.7880   43.6800 C   0  0  0  0  0  0  0  0  0  0  0  0
   37.6700   26.4770   42.9480 C   0  0  0  0  0  0  0  0  0  0  0  0
   37.0100   26.4360   41.5870 C   0  0  0  0  0  0  0  0  0  0  0  0
   37.7130   27.4330   40.6700 C   0  0  1  0  0  0  0  0  0  0  0  0
   37.2890   29.8740   42.9910 H   0  0  0  0  0  0  0  0  0  0  0  0
   36.0960   28.7410   42.2300 H   0  0  0  0  0  0  0  0  0  0  0  0
   38.2090   28.0270   44.3240 H   0  0  0  0  0  0  0  0  0  0  0  0
   36.4340   27.7030   44.2960 H   0  0  0  0  0  0  0  0  0  0  0  0
   38.7540   26.3770   42.7950 H   0  0  0  0  0  0  0  0  0  0  0  0
   37.2250   25.6250   43.5200 H   0  0  0  0  0  0  0  0  0  0  0  0
   35.9520   26.7000   41.7660 H   0  0  0  0  0  0  0  0  0  0  0  0
   37.1540   25.4060   41.2070 H   0  0  0  0  0  0  0  0  0  0  0  0
   38.6490   26.9320   40.3390 H   0  0  0  0  0  0  0  0  0  0  0  0
   36.8800   27.8480   39.5400 C   0  0  0  0  0  0  0  0  0  0  0  0
   36.8830   29.2020   39.2520 C   0  0  0  0  0  0  0  0  0  0  0  0
   37.4510   29.9310   39.8050 H   0  0  0  0  0  0  0  0  0  0  0  0
   36.1550   29.7480   38.2230 C   0  0  0  0  0  3  0  0  0  0  0  0
   35.3780   28.9310   37.4260 C   0  0  0  0  0  0  0  0  0  0  0  0
   34.7970   29.3480   36.6100 H   0  0  0  0  0  0  0  0  0  0  0  0
   35.3490   27.5610   37.6850 C   0  0  0  0  0  0  0  0  0  0  0  0
   34.7520   26.8870   37.0840 H   0  0  0  0  0  0  0  0  0  0  0  0
   36.0960   27.0590   38.7300 C   0  0  0  0  0  3  0  0  0  0  0  0
   39.9290   30.1150   40.6850 O   0  0  0  0  0  0  0  0  0  0  0  0
   40.8190   31.1290   40.9360 C   0  0  0  0  0  0  0  0  0  0  0  0
   40.4820   32.4050   40.4600 C   0  0  0  0  0  0  0  0  0  0  0  0
   41.4100   33.4280   40.7300 C   0  0  0  0  0  0  0  0  0  0  0  0
   42.5500   33.1230   41.4210 N   0  0  0  0  0  0  0  0  0  0  0  0
   42.8050   31.8920   41.8430 C   0  0  0  0  0  0  0  0  0  0  0  0
   41.9450   30.8900   41.6050 N   0  0  0  0  0  0  0  0  0  0  0  0
   41.1410   34.3970   40.3610 H   0  0  0  0  0  0  0  0  0  0  0  0
   43.7230   31.7380   42.3780 H   0  0  0  0  0  0  0  0  0  0  0  0
   39.2490   32.6170   39.7400 C   0  0  0  0  0  0  0  0  0  0  0  0
   38.1050   33.1410   40.3330 C   0  0  0  0  0  0  0  0  0  0  0  0
   37.1930   33.1710   39.3110 C   0  0  0  0  0  0  0  0  0  0  0  0
   37.7400   32.7000   38.1720 N   0  0  0  0  0  0  0  0  0  0  0  0
   38.9710   32.3780   38.4640 N   0  0  0  0  0  0  0  0  0  0  0  0
   38.0040   33.4410   41.3720 H   0  0  0  0  0  0  0  0  0  0  0  0
   36.1660   33.5240   39.3970 H   0  0  0  0  0  0  0  0  0  0  0  0
   37.3400   32.5810   37.2140 H   0  0  0  0  0  0  0  0  0  0  0  0
  1  2  2  0  0  0  0
  3  1  1  0  0  0  0
  3  4  1  0  0  0  0
  4  9  1  0  0  0  0
  4  5  1  0  0  0  0
  5 12  1  0  0  0  0
  5 11  1  0  0  0  0
  6 14  1  0  0  0  0
  6  5  1  0  0  0  0
  7 15  1  0  0  0  0
  7  6  1  0  0  0  0
  8 17  1  6  0  0  0
  8  3  1  0  0  0  0
  8  7  1  0  0  0  0
 10  4  1  0  0  0  0
 13  6  1  0  0  0  0
 16  7  1  0  0  0  0
 18  8  1  0  0  0  0
 19 18  1  0  0  0  0
 19 20  1  0  0  0  0
 21 19  2  0  0  0  0
 22 24  2  0  0  0  0
 22 21  1  0  0  0  0
 23 22  1  0  0  0  0
 24 26  1  0  0  0  0
 25 24  1  0  0  0  0
 26 18  2  0  0  0  0
 27 28  1  0  0  0  0
 27  1  1  0  0  0  0
 28 33  1  0  0  0  0
 29 30  1  0  0  0  0
 29 28  2  0  0  0  0
 30 31  2  0  0  0  0
 31 32  1  0  0  0  0
 32 35  1  0  0  0  0
 33 32  2  0  0  0  0
 34 30  1  0  0  0  0
 36 37  1  0  0  0  0
 36 29  1  0  0  0  0
 37 41  1  0  0  0  0
 38 42  1  0  0  0  0
 38 37  2  0  0  0  0
 39 40  1  0  0  0  0
 39 38  1  0  0  0  0
 40 36  2  0  0  0  0
 43 39  1  0  0  0  0
M  END
>  <minimizedAffinity>
-5.73118353

$$$$
