
 OpenBabel03252502223D

 33 35  0  0  1  0  0  0  0  0999 V2000
   38.5570   31.2560   40.7280 N   0  0  0  0  0  0  0  0  0  0  0  0
   39.7330   32.0160   40.3600 C   0  0  0  0  0  0  0  0  0  0  0  0
   39.4080   33.4670   40.7750 C   0  0  0  0  0  0  0  0  0  0  0  0
   38.2590   34.0030   39.9880 C   0  0  0  0  0  0  0  0  0  0  0  0
   37.2060   33.0110   39.6680 C   0  0  0  0  0  0  0  0  0  0  0  0
   37.2190   31.7660   40.5000 C   0  0  1  0  0  0  0  0  0  0  0  0
   40.6260   31.7150   40.9120 H   0  0  0  0  0  0  0  0  0  0  0  0
   39.9240   32.0050   39.2720 H   0  0  0  0  0  0  0  0  0  0  0  0
   40.3060   34.0550   40.4830 H   0  0  0  0  0  0  0  0  0  0  0  0
   39.2400   33.5120   41.8620 H   0  0  0  0  0  0  0  0  0  0  0  0
   37.7850   34.8010   40.6110 H   0  0  0  0  0  0  0  0  0  0  0  0
   38.5670   34.5290   39.0440 H   0  0  0  0  0  0  0  0  0  0  0  0
   36.1730   33.4200   39.7020 H   0  0  0  0  0  0  0  0  0  0  0  0
   37.3450   32.6880   38.5970 H   0  0  0  0  0  0  0  0  0  0  0  0
   36.7320   31.9910   41.4710 H   0  0  0  0  0  0  0  0  0  0  0  0
   39.2050   27.6190   41.3110 C   0  0  0  0  0  0  0  0  0  0  0  0
   39.1470   28.8370   40.6270 C   0  0  0  0  0  0  0  0  0  0  0  0
   38.6580   29.9700   41.3300 C   0  0  0  0  0  0  0  0  0  0  0  0
   38.2800   29.7900   42.6220 N   0  0  0  0  0  0  0  0  0  0  0  0
   38.3520   28.5940   43.2490 C   0  0  0  0  0  0  0  0  0  0  0  0
   38.8190   27.5090   42.5810 N   0  0  0  0  0  0  0  0  0  0  0  0
   39.5970   26.8460   40.6530 H   0  0  0  0  0  0  0  0  0  0  0  0
   39.4350   29.0120   39.6150 H   0  0  0  0  0  0  0  0  0  0  0  0
   38.0620   28.4240   44.2650 H   0  0  0  0  0  0  0  0  0  0  0  0
   36.4450   30.7290   39.7490 C   0  0  0  0  0  0  0  0  0  0  0  0
   35.5010   29.9520   40.3930 C   0  0  0  0  0  0  0  0  0  0  0  0
   35.3430   30.1240   41.4570 H   0  0  0  0  0  0  0  0  0  0  0  0
   34.8240   29.0210   39.6600 C   0  0  0  0  0  3  0  0  0  0  0  0
   35.0850   28.8700   38.3170 C   0  0  0  0  0  0  0  0  0  0  0  0
   34.5220   28.1170   37.7770 H   0  0  0  0  0  0  0  0  0  0  0  0
   36.0360   29.6450   37.6490 C   0  0  0  0  0  0  0  0  0  0  0  0
   36.2060   29.4840   36.5760 H   0  0  0  0  0  0  0  0  0  0  0  0
   36.7250   30.5920   38.3910 C   0  0  0  0  0  3  0  0  0  0  0  0
  1 18  1  0  0  0  0
  2  1  1  0  0  0  0
  2  3  1  0  0  0  0
  2  7  1  0  0  0  0
  3 10  1  0  0  0  0
  4 11  1  0  0  0  0
  4  3  1  0  0  0  0
  5 13  1  0  0  0  0
  5  4  1  0  0  0  0
  5  6  1  0  0  0  0
  6  1  1  0  0  0  0
  6 15  1  1  0  0  0
  8  2  1  0  0  0  0
  9  3  1  0  0  0  0
 12  4  1  0  0  0  0
 14  5  1  0  0  0  0
 16 21  1  0  0  0  0
 17 16  2  0  0  0  0
 17 18  1  0  0  0  0
 18 19  2  0  0  0  0
 19 20  1  0  0  0  0
 20 24  1  0  0  0  0
 21 20  2  0  0  0  0
 22 16  1  0  0  0  0
 23 17  1  0  0  0  0
 25 26  1  0  0  0  0
 25  6  1  0  0  0  0
 26 27  1  0  0  0  0
 28 26  2  0  0  0  0
 29 28  1  0  0  0  0
 30 29  1  0  0  0  0
 31 29  2  0  0  0  0
 31 33  1  0  0  0  0
 32 31  1  0  0  0  0
 33 25  2  0  0  0  0
M  END
>  <minimizedAffinity>
-5.30525064

$$$$

 OpenBabel03252502223D

 33 35  0  0  1  0  0  0  0  0999 V2000
   38.7820   31.0840   40.5750 N   0  0  0  0  0  0  0  0  0  0  0  0
   39.9830   31.7570   40.1270 C   0  0  0  0  0  0  0  0  0  0  0  0
   39.8000   33.2240   40.5730 C   0  0  0  0  0  0  0  0  0  0  0  0
   38.6410   33.8540   39.8740 C   0  0  0  0  0  0  0  0  0  0  0  0
   37.4950   32.9480   39.6260 C   0  0  0  0  0  0  0  0  0  0  0  0
   37.4740   31.6960   40.4490 C   0  0  1  0  0  0  0  0  0  0  0  0
   40.8880   31.3840   40.6110 H   0  0  0  0  0  0  0  0  0  0  0  0
   40.0930   31.7440   39.0280 H   0  0  0  0  0  0  0  0  0  0  0  0
   40.7170   33.7460   40.2190 H   0  0  0  0  0  0  0  0  0  0  0  0
   39.7150   33.2700   41.6690 H   0  0  0  0  0  0  0  0  0  0  0  0
   38.2760   34.6780   40.5340 H   0  0  0  0  0  0  0  0  0  0  0  0
   38.9190   34.3650   38.9130 H   0  0  0  0  0  0  0  0  0  0  0  0
   36.5020   33.4330   39.7370 H   0  0  0  0  0  0  0  0  0  0  0  0
   37.5320   32.6270   38.5460 H   0  0  0  0  0  0  0  0  0  0  0  0
   37.0770   31.9460   41.4530 H   0  0  0  0  0  0  0  0  0  0  0  0
   39.1370   27.3950   41.0780 C   0  0  0  0  0  0  0  0  0  0  0  0
   39.1170   28.6210   40.4060 C   0  0  0  0  0  0  0  0  0  0  0  0
   38.8280   29.7880   41.1610 C   0  0  0  0  0  0  0  0  0  0  0  0
   38.5920   29.6310   42.4900 N   0  0  0  0  0  0  0  0  0  0  0  0
   38.6220   28.4260   43.1040 C   0  0  0  0  0  0  0  0  0  0  0  0
   38.8970   27.3090   42.3850 N   0  0  0  0  0  0  0  0  0  0  0  0
   39.3700   26.5950   40.3780 H   0  0  0  0  0  0  0  0  0  0  0  0
   39.2970   28.7780   39.3660 H   0  0  0  0  0  0  0  0  0  0  0  0
   38.4400   28.2740   44.1480 H   0  0  0  0  0  0  0  0  0  0  0  0
   36.5710   30.7290   39.7490 C   0  0  0  0  0  0  0  0  0  0  0  0
   36.6810   30.5250   38.3870 C   0  0  0  0  0  0  0  0  0  0  0  0
   37.4420   31.0870   37.8480 H   0  0  0  0  0  0  0  0  0  0  0  0
   35.8320   29.6310   37.7990 C   0  0  0  0  0  3  0  0  0  0  0  0
   34.8970   28.9610   38.5550 C   0  0  0  0  0  0  0  0  0  0  0  0
   34.2450   28.2620   38.0440 H   0  0  0  0  0  0  0  0  0  0  0  0
   34.7710   29.1550   39.9330 C   0  0  0  0  0  0  0  0  0  0  0  0
   34.0080   28.5950   40.4890 H   0  0  0  0  0  0  0  0  0  0  0  0
   35.6330   30.0620   40.5320 C   0  0  0  0  0  3  0  0  0  0  0  0
  1 18  1  0  0  0  0
  2  3  1  0  0  0  0
  2  1  1  0  0  0  0
  2  7  1  0  0  0  0
  3 10  1  0  0  0  0
  4 11  1  0  0  0  0
  4  3  1  0  0  0  0
  5 13  1  0  0  0  0
  5  4  1  0  0  0  0
  5  6  1  0  0  0  0
  6  1  1  0  0  0  0
  6 15  1  1  0  0  0
  8  2  1  0  0  0  0
  9  3  1  0  0  0  0
 12  4  1  0  0  0  0
 14  5  1  0  0  0  0
 16 21  1  0  0  0  0
 17 16  2  0  0  0  0
 17 18  1  0  0  0  0
 18 19  2  0  0  0  0
 19 20  1  0  0  0  0
 20 24  1  0  0  0  0
 21 20  2  0  0  0  0
 22 16  1  0  0  0  0
 23 17  1  0  0  0  0
 25  6  1  0  0  0  0
 25 33  1  0  0  0  0
 26 25  2  0  0  0  0
 27 26  1  0  0  0  0
 28 26  1  0  0  0  0
 28 29  2  0  0  0  0
 29 31  1  0  0  0  0
 30 29  1  0  0  0  0
 31 32  1  0  0  0  0
 31 33  2  0  0  0  0
M  END
>  <minimizedAffinity>
-5.1074028

$$$$

 OpenBabel03252502223D

 33 35  0  0  1  0  0  0  0  0999 V2000
   36.6320   28.3610   40.9910 N   0  0  0  0  0  0  0  0  0  0  0  0
   37.0520   27.0960   41.5570 C   0  0  0  0  0  0  0  0  0  0  0  0
   36.7780   27.2350   43.0710 C   0  0  0  0  0  0  0  0  0  0  0  0
   37.6290   28.3030   43.6720 C   0  0  0  0  0  0  0  0  0  0  0  0
   37.8710   29.4740   42.7960 C   0  0  0  0  0  0  0  0  0  0  0  0
   36.9260   29.6220   41.6430 C   0  0  1  0  0  0  0  0  0  0  0  0
   36.4600   26.2510   41.1990 H   0  0  0  0  0  0  0  0  0  0  0  0
   38.1310   26.9050   41.4200 H   0  0  0  0  0  0  0  0  0  0  0  0
   37.1100   26.2680   43.5100 H   0  0  0  0  0  0  0  0  0  0  0  0
   35.7030   27.3980   43.2390 H   0  0  0  0  0  0  0  0  0  0  0  0
   37.0910   28.6730   44.5780 H   0  0  0  0  0  0  0  0  0  0  0  0
   38.6130   27.9280   44.0620 H   0  0  0  0  0  0  0  0  0  0  0  0
   37.8910   30.4460   43.3340 H   0  0  0  0  0  0  0  0  0  0  0  0
   38.9050   29.3740   42.3580 H   0  0  0  0  0  0  0  0  0  0  0  0
   35.9880   30.0790   42.0180 H   0  0  0  0  0  0  0  0  0  0  0  0
   33.9800   28.9880   38.4290 C   0  0  0  0  0  0  0  0  0  0  0  0
   34.6020   28.9700   39.6810 C   0  0  0  0  0  0  0  0  0  0  0  0
   35.9110   28.4270   39.7660 C   0  0  0  0  0  0  0  0  0  0  0  0
   36.4710   27.9620   38.6180 N   0  0  0  0  0  0  0  0  0  0  0  0
   35.8370   27.9970   37.4250 C   0  0  0  0  0  0  0  0  0  0  0  0
   34.5850   28.5150   37.3400 N   0  0  0  0  0  0  0  0  0  0  0  0
   32.9890   29.4280   38.5160 H   0  0  0  0  0  0  0  0  0  0  0  0
   34.1910   29.3260   40.5990 H   0  0  0  0  0  0  0  0  0  0  0  0
   36.2530   27.6380   36.5060 H   0  0  0  0  0  0  0  0  0  0  0  0
   37.5890   30.5200   40.6470 C   0  0  0  0  0  0  0  0  0  0  0  0
   38.8170   30.1850   40.1070 C   0  0  0  0  0  0  0  0  0  0  0  0
   39.2770   29.2520   40.4300 H   0  0  0  0  0  0  0  0  0  0  0  0
   39.3780   31.0400   39.2020 C   0  0  0  0  0  3  0  0  0  0  0  0
   38.7280   32.2010   38.8480 C   0  0  0  0  0  0  0  0  0  0  0  0
   39.2130   32.8480   38.1270 H   0  0  0  0  0  0  0  0  0  0  0  0
   37.4880   32.5560   39.3840 C   0  0  0  0  0  0  0  0  0  0  0  0
   37.0120   33.4940   39.0670 H   0  0  0  0  0  0  0  0  0  0  0  0
   36.9160   31.6890   40.3020 C   0  0  0  0  0  3  0  0  0  0  0  0
  1  2  1  0  0  0  0
  1  6  1  0  0  0  0
  2  3  1  0  0  0  0
  3 10  1  0  0  0  0
  3  9  1  0  0  0  0
  3  4  1  0  0  0  0
  4 12  1  0  0  0  0
  4 11  1  0  0  0  0
  5 13  1  0  0  0  0
  5  4  1  0  0  0  0
  6 15  1  1  0  0  0
  6  5  1  0  0  0  0
  7  2  1  0  0  0  0
  8  2  1  0  0  0  0
 14  5  1  0  0  0  0
 16 22  1  0  0  0  0
 16 17  1  0  0  0  0
 17 18  2  0  0  0  0
 17 23  1  0  0  0  0
 18  1  1  0  0  0  0
 19 18  1  0  0  0  0
 20 19  2  0  0  0  0
 21 20  1  0  0  0  0
 21 16  2  0  0  0  0
 24 20  1  0  0  0  0
 25  6  1  0  0  0  0
 26 27  1  0  0  0  0
 26 25  2  0  0  0  0
 28 26  1  0  0  0  0
 29 28  2  0  0  0  0
 29 31  1  0  0  0  0
 30 29  1  0  0  0  0
 31 33  2  0  0  0  0
 32 31  1  0  0  0  0
 33 25  1  0  0  0  0
M  END
>  <minimizedAffinity>
-4.98146296

$$$$

 OpenBabel03252502223D

 33 35  0  0  1  0  0  0  0  0999 V2000
   37.8210   29.2890   41.4520 N   0  0  0  0  0  0  0  0  0  0  0  0
   37.9200   29.3410   42.8960 C   0  0  0  0  0  0  0  0  0  0  0  0
   38.6190   28.0210   43.2880 C   0  0  0  0  0  0  0  0  0  0  0  0
   37.7720   26.8440   42.9350 C   0  0  0  0  0  0  0  0  0  0  0  0
   36.9910   26.9900   41.6850 C   0  0  0  0  0  0  0  0  0  0  0  0
   37.4560   28.0710   40.7580 C   0  0  1  0  0  0  0  0  0  0  0  0
   38.5520   30.1580   43.2520 H   0  0  0  0  0  0  0  0  0  0  0  0
   36.9320   29.3660   43.3900 H   0  0  0  0  0  0  0  0  0  0  0  0
   38.6860   28.0530   44.3980 H   0  0  0  0  0  0  0  0  0  0  0  0
   39.6190   27.9820   42.8310 H   0  0  0  0  0  0  0  0  0  0  0  0
   38.4650   25.9780   42.7940 H   0  0  0  0  0  0  0  0  0  0  0  0
   37.0840   26.5200   43.7620 H   0  0  0  0  0  0  0  0  0  0  0  0
   36.9100   26.0550   41.0890 H   0  0  0  0  0  0  0  0  0  0  0  0
   35.9270   27.2370   41.9650 H   0  0  0  0  0  0  0  0  0  0  0  0
   38.3250   27.6880   40.1850 H   0  0  0  0  0  0  0  0  0  0  0  0
   37.6250   32.6820   39.8900 C   0  0  0  0  0  0  0  0  0  0  0  0
   37.2900   31.6130   40.7270 C   0  0  0  0  0  0  0  0  0  0  0  0
   38.0760   30.4340   40.6460 C   0  0  0  0  0  0  0  0  0  0  0  0
   39.1030   30.4270   39.7570 N   0  0  0  0  0  0  0  0  0  0  0  0
   39.3960   31.4820   38.9640 C   0  0  0  0  0  0  0  0  0  0  0  0
   38.6460   32.6110   39.0390 N   0  0  0  0  0  0  0  0  0  0  0  0
   36.9420   33.5110   40.0610 H   0  0  0  0  0  0  0  0  0  0  0  0
   36.4920   31.5870   41.4350 H   0  0  0  0  0  0  0  0  0  0  0  0
   40.1980   31.5040   38.2550 H   0  0  0  0  0  0  0  0  0  0  0  0
   36.3140   28.3800   39.8400 C   0  0  0  0  0  0  0  0  0  0  0  0
   35.1230   28.8700   40.3410 C   0  0  0  0  0  0  0  0  0  0  0  0
   35.0490   29.0230   41.4170 H   0  0  0  0  0  0  0  0  0  0  0  0
   34.1140   29.1350   39.4600 C   0  0  0  0  0  3  0  0  0  0  0  0
   34.2920   28.9140   38.1130 C   0  0  0  0  0  0  0  0  0  0  0  0
   33.4630   29.1390   37.4530 H   0  0  0  0  0  0  0  0  0  0  0  0
   35.4880   28.4180   37.5890 C   0  0  0  0  0  0  0  0  0  0  0  0
   35.5790   28.2600   36.5060 H   0  0  0  0  0  0  0  0  0  0  0  0
   36.5150   28.1490   38.4820 C   0  0  0  0  0  3  0  0  0  0  0  0
  1  2  1  0  0  0  0
  2  7  1  0  0  0  0
  2  3  1  0  0  0  0
  2  8  1  0  0  0  0
  3  9  1  0  0  0  0
  4  3  1  0  0  0  0
  4 12  1  0  0  0  0
  5 14  1  0  0  0  0
  5  4  1  0  0  0  0
  6 15  1  6  0  0  0
  6  1  1  0  0  0  0
  6  5  1  0  0  0  0
 10  3  1  0  0  0  0
 11  4  1  0  0  0  0
 13  5  1  0  0  0  0
 16 22  1  0  0  0  0
 16 17  1  0  0  0  0
 17 23  1  0  0  0  0
 18 17  2  0  0  0  0
 18  1  1  0  0  0  0
 19 18  1  0  0  0  0
 20 21  1  0  0  0  0
 20 19  2  0  0  0  0
 21 16  2  0  0  0  0
 24 20  1  0  0  0  0
 25 26  1  0  0  0  0
 25  6  1  0  0  0  0
 26 27  1  0  0  0  0
 28 26  2  0  0  0  0
 29 28  1  0  0  0  0
 30 29  1  0  0  0  0
 31 29  2  0  0  0  0
 31 33  1  0  0  0  0
 32 31  1  0  0  0  0
 33 25  2  0  0  0  0
M  END
>  <minimizedAffinity>
-4.97550535

$$$$

 OpenBabel03252502223D

 33 35  0  0  1  0  0  0  0  0999 V2000
   38.3140   28.9390   41.1330 N   0  0  0  0  0  0  0  0  0  0  0  0
   38.4230   30.0740   40.2400 C   0  0  0  0  0  0  0  0  0  0  0  0
   37.4120   31.1040   40.7900 C   0  0  0  0  0  0  0  0  0  0  0  0
   36.0160   30.5860   40.6930 C   0  0  0  0  0  0  0  0  0  0  0  0
   35.8740   29.1290   40.9250 C   0  0  0  0  0  0  0  0  0  0  0  0
   37.0290   28.4710   41.6160 C   0  0  1  0  0  0  0  0  0  0  0  0
   39.4090   30.5440   40.2660 H   0  0  0  0  0  0  0  0  0  0  0  0
   38.1330   29.8280   39.2030 H   0  0  0  0  0  0  0  0  0  0  0  0
   37.4870   31.9720   40.0980 H   0  0  0  0  0  0  0  0  0  0  0  0
   37.6940   31.3880   41.8150 H   0  0  0  0  0  0  0  0  0  0  0  0
   35.4230   31.1070   41.4850 H   0  0  0  0  0  0  0  0  0  0  0  0
   35.5020   30.8560   39.7330 H   0  0  0  0  0  0  0  0  0  0  0  0
   34.9530   28.8460   41.4800 H   0  0  0  0  0  0  0  0  0  0  0  0
   35.7650   28.6250   39.9230 H   0  0  0  0  0  0  0  0  0  0  0  0
   36.9420   28.6670   42.7040 H   0  0  0  0  0  0  0  0  0  0  0  0
   41.3740   26.7910   41.2430 C   0  0  0  0  0  0  0  0  0  0  0  0
   40.2660   27.4510   40.7030 C   0  0  0  0  0  0  0  0  0  0  0  0
   39.4630   28.2280   41.5800 C   0  0  0  0  0  0  0  0  0  0  0  0
   39.8300   28.2750   42.8870 N   0  0  0  0  0  0  0  0  0  0  0  0
   40.9100   27.6220   43.3710 C   0  0  0  0  0  0  0  0  0  0  0  0
   41.6800   26.8790   42.5360 N   0  0  0  0  0  0  0  0  0  0  0  0
   41.8910   26.2400   40.4600 H   0  0  0  0  0  0  0  0  0  0  0  0
   39.9510   27.4340   39.6840 H   0  0  0  0  0  0  0  0  0  0  0  0
   41.2220   27.6420   44.3950 H   0  0  0  0  0  0  0  0  0  0  0  0
   36.9300   27.0050   41.3330 C   0  0  0  0  0  0  0  0  0  0  0  0
   36.7340   26.5500   40.0430 C   0  0  0  0  0  0  0  0  0  0  0  0
   36.6580   27.2910   39.2490 H   0  0  0  0  0  0  0  0  0  0  0  0
   36.6500   25.2020   39.8410 C   0  0  0  0  0  3  0  0  0  0  0  0
   36.7580   24.3330   40.9030 C   0  0  0  0  0  0  0  0  0  0  0  0
   36.6850   23.2720   40.6930 H   0  0  0  0  0  0  0  0  0  0  0  0
   36.9550   24.7740   42.2140 C   0  0  0  0  0  0  0  0  0  0  0  0
   37.0340   24.0380   43.0250 H   0  0  0  0  0  0  0  0  0  0  0  0
   37.0410   26.1430   42.4210 C   0  0  0  0  0  3  0  0  0  0  0  0
  1 18  1  0  0  0  0
  1  6  1  0  0  0  0
  2  7  1  0  0  0  0
  2  3  1  0  0  0  0
  2  1  1  0  0  0  0
  3 10  1  0  0  0  0
  4  3  1  0  0  0  0
  4  5  1  0  0  0  0
  4 11  1  0  0  0  0
  5 13  1  0  0  0  0
  5  6  1  0  0  0  0
  6 15  1  1  0  0  0
  8  2  1  0  0  0  0
  9  3  1  0  0  0  0
 12  4  1  0  0  0  0
 14  5  1  0  0  0  0
 16 21  1  0  0  0  0
 17 16  2  0  0  0  0
 17 18  1  0  0  0  0
 18 19  2  0  0  0  0
 19 20  1  0  0  0  0
 20 24  1  0  0  0  0
 21 20  2  0  0  0  0
 22 16  1  0  0  0  0
 23 17  1  0  0  0  0
 25  6  1  0  0  0  0
 25 33  1  0  0  0  0
 26 25  2  0  0  0  0
 27 26  1  0  0  0  0
 28 26  1  0  0  0  0
 28 29  2  0  0  0  0
 29 31  1  0  0  0  0
 30 29  1  0  0  0  0
 31 33  2  0  0  0  0
 31 32  1  0  0  0  0
M  END
>  <minimizedAffinity>
-4.84910107

$$$$

 OpenBabel03252502223D

 33 35  0  0  1  0  0  0  0  0999 V2000
   37.4780   30.7510   40.2910 N   0  0  0  0  0  0  0  0  0  0  0  0
   37.4300   32.1790   40.5230 C   0  0  0  0  0  0  0  0  0  0  0  0
   38.8740   32.6660   40.2690 C   0  0  0  0  0  0  0  0  0  0  0  0
   39.8180   32.0780   41.2640 C   0  0  0  0  0  0  0  0  0  0  0  0
   39.5070   30.6880   41.6730 C   0  0  0  0  0  0  0  0  0  0  0  0
   38.5830   29.9400   40.7610 C   0  0  1  0  0  0  0  0  0  0  0  0
   36.7840   32.7050   39.8170 H   0  0  0  0  0  0  0  0  0  0  0  0
   37.1610   32.4320   41.5640 H   0  0  0  0  0  0  0  0  0  0  0  0
   38.8420   33.7620   40.4580 H   0  0  0  0  0  0  0  0  0  0  0  0
   39.1590   32.4510   39.2280 H   0  0  0  0  0  0  0  0  0  0  0  0
   40.8260   32.0630   40.7820 H   0  0  0  0  0  0  0  0  0  0  0  0
   39.9540   32.7090   42.1830 H   0  0  0  0  0  0  0  0  0  0  0  0
   40.4030   30.0500   41.8310 H   0  0  0  0  0  0  0  0  0  0  0  0
   39.0070   30.7260   42.6830 H   0  0  0  0  0  0  0  0  0  0  0  0
   39.1720   29.5680   39.8980 H   0  0  0  0  0  0  0  0  0  0  0  0
   35.4960   29.0150   37.6360 C   0  0  0  0  0  0  0  0  0  0  0  0
   36.5750   29.6740   38.2330 C   0  0  0  0  0  0  0  0  0  0  0  0
   36.4410   30.0740   39.5900 C   0  0  0  0  0  0  0  0  0  0  0  0
   35.2690   29.7860   40.2140 N   0  0  0  0  0  0  0  0  0  0  0  0
   34.2480   29.1460   39.6010 C   0  0  0  0  0  0  0  0  0  0  0  0
   34.3720   28.7620   38.3050 N   0  0  0  0  0  0  0  0  0  0  0  0
   35.7390   28.7700   36.6050 H   0  0  0  0  0  0  0  0  0  0  0  0
   37.5060   29.9140   37.7720 H   0  0  0  0  0  0  0  0  0  0  0  0
   33.3150   28.9070   40.0680 H   0  0  0  0  0  0  0  0  0  0  0  0
   38.0230   28.7970   41.5490 C   0  0  0  0  0  0  0  0  0  0  0  0
   37.9270   27.5370   40.9890 C   0  0  0  0  0  0  0  0  0  0  0  0
   38.2730   27.4090   39.9640 H   0  0  0  0  0  0  0  0  0  0  0  0
   37.4070   26.5310   41.7510 C   0  0  0  0  0  3  0  0  0  0  0  0
   36.9930   26.7790   43.0400 C   0  0  0  0  0  0  0  0  0  0  0  0
   36.5880   25.9490   43.6060 H   0  0  0  0  0  0  0  0  0  0  0  0
   37.0810   28.0460   43.6230 C   0  0  0  0  0  0  0  0  0  0  0  0
   36.7370   28.1900   44.6560 H   0  0  0  0  0  0  0  0  0  0  0  0
   37.6090   29.0700   42.8510 C   0  0  0  0  0  3  0  0  0  0  0  0
  1  2  1  0  0  0  0
  1  6  1  0  0  0  0
  2  8  1  0  0  0  0
  3  9  1  0  0  0  0
  3  2  1  0  0  0  0
  3  4  1  0  0  0  0
  4  5  1  0  0  0  0
  4 12  1  0  0  0  0
  5 13  1  0  0  0  0
  5 14  1  0  0  0  0
  6 15  1  6  0  0  0
  6 25  1  0  0  0  0
  6  5  1  0  0  0  0
  7  2  1  0  0  0  0
 10  3  1  0  0  0  0
 11  4  1  0  0  0  0
 16 17  2  0  0  0  0
 16 21  1  0  0  0  0
 17 18  1  0  0  0  0
 18 19  2  0  0  0  0
 18  1  1  0  0  0  0
 20 24  1  0  0  0  0
 20 19  1  0  0  0  0
 21 20  2  0  0  0  0
 22 16  1  0  0  0  0
 23 17  1  0  0  0  0
 25 33  1  0  0  0  0
 26 25  2  0  0  0  0
 26 28  1  0  0  0  0
 27 26  1  0  0  0  0
 28 29  2  0  0  0  0
 29 30  1  0  0  0  0
 29 31  1  0  0  0  0
 31 32  1  0  0  0  0
 33 31  2  0  0  0  0
M  END
>  <minimizedAffinity>
-4.8470273

$$$$

 OpenBabel03252502223D

 33 35  0  0  1  0  0  0  0  0999 V2000
   37.0670   29.0520   39.0550 N   0  0  0  0  0  0  0  0  0  0  0  0
   36.4900   28.4460   37.8730 C   0  0  0  0  0  0  0  0  0  0  0  0
   35.1950   29.2470   37.6150 C   0  0  0  0  0  0  0  0  0  0  0  0
   34.2240   29.0680   38.7340 C   0  0  0  0  0  0  0  0  0  0  0  0
   34.8370   28.9560   40.0790 C   0  0  0  0  0  0  0  0  0  0  0  0
   36.2490   29.4440   40.1860 C   0  0  1  0  0  0  0  0  0  0  0  0
   37.1190   28.5550   36.9870 H   0  0  0  0  0  0  0  0  0  0  0  0
   36.2140   27.3880   38.0290 H   0  0  0  0  0  0  0  0  0  0  0  0
   34.7450   28.7760   36.7130 H   0  0  0  0  0  0  0  0  0  0  0  0
   35.4440   30.3030   37.4280 H   0  0  0  0  0  0  0  0  0  0  0  0
   33.5700   29.9740   38.7410 H   0  0  0  0  0  0  0  0  0  0  0  0
   33.5160   28.2100   38.5810 H   0  0  0  0  0  0  0  0  0  0  0  0
   34.2540   29.4530   40.8850 H   0  0  0  0  0  0  0  0  0  0  0  0
   34.8460   27.8670   40.3680 H   0  0  0  0  0  0  0  0  0  0  0  0
   36.2300   30.5500   40.2710 H   0  0  0  0  0  0  0  0  0  0  0  0
   40.7650   28.5780   39.3580 C   0  0  0  0  0  0  0  0  0  0  0  0
   39.4130   28.2360   39.2540 C   0  0  0  0  0  0  0  0  0  0  0  0
   38.4660   29.2900   39.1640 C   0  0  0  0  0  0  0  0  0  0  0  0
   38.9420   30.5620   39.1850 N   0  0  0  0  0  0  0  0  0  0  0  0
   40.2590   30.8520   39.2870 C   0  0  0  0  0  0  0  0  0  0  0  0
   41.1670   29.8470   39.3730 N   0  0  0  0  0  0  0  0  0  0  0  0
   41.3690   27.6750   39.4180 H   0  0  0  0  0  0  0  0  0  0  0  0
   39.0070   27.2490   39.2350 H   0  0  0  0  0  0  0  0  0  0  0  0
   40.6610   31.8440   39.3060 H   0  0  0  0  0  0  0  0  0  0  0  0
   36.8310   28.8290   41.4200 C   0  0  0  0  0  0  0  0  0  0  0  0
   37.5200   29.6050   42.3330 C   0  0  0  0  0  0  0  0  0  0  0  0
   37.6190   30.6690   42.1240 H   0  0  0  0  0  0  0  0  0  0  0  0
   38.0310   28.9940   43.4420 C   0  0  0  0  0  3  0  0  0  0  0  0
   37.8590   27.6410   43.6300 C   0  0  0  0  0  0  0  0  0  0  0  0
   38.2830   27.2000   44.5250 H   0  0  0  0  0  0  0  0  0  0  0  0
   37.1670   26.8410   42.7180 C   0  0  0  0  0  0  0  0  0  0  0  0
   37.0580   25.7660   42.9160 H   0  0  0  0  0  0  0  0  0  0  0  0
   36.6460   27.4600   41.5910 C   0  0  0  0  0  3  0  0  0  0  0  0
  1 18  1  0  0  0  0
  1  6  1  0  0  0  0
  2  8  1  0  0  0  0
  2  1  1  0  0  0  0
  3  2  1  0  0  0  0
  3  4  1  0  0  0  0
  4 11  1  0  0  0  0
  4  5  1  0  0  0  0
  5  6  1  0  0  0  0
  5 14  1  0  0  0  0
  5 13  1  0  0  0  0
  6 15  1  1  0  0  0
  6 25  1  0  0  0  0
  7  2  1  0  0  0  0
  9  3  1  0  0  0  0
 10  3  1  0  0  0  0
 12  4  1  0  0  0  0
 16 21  1  0  0  0  0
 16 22  1  0  0  0  0
 17 16  2  0  0  0  0
 18 19  2  0  0  0  0
 18 17  1  0  0  0  0
 19 20  1  0  0  0  0
 20 24  1  0  0  0  0
 20 21  2  0  0  0  0
 23 17  1  0  0  0  0
 25 33  2  0  0  0  0
 25 26  1  0  0  0  0
 26 28  2  0  0  0  0
 27 26  1  0  0  0  0
 28 29  1  0  0  0  0
 29 30  1  0  0  0  0
 31 32  1  0  0  0  0
 31 29  2  0  0  0  0
 33 31  1  0  0  0  0
M  END
>  <minimizedAffinity>
-4.70070314

$$$$

 OpenBabel03252502223D

 33 35  0  0  1  0  0  0  0  0999 V2000
   39.7770   30.0730   41.5680 N   0  0  0  0  0  0  0  0  0  0  0  0
   40.5060   31.1640   42.1800 C   0  0  0  0  0  0  0  0  0  0  0  0
   41.9840   30.7220   42.1370 C   0  0  0  0  0  0  0  0  0  0  0  0
   42.2020   29.5060   42.9760 C   0  0  0  0  0  0  0  0  0  0  0  0
   41.0810   28.5380   42.9730 C   0  0  0  0  0  0  0  0  0  0  0  0
   40.1020   28.6890   41.8490 C   0  0  1  0  0  0  0  0  0  0  0  0
   40.4320   32.0970   41.6160 H   0  0  0  0  0  0  0  0  0  0  0  0
   40.2250   31.3230   43.2370 H   0  0  0  0  0  0  0  0  0  0  0  0
   42.5440   31.5540   42.6180 H   0  0  0  0  0  0  0  0  0  0  0  0
   42.2990   30.5830   41.0920 H   0  0  0  0  0  0  0  0  0  0  0  0
   43.0950   28.9810   42.5560 H   0  0  0  0  0  0  0  0  0  0  0  0
   42.4850   29.7370   44.0380 H   0  0  0  0  0  0  0  0  0  0  0  0
   41.4010   27.4740   42.9920 H   0  0  0  0  0  0  0  0  0  0  0  0
   40.5010   28.6740   43.9300 H   0  0  0  0  0  0  0  0  0  0  0  0
   40.5340   28.2120   40.9450 H   0  0  0  0  0  0  0  0  0  0  0  0
   37.6100   30.0910   38.5190 C   0  0  0  0  0  0  0  0  0  0  0  0
   38.7110   29.8040   39.3320 C   0  0  0  0  0  0  0  0  0  0  0  0
   38.7070   30.3070   40.6600 C   0  0  0  0  0  0  0  0  0  0  0  0
   37.6280   31.0350   41.0490 N   0  0  0  0  0  0  0  0  0  0  0  0
   36.5800   31.2910   40.2330 C   0  0  0  0  0  0  0  0  0  0  0  0
   36.5810   30.8120   38.9640 N   0  0  0  0  0  0  0  0  0  0  0  0
   37.7500   29.6450   37.5380 H   0  0  0  0  0  0  0  0  0  0  0  0
   39.5720   29.2370   39.0570 H   0  0  0  0  0  0  0  0  0  0  0  0
   35.7190   31.8610   40.5140 H   0  0  0  0  0  0  0  0  0  0  0  0
   38.8460   27.9890   42.2660 C   0  0  0  0  0  0  0  0  0  0  0  0
   38.1100   28.4500   43.3410 C   0  0  0  0  0  0  0  0  0  0  0  0
   38.4740   29.3320   43.8660 H   0  0  0  0  0  0  0  0  0  0  0  0
   36.9720   27.7750   43.6800 C   0  0  0  0  0  3  0  0  0  0  0  0
   36.5830   26.6660   42.9620 C   0  0  0  0  0  0  0  0  0  0  0  0
   35.6730   26.1630   43.2680 H   0  0  0  0  0  0  0  0  0  0  0  0
   37.3150   26.1860   41.8730 C   0  0  0  0  0  0  0  0  0  0  0  0
   36.9600   25.2970   41.3340 H   0  0  0  0  0  0  0  0  0  0  0  0
   38.4710   26.8710   41.5270 C   0  0  0  0  0  3  0  0  0  0  0  0
  1  6  1  0  0  0  0
  1  2  1  0  0  0  0
  2  8  1  0  0  0  0
  3  2  1  0  0  0  0
  3  9  1  0  0  0  0
  3  4  1  0  0  0  0
  4 12  1  0  0  0  0
  5  4  1  0  0  0  0
  5 13  1  0  0  0  0
  5 14  1  0  0  0  0
  6 15  1  6  0  0  0
  6 25  1  0  0  0  0
  6  5  1  0  0  0  0
  7  2  1  0  0  0  0
 10  3  1  0  0  0  0
 11  4  1  0  0  0  0
 16 21  2  0  0  0  0
 16 17  1  0  0  0  0
 17 18  2  0  0  0  0
 18 19  1  0  0  0  0
 18  1  1  0  0  0  0
 20 24  1  0  0  0  0
 20 19  2  0  0  0  0
 21 20  1  0  0  0  0
 22 16  1  0  0  0  0
 23 17  1  0  0  0  0
 25 26  1  0  0  0  0
 26 28  2  0  0  0  0
 26 27  1  0  0  0  0
 29 30  1  0  0  0  0
 29 28  1  0  0  0  0
 31 29  2  0  0  0  0
 32 31  1  0  0  0  0
 33 31  1  0  0  0  0
 33 25  2  0  0  0  0
M  END
>  <minimizedAffinity>
-4.66720295

$$$$

 OpenBabel03252502223D

 33 35  0  0  1  0  0  0  0  0999 V2000
   37.2010   28.2780   39.1670 N   0  0  0  0  0  0  0  0  0  0  0  0
   37.6000   27.8760   37.8350 C   0  0  0  0  0  0  0  0  0  0  0  0
   36.3950   27.0800   37.2880 C   0  0  0  0  0  0  0  0  0  0  0  0
   36.1690   25.8390   38.0860 C   0  0  0  0  0  0  0  0  0  0  0  0
   36.4440   25.9710   39.5360 C   0  0  0  0  0  0  0  0  0  0  0  0
   36.4970   27.3750   40.0560 C   0  0  1  0  0  0  0  0  0  0  0  0
   37.7590   28.7220   37.1630 H   0  0  0  0  0  0  0  0  0  0  0  0
   38.4790   27.2080   37.8380 H   0  0  0  0  0  0  0  0  0  0  0  0
   36.7040   26.7600   36.2690 H   0  0  0  0  0  0  0  0  0  0  0  0
   35.5090   27.7310   37.2490 H   0  0  0  0  0  0  0  0  0  0  0  0
   35.0870   25.5780   37.9770 H   0  0  0  0  0  0  0  0  0  0  0  0
   36.7160   24.9430   37.6890 H   0  0  0  0  0  0  0  0  0  0  0  0
   35.7410   25.4050   40.1850 H   0  0  0  0  0  0  0  0  0  0  0  0
   37.4510   25.5090   39.7430 H   0  0  0  0  0  0  0  0  0  0  0  0
   35.4580   27.7300   40.2080 H   0  0  0  0  0  0  0  0  0  0  0  0
   36.8380   31.7600   40.4840 C   0  0  0  0  0  0  0  0  0  0  0  0
   36.4560   30.5060   39.9990 C   0  0  0  0  0  0  0  0  0  0  0  0
   37.4810   29.5800   39.6690 C   0  0  0  0  0  0  0  0  0  0  0  0
   38.7670   29.9810   39.8490 N   0  0  0  0  0  0  0  0  0  0  0  0
   39.0960   31.2040   40.3210 C   0  0  0  0  0  0  0  0  0  0  0  0
   38.1190   32.0910   40.6370 N   0  0  0  0  0  0  0  0  0  0  0  0
   35.9540   32.3590   40.6930 H   0  0  0  0  0  0  0  0  0  0  0  0
   35.4580   30.1610   39.8460 H   0  0  0  0  0  0  0  0  0  0  0  0
   40.1000   31.5450   40.4720 H   0  0  0  0  0  0  0  0  0  0  0  0
   37.2350   27.3310   41.3580 C   0  0  0  0  0  0  0  0  0  0  0  0
   36.6680   27.8530   42.5050 C   0  0  0  0  0  0  0  0  0  0  0  0
   35.6730   28.2900   42.4270 H   0  0  0  0  0  0  0  0  0  0  0  0
   37.3840   27.7870   43.6660 C   0  0  0  0  0  3  0  0  0  0  0  0
   38.6370   27.2160   43.6770 C   0  0  0  0  0  0  0  0  0  0  0  0
   39.1670   27.1870   44.6220 H   0  0  0  0  0  0  0  0  0  0  0  0
   39.2270   26.6850   42.5280 C   0  0  0  0  0  0  0  0  0  0  0  0
   40.2290   26.2400   42.5920 H   0  0  0  0  0  0  0  0  0  0  0  0
   38.5010   26.7500   41.3480 C   0  0  0  0  0  3  0  0  0  0  0  0
  1 18  1  0  0  0  0
  1  6  1  0  0  0  0
  2  8  1  0  0  0  0
  2  1  1  0  0  0  0
  3  2  1  0  0  0  0
  3  4  1  0  0  0  0
  4  5  1  0  0  0  0
  5 14  1  0  0  0  0
  5  6  1  0  0  0  0
  5 13  1  0  0  0  0
  6 15  1  1  0  0  0
  6 25  1  0  0  0  0
  7  2  1  0  0  0  0
  9  3  1  0  0  0  0
 10  3  1  0  0  0  0
 11  4  1  0  0  0  0
 12  4  1  0  0  0  0
 16 21  1  0  0  0  0
 16 22  1  0  0  0  0
 17 16  2  0  0  0  0
 18 19  2  0  0  0  0
 18 17  1  0  0  0  0
 19 20  1  0  0  0  0
 20 24  1  0  0  0  0
 20 21  2  0  0  0  0
 23 17  1  0  0  0  0
 25 26  1  0  0  0  0
 26 28  2  0  0  0  0
 27 26  1  0  0  0  0
 28 29  1  0  0  0  0
 29 30  1  0  0  0  0
 31 32  1  0  0  0  0
 31 29  2  0  0  0  0
 33 25  2  0  0  0  0
 33 31  1  0  0  0  0
M  END
>  <minimizedAffinity>
-4.66424608

$$$$
