
 OpenBabel03252505223D

 28 30  0  0  0  0  0  0  0  0999 V2000
   46.9290   33.4240   45.0300 F   0  0  0  0  0  0  0  0  0  0  0  0
   47.4460   32.2100   44.6960 C   0  0  0  0  0  0  0  0  0  0  0  0
   48.1330   32.1040   43.5110 C   0  0  0  0  0  0  0  0  0  0  0  0
   48.6520   30.8900   43.1740 C   0  0  0  0  0  0  0  0  0  0  0  0
   48.4810   29.8070   44.0130 C   0  0  0  0  0  0  0  0  0  0  0  0
   47.7960   29.9060   45.1960 C   0  0  0  0  0  0  0  0  0  0  0  0
   47.2670   31.1470   45.5380 C   0  0  0  0  0  0  0  0  0  0  0  0
   49.1930   30.8150   42.2380 H   0  0  0  0  0  0  0  0  0  0  0  0
   48.9170   28.8710   43.6870 H   0  0  0  0  0  0  0  0  0  0  0  0
   47.6940   29.0230   45.8120 H   0  0  0  0  0  0  0  0  0  0  0  0
   49.4190   35.2310   42.1120 C   0  0  0  0  0  0  0  0  0  0  0  0
   48.5750   35.4440   40.9940 C   0  0  0  0  0  0  0  0  0  0  0  0
   47.5830   34.4990   40.7520 C   0  0  0  0  0  0  0  0  0  0  0  0
   47.4760   33.4370   41.5910 N   0  0  0  0  0  0  0  0  0  0  0  0
   48.2970   33.2680   42.6450 C   0  0  0  0  0  0  0  0  0  0  0  0
   49.2690   34.1650   42.9060 N   0  0  0  0  0  0  0  0  0  0  0  0
   50.1800   35.9760   42.2790 H   0  0  0  0  0  0  0  0  0  0  0  0
   48.6830   36.3070   40.3350 H   0  0  0  0  0  0  0  0  0  0  0  0
   46.8970   34.5980   39.9110 H   0  0  0  0  0  0  0  0  0  0  0  0
   46.5480   31.2240   46.7940 C   0  0  0  0  0  0  0  0  0  0  0  0
   46.7350   32.2390   47.7170 C   0  0  0  0  0  0  0  0  0  0  0  0
   47.4660   33.0240   47.4820 H   0  0  0  0  0  0  0  0  0  0  0  0
   46.0350   32.2870   48.9060 C   0  0  0  0  0  0  0  0  0  0  0  0
   45.1010   31.2980   49.2230 C   0  0  0  0  0  0  0  0  0  0  0  0
   44.5730   31.3690   50.1650 H   0  0  0  0  0  0  0  0  0  0  0  0
   44.8910   30.2690   48.3220 C   0  0  0  0  0  0  0  0  0  0  0  0
   44.1720   29.5050   48.5640 H   0  0  0  0  0  0  0  0  0  0  0  0
   45.6040   30.2650   47.1630 C   0  0  0  0  0  0  0  0  0  0  0  0
  2  1  1  0  0  0  0
  2  7  1  0  0  0  0
  3  2  2  0  0  0  0
  4  3  1  0  0  0  0
  4  5  2  0  0  0  0
  5  6  1  0  0  0  0
  6  7  2  0  0  0  0
  6 10  1  0  0  0  0
  7 20  1  0  0  0  0
  8  4  1  0  0  0  0
  9  5  1  0  0  0  0
 11 17  1  0  0  0  0
 11 16  1  0  0  0  0
 12 11  2  0  0  0  0
 13 12  1  0  0  0  0
 13 14  2  0  0  0  0
 14 15  1  0  0  0  0
 15 16  2  0  0  0  0
 15  3  1  0  0  0  0
 18 12  1  0  0  0  0
 19 13  1  0  0  0  0
 20 28  2  0  0  0  0
 20 21  1  0  0  0  0
 21 23  2  0  0  0  0
 22 21  1  0  0  0  0
 23 24  1  0  0  0  0
 24 25  1  0  0  0  0
 26 27  1  0  0  0  0
 26 24  2  0  0  0  0
 28 26  1  0  0  0  0
M  END
>  <minimizedAffinity>
-5.44143963

>  <minimizedRMSD>
3.82541442

$$$$
