
 OpenBabel03252508543D

 43 46  0  0  1  0  0  0  0  0999 V2000
   43.3070   34.4190   40.7120 C   0  0  0  0  0  0  0  0  0  0  0  0
   43.2720   35.6060   40.2340 O   0  0  0  0  0  0  0  0  0  0  0  0
   41.9350   34.0160   40.4790 N   0  0  0  0  0  0  0  0  0  0  0  0
   41.5310   34.0180   39.0880 C   0  0  0  0  0  0  0  0  0  0  0  0
   40.7490   35.3350   38.9070 C   0  0  0  0  0  0  0  0  0  0  0  0
   39.9940   35.5720   40.2270 C   0  0  0  0  0  0  0  0  0  0  0  0
   39.6370   34.2580   40.8870 C   0  0  0  0  0  0  0  0  0  0  0  0
   40.9120   33.6160   41.4250 C   0  0  1  0  0  0  0  0  0  0  0  0
   42.3760   33.9560   38.3810 H   0  0  0  0  0  0  0  0  0  0  0  0
   40.7980   33.2030   38.8610 H   0  0  0  0  0  0  0  0  0  0  0  0
   41.4420   36.1940   38.7750 H   0  0  0  0  0  0  0  0  0  0  0  0
   40.0720   35.2700   38.0470 H   0  0  0  0  0  0  0  0  0  0  0  0
   40.6130   36.1420   40.9350 H   0  0  0  0  0  0  0  0  0  0  0  0
   39.0170   36.0660   39.9970 H   0  0  0  0  0  0  0  0  0  0  0  0
   39.1610   33.6520   40.0940 H   0  0  0  0  0  0  0  0  0  0  0  0
   38.9580   34.5090   41.7230 H   0  0  0  0  0  0  0  0  0  0  0  0
   41.1380   34.1440   42.3770 H   0  0  0  0  0  0  0  0  0  0  0  0
   40.7820   32.1700   41.6140 C   0  0  0  0  0  0  0  0  0  0  0  0
   41.9220   31.5090   42.0370 C   0  0  0  0  0  0  0  0  0  0  0  0
   42.8630   31.9980   42.2250 H   0  0  0  0  0  0  0  0  0  0  0  0
   41.9620   30.1540   42.2600 C   0  0  0  0  0  3  0  0  0  0  0  0
   40.8270   29.3950   42.0600 C   0  0  0  0  0  0  0  0  0  0  0  0
   40.8410   28.3240   42.2320 H   0  0  0  0  0  0  0  0  0  0  0  0
   39.6570   30.0240   41.6330 C   0  0  0  0  0  0  0  0  0  0  0  0
   38.7460   29.4640   41.4650 H   0  0  0  0  0  0  0  0  0  0  0  0
   39.6660   31.3880   41.4230 C   0  0  0  0  0  3  0  0  0  0  0  0
   44.3820   33.8000   41.2620 O   0  0  0  0  0  0  0  0  0  0  0  0
   45.7090   34.1130   41.1010 C   0  0  0  0  0  0  0  0  0  0  0  0
   46.3510   34.7380   42.1820 C   0  0  0  0  0  0  0  0  0  0  0  0
   47.7100   35.0480   41.9940 C   0  0  0  0  0  0  0  0  0  0  0  0
   48.3050   34.7300   40.8050 N   0  0  0  0  0  0  0  0  0  0  0  0
   47.6370   34.1380   39.8240 C   0  0  0  0  0  0  0  0  0  0  0  0
   46.3390   33.8260   39.9640 N   0  0  0  0  0  0  0  0  0  0  0  0
   48.1890   35.5250   42.8260 H   0  0  0  0  0  0  0  0  0  0  0  0
   48.1780   33.9240   38.9230 H   0  0  0  0  0  0  0  0  0  0  0  0
   45.6270   35.0290   43.3970 C   0  0  0  0  0  0  0  0  0  0  0  0
   44.9990   36.2470   43.6320 C   0  0  0  0  0  0  0  0  0  0  0  0
   44.4470   36.0940   44.8770 C   0  0  0  0  0  0  0  0  0  0  0  0
   44.7180   34.8680   45.3690 N   0  0  0  0  0  0  0  0  0  0  0  0
   45.4250   34.2570   44.4580 N   0  0  0  0  0  0  0  0  0  0  0  0
   44.9780   37.0970   42.9550 H   0  0  0  0  0  0  0  0  0  0  0  0
   43.8680   36.8520   45.4040 H   0  0  0  0  0  0  0  0  0  0  0  0
   44.4580   34.4180   46.2750 H   0  0  0  0  0  0  0  0  0  0  0  0
  1 27  1  0  0  0  0
  2  1  2  0  0  0  0
  3  1  1  0  0  0  0
  3  8  1  0  0  0  0
  4  3  1  0  0  0  0
  5  4  1  0  0  0  0
  5  6  1  0  0  0  0
  6  7  1  0  0  0  0
  6 13  1  0  0  0  0
  7  8  1  0  0  0  0
  7 16  1  0  0  0  0
  8 18  1  0  0  0  0
  8 17  1  1  0  0  0
  9  4  1  0  0  0  0
 10  4  1  0  0  0  0
 11  5  1  0  0  0  0
 12  5  1  0  0  0  0
 14  6  1  0  0  0  0
 15  7  1  0  0  0  0
 18 19  1  0  0  0  0
 19 20  1  0  0  0  0
 19 21  2  0  0  0  0
 22 23  1  0  0  0  0
 22 21  1  0  0  0  0
 24 22  2  0  0  0  0
 25 24  1  0  0  0  0
 26 18  2  0  0  0  0
 26 24  1  0  0  0  0
 28 27  1  0  0  0  0
 28 29  1  0  0  0  0
 29 36  1  0  0  0  0
 30 29  2  0  0  0  0
 30 34  1  0  0  0  0
 31 30  1  0  0  0  0
 32 33  1  0  0  0  0
 32 31  2  0  0  0  0
 33 28  2  0  0  0  0
 35 32  1  0  0  0  0
 36 37  1  0  0  0  0
 36 40  2  0  0  0  0
 37 38  2  0  0  0  0
 38 39  1  0  0  0  0
 38 42  1  0  0  0  0
 39 43  1  0  0  0  0
 40 39  1  0  0  0  0
 41 37  1  0  0  0  0
M  END
>  <minimizedAffinity>
-6.68386173

>  <minimizedRMSD>
0.49037537

$$$$
