REMARK  Name = 
REMARK  4 active torsions:
REMARK  status: ('A' for Active; 'I' for Inactive)
REMARK    1  A    between atoms: C_1  and  O_12
REMARK    2  A    between atoms: C_2  and  C_7
REMARK    3  A    between atoms: O_12  and  C_13
REMARK    4  A    between atoms: C_20  and  C_35
REMARK                            x       y       z     vdW  Elec       q    Type
REMARK                         _______ _______ _______ _____ _____    ______ ____
ROOT
ATOM      1  C   UNL     1      43.384  34.466  40.766  0.00  0.00    +0.000 C 
ATOM      2  O   UNL     1      43.301  35.723  40.540  0.00  0.00    +0.000 OA
ATOM      3  N   UNL     1      42.044  34.057  40.395  0.00  0.00    +0.000 N 
ATOM      4  C   UNL     1      41.688  34.327  39.017  0.00  0.00    +0.000 C 
ATOM      5  C   UNL     1      40.843  35.616  39.075  0.00  0.00    +0.000 C 
ATOM      6  C   UNL     1      40.032  35.540  40.380  0.00  0.00    +0.000 C 
ATOM      7  C   UNL     1      39.724  34.103  40.741  0.00  0.00    +0.000 C 
ATOM      8  C   UNL     1      41.013  33.423  41.193  0.00  0.00    +0.000 C 
ATOM      9  H   UNL     1      42.559  34.451  38.351  0.00  0.00    +0.000 HD
ATOM     10  H   UNL     1      41.009  33.544  38.596  0.00  0.00    +0.000 HD
ATOM     11  H   UNL     1      41.492  36.514  39.152  0.00  0.00    +0.000 HD
ATOM     12  H   UNL     1      40.200  35.699  38.190  0.00  0.00    +0.000 HD
ATOM     13  H   UNL     1      40.594  35.980  41.217  0.00  0.00    +0.000 HD
ATOM     14  H   UNL     1      39.038  36.025  40.213  0.00  0.00    +0.000 HD
ATOM     15  H   UNL     1      39.309  33.653  39.821  0.00  0.00    +0.000 HD
ATOM     16  H   UNL     1      39.004  34.145  41.580  0.00  0.00    +0.000 HD
ATOM     17  H   UNL     1      41.178  33.753  42.242  0.00  0.00    +0.000 HD
ENDROOT
BRANCH   8  18
ATOM     18  C   UNL     1      40.955  31.965  41.076  0.00  0.00    +0.000 A 
ATOM     19  C   UNL     1      39.908  31.460  40.324  0.00  0.00    +0.000 A 
ATOM     20  H   UNL     1      39.165  32.073  39.844  0.00  0.00    +0.000 HD
ATOM     21  C   UNL     1      39.716  30.115  40.119  0.00  0.00    +0.000 A 
ATOM     22  C   UNL     1      40.593  29.207  40.676  0.00  0.00    +0.000 A 
ATOM     23  H   UNL     1      40.456  28.141  40.524  0.00  0.00    +0.000 HD
ATOM     24  C   UNL     1      41.661  29.676  41.440  0.00  0.00    +0.000 A 
ATOM     25  H   UNL     1      42.371  28.996  41.894  0.00  0.00    +0.000 HD
ATOM     26  C   UNL     1      41.813  31.036  41.619  0.00  0.00    +0.000 A 
ENDBRANCH   8  18
BRANCH   1  27
ATOM     27  O   UNL     1      44.472  33.797  41.225  0.00  0.00    +0.000 OA
BRANCH  27  28
ATOM     28  C   UNL     1      45.794  34.132  41.073  0.00  0.00    +0.000 A 
ATOM     29  C   UNL     1      46.421  34.760  42.161  0.00  0.00    +0.000 A 
ATOM     30  C   UNL     1      47.776  35.093  41.982  0.00  0.00    +0.000 A 
ATOM     31  N   UNL     1      48.381  34.793  40.793  0.00  0.00    +0.000 NA
ATOM     32  C   UNL     1      47.727  34.197  39.805  0.00  0.00    +0.000 A 
ATOM     33  N   UNL     1      46.434  33.863  39.937  0.00  0.00    +0.000 NA
ATOM     34  H   UNL     1      48.243  35.572  42.819  0.00  0.00    +0.000 HD
ATOM     35  H   UNL     1      48.276  33.997  38.905  0.00  0.00    +0.000 HD
BRANCH  29  36
ATOM     36  C   UNL     1      45.687  35.031  43.374  0.00  0.00    +0.000 A 
ATOM     37  C   UNL     1      45.037  36.237  43.614  0.00  0.00    +0.000 A 
ATOM     38  C   UNL     1      44.482  36.067  44.855  0.00  0.00    +0.000 A 
ATOM     39  N   UNL     1      44.771  34.843  45.341  0.00  0.00    +0.000 N 
ATOM     40  N   UNL     1      45.493  34.249  44.429  0.00  0.00    +0.000 NA
ATOM     41  H   UNL     1      45.005  37.091  42.942  0.00  0.00    +0.000 HD
ATOM     42  H   UNL     1      43.888  36.812  45.384  0.00  0.00    +0.000 HD
ATOM     43  H   UNL     1      44.515  34.383  46.243  0.00  0.00    +0.000 HD
ENDBRANCH  29  36
ENDBRANCH  27  28
ENDBRANCH   1  27
TORSDOF 4
