
 OpenBabel03252506283D

 47 51  0  0  0  0  0  0  0  0999 V2000
   46.3820   32.8530   46.1990 C   0  0  0  0  0  0  0  0  0  0  0  0
   47.4590   31.9580   46.0790 C   0  0  0  0  0  0  0  0  0  0  0  0
   47.5140   31.1850   47.1820 C   0  0  0  0  0  0  0  0  0  0  0  0
   46.5080   31.5840   47.9610 N   0  0  0  0  0  0  0  0  0  0  0  0
   45.8190   32.5770   47.3970 N   0  0  0  0  0  0  0  0  0  0  0  0
   48.1270   31.9160   45.2210 H   0  0  0  0  0  0  0  0  0  0  0  0
   48.2130   30.3920   47.4270 H   0  0  0  0  0  0  0  0  0  0  0  0
   44.6400   35.6230   44.5630 C   0  0  0  0  0  0  0  0  0  0  0  0
   45.3000   35.7030   43.3270 C   0  0  0  0  0  0  0  0  0  0  0  0
   46.3340   34.8060   43.0710 C   0  0  0  0  0  0  0  0  0  0  0  0
   46.6010   33.9350   44.0540 N   0  0  0  0  0  0  0  0  0  0  0  0
   45.9880   33.8510   45.2200 C   0  0  0  0  0  0  0  0  0  0  0  0
   44.9970   34.7030   45.4750 N   0  0  0  0  0  0  0  0  0  0  0  0
   43.8440   36.3100   44.7650 H   0  0  0  0  0  0  0  0  0  0  0  0
   45.0120   36.4430   42.5920 H   0  0  0  0  0  0  0  0  0  0  0  0
   47.0700   34.8100   41.8330 C   0  0  0  0  0  0  0  0  0  0  0  0
   48.2220   35.4940   41.6060 C   0  0  0  0  0  0  0  0  0  0  0  0
   48.6490   36.0910   42.3880 H   0  0  0  0  0  0  0  0  0  0  0  0
   48.8550   35.4340   40.3810 C   0  0  0  0  0  0  0  0  0  0  0  0
   48.3540   34.6900   39.3500 C   0  0  0  0  0  0  0  0  0  0  0  0
   48.8030   34.6000   38.3640 H   0  0  0  0  0  0  0  0  0  0  0  0
   47.1880   33.9810   39.5420 C   0  0  0  0  0  0  0  0  0  0  0  0
   46.7550   33.3820   38.7640 H   0  0  0  0  0  0  0  0  0  0  0  0
   46.5910   34.0690   40.7730 C   0  0  0  0  0  0  0  0  0  0  0  0
   46.1860   31.0220   49.2640 C   0  0  0  0  0  0  0  0  0  0  0  0
   46.1140   31.8570   49.9910 H   0  0  0  0  0  0  0  0  0  0  0  0
   46.9630   30.3330   49.5930 H   0  0  0  0  0  0  0  0  0  0  0  0
   44.8570   30.3470   49.2290 C   0  0  0  0  0  0  0  0  0  0  0  0
   44.5890   30.1000   50.2980 H   0  0  0  0  0  0  0  0  0  0  0  0
   44.1040   31.1040   48.9230 H   0  0  0  0  0  0  0  0  0  0  0  0
   44.9280   27.8180   48.8290 C   0  0  0  0  0  0  0  0  0  0  0  0
   44.7630   29.1350   48.4440 C   0  0  0  0  0  0  0  0  0  0  0  0
   44.4560   29.3400   47.0960 C   0  0  0  0  0  0  0  0  0  0  0  0
   44.3270   28.3050   46.2040 C   0  0  0  0  0  0  0  0  0  0  0  0
   44.0470   28.2090   44.8920 N   0  0  0  0  0  0  0  0  0  0  0  0
   44.0370   26.9360   44.4840 C   0  0  0  0  0  0  0  0  0  0  0  0
   44.3250   26.1210   45.5710 C   0  0  0  0  0  0  0  0  0  0  0  0
   44.4960   27.0050   46.6120 C   0  0  0  0  0  0  0  0  0  0  0  0
   44.7980   26.7820   47.9370 C   0  0  0  0  0  0  0  0  0  0  0  0
   45.1640   27.6970   49.8790 H   0  0  0  0  0  0  0  0  0  0  0  0
   44.3010   30.3210   46.6630 H   0  0  0  0  0  0  0  0  0  0  0  0
   43.8610   29.0480   44.2750 H   0  0  0  0  0  0  0  0  0  0  0  0
   43.8330   26.6410   43.4620 H   0  0  0  0  0  0  0  0  0  0  0  0
   44.3840   25.0550   45.5420 H   0  0  0  0  0  0  0  0  0  0  0  0
   44.9860   25.4160   48.4090 C   0  0  0  0  0  0  0  0  0  0  0  0
   45.3090   25.1830   49.6050 O   0  0  0  0  0  0  0  0  0  0  0  0
   44.8520   24.5700   47.7500 H   0  0  0  0  0  0  0  0  0  0  0  0
  1  5  2  0  0  0  0
  2  1  1  0  0  0  0
  2  3  2  0  0  0  0
  3  7  1  0  0  0  0
  3  4  1  0  0  0  0
  4 25  1  0  0  0  0
  5  4  1  0  0  0  0
  6  2  1  0  0  0  0
  8 14  1  0  0  0  0
  8 13  1  0  0  0  0
  9  8  2  0  0  0  0
 10  9  1  0  0  0  0
 10 11  2  0  0  0  0
 11 12  1  0  0  0  0
 12 13  2  0  0  0  0
 12  1  1  0  0  0  0
 15  9  1  0  0  0  0
 16 10  1  0  0  0  0
 17 16  1  0  0  0  0
 17 18  1  0  0  0  0
 19 17  2  0  0  0  0
 20 22  2  0  0  0  0
 20 19  1  0  0  0  0
 21 20  1  0  0  0  0
 22 24  1  0  0  0  0
 23 22  1  0  0  0  0
 24 16  2  0  0  0  0
 25 27  1  0  0  0  0
 25 26  1  0  0  0  0
 28 25  1  0  0  0  0
 28 29  1  0  0  0  0
 30 28  1  0  0  0  0
 31 40  1  0  0  0  0
 32 31  1  0  0  0  0
 32 28  1  0  0  0  0
 33 32  2  0  0  0  0
 34 38  2  0  0  0  0
 34 33  1  0  0  0  0
 35 34  1  0  0  0  0
 36 35  1  0  0  0  0
 36 37  2  0  0  0  0
 37 38  1  0  0  0  0
 38 39  1  0  0  0  0
 39 45  1  0  0  0  0
 39 31  2  0  0  0  0
 41 33  1  0  0  0  0
 42 35  1  0  0  0  0
 43 36  1  0  0  0  0
 44 37  1  0  0  0  0
 45 46  2  0  0  0  0
 47 45  1  0  0  0  0
M  END
>  <minimizedAffinity>
-6.19673061

>  <minimizedRMSD>
1.23519051

$$$$
