
 OpenBabel03252508393D

 41 44  0  0  0  0  0  0  0  0999 V2000
   45.0330   34.0190   40.7900 C   0  0  0  0  0  0  0  0  0  0  0  0
   43.9880   33.6250   39.9940 C   0  0  0  0  0  0  0  0  0  0  0  0
   44.2900   33.0280   38.8110 C   0  0  0  0  0  0  0  0  0  0  0  0
   45.5770   32.8000   38.3740 C   0  0  0  0  0  0  0  0  0  0  0  0
   46.6030   33.2060   39.1930 C   0  0  0  0  0  0  0  0  0  0  0  0
   46.3490   33.8170   40.4020 C   0  0  0  0  0  0  0  0  0  0  0  0
   43.4630   32.7160   38.1790 H   0  0  0  0  0  0  0  0  0  0  0  0
   45.8020   32.3230   37.4290 H   0  0  0  0  0  0  0  0  0  0  0  0
   47.6270   33.0310   38.8560 H   0  0  0  0  0  0  0  0  0  0  0  0
   40.7460   35.3750   40.8170 C   0  0  0  0  0  0  0  0  0  0  0  0
   42.0400   35.1520   40.3250 C   0  0  0  0  0  0  0  0  0  0  0  0
   42.6490   33.8850   40.4930 C   0  0  0  0  0  0  0  0  0  0  0  0
   41.9050   32.9500   41.1390 N   0  0  0  0  0  0  0  0  0  0  0  0
   40.6730   33.1910   41.5980 C   0  0  0  0  0  0  0  0  0  0  0  0
   40.0940   34.3920   41.4400 N   0  0  0  0  0  0  0  0  0  0  0  0
   40.1740   36.6440   40.6340 N   0  0  0  0  0  0  0  0  0  0  0  0
   42.6210   35.9170   39.8080 H   0  0  0  0  0  0  0  0  0  0  0  0
   40.2110   32.3430   42.0910 H   0  0  0  0  0  0  0  0  0  0  0  0
   39.2620   36.5410   40.1650 H   0  0  0  0  0  0  0  0  0  0  0  0
   40.7990   37.4110   41.0140 H   0  0  0  0  0  0  0  0  0  0  0  0
   47.5070   34.2140   41.1930 C   0  0  0  0  0  0  0  0  0  0  0  0
   48.1230   35.3770   40.8080 C   0  0  0  0  0  0  0  0  0  0  0  0
   49.2400   35.8990   41.4540 C   0  0  0  0  0  0  0  0  0  0  0  0
   49.7440   35.2110   42.5300 C   0  0  0  0  0  0  0  0  0  0  0  0
   49.1430   34.0420   42.9340 C   0  0  0  0  0  0  0  0  0  0  0  0
   48.0350   33.5510   42.2700 C   0  0  0  0  0  0  0  0  0  0  0  0
   47.7960   35.9930   39.9670 H   0  0  0  0  0  0  0  0  0  0  0  0
   49.7220   36.8180   41.1460 H   0  0  0  0  0  0  0  0  0  0  0  0
   50.6040   35.5110   43.1130 H   0  0  0  0  0  0  0  0  0  0  0  0
   49.4820   33.4510   43.7650 H   0  0  0  0  0  0  0  0  0  0  0  0
   47.3900   32.3100   42.6920 C   0  0  0  0  0  0  0  0  0  0  0  0
   46.8300   32.4790   43.9660 C   0  0  0  0  0  0  0  0  0  0  0  0
   46.8490   33.3900   44.5850 H   0  0  0  0  0  0  0  0  0  0  0  0
   46.1600   31.4480   44.6020 C   0  0  0  0  0  0  0  0  0  0  0  0
   46.0390   30.2180   43.9650 C   0  0  0  0  0  0  0  0  0  0  0  0
   45.5210   29.3970   44.4370 H   0  0  0  0  0  0  0  0  0  0  0  0
   46.5990   30.0990   42.7250 C   0  0  0  0  0  0  0  0  0  0  0  0
   46.5330   29.1550   42.1810 H   0  0  0  0  0  0  0  0  0  0  0  0
   47.2710   31.0990   42.0660 C   0  0  0  0  0  0  0  0  0  0  0  0
   44.6230   35.1920   43.0900 N   0  0  0  0  0  0  0  0  0  0  0  0
   44.8060   34.6600   42.0570 C   0  0  0  0  0  0  0  0  0  0  0  0
  1 41  1  0  0  0  0
  2 12  1  0  0  0  0
  2  1  2  0  0  0  0
  3  2  1  0  0  0  0
  4  3  2  0  0  0  0
  4  5  1  0  0  0  0
  5  6  2  0  0  0  0
  6  1  1  0  0  0  0
  6 21  1  0  0  0  0
  7  3  1  0  0  0  0
  8  4  1  0  0  0  0
  9  5  1  0  0  0  0
 10 15  1  0  0  0  0
 11 12  1  0  0  0  0
 11 10  2  0  0  0  0
 12 13  2  0  0  0  0
 13 14  1  0  0  0  0
 14 18  1  0  0  0  0
 15 14  2  0  0  0  0
 16 10  1  0  0  0  0
 16 20  1  0  0  0  0
 17 11  1  0  0  0  0
 19 16  1  0  0  0  0
 21 26  1  0  0  0  0
 22 21  2  0  0  0  0
 22 23  1  0  0  0  0
 23 24  2  0  0  0  0
 24 25  1  0  0  0  0
 24 29  1  0  0  0  0
 25 30  1  0  0  0  0
 26 31  1  0  0  0  0
 26 25  2  0  0  0  0
 27 22  1  0  0  0  0
 28 23  1  0  0  0  0
 31 32  1  0  0  0  0
 32 33  1  0  0  0  0
 32 34  2  0  0  0  0
 35 36  1  0  0  0  0
 35 34  1  0  0  0  0
 37 35  2  0  0  0  0
 38 37  1  0  0  0  0
 39 31  2  0  0  0  0
 39 37  1  0  0  0  0
 41 40  3  0  0  0  0
M  END
>  <minimizedAffinity>
-6.13827229

>  <minimizedRMSD>
0.688681662

$$$$
