
 OpenBabel03252506323D

 32 34  0  0  1  0  0  0  0  0999 V2000
   44.5960   35.7790   44.6790 C   0  0  0  0  0  0  0  0  0  0  0  0
   44.5330   35.3990   43.3330 C   0  0  0  0  0  0  0  0  0  0  0  0
   44.8570   34.1000   42.9850 C   0  0  0  0  0  0  0  0  0  0  0  0
   45.2220   33.2600   43.9930 N   0  0  0  0  0  0  0  0  0  0  0  0
   45.2750   33.6440   45.2740 C   0  0  0  0  0  0  0  0  0  0  0  0
   44.9670   34.8920   45.6260 N   0  0  0  0  0  0  0  0  0  0  0  0
   45.6570   32.6740   46.2380 N   0  0  0  0  0  0  0  0  0  0  0  0
   45.4760   32.8460   47.6850 C   0  0  0  0  0  0  0  0  0  0  0  0
   46.7120   32.1810   48.2250 C   0  0  0  0  0  0  0  0  0  0  0  0
   47.3680   31.4550   47.0860 C   0  0  0  0  0  0  0  0  0  0  0  0
   46.2600   31.3820   46.0480 C   0  0  2  0  0  0  0  0  0  0  0  0
   44.3650   36.7740   45.0690 H   0  0  0  0  0  0  0  0  0  0  0  0
   44.7970   33.8480   41.9540 H   0  0  0  0  0  0  0  0  0  0  0  0
   45.5010   33.9230   47.9270 H   0  0  0  0  0  0  0  0  0  0  0  0
   44.5420   32.3330   48.0060 H   0  0  0  0  0  0  0  0  0  0  0  0
   47.3830   32.8770   48.7600 H   0  0  0  0  0  0  0  0  0  0  0  0
   46.3610   31.3760   48.9350 H   0  0  0  0  0  0  0  0  0  0  0  0
   47.7780   30.4700   47.3480 H   0  0  0  0  0  0  0  0  0  0  0  0
   48.1600   32.1470   46.6960 H   0  0  0  0  0  0  0  0  0  0  0  0
   45.6010   30.5440   46.3430 H   0  0  0  0  0  0  0  0  0  0  0  0
   46.8240   31.1590   44.6930 C   0  0  0  0  0  0  0  0  0  0  0  0
   47.9580   31.7020   44.1570 C   0  0  0  0  0  0  0  0  0  0  0  0
   48.5090   32.3790   44.8210 H   0  0  0  0  0  0  0  0  0  0  0  0
   48.3810   31.4240   42.8890 C   0  0  0  0  0  0  0  0  0  0  0  0
   47.6750   30.5680   42.0720 C   0  0  0  0  0  0  0  0  0  0  0  0
   47.9550   30.3030   41.0520 H   0  0  0  0  0  0  0  0  0  0  0  0
   46.5260   29.9830   42.5340 C   0  0  0  0  0  0  0  0  0  0  0  0
   45.9170   29.3030   41.9560 H   0  0  0  0  0  0  0  0  0  0  0  0
   46.1420   30.2980   43.8250 C   0  0  0  0  0  0  0  0  0  0  0  0
   44.1200   36.4220   42.4210 N   0  0  0  0  0  0  0  0  0  0  0  0
   44.5300   37.3700   42.3070 H   0  0  0  0  0  0  0  0  0  0  0  0
   43.3110   36.0880   41.8470 H   0  0  0  0  0  0  0  0  0  0  0  0
  1 12  1  0  0  0  0
  1  6  1  0  0  0  0
  2  1  2  0  0  0  0
  3  2  1  0  0  0  0
  3  4  2  0  0  0  0
  4  5  1  0  0  0  0
  5  6  2  0  0  0  0
  5  7  1  0  0  0  0
  7  8  1  0  0  0  0
  8 14  1  0  0  0  0
  8 15  1  0  0  0  0
  8  9  1  0  0  0  0
  9 16  1  0  0  0  0
  9 17  1  0  0  0  0
 10 18  1  0  0  0  0
 10  9  1  0  0  0  0
 11  7  1  0  0  0  0
 11 20  1  1  0  0  0
 11 10  1  0  0  0  0
 13  3  1  0  0  0  0
 19 10  1  0  0  0  0
 21 11  1  0  0  0  0
 22 21  1  0  0  0  0
 22 23  1  0  0  0  0
 24 22  2  0  0  0  0
 25 27  2  0  0  0  0
 25 24  1  0  0  0  0
 26 25  1  0  0  0  0
 27 29  1  0  0  0  0
 28 27  1  0  0  0  0
 29 21  2  0  0  0  0
 30  2  1  0  0  0  0
 31 30  1  0  0  0  0
 32 30  1  0  0  0  0
M  END
>  <minimizedAffinity>
-4.44481564

>  <minimizedRMSD>
1.92673206

$$$$
