
 OpenBabel03252505193D

 34 37  0  0  0  0  0  0  0  0999 V2000
   46.0700   32.7120   47.0940 C   0  0  0  0  0  0  0  0  0  0  0  0
   44.9790   32.3410   47.8440 C   0  0  0  0  0  0  0  0  0  0  0  0
   45.1320   31.5280   48.9450 C   0  0  0  0  0  0  0  0  0  0  0  0
   46.4060   31.1100   49.2570 C   0  0  0  0  0  0  0  0  0  0  0  0
   47.4760   31.5100   48.4730 C   0  0  0  0  0  0  0  0  0  0  0  0
   47.3300   32.3090   47.3890 N   0  0  0  0  0  0  0  0  0  0  0  0
   43.9820   32.7030   47.5510 H   0  0  0  0  0  0  0  0  0  0  0  0
   44.2780   31.2330   49.5380 H   0  0  0  0  0  0  0  0  0  0  0  0
   46.5350   30.4760   50.1150 H   0  0  0  0  0  0  0  0  0  0  0  0
   48.8410   31.0910   48.7680 C   0  0  0  0  0  0  0  0  0  0  0  0
   49.3050   29.8950   48.2760 C   0  0  0  0  0  0  0  0  0  0  0  0
   48.7030   29.2190   47.6600 H   0  0  0  0  0  0  0  0  0  0  0  0
   50.5980   29.4120   48.5060 C   0  0  0  0  0  0  0  0  0  0  0  0
   51.4600   30.1840   49.2770 C   0  0  0  0  0  0  0  0  0  0  0  0
   52.4610   29.8230   49.4620 H   0  0  0  0  0  0  0  0  0  0  0  0
   51.0230   31.3880   49.7860 C   0  0  0  0  0  0  0  0  0  0  0  0
   51.7150   31.9650   50.3800 H   0  0  0  0  0  0  0  0  0  0  0  0
   49.7460   31.8010   49.5210 C   0  0  0  0  0  0  0  0  0  0  0  0
   44.7550   35.3050   44.8290 C   0  0  0  0  0  0  0  0  0  0  0  0
   45.5550   35.1680   43.6690 C   0  0  0  0  0  0  0  0  0  0  0  0
   46.5190   34.1860   43.7190 C   0  0  0  0  0  0  0  0  0  0  0  0
   46.6750   33.4010   44.8360 N   0  0  0  0  0  0  0  0  0  0  0  0
   45.8740   33.5730   45.9350 C   0  0  0  0  0  0  0  0  0  0  0  0
   44.9200   34.5260   45.9190 N   0  0  0  0  0  0  0  0  0  0  0  0
   43.9710   36.0640   44.8630 H   0  0  0  0  0  0  0  0  0  0  0  0
   45.4030   35.8040   42.8090 H   0  0  0  0  0  0  0  0  0  0  0  0
   47.3950   33.9390   42.5330 C   0  0  0  0  0  0  0  0  0  0  0  0
   48.7580   34.6220   42.6480 C   0  0  0  0  0  0  0  0  0  0  0  0
   48.5410   33.0740   42.6760 C   0  0  0  0  0  0  0  0  0  0  0  0
   46.9030   34.2160   41.5560 H   0  0  0  0  0  0  0  0  0  0  0  0
   49.0470   35.0870   43.6040 H   0  0  0  0  0  0  0  0  0  0  0  0
   49.2520   35.0220   41.7620 H   0  0  0  0  0  0  0  0  0  0  0  0
   48.9640   32.5080   41.8060 H   0  0  0  0  0  0  0  0  0  0  0  0
   48.6820   32.5870   43.6620 H   0  0  0  0  0  0  0  0  0  0  0  0
  1  6  2  0  0  0  0
  1  2  1  0  0  0  0
  2  3  2  0  0  0  0
  3  4  1  0  0  0  0
  3  8  1  0  0  0  0
  4  9  1  0  0  0  0
  5 10  1  0  0  0  0
  5  4  2  0  0  0  0
  6  5  1  0  0  0  0
  7  2  1  0  0  0  0
 10 18  1  0  0  0  0
 11 13  1  0  0  0  0
 11 10  2  0  0  0  0
 12 11  1  0  0  0  0
 13 14  2  0  0  0  0
 14 15  1  0  0  0  0
 14 16  1  0  0  0  0
 16 17  1  0  0  0  0
 18 16  2  0  0  0  0
 19 25  1  0  0  0  0
 19 24  1  0  0  0  0
 20 21  1  0  0  0  0
 20 19  2  0  0  0  0
 21 22  2  0  0  0  0
 22 23  1  0  0  0  0
 23  1  1  0  0  0  0
 24 23  2  0  0  0  0
 26 20  1  0  0  0  0
 27 28  1  0  0  0  0
 27 29  1  0  0  0  0
 27 21  1  0  0  0  0
 28 29  1  0  0  0  0
 28 31  1  0  0  0  0
 29 34  1  0  0  0  0
 30 27  1  0  0  0  0
 32 28  1  0  0  0  0
 33 29  1  0  0  0  0
M  END
>  <minimizedAffinity>
-6.23661137

>  <minimizedRMSD>
1.55688429

$$$$
