
 OpenBabel03252503253D

 47 52  0  0  1  0  0  0  0  0999 V2000
   34.8900   29.2600   39.8720 C   0  0  0  0  0  0  0  0  0  0  0  0
   35.0330   28.6850   38.5650 C   0  0  0  0  0  0  0  0  0  0  0  0
   35.9040   27.6370   38.4160 C   0  0  0  0  0  0  0  0  0  0  0  0
   36.5810   27.2050   39.5170 N   0  0  0  0  0  0  0  0  0  0  0  0
   36.4300   27.7630   40.7470 C   0  0  0  0  0  0  0  0  0  0  0  0
   35.5850   28.7900   40.9200 N   0  0  0  0  0  0  0  0  0  0  0  0
   34.2140   30.0860   40.0270 H   0  0  0  0  0  0  0  0  0  0  0  0
   36.0410   27.1770   37.4510 H   0  0  0  0  0  0  0  0  0  0  0  0
   34.2310   29.2490   37.4410 C   0  0  1  0  0  0  0  0  0  0  0  0
   33.9510   28.4470   36.2520 C   0  0  0  0  0  0  0  0  0  0  0  0
   32.8530   28.6550   37.2230 C   0  0  2  0  0  0  0  0  0  0  0  0
   34.2980   30.3460   37.3640 H   0  0  0  0  0  0  0  0  0  0  0  0
   34.0850   28.9440   35.2980 H   0  0  0  0  0  0  0  0  0  0  0  0
   34.4840   27.4400   36.2480 H   0  0  0  0  0  0  0  0  0  0  0  0
   32.5720   27.8100   37.8840 H   0  0  0  0  0  0  0  0  0  0  0  0
   31.8120   29.6540   36.8640 C   0  0  0  0  0  0  0  0  0  0  0  0
   30.8950   30.1750   37.7520 C   0  0  0  0  0  0  0  0  0  0  0  0
   29.9440   31.1010   37.3450 C   0  0  0  0  0  0  0  0  0  0  0  0
   29.9070   31.5100   36.0420 C   0  0  0  0  0  0  0  0  0  0  0  0
   28.9840   32.4180   35.6180 N   0  0  0  0  0  0  0  0  0  0  0  0
   28.9580   32.8140   34.3140 C   0  0  0  0  0  0  0  0  0  0  0  0
   29.8560   32.3350   33.3300 C   0  0  0  0  0  0  0  0  0  0  0  0
   30.7930   31.4160   33.7620 C   0  0  0  0  0  0  0  0  0  0  0  0
   30.8070   31.0210   35.0920 C   0  0  0  0  0  0  0  0  0  0  0  0
   31.7330   30.1030   35.5450 C   0  0  0  0  0  0  0  0  0  0  0  0
   30.9390   29.8390   38.7800 H   0  0  0  0  0  0  0  0  0  0  0  0
   29.2470   31.4820   38.0760 H   0  0  0  0  0  0  0  0  0  0  0  0
   28.2240   33.5290   33.9990 H   0  0  0  0  0  0  0  0  0  0  0  0
   29.7660   32.7040   32.3180 H   0  0  0  0  0  0  0  0  0  0  0  0
   31.4990   31.0230   33.0470 H   0  0  0  0  0  0  0  0  0  0  0  0
   32.3930   29.7620   34.7600 H   0  0  0  0  0  0  0  0  0  0  0  0
   37.2170   27.1900   41.8740 C   0  0  2  0  0  0  0  0  0  0  0  0
   36.9250   27.5280   43.2560 C   0  0  0  0  0  0  0  0  0  0  0  0
   38.0960   28.2410   42.6190 C   0  0  1  0  0  0  0  0  0  0  0  0
   37.7940   26.2660   41.5950 H   0  0  0  0  0  0  0  0  0  0  0  0
   36.0200   28.1150   43.4980 H   0  0  0  0  0  0  0  0  0  0  0  0
   37.1250   26.7540   44.0320 H   0  0  0  0  0  0  0  0  0  0  0  0
   37.9320   29.2980   42.3440 H   0  0  0  0  0  0  0  0  0  0  0  0
   39.4010   27.8240   43.1270 C   0  0  0  0  0  0  0  0  0  0  0  0
   39.6860   26.7280   43.8960 C   0  0  0  0  0  0  0  0  0  0  0  0
   38.8410   26.0960   44.1590 H   0  0  0  0  0  0  0  0  0  0  0  0
   40.9500   26.4090   44.3330 C   0  0  0  0  0  3  0  0  0  0  0  0
   41.9960   27.2410   43.9750 C   0  0  0  0  0  0  0  0  0  0  0  0
   43.0030   27.0000   44.3130 H   0  0  0  0  0  0  0  0  0  0  0  0
   41.7900   28.3580   43.2040 C   0  0  0  0  0  0  0  0  0  0  0  0
   42.6040   29.0050   42.9270 H   0  0  0  0  0  0  0  0  0  0  0  0
   40.5070   28.6170   42.8050 C   0  0  0  0  0  3  0  0  0  0  0  0
  1  7  1  0  0  0  0
  1  6  1  0  0  0  0
  2  1  2  0  0  0  0
  3  2  1  0  0  0  0
  3  4  2  0  0  0  0
  4  5  1  0  0  0  0
  5  6  2  0  0  0  0
  5 32  1  0  0  0  0
  8  3  1  0  0  0  0
  9 12  1  6  0  0  0
  9  2  1  0  0  0  0
 10 11  1  0  0  0  0
 10  9  1  0  0  0  0
 11  9  1  0  0  0  0
 11 15  1  1  0  0  0
 13 10  1  0  0  0  0
 14 10  1  0  0  0  0
 16 11  1  0  0  0  0
 16 17  1  0  0  0  0
 17 26  1  0  0  0  0
 18 17  2  0  0  0  0
 18 27  1  0  0  0  0
 19 18  1  0  0  0  0
 20 19  1  0  0  0  0
 21 20  2  0  0  0  0
 22 23  2  0  0  0  0
 22 21  1  0  0  0  0
 23 24  1  0  0  0  0
 24 25  1  0  0  0  0
 24 19  2  0  0  0  0
 25 16  2  0  0  0  0
 28 21  1  0  0  0  0
 29 22  1  0  0  0  0
 30 23  1  0  0  0  0
 31 25  1  0  0  0  0
 32 35  1  6  0  0  0
 32 34  1  0  0  0  0
 32 33  1  0  0  0  0
 33 36  1  0  0  0  0
 33 37  1  0  0  0  0
 34 38  1  6  0  0  0
 34 39  1  0  0  0  0
 34 33  1  0  0  0  0
 39 40  1  0  0  0  0
 40 41  1  0  0  0  0
 40 42  2  0  0  0  0
 43 44  1  0  0  0  0
 43 42  1  0  0  0  0
 45 43  2  0  0  0  0
 46 45  1  0  0  0  0
 47 39  2  0  0  0  0
 47 45  1  0  0  0  0
M  END
>  <minimizedAffinity>
-7.37322569

$$$$

 OpenBabel03252503253D

 47 52  0  0  1  0  0  0  0  0999 V2000
   38.7120   31.5890   40.2570 C   0  0  0  0  0  0  0  0  0  0  0  0
   37.5400   31.7900   39.4540 C   0  0  0  0  0  0  0  0  0  0  0  0
   37.1470   33.0780   39.2020 C   0  0  0  0  0  0  0  0  0  0  0  0
   37.8920   34.0900   39.7290 N   0  0  0  0  0  0  0  0  0  0  0  0
   39.0010   33.8790   40.4870 C   0  0  0  0  0  0  0  0  0  0  0  0
   39.4060   32.6270   40.7480 N   0  0  0  0  0  0  0  0  0  0  0  0
   39.0510   30.5890   40.4770 H   0  0  0  0  0  0  0  0  0  0  0  0
   36.2720   33.2730   38.6040 H   0  0  0  0  0  0  0  0  0  0  0  0
   36.8120   30.5960   38.9340 C   0  0  1  0  0  0  0  0  0  0  0  0
   36.7310   30.3430   37.4970 C   0  0  0  0  0  0  0  0  0  0  0  0
   37.6570   29.5090   38.2980 C   0  0  2  0  0  0  0  0  0  0  0  0
   36.0080   30.2490   39.6020 H   0  0  0  0  0  0  0  0  0  0  0  0
   35.7570   30.0590   37.1170 H   0  0  0  0  0  0  0  0  0  0  0  0
   37.1720   31.1800   36.8630 H   0  0  0  0  0  0  0  0  0  0  0  0
   38.7440   29.7120   38.2200 H   0  0  0  0  0  0  0  0  0  0  0  0
   37.2130   28.1280   38.6240 C   0  0  0  0  0  0  0  0  0  0  0  0
   36.5010   27.3170   37.7670 C   0  0  0  0  0  0  0  0  0  0  0  0
   36.1130   26.0370   38.1420 C   0  0  0  0  0  0  0  0  0  0  0  0
   36.4370   25.5640   39.3810 C   0  0  0  0  0  0  0  0  0  0  0  0
   36.0670   24.3120   39.7730 N   0  0  0  0  0  0  0  0  0  0  0  0
   36.3960   23.8550   41.0140 C   0  0  0  0  0  0  0  0  0  0  0  0
   37.1230   24.6130   41.9630 C   0  0  0  0  0  0  0  0  0  0  0  0
   37.4980   25.8820   41.5640 C   0  0  0  0  0  0  0  0  0  0  0  0
   37.1560   26.3350   40.2980 C   0  0  0  0  0  0  0  0  0  0  0  0
   37.5190   27.5980   39.8790 C   0  0  0  0  0  0  0  0  0  0  0  0
   36.2530   27.7090   36.7890 H   0  0  0  0  0  0  0  0  0  0  0  0
   35.5570   25.4380   37.4360 H   0  0  0  0  0  0  0  0  0  0  0  0
   36.0960   22.8670   41.3040 H   0  0  0  0  0  0  0  0  0  0  0  0
   37.3410   24.1730   42.9250 H   0  0  0  0  0  0  0  0  0  0  0  0
   38.0540   26.4970   42.2540 H   0  0  0  0  0  0  0  0  0  0  0  0
   38.0670   28.1420   40.6360 H   0  0  0  0  0  0  0  0  0  0  0  0
   39.7380   35.0690   40.9920 C   0  0  2  0  0  0  0  0  0  0  0  0
   40.3090   36.0520   40.0880 C   0  0  0  0  0  0  0  0  0  0  0  0
   41.2650   35.0380   40.6750 C   0  0  1  0  0  0  0  0  0  0  0  0
   39.5270   35.3040   42.0710 H   0  0  0  0  0  0  0  0  0  0  0  0
   40.0840   35.9980   39.0070 H   0  0  0  0  0  0  0  0  0  0  0  0
   40.3650   37.1080   40.4380 H   0  0  0  0  0  0  0  0  0  0  0  0
   41.6060   34.2390   39.9940 H   0  0  0  0  0  0  0  0  0  0  0  0
   42.1930   35.5890   41.6610 C   0  0  0  0  0  0  0  0  0  0  0  0
   42.0230   36.7060   42.4330 C   0  0  0  0  0  0  0  0  0  0  0  0
   41.0880   37.2450   42.2970 H   0  0  0  0  0  0  0  0  0  0  0  0
   42.9540   37.1560   43.3410 C   0  0  0  0  0  3  0  0  0  0  0  0
   44.1290   36.4400   43.4830 C   0  0  0  0  0  0  0  0  0  0  0  0
   44.8750   36.7840   44.1970 H   0  0  0  0  0  0  0  0  0  0  0  0
   44.3710   35.3090   42.7430 C   0  0  0  0  0  0  0  0  0  0  0  0
   45.2870   34.7530   42.8540 H   0  0  0  0  0  0  0  0  0  0  0  0
   43.4030   34.9180   41.8580 C   0  0  0  0  0  3  0  0  0  0  0  0
  1  7  1  0  0  0  0
  1  6  1  0  0  0  0
  2  1  2  0  0  0  0
  3  2  1  0  0  0  0
  3  4  2  0  0  0  0
  4  5  1  0  0  0  0
  5  6  2  0  0  0  0
  5 32  1  0  0  0  0
  8  3  1  0  0  0  0
  9  2  1  0  0  0  0
  9 12  1  1  0  0  0
 10 11  1  0  0  0  0
 10  9  1  0  0  0  0
 11 15  1  6  0  0  0
 11 16  1  0  0  0  0
 11  9  1  0  0  0  0
 13 10  1  0  0  0  0
 14 10  1  0  0  0  0
 16 25  1  0  0  0  0
 17 18  1  0  0  0  0
 17 16  2  0  0  0  0
 18 19  2  0  0  0  0
 19 20  1  0  0  0  0
 19 24  1  0  0  0  0
 20 21  2  0  0  0  0
 21 28  1  0  0  0  0
 21 22  1  0  0  0  0
 22 29  1  0  0  0  0
 23 22  2  0  0  0  0
 23 30  1  0  0  0  0
 24 23  1  0  0  0  0
 25 24  2  0  0  0  0
 25 31  1  0  0  0  0
 26 17  1  0  0  0  0
 27 18  1  0  0  0  0
 32 35  1  1  0  0  0
 33 37  1  0  0  0  0
 33 34  1  0  0  0  0
 33 32  1  0  0  0  0
 34 38  1  6  0  0  0
 34 32  1  0  0  0  0
 34 39  1  0  0  0  0
 36 33  1  0  0  0  0
 39 47  2  0  0  0  0
 39 40  1  0  0  0  0
 40 42  2  0  0  0  0
 41 40  1  0  0  0  0
 42 43  1  0  0  0  0
 43 44  1  0  0  0  0
 45 46  1  0  0  0  0
 45 43  2  0  0  0  0
 47 45  1  0  0  0  0
M  END
>  <minimizedAffinity>
-7.25013924

$$$$

 OpenBabel03252503253D

 47 52  0  0  1  0  0  0  0  0999 V2000
   36.6900   28.0140   38.6930 C   0  0  0  0  0  0  0  0  0  0  0  0
   35.5220   28.8150   38.9150 C   0  0  0  0  0  0  0  0  0  0  0  0
   35.1710   29.0970   40.2100 C   0  0  0  0  0  0  0  0  0  0  0  0
   35.9540   28.5990   41.2080 N   0  0  0  0  0  0  0  0  0  0  0  0
   37.0590   27.8420   40.9770 C   0  0  0  0  0  0  0  0  0  0  0  0
   37.4230   27.5520   39.7190 N   0  0  0  0  0  0  0  0  0  0  0  0
   36.9960   27.7710   37.6880 H   0  0  0  0  0  0  0  0  0  0  0  0
   34.3000   29.6950   40.4200 H   0  0  0  0  0  0  0  0  0  0  0  0
   34.7500   29.3020   37.7350 C   0  0  1  0  0  0  0  0  0  0  0  0
   34.7490   28.5480   36.4840 C   0  0  0  0  0  0  0  0  0  0  0  0
   33.5370   28.4860   37.3320 C   0  0  2  0  0  0  0  0  0  0  0  0
   34.6180   30.3960   37.7210 H   0  0  0  0  0  0  0  0  0  0  0  0
   34.8850   29.1260   35.5780 H   0  0  0  0  0  0  0  0  0  0  0  0
   35.4580   27.6560   36.4910 H   0  0  0  0  0  0  0  0  0  0  0  0
   33.3510   27.5600   37.9140 H   0  0  0  0  0  0  0  0  0  0  0  0
   32.3700   29.3040   36.9060 C   0  0  0  0  0  0  0  0  0  0  0  0
   32.1560   29.7410   35.6160 C   0  0  0  0  0  0  0  0  0  0  0  0
   31.0460   30.5090   35.2910 C   0  0  0  0  0  0  0  0  0  0  0  0
   30.1430   30.8440   36.2600 C   0  0  0  0  0  0  0  0  0  0  0  0
   29.0460   31.5970   35.9650 N   0  0  0  0  0  0  0  0  0  0  0  0
   28.1560   31.9260   36.9430 C   0  0  0  0  0  0  0  0  0  0  0  0
   28.2900   31.5250   38.2950 C   0  0  0  0  0  0  0  0  0  0  0  0
   29.4030   30.7600   38.5910 C   0  0  0  0  0  0  0  0  0  0  0  0
   30.3020   30.4350   37.5860 C   0  0  0  0  0  0  0  0  0  0  0  0
   31.4200   29.6740   37.8590 C   0  0  0  0  0  0  0  0  0  0  0  0
   32.8830   29.4660   34.8620 H   0  0  0  0  0  0  0  0  0  0  0  0
   30.9200   30.8280   34.2670 H   0  0  0  0  0  0  0  0  0  0  0  0
   27.2980   32.5190   36.6920 H   0  0  0  0  0  0  0  0  0  0  0  0
   27.5360   31.8300   39.0060 H   0  0  0  0  0  0  0  0  0  0  0  0
   29.5470   30.4320   39.6080 H   0  0  0  0  0  0  0  0  0  0  0  0
   31.4840   29.3960   38.9020 H   0  0  0  0  0  0  0  0  0  0  0  0
   37.8400   27.3700   42.1530 C   0  0  2  0  0  0  0  0  0  0  0  0
   37.6580   27.9510   43.4720 C   0  0  0  0  0  0  0  0  0  0  0  0
   38.8610   28.4210   42.6870 C   0  0  1  0  0  0  0  0  0  0  0  0
   38.3030   26.3550   42.0090 H   0  0  0  0  0  0  0  0  0  0  0  0
   36.8320   28.6650   43.6470 H   0  0  0  0  0  0  0  0  0  0  0  0
   37.8170   27.2930   44.3560 H   0  0  0  0  0  0  0  0  0  0  0  0
   38.7930   29.4330   42.2500 H   0  0  0  0  0  0  0  0  0  0  0  0
   40.1410   27.9470   43.2100 C   0  0  0  0  0  0  0  0  0  0  0  0
   40.3780   26.8080   43.9290 C   0  0  0  0  0  0  0  0  0  0  0  0
   39.5110   26.1830   44.1350 H   0  0  0  0  0  0  0  0  0  0  0  0
   41.6210   26.4360   44.3850 C   0  0  0  0  0  3  0  0  0  0  0  0
   42.6960   27.2600   44.1010 C   0  0  0  0  0  0  0  0  0  0  0  0
   43.6860   26.9790   44.4550 H   0  0  0  0  0  0  0  0  0  0  0  0
   42.5370   28.4200   43.3840 C   0  0  0  0  0  0  0  0  0  0  0  0
   43.3740   29.0610   43.1630 H   0  0  0  0  0  0  0  0  0  0  0  0
   41.2730   28.7290   42.9610 C   0  0  0  0  0  3  0  0  0  0  0  0
  1  2  2  0  0  0  0
  1  6  1  0  0  0  0
  2  3  1  0  0  0  0
  3  8  1  0  0  0  0
  3  4  2  0  0  0  0
  5  4  1  0  0  0  0
  5 32  1  0  0  0  0
  6  5  2  0  0  0  0
  7  1  1  0  0  0  0
  9 12  1  6  0  0  0
  9  2  1  0  0  0  0
 10 14  1  0  0  0  0
 10 11  1  0  0  0  0
 10  9  1  0  0  0  0
 11  9  1  0  0  0  0
 11 15  1  1  0  0  0
 13 10  1  0  0  0  0
 16 11  1  0  0  0  0
 16 25  1  0  0  0  0
 17 16  2  0  0  0  0
 18 17  1  0  0  0  0
 18 19  2  0  0  0  0
 19 24  1  0  0  0  0
 20 19  1  0  0  0  0
 20 21  2  0  0  0  0
 21 22  1  0  0  0  0
 22 23  2  0  0  0  0
 22 29  1  0  0  0  0
 23 30  1  0  0  0  0
 24 25  2  0  0  0  0
 24 23  1  0  0  0  0
 25 31  1  0  0  0  0
 26 17  1  0  0  0  0
 27 18  1  0  0  0  0
 28 21  1  0  0  0  0
 32 35  1  6  0  0  0
 32 34  1  0  0  0  0
 32 33  1  0  0  0  0
 33 36  1  0  0  0  0
 33 37  1  0  0  0  0
 34 38  1  6  0  0  0
 34 39  1  0  0  0  0
 34 33  1  0  0  0  0
 39 40  1  0  0  0  0
 40 41  1  0  0  0  0
 40 42  2  0  0  0  0
 43 42  1  0  0  0  0
 43 44  1  0  0  0  0
 45 43  2  0  0  0  0
 46 45  1  0  0  0  0
 47 39  2  0  0  0  0
 47 45  1  0  0  0  0
M  END
>  <minimizedAffinity>
-6.85404348

$$$$

 OpenBabel03252503253D

 47 52  0  0  1  0  0  0  0  0999 V2000
   38.9970   27.6680   42.6220 C   0  0  0  0  0  0  0  0  0  0  0  0
   38.2190   28.7200   42.0360 C   0  0  0  0  0  0  0  0  0  0  0  0
   37.0830   28.3740   41.3500 C   0  0  0  0  0  0  0  0  0  0  0  0
   36.7630   27.0520   41.2670 N   0  0  0  0  0  0  0  0  0  0  0  0
   37.5150   26.0690   41.8300 C   0  0  0  0  0  0  0  0  0  0  0  0
   38.6300   26.3820   42.5060 N   0  0  0  0  0  0  0  0  0  0  0  0
   39.8970   27.9020   43.1690 H   0  0  0  0  0  0  0  0  0  0  0  0
   36.4700   29.1340   40.8940 H   0  0  0  0  0  0  0  0  0  0  0  0
   38.6760   30.1300   42.2010 C   0  0  1  0  0  0  0  0  0  0  0  0
   40.0850   30.4310   42.4430 C   0  0  0  0  0  0  0  0  0  0  0  0
   39.5400   30.6990   41.0920 C   0  0  2  0  0  0  0  0  0  0  0  0
   37.8930   30.8000   42.5900 H   0  0  0  0  0  0  0  0  0  0  0  0
   40.2910   31.1570   43.2210 H   0  0  0  0  0  0  0  0  0  0  0  0
   40.7290   29.5030   42.5910 H   0  0  0  0  0  0  0  0  0  0  0  0
   39.8100   30.0020   40.2730 H   0  0  0  0  0  0  0  0  0  0  0  0
   39.2370   32.1140   40.7520 C   0  0  0  0  0  0  0  0  0  0  0  0
   38.0110   32.5620   40.3120 C   0  0  0  0  0  0  0  0  0  0  0  0
   37.8010   33.9010   40.0060 C   0  0  0  0  0  0  0  0  0  0  0  0
   38.8220   34.7970   40.1390 C   0  0  0  0  0  0  0  0  0  0  0  0
   38.6410   36.1150   39.8440 N   0  0  0  0  0  0  0  0  0  0  0  0
   39.6710   36.9980   39.9790 C   0  0  0  0  0  0  0  0  0  0  0  0
   40.9650   36.6320   40.4230 C   0  0  0  0  0  0  0  0  0  0  0  0
   41.1460   35.2950   40.7230 C   0  0  0  0  0  0  0  0  0  0  0  0
   40.0900   34.4080   40.5790 C   0  0  0  0  0  0  0  0  0  0  0  0
   40.2480   33.0690   40.8710 C   0  0  0  0  0  0  0  0  0  0  0  0
   37.2130   31.8370   40.2120 H   0  0  0  0  0  0  0  0  0  0  0  0
   36.8220   34.2060   39.6650 H   0  0  0  0  0  0  0  0  0  0  0  0
   39.5090   38.0310   39.7420 H   0  0  0  0  0  0  0  0  0  0  0  0
   41.7240   37.3970   40.5020 H   0  0  0  0  0  0  0  0  0  0  0  0
   42.1170   34.9700   41.0650 H   0  0  0  0  0  0  0  0  0  0  0  0
   41.2510   32.8350   41.2000 H   0  0  0  0  0  0  0  0  0  0  0  0
   37.0490   24.6630   41.6810 C   0  0  2  0  0  0  0  0  0  0  0  0
   37.9830   23.5680   41.4850 C   0  0  0  0  0  0  0  0  0  0  0  0
   37.2740   24.0810   40.2520 C   0  0  1  0  0  0  0  0  0  0  0  0
   36.0020   24.4940   42.0540 H   0  0  0  0  0  0  0  0  0  0  0  0
   39.0690   23.7500   41.5810 H   0  0  0  0  0  0  0  0  0  0  0  0
   37.7030   22.5690   41.8890 H   0  0  0  0  0  0  0  0  0  0  0  0
   37.8790   24.6970   39.5630 H   0  0  0  0  0  0  0  0  0  0  0  0
   36.2760   23.1620   39.7080 C   0  0  0  0  0  0  0  0  0  0  0  0
   34.9440   23.4020   39.5040 C   0  0  0  0  0  0  0  0  0  0  0  0
   34.5890   24.3920   39.7810 H   0  0  0  0  0  0  0  0  0  0  0  0
   34.0710   22.4750   38.9850 C   0  0  0  0  0  3  0  0  0  0  0  0
   34.5660   21.2280   38.6470 C   0  0  0  0  0  0  0  0  0  0  0  0
   33.8870   20.4830   38.2340 H   0  0  0  0  0  0  0  0  0  0  0  0
   35.8900   20.9120   38.8210 C   0  0  0  0  0  0  0  0  0  0  0  0
   36.2740   19.9410   38.5580 H   0  0  0  0  0  0  0  0  0  0  0  0
   36.7030   21.8810   39.3430 C   0  0  0  0  0  3  0  0  0  0  0  0
  1  7  1  0  0  0  0
  2  9  1  0  0  0  0
  2  1  2  0  0  0  0
  3  2  1  0  0  0  0
  4  3  2  0  0  0  0
  4  5  1  0  0  0  0
  5  6  2  0  0  0  0
  6  1  1  0  0  0  0
  8  3  1  0  0  0  0
  9 10  1  0  0  0  0
  9 12  1  1  0  0  0
 10 14  1  0  0  0  0
 10 13  1  0  0  0  0
 11 15  1  6  0  0  0
 11  9  1  0  0  0  0
 11 10  1  0  0  0  0
 16 25  1  0  0  0  0
 16 11  1  0  0  0  0
 17 16  2  0  0  0  0
 18 19  2  0  0  0  0
 18 17  1  0  0  0  0
 19 24  1  0  0  0  0
 20 21  2  0  0  0  0
 20 19  1  0  0  0  0
 21 22  1  0  0  0  0
 22 29  1  0  0  0  0
 22 23  2  0  0  0  0
 23 30  1  0  0  0  0
 24 23  1  0  0  0  0
 24 25  2  0  0  0  0
 25 31  1  0  0  0  0
 26 17  1  0  0  0  0
 27 18  1  0  0  0  0
 28 21  1  0  0  0  0
 32  5  1  0  0  0  0
 32 35  1  1  0  0  0
 33 36  1  0  0  0  0
 33 32  1  0  0  0  0
 33 37  1  0  0  0  0
 34 38  1  6  0  0  0
 34 33  1  0  0  0  0
 34 32  1  0  0  0  0
 39 34  1  0  0  0  0
 40 39  1  0  0  0  0
 40 41  1  0  0  0  0
 42 40  2  0  0  0  0
 43 45  2  0  0  0  0
 43 42  1  0  0  0  0
 44 43  1  0  0  0  0
 45 47  1  0  0  0  0
 46 45  1  0  0  0  0
 47 39  2  0  0  0  0
M  END
>  <minimizedAffinity>
-6.82521677

$$$$

 OpenBabel03252503253D

 47 52  0  0  1  0  0  0  0  0999 V2000
   38.0860   28.7650   40.1280 C   0  0  0  0  0  0  0  0  0  0  0  0
   38.6970   28.2400   41.3140 C   0  0  0  0  0  0  0  0  0  0  0  0
   39.1000   29.1290   42.2770 C   0  0  0  0  0  0  0  0  0  0  0  0
   38.8960   30.4570   42.0480 N   0  0  0  0  0  0  0  0  0  0  0  0
   38.3130   30.9340   40.9160 C   0  0  0  0  0  0  0  0  0  0  0  0
   37.9110   30.0850   39.9600 N   0  0  0  0  0  0  0  0  0  0  0  0
   37.7570   28.0960   39.3480 H   0  0  0  0  0  0  0  0  0  0  0  0
   39.5640   28.7760   43.1840 H   0  0  0  0  0  0  0  0  0  0  0  0
   38.8620   26.7640   41.4450 C   0  0  1  0  0  0  0  0  0  0  0  0
   38.8050   26.1220   42.7560 C   0  0  0  0  0  0  0  0  0  0  0  0
   37.6340   25.9770   41.8620 C   0  0  2  0  0  0  0  0  0  0  0  0
   39.4660   26.3180   40.6380 H   0  0  0  0  0  0  0  0  0  0  0  0
   39.5700   25.3820   42.9590 H   0  0  0  0  0  0  0  0  0  0  0  0
   38.7340   26.8610   43.6210 H   0  0  0  0  0  0  0  0  0  0  0  0
   36.7240   26.5680   42.0900 H   0  0  0  0  0  0  0  0  0  0  0  0
   37.4790   24.6770   41.1560 C   0  0  0  0  0  0  0  0  0  0  0  0
   38.4200   23.6700   41.1640 C   0  0  0  0  0  0  0  0  0  0  0  0
   38.2110   22.4830   40.4750 C   0  0  0  0  0  0  0  0  0  0  0  0
   37.0540   22.2990   39.7730 C   0  0  0  0  0  0  0  0  0  0  0  0
   36.8260   21.1430   39.0890 N   0  0  0  0  0  0  0  0  0  0  0  0
   35.6680   20.9750   38.3900 C   0  0  0  0  0  0  0  0  0  0  0  0
   34.6430   21.9500   38.3220 C   0  0  0  0  0  0  0  0  0  0  0  0
   34.8760   23.1210   39.0180 C   0  0  0  0  0  0  0  0  0  0  0  0
   36.0600   23.2790   39.7230 C   0  0  0  0  0  0  0  0  0  0  0  0
   36.3140   24.4410   40.4240 C   0  0  0  0  0  0  0  0  0  0  0  0
   39.3320   23.8340   41.7250 H   0  0  0  0  0  0  0  0  0  0  0  0
   38.9770   21.7220   40.5110 H   0  0  0  0  0  0  0  0  0  0  0  0
   35.5060   20.0580   37.8580 H   0  0  0  0  0  0  0  0  0  0  0  0
   33.7560   21.7340   37.7450 H   0  0  0  0  0  0  0  0  0  0  0  0
   34.1230   23.8940   38.9940 H   0  0  0  0  0  0  0  0  0  0  0  0
   35.5100   25.1570   40.3390 H   0  0  0  0  0  0  0  0  0  0  0  0
   38.1330   32.4070   40.7930 C   0  0  2  0  0  0  0  0  0  0  0  0
   37.6120   33.0120   39.5790 C   0  0  0  0  0  0  0  0  0  0  0  0
   39.1100   33.0710   39.7750 C   0  0  1  0  0  0  0  0  0  0  0  0
   38.1120   32.9420   41.7810 H   0  0  0  0  0  0  0  0  0  0  0  0
   37.2120   32.3680   38.7740 H   0  0  0  0  0  0  0  0  0  0  0  0
   37.0190   33.9490   39.6800 H   0  0  0  0  0  0  0  0  0  0  0  0
   39.7100   32.3840   39.1540 H   0  0  0  0  0  0  0  0  0  0  0  0
   39.6230   34.4080   40.0710 C   0  0  0  0  0  0  0  0  0  0  0  0
   38.9690   35.6020   39.9340 C   0  0  0  0  0  0  0  0  0  0  0  0
   37.9490   35.5490   39.5600 H   0  0  0  0  0  0  0  0  0  0  0  0
   39.5310   36.8200   40.2380 C   0  0  0  0  0  3  0  0  0  0  0  0
   40.8310   36.8420   40.7100 C   0  0  0  0  0  0  0  0  0  0  0  0
   41.2890   37.7980   40.9550 H   0  0  0  0  0  0  0  0  0  0  0  0
   41.5510   35.6850   40.8750 C   0  0  0  0  0  0  0  0  0  0  0  0
   42.5630   35.7030   41.2420 H   0  0  0  0  0  0  0  0  0  0  0  0
   40.9320   34.5080   40.5530 C   0  0  0  0  0  3  0  0  0  0  0  0
  1  2  1  0  0  0  0
  2  9  1  0  0  0  0
  2  3  2  0  0  0  0
  3  8  1  0  0  0  0
  4  3  1  0  0  0  0
  5  4  2  0  0  0  0
  6  1  2  0  0  0  0
  6  5  1  0  0  0  0
  7  1  1  0  0  0  0
  9 12  1  6  0  0  0
  9 11  1  0  0  0  0
  9 10  1  0  0  0  0
 10 13  1  0  0  0  0
 10 14  1  0  0  0  0
 11 15  1  1  0  0  0
 11 10  1  0  0  0  0
 16 17  1  0  0  0  0
 16 11  1  0  0  0  0
 17 26  1  0  0  0  0
 18 27  1  0  0  0  0
 18 17  2  0  0  0  0
 19 18  1  0  0  0  0
 20 19  2  0  0  0  0
 21 20  1  0  0  0  0
 22 21  2  0  0  0  0
 22 23  1  0  0  0  0
 23 24  2  0  0  0  0
 24 19  1  0  0  0  0
 24 25  1  0  0  0  0
 25 16  2  0  0  0  0
 28 21  1  0  0  0  0
 29 22  1  0  0  0  0
 30 23  1  0  0  0  0
 31 25  1  0  0  0  0
 32  5  1  0  0  0  0
 32 35  1  1  0  0  0
 33 37  1  0  0  0  0
 33 34  1  0  0  0  0
 33 32  1  0  0  0  0
 34 38  1  6  0  0  0
 34 39  1  0  0  0  0
 34 32  1  0  0  0  0
 36 33  1  0  0  0  0
 39 47  1  0  0  0  0
 40 39  2  0  0  0  0
 40 42  1  0  0  0  0
 41 40  1  0  0  0  0
 42 43  2  0  0  0  0
 43 45  1  0  0  0  0
 43 44  1  0  0  0  0
 45 46  1  0  0  0  0
 47 45  2  0  0  0  0
M  END
>  <minimizedAffinity>
-6.68942213

$$$$

 OpenBabel03252503253D

 47 52  0  0  1  0  0  0  0  0999 V2000
   40.1460   31.4800   39.0910 C   0  0  0  0  0  0  0  0  0  0  0  0
   39.0380   31.4670   40.0020 C   0  0  0  0  0  0  0  0  0  0  0  0
   38.9840   32.4440   40.9620 C   0  0  0  0  0  0  0  0  0  0  0  0
   39.9860   33.3680   40.9930 N   0  0  0  0  0  0  0  0  0  0  0  0
   41.0270   33.3630   40.1190 C   0  0  0  0  0  0  0  0  0  0  0  0
   41.1030   32.4180   39.1710 N   0  0  0  0  0  0  0  0  0  0  0  0
   40.2220   30.7270   38.3220 H   0  0  0  0  0  0  0  0  0  0  0  0
   38.1690   32.4700   41.6670 H   0  0  0  0  0  0  0  0  0  0  0  0
   38.0040   30.4010   39.8620 C   0  0  1  0  0  0  0  0  0  0  0  0
   36.9110   30.2950   40.8240 C   0  0  0  0  0  0  0  0  0  0  0  0
   36.6070   30.8550   39.4870 C   0  0  2  0  0  0  0  0  0  0  0  0
   38.3720   29.5030   39.3410 H   0  0  0  0  0  0  0  0  0  0  0  0
   36.6850   29.2970   41.1820 H   0  0  0  0  0  0  0  0  0  0  0  0
   37.0060   31.0150   41.7010 H   0  0  0  0  0  0  0  0  0  0  0  0
   36.4510   31.9500   39.4020 H   0  0  0  0  0  0  0  0  0  0  0  0
   35.9170   29.9610   38.5190 C   0  0  0  0  0  0  0  0  0  0  0  0
   34.8530   29.1450   38.8370 C   0  0  0  0  0  0  0  0  0  0  0  0
   34.2620   28.3290   37.8810 C   0  0  0  0  0  0  0  0  0  0  0  0
   34.7360   28.3270   36.6000 C   0  0  0  0  0  0  0  0  0  0  0  0
   34.1730   27.5350   35.6450 N   0  0  0  0  0  0  0  0  0  0  0  0
   34.6590   27.5420   34.3720 C   0  0  0  0  0  0  0  0  0  0  0  0
   35.7470   28.3450   33.9520 C   0  0  0  0  0  0  0  0  0  0  0  0
   36.3160   29.1490   34.9220 C   0  0  0  0  0  0  0  0  0  0  0  0
   35.8120   29.1300   36.2140 C   0  0  0  0  0  0  0  0  0  0  0  0
   36.3650   29.9230   37.1980 C   0  0  0  0  0  0  0  0  0  0  0  0
   34.4910   29.1590   39.8570 H   0  0  0  0  0  0  0  0  0  0  0  0
   33.4300   27.7060   38.1760 H   0  0  0  0  0  0  0  0  0  0  0  0
   34.2030   26.9120   33.6340 H   0  0  0  0  0  0  0  0  0  0  0  0
   36.0690   28.2890   32.9210 H   0  0  0  0  0  0  0  0  0  0  0  0
   37.1490   29.7770   34.6470 H   0  0  0  0  0  0  0  0  0  0  0  0
   37.1950   30.5130   36.8340 H   0  0  0  0  0  0  0  0  0  0  0  0
   42.0500   34.4370   40.2470 C   0  0  2  0  0  0  0  0  0  0  0  0
   43.4030   34.2650   39.7470 C   0  0  0  0  0  0  0  0  0  0  0  0
   43.2040   34.0840   41.2350 C   0  0  1  0  0  0  0  0  0  0  0  0
   41.6120   35.4540   40.4440 H   0  0  0  0  0  0  0  0  0  0  0  0
   43.6530   33.3770   39.1380 H   0  0  0  0  0  0  0  0  0  0  0  0
   43.9410   35.1700   39.3840 H   0  0  0  0  0  0  0  0  0  0  0  0
   43.2280   33.0440   41.6070 H   0  0  0  0  0  0  0  0  0  0  0  0
   43.7760   35.1530   42.0510 C   0  0  0  0  0  0  0  0  0  0  0  0
   43.1100   36.0220   42.8720 C   0  0  0  0  0  0  0  0  0  0  0  0
   42.0300   35.9020   42.9220 H   0  0  0  0  0  0  0  0  0  0  0  0
   43.7300   37.0050   43.6090 C   0  0  0  0  0  3  0  0  0  0  0  0
   45.1060   37.1220   43.5170 C   0  0  0  0  0  0  0  0  0  0  0  0
   45.6110   37.8940   44.0940 H   0  0  0  0  0  0  0  0  0  0  0  0
   45.8420   36.2860   42.7150 C   0  0  0  0  0  0  0  0  0  0  0  0
   46.9130   36.3780   42.6430 H   0  0  0  0  0  0  0  0  0  0  0  0
   45.1620   35.3320   42.0090 C   0  0  0  0  0  3  0  0  0  0  0  0
  1  6  2  0  0  0  0
  1  2  1  0  0  0  0
  2  3  2  0  0  0  0
  3  4  1  0  0  0  0
  3  8  1  0  0  0  0
  5 32  1  0  0  0  0
  5  4  2  0  0  0  0
  6  5  1  0  0  0  0
  7  1  1  0  0  0  0
  9 12  1  6  0  0  0
  9  2  1  0  0  0  0
  9 10  1  0  0  0  0
 10 13  1  0  0  0  0
 10 14  1  0  0  0  0
 11 15  1  6  0  0  0
 11  9  1  0  0  0  0
 11 10  1  0  0  0  0
 16 17  1  0  0  0  0
 16 11  1  0  0  0  0
 17 26  1  0  0  0  0
 18 27  1  0  0  0  0
 18 17  2  0  0  0  0
 19 18  1  0  0  0  0
 20 19  2  0  0  0  0
 21 20  1  0  0  0  0
 22 21  2  0  0  0  0
 22 23  1  0  0  0  0
 23 24  2  0  0  0  0
 24 19  1  0  0  0  0
 24 25  1  0  0  0  0
 25 16  2  0  0  0  0
 28 21  1  0  0  0  0
 29 22  1  0  0  0  0
 30 23  1  0  0  0  0
 31 25  1  0  0  0  0
 32 35  1  1  0  0  0
 32 34  1  0  0  0  0
 33 32  1  0  0  0  0
 33 34  1  0  0  0  0
 34 38  1  1  0  0  0
 34 39  1  0  0  0  0
 36 33  1  0  0  0  0
 37 33  1  0  0  0  0
 39 40  1  0  0  0  0
 40 41  1  0  0  0  0
 40 42  2  0  0  0  0
 43 42  1  0  0  0  0
 43 44  1  0  0  0  0
 45 43  2  0  0  0  0
 46 45  1  0  0  0  0
 47 39  2  0  0  0  0
 47 45  1  0  0  0  0
M  END
>  <minimizedAffinity>
-6.57093525

$$$$

 OpenBabel03252503253D

 47 52  0  0  1  0  0  0  0  0999 V2000
   37.0830   31.9650   38.6820 C   0  0  0  0  0  0  0  0  0  0  0  0
   37.0780   30.7860   39.5000 C   0  0  0  0  0  0  0  0  0  0  0  0
   37.6850   30.8530   40.7270 C   0  0  0  0  0  0  0  0  0  0  0  0
   38.2570   32.0340   41.0960 N   0  0  0  0  0  0  0  0  0  0  0  0
   38.2500   33.1400   40.3060 C   0  0  0  0  0  0  0  0  0  0  0  0
   37.6630   33.1010   39.1010 N   0  0  0  0  0  0  0  0  0  0  0  0
   36.6150   31.9500   37.7100 H   0  0  0  0  0  0  0  0  0  0  0  0
   37.7040   29.9900   41.3730 H   0  0  0  0  0  0  0  0  0  0  0  0
   36.4150   29.5550   38.9820 C   0  0  1  0  0  0  0  0  0  0  0  0
   36.4650   29.2250   37.5600 C   0  0  0  0  0  0  0  0  0  0  0  0
   37.3270   28.4510   38.4820 C   0  0  2  0  0  0  0  0  0  0  0  0
   35.5590   29.2290   39.5940 H   0  0  0  0  0  0  0  0  0  0  0  0
   35.5330   28.9040   37.1110 H   0  0  0  0  0  0  0  0  0  0  0  0
   36.9500   30.0360   36.9230 H   0  0  0  0  0  0  0  0  0  0  0  0
   38.4140   28.6700   38.4900 H   0  0  0  0  0  0  0  0  0  0  0  0
   36.8740   27.0810   38.8420 C   0  0  0  0  0  0  0  0  0  0  0  0
   37.2700   26.4040   39.9750 C   0  0  0  0  0  0  0  0  0  0  0  0
   36.8110   25.1210   40.2440 C   0  0  0  0  0  0  0  0  0  0  0  0
   35.9530   24.5090   39.3760 C   0  0  0  0  0  0  0  0  0  0  0  0
   35.4900   23.2500   39.6170 N   0  0  0  0  0  0  0  0  0  0  0  0
   34.6360   22.6520   38.7400 C   0  0  0  0  0  0  0  0  0  0  0  0
   34.1750   23.2660   37.5500 C   0  0  0  0  0  0  0  0  0  0  0  0
   34.6450   24.5430   37.3080 C   0  0  0  0  0  0  0  0  0  0  0  0
   35.5150   25.1390   38.2090 C   0  0  0  0  0  0  0  0  0  0  0  0
   35.9970   26.4130   37.9860 C   0  0  0  0  0  0  0  0  0  0  0  0
   37.9510   26.9040   40.6520 H   0  0  0  0  0  0  0  0  0  0  0  0
   37.1480   24.6300   41.1450 H   0  0  0  0  0  0  0  0  0  0  0  0
   34.2820   21.6610   38.9470 H   0  0  0  0  0  0  0  0  0  0  0  0
   33.4970   22.7190   36.9100 H   0  0  0  0  0  0  0  0  0  0  0  0
   34.3200   25.0500   36.4120 H   0  0  0  0  0  0  0  0  0  0  0  0
   35.6240   26.8400   37.0650 H   0  0  0  0  0  0  0  0  0  0  0  0
   38.8960   34.3750   40.8290 C   0  0  2  0  0  0  0  0  0  0  0  0
   39.0860   35.5490   39.9950 C   0  0  0  0  0  0  0  0  0  0  0  0
   40.2930   34.6620   40.1990 C   0  0  1  0  0  0  0  0  0  0  0  0
   38.9100   34.4340   41.9520 H   0  0  0  0  0  0  0  0  0  0  0  0
   38.6250   35.5870   38.9900 H   0  0  0  0  0  0  0  0  0  0  0  0
   39.0610   36.5460   40.4890 H   0  0  0  0  0  0  0  0  0  0  0  0
   40.5830   34.0280   39.3430 H   0  0  0  0  0  0  0  0  0  0  0  0
   41.3320   35.2490   41.0440 C   0  0  0  0  0  0  0  0  0  0  0  0
   41.3000   36.4560   41.6890 C   0  0  0  0  0  0  0  0  0  0  0  0
   40.3950   37.0450   41.5560 H   0  0  0  0  0  0  0  0  0  0  0  0
   42.3270   36.9340   42.4690 C   0  0  0  0  0  3  0  0  0  0  0  0
   43.4590   36.1520   42.6100 C   0  0  0  0  0  0  0  0  0  0  0  0
   44.2810   36.5160   43.2240 H   0  0  0  0  0  0  0  0  0  0  0  0
   43.5660   34.9290   41.9940 C   0  0  0  0  0  0  0  0  0  0  0  0
   44.4470   34.3210   42.1050 H   0  0  0  0  0  0  0  0  0  0  0  0
   42.5070   34.5150   41.2330 C   0  0  0  0  0  3  0  0  0  0  0  0
  1  6  2  0  0  0  0
  1  2  1  0  0  0  0
  2  3  2  0  0  0  0
  3  4  1  0  0  0  0
  3  8  1  0  0  0  0
  5 32  1  0  0  0  0
  5  4  2  0  0  0  0
  6  5  1  0  0  0  0
  7  1  1  0  0  0  0
  9  2  1  0  0  0  0
  9 12  1  1  0  0  0
 10 11  1  0  0  0  0
 10  9  1  0  0  0  0
 11 15  1  6  0  0  0
 11 16  1  0  0  0  0
 11  9  1  0  0  0  0
 13 10  1  0  0  0  0
 14 10  1  0  0  0  0
 16 17  1  0  0  0  0
 17 18  2  0  0  0  0
 17 26  1  0  0  0  0
 18 27  1  0  0  0  0
 19 20  1  0  0  0  0
 19 18  1  0  0  0  0
 21 28  1  0  0  0  0
 21 20  2  0  0  0  0
 22 21  1  0  0  0  0
 23 22  2  0  0  0  0
 23 24  1  0  0  0  0
 24 19  2  0  0  0  0
 25 24  1  0  0  0  0
 25 16  2  0  0  0  0
 29 22  1  0  0  0  0
 30 23  1  0  0  0  0
 31 25  1  0  0  0  0
 32 35  1  1  0  0  0
 33 34  1  0  0  0  0
 33 37  1  0  0  0  0
 33 32  1  0  0  0  0
 34 38  1  6  0  0  0
 34 32  1  0  0  0  0
 34 39  1  0  0  0  0
 36 33  1  0  0  0  0
 39 47  2  0  0  0  0
 39 40  1  0  0  0  0
 40 42  2  0  0  0  0
 41 40  1  0  0  0  0
 42 43  1  0  0  0  0
 43 44  1  0  0  0  0
 45 46  1  0  0  0  0
 45 43  2  0  0  0  0
 47 45  1  0  0  0  0
M  END
>  <minimizedAffinity>
-6.51031494

$$$$

 OpenBabel03252503253D

 47 52  0  0  1  0  0  0  0  0999 V2000
   35.2710   26.7720   36.9460 C   0  0  0  0  0  0  0  0  0  0  0  0
   34.8940   28.1050   37.3160 C   0  0  0  0  0  0  0  0  0  0  0  0
   35.3240   28.5830   38.5260 C   0  0  0  0  0  0  0  0  0  0  0  0
   36.0850   27.7630   39.3050 N   0  0  0  0  0  0  0  0  0  0  0  0
   36.4330   26.5020   38.9350 C   0  0  0  0  0  0  0  0  0  0  0  0
   36.0240   26.0110   37.7570 N   0  0  0  0  0  0  0  0  0  0  0  0
   34.9500   26.3610   36.0020 H   0  0  0  0  0  0  0  0  0  0  0  0
   35.0620   29.5800   38.8420 H   0  0  0  0  0  0  0  0  0  0  0  0
   34.0580   28.9030   36.3720 C   0  0  1  0  0  0  0  0  0  0  0  0
   33.6380   28.3390   35.0920 C   0  0  0  0  0  0  0  0  0  0  0  0
   32.6290   28.4390   36.1710 C   0  0  2  0  0  0  0  0  0  0  0  0
   34.1990   29.9900   36.4770 H   0  0  0  0  0  0  0  0  0  0  0  0
   33.7400   28.9860   34.2290 H   0  0  0  0  0  0  0  0  0  0  0  0
   34.0940   27.3180   34.8740 H   0  0  0  0  0  0  0  0  0  0  0  0
   32.3340   27.5090   36.6990 H   0  0  0  0  0  0  0  0  0  0  0  0
   31.6400   29.5450   36.0720 C   0  0  0  0  0  0  0  0  0  0  0  0
   31.0220   30.1340   37.1550 C   0  0  0  0  0  0  0  0  0  0  0  0
   30.1020   31.1600   36.9880 C   0  0  0  0  0  0  0  0  0  0  0  0
   29.7950   31.6020   35.7320 C   0  0  0  0  0  0  0  0  0  0  0  0
   28.8950   32.6070   35.5430 N   0  0  0  0  0  0  0  0  0  0  0  0
   28.5970   33.0340   34.2830 C   0  0  0  0  0  0  0  0  0  0  0  0
   29.1780   32.4920   33.1120 C   0  0  0  0  0  0  0  0  0  0  0  0
   30.0920   31.4730   33.3060 C   0  0  0  0  0  0  0  0  0  0  0  0
   30.3850   31.0470   34.5940 C   0  0  0  0  0  0  0  0  0  0  0  0
   31.2930   30.0310   34.8110 C   0  0  0  0  0  0  0  0  0  0  0  0
   31.2770   29.7710   38.1420 H   0  0  0  0  0  0  0  0  0  0  0  0
   29.6430   31.5920   37.8660 H   0  0  0  0  0  0  0  0  0  0  0  0
   27.8860   33.8270   34.1540 H   0  0  0  0  0  0  0  0  0  0  0  0
   28.8850   32.8910   32.1520 H   0  0  0  0  0  0  0  0  0  0  0  0
   30.5610   31.0290   32.4420 H   0  0  0  0  0  0  0  0  0  0  0  0
   31.7060   29.6440   33.8900 H   0  0  0  0  0  0  0  0  0  0  0  0
   37.2820   25.7110   39.8690 C   0  0  2  0  0  0  0  0  0  0  0  0
   36.7070   24.7360   40.7800 C   0  0  0  0  0  0  0  0  0  0  0  0
   37.0680   26.0800   41.3690 C   0  0  1  0  0  0  0  0  0  0  0  0
   38.3680   25.6900   39.5810 H   0  0  0  0  0  0  0  0  0  0  0  0
   35.6380   24.4690   40.6940 H   0  0  0  0  0  0  0  0  0  0  0  0
   37.3260   23.8490   41.0470 H   0  0  0  0  0  0  0  0  0  0  0  0
   36.2250   26.7580   41.5910 H   0  0  0  0  0  0  0  0  0  0  0  0
   38.2230   26.0520   42.2650 C   0  0  0  0  0  0  0  0  0  0  0  0
   38.7090   27.0760   43.0320 C   0  0  0  0  0  0  0  0  0  0  0  0
   38.1730   28.0210   42.9650 H   0  0  0  0  0  0  0  0  0  0  0  0
   39.8080   26.9630   43.8520 C   0  0  0  0  0  3  0  0  0  0  0  0
   40.4600   25.7440   43.9070 C   0  0  0  0  0  0  0  0  0  0  0  0
   41.3310   25.6380   44.5510 H   0  0  0  0  0  0  0  0  0  0  0  0
   40.0310   24.6690   43.1670 C   0  0  0  0  0  0  0  0  0  0  0  0
   40.5390   23.7210   43.2110 H   0  0  0  0  0  0  0  0  0  0  0  0
   38.9320   24.8520   42.3730 C   0  0  0  0  0  3  0  0  0  0  0  0
  1  2  2  0  0  0  0
  1  6  1  0  0  0  0
  2  3  1  0  0  0  0
  3  8  1  0  0  0  0
  3  4  2  0  0  0  0
  5  4  1  0  0  0  0
  5 32  1  0  0  0  0
  6  5  2  0  0  0  0
  7  1  1  0  0  0  0
  9 12  1  1  0  0  0
  9  2  1  0  0  0  0
 10 11  1  0  0  0  0
 10  9  1  0  0  0  0
 11  9  1  0  0  0  0
 11 15  1  1  0  0  0
 13 10  1  0  0  0  0
 14 10  1  0  0  0  0
 16 11  1  0  0  0  0
 16 17  1  0  0  0  0
 17 26  1  0  0  0  0
 18 17  2  0  0  0  0
 18 27  1  0  0  0  0
 19 18  1  0  0  0  0
 20 19  1  0  0  0  0
 21 20  2  0  0  0  0
 22 23  2  0  0  0  0
 22 21  1  0  0  0  0
 23 24  1  0  0  0  0
 24 25  1  0  0  0  0
 24 19  2  0  0  0  0
 25 16  2  0  0  0  0
 28 21  1  0  0  0  0
 29 22  1  0  0  0  0
 30 23  1  0  0  0  0
 31 25  1  0  0  0  0
 32 35  1  6  0  0  0
 32 33  1  0  0  0  0
 32 34  1  0  0  0  0
 33 37  1  0  0  0  0
 33 34  1  0  0  0  0
 34 38  1  1  0  0  0
 34 39  1  0  0  0  0
 36 33  1  0  0  0  0
 39 47  2  0  0  0  0
 39 40  1  0  0  0  0
 40 42  2  0  0  0  0
 41 40  1  0  0  0  0
 42 43  1  0  0  0  0
 43 44  1  0  0  0  0
 45 46  1  0  0  0  0
 45 43  2  0  0  0  0
 47 45  1  0  0  0  0
M  END
>  <minimizedAffinity>
-6.48507738

$$$$

 OpenBabel03252503253D

 47 52  0  0  1  0  0  0  0  0999 V2000
   38.9560   28.7880   41.5790 C   0  0  0  0  0  0  0  0  0  0  0  0
   38.5030   28.0040   42.6920 C   0  0  0  0  0  0  0  0  0  0  0  0
   37.1580   27.7640   42.8050 C   0  0  0  0  0  0  0  0  0  0  0  0
   36.3330   28.2850   41.8530 N   0  0  0  0  0  0  0  0  0  0  0  0
   36.7820   29.0250   40.8050 C   0  0  0  0  0  0  0  0  0  0  0  0
   38.0930   29.2740   40.6720 N   0  0  0  0  0  0  0  0  0  0  0  0
   40.0070   28.9980   41.4580 H   0  0  0  0  0  0  0  0  0  0  0  0
   36.7760   27.1800   43.6260 H   0  0  0  0  0  0  0  0  0  0  0  0
   39.5090   27.4890   43.6650 C   0  0  1  0  0  0  0  0  0  0  0  0
   39.9680   26.1040   43.5980 C   0  0  0  0  0  0  0  0  0  0  0  0
   40.8830   27.1620   43.1130 C   0  0  2  0  0  0  0  0  0  0  0  0
   39.4940   28.0200   44.6300 H   0  0  0  0  0  0  0  0  0  0  0  0
   40.0220   25.5730   44.5400 H   0  0  0  0  0  0  0  0  0  0  0  0
   39.4100   25.4780   42.8260 H   0  0  0  0  0  0  0  0  0  0  0  0
   41.0140   27.2790   42.0180 H   0  0  0  0  0  0  0  0  0  0  0  0
   42.0050   27.5490   44.0090 C   0  0  0  0  0  0  0  0  0  0  0  0
   42.5190   26.7450   45.0030 C   0  0  0  0  0  0  0  0  0  0  0  0
   43.5650   27.1750   45.8090 C   0  0  0  0  0  0  0  0  0  0  0  0
   44.1010   28.4170   45.6210 C   0  0  0  0  0  0  0  0  0  0  0  0
   45.1280   28.8620   46.3990 N   0  0  0  0  0  0  0  0  0  0  0  0
   45.6510   30.1050   46.2010 C   0  0  0  0  0  0  0  0  0  0  0  0
   45.1900   31.0020   45.2070 C   0  0  0  0  0  0  0  0  0  0  0  0
   44.1500   30.5480   44.4180 C   0  0  0  0  0  0  0  0  0  0  0  0
   43.6260   29.2810   44.6320 C   0  0  0  0  0  0  0  0  0  0  0  0
   42.5870   28.8080   43.8570 C   0  0  0  0  0  0  0  0  0  0  0  0
   42.0800   25.7640   45.1380 H   0  0  0  0  0  0  0  0  0  0  0  0
   43.9350   26.5100   46.5750 H   0  0  0  0  0  0  0  0  0  0  0  0
   46.4590   30.4380   46.8230 H   0  0  0  0  0  0  0  0  0  0  0  0
   45.6630   31.9700   45.1190 H   0  0  0  0  0  0  0  0  0  0  0  0
   43.7650   31.1980   43.6480 H   0  0  0  0  0  0  0  0  0  0  0  0
   42.2640   29.5270   43.1170 H   0  0  0  0  0  0  0  0  0  0  0  0
   35.7800   29.5240   39.8230 C   0  0  2  0  0  0  0  0  0  0  0  0
   34.3770   29.1590   39.9140 C   0  0  0  0  0  0  0  0  0  0  0  0
   35.2060   28.4100   38.8960 C   0  0  1  0  0  0  0  0  0  0  0  0
   36.1250   30.4270   39.2490 H   0  0  0  0  0  0  0  0  0  0  0  0
   34.0100   28.6100   40.8000 H   0  0  0  0  0  0  0  0  0  0  0  0
   33.6250   29.8980   39.5550 H   0  0  0  0  0  0  0  0  0  0  0  0
   35.4760   27.3710   39.1560 H   0  0  0  0  0  0  0  0  0  0  0  0
   34.9000   28.7470   37.5070 C   0  0  0  0  0  0  0  0  0  0  0  0
   35.7860   28.9800   36.4900 C   0  0  0  0  0  0  0  0  0  0  0  0
   36.8410   28.9050   36.7480 H   0  0  0  0  0  0  0  0  0  0  0  0
   35.4090   29.2930   35.2050 C   0  0  0  0  0  3  0  0  0  0  0  0
   34.0580   29.3780   34.9210 C   0  0  0  0  0  0  0  0  0  0  0  0
   33.7450   29.6250   33.9090 H   0  0  0  0  0  0  0  0  0  0  0  0
   33.1090   29.1570   35.8890 C   0  0  0  0  0  0  0  0  0  0  0  0
   32.0580   29.2240   35.6670 H   0  0  0  0  0  0  0  0  0  0  0  0
   33.5530   28.8510   37.1460 C   0  0  0  0  0  3  0  0  0  0  0  0
  1  2  1  0  0  0  0
  2  3  2  0  0  0  0
  2  9  1  0  0  0  0
  3  8  1  0  0  0  0
  4  3  1  0  0  0  0
  5  4  2  0  0  0  0
  6  5  1  0  0  0  0
  6  1  2  0  0  0  0
  7  1  1  0  0  0  0
  9 12  1  1  0  0  0
 10  9  1  0  0  0  0
 10 13  1  0  0  0  0
 11 15  1  6  0  0  0
 11 10  1  0  0  0  0
 11  9  1  0  0  0  0
 11 16  1  0  0  0  0
 14 10  1  0  0  0  0
 16 17  1  0  0  0  0
 17 26  1  0  0  0  0
 17 18  2  0  0  0  0
 18 27  1  0  0  0  0
 19 18  1  0  0  0  0
 19 20  1  0  0  0  0
 21 20  2  0  0  0  0
 21 28  1  0  0  0  0
 22 21  1  0  0  0  0
 23 24  1  0  0  0  0
 23 22  2  0  0  0  0
 24 19  2  0  0  0  0
 25 16  2  0  0  0  0
 25 24  1  0  0  0  0
 29 22  1  0  0  0  0
 30 23  1  0  0  0  0
 31 25  1  0  0  0  0
 32 35  1  6  0  0  0
 32 33  1  0  0  0  0
 32  5  1  0  0  0  0
 33 36  1  0  0  0  0
 34 38  1  1  0  0  0
 34 32  1  0  0  0  0
 34 33  1  0  0  0  0
 37 33  1  0  0  0  0
 39 34  1  0  0  0  0
 40 41  1  0  0  0  0
 40 39  2  0  0  0  0
 42 40  1  0  0  0  0
 43 42  2  0  0  0  0
 43 45  1  0  0  0  0
 44 43  1  0  0  0  0
 45 47  2  0  0  0  0
 46 45  1  0  0  0  0
 47 39  1  0  0  0  0
M  END
>  <minimizedAffinity>
-6.47499514

$$$$
