
 OpenBabel03252509113D

 31 34  0  0  0  0  0  0  0  0999 V2000
   47.4850   32.8620   44.2230 C   0  0  0  0  0  0  0  0  0  0  0  0
   47.7190   32.9320   42.8730 C   0  0  0  0  0  0  0  0  0  0  0  0
   46.9560   33.7300   42.0390 C   0  0  0  0  0  0  0  0  0  0  0  0
   45.9140   34.4950   42.5460 C   0  0  0  0  0  0  0  0  0  0  0  0
   44.9900   35.3600   42.0460 N   0  0  0  0  0  0  0  0  0  0  0  0
   44.2170   35.8000   43.0720 C   0  0  0  0  0  0  0  0  0  0  0  0
   44.6670   35.2060   44.1930 N   0  0  0  0  0  0  0  0  0  0  0  0
   45.7090   34.3980   43.9050 C   0  0  0  0  0  0  0  0  0  0  0  0
   46.4420   33.6210   44.7650 C   0  0  0  0  0  0  0  0  0  0  0  0
   48.1050   32.2240   44.8510 H   0  0  0  0  0  0  0  0  0  0  0  0
   45.0050   35.5500   41.0110 H   0  0  0  0  0  0  0  0  0  0  0  0
   43.4080   36.5050   42.9020 H   0  0  0  0  0  0  0  0  0  0  0  0
   46.2550   33.5660   45.8260 H   0  0  0  0  0  0  0  0  0  0  0  0
   49.5700   30.2130   41.2280 C   0  0  0  0  0  0  0  0  0  0  0  0
   50.8670   30.7230   41.1570 C   0  0  0  0  0  0  0  0  0  0  0  0
   51.0940   32.0020   41.6780 C   0  0  0  0  0  0  0  0  0  0  0  0
   50.0350   32.6790   42.2240 N   0  0  0  0  0  0  0  0  0  0  0  0
   48.7940   32.1580   42.2770 C   0  0  0  0  0  0  0  0  0  0  0  0
   48.5510   30.9250   41.7800 N   0  0  0  0  0  0  0  0  0  0  0  0
   49.3240   29.2170   40.8380 H   0  0  0  0  0  0  0  0  0  0  0  0
   51.6420   30.1210   40.7100 H   0  0  0  0  0  0  0  0  0  0  0  0
   52.0880   32.4240   41.6380 H   0  0  0  0  0  0  0  0  0  0  0  0
   47.2120   33.7990   40.6010 C   0  0  0  0  0  0  0  0  0  0  0  0
   46.4540   33.0320   39.7290 C   0  0  0  0  0  0  0  0  0  0  0  0
   45.6800   32.3900   40.1380 H   0  0  0  0  0  0  0  0  0  0  0  0
   46.6160   33.0280   38.3810 C   0  0  0  0  0  3  0  0  0  0  0  0
   47.6140   33.8560   37.8680 C   0  0  0  0  0  0  0  0  0  0  0  0
   47.8120   33.9180   36.8170 H   0  0  0  0  0  0  0  0  0  0  0  0
   48.4020   34.6480   38.7110 C   0  0  0  0  0  0  0  0  0  0  0  0
   49.1830   35.3010   38.3480 H   0  0  0  0  0  0  0  0  0  0  0  0
   48.2030   34.6200   40.0720 C   0  0  0  0  0  3  0  0  0  0  0  0
  1  9  1  0  0  0  0
  1 10  1  0  0  0  0
  2  1  2  0  0  0  0
  3  4  2  0  0  0  0
  3  2  1  0  0  0  0
  4  8  1  0  0  0  0
  5  4  1  0  0  0  0
  5  6  1  0  0  0  0
  6  7  2  0  0  0  0
  8  7  1  0  0  0  0
  8  9  2  0  0  0  0
  9 13  1  0  0  0  0
 11  5  1  0  0  0  0
 12  6  1  0  0  0  0
 14 19  1  0  0  0  0
 15 14  2  0  0  0  0
 15 16  1  0  0  0  0
 16 17  2  0  0  0  0
 17 18  1  0  0  0  0
 18  2  1  0  0  0  0
 19 18  2  0  0  0  0
 20 14  1  0  0  0  0
 21 15  1  0  0  0  0
 22 16  1  0  0  0  0
 23  3  1  0  0  0  0
 24 25  1  0  0  0  0
 24 23  2  0  0  0  0
 26 24  1  0  0  0  0
 27 26  2  0  0  0  0
 27 29  1  0  0  0  0
 28 27  1  0  0  0  0
 29 31  2  0  0  0  0
 30 29  1  0  0  0  0
 31 23  1  0  0  0  0
M  END
>  <minimizedAffinity>
-4.76855564

>  <minimizedRMSD>
5.76823568

$$$$
