
 OpenBabel03252506073D

 43 47  0  0  0  0  0  0  0  0999 V2000
   36.6960   26.2080   38.6410 Cl  0  0  0  0  0  0  0  0  0  0  0  0
   35.3500   27.1850   38.1430 C   0  0  0  0  0  0  0  0  0  0  0  0
   35.0800   28.3710   38.8020 C   0  0  0  0  0  0  0  0  0  0  0  0
   33.9900   29.0830   38.3360 C   0  0  0  0  0  0  0  0  0  0  0  0
   33.1890   28.6720   37.2790 C   0  0  0  0  0  0  0  0  0  0  0  0
   33.4920   27.4970   36.6570 C   0  0  0  0  0  0  0  0  0  0  0  0
   32.4510   27.0250   35.3290 Cl  0  0  0  0  0  0  0  0  0  0  0  0
   34.5620   26.7550   37.0800 C   0  0  0  0  0  0  0  0  0  0  0  0
   33.7800   30.0100   38.8520 H   0  0  0  0  0  0  0  0  0  0  0  0
   34.7410   25.8370   36.5440 H   0  0  0  0  0  0  0  0  0  0  0  0
   32.0740   29.5660   36.9300 C   0  0  0  0  0  0  0  0  0  0  0  0
   31.0460   29.8490   37.7910 C   0  0  0  0  0  0  0  0  0  0  0  0
   29.9900   30.6850   37.4810 C   0  0  0  0  0  0  0  0  0  0  0  0
   29.9460   31.2830   36.2390 C   0  0  0  0  0  0  0  0  0  0  0  0
   28.9160   32.0930   35.9520 N   0  0  0  0  0  0  0  0  0  0  0  0
   28.8010   32.7160   34.7590 C   0  0  0  0  0  0  0  0  0  0  0  0
   29.8090   32.4740   33.8350 C   0  0  0  0  0  0  0  0  0  0  0  0
   30.8610   31.6530   34.1180 C   0  0  0  0  0  0  0  0  0  0  0  0
   30.9530   31.0260   35.3540 C   0  0  0  0  0  0  0  0  0  0  0  0
   32.0030   30.1860   35.6770 C   0  0  0  0  0  0  0  0  0  0  0  0
   31.1000   29.3700   38.7610 H   0  0  0  0  0  0  0  0  0  0  0  0
   29.1980   30.8730   38.2100 H   0  0  0  0  0  0  0  0  0  0  0  0
   27.9550   33.3740   34.5370 H   0  0  0  0  0  0  0  0  0  0  0  0
   29.6770   32.9930   32.8940 H   0  0  0  0  0  0  0  0  0  0  0  0
   31.6300   31.4880   33.3740 H   0  0  0  0  0  0  0  0  0  0  0  0
   32.7840   30.0000   34.9610 H   0  0  0  0  0  0  0  0  0  0  0  0
   36.5730   30.5990   41.2630 C   0  0  0  0  0  0  0  0  0  0  0  0
   37.4020   29.7460   42.0070 C   0  0  0  0  0  0  0  0  0  0  0  0
   37.4480   28.3820   41.6540 C   0  0  0  0  0  0  0  0  0  0  0  0
   36.6790   28.0100   40.6170 N   0  0  0  0  0  0  0  0  0  0  0  0
   35.8850   28.8430   39.9090 C   0  0  0  0  0  0  0  0  0  0  0  0
   35.8260   30.1510   40.2310 N   0  0  0  0  0  0  0  0  0  0  0  0
   36.5730   31.6340   41.5750 H   0  0  0  0  0  0  0  0  0  0  0  0
   37.9970   30.0760   42.8220 H   0  0  0  0  0  0  0  0  0  0  0  0
   38.2650   27.3930   42.3400 C   0  0  0  0  0  0  0  0  0  0  0  0
   38.0670   26.0790   41.9720 C   0  0  0  0  0  0  0  0  0  0  0  0
   37.3440   25.7710   41.2100 H   0  0  0  0  0  0  0  0  0  0  0  0
   38.7850   25.0490   42.5540 C   0  0  0  0  0  3  0  0  0  0  0  0
   39.7330   25.3360   43.5380 C   0  0  0  0  0  0  0  0  0  0  0  0
   40.3470   24.6090   44.0550 H   0  0  0  0  0  0  0  0  0  0  0  0
   39.8780   26.6710   43.8560 C   0  0  0  0  0  0  0  0  0  0  0  0
   40.6150   26.9360   44.6260 H   0  0  0  0  0  0  0  0  0  0  0  0
   39.1880   27.7260   43.3050 C   0  0  0  0  0  3  0  0  0  0  0  0
  2  1  1  0  0  0  0
  2  3  1  0  0  0  0
  3 31  1  0  0  0  0
  4  3  2  0  0  0  0
  4  9  1  0  0  0  0
  5  4  1  0  0  0  0
  6  8  1  0  0  0  0
  6  5  2  0  0  0  0
  7  6  1  0  0  0  0
  8  2  2  0  0  0  0
 10  8  1  0  0  0  0
 11  5  1  0  0  0  0
 11 12  1  0  0  0  0
 12 21  1  0  0  0  0
 13 12  2  0  0  0  0
 13 22  1  0  0  0  0
 14 13  1  0  0  0  0
 15 14  1  0  0  0  0
 16 15  2  0  0  0  0
 17 18  2  0  0  0  0
 17 16  1  0  0  0  0
 18 19  1  0  0  0  0
 19 20  1  0  0  0  0
 19 14  2  0  0  0  0
 20 11  2  0  0  0  0
 23 16  1  0  0  0  0
 24 17  1  0  0  0  0
 25 18  1  0  0  0  0
 26 20  1  0  0  0  0
 27 33  1  0  0  0  0
 27 28  1  0  0  0  0
 28 34  1  0  0  0  0
 29 28  2  0  0  0  0
 29 35  1  0  0  0  0
 30 29  1  0  0  0  0
 31 32  1  0  0  0  0
 31 30  2  0  0  0  0
 32 27  2  0  0  0  0
 35 43  1  0  0  0  0
 36 35  2  0  0  0  0
 36 38  1  0  0  0  0
 37 36  1  0  0  0  0
 38 39  2  0  0  0  0
 39 41  1  0  0  0  0
 39 40  1  0  0  0  0
 41 42  1  0  0  0  0
 43 41  2  0  0  0  0
M  END
>  <minimizedAffinity>
-7.70542765

$$$$

 OpenBabel03252506073D

 43 47  0  0  0  0  0  0  0  0999 V2000
   38.1270   30.2010   37.3320 Cl  0  0  0  0  0  0  0  0  0  0  0  0
   39.1840   31.1900   38.2930 C   0  0  0  0  0  0  0  0  0  0  0  0
   39.1500   31.0930   39.6730 C   0  0  0  0  0  0  0  0  0  0  0  0
   40.0260   31.9170   40.3540 C   0  0  0  0  0  0  0  0  0  0  0  0
   40.9000   32.8010   39.7370 C   0  0  0  0  0  0  0  0  0  0  0  0
   40.9000   32.8630   38.3740 C   0  0  0  0  0  0  0  0  0  0  0  0
   42.0240   33.9940   37.6450 Cl  0  0  0  0  0  0  0  0  0  0  0  0
   40.0520   32.0670   37.6530 C   0  0  0  0  0  0  0  0  0  0  0  0
   39.9980   31.8410   41.4330 H   0  0  0  0  0  0  0  0  0  0  0  0
   40.1060   32.1700   36.5810 H   0  0  0  0  0  0  0  0  0  0  0  0
   41.7550   33.5950   40.6330 C   0  0  0  0  0  0  0  0  0  0  0  0
   41.5960   34.9440   40.8150 C   0  0  0  0  0  0  0  0  0  0  0  0
   42.3890   35.7070   41.6530 C   0  0  0  0  0  0  0  0  0  0  0  0
   43.4050   35.0970   42.3560 C   0  0  0  0  0  0  0  0  0  0  0  0
   44.1670   35.8490   43.1660 N   0  0  0  0  0  0  0  0  0  0  0  0
   45.1820   35.3270   43.8890 C   0  0  0  0  0  0  0  0  0  0  0  0
   45.4010   33.9630   43.7530 C   0  0  0  0  0  0  0  0  0  0  0  0
   44.6320   33.1900   42.9330 C   0  0  0  0  0  0  0  0  0  0  0  0
   43.5940   33.7540   42.2020 C   0  0  0  0  0  0  0  0  0  0  0  0
   42.7940   33.0030   41.3600 C   0  0  0  0  0  0  0  0  0  0  0  0
   40.7920   35.4030   40.2530 H   0  0  0  0  0  0  0  0  0  0  0  0
   42.2140   36.7800   41.7570 H   0  0  0  0  0  0  0  0  0  0  0  0
   45.7960   35.9520   44.5460 H   0  0  0  0  0  0  0  0  0  0  0  0
   46.2230   33.5880   44.3500 H   0  0  0  0  0  0  0  0  0  0  0  0
   44.8310   32.1290   42.8520 H   0  0  0  0  0  0  0  0  0  0  0  0
   42.9650   31.9470   41.2550 H   0  0  0  0  0  0  0  0  0  0  0  0
   36.1050   29.6520   41.0510 C   0  0  0  0  0  0  0  0  0  0  0  0
   36.5570   28.4770   41.6690 C   0  0  0  0  0  0  0  0  0  0  0  0
   37.9330   28.1760   41.6120 C   0  0  0  0  0  0  0  0  0  0  0  0
   38.7070   29.0590   40.9560 N   0  0  0  0  0  0  0  0  0  0  0  0
   38.2570   30.1870   40.3650 C   0  0  0  0  0  0  0  0  0  0  0  0
   36.9440   30.4920   40.4080 N   0  0  0  0  0  0  0  0  0  0  0  0
   35.0420   29.8350   41.1240 H   0  0  0  0  0  0  0  0  0  0  0  0
   35.9150   27.8020   42.1800 H   0  0  0  0  0  0  0  0  0  0  0  0
   38.5330   26.9940   42.2110 C   0  0  0  0  0  0  0  0  0  0  0  0
   38.1220   25.7800   41.7050 C   0  0  0  0  0  0  0  0  0  0  0  0
   37.3880   25.6830   40.8980 H   0  0  0  0  0  0  0  0  0  0  0  0
   38.6220   24.5860   42.1950 C   0  0  0  0  0  3  0  0  0  0  0  0
   39.5640   24.6010   43.2250 C   0  0  0  0  0  0  0  0  0  0  0  0
   40.0180   23.7280   43.6790 H   0  0  0  0  0  0  0  0  0  0  0  0
   39.9290   25.8510   43.6820 C   0  0  0  0  0  0  0  0  0  0  0  0
   40.6680   25.9020   44.4920 H   0  0  0  0  0  0  0  0  0  0  0  0
   39.4590   27.0610   43.2270 C   0  0  0  0  0  3  0  0  0  0  0  0
  1  2  1  0  0  0  0
  2  3  1  0  0  0  0
  3  4  2  0  0  0  0
  3 31  1  0  0  0  0
  4  9  1  0  0  0  0
  5  4  1  0  0  0  0
  5 11  1  0  0  0  0
  6  5  2  0  0  0  0
  7  6  1  0  0  0  0
  8  2  2  0  0  0  0
  8  6  1  0  0  0  0
 10  8  1  0  0  0  0
 11 12  2  0  0  0  0
 11 20  1  0  0  0  0
 12 13  1  0  0  0  0
 13 22  1  0  0  0  0
 13 14  2  0  0  0  0
 14 15  1  0  0  0  0
 15 16  2  0  0  0  0
 16 23  1  0  0  0  0
 17 16  1  0  0  0  0
 17 24  1  0  0  0  0
 18 17  2  0  0  0  0
 19 14  1  0  0  0  0
 19 18  1  0  0  0  0
 20 19  2  0  0  0  0
 21 12  1  0  0  0  0
 25 18  1  0  0  0  0
 26 20  1  0  0  0  0
 27 33  1  0  0  0  0
 27 28  1  0  0  0  0
 28 34  1  0  0  0  0
 29 28  2  0  0  0  0
 29 35  1  0  0  0  0
 30 29  1  0  0  0  0
 31 32  1  0  0  0  0
 31 30  2  0  0  0  0
 32 27  2  0  0  0  0
 35 43  1  0  0  0  0
 36 38  1  0  0  0  0
 36 35  2  0  0  0  0
 37 36  1  0  0  0  0
 38 39  2  0  0  0  0
 39 40  1  0  0  0  0
 39 41  1  0  0  0  0
 41 42  1  0  0  0  0
 43 41  2  0  0  0  0
M  END
>  <minimizedAffinity>
-7.40539265

$$$$

 OpenBabel03252506073D

 43 47  0  0  0  0  0  0  0  0999 V2000
   36.7560   26.1970   38.6800 Cl  0  0  0  0  0  0  0  0  0  0  0  0
   35.4130   27.1660   38.1540 C   0  0  0  0  0  0  0  0  0  0  0  0
   35.1530   28.3750   38.7740 C   0  0  0  0  0  0  0  0  0  0  0  0
   34.0660   29.0770   38.2890 C   0  0  0  0  0  0  0  0  0  0  0  0
   33.2580   28.6370   37.2500 C   0  0  0  0  0  0  0  0  0  0  0  0
   33.5510   27.4390   36.6670 C   0  0  0  0  0  0  0  0  0  0  0  0
   32.5010   26.9300   35.3590 Cl  0  0  0  0  0  0  0  0  0  0  0  0
   34.6180   26.7050   37.1100 C   0  0  0  0  0  0  0  0  0  0  0  0
   33.8630   30.0220   38.7760 H   0  0  0  0  0  0  0  0  0  0  0  0
   34.7900   25.7690   36.6040 H   0  0  0  0  0  0  0  0  0  0  0  0
   32.1460   29.5260   36.8760 C   0  0  0  0  0  0  0  0  0  0  0  0
   31.0950   29.7990   37.7120 C   0  0  0  0  0  0  0  0  0  0  0  0
   30.0430   30.6300   37.3780 C   0  0  0  0  0  0  0  0  0  0  0  0
   30.0270   31.2320   36.1380 C   0  0  0  0  0  0  0  0  0  0  0  0
   29.0000   32.0370   35.8270 N   0  0  0  0  0  0  0  0  0  0  0  0
   28.9110   32.6640   34.6340 C   0  0  0  0  0  0  0  0  0  0  0  0
   29.9450   32.4310   33.7350 C   0  0  0  0  0  0  0  0  0  0  0  0
   30.9930   31.6150   34.0420 C   0  0  0  0  0  0  0  0  0  0  0  0
   31.0580   30.9850   35.2780 C   0  0  0  0  0  0  0  0  0  0  0  0
   32.1040   30.1500   35.6240 C   0  0  0  0  0  0  0  0  0  0  0  0
   31.1270   29.3160   38.6810 H   0  0  0  0  0  0  0  0  0  0  0  0
   29.2310   30.8100   38.0870 H   0  0  0  0  0  0  0  0  0  0  0  0
   28.0670   33.3180   34.3920 H   0  0  0  0  0  0  0  0  0  0  0  0
   29.8330   32.9530   32.7920 H   0  0  0  0  0  0  0  0  0  0  0  0
   31.7820   31.4570   33.3160 H   0  0  0  0  0  0  0  0  0  0  0  0
   32.9040   29.9710   34.9280 H   0  0  0  0  0  0  0  0  0  0  0  0
   36.8580   28.5770   41.9840 C   0  0  0  0  0  0  0  0  0  0  0  0
   37.5040   29.8210   41.9260 C   0  0  0  0  0  0  0  0  0  0  0  0
   37.3500   30.6030   40.7640 C   0  0  0  0  0  0  0  0  0  0  0  0
   36.5820   30.0780   39.7930 N   0  0  0  0  0  0  0  0  0  0  0  0
   35.9650   28.8780   39.8620 C   0  0  0  0  0  0  0  0  0  0  0  0
   36.1020   28.1150   40.9650 N   0  0  0  0  0  0  0  0  0  0  0  0
   37.0100   28.0180   42.8960 H   0  0  0  0  0  0  0  0  0  0  0  0
   38.1040   30.2040   42.7150 H   0  0  0  0  0  0  0  0  0  0  0  0
   37.9620   31.9090   40.5750 C   0  0  0  0  0  0  0  0  0  0  0  0
   37.2060   32.8450   39.9040 C   0  0  0  0  0  0  0  0  0  0  0  0
   36.1970   32.6440   39.5260 H   0  0  0  0  0  0  0  0  0  0  0  0
   37.6810   34.1230   39.6640 C   0  0  0  0  0  3  0  0  0  0  0  0
   38.9560   34.4810   40.1070 C   0  0  0  0  0  0  0  0  0  0  0  0
   39.4230   35.4490   39.9720 H   0  0  0  0  0  0  0  0  0  0  0  0
   39.6560   33.4930   40.7700 C   0  0  0  0  0  0  0  0  0  0  0  0
   40.6640   33.7380   41.1330 H   0  0  0  0  0  0  0  0  0  0  0  0
   39.2250   32.2140   41.0310 C   0  0  0  0  0  3  0  0  0  0  0  0
  2  1  1  0  0  0  0
  2  3  1  0  0  0  0
  3 31  1  0  0  0  0
  4  3  2  0  0  0  0
  4  9  1  0  0  0  0
  5  4  1  0  0  0  0
  6  8  1  0  0  0  0
  6  5  2  0  0  0  0
  7  6  1  0  0  0  0
  8  2  2  0  0  0  0
 10  8  1  0  0  0  0
 11  5  1  0  0  0  0
 11 12  1  0  0  0  0
 12 21  1  0  0  0  0
 13 12  2  0  0  0  0
 13 22  1  0  0  0  0
 14 13  1  0  0  0  0
 15 14  1  0  0  0  0
 16 15  2  0  0  0  0
 17 18  2  0  0  0  0
 17 16  1  0  0  0  0
 18 19  1  0  0  0  0
 19 20  1  0  0  0  0
 19 14  2  0  0  0  0
 20 11  2  0  0  0  0
 23 16  1  0  0  0  0
 24 17  1  0  0  0  0
 25 18  1  0  0  0  0
 26 20  1  0  0  0  0
 27 33  1  0  0  0  0
 28 27  1  0  0  0  0
 28 34  1  0  0  0  0
 29 28  2  0  0  0  0
 30 31  2  0  0  0  0
 30 29  1  0  0  0  0
 31 32  1  0  0  0  0
 32 27  2  0  0  0  0
 35 29  1  0  0  0  0
 35 43  1  0  0  0  0
 36 35  2  0  0  0  0
 37 36  1  0  0  0  0
 38 36  1  0  0  0  0
 38 39  2  0  0  0  0
 39 41  1  0  0  0  0
 40 39  1  0  0  0  0
 41 43  2  0  0  0  0
 41 42  1  0  0  0  0
M  END
>  <minimizedAffinity>
-7.38626766

$$$$

 OpenBabel03252506073D

 43 47  0  0  0  0  0  0  0  0999 V2000
   40.0130   31.2410   42.8490 Cl  0  0  0  0  0  0  0  0  0  0  0  0
   39.0230   30.7710   41.5010 C   0  0  0  0  0  0  0  0  0  0  0  0
   38.7830   31.6710   40.4770 C   0  0  0  0  0  0  0  0  0  0  0  0
   37.9860   31.2090   39.4470 C   0  0  0  0  0  0  0  0  0  0  0  0
   37.4390   29.9340   39.3990 C   0  0  0  0  0  0  0  0  0  0  0  0
   37.7020   29.0800   40.4290 C   0  0  0  0  0  0  0  0  0  0  0  0
   36.9890   27.4820   40.3190 Cl  0  0  0  0  0  0  0  0  0  0  0  0
   38.4870   29.4880   41.4740 C   0  0  0  0  0  0  0  0  0  0  0  0
   37.7990   31.9140   38.6470 H   0  0  0  0  0  0  0  0  0  0  0  0
   38.6520   28.7610   42.2520 H   0  0  0  0  0  0  0  0  0  0  0  0
   36.6160   29.6290   38.2180 C   0  0  0  0  0  0  0  0  0  0  0  0
   37.1300   29.5530   36.9500 C   0  0  0  0  0  0  0  0  0  0  0  0
   36.3730   29.2680   35.8290 C   0  0  0  0  0  0  0  0  0  0  0  0
   35.0200   29.0420   35.9690 C   0  0  0  0  0  0  0  0  0  0  0  0
   34.2970   28.7660   34.8730 N   0  0  0  0  0  0  0  0  0  0  0  0
   32.9680   28.5320   34.9270 C   0  0  0  0  0  0  0  0  0  0  0  0
   32.3800   28.5940   36.1830 C   0  0  0  0  0  0  0  0  0  0  0  0
   33.1060   28.8730   37.3030 C   0  0  0  0  0  0  0  0  0  0  0  0
   34.4720   29.1080   37.2180 C   0  0  0  0  0  0  0  0  0  0  0  0
   35.2400   29.3950   38.3310 C   0  0  0  0  0  0  0  0  0  0  0  0
   38.1940   29.7330   36.8620 H   0  0  0  0  0  0  0  0  0  0  0  0
   36.8390   29.2210   34.8420 H   0  0  0  0  0  0  0  0  0  0  0  0
   32.3900   28.3080   34.0240 H   0  0  0  0  0  0  0  0  0  0  0  0
   31.3140   28.4000   36.1800 H   0  0  0  0  0  0  0  0  0  0  0  0
   32.6130   28.9120   38.2670 H   0  0  0  0  0  0  0  0  0  0  0  0
   34.7840   29.4430   39.3030 H   0  0  0  0  0  0  0  0  0  0  0  0
   38.9870   35.3010   40.3140 C   0  0  0  0  0  0  0  0  0  0  0  0
   40.3560   35.5540   40.4860 C   0  0  0  0  0  0  0  0  0  0  0  0
   41.2230   34.4560   40.6600 C   0  0  0  0  0  0  0  0  0  0  0  0
   40.6510   33.2400   40.6470 N   0  0  0  0  0  0  0  0  0  0  0  0
   39.3300   33.0110   40.4800 C   0  0  0  0  0  0  0  0  0  0  0  0
   38.4840   34.0470   40.3130 N   0  0  0  0  0  0  0  0  0  0  0  0
   38.3660   36.1770   40.1860 H   0  0  0  0  0  0  0  0  0  0  0  0
   40.7720   36.5310   40.4910 H   0  0  0  0  0  0  0  0  0  0  0  0
   42.6600   34.5780   40.8470 C   0  0  0  0  0  0  0  0  0  0  0  0
   43.0730   35.3140   41.9360 C   0  0  0  0  0  0  0  0  0  0  0  0
   42.3790   35.7900   42.6380 H   0  0  0  0  0  0  0  0  0  0  0  0
   44.4160   35.5000   42.2180 C   0  0  0  0  0  3  0  0  0  0  0  0
   45.3820   34.9330   41.3840 C   0  0  0  0  0  0  0  0  0  0  0  0
   46.4540   35.0160   41.5130 H   0  0  0  0  0  0  0  0  0  0  0  0
   44.8960   34.2100   40.3140 C   0  0  0  0  0  0  0  0  0  0  0  0
   45.6270   33.7490   39.6350 H   0  0  0  0  0  0  0  0  0  0  0  0
   43.5750   34.0000   39.9960 C   0  0  0  0  0  3  0  0  0  0  0  0
  2  1  1  0  0  0  0
  3 31  1  0  0  0  0
  3  2  2  0  0  0  0
  4  3  1  0  0  0  0
  5  4  2  0  0  0  0
  5  6  1  0  0  0  0
  6  8  2  0  0  0  0
  7  6  1  0  0  0  0
  8  2  1  0  0  0  0
  8 10  1  0  0  0  0
  9  4  1  0  0  0  0
 11 20  1  0  0  0  0
 11  5  1  0  0  0  0
 12 11  2  0  0  0  0
 13 14  2  0  0  0  0
 13 12  1  0  0  0  0
 14 19  1  0  0  0  0
 15 16  2  0  0  0  0
 15 14  1  0  0  0  0
 16 17  1  0  0  0  0
 17 18  2  0  0  0  0
 18 25  1  0  0  0  0
 19 18  1  0  0  0  0
 19 20  2  0  0  0  0
 20 26  1  0  0  0  0
 21 12  1  0  0  0  0
 22 13  1  0  0  0  0
 23 16  1  0  0  0  0
 24 17  1  0  0  0  0
 27 28  1  0  0  0  0
 28 34  1  0  0  0  0
 28 29  2  0  0  0  0
 29 35  1  0  0  0  0
 30 29  1  0  0  0  0
 31 30  2  0  0  0  0
 32 27  2  0  0  0  0
 32 31  1  0  0  0  0
 33 27  1  0  0  0  0
 35 36  1  0  0  0  0
 36 38  2  0  0  0  0
 36 37  1  0  0  0  0
 39 40  1  0  0  0  0
 39 38  1  0  0  0  0
 41 39  2  0  0  0  0
 42 41  1  0  0  0  0
 43 41  1  0  0  0  0
 43 35  2  0  0  0  0
M  END
>  <minimizedAffinity>
-7.2699132

$$$$

 OpenBabel03252506073D

 43 47  0  0  0  0  0  0  0  0999 V2000
   39.6670   30.7530   42.9190 Cl  0  0  0  0  0  0  0  0  0  0  0  0
   39.2410   29.1670   42.3540 C   0  0  0  0  0  0  0  0  0  0  0  0
   38.5120   29.0260   41.1870 C   0  0  0  0  0  0  0  0  0  0  0  0
   38.2200   27.7270   40.8150 C   0  0  0  0  0  0  0  0  0  0  0  0
   38.6120   26.6060   41.5340 C   0  0  0  0  0  0  0  0  0  0  0  0
   39.3310   26.7910   42.6780 C   0  0  0  0  0  0  0  0  0  0  0  0
   39.8030   25.3440   43.5470 Cl  0  0  0  0  0  0  0  0  0  0  0  0
   39.6470   28.0590   43.0900 C   0  0  0  0  0  0  0  0  0  0  0  0
   37.6490   27.6180   39.9020 H   0  0  0  0  0  0  0  0  0  0  0  0
   40.2150   28.1290   44.0030 H   0  0  0  0  0  0  0  0  0  0  0  0
   38.2050   25.3060   40.9760 C   0  0  0  0  0  0  0  0  0  0  0  0
   36.9880   24.7320   41.2340 C   0  0  0  0  0  0  0  0  0  0  0  0
   36.5890   23.5120   40.7200 C   0  0  0  0  0  0  0  0  0  0  0  0
   37.4470   22.8150   39.8960 C   0  0  0  0  0  0  0  0  0  0  0  0
   37.0460   21.6330   39.4030 N   0  0  0  0  0  0  0  0  0  0  0  0
   37.8270   20.8900   38.5900 C   0  0  0  0  0  0  0  0  0  0  0  0
   39.0770   21.4130   38.2860 C   0  0  0  0  0  0  0  0  0  0  0  0
   39.4930   22.6130   38.7810 C   0  0  0  0  0  0  0  0  0  0  0  0
   38.6680   23.3560   39.6150 C   0  0  0  0  0  0  0  0  0  0  0  0
   39.0550   24.5770   40.1370 C   0  0  0  0  0  0  0  0  0  0  0  0
   36.3300   25.2960   41.8830 H   0  0  0  0  0  0  0  0  0  0  0  0
   35.6040   23.1040   40.9610 H   0  0  0  0  0  0  0  0  0  0  0  0
   37.4880   19.9270   38.1940 H   0  0  0  0  0  0  0  0  0  0  0  0
   39.6690   20.7840   37.6310 H   0  0  0  0  0  0  0  0  0  0  0  0
   40.4750   22.9910   38.5220 H   0  0  0  0  0  0  0  0  0  0  0  0
   40.0240   24.9810   39.9010 H   0  0  0  0  0  0  0  0  0  0  0  0
   36.5540   31.0910   38.9180 C   0  0  0  0  0  0  0  0  0  0  0  0
   37.2480   32.3090   38.9130 C   0  0  0  0  0  0  0  0  0  0  0  0
   38.4100   32.4220   39.7030 C   0  0  0  0  0  0  0  0  0  0  0  0
   38.7570   31.3300   40.4060 N   0  0  0  0  0  0  0  0  0  0  0  0
   38.0790   30.1620   40.4020 C   0  0  0  0  0  0  0  0  0  0  0  0
   36.9640   30.0350   39.6530 N   0  0  0  0  0  0  0  0  0  0  0  0
   35.6700   31.0580   38.2960 H   0  0  0  0  0  0  0  0  0  0  0  0
   36.9430   33.1520   38.3430 H   0  0  0  0  0  0  0  0  0  0  0  0
   39.2230   33.6250   39.7880 C   0  0  0  0  0  0  0  0  0  0  0  0
   40.5060   33.5290   39.2960 C   0  0  0  0  0  0  0  0  0  0  0  0
   40.9160   32.6110   38.8610 H   0  0  0  0  0  0  0  0  0  0  0  0
   41.3740   34.6080   39.3220 C   0  0  0  0  0  3  0  0  0  0  0  0
   40.9480   35.8250   39.8570 C   0  0  0  0  0  0  0  0  0  0  0  0
   41.5430   36.7280   39.9250 H   0  0  0  0  0  0  0  0  0  0  0  0
   39.6520   35.8480   40.3300 C   0  0  0  0  0  0  0  0  0  0  0  0
   39.2810   36.7890   40.7580 H   0  0  0  0  0  0  0  0  0  0  0  0
   38.7570   34.8040   40.3240 C   0  0  0  0  0  3  0  0  0  0  0  0
  2  1  1  0  0  0  0
  2  8  1  0  0  0  0
  3  2  2  0  0  0  0
  4  3  1  0  0  0  0
  4  5  2  0  0  0  0
  5  6  1  0  0  0  0
  6  8  2  0  0  0  0
  6  7  1  0  0  0  0
  8 10  1  0  0  0  0
  9  4  1  0  0  0  0
 11 12  1  0  0  0  0
 11  5  1  0  0  0  0
 12 21  1  0  0  0  0
 13 22  1  0  0  0  0
 13 12  2  0  0  0  0
 14 13  1  0  0  0  0
 15 14  2  0  0  0  0
 16 15  1  0  0  0  0
 17 16  2  0  0  0  0
 17 18  1  0  0  0  0
 18 19  2  0  0  0  0
 19 14  1  0  0  0  0
 19 20  1  0  0  0  0
 20 11  2  0  0  0  0
 23 16  1  0  0  0  0
 24 17  1  0  0  0  0
 25 18  1  0  0  0  0
 26 20  1  0  0  0  0
 27 32  1  0  0  0  0
 28 27  2  0  0  0  0
 28 29  1  0  0  0  0
 29 35  1  0  0  0  0
 29 30  2  0  0  0  0
 31 30  1  0  0  0  0
 31  3  1  0  0  0  0
 32 31  2  0  0  0  0
 33 27  1  0  0  0  0
 34 28  1  0  0  0  0
 35 43  1  0  0  0  0
 36 38  1  0  0  0  0
 36 35  2  0  0  0  0
 37 36  1  0  0  0  0
 38 39  2  0  0  0  0
 39 40  1  0  0  0  0
 39 41  1  0  0  0  0
 41 42  1  0  0  0  0
 43 41  2  0  0  0  0
M  END
>  <minimizedAffinity>
-7.18857908

$$$$

 OpenBabel03252506073D

 43 47  0  0  0  0  0  0  0  0999 V2000
   38.2460   34.6930   39.5560 Cl  0  0  0  0  0  0  0  0  0  0  0  0
   38.3560   32.9940   39.9000 C   0  0  0  0  0  0  0  0  0  0  0  0
   39.5700   32.3430   39.7690 C   0  0  0  0  0  0  0  0  0  0  0  0
   39.5610   30.9930   40.0650 C   0  0  0  0  0  0  0  0  0  0  0  0
   38.4330   30.2930   40.4690 C   0  0  0  0  0  0  0  0  0  0  0  0
   37.2570   30.9750   40.5850 C   0  0  0  0  0  0  0  0  0  0  0  0
   35.8630   30.0460   41.1010 Cl  0  0  0  0  0  0  0  0  0  0  0  0
   37.2120   32.3150   40.3050 C   0  0  0  0  0  0  0  0  0  0  0  0
   40.5110   30.4850   39.9620 H   0  0  0  0  0  0  0  0  0  0  0  0
   36.2500   32.7880   40.4170 H   0  0  0  0  0  0  0  0  0  0  0  0
   38.6240   28.8590   40.7380 C   0  0  0  0  0  0  0  0  0  0  0  0
   38.3990   27.8880   39.7980 C   0  0  0  0  0  0  0  0  0  0  0  0
   38.5730   26.5360   40.0310 C   0  0  0  0  0  0  0  0  0  0  0  0
   38.9980   26.1170   41.2740 C   0  0  0  0  0  0  0  0  0  0  0  0
   39.1630   24.8020   41.4870 N   0  0  0  0  0  0  0  0  0  0  0  0
   39.5770   24.3120   42.6750 C   0  0  0  0  0  0  0  0  0  0  0  0
   39.8240   25.2420   43.6760 C   0  0  0  0  0  0  0  0  0  0  0  0
   39.6600   26.5800   43.4700 C   0  0  0  0  0  0  0  0  0  0  0  0
   39.2330   27.0560   42.2360 C   0  0  0  0  0  0  0  0  0  0  0  0
   39.0550   28.4050   41.9890 C   0  0  0  0  0  0  0  0  0  0  0  0
   38.0660   28.2380   38.8290 H   0  0  0  0  0  0  0  0  0  0  0  0
   38.3770   25.8070   39.2420 H   0  0  0  0  0  0  0  0  0  0  0  0
   39.7070   23.2370   42.8360 H   0  0  0  0  0  0  0  0  0  0  0  0
   40.1530   24.8050   44.6110 H   0  0  0  0  0  0  0  0  0  0  0  0
   39.8620   27.2770   44.2730 H   0  0  0  0  0  0  0  0  0  0  0  0
   39.2470   29.1250   42.7650 H   0  0  0  0  0  0  0  0  0  0  0  0
   42.1410   33.7810   37.6320 C   0  0  0  0  0  0  0  0  0  0  0  0
   43.0530   34.3240   38.5480 C   0  0  0  0  0  0  0  0  0  0  0  0
   42.7800   34.1920   39.9250 C   0  0  0  0  0  0  0  0  0  0  0  0
   41.6450   33.5460   40.2450 N   0  0  0  0  0  0  0  0  0  0  0  0
   40.7750   33.0270   39.3510 C   0  0  0  0  0  0  0  0  0  0  0  0
   41.0190   33.1440   38.0300 N   0  0  0  0  0  0  0  0  0  0  0  0
   42.3980   33.9100   36.5900 H   0  0  0  0  0  0  0  0  0  0  0  0
   43.9420   34.8290   38.2580 H   0  0  0  0  0  0  0  0  0  0  0  0
   43.6400   34.7070   40.9780 C   0  0  0  0  0  0  0  0  0  0  0  0
   43.0070   35.3200   42.0370 C   0  0  0  0  0  0  0  0  0  0  0  0
   41.9190   35.4260   42.1080 H   0  0  0  0  0  0  0  0  0  0  0  0
   43.7200   35.8480   43.1000 C   0  0  0  0  0  3  0  0  0  0  0  0
   45.1140   35.7640   43.1070 C   0  0  0  0  0  0  0  0  0  0  0  0
   45.7650   36.1430   43.8850 H   0  0  0  0  0  0  0  0  0  0  0  0
   45.6800   35.1380   42.0150 C   0  0  0  0  0  0  0  0  0  0  0  0
   46.7740   35.0530   41.9860 H   0  0  0  0  0  0  0  0  0  0  0  0
   45.0120   34.6000   40.9400 C   0  0  0  0  0  3  0  0  0  0  0  0
  1  2  1  0  0  0  0
  2  8  1  0  0  0  0
  3  2  2  0  0  0  0
  3  4  1  0  0  0  0
  4  5  2  0  0  0  0
  5  6  1  0  0  0  0
  5 11  1  0  0  0  0
  6  7  1  0  0  0  0
  8 10  1  0  0  0  0
  8  6  2  0  0  0  0
  9  4  1  0  0  0  0
 11 20  1  0  0  0  0
 12 13  1  0  0  0  0
 12 11  2  0  0  0  0
 13 14  2  0  0  0  0
 14 15  1  0  0  0  0
 14 19  1  0  0  0  0
 15 16  2  0  0  0  0
 16 23  1  0  0  0  0
 16 17  1  0  0  0  0
 17 24  1  0  0  0  0
 18 17  2  0  0  0  0
 18 25  1  0  0  0  0
 19 18  1  0  0  0  0
 20 19  2  0  0  0  0
 20 26  1  0  0  0  0
 21 12  1  0  0  0  0
 22 13  1  0  0  0  0
 27 32  2  0  0  0  0
 27 28  1  0  0  0  0
 28 29  2  0  0  0  0
 29 30  1  0  0  0  0
 29 35  1  0  0  0  0
 31  3  1  0  0  0  0
 31 30  2  0  0  0  0
 32 31  1  0  0  0  0
 33 27  1  0  0  0  0
 34 28  1  0  0  0  0
 35 36  1  0  0  0  0
 36 37  1  0  0  0  0
 36 38  2  0  0  0  0
 38 39  1  0  0  0  0
 39 40  1  0  0  0  0
 41 39  2  0  0  0  0
 42 41  1  0  0  0  0
 43 35  2  0  0  0  0
 43 41  1  0  0  0  0
M  END
>  <minimizedAffinity>
-7.07206726

$$$$

 OpenBabel03252506073D

 43 47  0  0  0  0  0  0  0  0999 V2000
   39.3530   35.0090   39.9220 Cl  0  0  0  0  0  0  0  0  0  0  0  0
   39.1350   33.3450   40.3700 C   0  0  0  0  0  0  0  0  0  0  0  0
   40.2390   32.5460   40.6040 C   0  0  0  0  0  0  0  0  0  0  0  0
   39.9690   31.2370   40.9560 C   0  0  0  0  0  0  0  0  0  0  0  0
   38.6890   30.7140   41.0780 C   0  0  0  0  0  0  0  0  0  0  0  0
   37.6290   31.5370   40.8390 C   0  0  0  0  0  0  0  0  0  0  0  0
   36.0350   30.8290   41.0090 Cl  0  0  0  0  0  0  0  0  0  0  0  0
   37.8430   32.8440   40.4880 C   0  0  0  0  0  0  0  0  0  0  0  0
   40.8340   30.6120   41.1380 H   0  0  0  0  0  0  0  0  0  0  0  0
   36.9590   33.4360   40.3130 H   0  0  0  0  0  0  0  0  0  0  0  0
   38.6050   29.2950   41.4620 C   0  0  0  0  0  0  0  0  0  0  0  0
   38.6820   28.8690   42.7620 C   0  0  0  0  0  0  0  0  0  0  0  0
   38.6050   27.5420   43.1420 C   0  0  0  0  0  0  0  0  0  0  0  0
   38.4430   26.5730   42.1750 C   0  0  0  0  0  0  0  0  0  0  0  0
   38.3700   25.2890   42.5580 N   0  0  0  0  0  0  0  0  0  0  0  0
   38.2100   24.2810   41.6730 C   0  0  0  0  0  0  0  0  0  0  0  0
   38.1260   24.6420   40.3340 C   0  0  0  0  0  0  0  0  0  0  0  0
   38.1980   25.9440   39.9350 C   0  0  0  0  0  0  0  0  0  0  0  0
   38.3620   26.9590   40.8690 C   0  0  0  0  0  0  0  0  0  0  0  0
   38.4400   28.2900   40.5020 C   0  0  0  0  0  0  0  0  0  0  0  0
   38.8090   29.6460   43.5050 H   0  0  0  0  0  0  0  0  0  0  0  0
   38.6730   27.2620   44.1960 H   0  0  0  0  0  0  0  0  0  0  0  0
   38.1520   23.2370   41.9980 H   0  0  0  0  0  0  0  0  0  0  0  0
   37.9980   23.8030   39.6600 H   0  0  0  0  0  0  0  0  0  0  0  0
   38.1280   26.1880   38.8830 H   0  0  0  0  0  0  0  0  0  0  0  0
   38.3740   28.5690   39.4660 H   0  0  0  0  0  0  0  0  0  0  0  0
   43.4190   33.5580   39.1500 C   0  0  0  0  0  0  0  0  0  0  0  0
   44.1580   33.9860   40.2620 C   0  0  0  0  0  0  0  0  0  0  0  0
   43.5530   33.9250   41.5330 C   0  0  0  0  0  0  0  0  0  0  0  0
   42.2950   33.4520   41.5700 N   0  0  0  0  0  0  0  0  0  0  0  0
   41.5940   33.0430   40.4900 C   0  0  0  0  0  0  0  0  0  0  0  0
   42.1550   33.0950   39.2650 N   0  0  0  0  0  0  0  0  0  0  0  0
   43.9290   33.6270   38.1990 H   0  0  0  0  0  0  0  0  0  0  0  0
   45.1520   34.3540   40.1950 H   0  0  0  0  0  0  0  0  0  0  0  0
   44.2070   34.3350   42.7660 C   0  0  0  0  0  0  0  0  0  0  0  0
   44.8890   33.3520   43.4500 C   0  0  0  0  0  0  0  0  0  0  0  0
   44.9510   32.3130   43.1070 H   0  0  0  0  0  0  0  0  0  0  0  0
   45.5510   33.6210   44.6360 C   0  0  0  0  0  3  0  0  0  0  0  0
   45.5330   34.9160   45.1590 C   0  0  0  0  0  0  0  0  0  0  0  0
   46.0160   35.2330   46.0750 H   0  0  0  0  0  0  0  0  0  0  0  0
   44.8320   35.8480   44.4210 C   0  0  0  0  0  0  0  0  0  0  0  0
   44.7950   36.8770   44.8020 H   0  0  0  0  0  0  0  0  0  0  0  0
   44.1610   35.6250   43.2420 C   0  0  0  0  0  3  0  0  0  0  0  0
  1  2  1  0  0  0  0
  2  8  2  0  0  0  0
  2  3  1  0  0  0  0
  3  4  2  0  0  0  0
  4  5  1  0  0  0  0
  4  9  1  0  0  0  0
  5 11  1  0  0  0  0
  6  7  1  0  0  0  0
  6  5  2  0  0  0  0
  8  6  1  0  0  0  0
 10  8  1  0  0  0  0
 11 12  1  0  0  0  0
 12 13  2  0  0  0  0
 12 21  1  0  0  0  0
 13 22  1  0  0  0  0
 14 15  1  0  0  0  0
 14 13  1  0  0  0  0
 16 23  1  0  0  0  0
 16 15  2  0  0  0  0
 17 16  1  0  0  0  0
 18 17  2  0  0  0  0
 18 19  1  0  0  0  0
 19 14  2  0  0  0  0
 20 19  1  0  0  0  0
 20 11  2  0  0  0  0
 24 17  1  0  0  0  0
 25 18  1  0  0  0  0
 26 20  1  0  0  0  0
 27 32  2  0  0  0  0
 27 28  1  0  0  0  0
 28 29  2  0  0  0  0
 29 30  1  0  0  0  0
 29 35  1  0  0  0  0
 31  3  1  0  0  0  0
 31 30  2  0  0  0  0
 32 31  1  0  0  0  0
 33 27  1  0  0  0  0
 34 28  1  0  0  0  0
 35 43  2  0  0  0  0
 35 36  1  0  0  0  0
 36 38  2  0  0  0  0
 37 36  1  0  0  0  0
 38 39  1  0  0  0  0
 39 40  1  0  0  0  0
 41 42  1  0  0  0  0
 41 39  2  0  0  0  0
 43 41  1  0  0  0  0
M  END
>  <minimizedAffinity>
-6.99191904

$$$$

 OpenBabel03252506073D

 43 47  0  0  0  0  0  0  0  0999 V2000
   37.0200   34.0980   39.2720 Cl  0  0  0  0  0  0  0  0  0  0  0  0
   37.4170   32.5750   40.0060 C   0  0  0  0  0  0  0  0  0  0  0  0
   38.6810   32.3750   40.5310 C   0  0  0  0  0  0  0  0  0  0  0  0
   38.9070   31.1330   41.0960 C   0  0  0  0  0  0  0  0  0  0  0  0
   37.9570   30.1220   41.1540 C   0  0  0  0  0  0  0  0  0  0  0  0
   36.7240   30.3630   40.6240 C   0  0  0  0  0  0  0  0  0  0  0  0
   35.5620   29.0560   40.7250 Cl  0  0  0  0  0  0  0  0  0  0  0  0
   36.4500   31.5780   40.0540 C   0  0  0  0  0  0  0  0  0  0  0  0
   39.8960   30.9770   41.5060 H   0  0  0  0  0  0  0  0  0  0  0  0
   35.4550   31.6970   39.6550 H   0  0  0  0  0  0  0  0  0  0  0  0
   38.3870   28.8690   41.7950 C   0  0  0  0  0  0  0  0  0  0  0  0
   38.6410   28.7670   43.1380 C   0  0  0  0  0  0  0  0  0  0  0  0
   39.0460   27.5990   43.7580 C   0  0  0  0  0  0  0  0  0  0  0  0
   39.2090   26.4580   43.0020 C   0  0  0  0  0  0  0  0  0  0  0  0
   39.6020   25.3310   43.6170 N   0  0  0  0  0  0  0  0  0  0  0  0
   39.7840   24.1720   42.9480 C   0  0  0  0  0  0  0  0  0  0  0  0
   39.5440   24.2030   41.5800 C   0  0  0  0  0  0  0  0  0  0  0  0
   39.1440   25.3420   40.9470 C   0  0  0  0  0  0  0  0  0  0  0  0
   38.9640   26.5200   41.6610 C   0  0  0  0  0  0  0  0  0  0  0  0
   38.5610   27.6950   41.0530 C   0  0  0  0  0  0  0  0  0  0  0  0
   38.5070   29.6750   43.7120 H   0  0  0  0  0  0  0  0  0  0  0  0
   39.2340   27.5790   44.8340 H   0  0  0  0  0  0  0  0  0  0  0  0
   40.1050   23.2600   43.4610 H   0  0  0  0  0  0  0  0  0  0  0  0
   39.7020   23.2530   41.0850 H   0  0  0  0  0  0  0  0  0  0  0  0
   38.9660   25.3300   39.8790 H   0  0  0  0  0  0  0  0  0  0  0  0
   38.3750   27.7180   39.9940 H   0  0  0  0  0  0  0  0  0  0  0  0
   40.3130   35.5930   40.0540 C   0  0  0  0  0  0  0  0  0  0  0  0
   41.6400   35.3390   40.4290 C   0  0  0  0  0  0  0  0  0  0  0  0
   41.9790   34.0380   40.8520 C   0  0  0  0  0  0  0  0  0  0  0  0
   40.9820   33.1370   40.8600 N   0  0  0  0  0  0  0  0  0  0  0  0
   39.7070   33.3960   40.4960 C   0  0  0  0  0  0  0  0  0  0  0  0
   39.3620   34.6350   40.0890 N   0  0  0  0  0  0  0  0  0  0  0  0
   40.1060   36.6060   39.7380 H   0  0  0  0  0  0  0  0  0  0  0  0
   42.4030   36.0770   40.4090 H   0  0  0  0  0  0  0  0  0  0  0  0
   43.3160   33.6400   41.2660 C   0  0  0  0  0  0  0  0  0  0  0  0
   44.1820   34.6610   41.5920 C   0  0  0  0  0  0  0  0  0  0  0  0
   43.9050   35.7210   41.5510 H   0  0  0  0  0  0  0  0  0  0  0  0
   45.4800   34.4070   41.9990 C   0  0  0  0  0  3  0  0  0  0  0  0
   45.9320   33.0890   42.0860 C   0  0  0  0  0  0  0  0  0  0  0  0
   46.9240   32.7810   42.3920 H   0  0  0  0  0  0  0  0  0  0  0  0
   45.0120   32.1190   41.7440 C   0  0  0  0  0  0  0  0  0  0  0  0
   45.3320   31.0700   41.8000 H   0  0  0  0  0  0  0  0  0  0  0  0
   43.7150   32.3250   41.3350 C   0  0  0  0  0  3  0  0  0  0  0  0
  1  2  1  0  0  0  0
  2  8  2  0  0  0  0
  2  3  1  0  0  0  0
  3  4  2  0  0  0  0
  4  5  1  0  0  0  0
  4  9  1  0  0  0  0
  5 11  1  0  0  0  0
  6  7  1  0  0  0  0
  6  5  2  0  0  0  0
  8  6  1  0  0  0  0
 10  8  1  0  0  0  0
 11 12  1  0  0  0  0
 12 21  1  0  0  0  0
 12 13  2  0  0  0  0
 13 22  1  0  0  0  0
 14 15  1  0  0  0  0
 14 13  1  0  0  0  0
 16 23  1  0  0  0  0
 16 15  2  0  0  0  0
 17 16  1  0  0  0  0
 18 17  2  0  0  0  0
 18 19  1  0  0  0  0
 19 14  2  0  0  0  0
 20 19  1  0  0  0  0
 20 11  2  0  0  0  0
 24 17  1  0  0  0  0
 25 18  1  0  0  0  0
 26 20  1  0  0  0  0
 27 32  2  0  0  0  0
 27 28  1  0  0  0  0
 28 29  2  0  0  0  0
 29 30  1  0  0  0  0
 29 35  1  0  0  0  0
 31  3  1  0  0  0  0
 31 30  2  0  0  0  0
 32 31  1  0  0  0  0
 33 27  1  0  0  0  0
 34 28  1  0  0  0  0
 35 43  2  0  0  0  0
 35 36  1  0  0  0  0
 36 38  2  0  0  0  0
 37 36  1  0  0  0  0
 38 39  1  0  0  0  0
 39 40  1  0  0  0  0
 41 42  1  0  0  0  0
 41 39  2  0  0  0  0
 43 41  1  0  0  0  0
M  END
>  <minimizedAffinity>
-6.94548893

$$$$

 OpenBabel03252506073D

 43 47  0  0  0  0  0  0  0  0999 V2000
   37.0080   34.0380   39.1770 Cl  0  0  0  0  0  0  0  0  0  0  0  0
   37.4030   32.5240   39.9320 C   0  0  0  0  0  0  0  0  0  0  0  0
   38.6990   32.2840   40.3520 C   0  0  0  0  0  0  0  0  0  0  0  0
   38.9210   31.0540   40.9420 C   0  0  0  0  0  0  0  0  0  0  0  0
   37.9370   30.0900   41.1220 C   0  0  0  0  0  0  0  0  0  0  0  0
   36.6730   30.3700   40.6930 C   0  0  0  0  0  0  0  0  0  0  0  0
   35.4690   29.1220   40.9460 Cl  0  0  0  0  0  0  0  0  0  0  0  0
   36.4020   31.5750   40.1030 C   0  0  0  0  0  0  0  0  0  0  0  0
   39.9350   30.8660   41.2690 H   0  0  0  0  0  0  0  0  0  0  0  0
   35.3820   31.7270   39.7890 H   0  0  0  0  0  0  0  0  0  0  0  0
   38.3680   28.8420   41.7700 C   0  0  0  0  0  0  0  0  0  0  0  0
   38.6150   28.7460   43.1150 C   0  0  0  0  0  0  0  0  0  0  0  0
   39.0200   27.5830   43.7420 C   0  0  0  0  0  0  0  0  0  0  0  0
   39.1920   26.4390   42.9930 C   0  0  0  0  0  0  0  0  0  0  0  0
   39.5860   25.3160   43.6140 N   0  0  0  0  0  0  0  0  0  0  0  0
   39.7760   24.1550   42.9510 C   0  0  0  0  0  0  0  0  0  0  0  0
   39.5440   24.1790   41.5820 C   0  0  0  0  0  0  0  0  0  0  0  0
   39.1430   25.3140   40.9410 C   0  0  0  0  0  0  0  0  0  0  0  0
   38.9550   26.4950   41.6500 C   0  0  0  0  0  0  0  0  0  0  0  0
   38.5510   27.6650   41.0350 C   0  0  0  0  0  0  0  0  0  0  0  0
   38.4740   29.6560   43.6850 H   0  0  0  0  0  0  0  0  0  0  0  0
   39.2020   27.5680   44.8190 H   0  0  0  0  0  0  0  0  0  0  0  0
   40.0970   23.2460   43.4700 H   0  0  0  0  0  0  0  0  0  0  0  0
   39.7080   23.2270   41.0910 H   0  0  0  0  0  0  0  0  0  0  0  0
   38.9710   25.2960   39.8720 H   0  0  0  0  0  0  0  0  0  0  0  0
   38.3710   27.6830   39.9750 H   0  0  0  0  0  0  0  0  0  0  0  0
   40.5840   35.3890   40.5820 C   0  0  0  0  0  0  0  0  0  0  0  0
   41.7660   35.1000   39.8840 C   0  0  0  0  0  0  0  0  0  0  0  0
   41.9160   33.8150   39.3240 C   0  0  0  0  0  0  0  0  0  0  0  0
   40.8940   32.9620   39.5120 N   0  0  0  0  0  0  0  0  0  0  0  0
   39.7600   33.2550   40.1870 C   0  0  0  0  0  0  0  0  0  0  0  0
   39.5990   34.4780   40.7310 N   0  0  0  0  0  0  0  0  0  0  0  0
   40.5200   36.3870   40.9920 H   0  0  0  0  0  0  0  0  0  0  0  0
   42.5530   35.8010   39.7550 H   0  0  0  0  0  0  0  0  0  0  0  0
   43.0870   33.3860   38.5760 C   0  0  0  0  0  0  0  0  0  0  0  0
   42.9180   32.2930   37.7550 C   0  0  0  0  0  0  0  0  0  0  0  0
   41.9670   31.7590   37.6510 H   0  0  0  0  0  0  0  0  0  0  0  0
   43.9600   31.7910   36.9940 C   0  0  0  0  0  3  0  0  0  0  0  0
   45.2160   32.4000   37.0530 C   0  0  0  0  0  0  0  0  0  0  0  0
   46.0950   32.0900   36.5020 H   0  0  0  0  0  0  0  0  0  0  0  0
   45.3110   33.4890   37.8960 C   0  0  0  0  0  0  0  0  0  0  0  0
   46.2840   33.9940   37.9690 H   0  0  0  0  0  0  0  0  0  0  0  0
   44.3050   34.0200   38.6690 C   0  0  0  0  0  3  0  0  0  0  0  0
  1  2  1  0  0  0  0
  2  8  2  0  0  0  0
  2  3  1  0  0  0  0
  3  4  2  0  0  0  0
  4  5  1  0  0  0  0
  4  9  1  0  0  0  0
  5 11  1  0  0  0  0
  6  7  1  0  0  0  0
  6  5  2  0  0  0  0
  8  6  1  0  0  0  0
 10  8  1  0  0  0  0
 11 12  1  0  0  0  0
 12 21  1  0  0  0  0
 12 13  2  0  0  0  0
 13 22  1  0  0  0  0
 14 15  1  0  0  0  0
 14 13  1  0  0  0  0
 16 23  1  0  0  0  0
 16 15  2  0  0  0  0
 17 16  1  0  0  0  0
 18 17  2  0  0  0  0
 18 19  1  0  0  0  0
 19 14  2  0  0  0  0
 20 19  1  0  0  0  0
 20 11  2  0  0  0  0
 24 17  1  0  0  0  0
 25 18  1  0  0  0  0
 26 20  1  0  0  0  0
 27 32  1  0  0  0  0
 27 33  1  0  0  0  0
 28 27  2  0  0  0  0
 29 30  2  0  0  0  0
 29 28  1  0  0  0  0
 30 31  1  0  0  0  0
 31  3  1  0  0  0  0
 31 32  2  0  0  0  0
 34 28  1  0  0  0  0
 35 43  1  0  0  0  0
 35 29  1  0  0  0  0
 36 35  2  0  0  0  0
 37 36  1  0  0  0  0
 38 39  2  0  0  0  0
 38 36  1  0  0  0  0
 39 41  1  0  0  0  0
 40 39  1  0  0  0  0
 41 42  1  0  0  0  0
 41 43  2  0  0  0  0
M  END
>  <minimizedAffinity>
-6.91424847

$$$$
