
 OpenBabel03252507143D

 42 44  0  0  1  0  0  0  0  0999 V2000
   37.1560   27.0930   41.0530 C   0  0  2  0  0  0  0  0  0  0  0  0
   36.6250   26.2170   39.9810 C   0  0  0  0  0  0  0  0  0  0  0  0
   37.3120   24.8800   40.0460 C   0  0  0  0  0  0  0  0  0  0  0  0
   36.9330   24.1540   41.1720 O   0  0  0  0  0  0  0  0  0  0  0  0
   36.6040   24.9910   42.2160 C   0  0  0  0  0  0  0  0  0  0  0  0
   37.4860   26.2260   42.2340 C   0  0  1  0  0  0  0  0  0  0  0  0
   38.1010   27.5510   40.6570 H   0  0  0  0  0  0  0  0  0  0  0  0
   35.5340   26.0100   40.0700 H   0  0  0  0  0  0  0  0  0  0  0  0
   36.7530   26.6470   38.9590 H   0  0  0  0  0  0  0  0  0  0  0  0
   37.0100   24.2680   39.1220 H   0  0  0  0  0  0  0  0  0  0  0  0
   38.3930   24.9520   39.9380 H   0  0  0  0  0  0  0  0  0  0  0  0
   36.5970   24.4470   43.1740 H   0  0  0  0  0  0  0  0  0  0  0  0
   35.5440   25.3160   42.0540 H   0  0  0  0  0  0  0  0  0  0  0  0
   37.0310   26.7920   43.1340 H   0  0  0  0  0  0  0  0  0  0  0  0
   38.8290   25.9640   42.6340 C   0  0  0  0  0  0  0  0  0  0  0  0
   39.3390   27.1540   43.1980 C   0  0  0  0  0  0  0  0  0  0  0  0
   38.8630   28.1380   43.3530 H   0  0  0  0  0  0  0  0  0  0  0  0
   40.6560   27.2290   43.6790 C   0  0  0  0  0  3  0  0  0  0  0  0
   41.4780   26.1290   43.6070 C   0  0  0  0  0  0  0  0  0  0  0  0
   42.5030   26.1390   43.9660 H   0  0  0  0  0  0  0  0  0  0  0  0
   41.0260   24.9640   43.0700 C   0  0  0  0  0  0  0  0  0  0  0  0
   41.5870   24.0650   42.9730 H   0  0  0  0  0  0  0  0  0  0  0  0
   39.7380   24.9290   42.6120 C   0  0  0  0  0  3  0  0  0  0  0  0
   36.3740   28.1370   41.3980 O   0  0  0  0  0  0  0  0  0  0  0  0
   38.0750   30.1100   41.7280 O   0  0  0  0  0  0  0  0  0  0  0  0
   36.8670   29.6630   41.0020 P   0  0  2  0  0  0  0  0  0  0  0  0
   35.6150   30.7440   41.4030 O   0  0  0  0  0  0  0  0  0  0  0  0
   35.5310   30.7110   42.3960 H   0  0  0  0  0  0  0  0  0  0  0  0
   37.1060   29.7890   39.2990 O   0  0  0  0  0  0  0  0  0  0  0  0
   38.4150   31.4620   38.2730 C   0  0  0  0  0  0  0  0  0  0  0  0
   38.3190   30.1820   38.7680 C   0  0  0  0  0  0  0  0  0  0  0  0
   39.4540   29.3330   38.7130 C   0  0  0  0  0  0  0  0  0  0  0  0
   40.5790   29.8420   38.1680 N   0  0  0  0  0  0  0  0  0  0  0  0
   40.6380   31.0870   37.6970 C   0  0  0  0  0  0  0  0  0  0  0  0
   39.5430   31.8860   37.7570 N   0  0  0  0  0  0  0  0  0  0  0  0
   37.2090   33.3860   39.2870 C   0  0  0  0  0  0  0  0  0  0  0  0
   37.5050   33.0540   40.4820 O   0  0  0  0  0  0  0  0  0  0  0  0
   37.6290   32.6300   38.0980 N   0  0  0  0  0  0  0  0  0  0  0  0
   39.3600   28.3450   39.1020 H   0  0  0  0  0  0  0  0  0  0  0  0
   41.5050   31.5630   37.2470 H   0  0  0  0  0  0  0  0  0  0  0  0
   36.6150   34.2870   39.2440 H   0  0  0  0  0  0  0  0  0  0  0  0
   37.2870   33.0470   37.2290 H   0  0  0  0  0  0  0  0  0  0  0  0
  1  7  1  6  0  0  0
  1 24  1  0  0  0  0
  1  6  1  0  0  0  0
  2  3  1  0  0  0  0
  2  8  1  0  0  0  0
  2  1  1  0  0  0  0
  3  4  1  0  0  0  0
  4  5  1  0  0  0  0
  5  6  1  0  0  0  0
  5 12  1  0  0  0  0
  6 15  1  0  0  0  0
  6 14  1  1  0  0  0
  9  2  1  0  0  0  0
 10  3  1  0  0  0  0
 11  3  1  0  0  0  0
 13  5  1  0  0  0  0
 15 16  1  0  0  0  0
 16 17  1  0  0  0  0
 16 18  2  0  0  0  0
 19 18  1  0  0  0  0
 19 20  1  0  0  0  0
 21 19  2  0  0  0  0
 22 21  1  0  0  0  0
 23 15  2  0  0  0  0
 23 21  1  0  0  0  0
 26 24  1  0  0  0  0
 26 27  1  0  0  0  0
 26 25  2  1  0  0  0
 27 28  1  0  0  0  0
 29 26  1  0  0  0  0
 30 31  1  0  0  0  0
 31 29  1  0  0  0  0
 32 31  2  0  0  0  0
 32 39  1  0  0  0  0
 33 32  1  0  0  0  0
 34 35  1  0  0  0  0
 34 33  2  0  0  0  0
 35 30  2  0  0  0  0
 36 37  2  0  0  0  0
 38 30  1  0  0  0  0
 38 36  1  0  0  0  0
 40 34  1  0  0  0  0
 41 36  1  0  0  0  0
 42 38  1  0  0  0  0
M  END
>  <minimizedAffinity>
-6.20419884

$$$$

 OpenBabel03252507143D

 42 44  0  0  1  0  0  0  0  0999 V2000
   38.2900   30.9660   39.6330 C   0  0  2  0  0  0  0  0  0  0  0  0
   37.2520   30.5690   38.6510 C   0  0  0  0  0  0  0  0  0  0  0  0
   36.4330   29.4440   39.2210 C   0  0  0  0  0  0  0  0  0  0  0  0
   35.6290   29.8680   40.2770 O   0  0  0  0  0  0  0  0  0  0  0  0
   36.2060   30.9230   40.9490 C   0  0  0  0  0  0  0  0  0  0  0  0
   37.7170   30.7810   41.0090 C   0  0  1  0  0  0  0  0  0  0  0  0
   39.1520   30.2590   39.4950 H   0  0  0  0  0  0  0  0  0  0  0  0
   36.5330   31.3830   38.4050 H   0  0  0  0  0  0  0  0  0  0  0  0
   37.6760   30.2540   37.6680 H   0  0  0  0  0  0  0  0  0  0  0  0
   35.7390   29.0420   38.3980 H   0  0  0  0  0  0  0  0  0  0  0  0
   37.0300   28.5690   39.4750 H   0  0  0  0  0  0  0  0  0  0  0  0
   35.7430   31.0650   41.9380 H   0  0  0  0  0  0  0  0  0  0  0  0
   35.9610   31.8520   40.3730 H   0  0  0  0  0  0  0  0  0  0  0  0
   37.9950   31.7580   41.5620 H   0  0  0  0  0  0  0  0  0  0  0  0
   38.1600   29.7490   41.8860 C   0  0  0  0  0  0  0  0  0  0  0  0
   39.4930   29.4420   41.5330 C   0  0  0  0  0  0  0  0  0  0  0  0
   40.1490   29.8720   40.7560 H   0  0  0  0  0  0  0  0  0  0  0  0
   40.2160   28.4450   42.2060 C   0  0  0  0  0  3  0  0  0  0  0  0
   39.6280   27.7430   43.2330 C   0  0  0  0  0  0  0  0  0  0  0  0
   40.1470   26.9640   43.7830 H   0  0  0  0  0  0  0  0  0  0  0  0
   38.3460   28.0070   43.6030 C   0  0  0  0  0  0  0  0  0  0  0  0
   37.8100   27.5190   44.3820 H   0  0  0  0  0  0  0  0  0  0  0  0
   37.6730   28.9860   42.9240 C   0  0  0  0  0  3  0  0  0  0  0  0
   38.8130   32.1980   39.4670 O   0  0  0  0  0  0  0  0  0  0  0  0
   40.8450   33.6560   38.6660 O   0  0  0  0  0  0  0  0  0  0  0  0
   40.1300   32.3760   38.4850 P   0  0  2  0  0  0  0  0  0  0  0  0
   39.5950   32.3270   36.8690 O   0  0  0  0  0  0  0  0  0  0  0  0
   39.0260   33.1360   36.7450 H   0  0  0  0  0  0  0  0  0  0  0  0
   41.2100   31.0470   38.6910 O   0  0  0  0  0  0  0  0  0  0  0  0
   42.8170   31.2360   36.9730 C   0  0  0  0  0  0  0  0  0  0  0  0
   41.8660   30.4780   37.6160 C   0  0  0  0  0  0  0  0  0  0  0  0
   41.6030   29.1620   37.1550 C   0  0  0  0  0  0  0  0  0  0  0  0
   42.3140   28.7270   36.0930 N   0  0  0  0  0  0  0  0  0  0  0  0
   43.2290   29.4880   35.4940 C   0  0  0  0  0  0  0  0  0  0  0  0
   43.4680   30.7440   35.9480 N   0  0  0  0  0  0  0  0  0  0  0  0
   44.2830   32.8470   38.1730 C   0  0  0  0  0  0  0  0  0  0  0  0
   44.5320   32.0420   39.1300 O   0  0  0  0  0  0  0  0  0  0  0  0
   43.4160   32.5210   37.0320 N   0  0  0  0  0  0  0  0  0  0  0  0
   40.8620   28.5910   37.6660 H   0  0  0  0  0  0  0  0  0  0  0  0
   43.8380   29.2070   34.6390 H   0  0  0  0  0  0  0  0  0  0  0  0
   44.7820   33.7980   38.2930 H   0  0  0  0  0  0  0  0  0  0  0  0
   43.3300   33.2970   36.3720 H   0  0  0  0  0  0  0  0  0  0  0  0
  1  7  1  6  0  0  0
  1  6  1  0  0  0  0
  2  3  1  0  0  0  0
  2  1  1  0  0  0  0
  3 11  1  0  0  0  0
  3  4  1  0  0  0  0
  4  5  1  0  0  0  0
  5  6  1  0  0  0  0
  5 12  1  0  0  0  0
  6 14  1  1  0  0  0
  6 15  1  0  0  0  0
  8  2  1  0  0  0  0
  9  2  1  0  0  0  0
 10  3  1  0  0  0  0
 13  5  1  0  0  0  0
 15 23  1  0  0  0  0
 16 15  2  0  0  0  0
 16 18  1  0  0  0  0
 17 16  1  0  0  0  0
 18 19  2  0  0  0  0
 19 21  1  0  0  0  0
 19 20  1  0  0  0  0
 21 22  1  0  0  0  0
 23 21  2  0  0  0  0
 24  1  1  0  0  0  0
 26 25  2  1  0  0  0
 26 29  1  0  0  0  0
 26 24  1  0  0  0  0
 27 26  1  0  0  0  0
 28 27  1  0  0  0  0
 30 38  1  0  0  0  0
 30 31  1  0  0  0  0
 31 29  1  0  0  0  0
 32 31  2  0  0  0  0
 32 39  1  0  0  0  0
 33 32  1  0  0  0  0
 34 35  1  0  0  0  0
 34 33  2  0  0  0  0
 35 30  2  0  0  0  0
 36 41  1  0  0  0  0
 36 37  2  0  0  0  0
 38 36  1  0  0  0  0
 40 34  1  0  0  0  0
 42 38  1  0  0  0  0
M  END
>  <minimizedAffinity>
-5.95040989

$$$$

 OpenBabel03252507143D

 42 44  0  0  1  0  0  0  0  0999 V2000
   37.2790   26.7480   40.9990 C   0  0  2  0  0  0  0  0  0  0  0  0
   36.7750   25.8550   39.9270 C   0  0  0  0  0  0  0  0  0  0  0  0
   37.5570   24.5690   39.9430 C   0  0  0  0  0  0  0  0  0  0  0  0
   37.2680   23.7990   41.0660 O   0  0  0  0  0  0  0  0  0  0  0  0
   36.9170   24.5920   42.1360 C   0  0  0  0  0  0  0  0  0  0  0  0
   37.7100   25.8860   42.1510 C   0  0  1  0  0  0  0  0  0  0  0  0
   38.1760   27.2790   40.5800 H   0  0  0  0  0  0  0  0  0  0  0  0
   35.7060   25.5700   40.0480 H   0  0  0  0  0  0  0  0  0  0  0  0
   36.8380   26.3110   38.9100 H   0  0  0  0  0  0  0  0  0  0  0  0
   37.2670   23.9530   39.0170 H   0  0  0  0  0  0  0  0  0  0  0  0
   38.6260   24.7200   39.8010 H   0  0  0  0  0  0  0  0  0  0  0  0
   36.9800   24.0320   43.0840 H   0  0  0  0  0  0  0  0  0  0  0  0
   35.8310   24.8430   42.0160 H   0  0  0  0  0  0  0  0  0  0  0  0
   37.2470   26.4030   43.0760 H   0  0  0  0  0  0  0  0  0  0  0  0
   39.0810   25.7130   42.5010 C   0  0  0  0  0  0  0  0  0  0  0  0
   39.4840   26.8690   43.2050 C   0  0  0  0  0  0  0  0  0  0  0  0
   38.9170   27.7740   43.4870 H   0  0  0  0  0  0  0  0  0  0  0  0
   40.7970   27.0160   43.6780 C   0  0  0  0  0  3  0  0  0  0  0  0
   41.7220   26.0220   43.4600 C   0  0  0  0  0  0  0  0  0  0  0  0
   42.7490   26.0900   43.8070 H   0  0  0  0  0  0  0  0  0  0  0  0
   41.3750   24.8920   42.7860 C   0  0  0  0  0  0  0  0  0  0  0  0
   42.0190   24.0730   42.5710 H   0  0  0  0  0  0  0  0  0  0  0  0
   40.0870   24.7850   42.3410 C   0  0  0  0  0  3  0  0  0  0  0  0
   36.4380   27.7270   41.3900 O   0  0  0  0  0  0  0  0  0  0  0  0
   37.3670   29.3910   43.1970 O   0  0  0  0  0  0  0  0  0  0  0  0
   37.0650   29.2100   41.7610 P   0  0  2  0  0  0  0  0  0  0  0  0
   35.9130   30.3910   41.3410 O   0  0  0  0  0  0  0  0  0  0  0  0
   35.1340   30.2420   41.9450 H   0  0  0  0  0  0  0  0  0  0  0  0
   38.4670   29.5210   40.8060 O   0  0  0  0  0  0  0  0  0  0  0  0
   38.8030   31.1150   39.1000 C   0  0  0  0  0  0  0  0  0  0  0  0
   38.8200   30.8060   40.4410 C   0  0  0  0  0  0  0  0  0  0  0  0
   39.1930   31.8050   41.3760 C   0  0  0  0  0  0  0  0  0  0  0  0
   39.5160   33.0200   40.8850 N   0  0  0  0  0  0  0  0  0  0  0  0
   39.4890   33.2860   39.5800 C   0  0  0  0  0  0  0  0  0  0  0  0
   39.1290   32.3200   38.6990 N   0  0  0  0  0  0  0  0  0  0  0  0
   37.1380   30.1540   37.5220 C   0  0  0  0  0  0  0  0  0  0  0  0
   36.1550   30.3330   38.3140 O   0  0  0  0  0  0  0  0  0  0  0  0
   38.5250   30.5200   37.8420 N   0  0  0  0  0  0  0  0  0  0  0  0
   39.2000   31.5450   42.4100 H   0  0  0  0  0  0  0  0  0  0  0  0
   39.7340   34.2360   39.1130 H   0  0  0  0  0  0  0  0  0  0  0  0
   36.8390   29.7030   36.5880 H   0  0  0  0  0  0  0  0  0  0  0  0
   39.1750   30.2910   37.0860 H   0  0  0  0  0  0  0  0  0  0  0  0
  1  7  1  6  0  0  0
  1 24  1  0  0  0  0
  1  6  1  0  0  0  0
  2  3  1  0  0  0  0
  2  8  1  0  0  0  0
  2  1  1  0  0  0  0
  3  4  1  0  0  0  0
  4  5  1  0  0  0  0
  5  6  1  0  0  0  0
  5 12  1  0  0  0  0
  6 15  1  0  0  0  0
  6 14  1  1  0  0  0
  9  2  1  0  0  0  0
 10  3  1  0  0  0  0
 11  3  1  0  0  0  0
 13  5  1  0  0  0  0
 15 16  1  0  0  0  0
 16 17  1  0  0  0  0
 16 18  2  0  0  0  0
 19 18  1  0  0  0  0
 19 20  1  0  0  0  0
 21 19  2  0  0  0  0
 22 21  1  0  0  0  0
 23 15  2  0  0  0  0
 23 21  1  0  0  0  0
 24 26  1  0  0  0  0
 26 25  2  1  0  0  0
 27 26  1  0  0  0  0
 27 28  1  0  0  0  0
 29 26  1  0  0  0  0
 30 31  1  0  0  0  0
 31 29  1  0  0  0  0
 31 32  2  0  0  0  0
 32 39  1  0  0  0  0
 33 32  1  0  0  0  0
 34 33  2  0  0  0  0
 35 30  2  0  0  0  0
 35 34  1  0  0  0  0
 36 38  1  0  0  0  0
 36 37  2  0  0  0  0
 38 30  1  0  0  0  0
 40 34  1  0  0  0  0
 41 36  1  0  0  0  0
 42 38  1  0  0  0  0
M  END
>  <minimizedAffinity>
-5.91810322

$$$$

 OpenBabel03252507143D

 42 44  0  0  1  0  0  0  0  0999 V2000
   38.3470   28.3700   42.3200 C   0  0  2  0  0  0  0  0  0  0  0  0
   38.0020   27.8840   43.6780 C   0  0  0  0  0  0  0  0  0  0  0  0
   36.5850   27.3780   43.6800 C   0  0  0  0  0  0  0  0  0  0  0  0
   36.4520   26.1990   42.9510 O   0  0  0  0  0  0  0  0  0  0  0  0
   37.3740   26.1390   41.9290 C   0  0  0  0  0  0  0  0  0  0  0  0
   37.6210   27.5100   41.3260 C   0  0  1  0  0  0  0  0  0  0  0  0
   37.9630   29.4230   42.2470 H   0  0  0  0  0  0  0  0  0  0  0  0
   38.6340   27.0360   44.0260 H   0  0  0  0  0  0  0  0  0  0  0  0
   38.1130   28.6670   44.4660 H   0  0  0  0  0  0  0  0  0  0  0  0
   36.2780   27.1520   44.7630 H   0  0  0  0  0  0  0  0  0  0  0  0
   35.8620   28.1370   43.3830 H   0  0  0  0  0  0  0  0  0  0  0  0
   37.0910   25.3790   41.1830 H   0  0  0  0  0  0  0  0  0  0  0  0
   38.3340   25.7700   42.3740 H   0  0  0  0  0  0  0  0  0  0  0  0
   38.4280   27.2480   40.5400 H   0  0  0  0  0  0  0  0  0  0  0  0
   36.5280   27.9990   40.5510 C   0  0  0  0  0  0  0  0  0  0  0  0
   36.5790   27.3490   39.2980 C   0  0  0  0  0  0  0  0  0  0  0  0
   37.2790   26.5900   38.9090 H   0  0  0  0  0  0  0  0  0  0  0  0
   35.6390   27.6270   38.2930 C   0  0  0  0  0  3  0  0  0  0  0  0
   34.6430   28.5470   38.5180 C   0  0  0  0  0  0  0  0  0  0  0  0
   33.8930   28.7950   37.7720 H   0  0  0  0  0  0  0  0  0  0  0  0
   34.5590   29.1960   39.7110 C   0  0  0  0  0  0  0  0  0  0  0  0
   33.8260   29.9200   39.9760 H   0  0  0  0  0  0  0  0  0  0  0  0
   35.4920   28.8990   40.6660 C   0  0  0  0  0  3  0  0  0  0  0  0
   39.6650   28.4540   42.0450 O   0  0  0  0  0  0  0  0  0  0  0  0
   40.0040   29.6980   39.7580 O   0  0  0  0  0  0  0  0  0  0  0  0
   40.2210   29.7710   41.2180 P   0  0  2  0  0  0  0  0  0  0  0  0
   41.9020   29.8810   41.4670 O   0  0  0  0  0  0  0  0  0  0  0  0
   42.2970   29.0750   41.0340 H   0  0  0  0  0  0  0  0  0  0  0  0
   39.5290   31.2140   41.8600 O   0  0  0  0  0  0  0  0  0  0  0  0
   39.3680   33.3000   40.7710 C   0  0  0  0  0  0  0  0  0  0  0  0
   38.8040   32.0810   41.0660 C   0  0  0  0  0  0  0  0  0  0  0  0
   37.5200   31.7710   40.5490 C   0  0  0  0  0  0  0  0  0  0  0  0
   36.9190   32.7090   39.7860 N   0  0  0  0  0  0  0  0  0  0  0  0
   37.4940   33.8800   39.5200 C   0  0  0  0  0  0  0  0  0  0  0  0
   38.7230   34.1610   40.0220 N   0  0  0  0  0  0  0  0  0  0  0  0
   41.8140   33.5990   40.4330 C   0  0  0  0  0  0  0  0  0  0  0  0
   41.9280   32.5590   39.7040 O   0  0  0  0  0  0  0  0  0  0  0  0
   40.5460   34.0510   41.0220 N   0  0  0  0  0  0  0  0  0  0  0  0
   37.0990   30.8210   40.7890 H   0  0  0  0  0  0  0  0  0  0  0  0
   37.0740   34.6800   38.9160 H   0  0  0  0  0  0  0  0  0  0  0  0
   42.7540   34.1140   40.5680 H   0  0  0  0  0  0  0  0  0  0  0  0
   40.6560   34.9000   41.5830 H   0  0  0  0  0  0  0  0  0  0  0  0
  1  7  1  6  0  0  0
  1  2  1  0  0  0  0
  2  3  1  0  0  0  0
  2  8  1  0  0  0  0
  2  9  1  0  0  0  0
  3 10  1  0  0  0  0
  4  3  1  0  0  0  0
  5 13  1  0  0  0  0
  5  4  1  0  0  0  0
  6 14  1  6  0  0  0
  6  5  1  0  0  0  0
  6  1  1  0  0  0  0
 11  3  1  0  0  0  0
 12  5  1  0  0  0  0
 15 23  1  0  0  0  0
 15  6  1  0  0  0  0
 16 15  2  0  0  0  0
 17 16  1  0  0  0  0
 18 19  2  0  0  0  0
 18 16  1  0  0  0  0
 19 21  1  0  0  0  0
 20 19  1  0  0  0  0
 21 22  1  0  0  0  0
 21 23  2  0  0  0  0
 24  1  1  0  0  0  0
 26 25  2  6  0  0  0
 26 27  1  0  0  0  0
 26 29  1  0  0  0  0
 26 24  1  0  0  0  0
 28 27  1  0  0  0  0
 30 38  1  0  0  0  0
 30 31  1  0  0  0  0
 31 29  1  0  0  0  0
 32 39  1  0  0  0  0
 32 31  2  0  0  0  0
 33 32  1  0  0  0  0
 34 33  2  0  0  0  0
 34 35  1  0  0  0  0
 35 30  2  0  0  0  0
 36 41  1  0  0  0  0
 36 38  1  0  0  0  0
 37 36  2  0  0  0  0
 38 42  1  0  0  0  0
 40 34  1  0  0  0  0
M  END
>  <minimizedAffinity>
-5.85769987

$$$$

 OpenBabel03252507143D

 42 44  0  0  1  0  0  0  0  0999 V2000
   36.8280   29.4140   38.2870 C   0  0  2  0  0  0  0  0  0  0  0  0
   36.9600   28.8720   36.9120 C   0  0  0  0  0  0  0  0  0  0  0  0
   36.8630   27.3720   36.9580 C   0  0  0  0  0  0  0  0  0  0  0  0
   35.5750   26.9430   37.2730 O   0  0  0  0  0  0  0  0  0  0  0  0
   34.9270   27.8610   38.0690 C   0  0  0  0  0  0  0  0  0  0  0  0
   35.8850   28.5240   39.0430 C   0  0  1  0  0  0  0  0  0  0  0  0
   37.8470   29.3540   38.7560 H   0  0  0  0  0  0  0  0  0  0  0  0
   36.1610   29.2140   36.2170 H   0  0  0  0  0  0  0  0  0  0  0  0
   37.9170   29.1640   36.4160 H   0  0  0  0  0  0  0  0  0  0  0  0
   37.1210   26.9560   35.9180 H   0  0  0  0  0  0  0  0  0  0  0  0
   37.6220   26.9150   37.5910 H   0  0  0  0  0  0  0  0  0  0  0  0
   34.0490   27.4100   38.5610 H   0  0  0  0  0  0  0  0  0  0  0  0
   34.5100   28.6490   37.3900 H   0  0  0  0  0  0  0  0  0  0  0  0
   35.1660   29.2610   39.5710 H   0  0  0  0  0  0  0  0  0  0  0  0
   36.3250   27.6610   40.0890 C   0  0  0  0  0  0  0  0  0  0  0  0
   36.2520   28.3930   41.2950 C   0  0  0  0  0  0  0  0  0  0  0  0
   35.9190   29.4270   41.4900 H   0  0  0  0  0  0  0  0  0  0  0  0
   36.6350   27.8230   42.5190 C   0  0  0  0  0  3  0  0  0  0  0  0
   37.0940   26.5270   42.5610 C   0  0  0  0  0  0  0  0  0  0  0  0
   37.4020   26.0440   43.4840 H   0  0  0  0  0  0  0  0  0  0  0  0
   37.1810   25.7890   41.4220 C   0  0  0  0  0  0  0  0  0  0  0  0
   37.5220   24.7830   41.3570 H   0  0  0  0  0  0  0  0  0  0  0  0
   36.7980   26.3780   40.2490 C   0  0  0  0  0  3  0  0  0  0  0  0
   36.4740   30.7130   38.3730 O   0  0  0  0  0  0  0  0  0  0  0  0
   37.0840   31.8110   40.6790 O   0  0  0  0  0  0  0  0  0  0  0  0
   37.4310   31.7400   39.2440 P   0  0  2  0  0  0  0  0  0  0  0  0
   37.2400   33.3080   38.6070 O   0  0  0  0  0  0  0  0  0  0  0  0
   36.2940   33.5640   38.7880 H   0  0  0  0  0  0  0  0  0  0  0  0
   39.0910   31.3210   39.0450 O   0  0  0  0  0  0  0  0  0  0  0  0
   40.4030   32.6330   40.5020 C   0  0  0  0  0  0  0  0  0  0  0  0
   40.0960   32.2540   39.2160 C   0  0  0  0  0  0  0  0  0  0  0  0
   40.8150   32.8280   38.1360 C   0  0  0  0  0  0  0  0  0  0  0  0
   41.7720   33.7290   38.4410 N   0  0  0  0  0  0  0  0  0  0  0  0
   42.0440   34.0740   39.6990 C   0  0  0  0  0  0  0  0  0  0  0  0
   41.3480   33.5150   40.7200 N   0  0  0  0  0  0  0  0  0  0  0  0
   40.2950   31.0610   42.4260 C   0  0  0  0  0  0  0  0  0  0  0  0
   40.8750   30.1160   41.7980 O   0  0  0  0  0  0  0  0  0  0  0  0
   40.0100   32.3790   41.8420 N   0  0  0  0  0  0  0  0  0  0  0  0
   40.5620   32.5210   37.1460 H   0  0  0  0  0  0  0  0  0  0  0  0
   42.7970   34.7880   40.0200 H   0  0  0  0  0  0  0  0  0  0  0  0
   40.0350   30.7870   43.4380 H   0  0  0  0  0  0  0  0  0  0  0  0
   39.5300   33.0020   42.4960 H   0  0  0  0  0  0  0  0  0  0  0  0
  1 24  1  0  0  0  0
  1  7  1  1  0  0  0
  1  6  1  0  0  0  0
  2  3  1  0  0  0  0
  2  1  1  0  0  0  0
  3  4  1  0  0  0  0
  3 11  1  0  0  0  0
  4  5  1  0  0  0  0
  5 12  1  0  0  0  0
  5  6  1  0  0  0  0
  6 14  1  1  0  0  0
  6 15  1  0  0  0  0
  8  2  1  0  0  0  0
  9  2  1  0  0  0  0
 10  3  1  0  0  0  0
 13  5  1  0  0  0  0
 15 23  2  0  0  0  0
 15 16  1  0  0  0  0
 16 17  1  0  0  0  0
 16 18  2  0  0  0  0
 18 19  1  0  0  0  0
 19 20  1  0  0  0  0
 21 19  2  0  0  0  0
 22 21  1  0  0  0  0
 23 21  1  0  0  0  0
 24 26  1  0  0  0  0
 26 25  2  1  0  0  0
 27 28  1  0  0  0  0
 27 26  1  0  0  0  0
 29 31  1  0  0  0  0
 29 26  1  0  0  0  0
 30 35  1  0  0  0  0
 30 38  1  0  0  0  0
 31 30  2  0  0  0  0
 32 33  2  0  0  0  0
 32 31  1  0  0  0  0
 33 34  1  0  0  0  0
 34 40  1  0  0  0  0
 34 35  2  0  0  0  0
 36 41  1  0  0  0  0
 37 36  2  0  0  0  0
 38 36  1  0  0  0  0
 38 42  1  0  0  0  0
 39 32  1  0  0  0  0
M  END
>  <minimizedAffinity>
-5.8209343

$$$$

 OpenBabel03252507143D

 42 44  0  0  1  0  0  0  0  0999 V2000
   37.8570   28.7270   38.6140 C   0  0  2  0  0  0  0  0  0  0  0  0
   38.3160   27.5220   37.8800 C   0  0  0  0  0  0  0  0  0  0  0  0
   38.2160   26.3230   38.7830 C   0  0  0  0  0  0  0  0  0  0  0  0
   36.8930   25.9710   39.0370 O   0  0  0  0  0  0  0  0  0  0  0  0
   36.0690   27.0750   38.9970 C   0  0  0  0  0  0  0  0  0  0  0  0
   36.7640   28.3050   39.5530 C   0  0  1  0  0  0  0  0  0  0  0  0
   38.7340   29.0940   39.2120 H   0  0  0  0  0  0  0  0  0  0  0  0
   37.7040   27.2860   36.9800 H   0  0  0  0  0  0  0  0  0  0  0  0
   39.3620   27.6120   37.5010 H   0  0  0  0  0  0  0  0  0  0  0  0
   38.7170   25.4300   38.2610 H   0  0  0  0  0  0  0  0  0  0  0  0
   38.8050   26.4260   39.6930 H   0  0  0  0  0  0  0  0  0  0  0  0
   35.1010   26.8650   39.4810 H   0  0  0  0  0  0  0  0  0  0  0  0
   35.8240   27.2630   37.9200 H   0  0  0  0  0  0  0  0  0  0  0  0
   35.9370   29.0980   39.3950 H   0  0  0  0  0  0  0  0  0  0  0  0
   36.9450   28.2700   40.9660 C   0  0  0  0  0  0  0  0  0  0  0  0
   37.9700   29.1900   41.2810 C   0  0  0  0  0  0  0  0  0  0  0  0
   38.5610   29.8580   40.6310 H   0  0  0  0  0  0  0  0  0  0  0  0
   38.3990   29.3810   42.6030 C   0  0  0  0  0  3  0  0  0  0  0  0
   37.8200   28.6650   43.6250 C   0  0  0  0  0  0  0  0  0  0  0  0
   38.1180   28.7790   44.6630 H   0  0  0  0  0  0  0  0  0  0  0  0
   36.8310   27.7690   43.3650 C   0  0  0  0  0  0  0  0  0  0  0  0
   36.3250   27.1720   44.0870 H   0  0  0  0  0  0  0  0  0  0  0  0
   36.4390   27.6100   42.0640 C   0  0  0  0  0  3  0  0  0  0  0  0
   37.4870   29.7740   37.8480 O   0  0  0  0  0  0  0  0  0  0  0  0
   37.3830   32.1270   39.0100 O   0  0  0  0  0  0  0  0  0  0  0  0
   38.1800   31.2480   38.1300 P   0  0  2  0  0  0  0  0  0  0  0  0
   38.3420   32.0500   36.6370 O   0  0  0  0  0  0  0  0  0  0  0  0
   37.4140   32.2190   36.3150 H   0  0  0  0  0  0  0  0  0  0  0  0
   39.7720   31.0460   38.7610 O   0  0  0  0  0  0  0  0  0  0  0  0
   41.4530   31.8790   37.3300 C   0  0  0  0  0  0  0  0  0  0  0  0
   40.8500   30.7990   37.9330 C   0  0  0  0  0  0  0  0  0  0  0  0
   41.3550   29.4970   37.6830 C   0  0  0  0  0  0  0  0  0  0  0  0
   42.4140   29.3950   36.8520 N   0  0  0  0  0  0  0  0  0  0  0  0
   42.9740   30.4620   36.2840 C   0  0  0  0  0  0  0  0  0  0  0  0
   42.4790   31.7010   36.5340 N   0  0  0  0  0  0  0  0  0  0  0  0
   41.6590   34.0940   38.4420 C   0  0  0  0  0  0  0  0  0  0  0  0
   42.0250   33.5970   39.5570 O   0  0  0  0  0  0  0  0  0  0  0  0
   41.3430   33.2920   37.2510 N   0  0  0  0  0  0  0  0  0  0  0  0
   40.8740   28.6740   38.1600 H   0  0  0  0  0  0  0  0  0  0  0  0
   43.8250   30.4580   35.6090 H   0  0  0  0  0  0  0  0  0  0  0  0
   41.6070   35.1730   38.4670 H   0  0  0  0  0  0  0  0  0  0  0  0
   41.0590   33.8680   36.4550 H   0  0  0  0  0  0  0  0  0  0  0  0
  1  7  1  1  0  0  0
  1  6  1  0  0  0  0
  2  1  1  0  0  0  0
  2  3  1  0  0  0  0
  3  4  1  0  0  0  0
  3 11  1  0  0  0  0
  5  4  1  0  0  0  0
  5 12  1  0  0  0  0
  5  6  1  0  0  0  0
  6 14  1  6  0  0  0
  6 15  1  0  0  0  0
  8  2  1  0  0  0  0
  9  2  1  0  0  0  0
 10  3  1  0  0  0  0
 13  5  1  0  0  0  0
 15 16  2  0  0  0  0
 15 23  1  0  0  0  0
 16 18  1  0  0  0  0
 17 16  1  0  0  0  0
 18 19  2  0  0  0  0
 19 20  1  0  0  0  0
 21 19  1  0  0  0  0
 21 22  1  0  0  0  0
 23 21  2  0  0  0  0
 24 26  1  0  0  0  0
 24  1  1  0  0  0  0
 26 29  1  0  0  0  0
 26 25  2  1  0  0  0
 27 26  1  0  0  0  0
 28 27  1  0  0  0  0
 30 31  1  0  0  0  0
 31 29  1  0  0  0  0
 32 31  2  0  0  0  0
 32 39  1  0  0  0  0
 33 32  1  0  0  0  0
 34 35  1  0  0  0  0
 34 33  2  0  0  0  0
 35 30  2  0  0  0  0
 36 41  1  0  0  0  0
 36 37  2  0  0  0  0
 38 30  1  0  0  0  0
 38 36  1  0  0  0  0
 40 34  1  0  0  0  0
 42 38  1  0  0  0  0
M  END
>  <minimizedAffinity>
-5.68462038

$$$$

 OpenBabel03252507143D

 42 44  0  0  1  0  0  0  0  0999 V2000
   36.8940   30.3510   39.5560 C   0  0  2  0  0  0  0  0  0  0  0  0
   36.7950   29.6520   38.2520 C   0  0  0  0  0  0  0  0  0  0  0  0
   36.6400   28.1740   38.4900 C   0  0  0  0  0  0  0  0  0  0  0  0
   35.3970   27.8620   39.0350 O   0  0  0  0  0  0  0  0  0  0  0  0
   34.9150   28.9010   39.8010 C   0  0  0  0  0  0  0  0  0  0  0  0
   36.0360   29.6090   40.5410 C   0  0  1  0  0  0  0  0  0  0  0  0
   37.9670   30.2820   39.8780 H   0  0  0  0  0  0  0  0  0  0  0  0
   35.9160   29.9620   37.6430 H   0  0  0  0  0  0  0  0  0  0  0  0
   37.6780   29.8270   37.5920 H   0  0  0  0  0  0  0  0  0  0  0  0
   36.7220   27.6300   37.4810 H   0  0  0  0  0  0  0  0  0  0  0  0
   37.4650   27.7460   39.0570 H   0  0  0  0  0  0  0  0  0  0  0  0
   34.1020   28.5620   40.4640 H   0  0  0  0  0  0  0  0  0  0  0  0
   34.4370   29.6320   39.1000 H   0  0  0  0  0  0  0  0  0  0  0  0
   35.4380   30.4430   41.0750 H   0  0  0  0  0  0  0  0  0  0  0  0
   36.5900   28.8440   41.6090 C   0  0  0  0  0  0  0  0  0  0  0  0
   37.8150   29.4490   41.9670 C   0  0  0  0  0  0  0  0  0  0  0  0
   38.3190   30.3460   41.5660 H   0  0  0  0  0  0  0  0  0  0  0  0
   38.6210   28.9190   42.9870 C   0  0  0  0  0  3  0  0  0  0  0  0
   38.2220   27.7890   43.6610 C   0  0  0  0  0  0  0  0  0  0  0  0
   38.8110   27.3430   44.4570 H   0  0  0  0  0  0  0  0  0  0  0  0
   37.0500   27.1750   43.3460 C   0  0  0  0  0  0  0  0  0  0  0  0
   36.6600   26.3000   43.8110 H   0  0  0  0  0  0  0  0  0  0  0  0
   36.2920   27.7200   42.3470 C   0  0  0  0  0  3  0  0  0  0  0  0
   36.6130   31.6700   39.5370 O   0  0  0  0  0  0  0  0  0  0  0  0
   37.4410   34.1610   39.6060 O   0  0  0  0  0  0  0  0  0  0  0  0
   37.8650   32.7480   39.5240 P   0  0  2  0  0  0  0  0  0  0  0  0
   38.7070   32.5630   38.0560 O   0  0  0  0  0  0  0  0  0  0  0  0
   38.0730   32.8420   37.3390 H   0  0  0  0  0  0  0  0  0  0  0  0
   38.9810   32.3790   40.7860 O   0  0  0  0  0  0  0  0  0  0  0  0
   41.2130   31.6300   40.6370 C   0  0  0  0  0  0  0  0  0  0  0  0
   40.3250   32.6800   40.6710 C   0  0  0  0  0  0  0  0  0  0  0  0
   40.8190   34.0070   40.5870 C   0  0  0  0  0  0  0  0  0  0  0  0
   42.1560   34.1610   40.4780 N   0  0  0  0  0  0  0  0  0  0  0  0
   42.9890   33.1220   40.4480 C   0  0  0  0  0  0  0  0  0  0  0  0
   42.4990   31.8590   40.5290 N   0  0  0  0  0  0  0  0  0  0  0  0
   40.6790   29.4560   39.5530 C   0  0  0  0  0  0  0  0  0  0  0  0
   40.1670   29.9980   38.5190 O   0  0  0  0  0  0  0  0  0  0  0  0
   41.2350   30.2120   40.6850 N   0  0  0  0  0  0  0  0  0  0  0  0
   40.1150   34.8060   40.6160 H   0  0  0  0  0  0  0  0  0  0  0  0
   44.0710   33.1680   40.3620 H   0  0  0  0  0  0  0  0  0  0  0  0
   40.6610   28.3770   39.5060 H   0  0  0  0  0  0  0  0  0  0  0  0
   41.5920   29.6030   41.4250 H   0  0  0  0  0  0  0  0  0  0  0  0
  1  7  1  1  0  0  0
  1  6  1  0  0  0  0
  2  3  1  0  0  0  0
  2  1  1  0  0  0  0
  3  4  1  0  0  0  0
  3 11  1  0  0  0  0
  4  5  1  0  0  0  0
  5 12  1  0  0  0  0
  5  6  1  0  0  0  0
  6 14  1  1  0  0  0
  6 15  1  0  0  0  0
  8  2  1  0  0  0  0
  9  2  1  0  0  0  0
 10  3  1  0  0  0  0
 13  5  1  0  0  0  0
 15 16  2  0  0  0  0
 15 23  1  0  0  0  0
 16 18  1  0  0  0  0
 17 16  1  0  0  0  0
 18 19  2  0  0  0  0
 19 20  1  0  0  0  0
 21 19  1  0  0  0  0
 21 22  1  0  0  0  0
 23 21  2  0  0  0  0
 24  1  1  0  0  0  0
 26 24  1  0  0  0  0
 26 25  2  1  0  0  0
 26 29  1  0  0  0  0
 27 26  1  0  0  0  0
 28 27  1  0  0  0  0
 30 31  1  0  0  0  0
 30 38  1  0  0  0  0
 31 29  1  0  0  0  0
 32 39  1  0  0  0  0
 32 31  2  0  0  0  0
 33 32  1  0  0  0  0
 34 33  2  0  0  0  0
 34 35  1  0  0  0  0
 35 30  2  0  0  0  0
 36 38  1  0  0  0  0
 37 36  2  0  0  0  0
 38 42  1  0  0  0  0
 40 34  1  0  0  0  0
 41 36  1  0  0  0  0
M  END
>  <minimizedAffinity>
-5.67647886

$$$$

 OpenBabel03252507143D

 42 44  0  0  1  0  0  0  0  0999 V2000
   38.3960   28.4540   42.2280 C   0  0  2  0  0  0  0  0  0  0  0  0
   38.1090   27.9510   43.5940 C   0  0  0  0  0  0  0  0  0  0  0  0
   36.6990   27.4300   43.6460 C   0  0  0  0  0  0  0  0  0  0  0  0
   36.5500   26.2560   42.9120 O   0  0  0  0  0  0  0  0  0  0  0  0
   37.4310   26.2160   41.8540 C   0  0  0  0  0  0  0  0  0  0  0  0
   37.6390   27.5960   41.2550 C   0  0  1  0  0  0  0  0  0  0  0  0
   37.9980   29.5030   42.1800 H   0  0  0  0  0  0  0  0  0  0  0  0
   38.7640   27.1070   43.9070 H   0  0  0  0  0  0  0  0  0  0  0  0
   38.2440   28.7280   44.3840 H   0  0  0  0  0  0  0  0  0  0  0  0
   36.4380   27.1910   44.7390 H   0  0  0  0  0  0  0  0  0  0  0  0
   35.9570   28.1840   43.3860 H   0  0  0  0  0  0  0  0  0  0  0  0
   37.1260   25.4610   41.1120 H   0  0  0  0  0  0  0  0  0  0  0  0
   38.4120   25.8540   42.2570 H   0  0  0  0  0  0  0  0  0  0  0  0
   38.4170   27.3500   40.4340 H   0  0  0  0  0  0  0  0  0  0  0  0
   36.5120   28.0800   40.5290 C   0  0  0  0  0  0  0  0  0  0  0  0
   36.4530   27.3590   39.3150 C   0  0  0  0  0  0  0  0  0  0  0  0
   37.0990   26.5540   38.9250 H   0  0  0  0  0  0  0  0  0  0  0  0
   35.4550   27.6140   38.3620 C   0  0  0  0  0  3  0  0  0  0  0  0
   34.5080   28.5820   38.6000 C   0  0  0  0  0  0  0  0  0  0  0  0
   33.7160   28.8150   37.8940 H   0  0  0  0  0  0  0  0  0  0  0  0
   34.5290   29.2990   39.7560 C   0  0  0  0  0  0  0  0  0  0  0  0
   33.8410   30.0640   40.0270 H   0  0  0  0  0  0  0  0  0  0  0  0
   35.5170   29.0230   40.6610 C   0  0  0  0  0  3  0  0  0  0  0  0
   39.7010   28.5540   41.9020 O   0  0  0  0  0  0  0  0  0  0  0  0
   41.7680   29.9800   42.6690 O   0  0  0  0  0  0  0  0  0  0  0  0
   40.4390   30.0270   42.0250 P   0  0  2  0  0  0  0  0  0  0  0  0
   39.4540   31.0330   42.9830 O   0  0  0  0  0  0  0  0  0  0  0  0
   39.4540   30.6280   43.8940 H   0  0  0  0  0  0  0  0  0  0  0  0
   40.5470   30.7710   40.4730 O   0  0  0  0  0  0  0  0  0  0  0  0
   38.4680   31.6620   39.8030 C   0  0  0  0  0  0  0  0  0  0  0  0
   39.4830   30.7590   39.5910 C   0  0  0  0  0  0  0  0  0  0  0  0
   39.3950   29.8660   38.4930 C   0  0  0  0  0  0  0  0  0  0  0  0
   38.3010   29.9590   37.7080 N   0  0  0  0  0  0  0  0  0  0  0  0
   37.3350   30.8460   37.9420 C   0  0  0  0  0  0  0  0  0  0  0  0
   37.4350   31.6930   38.9970 N   0  0  0  0  0  0  0  0  0  0  0  0
   38.8720   33.9480   40.6970 C   0  0  0  0  0  0  0  0  0  0  0  0
   39.8770   34.1600   39.9410 O   0  0  0  0  0  0  0  0  0  0  0  0
   38.0950   32.7010   40.6960 N   0  0  0  0  0  0  0  0  0  0  0  0
   40.1920   29.1720   38.3460 H   0  0  0  0  0  0  0  0  0  0  0  0
   36.4300   30.9790   37.3560 H   0  0  0  0  0  0  0  0  0  0  0  0
   38.6540   34.7890   41.3380 H   0  0  0  0  0  0  0  0  0  0  0  0
   37.3320   32.7150   41.3770 H   0  0  0  0  0  0  0  0  0  0  0  0
  1  7  1  6  0  0  0
  1  2  1  0  0  0  0
  2  3  1  0  0  0  0
  2  8  1  0  0  0  0
  2  9  1  0  0  0  0
  3 10  1  0  0  0  0
  4  3  1  0  0  0  0
  5 13  1  0  0  0  0
  5  4  1  0  0  0  0
  6 14  1  6  0  0  0
  6  5  1  0  0  0  0
  6  1  1  0  0  0  0
 11  3  1  0  0  0  0
 12  5  1  0  0  0  0
 15 23  1  0  0  0  0
 15  6  1  0  0  0  0
 16 15  2  0  0  0  0
 17 16  1  0  0  0  0
 18 19  2  0  0  0  0
 18 16  1  0  0  0  0
 19 21  1  0  0  0  0
 20 19  1  0  0  0  0
 21 22  1  0  0  0  0
 21 23  2  0  0  0  0
 24 26  1  0  0  0  0
 24  1  1  0  0  0  0
 26 25  2  1  0  0  0
 26 27  1  0  0  0  0
 27 28  1  0  0  0  0
 29 26  1  0  0  0  0
 30 38  1  0  0  0  0
 31 30  1  0  0  0  0
 31 29  1  0  0  0  0
 32 31  2  0  0  0  0
 33 34  2  0  0  0  0
 33 32  1  0  0  0  0
 34 35  1  0  0  0  0
 35 30  2  0  0  0  0
 36 41  1  0  0  0  0
 37 36  2  0  0  0  0
 38 36  1  0  0  0  0
 38 42  1  0  0  0  0
 39 32  1  0  0  0  0
 40 34  1  0  0  0  0
M  END
>  <minimizedAffinity>
-5.67445469

$$$$

 OpenBabel03252507143D

 42 44  0  0  1  0  0  0  0  0999 V2000
   35.8520   29.1290   37.5420 C   0  0  2  0  0  0  0  0  0  0  0  0
   36.5090   29.6170   36.3050 C   0  0  0  0  0  0  0  0  0  0  0  0
   36.3160   28.6060   35.2080 C   0  0  0  0  0  0  0  0  0  0  0  0
   34.9920   28.5470   34.7810 O   0  0  0  0  0  0  0  0  0  0  0  0
   34.1250   28.8660   35.8030 C   0  0  0  0  0  0  0  0  0  0  0  0
   34.6320   28.3520   37.1390 C   0  0  1  0  0  0  0  0  0  0  0  0
   36.5810   28.4360   38.0420 H   0  0  0  0  0  0  0  0  0  0  0  0
   36.0880   30.5740   35.9220 H   0  0  0  0  0  0  0  0  0  0  0  0
   37.6000   29.8140   36.4360 H   0  0  0  0  0  0  0  0  0  0  0  0
   36.9570   28.9170   34.3060 H   0  0  0  0  0  0  0  0  0  0  0  0
   36.7200   27.6260   35.4570 H   0  0  0  0  0  0  0  0  0  0  0  0
   33.0990   28.5370   35.5710 H   0  0  0  0  0  0  0  0  0  0  0  0
   34.0720   29.9840   35.8510 H   0  0  0  0  0  0  0  0  0  0  0  0
   33.8030   28.7490   37.8410 H   0  0  0  0  0  0  0  0  0  0  0  0
   34.5520   26.9350   37.2750 C   0  0  0  0  0  0  0  0  0  0  0  0
   35.6270   26.5310   38.0970 C   0  0  0  0  0  0  0  0  0  0  0  0
   36.4160   27.1230   38.5920 H   0  0  0  0  0  0  0  0  0  0  0  0
   35.8380   25.1800   38.4120 C   0  0  0  0  0  3  0  0  0  0  0  0
   34.9880   24.2180   37.9170 C   0  0  0  0  0  0  0  0  0  0  0  0
   35.1110   23.1610   38.1340 H   0  0  0  0  0  0  0  0  0  0  0  0
   33.9410   24.5650   37.1220 C   0  0  0  0  0  0  0  0  0  0  0  0
   33.2340   23.8930   36.6950 H   0  0  0  0  0  0  0  0  0  0  0  0
   33.7680   25.8910   36.8370 C   0  0  0  0  0  3  0  0  0  0  0  0
   35.5680   30.0700   38.4650 O   0  0  0  0  0  0  0  0  0  0  0  0
   34.7590   28.8990   40.6720 O   0  0  0  0  0  0  0  0  0  0  0  0
   35.8240   29.7210   40.0600 P   0  0  2  0  0  0  0  0  0  0  0  0
   35.8780   31.1900   40.9200 O   0  0  0  0  0  0  0  0  0  0  0  0
   34.9650   31.5830   40.8490 H   0  0  0  0  0  0  0  0  0  0  0  0
   37.3610   28.9680   40.2650 O   0  0  0  0  0  0  0  0  0  0  0  0
   38.2320   29.6470   42.3500 C   0  0  0  0  0  0  0  0  0  0  0  0
   38.3720   29.5770   40.9840 C   0  0  0  0  0  0  0  0  0  0  0  0
   39.5330   30.1250   40.3800 C   0  0  0  0  0  0  0  0  0  0  0  0
   40.4450   30.6920   41.1970 N   0  0  0  0  0  0  0  0  0  0  0  0
   40.2770   30.7430   42.5180 C   0  0  0  0  0  0  0  0  0  0  0  0
   39.1610   30.2140   43.0800 N   0  0  0  0  0  0  0  0  0  0  0  0
   37.1350   27.8530   43.6800 C   0  0  0  0  0  0  0  0  0  0  0  0
   37.7360   26.9110   43.0660 O   0  0  0  0  0  0  0  0  0  0  0  0
   37.3240   29.2800   43.3780 N   0  0  0  0  0  0  0  0  0  0  0  0
   39.6230   30.0610   39.3190 H   0  0  0  0  0  0  0  0  0  0  0  0
   40.9650   31.1810   43.2360 H   0  0  0  0  0  0  0  0  0  0  0  0
   36.4690   27.4880   44.4480 H   0  0  0  0  0  0  0  0  0  0  0  0
   36.7490   29.8840   43.9690 H   0  0  0  0  0  0  0  0  0  0  0  0
  1  7  1  1  0  0  0
  1 24  1  0  0  0  0
  2  9  1  0  0  0  0
  2  1  1  0  0  0  0
  3 11  1  0  0  0  0
  3  2  1  0  0  0  0
  4  3  1  0  0  0  0
  4  5  1  0  0  0  0
  5 13  1  0  0  0  0
  5  6  1  0  0  0  0
  6 15  1  0  0  0  0
  6  1  1  0  0  0  0
  6 14  1  1  0  0  0
  8  2  1  0  0  0  0
 10  3  1  0  0  0  0
 12  5  1  0  0  0  0
 15 16  1  0  0  0  0
 16 18  2  0  0  0  0
 16 17  1  0  0  0  0
 19 20  1  0  0  0  0
 19 18  1  0  0  0  0
 21 19  2  0  0  0  0
 22 21  1  0  0  0  0
 23 21  1  0  0  0  0
 23 15  2  0  0  0  0
 24 26  1  0  0  0  0
 26 29  1  0  0  0  0
 26 25  2  1  0  0  0
 26 27  1  0  0  0  0
 28 27  1  0  0  0  0
 29 31  1  0  0  0  0
 30 35  1  0  0  0  0
 30 38  1  0  0  0  0
 31 30  2  0  0  0  0
 32 31  1  0  0  0  0
 32 33  2  0  0  0  0
 33 34  1  0  0  0  0
 34 35  2  0  0  0  0
 34 40  1  0  0  0  0
 36 41  1  0  0  0  0
 37 36  2  0  0  0  0
 38 36  1  0  0  0  0
 38 42  1  0  0  0  0
 39 32  1  0  0  0  0
M  END
>  <minimizedAffinity>
-5.6158452

$$$$
