
 OpenBabel03252507133D

 42 44  0  0  1  0  0  0  0  0999 V2000
   47.4490   32.3910   42.6960 C   0  0  2  0  0  0  0  0  0  0  0  0
   47.9990   31.3890   43.6410 C   0  0  0  0  0  0  0  0  0  0  0  0
   47.3310   31.5480   44.9800 C   0  0  0  0  0  0  0  0  0  0  0  0
   45.9960   31.1530   44.9460 O   0  0  0  0  0  0  0  0  0  0  0  0
   45.4510   31.3490   43.6960 C   0  0  0  0  0  0  0  0  0  0  0  0
   46.0030   32.6030   43.0420 C   0  0  1  0  0  0  0  0  0  0  0  0
   48.0140   33.3450   42.8730 H   0  0  0  0  0  0  0  0  0  0  0  0
   47.8220   30.3350   43.3300 H   0  0  0  0  0  0  0  0  0  0  0  0
   49.1050   31.4690   43.7700 H   0  0  0  0  0  0  0  0  0  0  0  0
   47.8710   30.8780   45.7410 H   0  0  0  0  0  0  0  0  0  0  0  0
   47.4620   32.5420   45.4050 H   0  0  0  0  0  0  0  0  0  0  0  0
   44.3500   31.3270   43.7350 H   0  0  0  0  0  0  0  0  0  0  0  0
   45.7410   30.4660   43.0690 H   0  0  0  0  0  0  0  0  0  0  0  0
   45.4610   32.5600   42.0210 H   0  0  0  0  0  0  0  0  0  0  0  0
   45.5310   33.8110   43.6330 C   0  0  0  0  0  0  0  0  0  0  0  0
   45.5630   34.8080   42.6330 C   0  0  0  0  0  0  0  0  0  0  0  0
   45.8650   34.7540   41.5730 H   0  0  0  0  0  0  0  0  0  0  0  0
   45.1690   36.1280   42.9040 C   0  0  0  0  0  0  0  0  0  0  0  0
   44.7420   36.4730   44.1650 C   0  0  0  0  0  0  0  0  0  0  0  0
   44.4280   37.4800   44.4220 H   0  0  0  0  0  0  0  0  0  0  0  0
   44.6960   35.5430   45.1570 C   0  0  0  0  0  0  0  0  0  0  0  0
   44.3810   35.7160   46.1580 H   0  0  0  0  0  0  0  0  0  0  0  0
   45.0870   34.2680   44.8550 C   0  0  0  0  0  0  0  0  0  0  0  0
   47.6180   32.1170   41.3870 O   0  0  0  0  0  0  0  0  0  0  0  0
   49.8710   32.1050   40.0380 O   0  0  0  0  0  0  0  0  0  0  0  0
   48.7690   32.9500   40.5430 P   0  0  2  0  0  0  0  0  0  0  0  0
   49.4610   34.1010   41.5900 O   0  0  0  0  0  0  0  0  0  0  0  0
   49.9350   33.5800   42.2950 H   0  0  0  0  0  0  0  0  0  0  0  0
   48.0410   33.8290   39.2510 O   0  0  0  0  0  0  0  0  0  0  0  0
   46.9190   32.2510   37.9030 C   0  0  0  0  0  0  0  0  0  0  0  0
   47.8510   33.2580   38.0080 C   0  0  0  0  0  0  0  0  0  0  0  0
   48.5650   33.6610   36.8500 C   0  0  0  0  0  0  0  0  0  0  0  0
   48.2840   33.0200   35.6970 N   0  0  0  0  0  0  0  0  0  0  0  0
   47.3750   32.0480   35.6300 C   0  0  0  0  0  0  0  0  0  0  0  0
   46.7000   31.6740   36.7460 N   0  0  0  0  0  0  0  0  0  0  0  0
   44.8220   32.2190   39.2400 C   0  0  0  0  0  0  0  0  0  0  0  0
   44.5720   33.4530   39.0380 O   0  0  0  0  0  0  0  0  0  0  0  0
   45.9990   31.5230   38.7010 N   0  0  0  0  0  0  0  0  0  0  0  0
   49.2830   34.4430   36.9520 H   0  0  0  0  0  0  0  0  0  0  0  0
   47.0960   31.4890   34.7410 H   0  0  0  0  0  0  0  0  0  0  0  0
   44.0710   31.7400   39.8500 H   0  0  0  0  0  0  0  0  0  0  0  0
   46.0320   30.5390   38.9780 H   0  0  0  0  0  0  0  0  0  0  0  0
  1  7  1  1  0  0  0
  1  6  1  0  0  0  0
  1  2  1  0  0  0  0
  2  9  1  0  0  0  0
  2  3  1  0  0  0  0
  3 11  1  0  0  0  0
  3 10  1  0  0  0  0
  4  3  1  0  0  0  0
  5 12  1  0  0  0  0
  5  4  1  0  0  0  0
  6 14  1  6  0  0  0
  6 15  1  0  0  0  0
  6  5  1  0  0  0  0
  8  2  1  0  0  0  0
 13  5  1  0  0  0  0
 15 23  1  0  0  0  0
 16 18  1  0  0  0  0
 16 15  2  0  0  0  0
 17 16  1  0  0  0  0
 18 19  2  0  0  0  0
 19 20  1  0  0  0  0
 19 21  1  0  0  0  0
 21 22  1  0  0  0  0
 23 21  2  0  0  0  0
 24  1  1  0  0  0  0
 26 25  2  6  0  0  0
 26 24  1  0  0  0  0
 26 27  1  0  0  0  0
 27 28  1  0  0  0  0
 29 26  1  0  0  0  0
 30 31  1  0  0  0  0
 30 38  1  0  0  0  0
 31 29  1  0  0  0  0
 32 39  1  0  0  0  0
 32 31  2  0  0  0  0
 33 32  1  0  0  0  0
 34 33  2  0  0  0  0
 34 35  1  0  0  0  0
 35 30  2  0  0  0  0
 36 41  1  0  0  0  0
 37 36  2  0  0  0  0
 38 42  1  0  0  0  0
 38 36  1  0  0  0  0
 40 34  1  0  0  0  0
M  END
>  <minimizedAffinity>
-4.9288578

>  <minimizedRMSD>
5.06488371

$$$$
