
 OpenBabel03252501463D

 23 24  0  0  0  0  0  0  0  0999 V2000
   35.9640   27.2820   39.0480 C   0  0  0  0  0  0  0  0  0  0  0  0
   35.2150   28.4150   39.4240 C   0  0  0  0  0  0  0  0  0  0  0  0
   35.4460   28.9570   40.6760 C   0  0  0  0  0  0  0  0  0  0  0  0
   36.3820   28.3840   41.4950 N   0  0  0  0  0  0  0  0  0  0  0  0
   37.0760   27.2990   41.0910 C   0  0  0  0  0  0  0  0  0  0  0  0
   36.8650   26.7670   39.8920 N   0  0  0  0  0  0  0  0  0  0  0  0
   35.7200   26.9240   38.0570 H   0  0  0  0  0  0  0  0  0  0  0  0
   34.9080   29.8340   41.0440 H   0  0  0  0  0  0  0  0  0  0  0  0
   38.0760   26.6990   41.9850 C   0  0  0  0  0  0  0  0  0  0  0  0
   38.3250   25.3620   41.9520 C   0  0  0  0  0  0  0  0  0  0  0  0
   37.8040   24.7010   41.2770 H   0  0  0  0  0  0  0  0  0  0  0  0
   39.2620   24.7810   42.7850 C   0  0  0  0  0  3  0  0  0  0  0  0
   39.9710   25.5630   43.6790 C   0  0  0  0  0  0  0  0  0  0  0  0
   40.7160   25.1660   44.3560 H   0  0  0  0  0  0  0  0  0  0  0  0
   39.6890   26.9080   43.6790 C   0  0  0  0  0  0  0  0  0  0  0  0
   40.2230   27.5430   44.3610 H   0  0  0  0  0  0  0  0  0  0  0  0
   38.7560   27.5480   42.8620 C   0  0  0  0  0  3  0  0  0  0  0  0
   34.2270   29.0110   38.5460 C   0  0  0  0  0  3  0  0  0  0  0  0
   33.8420   28.5540   37.3720 C   0  0  0  0  0  3  0  0  0  0  0  0
   32.8120   29.2550   36.5510 C   0  0  0  0  0  0  0  0  0  0  0  0
   32.0020   28.5340   36.3290 H   0  0  0  0  0  0  0  0  0  0  0  0
   33.2410   29.7440   35.6700 H   0  0  0  0  0  0  0  0  0  0  0  0
   32.3690   30.0440   37.1930 H   0  0  0  0  0  0  0  0  0  0  0  0
  1  2  2  0  0  0  0
  1  6  1  0  0  0  0
  2  3  1  0  0  0  0
  3  8  1  0  0  0  0
  3  4  2  0  0  0  0
  5  4  1  0  0  0  0
  5  9  1  0  0  0  0
  6  5  2  0  0  0  0
  7  1  1  0  0  0  0
  9 17  1  0  0  0  0
 10  9  2  0  0  0  0
 10 12  1  0  0  0  0
 11 10  1  0  0  0  0
 12 13  2  0  0  0  0
 13 15  1  0  0  0  0
 13 14  1  0  0  0  0
 15 16  1  0  0  0  0
 17 15  2  0  0  0  0
 18  2  1  0  0  0  0
 19 18  2  0  0  0  0
 20 23  1  0  0  0  0
 20 19  1  0  0  0  0
 21 20  1  0  0  0  0
 22 20  1  0  0  0  0
M  END
>  <minimizedAffinity>
-4.43372965

$$$$

 OpenBabel03252501463D

 23 24  0  0  0  0  0  0  0  0999 V2000
   34.4830   29.2610   39.5680 C   0  0  0  0  0  0  0  0  0  0  0  0
   34.5670   28.5870   38.3330 C   0  0  0  0  0  0  0  0  0  0  0  0
   35.5230   27.5950   38.2020 C   0  0  0  0  0  0  0  0  0  0  0  0
   36.3420   27.3050   39.2610 N   0  0  0  0  0  0  0  0  0  0  0  0
   36.2220   27.9780   40.4260 C   0  0  0  0  0  0  0  0  0  0  0  0
   35.3100   28.9320   40.5660 N   0  0  0  0  0  0  0  0  0  0  0  0
   33.7110   30.0190   39.5830 H   0  0  0  0  0  0  0  0  0  0  0  0
   35.6540   27.0250   37.2800 H   0  0  0  0  0  0  0  0  0  0  0  0
   37.1100   27.6510   41.5490 C   0  0  0  0  0  0  0  0  0  0  0  0
   37.8250   26.4940   41.5580 C   0  0  0  0  0  0  0  0  0  0  0  0
   37.7660   25.7820   40.7490 H   0  0  0  0  0  0  0  0  0  0  0  0
   38.6660   26.1700   42.6050 C   0  0  0  0  0  3  0  0  0  0  0  0
   38.7940   27.0330   43.6800 C   0  0  0  0  0  0  0  0  0  0  0  0
   39.4350   26.8340   44.5280 H   0  0  0  0  0  0  0  0  0  0  0  0
   38.0550   28.1900   43.6320 C   0  0  0  0  0  0  0  0  0  0  0  0
   38.1320   28.8810   44.4500 H   0  0  0  0  0  0  0  0  0  0  0  0
   37.1920   28.5680   42.6010 C   0  0  0  0  0  3  0  0  0  0  0  0
   33.6940   28.9050   37.2200 C   0  0  0  0  0  3  0  0  0  0  0  0
   32.4360   29.2880   37.2940 C   0  0  0  0  0  3  0  0  0  0  0  0
   31.6300   29.5890   36.0760 C   0  0  0  0  0  0  0  0  0  0  0  0
   31.2300   30.6170   36.1740 H   0  0  0  0  0  0  0  0  0  0  0  0
   30.8720   28.8240   35.8750 H   0  0  0  0  0  0  0  0  0  0  0  0
   32.3330   29.6010   35.2170 H   0  0  0  0  0  0  0  0  0  0  0  0
  1  7  1  0  0  0  0
  1  6  1  0  0  0  0
  2  1  2  0  0  0  0
  3  2  1  0  0  0  0
  3  4  2  0  0  0  0
  4  5  1  0  0  0  0
  5  6  2  0  0  0  0
  5  9  1  0  0  0  0
  8  3  1  0  0  0  0
  9 10  2  0  0  0  0
  9 17  1  0  0  0  0
 10 12  1  0  0  0  0
 11 10  1  0  0  0  0
 12 13  2  0  0  0  0
 13 14  1  0  0  0  0
 15 13  1  0  0  0  0
 15 16  1  0  0  0  0
 17 15  2  0  0  0  0
 18 19  2  0  0  0  0
 18  2  1  0  0  0  0
 20 21  1  0  0  0  0
 20 19  1  0  0  0  0
 22 20  1  0  0  0  0
 23 20  1  0  0  0  0
M  END
>  <minimizedAffinity>
-4.42564774

$$$$

 OpenBabel03252501463D

 23 24  0  0  0  0  0  0  0  0999 V2000
   38.6100   29.8040   40.0540 C   0  0  0  0  0  0  0  0  0  0  0  0
   37.4650   30.4710   40.5340 C   0  0  0  0  0  0  0  0  0  0  0  0
   36.7620   29.8840   41.5720 C   0  0  0  0  0  0  0  0  0  0  0  0
   37.1970   28.6930   42.0890 N   0  0  0  0  0  0  0  0  0  0  0  0
   38.3010   28.0920   41.5960 C   0  0  0  0  0  0  0  0  0  0  0  0
   38.9850   28.6430   40.6010 N   0  0  0  0  0  0  0  0  0  0  0  0
   39.0980   30.3320   39.2450 H   0  0  0  0  0  0  0  0  0  0  0  0
   35.8650   30.3350   42.0010 H   0  0  0  0  0  0  0  0  0  0  0  0
   38.7500   26.8140   42.1660 C   0  0  0  0  0  0  0  0  0  0  0  0
   38.2110   25.6370   41.7450 C   0  0  0  0  0  0  0  0  0  0  0  0
   37.4440   25.6010   40.9870 H   0  0  0  0  0  0  0  0  0  0  0  0
   38.6220   24.4260   42.2690 C   0  0  0  0  0  3  0  0  0  0  0  0
   39.6020   24.3920   43.2450 C   0  0  0  0  0  0  0  0  0  0  0  0
   39.9630   23.4760   43.6920 H   0  0  0  0  0  0  0  0  0  0  0  0
   40.1190   25.6030   43.6410 C   0  0  0  0  0  0  0  0  0  0  0  0
   40.8820   25.6110   44.3960 H   0  0  0  0  0  0  0  0  0  0  0  0
   39.7440   26.8540   43.1470 C   0  0  0  0  0  3  0  0  0  0  0  0
   37.0170   31.7320   39.9760 C   0  0  0  0  0  3  0  0  0  0  0  0
   37.6820   32.8690   39.9700 C   0  0  0  0  0  3  0  0  0  0  0  0
   37.1190   34.1100   39.3640 C   0  0  0  0  0  0  0  0  0  0  0  0
   37.8370   34.4800   38.6070 H   0  0  0  0  0  0  0  0  0  0  0  0
   36.8310   34.8500   40.1180 H   0  0  0  0  0  0  0  0  0  0  0  0
   36.2020   33.8140   38.8140 H   0  0  0  0  0  0  0  0  0  0  0  0
  1  2  2  0  0  0  0
  1  6  1  0  0  0  0
  2  3  1  0  0  0  0
  3  8  1  0  0  0  0
  3  4  2  0  0  0  0
  5  4  1  0  0  0  0
  5  9  1  0  0  0  0
  6  5  2  0  0  0  0
  7  1  1  0  0  0  0
  9 17  1  0  0  0  0
 10  9  2  0  0  0  0
 10 12  1  0  0  0  0
 11 10  1  0  0  0  0
 12 13  2  0  0  0  0
 13 15  1  0  0  0  0
 13 14  1  0  0  0  0
 15 16  1  0  0  0  0
 17 15  2  0  0  0  0
 18  2  1  0  0  0  0
 19 18  2  0  0  0  0
 20 19  1  0  0  0  0
 20 22  1  0  0  0  0
 21 20  1  0  0  0  0
 23 20  1  0  0  0  0
M  END
>  <minimizedAffinity>
-4.42225456

$$$$

 OpenBabel03252501463D

 23 24  0  0  0  0  0  0  0  0999 V2000
   37.8680   27.8230   39.9270 C   0  0  0  0  0  0  0  0  0  0  0  0
   37.2970   27.3340   41.1190 C   0  0  0  0  0  0  0  0  0  0  0  0
   36.9580   28.2510   42.0980 C   0  0  0  0  0  0  0  0  0  0  0  0
   37.1850   29.5840   41.8790 N   0  0  0  0  0  0  0  0  0  0  0  0
   37.7340   30.0050   40.7190 C   0  0  0  0  0  0  0  0  0  0  0  0
   38.0640   29.1360   39.7710 N   0  0  0  0  0  0  0  0  0  0  0  0
   38.1010   27.0390   39.2190 H   0  0  0  0  0  0  0  0  0  0  0  0
   36.5120   27.9560   43.0500 H   0  0  0  0  0  0  0  0  0  0  0  0
   37.9690   31.4390   40.5030 C   0  0  0  0  0  0  0  0  0  0  0  0
   37.0820   32.1910   39.7960 C   0  0  0  0  0  0  0  0  0  0  0  0
   36.1850   31.7660   39.3740 H   0  0  0  0  0  0  0  0  0  0  0  0
   37.2860   33.5410   39.5840 C   0  0  0  0  0  3  0  0  0  0  0  0
   38.4140   34.1580   40.0950 C   0  0  0  0  0  0  0  0  0  0  0  0
   38.6280   35.2100   39.9610 H   0  0  0  0  0  0  0  0  0  0  0  0
   39.2830   33.3630   40.8020 C   0  0  0  0  0  0  0  0  0  0  0  0
   40.1690   33.8110   41.2120 H   0  0  0  0  0  0  0  0  0  0  0  0
   39.1290   31.9970   41.0480 C   0  0  0  0  0  3  0  0  0  0  0  0
   37.0630   25.9190   41.3380 C   0  0  0  0  0  3  0  0  0  0  0  0
   37.6810   24.9200   40.7440 C   0  0  0  0  0  3  0  0  0  0  0  0
   37.3550   23.4970   41.0490 C   0  0  0  0  0  0  0  0  0  0  0  0
   38.2900   22.9890   41.3560 H   0  0  0  0  0  0  0  0  0  0  0  0
   36.8180   23.0060   40.2300 H   0  0  0  0  0  0  0  0  0  0  0  0
   36.6890   23.5000   41.9360 H   0  0  0  0  0  0  0  0  0  0  0  0
  1  2  1  0  0  0  0
  2 18  1  0  0  0  0
  2  3  2  0  0  0  0
  3  8  1  0  0  0  0
  4  3  1  0  0  0  0
  5  4  2  0  0  0  0
  6  1  2  0  0  0  0
  6  5  1  0  0  0  0
  7  1  1  0  0  0  0
  9  5  1  0  0  0  0
  9 17  1  0  0  0  0
 10  9  2  0  0  0  0
 11 10  1  0  0  0  0
 12 10  1  0  0  0  0
 12 13  2  0  0  0  0
 13 15  1  0  0  0  0
 14 13  1  0  0  0  0
 15 17  2  0  0  0  0
 15 16  1  0  0  0  0
 19 20  1  0  0  0  0
 19 18  2  0  0  0  0
 20 21  1  0  0  0  0
 20 23  1  0  0  0  0
 22 20  1  0  0  0  0
M  END
>  <minimizedAffinity>
-4.36881876

$$$$

 OpenBabel03252501463D

 23 24  0  0  0  0  0  0  0  0999 V2000
   37.7530   29.5490   39.2600 C   0  0  0  0  0  0  0  0  0  0  0  0
   36.9820   30.4220   40.0530 C   0  0  0  0  0  0  0  0  0  0  0  0
   36.1990   29.8690   41.0510 C   0  0  0  0  0  0  0  0  0  0  0  0
   36.2020   28.5110   41.2330 N   0  0  0  0  0  0  0  0  0  0  0  0
   36.9600   27.7150   40.4480 C   0  0  0  0  0  0  0  0  0  0  0  0
   37.7150   28.2320   39.4870 N   0  0  0  0  0  0  0  0  0  0  0  0
   38.3330   30.0650   38.5060 H   0  0  0  0  0  0  0  0  0  0  0  0
   35.5720   30.4750   41.7080 H   0  0  0  0  0  0  0  0  0  0  0  0
   36.9480   26.2610   40.6600 C   0  0  0  0  0  0  0  0  0  0  0  0
   36.5870   25.4150   39.6580 C   0  0  0  0  0  0  0  0  0  0  0  0
   36.2990   25.7760   38.6830 H   0  0  0  0  0  0  0  0  0  0  0  0
   36.5720   24.0450   39.8390 C   0  0  0  0  0  3  0  0  0  0  0  0
   36.9280   23.5050   41.0620 C   0  0  0  0  0  0  0  0  0  0  0  0
   36.9350   22.4430   41.2640 H   0  0  0  0  0  0  0  0  0  0  0  0
   37.2860   24.3950   42.0470 C   0  0  0  0  0  0  0  0  0  0  0  0
   37.5690   24.0080   43.0080 H   0  0  0  0  0  0  0  0  0  0  0  0
   37.3210   25.7850   41.9200 C   0  0  0  0  0  3  0  0  0  0  0  0
   36.9880   31.8580   39.8480 C   0  0  0  0  0  3  0  0  0  0  0  0
   37.9450   32.6950   40.1910 C   0  0  0  0  0  3  0  0  0  0  0  0
   37.8430   34.1610   39.9300 C   0  0  0  0  0  0  0  0  0  0  0  0
   38.7290   34.4670   39.3410 H   0  0  0  0  0  0  0  0  0  0  0  0
   37.6820   34.7380   40.8460 H   0  0  0  0  0  0  0  0  0  0  0  0
   36.9590   34.3120   39.2760 H   0  0  0  0  0  0  0  0  0  0  0  0
  1  6  2  0  0  0  0
  1  2  1  0  0  0  0
  2  3  2  0  0  0  0
  3  4  1  0  0  0  0
  3  8  1  0  0  0  0
  5  9  1  0  0  0  0
  5  4  2  0  0  0  0
  6  5  1  0  0  0  0
  7  1  1  0  0  0  0
  9 17  1  0  0  0  0
 10 12  1  0  0  0  0
 10  9  2  0  0  0  0
 11 10  1  0  0  0  0
 12 13  2  0  0  0  0
 13 14  1  0  0  0  0
 13 15  1  0  0  0  0
 15 16  1  0  0  0  0
 17 15  2  0  0  0  0
 18  2  1  0  0  0  0
 18 19  2  0  0  0  0
 20 19  1  0  0  0  0
 20 22  1  0  0  0  0
 21 20  1  0  0  0  0
 23 20  1  0  0  0  0
M  END
>  <minimizedAffinity>
-4.24336624

$$$$

 OpenBabel03252501463D

 23 24  0  0  0  0  0  0  0  0999 V2000
   38.3690   27.8510   40.8970 C   0  0  0  0  0  0  0  0  0  0  0  0
   37.1880   27.2560   40.4090 C   0  0  0  0  0  0  0  0  0  0  0  0
   36.2250   28.0850   39.8610 C   0  0  0  0  0  0  0  0  0  0  0  0
   36.4490   29.4350   39.8110 N   0  0  0  0  0  0  0  0  0  0  0  0
   37.5980   29.9590   40.2910 C   0  0  0  0  0  0  0  0  0  0  0  0
   38.5300   29.1760   40.8200 N   0  0  0  0  0  0  0  0  0  0  0  0
   39.0650   27.1320   41.3080 H   0  0  0  0  0  0  0  0  0  0  0  0
   35.2830   27.7050   39.4610 H   0  0  0  0  0  0  0  0  0  0  0  0
   37.8180   31.4100   40.2270 C   0  0  0  0  0  0  0  0  0  0  0  0
   38.8070   31.9960   40.9550 C   0  0  0  0  0  0  0  0  0  0  0  0
   39.4570   31.4230   41.5980 H   0  0  0  0  0  0  0  0  0  0  0  0
   39.0300   33.3590   40.9070 C   0  0  0  0  0  3  0  0  0  0  0  0
   38.2370   34.1610   40.1050 C   0  0  0  0  0  0  0  0  0  0  0  0
   38.3630   35.2320   40.0270 H   0  0  0  0  0  0  0  0  0  0  0  0
   37.2500   33.5290   39.3870 C   0  0  0  0  0  0  0  0  0  0  0  0
   36.6180   34.1230   38.7540 H   0  0  0  0  0  0  0  0  0  0  0  0
   36.9810   32.1590   39.3960 C   0  0  0  0  0  3  0  0  0  0  0  0
   36.9650   25.8250   40.4700 C   0  0  0  0  0  3  0  0  0  0  0  0
   37.7350   24.9340   41.0580 C   0  0  0  0  0  3  0  0  0  0  0  0
   37.4040   23.4790   41.0560 C   0  0  0  0  0  0  0  0  0  0  0  0
   37.3720   23.1330   42.1070 H   0  0  0  0  0  0  0  0  0  0  0  0
   38.0690   22.9000   40.4060 H   0  0  0  0  0  0  0  0  0  0  0  0
   36.3740   23.3820   40.6570 H   0  0  0  0  0  0  0  0  0  0  0  0
  1  7  1  0  0  0  0
  2 18  1  0  0  0  0
  2  1  2  0  0  0  0
  3  2  1  0  0  0  0
  4  3  2  0  0  0  0
  4  5  1  0  0  0  0
  5  6  2  0  0  0  0
  6  1  1  0  0  0  0
  8  3  1  0  0  0  0
  9  5  1  0  0  0  0
  9 10  1  0  0  0  0
 10 11  1  0  0  0  0
 12 10  2  0  0  0  0
 13 12  1  0  0  0  0
 14 13  1  0  0  0  0
 15 17  1  0  0  0  0
 15 13  2  0  0  0  0
 16 15  1  0  0  0  0
 17  9  2  0  0  0  0
 18 19  2  0  0  0  0
 20 19  1  0  0  0  0
 20 21  1  0  0  0  0
 22 20  1  0  0  0  0
 23 20  1  0  0  0  0
M  END
>  <minimizedAffinity>
-4.12226439

$$$$

 OpenBabel03252501463D

 23 24  0  0  0  0  0  0  0  0999 V2000
   36.0410   29.4110   37.3930 C   0  0  0  0  0  0  0  0  0  0  0  0
   35.0570   28.7540   38.1580 C   0  0  0  0  0  0  0  0  0  0  0  0
   34.8870   29.1510   39.4720 C   0  0  0  0  0  0  0  0  0  0  0  0
   35.6700   30.1550   39.9780 N   0  0  0  0  0  0  0  0  0  0  0  0
   36.6000   30.7560   39.2050 C   0  0  0  0  0  0  0  0  0  0  0  0
   36.7740   30.3850   37.9420 N   0  0  0  0  0  0  0  0  0  0  0  0
   36.1060   29.0390   36.3790 H   0  0  0  0  0  0  0  0  0  0  0  0
   34.1470   28.6940   40.1330 H   0  0  0  0  0  0  0  0  0  0  0  0
   37.4280   31.8310   39.7670 C   0  0  0  0  0  0  0  0  0  0  0  0
   37.2060   33.1310   39.4280 C   0  0  0  0  0  0  0  0  0  0  0  0
   36.4220   33.4140   38.7430 H   0  0  0  0  0  0  0  0  0  0  0  0
   37.9740   34.1550   39.9470 C   0  0  0  0  0  3  0  0  0  0  0  0
   38.9990   33.8700   40.8320 C   0  0  0  0  0  0  0  0  0  0  0  0
   39.6340   34.6280   41.2700 H   0  0  0  0  0  0  0  0  0  0  0  0
   39.1890   32.5460   41.1480 C   0  0  0  0  0  0  0  0  0  0  0  0
   39.9760   32.2910   41.8320 H   0  0  0  0  0  0  0  0  0  0  0  0
   38.4450   31.4720   40.6560 C   0  0  0  0  0  3  0  0  0  0  0  0
   34.2360   27.6920   37.6090 C   0  0  0  0  0  3  0  0  0  0  0  0
   34.6420   26.4920   37.2490 C   0  0  0  0  0  3  0  0  0  0  0  0
   33.7030   25.4750   36.6930 C   0  0  0  0  0  0  0  0  0  0  0  0
   33.7790   24.5620   37.3140 H   0  0  0  0  0  0  0  0  0  0  0  0
   33.8530   25.3090   35.6210 H   0  0  0  0  0  0  0  0  0  0  0  0
   32.6760   25.8710   36.8330 H   0  0  0  0  0  0  0  0  0  0  0  0
  1  6  2  0  0  0  0
  1  2  1  0  0  0  0
  2  3  2  0  0  0  0
  3  4  1  0  0  0  0
  3  8  1  0  0  0  0
  5  9  1  0  0  0  0
  5  4  2  0  0  0  0
  6  5  1  0  0  0  0
  7  1  1  0  0  0  0
  9 17  1  0  0  0  0
 10  9  2  0  0  0  0
 10 12  1  0  0  0  0
 11 10  1  0  0  0  0
 12 13  2  0  0  0  0
 13 15  1  0  0  0  0
 13 14  1  0  0  0  0
 15 16  1  0  0  0  0
 17 15  2  0  0  0  0
 18  2  1  0  0  0  0
 19 18  2  0  0  0  0
 20 23  1  0  0  0  0
 20 19  1  0  0  0  0
 20 21  1  0  0  0  0
 22 20  1  0  0  0  0
M  END
>  <minimizedAffinity>
-4.04401255

$$$$

 OpenBabel03252501463D

 23 24  0  0  0  0  0  0  0  0999 V2000
   37.8590   28.6460   37.2650 C   0  0  0  0  0  0  0  0  0  0  0  0
   36.6540   29.2670   36.8790 C   0  0  0  0  0  0  0  0  0  0  0  0
   35.5060   28.9400   37.5790 C   0  0  0  0  0  0  0  0  0  0  0  0
   35.5780   28.0380   38.6070 N   0  0  0  0  0  0  0  0  0  0  0  0
   36.7560   27.4700   38.9400 C   0  0  0  0  0  0  0  0  0  0  0  0
   37.8660   27.7730   38.2780 N   0  0  0  0  0  0  0  0  0  0  0  0
   38.7050   28.9580   36.6670 H   0  0  0  0  0  0  0  0  0  0  0  0
   34.5320   29.3760   37.3440 H   0  0  0  0  0  0  0  0  0  0  0  0
   36.8120   26.5050   40.0460 C   0  0  0  0  0  0  0  0  0  0  0  0
   36.5320   25.1890   39.8370 C   0  0  0  0  0  0  0  0  0  0  0  0
   36.2630   24.8120   38.8620 H   0  0  0  0  0  0  0  0  0  0  0  0
   36.5810   24.2670   40.8650 C   0  0  0  0  0  3  0  0  0  0  0  0
   36.9180   24.6750   42.1430 C   0  0  0  0  0  0  0  0  0  0  0  0
   36.9710   24.0010   42.9870 H   0  0  0  0  0  0  0  0  0  0  0  0
   37.1920   26.0110   42.3110 C   0  0  0  0  0  0  0  0  0  0  0  0
   37.4580   26.3600   43.2910 H   0  0  0  0  0  0  0  0  0  0  0  0
   37.1600   26.9850   41.3110 C   0  0  0  0  0  3  0  0  0  0  0  0
   36.5940   30.2200   35.7880 C   0  0  0  0  0  3  0  0  0  0  0  0
   36.2120   29.9760   34.5520 C   0  0  0  0  0  3  0  0  0  0  0  0
   36.1900   31.0400   33.5070 C   0  0  0  0  0  0  0  0  0  0  0  0
   35.1680   31.0850   33.0840 H   0  0  0  0  0  0  0  0  0  0  0  0
   36.9850   30.9130   32.7650 H   0  0  0  0  0  0  0  0  0  0  0  0
   36.3620   32.0060   34.0250 H   0  0  0  0  0  0  0  0  0  0  0  0
  1  6  1  0  0  0  0
  2  1  2  0  0  0  0
  2  3  1  0  0  0  0
  3  4  2  0  0  0  0
  4  5  1  0  0  0  0
  5  9  1  0  0  0  0
  6  5  2  0  0  0  0
  7  1  1  0  0  0  0
  8  3  1  0  0  0  0
  9 17  1  0  0  0  0
 10  9  2  0  0  0  0
 10 12  1  0  0  0  0
 11 10  1  0  0  0  0
 12 13  2  0  0  0  0
 13 15  1  0  0  0  0
 13 14  1  0  0  0  0
 15 16  1  0  0  0  0
 17 15  2  0  0  0  0
 18  2  1  0  0  0  0
 19 18  2  0  0  0  0
 20 23  1  0  0  0  0
 20 19  1  0  0  0  0
 21 20  1  0  0  0  0
 22 20  1  0  0  0  0
M  END
>  <minimizedAffinity>
-4.03933764

$$$$

 OpenBabel03252501463D

 23 24  0  0  0  0  0  0  0  0999 V2000
   35.4730   29.0320   40.8190 C   0  0  0  0  0  0  0  0  0  0  0  0
   36.7550   28.4500   40.7590 C   0  0  0  0  0  0  0  0  0  0  0  0
   37.2260   28.0510   39.5200 C   0  0  0  0  0  0  0  0  0  0  0  0
   36.4430   28.2330   38.4120 N   0  0  0  0  0  0  0  0  0  0  0  0
   35.2210   28.7970   38.5190 C   0  0  0  0  0  0  0  0  0  0  0  0
   34.7560   29.1850   39.7010 N   0  0  0  0  0  0  0  0  0  0  0  0
   35.1840   29.3140   41.8230 H   0  0  0  0  0  0  0  0  0  0  0  0
   38.2080   27.5920   39.3870 H   0  0  0  0  0  0  0  0  0  0  0  0
   34.3970   28.9840   37.3180 C   0  0  0  0  0  0  0  0  0  0  0  0
   33.0430   29.0850   37.4110 C   0  0  0  0  0  0  0  0  0  0  0  0
   32.5320   29.0310   38.3600 H   0  0  0  0  0  0  0  0  0  0  0  0
   32.2530   29.2620   36.2920 C   0  0  0  0  0  3  0  0  0  0  0  0
   32.8350   29.3390   35.0390 C   0  0  0  0  0  0  0  0  0  0  0  0
   32.2690   29.4760   34.1280 H   0  0  0  0  0  0  0  0  0  0  0  0
   34.2050   29.2330   34.9900 C   0  0  0  0  0  0  0  0  0  0  0  0
   34.6880   29.2900   34.0330 H   0  0  0  0  0  0  0  0  0  0  0  0
   35.0520   29.0550   36.0850 C   0  0  0  0  0  3  0  0  0  0  0  0
   37.5730   28.2630   41.9420 C   0  0  0  0  0  3  0  0  0  0  0  0
   37.9840   27.1150   42.4390 C   0  0  0  0  0  3  0  0  0  0  0  0
   38.8250   27.0430   43.6680 C   0  0  0  0  0  0  0  0  0  0  0  0
   39.7460   26.4800   43.4220 H   0  0  0  0  0  0  0  0  0  0  0  0
   38.2720   26.6570   44.5310 H   0  0  0  0  0  0  0  0  0  0  0  0
   39.1410   28.0800   43.9060 H   0  0  0  0  0  0  0  0  0  0  0  0
  1  7  1  0  0  0  0
  2  1  1  0  0  0  0
  2 18  1  0  0  0  0
  3  2  2  0  0  0  0
  4  5  2  0  0  0  0
  4  3  1  0  0  0  0
  5  6  1  0  0  0  0
  6  1  2  0  0  0  0
  8  3  1  0  0  0  0
  9 10  1  0  0  0  0
  9  5  1  0  0  0  0
 10 11  1  0  0  0  0
 12 10  2  0  0  0  0
 13 12  1  0  0  0  0
 14 13  1  0  0  0  0
 15 13  2  0  0  0  0
 15 17  1  0  0  0  0
 16 15  1  0  0  0  0
 17  9  2  0  0  0  0
 18 19  2  0  0  0  0
 19 20  1  0  0  0  0
 20 23  1  0  0  0  0
 20 22  1  0  0  0  0
 21 20  1  0  0  0  0
M  END
>  <minimizedAffinity>
-3.98715734

$$$$
