
 OpenBabel03252509163D

 25 27  0  0  0  0  0  0  0  0999 V2000
   46.8530   32.5490   43.1000 C   0  0  0  0  0  0  0  0  0  0  0  0
   45.8250   31.6740   42.6640 C   0  0  0  0  0  0  0  0  0  0  0  0
   45.3090   30.8060   43.5540 C   0  0  0  0  0  0  0  0  0  0  0  0
   45.7980   30.7900   44.8800 C   0  0  0  0  0  0  0  0  0  0  0  0
   47.0740   32.0970   44.8500 S   0  0  0  0  0  0  0  0  0  0  0  0
   45.4780   31.7170   41.6400 H   0  0  0  0  0  0  0  0  0  0  0  0
   44.5380   30.0970   43.3590 H   0  0  0  0  0  0  0  0  0  0  0  0
   47.9790   34.6820   40.2950 C   0  0  0  0  0  0  0  0  0  0  0  0
   48.9130   35.5050   40.9800 C   0  0  0  0  0  0  0  0  0  0  0  0
   49.1140   35.2990   42.3490 C   0  0  0  0  0  0  0  0  0  0  0  0
   48.3900   34.3060   42.9440 N   0  0  0  0  0  0  0  0  0  0  0  0
   47.5120   33.5470   42.2530 C   0  0  0  0  0  0  0  0  0  0  0  0
   47.3010   33.7300   40.9240 N   0  0  0  0  0  0  0  0  0  0  0  0
   47.8310   34.8520   39.2310 H   0  0  0  0  0  0  0  0  0  0  0  0
   49.4780   36.2900   40.4850 H   0  0  0  0  0  0  0  0  0  0  0  0
   49.8010   35.8760   42.9430 H   0  0  0  0  0  0  0  0  0  0  0  0
   45.4620   29.9970   46.0500 C   0  0  0  0  0  0  0  0  0  0  0  0
   45.5580   30.6310   47.2650 C   0  0  0  0  0  0  0  0  0  0  0  0
   45.8650   31.6600   47.3680 H   0  0  0  0  0  0  0  0  0  0  0  0
   45.2250   29.8330   48.3640 C   0  0  0  0  0  3  0  0  0  0  0  0
   44.8300   28.5020   48.1850 C   0  0  0  0  0  0  0  0  0  0  0  0
   44.5940   27.9730   49.1010 H   0  0  0  0  0  0  0  0  0  0  0  0
   44.7590   27.9370   46.9200 C   0  0  0  0  0  0  0  0  0  0  0  0
   44.4510   26.9070   46.8220 H   0  0  0  0  0  0  0  0  0  0  0  0
   45.0840   28.7030   45.7950 C   0  0  0  0  0  3  0  0  0  0  0  0
  1  5  1  0  0  0  0
  2  1  2  0  0  0  0
  2  3  1  0  0  0  0
  3  4  2  0  0  0  0
  4 17  1  0  0  0  0
  5  4  1  0  0  0  0
  6  2  1  0  0  0  0
  7  3  1  0  0  0  0
  8 13  2  0  0  0  0
  8  9  1  0  0  0  0
  9 10  2  0  0  0  0
 10 16  1  0  0  0  0
 10 11  1  0  0  0  0
 12 11  2  0  0  0  0
 12  1  1  0  0  0  0
 13 12  1  0  0  0  0
 14  8  1  0  0  0  0
 15  9  1  0  0  0  0
 17 18  1  0  0  0  0
 18 19  1  0  0  0  0
 18 20  2  0  0  0  0
 21 20  1  0  0  0  0
 21 22  1  0  0  0  0
 23 21  2  0  0  0  0
 24 23  1  0  0  0  0
 25 17  2  0  0  0  0
 25 23  1  0  0  0  0
M  END
>  <minimizedAffinity>
-3.91947246

>  <minimizedRMSD>
4.20150661

$$$$
