
 OpenBabel03252503023D

 33 34  0  0  0  0  0  0  0  0999 V2000
   40.9600   32.8570   40.9000 C   0  0  0  0  0  0  0  0  0  0  0  0
   42.1850   33.3400   40.5000 C   0  0  0  0  0  0  0  0  0  0  0  0
   42.4710   33.5610   39.1570 C   0  0  0  0  0  0  0  0  0  0  0  0
   41.4790   33.2710   38.2800 N   0  0  0  0  0  0  0  0  0  0  0  0
   40.2990   32.8040   38.6820 C   0  0  0  0  0  0  0  0  0  0  0  0
   40.0210   32.5920   39.9710 N   0  0  0  0  0  0  0  0  0  0  0  0
   40.8270   32.7180   41.9660 H   0  0  0  0  0  0  0  0  0  0  0  0
   43.4390   33.9370   38.8980 H   0  0  0  0  0  0  0  0  0  0  0  0
   39.2580   32.5060   37.7020 C   0  0  0  0  0  0  0  0  0  0  0  0
   39.1660   31.2660   37.0790 C   0  0  0  0  0  0  0  0  0  0  0  0
   39.8980   30.5140   37.3450 H   0  0  0  0  0  0  0  0  0  0  0  0
   38.2200   30.9100   36.1500 C   0  0  0  0  0  0  0  0  0  0  0  0
   37.2860   31.8820   35.8180 C   0  0  0  0  0  0  0  0  0  0  0  0
   36.5190   31.6460   35.0880 H   0  0  0  0  0  0  0  0  0  0  0  0
   37.3340   33.1270   36.4050 C   0  0  0  0  0  0  0  0  0  0  0  0
   36.6270   33.9170   36.1770 H   0  0  0  0  0  0  0  0  0  0  0  0
   38.2970   33.4550   37.3360 C   0  0  0  0  0  0  0  0  0  0  0  0
   43.4590   33.7030   41.7400 S   0  0  0  0  0  0  0  0  0  0  0  0
   43.5350   35.4730   42.0240 C   0  0  0  0  0  0  0  0  0  0  0  0
   42.7360   36.0170   41.4710 H   0  0  0  0  0  0  0  0  0  0  0  0
   44.4870   35.9260   41.6960 H   0  0  0  0  0  0  0  0  0  0  0  0
   43.2930   35.6760   43.4510 N   0  0  0  0  0  0  0  0  0  0  0  0
   42.6840   36.4780   43.6500 H   0  0  0  0  0  0  0  0  0  0  0  0
   44.7490   35.8550   44.3410 S   0  0  0  0  0  0  0  0  0  0  0  0
   45.9420   35.3740   43.5760 O   0  0  0  0  0  0  0  0  0  0  0  0
   45.9360   34.4300   43.2230 H   0  0  0  0  0  0  0  0  0  0  0  0
   44.8710   37.3420   44.6240 O   0  0  0  0  0  0  0  0  0  0  0  0
   45.7550   37.7300   44.8190 H   0  0  0  0  0  0  0  0  0  0  0  0
   44.6270   35.1020   45.8100 O   0  0  0  0  0  0  0  0  0  0  0  0
   45.4030   33.9570   45.9010 C   0  0  0  0  0  0  0  0  0  0  0  0
   44.7460   33.0760   45.6810 H   0  0  0  0  0  0  0  0  0  0  0  0
   45.7710   33.8680   46.9620 H   0  0  0  0  0  0  0  0  0  0  0  0
   46.2930   33.9570   45.2620 H   0  0  0  0  0  0  0  0  0  0  0  0
  1  7  1  0  0  0  0
  2  1  1  0  0  0  0
  2 18  1  0  0  0  0
  3  2  2  0  0  0  0
  4  5  2  0  0  0  0
  4  3  1  0  0  0  0
  5  6  1  0  0  0  0
  6  1  2  0  0  0  0
  8  3  1  0  0  0  0
  9  5  1  0  0  0  0
 10 11  1  0  0  0  0
 10  9  2  0  0  0  0
 12 10  1  0  0  0  0
 13 12  2  0  0  0  0
 13 15  1  0  0  0  0
 14 13  1  0  0  0  0
 15 17  2  0  0  0  0
 16 15  1  0  0  0  0
 17  9  1  0  0  0  0
 18 19  1  0  0  0  0
 19 22  1  0  0  0  0
 20 19  1  0  0  0  0
 21 19  1  0  0  0  0
 22 23  1  0  0  0  0
 22 24  1  0  0  0  0
 24 27  1  0  0  0  0
 24 29  1  0  0  0  0
 25 24  1  0  0  0  0
 26 25  1  0  0  0  0
 27 28  1  0  0  0  0
 29 30  1  0  0  0  0
 30 32  1  0  0  0  0
 31 30  1  0  0  0  0
 33 30  1  0  0  0  0
M  END
>  <minimizedAffinity>
-4.33797264

>  <minimizedRMSD>
2.4256053

$$$$
