
 OpenBabel03242520383D

 35 38  0  0  1  0  0  0  0  0999 V2000
   36.8990   27.5410   42.9700 C   0  0  0  0  0  0  0  0  0  0  0  0
   37.0560   26.5730   41.9090 C   0  0  0  0  0  0  0  0  0  0  0  0
   37.4710   27.0450   40.6920 C   0  0  0  0  0  0  0  0  0  0  0  0
   37.7140   28.3690   40.5300 N   0  0  0  0  0  0  0  0  0  0  0  0
   37.5580   29.2500   41.5450 C   0  0  0  0  0  0  0  0  0  0  0  0
   37.1490   28.8230   42.7610 N   0  0  0  0  0  0  0  0  0  0  0  0
   36.5740   27.2010   43.9430 H   0  0  0  0  0  0  0  0  0  0  0  0
   37.5890   26.3290   39.8970 H   0  0  0  0  0  0  0  0  0  0  0  0
   36.7650   25.1330   42.1230 C   0  0  1  0  0  0  0  0  0  0  0  0
   37.2530   24.1250   41.2320 C   0  0  0  0  0  0  0  0  0  0  0  0
   37.9430   24.2260   42.5290 C   0  0  1  0  0  0  0  0  0  0  0  0
   35.8970   24.9610   42.8100 H   0  0  0  0  0  0  0  0  0  0  0  0
   36.6860   23.1710   41.0050 H   0  0  0  0  0  0  0  0  0  0  0  0
   37.8540   24.4080   40.3340 H   0  0  0  0  0  0  0  0  0  0  0  0
   37.7250   23.3890   43.2480 H   0  0  0  0  0  0  0  0  0  0  0  0
   39.3040   24.7850   42.6930 C   0  0  0  0  0  0  0  0  0  0  0  0
   39.3160   25.8640   43.5610 F   0  0  0  0  0  0  0  0  0  0  0  0
   39.8510   25.1780   41.4680 F   0  0  0  0  0  0  0  0  0  0  0  0
   40.0860   23.8070   43.2570 F   0  0  0  0  0  0  0  0  0  0  0  0
   37.8500   30.6920   41.2830 C   0  0  2  0  0  0  0  0  0  0  0  0
   36.7660   31.3790   40.4740 C   0  0  0  0  0  0  0  0  0  0  0  0
   38.1320   31.1510   39.8940 C   0  0  1  0  0  0  0  0  0  0  0  0
   38.3480   31.2140   42.1160 H   0  0  0  0  0  0  0  0  0  0  0  0
   35.9670   30.7820   40.0270 H   0  0  0  0  0  0  0  0  0  0  0  0
   36.4690   32.3970   40.7910 H   0  0  0  0  0  0  0  0  0  0  0  0
   38.2530   30.4210   39.0770 H   0  0  0  0  0  0  0  0  0  0  0  0
   38.9540   32.3860   39.8060 C   0  0  0  0  0  0  0  0  0  0  0  0
   38.6050   33.5670   40.4280 C   0  0  0  0  0  0  0  0  0  0  0  0
   37.6920   33.6170   41.0150 H   0  0  0  0  0  0  0  0  0  0  0  0
   39.3820   34.7200   40.3390 C   0  0  0  0  0  3  0  0  0  0  0  0
   40.5450   34.6790   39.6000 C   0  0  0  0  0  0  0  0  0  0  0  0
   41.1370   35.5930   39.5440 H   0  0  0  0  0  0  0  0  0  0  0  0
   40.9140   33.5080   38.9680 C   0  0  0  0  0  0  0  0  0  0  0  0
   41.8280   33.5510   38.4120 H   0  0  0  0  0  0  0  0  0  0  0  0
   40.1240   32.3760   39.0720 C   0  0  0  0  0  3  0  0  0  0  0  0
  1  7  1  0  0  0  0
  2  9  1  0  0  0  0
  2  1  2  0  0  0  0
  3  2  1  0  0  0  0
  4  3  2  0  0  0  0
  4  5  1  0  0  0  0
  5  6  2  0  0  0  0
  6  1  1  0  0  0  0
  8  3  1  0  0  0  0
  9 11  1  0  0  0  0
  9 12  1  1  0  0  0
 10  9  1  0  0  0  0
 10 11  1  0  0  0  0
 11 16  1  0  0  0  0
 11 15  1  1  0  0  0
 13 10  1  0  0  0  0
 14 10  1  0  0  0  0
 16 19  1  0  0  0  0
 16 17  1  0  0  0  0
 18 16  1  0  0  0  0
 20  5  1  0  0  0  0
 20 23  1  1  0  0  0
 21 25  1  0  0  0  0
 21 20  1  0  0  0  0
 22 26  1  6  0  0  0
 22 21  1  0  0  0  0
 22 20  1  0  0  0  0
 24 21  1  0  0  0  0
 27 22  1  0  0  0  0
 27 28  1  0  0  0  0
 28 29  1  0  0  0  0
 30 28  2  0  0  0  0
 31 30  1  0  0  0  0
 32 31  1  0  0  0  0
 33 35  1  0  0  0  0
 33 31  2  0  0  0  0
 34 33  1  0  0  0  0
 35 27  2  0  0  0  0
M  END
>  <minimizedAffinity>
-5.77290821

$$$$

 OpenBabel03242520383D

 35 38  0  0  1  0  0  0  0  0999 V2000
   38.3290   32.5240   40.4510 C   0  0  0  0  0  0  0  0  0  0  0  0
   39.6990   32.8590   40.7640 C   0  0  0  0  0  0  0  0  0  0  0  0
   40.4440   31.9020   41.4010 C   0  0  0  0  0  0  0  0  0  0  0  0
   39.8850   30.7050   41.7070 N   0  0  0  0  0  0  0  0  0  0  0  0
   38.5970   30.4230   41.4000 C   0  0  0  0  0  0  0  0  0  0  0  0
   37.8290   31.3410   40.7710 N   0  0  0  0  0  0  0  0  0  0  0  0
   37.7150   33.2570   39.9480 H   0  0  0  0  0  0  0  0  0  0  0  0
   41.4650   32.1450   41.6370 H   0  0  0  0  0  0  0  0  0  0  0  0
   40.2700   34.1870   40.4250 C   0  0  1  0  0  0  0  0  0  0  0  0
   41.6810   34.4270   40.4440 C   0  0  0  0  0  0  0  0  0  0  0  0
   41.0680   34.2980   39.1100 C   0  0  1  0  0  0  0  0  0  0  0  0
   39.5170   35.0130   40.4850 H   0  0  0  0  0  0  0  0  0  0  0  0
   42.1350   35.4260   40.7260 H   0  0  0  0  0  0  0  0  0  0  0  0
   42.3890   33.6140   40.7380 H   0  0  0  0  0  0  0  0  0  0  0  0
   40.9800   35.2610   38.5350 H   0  0  0  0  0  0  0  0  0  0  0  0
   41.2500   33.1190   38.2350 C   0  0  0  0  0  0  0  0  0  0  0  0
   40.0370   32.5780   37.8430 F   0  0  0  0  0  0  0  0  0  0  0  0
   42.0130   32.1270   38.8580 F   0  0  0  0  0  0  0  0  0  0  0  0
   41.8860   33.5450   37.0950 F   0  0  0  0  0  0  0  0  0  0  0  0
   38.0590   29.0790   41.7690 C   0  0  2  0  0  0  0  0  0  0  0  0
   37.6190   28.9960   43.2200 C   0  0  0  0  0  0  0  0  0  0  0  0
   38.8070   28.2190   42.7290 C   0  0  1  0  0  0  0  0  0  0  0  0
   37.4750   28.5870   40.9750 H   0  0  0  0  0  0  0  0  0  0  0  0
   37.8510   29.8180   43.9010 H   0  0  0  0  0  0  0  0  0  0  0  0
   36.6680   28.4690   43.4280 H   0  0  0  0  0  0  0  0  0  0  0  0
   39.8140   28.5080   43.0720 H   0  0  0  0  0  0  0  0  0  0  0  0
   38.5470   26.7630   42.5870 C   0  0  0  0  0  0  0  0  0  0  0  0
   39.5140   25.8020   42.8060 C   0  0  0  0  0  0  0  0  0  0  0  0
   40.5170   26.1040   43.0970 H   0  0  0  0  0  0  0  0  0  0  0  0
   39.2610   24.4390   42.6700 C   0  0  0  0  0  3  0  0  0  0  0  0
   37.9960   24.0340   42.3020 C   0  0  0  0  0  0  0  0  0  0  0  0
   37.8200   22.9620   42.2020 H   0  0  0  0  0  0  0  0  0  0  0  0
   37.0130   24.9770   42.0770 C   0  0  0  0  0  0  0  0  0  0  0  0
   36.0560   24.5890   41.7940 H   0  0  0  0  0  0  0  0  0  0  0  0
   37.2900   26.3260   42.2190 C   0  0  0  0  0  3  0  0  0  0  0  0
  1  2  2  0  0  0  0
  1  6  1  0  0  0  0
  2  3  1  0  0  0  0
  3  8  1  0  0  0  0
  3  4  2  0  0  0  0
  5  4  1  0  0  0  0
  5 20  1  0  0  0  0
  6  5  2  0  0  0  0
  7  1  1  0  0  0  0
  9 10  1  0  0  0  0
  9 12  1  1  0  0  0
  9  2  1  0  0  0  0
 10 13  1  0  0  0  0
 10 14  1  0  0  0  0
 11 15  1  6  0  0  0
 11  9  1  0  0  0  0
 11 10  1  0  0  0  0
 16 18  1  0  0  0  0
 16 11  1  0  0  0  0
 17 16  1  0  0  0  0
 19 16  1  0  0  0  0
 20 23  1  6  0  0  0
 20 22  1  0  0  0  0
 20 21  1  0  0  0  0
 21 25  1  0  0  0  0
 21 24  1  0  0  0  0
 22 26  1  1  0  0  0
 22 21  1  0  0  0  0
 27 22  1  0  0  0  0
 27 28  1  0  0  0  0
 28 29  1  0  0  0  0
 30 28  2  0  0  0  0
 31 30  1  0  0  0  0
 32 31  1  0  0  0  0
 33 35  1  0  0  0  0
 33 31  2  0  0  0  0
 34 33  1  0  0  0  0
 35 27  2  0  0  0  0
M  END
>  <minimizedAffinity>
-5.53169823

$$$$

 OpenBabel03242520383D

 35 38  0  0  1  0  0  0  0  0999 V2000
   36.6630   26.8180   40.4070 C   0  0  0  0  0  0  0  0  0  0  0  0
   37.0760   26.0330   41.5480 C   0  0  0  0  0  0  0  0  0  0  0  0
   37.6540   26.7060   42.5910 C   0  0  0  0  0  0  0  0  0  0  0  0
   37.8140   28.0510   42.5190 N   0  0  0  0  0  0  0  0  0  0  0  0
   37.4170   28.7570   41.4350 C   0  0  0  0  0  0  0  0  0  0  0  0
   36.8430   28.1280   40.3840 N   0  0  0  0  0  0  0  0  0  0  0  0
   36.2030   26.3160   39.5670 H   0  0  0  0  0  0  0  0  0  0  0  0
   37.9630   26.1280   43.4430 H   0  0  0  0  0  0  0  0  0  0  0  0
   36.8960   24.5590   41.5820 C   0  0  1  0  0  0  0  0  0  0  0  0
   36.5040   23.8210   40.4200 C   0  0  0  0  0  0  0  0  0  0  0  0
   37.9200   23.7040   40.8090 C   0  0  1  0  0  0  0  0  0  0  0  0
   36.7710   24.1590   42.6200 H   0  0  0  0  0  0  0  0  0  0  0  0
   35.8610   22.8900   40.4650 H   0  0  0  0  0  0  0  0  0  0  0  0
   36.3030   24.3500   39.4560 H   0  0  0  0  0  0  0  0  0  0  0  0
   38.2060   22.7140   41.2590 H   0  0  0  0  0  0  0  0  0  0  0  0
   39.0300   24.3420   40.0670 C   0  0  0  0  0  0  0  0  0  0  0  0
   39.8540   25.0760   40.9050 F   0  0  0  0  0  0  0  0  0  0  0  0
   38.5580   25.1740   39.0480 F   0  0  0  0  0  0  0  0  0  0  0  0
   39.7970   23.3390   39.5280 F   0  0  0  0  0  0  0  0  0  0  0  0
   37.6270   30.2370   41.4360 C   0  0  2  0  0  0  0  0  0  0  0  0
   36.3740   31.0120   41.0720 C   0  0  0  0  0  0  0  0  0  0  0  0
   37.5640   30.9950   40.1550 C   0  0  1  0  0  0  0  0  0  0  0  0
   38.3060   30.6000   42.2240 H   0  0  0  0  0  0  0  0  0  0  0  0
   35.4960   30.4760   40.7040 H   0  0  0  0  0  0  0  0  0  0  0  0
   36.1540   31.9200   41.6660 H   0  0  0  0  0  0  0  0  0  0  0  0
   37.4900   30.4630   39.1920 H   0  0  0  0  0  0  0  0  0  0  0  0
   38.3300   32.2680   40.1520 C   0  0  0  0  0  0  0  0  0  0  0  0
   39.6990   32.3230   40.3240 C   0  0  0  0  0  0  0  0  0  0  0  0
   40.2600   31.4030   40.4690 H   0  0  0  0  0  0  0  0  0  0  0  0
   40.4080   33.5210   40.3190 C   0  0  0  0  0  3  0  0  0  0  0  0
   39.7170   34.7000   40.1350 C   0  0  0  0  0  0  0  0  0  0  0  0
   40.2920   35.6260   40.1360 H   0  0  0  0  0  0  0  0  0  0  0  0
   38.3470   34.6690   39.9620 C   0  0  0  0  0  0  0  0  0  0  0  0
   37.8770   35.6220   39.8260 H   0  0  0  0  0  0  0  0  0  0  0  0
   37.6650   33.4650   39.9710 C   0  0  0  0  0  3  0  0  0  0  0  0
  1  2  1  0  0  0  0
  2  9  1  0  0  0  0
  2  3  2  0  0  0  0
  3  8  1  0  0  0  0
  4  3  1  0  0  0  0
  5 20  1  0  0  0  0
  5  4  2  0  0  0  0
  6  1  2  0  0  0  0
  6  5  1  0  0  0  0
  7  1  1  0  0  0  0
  9 12  1  1  0  0  0
 10 13  1  0  0  0  0
 10 11  1  0  0  0  0
 10  9  1  0  0  0  0
 11 15  1  1  0  0  0
 11  9  1  0  0  0  0
 14 10  1  0  0  0  0
 16 11  1  0  0  0  0
 16 17  1  0  0  0  0
 18 16  1  0  0  0  0
 19 16  1  0  0  0  0
 20 23  1  1  0  0  0
 21 20  1  0  0  0  0
 21 25  1  0  0  0  0
 22 26  1  6  0  0  0
 22 21  1  0  0  0  0
 22 20  1  0  0  0  0
 24 21  1  0  0  0  0
 27 22  1  0  0  0  0
 27 28  1  0  0  0  0
 28 29  1  0  0  0  0
 30 28  2  0  0  0  0
 31 32  1  0  0  0  0
 31 30  1  0  0  0  0
 33 35  1  0  0  0  0
 33 31  2  0  0  0  0
 34 33  1  0  0  0  0
 35 27  2  0  0  0  0
M  END
>  <minimizedAffinity>
-5.42193317

$$$$

 OpenBabel03242520383D

 35 38  0  0  1  0  0  0  0  0999 V2000
   37.5260   29.7960   42.1620 C   0  0  0  0  0  0  0  0  0  0  0  0
   38.6030   30.2250   41.2990 C   0  0  0  0  0  0  0  0  0  0  0  0
   39.0830   29.3100   40.4000 C   0  0  0  0  0  0  0  0  0  0  0  0
   38.5450   28.0660   40.3530 N   0  0  0  0  0  0  0  0  0  0  0  0
   37.5380   27.6950   41.1760 C   0  0  0  0  0  0  0  0  0  0  0  0
   37.0360   28.5700   42.0770 N   0  0  0  0  0  0  0  0  0  0  0  0
   37.1240   30.4950   42.8820 H   0  0  0  0  0  0  0  0  0  0  0  0
   39.8840   29.6230   39.7550 H   0  0  0  0  0  0  0  0  0  0  0  0
   39.1740   31.5930   41.3920 C   0  0  1  0  0  0  0  0  0  0  0  0
   39.8690   32.1950   40.2960 C   0  0  0  0  0  0  0  0  0  0  0  0
   38.5060   32.6970   40.5480 C   0  0  1  0  0  0  0  0  0  0  0  0
   39.2960   31.9430   42.4490 H   0  0  0  0  0  0  0  0  0  0  0  0
   40.7330   32.9140   40.4300 H   0  0  0  0  0  0  0  0  0  0  0  0
   40.0140   31.6320   39.3410 H   0  0  0  0  0  0  0  0  0  0  0  0
   38.4570   33.7270   40.9950 H   0  0  0  0  0  0  0  0  0  0  0  0
   37.3450   32.3880   39.6830 C   0  0  0  0  0  0  0  0  0  0  0  0
   36.3060   31.8200   40.4010 F   0  0  0  0  0  0  0  0  0  0  0  0
   37.6960   31.5340   38.6340 F   0  0  0  0  0  0  0  0  0  0  0  0
   36.8810   33.5770   39.1770 F   0  0  0  0  0  0  0  0  0  0  0  0
   36.9990   26.3060   41.0570 C   0  0  2  0  0  0  0  0  0  0  0  0
   37.1080   25.5170   42.3490 C   0  0  0  0  0  0  0  0  0  0  0  0
   37.9260   25.1430   41.1460 C   0  0  1  0  0  0  0  0  0  0  0  0
   36.1090   26.2150   40.4150 H   0  0  0  0  0  0  0  0  0  0  0  0
   37.6770   25.9290   43.1860 H   0  0  0  0  0  0  0  0  0  0  0  0
   36.2380   24.8950   42.6340 H   0  0  0  0  0  0  0  0  0  0  0  0
   39.0170   25.2960   41.1710 H   0  0  0  0  0  0  0  0  0  0  0  0
   37.4450   23.9160   40.4590 C   0  0  0  0  0  0  0  0  0  0  0  0
   38.1980   22.7620   40.3650 C   0  0  0  0  0  0  0  0  0  0  0  0
   39.1910   22.7290   40.8080 H   0  0  0  0  0  0  0  0  0  0  0  0
   37.7390   21.6170   39.7190 C   0  0  0  0  0  3  0  0  0  0  0  0
   36.4830   21.6360   39.1510 C   0  0  0  0  0  0  0  0  0  0  0  0
   36.1440   20.7280   38.6500 H   0  0  0  0  0  0  0  0  0  0  0  0
   35.7120   22.7780   39.2310 C   0  0  0  0  0  0  0  0  0  0  0  0
   34.7490   22.7200   38.7670 H   0  0  0  0  0  0  0  0  0  0  0  0
   36.1920   23.9040   39.8790 C   0  0  0  0  0  3  0  0  0  0  0  0
  1  7  1  0  0  0  0
  2  9  1  0  0  0  0
  2  1  2  0  0  0  0
  3  2  1  0  0  0  0
  4  3  2  0  0  0  0
  4  5  1  0  0  0  0
  5  6  2  0  0  0  0
  6  1  1  0  0  0  0
  8  3  1  0  0  0  0
  9 12  1  1  0  0  0
 10 13  1  0  0  0  0
 10 11  1  0  0  0  0
 10  9  1  0  0  0  0
 11 15  1  1  0  0  0
 11  9  1  0  0  0  0
 14 10  1  0  0  0  0
 16 17  1  0  0  0  0
 16 11  1  0  0  0  0
 18 16  1  0  0  0  0
 19 16  1  0  0  0  0
 20 23  1  6  0  0  0
 20 22  1  0  0  0  0
 20  5  1  0  0  0  0
 20 21  1  0  0  0  0
 21 25  1  0  0  0  0
 21 24  1  0  0  0  0
 22 26  1  1  0  0  0
 22 21  1  0  0  0  0
 27 22  1  0  0  0  0
 28 27  1  0  0  0  0
 28 29  1  0  0  0  0
 30 28  2  0  0  0  0
 31 33  2  0  0  0  0
 31 30  1  0  0  0  0
 32 31  1  0  0  0  0
 33 35  1  0  0  0  0
 34 33  1  0  0  0  0
 35 27  2  0  0  0  0
M  END
>  <minimizedAffinity>
-5.23742485

$$$$

 OpenBabel03242520383D

 35 38  0  0  1  0  0  0  0  0999 V2000
   40.0080   31.7840   40.7910 C   0  0  0  0  0  0  0  0  0  0  0  0
   39.5590   32.8320   39.9030 C   0  0  0  0  0  0  0  0  0  0  0  0
   38.4160   32.5930   39.1870 C   0  0  0  0  0  0  0  0  0  0  0  0
   37.7630   31.4140   39.3340 N   0  0  0  0  0  0  0  0  0  0  0  0
   38.2100   30.4530   40.1740 C   0  0  0  0  0  0  0  0  0  0  0  0
   39.3350   30.6500   40.8980 N   0  0  0  0  0  0  0  0  0  0  0  0
   40.9060   31.9410   41.3710 H   0  0  0  0  0  0  0  0  0  0  0  0
   38.0760   33.3690   38.5240 H   0  0  0  0  0  0  0  0  0  0  0  0
   40.3110   34.1040   39.7610 C   0  0  1  0  0  0  0  0  0  0  0  0
   41.6980   34.2010   40.1000 C   0  0  0  0  0  0  0  0  0  0  0  0
   41.3880   34.1680   38.6600 C   0  0  1  0  0  0  0  0  0  0  0  0
   39.6430   35.0000   39.6930 H   0  0  0  0  0  0  0  0  0  0  0  0
   42.1690   35.1410   40.5210 H   0  0  0  0  0  0  0  0  0  0  0  0
   42.2450   33.3130   40.5030 H   0  0  0  0  0  0  0  0  0  0  0  0
   41.5200   35.1490   38.1260 H   0  0  0  0  0  0  0  0  0  0  0  0
   41.6500   32.9990   37.7900 C   0  0  0  0  0  0  0  0  0  0  0  0
   40.5160   32.6070   37.1000 F   0  0  0  0  0  0  0  0  0  0  0  0
   42.1390   31.9120   38.5210 F   0  0  0  0  0  0  0  0  0  0  0  0
   42.5790   33.3820   36.8540 F   0  0  0  0  0  0  0  0  0  0  0  0
   37.4300   29.1830   40.2790 C   0  0  2  0  0  0  0  0  0  0  0  0
   36.3620   29.2330   41.3560 C   0  0  0  0  0  0  0  0  0  0  0  0
   37.5570   28.3340   41.4970 C   0  0  1  0  0  0  0  0  0  0  0  0
   37.2350   28.6860   39.3160 H   0  0  0  0  0  0  0  0  0  0  0  0
   36.3320   30.0770   42.0480 H   0  0  0  0  0  0  0  0  0  0  0  0
   35.3750   28.7960   41.1080 H   0  0  0  0  0  0  0  0  0  0  0  0
   38.3140   28.5650   42.2650 H   0  0  0  0  0  0  0  0  0  0  0  0
   37.2480   26.8960   41.2840 C   0  0  0  0  0  0  0  0  0  0  0  0
   37.1520   25.9860   42.3170 C   0  0  0  0  0  0  0  0  0  0  0  0
   37.3060   26.3160   43.3420 H   0  0  0  0  0  0  0  0  0  0  0  0
   36.8620   24.6400   42.1070 C   0  0  0  0  0  3  0  0  0  0  0  0
   36.6630   24.1990   40.8160 C   0  0  0  0  0  0  0  0  0  0  0  0
   36.4380   23.1410   40.6750 H   0  0  0  0  0  0  0  0  0  0  0  0
   36.7550   25.0910   39.7670 C   0  0  0  0  0  0  0  0  0  0  0  0
   36.5890   24.6780   38.7920 H   0  0  0  0  0  0  0  0  0  0  0  0
   37.0440   26.4240   40.0020 C   0  0  0  0  0  3  0  0  0  0  0  0
  1  6  1  0  0  0  0
  1  7  1  0  0  0  0
  2  1  2  0  0  0  0
  3  4  2  0  0  0  0
  3  2  1  0  0  0  0
  4  5  1  0  0  0  0
  5 20  1  0  0  0  0
  5  6  2  0  0  0  0
  8  3  1  0  0  0  0
  9 12  1  1  0  0  0
  9  2  1  0  0  0  0
  9 10  1  0  0  0  0
 10 14  1  0  0  0  0
 10 13  1  0  0  0  0
 11 15  1  6  0  0  0
 11  9  1  0  0  0  0
 11 10  1  0  0  0  0
 16 18  1  0  0  0  0
 16 11  1  0  0  0  0
 17 16  1  0  0  0  0
 19 16  1  0  0  0  0
 20 23  1  6  0  0  0
 20 21  1  0  0  0  0
 20 22  1  0  0  0  0
 21 22  1  0  0  0  0
 21 24  1  0  0  0  0
 22 26  1  1  0  0  0
 25 21  1  0  0  0  0
 27 22  1  0  0  0  0
 27 28  1  0  0  0  0
 28 29  1  0  0  0  0
 30 28  2  0  0  0  0
 31 30  1  0  0  0  0
 32 31  1  0  0  0  0
 33 35  1  0  0  0  0
 33 31  2  0  0  0  0
 34 33  1  0  0  0  0
 35 27  2  0  0  0  0
M  END
>  <minimizedAffinity>
-5.17093563

$$$$

 OpenBabel03242520383D

 35 38  0  0  1  0  0  0  0  0999 V2000
   37.8610   28.3400   43.0530 C   0  0  0  0  0  0  0  0  0  0  0  0
   38.6570   27.1590   42.8110 C   0  0  0  0  0  0  0  0  0  0  0  0
   38.6670   26.6660   41.5330 C   0  0  0  0  0  0  0  0  0  0  0  0
   37.9470   27.2870   40.5660 N   0  0  0  0  0  0  0  0  0  0  0  0
   37.2110   28.3920   40.8260 C   0  0  0  0  0  0  0  0  0  0  0  0
   37.1760   28.9090   42.0750 N   0  0  0  0  0  0  0  0  0  0  0  0
   37.8330   28.7550   44.0510 H   0  0  0  0  0  0  0  0  0  0  0  0
   39.2570   25.7870   41.3460 H   0  0  0  0  0  0  0  0  0  0  0  0
   39.4190   26.5000   43.9020 C   0  0  1  0  0  0  0  0  0  0  0  0
   40.4480   25.5430   43.6300 C   0  0  0  0  0  0  0  0  0  0  0  0
   40.9060   26.8780   44.0540 C   0  0  1  0  0  0  0  0  0  0  0  0
   38.9050   26.5670   44.8940 H   0  0  0  0  0  0  0  0  0  0  0  0
   40.6720   24.6650   44.3080 H   0  0  0  0  0  0  0  0  0  0  0  0
   40.6880   25.2550   42.5770 H   0  0  0  0  0  0  0  0  0  0  0  0
   41.3200   26.9260   45.0980 H   0  0  0  0  0  0  0  0  0  0  0  0
   41.5330   27.8590   43.1400 C   0  0  0  0  0  0  0  0  0  0  0  0
   40.8280   29.0500   43.1020 F   0  0  0  0  0  0  0  0  0  0  0  0
   41.6470   27.3540   41.8420 F   0  0  0  0  0  0  0  0  0  0  0  0
   42.7800   28.1460   43.6370 F   0  0  0  0  0  0  0  0  0  0  0  0
   36.4500   29.0180   39.7020 C   0  0  2  0  0  0  0  0  0  0  0  0
   35.0330   29.4000   40.0890 C   0  0  0  0  0  0  0  0  0  0  0  0
   35.2920   28.2980   39.1010 C   0  0  1  0  0  0  0  0  0  0  0  0
   37.0530   29.6710   39.0510 H   0  0  0  0  0  0  0  0  0  0  0  0
   34.6300   29.0760   41.0510 H   0  0  0  0  0  0  0  0  0  0  0  0
   34.6610   30.3790   39.7300 H   0  0  0  0  0  0  0  0  0  0  0  0
   35.0680   27.2580   39.3890 H   0  0  0  0  0  0  0  0  0  0  0  0
   34.9910   28.6770   37.6960 C   0  0  0  0  0  0  0  0  0  0  0  0
   35.9650   29.0510   36.7930 C   0  0  0  0  0  0  0  0  0  0  0  0
   37.0070   29.0770   37.1040 H   0  0  0  0  0  0  0  0  0  0  0  0
   35.6730   29.4040   35.4770 C   0  0  0  0  0  3  0  0  0  0  0  0
   34.3590   29.3780   35.0610 C   0  0  0  0  0  0  0  0  0  0  0  0
   34.1540   29.6580   34.0270 H   0  0  0  0  0  0  0  0  0  0  0  0
   33.3680   29.0070   35.9470 C   0  0  0  0  0  0  0  0  0  0  0  0
   32.3710   29.0110   35.5540 H   0  0  0  0  0  0  0  0  0  0  0  0
   33.6840   28.6610   37.2490 C   0  0  0  0  0  3  0  0  0  0  0  0
  1  7  1  0  0  0  0
  2  1  1  0  0  0  0
  2  9  1  0  0  0  0
  3  2  2  0  0  0  0
  4  5  2  0  0  0  0
  4  3  1  0  0  0  0
  5  6  1  0  0  0  0
  6  1  2  0  0  0  0
  8  3  1  0  0  0  0
  9 11  1  0  0  0  0
  9 12  1  1  0  0  0
 10  9  1  0  0  0  0
 10 11  1  0  0  0  0
 10 13  1  0  0  0  0
 11 15  1  1  0  0  0
 14 10  1  0  0  0  0
 16 19  1  0  0  0  0
 16 11  1  0  0  0  0
 17 16  1  0  0  0  0
 18 16  1  0  0  0  0
 20 23  1  6  0  0  0
 20 21  1  0  0  0  0
 20  5  1  0  0  0  0
 21 24  1  0  0  0  0
 22 26  1  1  0  0  0
 22 20  1  0  0  0  0
 22 21  1  0  0  0  0
 25 21  1  0  0  0  0
 27 22  1  0  0  0  0
 28 29  1  0  0  0  0
 28 27  2  0  0  0  0
 30 28  1  0  0  0  0
 31 30  2  0  0  0  0
 31 33  1  0  0  0  0
 32 31  1  0  0  0  0
 33 35  2  0  0  0  0
 34 33  1  0  0  0  0
 35 27  1  0  0  0  0
M  END
>  <minimizedAffinity>
-5.16188812

$$$$

 OpenBabel03242520383D

 35 38  0  0  1  0  0  0  0  0999 V2000
   33.0440   28.8210   35.2480 C   0  0  0  0  0  0  0  0  0  0  0  0
   31.6630   29.1890   35.4620 C   0  0  0  0  0  0  0  0  0  0  0  0
   31.2800   29.4490   36.7510 C   0  0  0  0  0  0  0  0  0  0  0  0
   32.1870   29.3550   37.7560 N   0  0  0  0  0  0  0  0  0  0  0  0
   33.4730   29.0070   37.5220 C   0  0  0  0  0  0  0  0  0  0  0  0
   33.8900   28.7420   36.2630 N   0  0  0  0  0  0  0  0  0  0  0  0
   33.3780   28.6110   34.2430 H   0  0  0  0  0  0  0  0  0  0  0  0
   30.2540   29.7240   36.9170 H   0  0  0  0  0  0  0  0  0  0  0  0
   30.6980   29.2670   34.3370 C   0  0  1  0  0  0  0  0  0  0  0  0
   29.4590   29.9740   34.4550 C   0  0  0  0  0  0  0  0  0  0  0  0
   30.5070   30.6410   33.6630 C   0  0  1  0  0  0  0  0  0  0  0  0
   30.8710   28.4820   33.5580 H   0  0  0  0  0  0  0  0  0  0  0  0
   28.5110   29.6570   33.9220 H   0  0  0  0  0  0  0  0  0  0  0  0
   29.1810   30.4710   35.4160 H   0  0  0  0  0  0  0  0  0  0  0  0
   30.3280   30.6480   32.5520 H   0  0  0  0  0  0  0  0  0  0  0  0
   31.2630   31.8240   34.1320 C   0  0  0  0  0  0  0  0  0  0  0  0
   30.9650   32.9530   33.3890 F   0  0  0  0  0  0  0  0  0  0  0  0
   32.6420   31.6030   34.0940 F   0  0  0  0  0  0  0  0  0  0  0  0
   30.8710   32.0780   35.4230 F   0  0  0  0  0  0  0  0  0  0  0  0
   34.4100   28.9290   38.6840 C   0  0  2  0  0  0  0  0  0  0  0  0
   35.7560   29.5700   38.4020 C   0  0  0  0  0  0  0  0  0  0  0  0
   35.6340   28.0850   38.5930 C   0  0  1  0  0  0  0  0  0  0  0  0
   33.9260   29.0420   39.6670 H   0  0  0  0  0  0  0  0  0  0  0  0
   36.0000   29.8880   37.3860 H   0  0  0  0  0  0  0  0  0  0  0  0
   36.1970   30.1900   39.2060 H   0  0  0  0  0  0  0  0  0  0  0  0
   35.7920   27.4190   37.7290 H   0  0  0  0  0  0  0  0  0  0  0  0
   36.1550   27.6090   39.9010 C   0  0  0  0  0  0  0  0  0  0  0  0
   36.1060   28.3690   41.0520 C   0  0  0  0  0  0  0  0  0  0  0  0
   35.6700   29.3640   41.0220 H   0  0  0  0  0  0  0  0  0  0  0  0
   36.5970   27.9130   42.2730 C   0  0  0  0  0  3  0  0  0  0  0  0
   37.1540   26.6540   42.3350 C   0  0  0  0  0  0  0  0  0  0  0  0
   37.5320   26.3190   43.3010 H   0  0  0  0  0  0  0  0  0  0  0  0
   37.2140   25.8760   41.1960 C   0  0  0  0  0  0  0  0  0  0  0  0
   37.6610   24.9100   41.3190 H   0  0  0  0  0  0  0  0  0  0  0  0
   36.7190   26.3520   39.9940 C   0  0  0  0  0  3  0  0  0  0  0  0
  1  2  2  0  0  0  0
  1  6  1  0  0  0  0
  2  3  1  0  0  0  0
  3  8  1  0  0  0  0
  3  4  2  0  0  0  0
  5  4  1  0  0  0  0
  5 20  1  0  0  0  0
  6  5  2  0  0  0  0
  7  1  1  0  0  0  0
  9 12  1  6  0  0  0
  9 10  1  0  0  0  0
  9  2  1  0  0  0  0
 10 14  1  0  0  0  0
 11 15  1  6  0  0  0
 11 16  1  0  0  0  0
 11  9  1  0  0  0  0
 11 10  1  0  0  0  0
 13 10  1  0  0  0  0
 16 19  1  0  0  0  0
 17 16  1  0  0  0  0
 18 16  1  0  0  0  0
 20 23  1  1  0  0  0
 21 22  1  0  0  0  0
 21 20  1  0  0  0  0
 21 25  1  0  0  0  0
 22 26  1  6  0  0  0
 22 20  1  0  0  0  0
 22 27  1  0  0  0  0
 24 21  1  0  0  0  0
 27 35  2  0  0  0  0
 27 28  1  0  0  0  0
 28 30  2  0  0  0  0
 29 28  1  0  0  0  0
 30 31  1  0  0  0  0
 31 32  1  0  0  0  0
 33 34  1  0  0  0  0
 33 31  2  0  0  0  0
 35 33  1  0  0  0  0
M  END
>  <minimizedAffinity>
-5.14625549

$$$$

 OpenBabel03242520383D

 35 38  0  0  1  0  0  0  0  0999 V2000
   36.4380   26.4030   39.1900 C   0  0  0  0  0  0  0  0  0  0  0  0
   37.5250   26.3330   40.1390 C   0  0  0  0  0  0  0  0  0  0  0  0
   38.5770   27.1890   39.9450 C   0  0  0  0  0  0  0  0  0  0  0  0
   38.5610   28.0500   38.8970 N   0  0  0  0  0  0  0  0  0  0  0  0
   37.5260   28.0900   38.0260 C   0  0  0  0  0  0  0  0  0  0  0  0
   36.4700   27.2610   38.1830 N   0  0  0  0  0  0  0  0  0  0  0  0
   35.5920   25.7420   39.3160 H   0  0  0  0  0  0  0  0  0  0  0  0
   39.3900   27.1420   40.6480 H   0  0  0  0  0  0  0  0  0  0  0  0
   37.5110   25.3650   41.2650 C   0  0  1  0  0  0  0  0  0  0  0  0
   38.4630   25.4370   42.3310 C   0  0  0  0  0  0  0  0  0  0  0  0
   37.1010   25.9000   42.6510 C   0  0  1  0  0  0  0  0  0  0  0  0
   36.9380   24.4330   41.0310 H   0  0  0  0  0  0  0  0  0  0  0  0
   38.8550   24.5240   42.8750 H   0  0  0  0  0  0  0  0  0  0  0  0
   39.2580   26.2220   42.3270 H   0  0  0  0  0  0  0  0  0  0  0  0
   36.5100   25.2100   43.3150 H   0  0  0  0  0  0  0  0  0  0  0  0
   36.7400   27.3240   42.8350 C   0  0  0  0  0  0  0  0  0  0  0  0
   36.1120   27.5430   44.0500 F   0  0  0  0  0  0  0  0  0  0  0  0
   35.9150   27.7840   41.8050 F   0  0  0  0  0  0  0  0  0  0  0  0
   37.9080   28.0460   42.8510 F   0  0  0  0  0  0  0  0  0  0  0  0
   37.5850   29.0710   36.9000 C   0  0  2  0  0  0  0  0  0  0  0  0
   37.0880   30.4510   37.2910 C   0  0  0  0  0  0  0  0  0  0  0  0
   36.3230   29.6030   36.3150 C   0  0  1  0  0  0  0  0  0  0  0  0
   38.4570   28.9530   36.2380 H   0  0  0  0  0  0  0  0  0  0  0  0
   36.6030   30.5950   38.2590 H   0  0  0  0  0  0  0  0  0  0  0  0
   37.6690   31.3180   36.9240 H   0  0  0  0  0  0  0  0  0  0  0  0
   35.3470   29.1880   36.6160 H   0  0  0  0  0  0  0  0  0  0  0  0
   36.4400   30.0650   34.9070 C   0  0  0  0  0  0  0  0  0  0  0  0
   36.5000   31.3980   34.5560 C   0  0  0  0  0  0  0  0  0  0  0  0
   36.4610   32.1620   35.3290 H   0  0  0  0  0  0  0  0  0  0  0  0
   36.6100   31.8210   33.2330 C   0  0  0  0  0  3  0  0  0  0  0  0
   36.6610   30.8710   32.2360 C   0  0  0  0  0  0  0  0  0  0  0  0
   36.7470   31.2250   31.2080 H   0  0  0  0  0  0  0  0  0  0  0  0
   36.6020   29.5310   32.5640 C   0  0  0  0  0  0  0  0  0  0  0  0
   36.6470   28.8500   31.7380 H   0  0  0  0  0  0  0  0  0  0  0  0
   36.4930   29.1370   33.8860 C   0  0  0  0  0  3  0  0  0  0  0  0
  1  7  1  0  0  0  0
  1  2  1  0  0  0  0
  2  9  1  0  0  0  0
  3  2  2  0  0  0  0
  3  8  1  0  0  0  0
  4  3  1  0  0  0  0
  5  6  1  0  0  0  0
  5  4  2  0  0  0  0
  6  1  2  0  0  0  0
  9 12  1  6  0  0  0
  9 10  1  0  0  0  0
  9 11  1  0  0  0  0
 10 11  1  0  0  0  0
 10 13  1  0  0  0  0
 11 16  1  0  0  0  0
 11 15  1  1  0  0  0
 14 10  1  0  0  0  0
 16 19  1  0  0  0  0
 16 17  1  0  0  0  0
 18 16  1  0  0  0  0
 20 23  1  6  0  0  0
 20 21  1  0  0  0  0
 20  5  1  0  0  0  0
 21 24  1  0  0  0  0
 22 26  1  1  0  0  0
 22 20  1  0  0  0  0
 22 21  1  0  0  0  0
 25 21  1  0  0  0  0
 27 22  1  0  0  0  0
 28 27  1  0  0  0  0
 28 29  1  0  0  0  0
 30 28  2  0  0  0  0
 31 33  2  0  0  0  0
 31 30  1  0  0  0  0
 32 31  1  0  0  0  0
 33 35  1  0  0  0  0
 34 33  1  0  0  0  0
 35 27  2  0  0  0  0
M  END
>  <minimizedAffinity>
-4.89561367

$$$$

 OpenBabel03242520383D

 35 38  0  0  1  0  0  0  0  0999 V2000
   40.2180   28.2510   42.7040 C   0  0  0  0  0  0  0  0  0  0  0  0
   38.8080   28.4060   42.9830 C   0  0  0  0  0  0  0  0  0  0  0  0
   38.2710   29.6520   42.7960 C   0  0  0  0  0  0  0  0  0  0  0  0
   39.0590   30.6690   42.3670 N   0  0  0  0  0  0  0  0  0  0  0  0
   40.3760   30.4900   42.1150 C   0  0  0  0  0  0  0  0  0  0  0  0
   40.9440   29.2750   42.2870 N   0  0  0  0  0  0  0  0  0  0  0  0
   40.6730   27.2800   42.8410 H   0  0  0  0  0  0  0  0  0  0  0  0
   37.2220   29.7750   43.0020 H   0  0  0  0  0  0  0  0  0  0  0  0
   37.9830   27.2710   43.4650 C   0  0  1  0  0  0  0  0  0  0  0  0
   36.5540   27.3400   43.5020 C   0  0  0  0  0  0  0  0  0  0  0  0
   37.1310   26.5220   42.4210 C   0  0  1  0  0  0  0  0  0  0  0  0
   38.5660   26.5370   44.0780 H   0  0  0  0  0  0  0  0  0  0  0  0
   35.9280   26.8180   44.2880 H   0  0  0  0  0  0  0  0  0  0  0  0
   36.0250   28.2710   43.1820 H   0  0  0  0  0  0  0  0  0  0  0  0
   37.0130   25.4110   42.5540 H   0  0  0  0  0  0  0  0  0  0  0  0
   37.1460   26.9330   40.9990 C   0  0  0  0  0  0  0  0  0  0  0  0
   36.4620   26.0350   40.1970 F   0  0  0  0  0  0  0  0  0  0  0  0
   38.4510   27.0740   40.5170 F   0  0  0  0  0  0  0  0  0  0  0  0
   36.4870   28.1340   40.9100 F   0  0  0  0  0  0  0  0  0  0  0  0
   41.1730   31.6620   41.6410 C   0  0  2  0  0  0  0  0  0  0  0  0
   41.2380   31.7610   40.1280 C   0  0  0  0  0  0  0  0  0  0  0  0
   42.4650   31.4420   40.9330 C   0  0  1  0  0  0  0  0  0  0  0  0
   41.0670   32.5670   42.2610 H   0  0  0  0  0  0  0  0  0  0  0  0
   40.8560   30.9400   39.5170 H   0  0  0  0  0  0  0  0  0  0  0  0
   41.1220   32.7690   39.6840 H   0  0  0  0  0  0  0  0  0  0  0  0
   42.9020   30.4310   40.8650 H   0  0  0  0  0  0  0  0  0  0  0  0
   43.4240   32.5720   41.0290 C   0  0  0  0  0  0  0  0  0  0  0  0
   44.3900   32.8230   40.0750 C   0  0  0  0  0  0  0  0  0  0  0  0
   44.4680   32.1750   39.2050 H   0  0  0  0  0  0  0  0  0  0  0  0
   45.2840   33.8860   40.1740 C   0  0  0  0  0  3  0  0  0  0  0  0
   45.2020   34.7210   41.2680 C   0  0  0  0  0  0  0  0  0  0  0  0
   45.9130   35.5460   41.3250 H   0  0  0  0  0  0  0  0  0  0  0  0
   44.2450   34.4890   42.2350 C   0  0  0  0  0  0  0  0  0  0  0  0
   44.2410   35.1770   43.0560 H   0  0  0  0  0  0  0  0  0  0  0  0
   43.3670   33.4260   42.1130 C   0  0  0  0  0  3  0  0  0  0  0  0
  1  7  1  0  0  0  0
  1  2  1  0  0  0  0
  2  9  1  0  0  0  0
  3  2  2  0  0  0  0
  3  8  1  0  0  0  0
  4  3  1  0  0  0  0
  5  6  1  0  0  0  0
  5  4  2  0  0  0  0
  6  1  2  0  0  0  0
  9 10  1  0  0  0  0
  9 12  1  1  0  0  0
 10 13  1  0  0  0  0
 11 15  1  1  0  0  0
 11  9  1  0  0  0  0
 11 10  1  0  0  0  0
 14 10  1  0  0  0  0
 16 11  1  0  0  0  0
 17 16  1  0  0  0  0
 18 16  1  0  0  0  0
 19 16  1  0  0  0  0
 20  5  1  0  0  0  0
 20 23  1  1  0  0  0
 21 22  1  0  0  0  0
 21 20  1  0  0  0  0
 22 26  1  6  0  0  0
 22 27  1  0  0  0  0
 22 20  1  0  0  0  0
 24 21  1  0  0  0  0
 25 21  1  0  0  0  0
 27 35  1  0  0  0  0
 28 30  1  0  0  0  0
 28 27  2  0  0  0  0
 29 28  1  0  0  0  0
 30 31  2  0  0  0  0
 31 32  1  0  0  0  0
 31 33  1  0  0  0  0
 33 34  1  0  0  0  0
 35 33  2  0  0  0  0
M  END
>  <minimizedAffinity>
-4.87401819

$$$$
