
 OpenBabel03252508393D

 41 44  0  0  0  0  0  0  0  0999 V2000
   45.1500   33.9490   40.6980 C   0  0  0  0  0  0  0  0  0  0  0  0
   44.1010   33.6310   39.8730 C   0  0  0  0  0  0  0  0  0  0  0  0
   44.3990   33.1480   38.6370 C   0  0  0  0  0  0  0  0  0  0  0  0
   45.6850   32.9620   38.1760 C   0  0  0  0  0  0  0  0  0  0  0  0
   46.7130   33.2900   39.0260 C   0  0  0  0  0  0  0  0  0  0  0  0
   46.4640   33.7850   40.2880 C   0  0  0  0  0  0  0  0  0  0  0  0
   43.5700   32.8950   37.9820 H   0  0  0  0  0  0  0  0  0  0  0  0
   45.9060   32.5760   37.1900 H   0  0  0  0  0  0  0  0  0  0  0  0
   47.7360   33.1470   38.6710 H   0  0  0  0  0  0  0  0  0  0  0  0
   40.8260   35.2710   40.7820 C   0  0  0  0  0  0  0  0  0  0  0  0
   42.1170   35.0950   40.2660 C   0  0  0  0  0  0  0  0  0  0  0  0
   42.7650   33.8430   40.3980 C   0  0  0  0  0  0  0  0  0  0  0  0
   42.0580   32.8750   41.0380 N   0  0  0  0  0  0  0  0  0  0  0  0
   40.8280   33.0710   41.5210 C   0  0  0  0  0  0  0  0  0  0  0  0
   40.2130   34.2570   41.3970 N   0  0  0  0  0  0  0  0  0  0  0  0
   40.2150   36.5260   40.6340 N   0  0  0  0  0  0  0  0  0  0  0  0
   42.6670   35.8860   39.7540 H   0  0  0  0  0  0  0  0  0  0  0  0
   40.3980   32.2010   42.0050 H   0  0  0  0  0  0  0  0  0  0  0  0
   39.2980   36.4060   40.1780 H   0  0  0  0  0  0  0  0  0  0  0  0
   40.8240   37.3030   41.0190 H   0  0  0  0  0  0  0  0  0  0  0  0
   47.6250   34.1060   41.1090 C   0  0  0  0  0  0  0  0  0  0  0  0
   48.1400   35.3660   40.9470 C   0  0  0  0  0  0  0  0  0  0  0  0
   49.2450   35.8360   41.6520 C   0  0  0  0  0  0  0  0  0  0  0  0
   49.8430   34.9900   42.5530 C   0  0  0  0  0  0  0  0  0  0  0  0
   49.3440   33.7210   42.7320 C   0  0  0  0  0  0  0  0  0  0  0  0
   48.2450   33.2860   42.0150 C   0  0  0  0  0  0  0  0  0  0  0  0
   47.7330   36.1090   40.2560 H   0  0  0  0  0  0  0  0  0  0  0  0
   49.6470   36.8320   41.5210 H   0  0  0  0  0  0  0  0  0  0  0  0
   50.7040   35.2340   43.1600 H   0  0  0  0  0  0  0  0  0  0  0  0
   49.7600   33.0050   43.4170 H   0  0  0  0  0  0  0  0  0  0  0  0
   47.7080   31.9400   42.1980 C   0  0  0  0  0  0  0  0  0  0  0  0
   48.3770   31.0460   41.3510 C   0  0  0  0  0  0  0  0  0  0  0  0
   49.1870   31.2810   40.6440 H   0  0  0  0  0  0  0  0  0  0  0  0
   48.0560   29.7000   41.3250 C   0  0  0  0  0  3  0  0  0  0  0  0
   47.0490   29.2230   42.1580 C   0  0  0  0  0  0  0  0  0  0  0  0
   46.7790   28.1780   42.1570 H   0  0  0  0  0  0  0  0  0  0  0  0
   46.4250   30.1290   42.9660 C   0  0  0  0  0  0  0  0  0  0  0  0
   45.6280   29.8080   43.6380 H   0  0  0  0  0  0  0  0  0  0  0  0
   46.7180   31.4700   43.0160 C   0  0  0  0  0  3  0  0  0  0  0  0
   44.7470   34.9010   43.0990 N   0  0  0  0  0  0  0  0  0  0  0  0
   44.9270   34.4680   42.0210 C   0  0  0  0  0  0  0  0  0  0  0  0
  1 41  1  0  0  0  0
  2 12  1  0  0  0  0
  2  1  2  0  0  0  0
  3  2  1  0  0  0  0
  4  3  2  0  0  0  0
  4  5  1  0  0  0  0
  5  6  2  0  0  0  0
  6  1  1  0  0  0  0
  6 21  1  0  0  0  0
  7  3  1  0  0  0  0
  8  4  1  0  0  0  0
  9  5  1  0  0  0  0
 10 15  1  0  0  0  0
 11 12  1  0  0  0  0
 11 10  2  0  0  0  0
 12 13  2  0  0  0  0
 13 14  1  0  0  0  0
 14 18  1  0  0  0  0
 15 14  2  0  0  0  0
 16 10  1  0  0  0  0
 16 20  1  0  0  0  0
 17 11  1  0  0  0  0
 19 16  1  0  0  0  0
 21 26  1  0  0  0  0
 22 21  2  0  0  0  0
 22 23  1  0  0  0  0
 23 24  2  0  0  0  0
 24 25  1  0  0  0  0
 24 29  1  0  0  0  0
 25 30  1  0  0  0  0
 26 31  1  0  0  0  0
 26 25  2  0  0  0  0
 27 22  1  0  0  0  0
 28 23  1  0  0  0  0
 31 39  1  0  0  0  0
 32 31  2  0  0  0  0
 33 32  1  0  0  0  0
 34 32  1  0  0  0  0
 34 35  2  0  0  0  0
 35 37  1  0  0  0  0
 36 35  1  0  0  0  0
 37 39  2  0  0  0  0
 37 38  1  0  0  0  0
 41 40  3  0  0  0  0
M  END
>  <minimizedAffinity>
-5.97917318

>  <minimizedRMSD>
0.373399585

$$$$
