
 OpenBabel03252509163D

 25 27  0  0  0  0  0  0  0  0999 V2000
   46.5630   32.7530   46.1040 C   0  0  0  0  0  0  0  0  0  0  0  0
   46.8700   32.8670   47.4850 C   0  0  0  0  0  0  0  0  0  0  0  0
   47.4060   31.8000   48.1070 C   0  0  0  0  0  0  0  0  0  0  0  0
   47.6450   30.6130   47.3790 C   0  0  0  0  0  0  0  0  0  0  0  0
   47.0670   31.0510   45.7010 S   0  0  0  0  0  0  0  0  0  0  0  0
   46.6710   33.7940   48.0060 H   0  0  0  0  0  0  0  0  0  0  0  0
   47.6810   31.7520   49.1350 H   0  0  0  0  0  0  0  0  0  0  0  0
   44.5690   35.5930   44.8200 C   0  0  0  0  0  0  0  0  0  0  0  0
   45.1260   35.7060   43.5160 C   0  0  0  0  0  0  0  0  0  0  0  0
   46.1420   34.8210   43.1400 C   0  0  0  0  0  0  0  0  0  0  0  0
   46.5360   33.8940   44.0620 N   0  0  0  0  0  0  0  0  0  0  0  0
   45.9780   33.8230   45.2900 C   0  0  0  0  0  0  0  0  0  0  0  0
   44.9920   34.6720   45.6760 N   0  0  0  0  0  0  0  0  0  0  0  0
   43.7810   36.2860   45.1010 H   0  0  0  0  0  0  0  0  0  0  0  0
   44.7950   36.4520   42.7990 H   0  0  0  0  0  0  0  0  0  0  0  0
   46.6170   34.8370   42.1740 H   0  0  0  0  0  0  0  0  0  0  0  0
   48.1980   29.3210   47.7460 C   0  0  0  0  0  0  0  0  0  0  0  0
   47.5570   28.2160   47.2380 C   0  0  0  0  0  0  0  0  0  0  0  0
   46.6900   28.2820   46.5990 H   0  0  0  0  0  0  0  0  0  0  0  0
   48.1220   26.9940   47.6170 C   0  0  0  0  0  3  0  0  0  0  0  0
   49.2460   26.9550   48.4490 C   0  0  0  0  0  0  0  0  0  0  0  0
   49.6030   25.9580   48.6820 H   0  0  0  0  0  0  0  0  0  0  0  0
   49.8330   28.1190   48.9190 C   0  0  0  0  0  0  0  0  0  0  0  0
   50.7000   28.0500   49.5590 H   0  0  0  0  0  0  0  0  0  0  0  0
   49.2990   29.3640   48.5630 C   0  0  0  0  0  3  0  0  0  0  0  0
  1  2  2  0  0  0  0
  2  6  1  0  0  0  0
  2  3  1  0  0  0  0
  3  7  1  0  0  0  0
  4 17  1  0  0  0  0
  4  3  2  0  0  0  0
  5  1  1  0  0  0  0
  5  4  1  0  0  0  0
  8 14  1  0  0  0  0
  8 13  1  0  0  0  0
  9  8  2  0  0  0  0
 10  9  1  0  0  0  0
 10 11  2  0  0  0  0
 11 12  1  0  0  0  0
 12 13  2  0  0  0  0
 12  1  1  0  0  0  0
 15  9  1  0  0  0  0
 16 10  1  0  0  0  0
 17 25  1  0  0  0  0
 18 20  1  0  0  0  0
 18 17  2  0  0  0  0
 19 18  1  0  0  0  0
 20 21  2  0  0  0  0
 21 22  1  0  0  0  0
 21 23  1  0  0  0  0
 23 24  1  0  0  0  0
 25 23  2  0  0  0  0
M  END
>  <minimizedAffinity>
-4.50860548

>  <minimizedRMSD>
1.63589871

$$$$
