
     RDKit          3D

 33 35  0  0  0  0  0  0  0  0999 V2000
   44.4978   35.8791   44.7139 C   0  0  0  0  0  0  0  0  0  0  0  0
   45.0959   36.0416   43.4575 C   0  0  0  0  0  0  0  0  0  0  0  0
   46.0652   35.0865   43.0973 C   0  0  0  0  0  0  0  0  0  0  0  0
   46.3792   34.0619   43.9644 N   0  0  0  0  0  0  0  0  0  0  0  0
   45.7607   33.9690   45.1603 C   0  0  0  0  0  0  0  0  0  0  0  0
   44.8272   34.8691   45.5345 N   0  0  0  0  0  0  0  0  0  0  0  0
   46.7697   35.1391   41.7985 C   0  0  2  0  0  0  0  0  0  0  0  0
   46.8464   33.8297   41.0760 C   0  0  0  0  0  0  0  0  0  0  0  0
   47.7696   34.2240   39.9266 C   0  0  0  0  0  0  0  0  0  0  0  0
   48.7311   35.2259   40.5419 C   0  0  1  0  0  0  0  0  0  0  0  0
   48.2583   35.4531   41.9630 C   0  0  0  0  0  0  0  0  0  0  0  0
   43.7727   36.6621   44.8891 H   0  0  0  0  0  0  0  0  0  0  0  0
   44.9012   36.8041   42.7447 H   0  0  0  0  0  0  0  0  0  0  0  0
   45.9727   33.1839   45.8742 H   0  0  0  0  0  0  0  0  0  0  0  0
   46.3561   35.9151   41.1586 H   0  0  0  0  0  0  0  0  0  0  0  0
   47.3293   33.0428   41.6656 H   0  0  0  0  0  0  0  0  0  0  0  0
   45.8628   33.5056   40.6613 H   0  0  0  0  0  0  0  0  0  0  0  0
   47.1038   34.7263   39.1827 H   0  0  0  0  0  0  0  0  0  0  0  0
   48.2566   33.3190   39.5433 H   0  0  0  0  0  0  0  0  0  0  0  0
   48.7080   36.1847   39.9600 H   0  0  0  0  0  0  0  0  0  0  0  0
   48.7566   34.7944   42.6876 H   0  0  0  0  0  0  0  0  0  0  0  0
   48.3356   36.5309   42.1722 H   0  0  0  0  0  0  0  0  0  0  0  0
   50.0808   34.6660   40.4348 C   0  0  0  0  0  0  0  0  0  0  0  0
   50.4394   33.7993   39.4284 C   0  0  0  0  0  0  0  0  0  0  0  0
   49.7402   33.4947   38.6739 H   0  0  0  0  0  0  0  0  0  0  0  0
   51.7300   33.2735   39.3391 C   0  0  0  0  0  0  0  0  0  0  0  0
   52.7054   33.6102   40.2716 C   0  0  0  0  0  0  0  0  0  0  0  0
   53.7162   33.2521   40.2747 H   0  0  0  0  0  0  0  0  0  0  0  0
   52.3648   34.4776   41.2877 C   0  0  0  0  0  0  0  0  0  0  0  0
   53.0916   34.7753   42.0462 H   0  0  0  0  0  0  0  0  0  0  0  0
   51.0856   34.9829   41.3545 C   0  0  0  0  0  0  0  0  0  0  0  0
   52.0287   32.5919   38.5557 H   0  0  0  0  0  0  0  0  0  0  0  0
   50.8622   35.6670   42.1779 H   0  0  0  0  0  0  0  0  0  0  0  0
  1  6  2  0
  2  1  1  0
  3  2  2  0
  3  4  1  0
  4  5  2  0
  5  6  1  0
  7 11  1  0
  7  3  1  0
  8  7  1  0
  9 10  1  0
  9  8  1  0
 10 11  1  0
  1 12  1  0
  2 13  1  0
  5 14  1  0
  7 15  1  6
  8 16  1  0
  8 17  1  0
  9 18  1  0
  9 19  1  0
 10 20  1  6
 11 21  1  0
 11 22  1  0
 23 24  2  0
 24 25  1  0
 24 26  1  0
 26 27  2  0
 27 28  1  0
 27 29  1  0
 29 30  1  0
 29 31  2  0
 31 23  1  0
 26 32  1  0
 31 33  1  0
 10 23  1  0
M  ISO  8  12  14  13  14  14  14  15  13  16  13  17  13  18  13  19  13
M  ISO  6  20  13  21  13  22  13  25  16  28  16  30  16
M  END
>  <DihAtoms>  (1) 
8,9,22,23

>  <DihDeg>  (1) 
-61.46351857737441

$$$$
