
 OpenBabel03252504503D

 24 25  0  0  0  0  0  0  0  0999 V2000
   37.6590   30.3960   38.9480 C   0  0  0  0  0  0  0  0  0  0  0  0
   37.0500   31.3930   39.7110 C   0  0  0  0  0  0  0  0  0  0  0  0
   36.3770   30.9820   40.8640 C   0  0  0  0  0  0  0  0  0  0  0  0
   36.3540   29.6640   41.1740 N   0  0  0  0  0  0  0  0  0  0  0  0
   36.9600   28.7240   40.4070 C   0  0  0  0  0  0  0  0  0  0  0  0
   37.6100   29.0970   39.2950 N   0  0  0  0  0  0  0  0  0  0  0  0
   38.2110   30.5990   38.0300 H   0  0  0  0  0  0  0  0  0  0  0  0
   35.8940   31.7040   41.4810 H   0  0  0  0  0  0  0  0  0  0  0  0
   36.9220   27.3090   40.7600 C   0  0  0  0  0  0  0  0  0  0  0  0
   36.6640   26.3770   39.7640 C   0  0  0  0  0  0  0  0  0  0  0  0
   36.4860   26.6500   38.7170 H   0  0  0  0  0  0  0  0  0  0  0  0
   36.6080   25.0180   40.0010 C   0  0  0  0  0  3  0  0  0  0  0  0
   36.8170   24.5490   41.2850 C   0  0  0  0  0  0  0  0  0  0  0  0
   36.7900   23.4910   41.5580 H   0  0  0  0  0  0  0  0  0  0  0  0
   37.0760   25.4950   42.2760 C   0  0  0  0  0  0  0  0  0  0  0  0
   37.2390   25.1420   43.2780 H   0  0  0  0  0  0  0  0  0  0  0  0
   37.1350   26.8660   42.0520 C   0  0  0  0  0  3  0  0  0  0  0  0
   37.1420   32.7700   39.2790 C   0  0  0  0  0  0  0  0  0  0  0  0
   37.4900   32.8240   38.2060 H   0  0  0  0  0  0  0  0  0  0  0  0
   36.2060   33.2980   39.4310 H   0  0  0  0  0  0  0  0  0  0  0  0
   38.2100   33.4660   40.1060 C   0  0  0  0  0  0  0  0  0  0  0  0
   37.8180   33.6510   41.1260 H   0  0  0  0  0  0  0  0  0  0  0  0
   38.3360   34.4850   39.6490 H   0  0  0  0  0  0  0  0  0  0  0  0
   39.1620   32.9370   40.0550 H   0  0  0  0  0  0  0  0  0  0  0  0
  1  6  2  0  0  0  0
  1  2  1  0  0  0  0
  2  3  2  0  0  0  0
  3  4  1  0  0  0  0
  3  8  1  0  0  0  0
  5  9  1  0  0  0  0
  5  4  2  0  0  0  0
  6  5  1  0  0  0  0
  7  1  1  0  0  0  0
  9 17  1  0  0  0  0
 10 12  1  0  0  0  0
 10  9  2  0  0  0  0
 11 10  1  0  0  0  0
 12 13  2  0  0  0  0
 13 14  1  0  0  0  0
 13 15  1  0  0  0  0
 15 16  1  0  0  0  0
 17 15  2  0  0  0  0
 18 20  1  0  0  0  0
 18  2  1  0  0  0  0
 18 21  1  0  0  0  0
 19 18  1  0  0  0  0
 21 22  1  0  0  0  0
 23 21  1  0  0  0  0
 24 21  1  0  0  0  0
M  END
>  <minimizedAffinity>
-4.45418262

$$$$

 OpenBabel03252504503D

 24 25  0  0  0  0  0  0  0  0999 V2000
   36.5190   28.1700   41.2780 C   0  0  0  0  0  0  0  0  0  0  0  0
   37.1570   27.6880   42.4220 C   0  0  0  0  0  0  0  0  0  0  0  0
   38.0620   28.5490   43.0480 C   0  0  0  0  0  0  0  0  0  0  0  0
   38.2670   29.7790   42.5220 N   0  0  0  0  0  0  0  0  0  0  0  0
   37.6260   30.2120   41.4080 C   0  0  0  0  0  0  0  0  0  0  0  0
   36.7540   29.4020   40.7910 N   0  0  0  0  0  0  0  0  0  0  0  0
   35.7950   27.5880   40.7080 H   0  0  0  0  0  0  0  0  0  0  0  0
   38.5760   28.2290   43.9250 H   0  0  0  0  0  0  0  0  0  0  0  0
   37.8620   31.5420   40.8580 C   0  0  0  0  0  0  0  0  0  0  0  0
   39.0270   32.2130   41.2050 C   0  0  0  0  0  0  0  0  0  0  0  0
   39.7860   31.7930   41.8760 H   0  0  0  0  0  0  0  0  0  0  0  0
   39.3380   33.4740   40.7360 C   0  0  0  0  0  3  0  0  0  0  0  0
   38.4570   34.1100   39.8800 C   0  0  0  0  0  0  0  0  0  0  0  0
   38.6270   35.1070   39.4640 H   0  0  0  0  0  0  0  0  0  0  0  0
   37.2910   33.4270   39.5390 C   0  0  0  0  0  0  0  0  0  0  0  0
   36.5990   33.9110   38.8750 H   0  0  0  0  0  0  0  0  0  0  0  0
   36.9660   32.1570   40.0030 C   0  0  0  0  0  3  0  0  0  0  0  0
   36.8570   26.3530   42.8900 C   0  0  0  0  0  0  0  0  0  0  0  0
   37.5470   26.0680   43.7370 H   0  0  0  0  0  0  0  0  0  0  0  0
   35.8120   26.2540   43.1650 H   0  0  0  0  0  0  0  0  0  0  0  0
   37.1400   25.3720   41.7650 C   0  0  0  0  0  0  0  0  0  0  0  0
   36.3390   25.4510   41.0030 H   0  0  0  0  0  0  0  0  0  0  0  0
   37.0190   24.3480   42.2140 H   0  0  0  0  0  0  0  0  0  0  0  0
   38.1590   25.4750   41.3920 H   0  0  0  0  0  0  0  0  0  0  0  0
  1  2  1  0  0  0  0
  2 18  1  0  0  0  0
  2  3  2  0  0  0  0
  3  8  1  0  0  0  0
  4  3  1  0  0  0  0
  5  4  2  0  0  0  0
  6  1  2  0  0  0  0
  6  5  1  0  0  0  0
  7  1  1  0  0  0  0
  9 10  1  0  0  0  0
  9  5  1  0  0  0  0
 10 11  1  0  0  0  0
 12 10  2  0  0  0  0
 13 12  1  0  0  0  0
 14 13  1  0  0  0  0
 15 13  2  0  0  0  0
 15 17  1  0  0  0  0
 16 15  1  0  0  0  0
 17  9  2  0  0  0  0
 18 20  1  0  0  0  0
 18 19  1  0  0  0  0
 21 23  1  0  0  0  0
 21 18  1  0  0  0  0
 22 21  1  0  0  0  0
 24 21  1  0  0  0  0
M  END
>  <minimizedAffinity>
-4.45010281

$$$$

 OpenBabel03252504503D

 24 25  0  0  0  0  0  0  0  0999 V2000
   37.4880   26.6830   40.6820 C   0  0  0  0  0  0  0  0  0  0  0  0
   37.1370   26.2700   41.9690 C   0  0  0  0  0  0  0  0  0  0  0  0
   37.0040   27.2690   42.9360 C   0  0  0  0  0  0  0  0  0  0  0  0
   37.2170   28.5570   42.5810 N   0  0  0  0  0  0  0  0  0  0  0  0
   37.5570   28.9190   41.3190 C   0  0  0  0  0  0  0  0  0  0  0  0
   37.6910   27.9770   40.3750 N   0  0  0  0  0  0  0  0  0  0  0  0
   37.6210   25.9930   39.8490 H   0  0  0  0  0  0  0  0  0  0  0  0
   36.7370   27.0060   43.9340 H   0  0  0  0  0  0  0  0  0  0  0  0
   37.7830   30.3150   40.9590 C   0  0  0  0  0  0  0  0  0  0  0  0
   36.8840   30.9400   40.1060 C   0  0  0  0  0  0  0  0  0  0  0  0
   36.0060   30.4370   39.6840 H   0  0  0  0  0  0  0  0  0  0  0  0
   37.0140   32.2560   39.7080 C   0  0  0  0  0  3  0  0  0  0  0  0
   38.0840   32.9980   40.1750 C   0  0  0  0  0  0  0  0  0  0  0  0
   38.2610   34.0440   39.9100 H   0  0  0  0  0  0  0  0  0  0  0  0
   38.9800   32.3590   41.0320 C   0  0  0  0  0  0  0  0  0  0  0  0
   39.8150   32.9250   41.4000 H   0  0  0  0  0  0  0  0  0  0  0  0
   38.8610   31.0350   41.4400 C   0  0  0  0  0  3  0  0  0  0  0  0
   36.9340   24.8620   42.2290 C   0  0  0  0  0  0  0  0  0  0  0  0
   37.8880   24.3890   42.6060 H   0  0  0  0  0  0  0  0  0  0  0  0
   36.1030   24.6980   42.9070 H   0  0  0  0  0  0  0  0  0  0  0  0
   36.6090   24.1700   40.9160 C   0  0  0  0  0  0  0  0  0  0  0  0
   35.5710   24.4220   40.6180 H   0  0  0  0  0  0  0  0  0  0  0  0
   36.5900   23.0690   41.1460 H   0  0  0  0  0  0  0  0  0  0  0  0
   37.3750   24.3600   40.1640 H   0  0  0  0  0  0  0  0  0  0  0  0
  1  2  1  0  0  0  0
  2 18  1  0  0  0  0
  2  3  2  0  0  0  0
  3  8  1  0  0  0  0
  4  3  1  0  0  0  0
  5  4  2  0  0  0  0
  6  1  2  0  0  0  0
  6  5  1  0  0  0  0
  7  1  1  0  0  0  0
  9  5  1  0  0  0  0
  9 17  1  0  0  0  0
 10  9  2  0  0  0  0
 11 10  1  0  0  0  0
 12 10  1  0  0  0  0
 12 13  2  0  0  0  0
 13 15  1  0  0  0  0
 14 13  1  0  0  0  0
 15 16  1  0  0  0  0
 15 17  2  0  0  0  0
 18 19  1  0  0  0  0
 18 20  1  0  0  0  0
 21 23  1  0  0  0  0
 21 18  1  0  0  0  0
 22 21  1  0  0  0  0
 24 21  1  0  0  0  0
M  END
>  <minimizedAffinity>
-4.2927351

$$$$

 OpenBabel03252504503D

 24 25  0  0  0  0  0  0  0  0999 V2000
   37.4400   26.4000   40.4630 C   0  0  0  0  0  0  0  0  0  0  0  0
   37.0870   26.1710   41.7940 C   0  0  0  0  0  0  0  0  0  0  0  0
   36.7690   27.2940   42.5620 C   0  0  0  0  0  0  0  0  0  0  0  0
   36.8200   28.5180   41.9870 N   0  0  0  0  0  0  0  0  0  0  0  0
   37.1680   28.6990   40.6880 C   0  0  0  0  0  0  0  0  0  0  0  0
   37.4770   27.6360   39.9330 N   0  0  0  0  0  0  0  0  0  0  0  0
   37.7070   25.6020   39.7700 H   0  0  0  0  0  0  0  0  0  0  0  0
   36.4940   27.1730   43.5850 H   0  0  0  0  0  0  0  0  0  0  0  0
   37.2150   30.0280   40.0890 C   0  0  0  0  0  0  0  0  0  0  0  0
   37.2340   30.1380   38.7050 C   0  0  0  0  0  0  0  0  0  0  0  0
   37.2140   29.2710   38.0330 H   0  0  0  0  0  0  0  0  0  0  0  0
   37.2780   31.3510   38.0460 C   0  0  0  0  0  3  0  0  0  0  0  0
   37.3060   32.5180   38.7870 C   0  0  0  0  0  0  0  0  0  0  0  0
   37.3430   33.5180   38.3450 H   0  0  0  0  0  0  0  0  0  0  0  0
   37.2870   32.3950   40.1760 C   0  0  0  0  0  0  0  0  0  0  0  0
   37.3100   33.2950   40.7620 H   0  0  0  0  0  0  0  0  0  0  0  0
   37.2420   31.1800   40.8520 C   0  0  0  0  0  3  0  0  0  0  0  0
   37.0690   24.8160   42.2980 C   0  0  0  0  0  0  0  0  0  0  0  0
   38.0060   24.6040   42.8910 H   0  0  0  0  0  0  0  0  0  0  0  0
   36.1690   24.6180   42.8720 H   0  0  0  0  0  0  0  0  0  0  0  0
   37.0890   23.8610   41.1170 C   0  0  0  0  0  0  0  0  0  0  0  0
   36.0920   23.8580   40.6330 H   0  0  0  0  0  0  0  0  0  0  0  0
   37.2060   22.8320   41.5560 H   0  0  0  0  0  0  0  0  0  0  0  0
   37.9330   24.0600   40.4570 H   0  0  0  0  0  0  0  0  0  0  0  0
  1  2  1  0  0  0  0
  2 18  1  0  0  0  0
  2  3  2  0  0  0  0
  3  8  1  0  0  0  0
  4  3  1  0  0  0  0
  5  4  2  0  0  0  0
  6  1  2  0  0  0  0
  6  5  1  0  0  0  0
  7  1  1  0  0  0  0
  9  5  1  0  0  0  0
  9 17  1  0  0  0  0
 10  9  2  0  0  0  0
 11 10  1  0  0  0  0
 12 10  1  0  0  0  0
 12 13  2  0  0  0  0
 13 15  1  0  0  0  0
 14 13  1  0  0  0  0
 15 16  1  0  0  0  0
 15 17  2  0  0  0  0
 18 20  1  0  0  0  0
 18 19  1  0  0  0  0
 21 23  1  0  0  0  0
 21 18  1  0  0  0  0
 22 21  1  0  0  0  0
 24 21  1  0  0  0  0
M  END
>  <minimizedAffinity>
-4.26090145

$$$$

 OpenBabel03252504503D

 24 25  0  0  0  0  0  0  0  0999 V2000
   39.9490   28.1110   41.9960 C   0  0  0  0  0  0  0  0  0  0  0  0
   39.1690   27.6150   43.0430 C   0  0  0  0  0  0  0  0  0  0  0  0
   38.0550   28.3730   43.4100 C   0  0  0  0  0  0  0  0  0  0  0  0
   37.7960   29.5230   42.7450 N   0  0  0  0  0  0  0  0  0  0  0  0
   38.5780   29.9710   41.7320 C   0  0  0  0  0  0  0  0  0  0  0  0
   39.6530   29.2610   41.3640 N   0  0  0  0  0  0  0  0  0  0  0  0
   40.8410   27.6060   41.6250 H   0  0  0  0  0  0  0  0  0  0  0  0
   37.4270   28.0380   44.2040 H   0  0  0  0  0  0  0  0  0  0  0  0
   38.2800   31.2140   41.0290 C   0  0  0  0  0  0  0  0  0  0  0  0
   39.1020   32.3130   41.2340 C   0  0  0  0  0  0  0  0  0  0  0  0
   39.9720   32.2970   41.9020 H   0  0  0  0  0  0  0  0  0  0  0  0
   38.9010   33.5310   40.6150 C   0  0  0  0  0  3  0  0  0  0  0  0
   37.8340   33.6750   39.7460 C   0  0  0  0  0  0  0  0  0  0  0  0
   37.6040   34.6040   39.2160 H   0  0  0  0  0  0  0  0  0  0  0  0
   37.0160   32.5650   39.5480 C   0  0  0  0  0  0  0  0  0  0  0  0
   36.1830   32.6650   38.8760 H   0  0  0  0  0  0  0  0  0  0  0  0
   37.2070   31.3330   40.1650 C   0  0  0  0  0  3  0  0  0  0  0  0
   39.5460   26.3730   43.6790 C   0  0  0  0  0  0  0  0  0  0  0  0
   39.2310   26.3730   44.7630 H   0  0  0  0  0  0  0  0  0  0  0  0
   39.1540   25.5150   43.1410 H   0  0  0  0  0  0  0  0  0  0  0  0
   41.0620   26.2700   43.6790 C   0  0  0  0  0  0  0  0  0  0  0  0
   41.4120   26.0310   42.6550 H   0  0  0  0  0  0  0  0  0  0  0  0
   41.3090   25.3620   44.2940 H   0  0  0  0  0  0  0  0  0  0  0  0
   41.5210   27.1440   44.1420 H   0  0  0  0  0  0  0  0  0  0  0  0
  1  2  1  0  0  0  0
  2  3  2  0  0  0  0
  2 18  1  0  0  0  0
  3  8  1  0  0  0  0
  4  3  1  0  0  0  0
  5  4  2  0  0  0  0
  6  5  1  0  0  0  0
  6  1  2  0  0  0  0
  7  1  1  0  0  0  0
  9 10  1  0  0  0  0
  9  5  1  0  0  0  0
 10 11  1  0  0  0  0
 12 10  2  0  0  0  0
 13 12  1  0  0  0  0
 14 13  1  0  0  0  0
 15 13  2  0  0  0  0
 15 17  1  0  0  0  0
 16 15  1  0  0  0  0
 17  9  2  0  0  0  0
 18 21  1  0  0  0  0
 18 19  1  0  0  0  0
 20 18  1  0  0  0  0
 21 24  1  0  0  0  0
 21 23  1  0  0  0  0
 22 21  1  0  0  0  0
M  END
>  <minimizedAffinity>
-4.24402761

$$$$

 OpenBabel03252504503D

 24 25  0  0  0  0  0  0  0  0999 V2000
   39.8940   32.2570   38.7520 C   0  0  0  0  0  0  0  0  0  0  0  0
   39.9040   33.2910   39.6890 C   0  0  0  0  0  0  0  0  0  0  0  0
   38.7730   33.4160   40.5000 C   0  0  0  0  0  0  0  0  0  0  0  0
   37.7500   32.5450   40.3370 N   0  0  0  0  0  0  0  0  0  0  0  0
   37.7790   31.5510   39.4140 C   0  0  0  0  0  0  0  0  0  0  0  0
   38.8530   31.4130   38.6250 N   0  0  0  0  0  0  0  0  0  0  0  0
   40.7200   32.0640   38.0660 H   0  0  0  0  0  0  0  0  0  0  0  0
   38.7310   34.1900   41.2310 H   0  0  0  0  0  0  0  0  0  0  0  0
   36.6650   30.6240   39.2560 C   0  0  0  0  0  0  0  0  0  0  0  0
   36.3600   30.1520   37.9860 C   0  0  0  0  0  0  0  0  0  0  0  0
   36.9180   30.4430   37.0880 H   0  0  0  0  0  0  0  0  0  0  0  0
   35.3260   29.2730   37.7370 C   0  0  0  0  0  3  0  0  0  0  0  0
   34.5490   28.8310   38.7920 C   0  0  0  0  0  0  0  0  0  0  0  0
   33.7110   28.1370   38.6820 H   0  0  0  0  0  0  0  0  0  0  0  0
   34.8630   29.3110   40.0630 C   0  0  0  0  0  0  0  0  0  0  0  0
   34.2660   28.9760   40.8910 H   0  0  0  0  0  0  0  0  0  0  0  0
   35.9020   30.1970   40.3280 C   0  0  0  0  0  3  0  0  0  0  0  0
   41.0560   34.1610   39.7700 C   0  0  0  0  0  0  0  0  0  0  0  0
   40.7330   35.2270   39.9570 H   0  0  0  0  0  0  0  0  0  0  0  0
   41.7650   33.8130   40.5160 H   0  0  0  0  0  0  0  0  0  0  0  0
   41.7580   34.1610   38.4230 C   0  0  0  0  0  0  0  0  0  0  0  0
   42.2980   33.2020   38.2930 H   0  0  0  0  0  0  0  0  0  0  0  0
   42.5610   34.9440   38.4950 H   0  0  0  0  0  0  0  0  0  0  0  0
   41.0750   34.4310   37.6170 H   0  0  0  0  0  0  0  0  0  0  0  0
  1  2  1  0  0  0  0
  2 18  1  0  0  0  0
  2  3  2  0  0  0  0
  3  8  1  0  0  0  0
  4  3  1  0  0  0  0
  5  4  2  0  0  0  0
  6  1  2  0  0  0  0
  6  5  1  0  0  0  0
  7  1  1  0  0  0  0
  9  5  1  0  0  0  0
  9 17  1  0  0  0  0
 10  9  2  0  0  0  0
 11 10  1  0  0  0  0
 12 10  1  0  0  0  0
 12 13  2  0  0  0  0
 13 15  1  0  0  0  0
 14 13  1  0  0  0  0
 15 17  2  0  0  0  0
 15 16  1  0  0  0  0
 18 19  1  0  0  0  0
 18 20  1  0  0  0  0
 21 23  1  0  0  0  0
 21 18  1  0  0  0  0
 22 21  1  0  0  0  0
 24 21  1  0  0  0  0
M  END
>  <minimizedAffinity>
-4.12985802

$$$$

 OpenBabel03252504503D

 24 25  0  0  0  0  0  0  0  0999 V2000
   36.0220   27.2740   38.8910 C   0  0  0  0  0  0  0  0  0  0  0  0
   35.2530   28.3910   39.2230 C   0  0  0  0  0  0  0  0  0  0  0  0
   35.4480   28.9340   40.4950 C   0  0  0  0  0  0  0  0  0  0  0  0
   36.3530   28.3590   41.3210 N   0  0  0  0  0  0  0  0  0  0  0  0
   37.0820   27.2730   40.9620 C   0  0  0  0  0  0  0  0  0  0  0  0
   36.9110   26.7360   39.7460 N   0  0  0  0  0  0  0  0  0  0  0  0
   35.9550   26.7670   37.9280 H   0  0  0  0  0  0  0  0  0  0  0  0
   34.8850   29.7870   40.7970 H   0  0  0  0  0  0  0  0  0  0  0  0
   38.0520   26.6700   41.8680 C   0  0  0  0  0  0  0  0  0  0  0  0
   38.7100   27.4820   42.7820 C   0  0  0  0  0  0  0  0  0  0  0  0
   38.5370   28.5620   42.8600 H   0  0  0  0  0  0  0  0  0  0  0  0
   39.6440   27.0030   43.6800 C   0  0  0  0  0  3  0  0  0  0  0  0
   39.9470   25.6540   43.6800 C   0  0  0  0  0  0  0  0  0  0  0  0
   40.6740   25.1940   44.3560 H   0  0  0  0  0  0  0  0  0  0  0  0
   39.2800   24.8480   42.7580 C   0  0  0  0  0  0  0  0  0  0  0  0
   39.5080   23.7990   42.7480 H   0  0  0  0  0  0  0  0  0  0  0  0
   38.3380   25.3170   41.8480 C   0  0  0  0  0  3  0  0  0  0  0  0
   34.3160   28.9170   38.2550 C   0  0  0  0  0  0  0  0  0  0  0  0
   33.3530   28.3280   38.2780 H   0  0  0  0  0  0  0  0  0  0  0  0
   34.1480   29.9800   38.4020 H   0  0  0  0  0  0  0  0  0  0  0  0
   34.8980   28.7250   36.8650 C   0  0  0  0  0  0  0  0  0  0  0  0
   35.7120   29.4600   36.7050 H   0  0  0  0  0  0  0  0  0  0  0  0
   34.0850   29.0260   36.1480 H   0  0  0  0  0  0  0  0  0  0  0  0
   35.1600   27.6830   36.6830 H   0  0  0  0  0  0  0  0  0  0  0  0
  1  2  2  0  0  0  0
  1  6  1  0  0  0  0
  2  3  1  0  0  0  0
  3  8  1  0  0  0  0
  3  4  2  0  0  0  0
  5  4  1  0  0  0  0
  5  9  1  0  0  0  0
  6  5  2  0  0  0  0
  7  1  1  0  0  0  0
  9 10  1  0  0  0  0
 10 11  1  0  0  0  0
 10 12  2  0  0  0  0
 12 13  1  0  0  0  0
 13 14  1  0  0  0  0
 15 13  2  0  0  0  0
 16 15  1  0  0  0  0
 17  9  2  0  0  0  0
 17 15  1  0  0  0  0
 18 19  1  0  0  0  0
 18 20  1  0  0  0  0
 18  2  1  0  0  0  0
 21 18  1  0  0  0  0
 22 21  1  0  0  0  0
 23 21  1  0  0  0  0
 24 21  1  0  0  0  0
M  END
>  <minimizedAffinity>
-4.05493593

$$$$

 OpenBabel03252504503D

 24 25  0  0  0  0  0  0  0  0999 V2000
   37.1400   27.6240   41.6410 C   0  0  0  0  0  0  0  0  0  0  0  0
   37.1590   26.7840   40.5260 C   0  0  0  0  0  0  0  0  0  0  0  0
   37.4000   27.3860   39.2890 C   0  0  0  0  0  0  0  0  0  0  0  0
   37.5990   28.7240   39.2390 N   0  0  0  0  0  0  0  0  0  0  0  0
   37.5730   29.5070   40.3460 C   0  0  0  0  0  0  0  0  0  0  0  0
   37.3430   28.9500   41.5440 N   0  0  0  0  0  0  0  0  0  0  0  0
   36.9620   27.2660   42.6550 H   0  0  0  0  0  0  0  0  0  0  0  0
   37.4240   26.7890   38.4070 H   0  0  0  0  0  0  0  0  0  0  0  0
   37.7890   30.9470   40.2690 C   0  0  0  0  0  0  0  0  0  0  0  0
   37.0430   31.6890   39.3640 C   0  0  0  0  0  0  0  0  0  0  0  0
   36.2930   31.2460   38.6980 H   0  0  0  0  0  0  0  0  0  0  0  0
   37.1770   33.0560   39.2180 C   0  0  0  0  0  3  0  0  0  0  0  0
   38.0930   33.7300   40.0050 C   0  0  0  0  0  0  0  0  0  0  0  0
   38.2620   34.8090   39.9530 H   0  0  0  0  0  0  0  0  0  0  0  0
   38.8370   32.9740   40.9110 C   0  0  0  0  0  0  0  0  0  0  0  0
   39.5520   33.4870   41.5270 H   0  0  0  0  0  0  0  0  0  0  0  0
   38.7120   31.5980   41.0670 C   0  0  0  0  0  3  0  0  0  0  0  0
   36.9330   25.3670   40.7040 C   0  0  0  0  0  0  0  0  0  0  0  0
   35.8840   25.0920   40.3870 H   0  0  0  0  0  0  0  0  0  0  0  0
   37.6830   24.7770   40.1860 H   0  0  0  0  0  0  0  0  0  0  0  0
   37.0260   25.0450   42.1850 C   0  0  0  0  0  0  0  0  0  0  0  0
   38.0900   25.0710   42.4980 H   0  0  0  0  0  0  0  0  0  0  0  0
   36.7170   23.9680   42.2860 H   0  0  0  0  0  0  0  0  0  0  0  0
   36.3470   25.6630   42.7720 H   0  0  0  0  0  0  0  0  0  0  0  0
  1  7  1  0  0  0  0
  2 18  1  0  0  0  0
  2  1  2  0  0  0  0
  3  2  1  0  0  0  0
  4  3  2  0  0  0  0
  4  5  1  0  0  0  0
  5  6  2  0  0  0  0
  6  1  1  0  0  0  0
  8  3  1  0  0  0  0
  9  5  1  0  0  0  0
  9 17  1  0  0  0  0
 10  9  2  0  0  0  0
 11 10  1  0  0  0  0
 12 10  1  0  0  0  0
 12 13  2  0  0  0  0
 13 15  1  0  0  0  0
 14 13  1  0  0  0  0
 15 17  2  0  0  0  0
 15 16  1  0  0  0  0
 18 21  1  0  0  0  0
 19 18  1  0  0  0  0
 20 18  1  0  0  0  0
 21 23  1  0  0  0  0
 21 22  1  0  0  0  0
 21 24  1  0  0  0  0
M  END
>  <minimizedAffinity>
-4.04136181

$$$$

 OpenBabel03252504503D

 24 25  0  0  0  0  0  0  0  0999 V2000
   40.2460   31.2820   39.3340 C   0  0  0  0  0  0  0  0  0  0  0  0
   40.1990   32.6210   39.7260 C   0  0  0  0  0  0  0  0  0  0  0  0
   39.3810   32.9290   40.8160 C   0  0  0  0  0  0  0  0  0  0  0  0
   38.6930   31.9330   41.4210 N   0  0  0  0  0  0  0  0  0  0  0  0
   38.7650   30.6430   41.0100 C   0  0  0  0  0  0  0  0  0  0  0  0
   39.5430   30.3240   39.9660 N   0  0  0  0  0  0  0  0  0  0  0  0
   40.8480   30.9250   38.4980 H   0  0  0  0  0  0  0  0  0  0  0  0
   39.3100   33.9370   41.1550 H   0  0  0  0  0  0  0  0  0  0  0  0
   38.0140   29.5850   41.6770 C   0  0  0  0  0  0  0  0  0  0  0  0
   38.3780   29.2140   42.9640 C   0  0  0  0  0  0  0  0  0  0  0  0
   39.2080   29.6770   43.5110 H   0  0  0  0  0  0  0  0  0  0  0  0
   37.7280   28.2240   43.6750 C   0  0  0  0  0  3  0  0  0  0  0  0
   36.6620   27.5660   43.0910 C   0  0  0  0  0  0  0  0  0  0  0  0
   36.0940   26.7710   43.5830 H   0  0  0  0  0  0  0  0  0  0  0  0
   36.3050   27.9470   41.7980 C   0  0  0  0  0  0  0  0  0  0  0  0
   35.4790   27.4410   41.3340 H   0  0  0  0  0  0  0  0  0  0  0  0
   36.9510   28.9410   41.0710 C   0  0  0  0  0  3  0  0  0  0  0  0
   40.9800   33.5980   39.0010 C   0  0  0  0  0  0  0  0  0  0  0  0
   40.3470   34.4980   38.7470 H   0  0  0  0  0  0  0  0  0  0  0  0
   41.8790   33.8720   39.5460 H   0  0  0  0  0  0  0  0  0  0  0  0
   41.4050   32.9900   37.6760 C   0  0  0  0  0  0  0  0  0  0  0  0
   42.2110   32.2510   37.8550 H   0  0  0  0  0  0  0  0  0  0  0  0
   41.8920   33.8230   37.0980 H   0  0  0  0  0  0  0  0  0  0  0  0
   40.5480   32.6250   37.1110 H   0  0  0  0  0  0  0  0  0  0  0  0
  1  2  2  0  0  0  0
  1  6  1  0  0  0  0
  2  3  1  0  0  0  0
  3  8  1  0  0  0  0
  3  4  2  0  0  0  0
  5  4  1  0  0  0  0
  5  9  1  0  0  0  0
  6  5  2  0  0  0  0
  7  1  1  0  0  0  0
  9 10  1  0  0  0  0
 10 11  1  0  0  0  0
 10 12  2  0  0  0  0
 13 14  1  0  0  0  0
 13 12  1  0  0  0  0
 15 13  2  0  0  0  0
 16 15  1  0  0  0  0
 17  9  2  0  0  0  0
 17 15  1  0  0  0  0
 18 20  1  0  0  0  0
 18  2  1  0  0  0  0
 19 18  1  0  0  0  0
 21 22  1  0  0  0  0
 21 18  1  0  0  0  0
 23 21  1  0  0  0  0
 24 21  1  0  0  0  0
M  END
>  <minimizedAffinity>
-4.03886604

$$$$
