
 OpenBabel03252505083D

 43 46  0  0  1  0  0  0  0  0999 V2000
   44.5750   35.5860   44.6040 C   0  0  0  0  0  0  0  0  0  0  0  0
   45.2340   35.5980   43.3530 C   0  0  0  0  0  0  0  0  0  0  0  0
   46.3210   34.6870   43.1770 C   0  0  0  0  0  0  0  0  0  0  0  0
   46.6670   33.8670   44.1950 N   0  0  0  0  0  0  0  0  0  0  0  0
   46.0040   33.8970   45.3680 C   0  0  0  0  0  0  0  0  0  0  0  0
   44.9580   34.7520   45.5830 N   0  0  0  0  0  0  0  0  0  0  0  0
   43.7470   36.2410   44.8170 H   0  0  0  0  0  0  0  0  0  0  0  0
   44.9150   36.2680   42.5890 H   0  0  0  0  0  0  0  0  0  0  0  0
   46.4360   32.9710   46.4530 C   0  0  2  0  0  0  0  0  0  0  0  0
   46.9570   31.7450   45.7580 C   0  0  0  0  0  0  0  0  0  0  0  0
   46.1000   30.5560   45.7830 C   0  0  0  0  0  0  0  0  0  0  0  0
   45.7970   30.2990   47.2610 C   0  0  0  0  0  0  0  0  0  0  0  0
   45.0150   31.3680   47.8590 C   0  0  0  0  0  0  0  0  0  0  0  0
   45.3780   32.7390   47.4120 C   0  0  0  0  0  0  0  0  0  0  0  0
   47.2770   33.4990   46.9570 H   0  0  0  0  0  0  0  0  0  0  0  0
   47.9350   31.4820   46.2260 H   0  0  0  0  0  0  0  0  0  0  0  0
   47.2270   31.9430   44.6830 H   0  0  0  0  0  0  0  0  0  0  0  0
   46.7010   29.6910   45.4310 H   0  0  0  0  0  0  0  0  0  0  0  0
   45.1750   30.7070   45.2020 H   0  0  0  0  0  0  0  0  0  0  0  0
   45.1030   29.4130   47.2250 H   0  0  0  0  0  0  0  0  0  0  0  0
   46.7460   30.0790   47.7640 H   0  0  0  0  0  0  0  0  0  0  0  0
   44.2300   31.3620   48.5550 H   0  0  0  0  0  0  0  0  0  0  0  0
   44.6810   33.8770   47.9250 N   0  0  0  0  0  0  0  0  0  0  0  0
   43.7170   33.9500   47.5240 H   0  0  0  0  0  0  0  0  0  0  0  0
   45.1080   34.5360   48.6120 H   0  0  0  0  0  0  0  0  0  0  0  0
   47.0140   34.6770   41.8990 C   0  0  0  0  0  0  0  0  0  0  0  0
   48.1660   35.3840   41.7740 C   0  0  0  0  0  0  0  0  0  0  0  0
   48.7920   35.3410   40.5200 C   0  0  0  0  0  0  0  0  0  0  0  0
   48.1830   34.5900   39.5430 C   0  0  0  0  0  0  0  0  0  0  0  0
   47.0290   33.8830   39.6670 C   0  0  0  0  0  0  0  0  0  0  0  0
   46.4590   33.9580   40.9050 N   0  0  0  0  0  0  0  0  0  0  0  0
   48.5540   35.9360   42.6030 H   0  0  0  0  0  0  0  0  0  0  0  0
   49.7130   35.8870   40.3700 H   0  0  0  0  0  0  0  0  0  0  0  0
   48.6840   34.5710   38.5780 H   0  0  0  0  0  0  0  0  0  0  0  0
   46.3870   33.1000   38.6550 C   0  0  0  0  0  0  0  0  0  0  0  0
   46.6970   33.3400   37.3310 C   0  0  0  0  0  0  0  0  0  0  0  0
   47.4040   34.0910   36.9760 H   0  0  0  0  0  0  0  0  0  0  0  0
   46.0970   32.6030   36.3160 C   0  0  0  0  0  0  0  0  0  0  0  0
   45.1770   31.6120   36.5910 C   0  0  0  0  0  0  0  0  0  0  0  0
   44.6760   31.0050   35.8520 H   0  0  0  0  0  0  0  0  0  0  0  0
   44.9170   31.4270   37.9290 C   0  0  0  0  0  0  0  0  0  0  0  0
   44.1900   30.6470   38.1890 H   0  0  0  0  0  0  0  0  0  0  0  0
   45.4730   32.1200   38.9840 C   0  0  0  0  0  0  0  0  0  0  0  0
  1  7  1  0  0  0  0
  1  6  1  0  0  0  0
  2  1  2  0  0  0  0
  3  2  1  0  0  0  0
  3  4  2  0  0  0  0
  4  5  1  0  0  0  0
  5  6  2  0  0  0  0
  5  9  1  0  0  0  0
  8  2  1  0  0  0  0
  9 15  1  1  0  0  0
  9 14  1  0  0  0  0
 10 11  1  0  0  0  0
 10 16  1  0  0  0  0
 10  9  1  0  0  0  0
 11 12  1  0  0  0  0
 12 21  1  0  0  0  0
 12 13  1  0  0  0  0
 13 22  1  0  0  0  0
 14 13  2  0  0  0  0
 14 23  1  0  0  0  0
 17 10  1  0  0  0  0
 18 11  1  0  0  0  0
 19 11  1  0  0  0  0
 20 12  1  0  0  0  0
 23 25  1  0  0  0  0
 24 23  1  0  0  0  0
 26  3  1  0  0  0  0
 27 26  1  0  0  0  0
 27 32  1  0  0  0  0
 28 27  2  0  0  0  0
 29 30  2  0  0  0  0
 29 28  1  0  0  0  0
 30 31  1  0  0  0  0
 31 26  2  0  0  0  0
 33 28  1  0  0  0  0
 34 29  1  0  0  0  0
 35 43  1  0  0  0  0
 35 30  1  0  0  0  0
 36 35  2  0  0  0  0
 37 36  1  0  0  0  0
 38 39  2  0  0  0  0
 38 36  1  0  0  0  0
 39 41  1  0  0  0  0
 40 39  1  0  0  0  0
 41 42  1  0  0  0  0
 41 43  2  0  0  0  0
M  END
>  <minimizedAffinity>
-7.3867445

>  <minimizedRMSD>
0.291480362

$$$$
