
 OpenBabel03252507203D

 44 47  0  0  1  0  0  0  0  0999 V2000
   47.0100   33.3960   43.0500 C   0  0  0  0  0  0  0  0  0  0  0  0
   48.0850   33.0760   43.6250 O   0  0  0  0  0  0  0  0  0  0  0  0
   46.6090   32.9250   41.7540 N   0  0  0  0  0  0  0  0  0  0  0  0
   45.3340   32.4280   41.2760 C   0  0  0  0  0  0  0  0  0  0  0  0
   44.9500   33.1890   39.9930 C   0  0  0  0  0  0  0  0  0  0  0  0
   45.9610   32.8950   38.9120 C   0  0  0  0  0  0  0  0  0  0  0  0
   47.1700   32.2300   39.5060 C   0  0  0  0  0  0  0  0  0  0  0  0
   47.6450   32.9510   40.7440 C   0  0  2  0  0  0  0  0  0  0  0  0
   45.3690   31.3670   41.0480 H   0  0  0  0  0  0  0  0  0  0  0  0
   44.5500   32.7260   42.0050 H   0  0  0  0  0  0  0  0  0  0  0  0
   43.9240   32.8920   39.7090 H   0  0  0  0  0  0  0  0  0  0  0  0
   45.0360   34.2740   40.2200 H   0  0  0  0  0  0  0  0  0  0  0  0
   46.3180   33.8180   38.3870 H   0  0  0  0  0  0  0  0  0  0  0  0
   45.4950   32.2040   38.1790 H   0  0  0  0  0  0  0  0  0  0  0  0
   46.9490   31.1630   39.6710 H   0  0  0  0  0  0  0  0  0  0  0  0
   48.0090   32.3250   38.7670 H   0  0  0  0  0  0  0  0  0  0  0  0
   47.7790   34.0120   40.4540 H   0  0  0  0  0  0  0  0  0  0  0  0
   48.9510   32.4300   41.2030 C   0  0  0  0  0  0  0  0  0  0  0  0
   49.1320   31.0530   41.3840 C   0  0  0  0  0  0  0  0  0  0  0  0
   48.2600   30.4200   41.1580 H   0  0  0  0  0  0  0  0  0  0  0  0
   50.2660   30.4230   41.8060 C   0  0  0  0  0  3  0  0  0  0  0  0
   51.3480   31.2090   42.0870 C   0  0  0  0  0  0  0  0  0  0  0  0
   52.2620   30.7450   42.4230 H   0  0  0  0  0  0  0  0  0  0  0  0
   51.2480   32.5680   41.9330 C   0  0  0  0  0  0  0  0  0  0  0  0
   52.1110   33.2120   42.1560 H   0  0  0  0  0  0  0  0  0  0  0  0
   50.0810   33.1640   41.5030 C   0  0  0  0  0  3  0  0  0  0  0  0
   45.7370   35.4900   43.0910 C   0  0  0  0  0  0  0  0  0  0  0  0
   46.1230   34.3000   43.7460 C   0  0  0  0  0  0  0  0  0  0  0  0
   45.6480   34.0420   45.0170 C   0  0  0  0  0  0  0  0  0  0  0  0
   44.8230   34.9460   45.5880 N   0  0  0  0  0  0  0  0  0  0  0  0
   44.4460   36.0930   44.9670 C   0  0  0  0  0  0  0  0  0  0  0  0
   44.9110   36.3420   43.7270 N   0  0  0  0  0  0  0  0  0  0  0  0
   46.0940   35.7200   42.0940 H   0  0  0  0  0  0  0  0  0  0  0  0
   43.7820   36.7530   45.5090 H   0  0  0  0  0  0  0  0  0  0  0  0
   46.0570   32.8180   45.6750 C   0  0  0  0  0  0  0  0  0  0  0  0
   45.6050   31.6160   45.2220 C   0  0  0  0  0  0  0  0  0  0  0  0
   46.0030   30.4610   45.8610 C   0  0  0  0  0  0  0  0  0  0  0  0
   46.8580   30.4690   46.9630 C   0  0  0  0  0  0  0  0  0  0  0  0
   47.2820   31.7190   47.3750 C   0  0  0  0  0  0  0  0  0  0  0  0
   46.8720   32.8190   46.7280 N   0  0  0  0  0  0  0  0  0  0  0  0
   44.9460   31.4420   44.3980 H   0  0  0  0  0  0  0  0  0  0  0  0
   45.6830   29.4650   45.5550 H   0  0  0  0  0  0  0  0  0  0  0  0
   47.1850   29.5790   47.4820 H   0  0  0  0  0  0  0  0  0  0  0  0
   47.9470   31.8650   48.2170 H   0  0  0  0  0  0  0  0  0  0  0  0
  1  2  2  0  0  0  0
  1 28  1  0  0  0  0
  3  1  1  0  0  0  0
  4  3  1  0  0  0  0
  4 10  1  0  0  0  0
  5 12  1  0  0  0  0
  5  4  1  0  0  0  0
  6  7  1  0  0  0  0
  6  5  1  0  0  0  0
  7 15  1  0  0  0  0
  7  8  1  0  0  0  0
  8 17  1  6  0  0  0
  8 18  1  0  0  0  0
  8  3  1  0  0  0  0
  9  4  1  0  0  0  0
 11  5  1  0  0  0  0
 13  6  1  0  0  0  0
 14  6  1  0  0  0  0
 16  7  1  0  0  0  0
 18 19  2  0  0  0  0
 18 26  1  0  0  0  0
 19 21  1  0  0  0  0
 20 19  1  0  0  0  0
 21 22  2  0  0  0  0
 22 23  1  0  0  0  0
 24 22  1  0  0  0  0
 24 25  1  0  0  0  0
 26 24  2  0  0  0  0
 27 32  2  0  0  0  0
 27 28  1  0  0  0  0
 28 29  2  0  0  0  0
 29 30  1  0  0  0  0
 29 35  1  0  0  0  0
 31 34  1  0  0  0  0
 31 30  2  0  0  0  0
 32 31  1  0  0  0  0
 33 27  1  0  0  0  0
 35 40  1  0  0  0  0
 36 35  2  0  0  0  0
 36 37  1  0  0  0  0
 37 38  2  0  0  0  0
 38 39  1  0  0  0  0
 38 43  1  0  0  0  0
 39 44  1  0  0  0  0
 40 39  2  0  0  0  0
 41 36  1  0  0  0  0
 42 37  1  0  0  0  0
M  END
>  <minimizedAffinity>
-5.45886803

>  <minimizedRMSD>
0.768183529

$$$$
