
 OpenBabel03252509213D

 25 27  0  0  0  0  0  0  0  0999 V2000
   44.7850   35.5820   45.3790 C   0  0  0  0  0  0  0  0  0  0  0  0
   45.3550   36.0430   44.1500 C   0  0  0  0  0  0  0  0  0  0  0  0
   45.8390   35.0540   43.3190 C   0  0  0  0  0  0  0  0  0  0  0  0
   45.7700   33.7210   43.6650 N   0  0  0  0  0  0  0  0  0  0  0  0
   45.2190   33.3360   44.8400 C   0  0  0  0  0  0  0  0  0  0  0  0
   44.7290   34.2680   45.6950 N   0  0  0  0  0  0  0  0  0  0  0  0
   44.3590   36.1910   46.1560 H   0  0  0  0  0  0  0  0  0  0  0  0
   45.2400   32.2640   44.9610 H   0  0  0  0  0  0  0  0  0  0  0  0
   45.2880   37.4570   43.9780 C   0  0  0  0  0  0  0  0  0  0  0  0
   45.3030   38.2760   42.8760 C   0  0  0  0  0  0  0  0  0  0  0  0
   45.3400   37.7480   41.9370 H   0  0  0  0  0  0  0  0  0  0  0  0
   45.2540   39.6490   42.9780 C   0  0  0  0  0  3  0  0  0  0  0  0
   45.1860   40.2780   44.1830 C   0  0  0  0  0  0  0  0  0  0  0  0
   45.1490   41.3560   44.1860 H   0  0  0  0  0  0  0  0  0  0  0  0
   45.1670   39.5020   45.3210 C   0  0  0  0  0  0  0  0  0  0  0  0
   45.1120   40.0270   46.2620 H   0  0  0  0  0  0  0  0  0  0  0  0
   45.2170   38.1080   45.2150 C   0  0  0  0  0  3  0  0  0  0  0  0
   46.3740   35.4920   41.9790 C   0  0  0  0  0  0  0  0  0  0  0  0
   47.8970   35.2790   41.9070 C   0  0  0  0  0  0  0  0  0  0  0  0
   46.8520   34.4590   41.0890 C   0  0  0  0  0  0  0  0  0  0  0  0
   46.1870   36.5590   41.7300 H   0  0  0  0  0  0  0  0  0  0  0  0
   48.3980   34.7750   42.7270 H   0  0  0  0  0  0  0  0  0  0  0  0
   48.4780   35.9660   41.2690 H   0  0  0  0  0  0  0  0  0  0  0  0
   46.7780   33.4030   41.4350 H   0  0  0  0  0  0  0  0  0  0  0  0
   46.8620   34.6100   39.9840 H   0  0  0  0  0  0  0  0  0  0  0  0
  1  6  1  0  0  0  0
  1  7  1  0  0  0  0
  2  1  2  0  0  0  0
  3  4  2  0  0  0  0
  3  2  1  0  0  0  0
  4  5  1  0  0  0  0
  5  8  1  0  0  0  0
  5  6  2  0  0  0  0
  9  2  1  0  0  0  0
  9 17  1  0  0  0  0
 10 12  1  0  0  0  0
 10  9  2  0  0  0  0
 11 10  1  0  0  0  0
 12 13  2  0  0  0  0
 13 14  1  0  0  0  0
 13 15  1  0  0  0  0
 15 16  1  0  0  0  0
 17 15  2  0  0  0  0
 18  3  1  0  0  0  0
 19 18  1  0  0  0  0
 19 22  1  0  0  0  0
 20 24  1  0  0  0  0
 20 19  1  0  0  0  0
 20 18  1  0  0  0  0
 21 18  1  0  0  0  0
 23 19  1  0  0  0  0
 25 20  1  0  0  0  0
M  END
>  <minimizedAffinity>
-0.0464271009

>  <minimizedRMSD>
2.08139491

$$$$
