
 OpenBabel03252501553D

 21 22  0  0  0  0  0  0  0  0999 V2000
   44.6170   35.4620   45.0140 C   0  0  0  0  0  0  0  0  0  0  0  0
   45.2850   35.5390   43.7880 C   0  0  0  0  0  0  0  0  0  0  0  0
   46.2750   34.6020   43.5380 C   0  0  0  0  0  0  0  0  0  0  0  0
   46.5530   33.6560   44.4830 N   0  0  0  0  0  0  0  0  0  0  0  0
   45.8730   33.6260   45.6580 C   0  0  0  0  0  0  0  0  0  0  0  0
   44.9010   34.5230   45.9370 N   0  0  0  0  0  0  0  0  0  0  0  0
   43.8460   36.1840   45.2200 H   0  0  0  0  0  0  0  0  0  0  0  0
   46.0720   32.8870   46.4220 H   0  0  0  0  0  0  0  0  0  0  0  0
   46.9900   34.6610   42.2650 C   0  0  0  0  0  0  0  0  0  0  0  0
   48.1340   35.3670   41.9600 C   0  0  0  0  0  0  0  0  0  0  0  0
   48.5300   35.9350   42.7710 H   0  0  0  0  0  0  0  0  0  0  0  0
   48.6670   35.2970   40.6890 C   0  0  0  0  0  0  0  0  0  0  0  0
   48.0550   34.5220   39.7250 C   0  0  0  0  0  0  0  0  0  0  0  0
   48.5770   34.5520   38.7610 H   0  0  0  0  0  0  0  0  0  0  0  0
   46.9060   33.8080   40.0170 C   0  0  0  0  0  0  0  0  0  0  0  0
   46.4890   33.2230   39.2030 H   0  0  0  0  0  0  0  0  0  0  0  0
   46.3700   33.8780   41.2960 C   0  0  0  0  0  0  0  0  0  0  0  0
   44.9000   36.6030   42.8490 C   0  0  0  0  0  0  0  0  0  0  0  0
   45.3330   37.5950   43.0600 H   0  0  0  0  0  0  0  0  0  0  0  0
   45.0200   36.3110   41.7650 H   0  0  0  0  0  0  0  0  0  0  0  0
   43.7860   36.7510   42.9470 H   0  0  0  0  0  0  0  0  0  0  0  0
  1  7  1  0  0  0  0
  1  6  1  0  0  0  0
  2  1  2  0  0  0  0
  3  2  1  0  0  0  0
  3  4  2  0  0  0  0
  4  5  1  0  0  0  0
  5  6  2  0  0  0  0
  5  8  1  0  0  0  0
  9  3  1  0  0  0  0
 10  9  1  0  0  0  0
 10 11  1  0  0  0  0
 12 10  2  0  0  0  0
 13 15  2  0  0  0  0
 13 12  1  0  0  0  0
 14 13  1  0  0  0  0
 15 17  1  0  0  0  0
 16 15  1  0  0  0  0
 17  9  2  0  0  0  0
 18 21  1  0  0  0  0
 18 19  1  0  0  0  0
 18  2  1  0  0  0  0
 20 18  1  0  0  0  0
M  END
>  <minimizedAffinity>
-5.02137852

>  <minimizedRMSD>
2.21220088

$$$$
