
 OpenBabel03252507083D

 24 25  0  0  0  0  0  0  0  0999 V2000
   44.6320   35.6170   44.8330 C   0  0  0  0  0  0  0  0  0  0  0  0
   45.2140   35.7970   43.5700 C   0  0  0  0  0  0  0  0  0  0  0  0
   46.1800   34.8810   43.1540 C   0  0  0  0  0  0  0  0  0  0  0  0
   46.5120   33.8520   43.9990 N   0  0  0  0  0  0  0  0  0  0  0  0
   45.9340   33.7150   45.1960 C   0  0  0  0  0  0  0  0  0  0  0  0
   45.0030   34.5770   45.6250 N   0  0  0  0  0  0  0  0  0  0  0  0
   43.8810   36.2790   45.2250 H   0  0  0  0  0  0  0  0  0  0  0  0
   44.8670   36.6370   43.0130 H   0  0  0  0  0  0  0  0  0  0  0  0
   46.3240   32.6010   46.0570 C   0  0  0  0  0  0  0  0  0  0  0  0
   46.8910   32.8320   47.2980 C   0  0  0  0  0  0  0  0  0  0  0  0
   47.0650   33.8340   47.6740 H   0  0  0  0  0  0  0  0  0  0  0  0
   47.2330   31.7250   48.0530 C   0  0  0  0  0  3  0  0  0  0  0  0
   47.0470   30.4160   47.6510 C   0  0  0  0  0  0  0  0  0  0  0  0
   47.3300   29.5800   48.2750 H   0  0  0  0  0  0  0  0  0  0  0  0
   46.4740   30.1870   46.3970 C   0  0  0  0  0  0  0  0  0  0  0  0
   46.3160   29.1730   46.0560 H   0  0  0  0  0  0  0  0  0  0  0  0
   46.1410   31.2910   45.6620 C   0  0  0  0  0  3  0  0  0  0  0  0
   46.7410   35.0780   41.9040 O   0  0  0  0  0  0  0  0  0  0  0  0
   48.4940   33.3050   41.0280 O   0  0  0  0  0  0  0  0  0  0  0  0
   48.3850   34.6890   41.6630 P   0  0  0  0  0  0  0  0  0  0  0  0
   49.0740   35.8630   40.6850 O   0  0  0  0  0  0  0  0  0  0  0  0
   49.4530   35.4020   39.8840 H   0  0  0  0  0  0  0  0  0  0  0  0
   49.1220   34.6220   43.1850 O   0  0  0  0  0  0  0  0  0  0  0  0
   48.8430   33.7620   43.5920 H   0  0  0  0  0  0  0  0  0  0  0  0
  1  7  1  0  0  0  0
  1  6  1  0  0  0  0
  2  1  2  0  0  0  0
  3  2  1  0  0  0  0
  3  4  2  0  0  0  0
  4  5  1  0  0  0  0
  5  6  2  0  0  0  0
  5  9  1  0  0  0  0
  8  2  1  0  0  0  0
  9 10  1  0  0  0  0
 10 11  1  0  0  0  0
 10 12  2  0  0  0  0
 13 12  1  0  0  0  0
 13 14  1  0  0  0  0
 15 13  2  0  0  0  0
 16 15  1  0  0  0  0
 17  9  2  0  0  0  0
 17 15  1  0  0  0  0
 18  3  1  0  0  0  0
 19 20  2  0  0  0  0
 20 18  1  0  0  0  0
 20 23  1  0  0  0  0
 21 20  1  0  0  0  0
 22 21  1  0  0  0  0
 23 24  1  0  0  0  0
M  END
>  <minimizedAffinity>
-5.51286602

>  <minimizedRMSD>
0.525315285

$$$$
