
 OpenBabel03252502133D

 37 40  0  0  0  0  0  0  0  0999 V2000
   41.1350   35.5090   42.0570 Cl  0  0  0  0  0  0  0  0  0  0  0  0
   41.7470   34.7550   40.5960 C   0  0  0  0  0  0  0  0  0  0  0  0
   43.0250   34.3020   40.5180 C   0  0  0  0  0  0  0  0  0  0  0  0
   43.3900   33.7280   39.3190 C   0  0  0  0  0  0  0  0  0  0  0  0
   42.5470   33.6120   38.2690 C   0  0  0  0  0  0  0  0  0  0  0  0
   41.2590   34.0730   38.3590 C   0  0  0  0  0  0  0  0  0  0  0  0
   40.8700   34.6470   39.5400 C   0  0  0  0  0  0  0  0  0  0  0  0
   42.9110   33.1440   37.3520 H   0  0  0  0  0  0  0  0  0  0  0  0
   40.6080   33.9640   37.5020 H   0  0  0  0  0  0  0  0  0  0  0  0
   39.8500   35.0110   39.6110 H   0  0  0  0  0  0  0  0  0  0  0  0
   45.3390   35.7490   43.1330 C   0  0  0  0  0  0  0  0  0  0  0  0
   44.5040   35.6320   42.0260 C   0  0  0  0  0  0  0  0  0  0  0  0
   43.8960   34.4470   41.6650 C   0  0  0  0  0  0  0  0  0  0  0  0
   44.1700   33.3850   42.4730 N   0  0  0  0  0  0  0  0  0  0  0  0
   44.9740   33.4910   43.5440 C   0  0  0  0  0  0  0  0  0  0  0  0
   45.5570   34.6460   43.8810 N   0  0  0  0  0  0  0  0  0  0  0  0
   45.8030   36.6920   43.3920 H   0  0  0  0  0  0  0  0  0  0  0  0
   44.3000   36.4890   41.3960 H   0  0  0  0  0  0  0  0  0  0  0  0
   45.1210   32.5820   44.1140 H   0  0  0  0  0  0  0  0  0  0  0  0
   44.7710   33.2250   39.1980 C   0  0  0  0  0  0  0  0  0  0  0  0
   45.0080   32.2120   38.2790 C   0  0  0  0  0  0  0  0  0  0  0  0
   46.3200   31.8240   38.2510 C   0  0  0  0  0  0  0  0  0  0  0  0
   47.3440   32.3280   39.0120 C   0  0  0  0  0  0  0  0  0  0  0  0
   47.0140   33.3380   39.9020 C   0  0  0  0  0  0  0  0  0  0  0  0
   45.7410   33.7430   39.9570 N   0  0  0  0  0  0  0  0  0  0  0  0
   44.2670   31.7660   37.6500 H   0  0  0  0  0  0  0  0  0  0  0  0
   46.6050   31.0150   37.5450 H   0  0  0  0  0  0  0  0  0  0  0  0
   48.3650   31.9810   38.9460 H   0  0  0  0  0  0  0  0  0  0  0  0
   47.9870   33.9750   40.7790 C   0  0  0  0  0  0  0  0  0  0  0  0
   48.6720   33.1860   41.6750 C   0  0  0  0  0  0  0  0  0  0  0  0
   48.4900   32.1000   41.7290 H   0  0  0  0  0  0  0  0  0  0  0  0
   49.6150   33.6570   42.5570 C   0  0  0  0  0  0  0  0  0  0  0  0
   49.9220   35.0010   42.5770 C   0  0  0  0  0  0  0  0  0  0  0  0
   50.6420   35.4760   43.2230 H   0  0  0  0  0  0  0  0  0  0  0  0
   49.2340   35.7880   41.6780 C   0  0  0  0  0  0  0  0  0  0  0  0
   49.4170   36.8730   41.6250 H   0  0  0  0  0  0  0  0  0  0  0  0
   48.2810   35.3120   40.7860 C   0  0  0  0  0  0  0  0  0  0  0  0
  2  1  1  0  0  0  0
  3  2  1  0  0  0  0
  3 13  1  0  0  0  0
  4  3  2  0  0  0  0
  5  6  2  0  0  0  0
  5  4  1  0  0  0  0
  6  7  1  0  0  0  0
  7 10  1  0  0  0  0
  7  2  2  0  0  0  0
  8  5  1  0  0  0  0
  9  6  1  0  0  0  0
 11 17  1  0  0  0  0
 11 16  1  0  0  0  0
 12 11  2  0  0  0  0
 13 12  1  0  0  0  0
 13 14  2  0  0  0  0
 14 15  1  0  0  0  0
 15 16  2  0  0  0  0
 15 19  1  0  0  0  0
 18 12  1  0  0  0  0
 20  4  1  0  0  0  0
 20 25  1  0  0  0  0
 21 20  2  0  0  0  0
 22 21  1  0  0  0  0
 22 23  2  0  0  0  0
 23 24  1  0  0  0  0
 24 25  2  0  0  0  0
 24 29  1  0  0  0  0
 26 21  1  0  0  0  0
 27 22  1  0  0  0  0
 28 23  1  0  0  0  0
 29 37  2  0  0  0  0
 29 30  1  0  0  0  0
 30 31  1  0  0  0  0
 30 32  2  0  0  0  0
 32 33  1  0  0  0  0
 33 34  1  0  0  0  0
 35 33  2  0  0  0  0
 36 35  1  0  0  0  0
 37 35  1  0  0  0  0
M  END
>  <minimizedAffinity>
-6.40201187

>  <minimizedRMSD>
3.68298388

$$$$
