
 OpenBabel03252507203D

 44 47  0  0  1  0  0  0  0  0999 V2000
   47.0540   33.1970   43.1010 C   0  0  0  0  0  0  0  0  0  0  0  0
   48.1900   33.0290   43.6210 O   0  0  0  0  0  0  0  0  0  0  0  0
   46.5830   32.5030   41.9340 N   0  0  0  0  0  0  0  0  0  0  0  0
   45.3100   31.8710   41.6540 C   0  0  0  0  0  0  0  0  0  0  0  0
   44.7770   32.3950   40.3060 C   0  0  0  0  0  0  0  0  0  0  0  0
   45.7160   31.9840   39.2000 C   0  0  0  0  0  0  0  0  0  0  0  0
   47.0090   31.4860   39.7800 C   0  0  0  0  0  0  0  0  0  0  0  0
   47.5330   32.4200   40.8440 C   0  0  2  0  0  0  0  0  0  0  0  0
   45.3950   30.7900   41.5910 H   0  0  0  0  0  0  0  0  0  0  0  0
   44.5680   32.2410   42.3930 H   0  0  0  0  0  0  0  0  0  0  0  0
   43.7530   32.0040   40.1640 H   0  0  0  0  0  0  0  0  0  0  0  0
   44.8090   33.5050   40.3530 H   0  0  0  0  0  0  0  0  0  0  0  0
   45.9700   32.8270   38.5080 H   0  0  0  0  0  0  0  0  0  0  0  0
   45.2390   31.1600   38.6270 H   0  0  0  0  0  0  0  0  0  0  0  0
   46.8710   30.4490   40.1290 H   0  0  0  0  0  0  0  0  0  0  0  0
   47.7790   31.5040   38.9650 H   0  0  0  0  0  0  0  0  0  0  0  0
   47.5740   33.4260   40.3820 H   0  0  0  0  0  0  0  0  0  0  0  0
   48.9020   32.0470   41.2630 C   0  0  0  0  0  0  0  0  0  0  0  0
   49.1690   30.7470   41.7110 C   0  0  0  0  0  0  0  0  0  0  0  0
   48.3110   30.0560   41.7180 H   0  0  0  0  0  0  0  0  0  0  0  0
   50.3670   30.2550   42.1330 C   0  0  0  0  0  3  0  0  0  0  0  0
   51.4320   31.1130   42.1240 C   0  0  0  0  0  0  0  0  0  0  0  0
   52.3960   30.7580   42.4520 H   0  0  0  0  0  0  0  0  0  0  0  0
   51.2490   32.4030   41.6980 C   0  0  0  0  0  0  0  0  0  0  0  0
   52.0970   33.1030   41.6850 H   0  0  0  0  0  0  0  0  0  0  0  0
   50.0170   32.8600   41.2790 C   0  0  0  0  0  3  0  0  0  0  0  0
   45.7920   35.2930   42.9790 C   0  0  0  0  0  0  0  0  0  0  0  0
   46.1680   34.1540   43.7230 C   0  0  0  0  0  0  0  0  0  0  0  0
   45.6840   33.9920   45.0060 C   0  0  0  0  0  0  0  0  0  0  0  0
   44.8600   34.9390   45.5040 N   0  0  0  0  0  0  0  0  0  0  0  0
   44.4930   36.0390   44.7980 C   0  0  0  0  0  0  0  0  0  0  0  0
   44.9670   36.1940   43.5460 N   0  0  0  0  0  0  0  0  0  0  0  0
   46.1560   35.4480   41.9710 H   0  0  0  0  0  0  0  0  0  0  0  0
   43.8300   36.7410   45.2860 H   0  0  0  0  0  0  0  0  0  0  0  0
   46.0830   32.8180   45.7550 C   0  0  0  0  0  0  0  0  0  0  0  0
   45.6150   31.5890   45.3980 C   0  0  0  0  0  0  0  0  0  0  0  0
   46.0030   30.4820   46.1220 C   0  0  0  0  0  0  0  0  0  0  0  0
   46.8640   30.5650   47.2170 C   0  0  0  0  0  0  0  0  0  0  0  0
   47.3040   31.8390   47.5290 C   0  0  0  0  0  0  0  0  0  0  0  0
   46.9030   32.8910   46.8010 N   0  0  0  0  0  0  0  0  0  0  0  0
   44.9500   31.3600   44.5920 H   0  0  0  0  0  0  0  0  0  0  0  0
   45.6710   29.4700   45.8950 H   0  0  0  0  0  0  0  0  0  0  0  0
   47.1840   29.7140   47.8010 H   0  0  0  0  0  0  0  0  0  0  0  0
   47.9750   32.0420   48.3550 H   0  0  0  0  0  0  0  0  0  0  0  0
  1  2  2  0  0  0  0
  1 28  1  0  0  0  0
  3  1  1  0  0  0  0
  4  3  1  0  0  0  0
  4 10  1  0  0  0  0
  5 12  1  0  0  0  0
  5  4  1  0  0  0  0
  6  7  1  0  0  0  0
  6  5  1  0  0  0  0
  7 15  1  0  0  0  0
  7  8  1  0  0  0  0
  8 17  1  6  0  0  0
  8 18  1  0  0  0  0
  8  3  1  0  0  0  0
  9  4  1  0  0  0  0
 11  5  1  0  0  0  0
 13  6  1  0  0  0  0
 14  6  1  0  0  0  0
 16  7  1  0  0  0  0
 18 26  2  0  0  0  0
 18 19  1  0  0  0  0
 19 20  1  0  0  0  0
 19 21  2  0  0  0  0
 22 21  1  0  0  0  0
 22 23  1  0  0  0  0
 24 22  2  0  0  0  0
 25 24  1  0  0  0  0
 26 24  1  0  0  0  0
 27 32  2  0  0  0  0
 27 28  1  0  0  0  0
 28 29  2  0  0  0  0
 29 30  1  0  0  0  0
 29 35  1  0  0  0  0
 31 34  1  0  0  0  0
 31 30  2  0  0  0  0
 32 31  1  0  0  0  0
 33 27  1  0  0  0  0
 35 40  1  0  0  0  0
 36 35  2  0  0  0  0
 36 37  1  0  0  0  0
 37 38  2  0  0  0  0
 38 39  1  0  0  0  0
 38 43  1  0  0  0  0
 39 44  1  0  0  0  0
 40 39  2  0  0  0  0
 41 36  1  0  0  0  0
 42 37  1  0  0  0  0
M  END
>  <minimizedAffinity>
-5.30344296

>  <minimizedRMSD>
1.09626412

$$$$
