
 OpenBabel03252507203D

 44 47  0  0  1  0  0  0  0  0999 V2000
   46.9960   32.9960   43.2470 C   0  0  0  0  0  0  0  0  0  0  0  0
   48.1390   32.8340   43.7550 O   0  0  0  0  0  0  0  0  0  0  0  0
   46.4840   32.2370   42.1400 N   0  0  0  0  0  0  0  0  0  0  0  0
   45.1900   31.6210   41.9290 C   0  0  0  0  0  0  0  0  0  0  0  0
   44.6410   32.0660   40.5600 C   0  0  0  0  0  0  0  0  0  0  0  0
   45.5460   31.5580   39.4650 C   0  0  0  0  0  0  0  0  0  0  0  0
   46.8380   31.0680   40.0520 C   0  0  0  0  0  0  0  0  0  0  0  0
   47.4070   32.0570   41.0400 C   0  0  2  0  0  0  0  0  0  0  0  0
   45.2480   30.5360   41.9380 H   0  0  0  0  0  0  0  0  0  0  0  0
   44.4730   32.0580   42.6560 H   0  0  0  0  0  0  0  0  0  0  0  0
   43.6050   31.6930   40.4650 H   0  0  0  0  0  0  0  0  0  0  0  0
   44.7010   33.1770   40.5310 H   0  0  0  0  0  0  0  0  0  0  0  0
   45.8040   32.3470   38.7130 H   0  0  0  0  0  0  0  0  0  0  0  0
   45.0370   30.7110   38.9590 H   0  0  0  0  0  0  0  0  0  0  0  0
   46.6830   30.0610   40.4730 H   0  0  0  0  0  0  0  0  0  0  0  0
   47.5910   31.0110   39.2220 H   0  0  0  0  0  0  0  0  0  0  0  0
   47.4630   33.0290   40.5100 H   0  0  0  0  0  0  0  0  0  0  0  0
   48.7760   31.6790   41.4550 C   0  0  0  0  0  0  0  0  0  0  0  0
   49.8460   32.5550   41.2290 C   0  0  0  0  0  0  0  0  0  0  0  0
   49.5890   33.5090   40.7430 H   0  0  0  0  0  0  0  0  0  0  0  0
   51.1550   32.3500   41.5460 C   0  0  0  0  0  3  0  0  0  0  0  0
   51.4730   31.1650   42.1500 C   0  0  0  0  0  0  0  0  0  0  0  0
   52.5000   30.9690   42.4140 H   0  0  0  0  0  0  0  0  0  0  0  0
   50.4790   30.2550   42.4040 C   0  0  0  0  0  0  0  0  0  0  0  0
   50.7210   29.2980   42.8880 H   0  0  0  0  0  0  0  0  0  0  0  0
   49.1640   30.5040   42.0660 C   0  0  0  0  0  3  0  0  0  0  0  0
   45.7940   35.1180   43.0140 C   0  0  0  0  0  0  0  0  0  0  0  0
   46.1480   34.0150   43.8210 C   0  0  0  0  0  0  0  0  0  0  0  0
   45.6780   33.9450   45.1170 C   0  0  0  0  0  0  0  0  0  0  0  0
   44.8900   34.9460   45.5680 N   0  0  0  0  0  0  0  0  0  0  0  0
   44.5440   36.0110   44.8000 C   0  0  0  0  0  0  0  0  0  0  0  0
   45.0040   36.0760   43.5350 N   0  0  0  0  0  0  0  0  0  0  0  0
   46.1470   35.2000   41.9930 H   0  0  0  0  0  0  0  0  0  0  0  0
   43.9080   36.7600   45.2520 H   0  0  0  0  0  0  0  0  0  0  0  0
   46.0540   32.8080   45.9320 C   0  0  0  0  0  0  0  0  0  0  0  0
   45.5230   31.5800   45.6760 C   0  0  0  0  0  0  0  0  0  0  0  0
   45.8900   30.5080   46.4610 C   0  0  0  0  0  0  0  0  0  0  0  0
   46.7920   30.6270   47.5190 C   0  0  0  0  0  0  0  0  0  0  0  0
   47.2950   31.8980   47.7290 C   0  0  0  0  0  0  0  0  0  0  0  0
   46.9130   32.9150   46.9430 N   0  0  0  0  0  0  0  0  0  0  0  0
   44.8210   31.3270   44.9100 H   0  0  0  0  0  0  0  0  0  0  0  0
   45.5080   29.4990   46.3150 H   0  0  0  0  0  0  0  0  0  0  0  0
   47.0960   29.8030   48.1490 H   0  0  0  0  0  0  0  0  0  0  0  0
   48.0030   32.1260   48.5160 H   0  0  0  0  0  0  0  0  0  0  0  0
  1  2  2  0  0  0  0
  1 28  1  0  0  0  0
  3  1  1  0  0  0  0
  4  9  1  0  0  0  0
  4  3  1  0  0  0  0
  4 10  1  0  0  0  0
  5  4  1  0  0  0  0
  6  7  1  0  0  0  0
  6  5  1  0  0  0  0
  7 15  1  0  0  0  0
  7  8  1  0  0  0  0
  8 17  1  6  0  0  0
  8 18  1  0  0  0  0
  8  3  1  0  0  0  0
 11  5  1  0  0  0  0
 12  5  1  0  0  0  0
 13  6  1  0  0  0  0
 14  6  1  0  0  0  0
 16  7  1  0  0  0  0
 18 26  1  0  0  0  0
 19 18  2  0  0  0  0
 19 21  1  0  0  0  0
 20 19  1  0  0  0  0
 21 22  2  0  0  0  0
 22 24  1  0  0  0  0
 22 23  1  0  0  0  0
 24 25  1  0  0  0  0
 26 24  2  0  0  0  0
 27 32  2  0  0  0  0
 27 28  1  0  0  0  0
 28 29  2  0  0  0  0
 29 30  1  0  0  0  0
 29 35  1  0  0  0  0
 31 34  1  0  0  0  0
 31 30  2  0  0  0  0
 32 31  1  0  0  0  0
 33 27  1  0  0  0  0
 35 40  1  0  0  0  0
 36 35  2  0  0  0  0
 36 37  1  0  0  0  0
 37 38  2  0  0  0  0
 38 39  1  0  0  0  0
 38 43  1  0  0  0  0
 39 44  1  0  0  0  0
 40 39  2  0  0  0  0
 41 36  1  0  0  0  0
 42 37  1  0  0  0  0
M  END
>  <minimizedAffinity>
-5.14006662

>  <minimizedRMSD>
1.33307576

$$$$
