
 OpenBabel03252504423D

 45 48  0  0  0  0  0  0  0  0999 V2000
   46.3810   32.1820   47.8060 C   0  0  0  0  0  0  0  0  0  0  0  0
   45.9200   31.8360   49.0420 C   0  0  0  0  0  0  0  0  0  0  0  0
   46.9000   31.1410   49.6270 N   0  0  0  0  0  0  0  0  0  0  0  0
   47.9670   31.0230   48.8250 C   0  0  0  0  0  0  0  0  0  0  0  0
   47.6300   31.6830   47.6780 N   0  0  0  0  0  0  0  0  0  0  0  0
   49.2210   30.3860   49.0010 N   0  0  0  0  0  0  0  0  0  0  0  0
   50.3100   31.1860   49.6040 C   0  0  0  0  0  0  0  0  0  0  0  0
   50.4160   30.6720   51.0400 C   0  0  0  0  0  0  0  0  0  0  0  0
   50.4340   29.1490   51.0450 C   0  0  0  0  0  0  0  0  0  0  0  0
   50.7600   28.6390   49.6560 C   0  0  0  0  0  0  0  0  0  0  0  0
   49.6720   29.0650   48.7010 C   0  0  0  0  0  0  0  0  0  0  0  0
   44.9420   32.0720   49.4890 H   0  0  0  0  0  0  0  0  0  0  0  0
   46.8630   30.7290   50.5860 H   0  0  0  0  0  0  0  0  0  0  0  0
   51.2540   31.0470   49.0610 H   0  0  0  0  0  0  0  0  0  0  0  0
   50.0150   32.2540   49.6840 H   0  0  0  0  0  0  0  0  0  0  0  0
   51.3530   31.0320   51.4900 H   0  0  0  0  0  0  0  0  0  0  0  0
   49.5100   31.0400   51.5480 H   0  0  0  0  0  0  0  0  0  0  0  0
   49.4450   28.7620   51.3350 H   0  0  0  0  0  0  0  0  0  0  0  0
   51.2390   28.7620   51.7120 H   0  0  0  0  0  0  0  0  0  0  0  0
   51.7610   29.0030   49.4060 H   0  0  0  0  0  0  0  0  0  0  0  0
   50.7540   27.5350   49.6910 H   0  0  0  0  0  0  0  0  0  0  0  0
   50.0540   28.9420   47.6600 H   0  0  0  0  0  0  0  0  0  0  0  0
   48.8070   28.3660   48.8660 H   0  0  0  0  0  0  0  0  0  0  0  0
   45.6600   32.9680   46.7630 C   0  0  0  0  0  0  0  0  0  0  0  0
   44.6810   32.5060   46.5260 H   0  0  0  0  0  0  0  0  0  0  0  0
   45.5250   33.9970   47.1840 H   0  0  0  0  0  0  0  0  0  0  0  0
   46.1520   33.9380   44.5560 C   0  0  0  0  0  0  0  0  0  0  0  0
   46.4730   33.1250   45.5500 C   0  0  0  0  0  0  0  0  0  0  0  0
   47.0560   33.9960   43.4030 C   0  0  0  0  0  0  0  0  0  0  0  0
   46.9470   35.0010   42.4150 C   0  0  0  0  0  0  0  0  0  0  0  0
   47.8380   34.9790   41.3680 C   0  0  0  0  0  0  0  0  0  0  0  0
   48.7810   34.0140   41.3060 N   0  0  0  0  0  0  0  0  0  0  0  0
   48.8640   33.0610   42.2660 C   0  0  0  0  0  0  0  0  0  0  0  0
   48.0310   33.0460   43.2860 N   0  0  0  0  0  0  0  0  0  0  0  0
   46.1630   35.7530   42.5240 H   0  0  0  0  0  0  0  0  0  0  0  0
   47.7660   35.7430   40.6050 H   0  0  0  0  0  0  0  0  0  0  0  0
   49.9200   32.0690   42.0980 C   0  0  0  0  0  0  0  0  0  0  0  0
   50.0070   30.9120   42.8360 C   0  0  0  0  0  0  0  0  0  0  0  0
   49.2350   30.7190   43.6000 H   0  0  0  0  0  0  0  0  0  0  0  0
   50.9850   29.9600   42.7020 C   0  0  0  0  0  0  0  0  0  0  0  0
   51.9330   30.2400   41.7340 C   0  0  0  0  0  0  0  0  0  0  0  0
   52.7320   29.5070   41.5940 H   0  0  0  0  0  0  0  0  0  0  0  0
   51.9580   31.3630   40.9300 C   0  0  0  0  0  0  0  0  0  0  0  0
   52.7190   31.5260   40.1940 H   0  0  0  0  0  0  0  0  0  0  0  0
   50.9150   32.2470   41.1630 C   0  0  0  0  0  0  0  0  0  0  0  0
  1  2  2  0  0  0  0
  2 12  1  0  0  0  0
  2  3  1  0  0  0  0
  3 13  1  0  0  0  0
  4  6  1  0  0  0  0
  4  3  1  0  0  0  0
  5  1  1  0  0  0  0
  5  4  2  0  0  0  0
  6  7  1  0  0  0  0
  7 15  1  0  0  0  0
  7  8  1  0  0  0  0
  8  9  1  0  0  0  0
  8 16  1  0  0  0  0
  8 17  1  0  0  0  0
  9 18  1  0  0  0  0
  9 19  1  0  0  0  0
 10 21  1  0  0  0  0
 10  9  1  0  0  0  0
 11 23  1  0  0  0  0
 11  6  1  0  0  0  0
 11 10  1  0  0  0  0
 14  7  1  0  0  0  0
 20 10  1  0  0  0  0
 22 11  1  0  0  0  0
 24 26  1  0  0  0  0
 24  1  1  0  0  0  0
 25 24  1  0  0  0  0
 27 28  2  0  0  0  0
 28 24  1  0  0  0  0
 29 27  1  0  0  0  0
 30 35  1  0  0  0  0
 30 29  2  0  0  0  0
 31 30  1  0  0  0  0
 32 31  2  0  0  0  0
 32 33  1  0  0  0  0
 33 34  2  0  0  0  0
 34 29  1  0  0  0  0
 36 31  1  0  0  0  0
 37 33  1  0  0  0  0
 37 38  1  0  0  0  0
 38 39  1  0  0  0  0
 40 38  2  0  0  0  0
 41 40  1  0  0  0  0
 42 41  1  0  0  0  0
 43 45  1  0  0  0  0
 43 41  2  0  0  0  0
 44 43  1  0  0  0  0
 45 37  2  0  0  0  0
M  END
>  <minimizedAffinity>
-6.10632515

>  <minimizedRMSD>
0.469394833

$$$$
