
 OpenBabel03242512393D

 34 37  0  0  0  0  0  0  0  0999 V2000
   37.8560   28.1280   42.9190 C   0  0  0  0  0  0  0  0  0  0  0  0
   37.1550   28.5710   43.8670 O   0  0  0  0  0  0  0  0  0  0  0  0
   39.2710   29.0700   41.0360 C   0  0  0  0  0  0  0  0  0  0  0  0
   38.1620   29.1250   41.8720 C   0  0  0  0  0  0  0  0  0  0  0  0
   37.2720   30.1850   41.7270 C   0  0  0  0  0  0  0  0  0  0  0  0
   37.4180   31.1920   40.8020 C   0  0  0  0  0  0  0  0  0  0  0  0
   36.7070   32.2900   40.4820 N   0  0  0  0  0  0  0  0  0  0  0  0
   37.3160   32.9350   39.4790 C   0  0  0  0  0  0  0  0  0  0  0  0
   38.4580   32.2270   39.1420 C   0  0  0  0  0  0  0  0  0  0  0  0
   38.5330   31.1190   39.9760 C   0  0  0  0  0  0  0  0  0  0  0  0
   39.4240   30.0840   40.1010 C   0  0  0  0  0  0  0  0  0  0  0  0
   39.9360   28.2400   41.1760 H   0  0  0  0  0  0  0  0  0  0  0  0
   36.3640   30.3150   42.3430 H   0  0  0  0  0  0  0  0  0  0  0  0
   35.8220   32.6060   40.9300 H   0  0  0  0  0  0  0  0  0  0  0  0
   37.0570   33.8440   38.9520 H   0  0  0  0  0  0  0  0  0  0  0  0
   39.2210   32.4020   38.3960 H   0  0  0  0  0  0  0  0  0  0  0  0
   40.2950   30.0030   39.4740 H   0  0  0  0  0  0  0  0  0  0  0  0
   38.3570   26.7870   42.7850 C   0  0  0  0  0  0  0  0  0  0  0  0
   39.4570   26.4670   43.5650 C   0  0  0  0  0  0  0  0  0  0  0  0
   39.9320   25.1400   43.4130 C   0  0  0  0  0  0  0  0  0  0  0  0
   39.3040   24.2860   42.5420 N   0  0  0  0  0  0  0  0  0  0  0  0
   38.2510   24.6750   41.8290 C   0  0  0  0  0  0  0  0  0  0  0  0
   37.7680   25.9250   41.9430 N   0  0  0  0  0  0  0  0  0  0  0  0
   39.9180   27.1670   44.2330 H   0  0  0  0  0  0  0  0  0  0  0  0
   40.7910   24.8790   44.0170 H   0  0  0  0  0  0  0  0  0  0  0  0
   37.6010   23.7460   40.9090 C   0  0  0  0  0  0  0  0  0  0  0  0
   36.3200   23.9870   40.4450 C   0  0  0  0  0  0  0  0  0  0  0  0
   35.8580   24.8940   40.8110 H   0  0  0  0  0  0  0  0  0  0  0  0
   35.7270   23.0930   39.5750 C   0  0  0  0  0  3  0  0  0  0  0  0
   36.4290   21.9660   39.1830 C   0  0  0  0  0  0  0  0  0  0  0  0
   35.8640   21.3380   38.5000 H   0  0  0  0  0  0  0  0  0  0  0  0
   37.7190   21.6920   39.6320 C   0  0  0  0  0  0  0  0  0  0  0  0
   38.1980   20.7900   39.2770 H   0  0  0  0  0  0  0  0  0  0  0  0
   38.2780   22.6140   40.5020 C   0  0  0  0  0  3  0  0  0  0  0  0
  1  2  2  0  0  0  0
  3 12  1  0  0  0  0
  3  4  1  0  0  0  0
  4  1  1  0  0  0  0
  5  4  2  0  0  0  0
  5 13  1  0  0  0  0
  6  5  1  0  0  0  0
  7  6  1  0  0  0  0
  7 14  1  0  0  0  0
  8  7  1  0  0  0  0
  9  8  2  0  0  0  0
  9 10  1  0  0  0  0
 10 11  1  0  0  0  0
 10  6  2  0  0  0  0
 11  3  2  0  0  0  0
 15  8  1  0  0  0  0
 16  9  1  0  0  0  0
 17 11  1  0  0  0  0
 18  1  1  0  0  0  0
 18 19  1  0  0  0  0
 19 24  1  0  0  0  0
 20 19  2  0  0  0  0
 20 25  1  0  0  0  0
 21 20  1  0  0  0  0
 22 23  1  0  0  0  0
 22 21  2  0  0  0  0
 23 18  2  0  0  0  0
 26 22  1  0  0  0  0
 27 28  1  0  0  0  0
 27 26  2  0  0  0  0
 29 27  1  0  0  0  0
 30 29  2  0  0  0  0
 30 32  1  0  0  0  0
 31 30  1  0  0  0  0
 32 34  2  0  0  0  0
 33 32  1  0  0  0  0
 34 26  1  0  0  0  0
M  END
>  <minimizedAffinity>
-6.27662516

$$$$

 OpenBabel03242512393D

 34 37  0  0  0  0  0  0  0  0999 V2000
   35.2530   28.0270   38.1230 C   0  0  0  0  0  0  0  0  0  0  0  0
   35.7390   27.0710   38.7830 O   0  0  0  0  0  0  0  0  0  0  0  0
   36.8240   29.7630   37.1480 C   0  0  0  0  0  0  0  0  0  0  0  0
   36.0430   29.2740   38.1870 C   0  0  0  0  0  0  0  0  0  0  0  0
   35.9930   29.9950   39.3760 C   0  0  0  0  0  0  0  0  0  0  0  0
   36.6700   31.1710   39.5930 C   0  0  0  0  0  0  0  0  0  0  0  0
   36.7720   32.0250   40.6310 N   0  0  0  0  0  0  0  0  0  0  0  0
   37.5840   33.0340   40.2940 C   0  0  0  0  0  0  0  0  0  0  0  0
   38.0200   32.8240   38.9960 C   0  0  0  0  0  0  0  0  0  0  0  0
   37.4460   31.6430   38.5420 C   0  0  0  0  0  0  0  0  0  0  0  0
   37.5120   30.9500   37.3600 C   0  0  0  0  0  0  0  0  0  0  0  0
   36.8410   29.1820   36.2460 H   0  0  0  0  0  0  0  0  0  0  0  0
   35.4000   29.6880   40.2580 H   0  0  0  0  0  0  0  0  0  0  0  0
   36.3030   31.9330   41.5550 H   0  0  0  0  0  0  0  0  0  0  0  0
   37.9100   33.9050   40.8490 H   0  0  0  0  0  0  0  0  0  0  0  0
   38.6780   33.3930   38.3550 H   0  0  0  0  0  0  0  0  0  0  0  0
   38.1040   31.2930   36.5310 H   0  0  0  0  0  0  0  0  0  0  0  0
   34.0440   27.9970   37.3450 C   0  0  0  0  0  0  0  0  0  0  0  0
   33.7020   26.7700   36.7980 C   0  0  0  0  0  0  0  0  0  0  0  0
   32.5070   26.7680   36.0350 C   0  0  0  0  0  0  0  0  0  0  0  0
   31.7890   27.9270   35.8880 N   0  0  0  0  0  0  0  0  0  0  0  0
   32.1890   29.0650   36.4480 C   0  0  0  0  0  0  0  0  0  0  0  0
   33.3170   29.1110   37.1800 N   0  0  0  0  0  0  0  0  0  0  0  0
   34.2940   25.8870   36.9370 H   0  0  0  0  0  0  0  0  0  0  0  0
   32.2300   25.8160   35.6030 H   0  0  0  0  0  0  0  0  0  0  0  0
   31.4060   30.2860   36.2760 C   0  0  0  0  0  0  0  0  0  0  0  0
   30.6390   30.7880   37.3120 C   0  0  0  0  0  0  0  0  0  0  0  0
   30.6690   30.2160   38.2310 H   0  0  0  0  0  0  0  0  0  0  0  0
   29.9070   31.9450   37.1240 C   0  0  0  0  0  3  0  0  0  0  0  0
   29.9560   32.5820   35.8960 C   0  0  0  0  0  0  0  0  0  0  0  0
   29.3420   33.4770   35.8660 H   0  0  0  0  0  0  0  0  0  0  0  0
   30.7160   32.1020   34.8320 C   0  0  0  0  0  0  0  0  0  0  0  0
   30.6990   32.6610   33.9060 H   0  0  0  0  0  0  0  0  0  0  0  0
   31.4360   30.9410   35.0620 C   0  0  0  0  0  3  0  0  0  0  0  0
  1  4  1  0  0  0  0
  1  2  2  0  0  0  0
  3 11  2  0  0  0  0
  3  4  1  0  0  0  0
  4  5  2  0  0  0  0
  5  6  1  0  0  0  0
  5 13  1  0  0  0  0
  6  7  1  0  0  0  0
  7 14  1  0  0  0  0
  8  7  1  0  0  0  0
  8 15  1  0  0  0  0
  9  8  2  0  0  0  0
 10  9  1  0  0  0  0
 10  6  2  0  0  0  0
 11 10  1  0  0  0  0
 12  3  1  0  0  0  0
 16  9  1  0  0  0  0
 17 11  1  0  0  0  0
 18  1  1  0  0  0  0
 19 24  1  0  0  0  0
 19 18  2  0  0  0  0
 20 19  1  0  0  0  0
 21 20  2  0  0  0  0
 21 22  1  0  0  0  0
 22 23  2  0  0  0  0
 23 18  1  0  0  0  0
 25 20  1  0  0  0  0
 26 22  1  0  0  0  0
 26 27  1  0  0  0  0
 27 28  1  0  0  0  0
 29 27  2  0  0  0  0
 30 29  1  0  0  0  0
 31 30  1  0  0  0  0
 32 34  1  0  0  0  0
 32 30  2  0  0  0  0
 33 32  1  0  0  0  0
 34 26  2  0  0  0  0
M  END
>  <minimizedAffinity>
-6.19826078

$$$$

 OpenBabel03242512393D

 34 37  0  0  0  0  0  0  0  0999 V2000
   36.2570   29.7360   40.7840 C   0  0  0  0  0  0  0  0  0  0  0  0
   36.0970   30.9080   41.2160 O   0  0  0  0  0  0  0  0  0  0  0  0
   34.5470   29.0200   39.0530 C   0  0  0  0  0  0  0  0  0  0  0  0
   35.7920   29.5310   39.3960 C   0  0  0  0  0  0  0  0  0  0  0  0
   36.6730   29.8760   38.3760 C   0  0  0  0  0  0  0  0  0  0  0  0
   36.3900   29.7450   37.0380 C   0  0  0  0  0  0  0  0  0  0  0  0
   37.0630   30.0060   35.9000 N   0  0  0  0  0  0  0  0  0  0  0  0
   36.2990   29.6820   34.8490 C   0  0  0  0  0  0  0  0  0  0  0  0
   35.0920   29.1970   35.3270 C   0  0  0  0  0  0  0  0  0  0  0  0
   35.1400   29.2320   36.7140 C   0  0  0  0  0  0  0  0  0  0  0  0
   34.2550   28.8840   37.7030 C   0  0  0  0  0  0  0  0  0  0  0  0
   33.8930   28.7640   39.8650 H   0  0  0  0  0  0  0  0  0  0  0  0
   37.6840   30.2900   38.5490 H   0  0  0  0  0  0  0  0  0  0  0  0
   38.0250   30.3970   35.8260 H   0  0  0  0  0  0  0  0  0  0  0  0
   36.4840   29.7450   33.7850 H   0  0  0  0  0  0  0  0  0  0  0  0
   34.2100   28.8320   34.8190 H   0  0  0  0  0  0  0  0  0  0  0  0
   33.2810   28.4850   37.4810 H   0  0  0  0  0  0  0  0  0  0  0  0
   36.8310   28.6340   41.5070 C   0  0  0  0  0  0  0  0  0  0  0  0
   37.3640   28.9320   42.7510 C   0  0  0  0  0  0  0  0  0  0  0  0
   37.9260   27.8290   43.4410 C   0  0  0  0  0  0  0  0  0  0  0  0
   37.9100   26.5840   42.8660 N   0  0  0  0  0  0  0  0  0  0  0  0
   37.3780   26.3830   41.6640 C   0  0  0  0  0  0  0  0  0  0  0  0
   36.8350   27.4030   40.9750 N   0  0  0  0  0  0  0  0  0  0  0  0
   37.3560   29.9220   43.1630 H   0  0  0  0  0  0  0  0  0  0  0  0
   38.3450   28.0510   44.4140 H   0  0  0  0  0  0  0  0  0  0  0  0
   37.3750   25.0480   41.0740 C   0  0  0  0  0  0  0  0  0  0  0  0
   38.3320   24.1140   41.4280 C   0  0  0  0  0  0  0  0  0  0  0  0
   39.0580   24.4490   42.1570 H   0  0  0  0  0  0  0  0  0  0  0  0
   38.3080   22.8570   40.8540 C   0  0  0  0  0  3  0  0  0  0  0  0
   37.3210   22.5560   39.9310 C   0  0  0  0  0  0  0  0  0  0  0  0
   37.4030   21.5420   39.5500 H   0  0  0  0  0  0  0  0  0  0  0  0
   36.3430   23.4730   39.5520 C   0  0  0  0  0  0  0  0  0  0  0  0
   35.6080   23.1560   38.8240 H   0  0  0  0  0  0  0  0  0  0  0  0
   36.4020   24.7210   40.1500 C   0  0  0  0  0  3  0  0  0  0  0  0
  1  2  2  0  0  0  0
  1 18  1  0  0  0  0
  3  4  1  0  0  0  0
  3 12  1  0  0  0  0
  4  1  1  0  0  0  0
  5 13  1  0  0  0  0
  5  4  2  0  0  0  0
  6  5  1  0  0  0  0
  7  6  1  0  0  0  0
  8  9  2  0  0  0  0
  8  7  1  0  0  0  0
  9 10  1  0  0  0  0
 10  6  2  0  0  0  0
 10 11  1  0  0  0  0
 11  3  2  0  0  0  0
 14  7  1  0  0  0  0
 15  8  1  0  0  0  0
 16  9  1  0  0  0  0
 17 11  1  0  0  0  0
 18 19  1  0  0  0  0
 19 24  1  0  0  0  0
 19 20  2  0  0  0  0
 20 25  1  0  0  0  0
 21 20  1  0  0  0  0
 22 21  2  0  0  0  0
 23 18  2  0  0  0  0
 23 22  1  0  0  0  0
 26 27  1  0  0  0  0
 26 22  1  0  0  0  0
 27 28  1  0  0  0  0
 29 27  2  0  0  0  0
 30 29  1  0  0  0  0
 31 30  1  0  0  0  0
 32 30  2  0  0  0  0
 32 34  1  0  0  0  0
 33 32  1  0  0  0  0
 34 26  2  0  0  0  0
M  END
>  <minimizedAffinity>
-6.18407726

$$$$

 OpenBabel03242512393D

 34 37  0  0  0  0  0  0  0  0999 V2000
   37.3170   27.4640   42.5670 C   0  0  0  0  0  0  0  0  0  0  0  0
   36.4920   27.3750   43.5150 O   0  0  0  0  0  0  0  0  0  0  0  0
   36.6870   26.4950   40.3090 C   0  0  0  0  0  0  0  0  0  0  0  0
   37.2300   26.3660   41.5810 C   0  0  0  0  0  0  0  0  0  0  0  0
   37.7280   25.1250   41.9690 C   0  0  0  0  0  0  0  0  0  0  0  0
   37.7190   24.0080   41.1690 C   0  0  0  0  0  0  0  0  0  0  0  0
   38.1330   22.7350   41.3190 N   0  0  0  0  0  0  0  0  0  0  0  0
   37.8770   22.0500   40.1980 C   0  0  0  0  0  0  0  0  0  0  0  0
   37.2770   22.9120   39.2940 C   0  0  0  0  0  0  0  0  0  0  0  0
   37.1710   24.1570   39.9000 C   0  0  0  0  0  0  0  0  0  0  0  0
   36.6740   25.3700   39.4960 C   0  0  0  0  0  0  0  0  0  0  0  0
   36.3110   27.4640   40.0430 H   0  0  0  0  0  0  0  0  0  0  0  0
   38.1780   24.9250   42.9580 H   0  0  0  0  0  0  0  0  0  0  0  0
   38.5840   22.3280   42.1650 H   0  0  0  0  0  0  0  0  0  0  0  0
   38.0590   21.0160   39.9340 H   0  0  0  0  0  0  0  0  0  0  0  0
   36.9160   22.7630   38.2860 H   0  0  0  0  0  0  0  0  0  0  0  0
   36.2450   25.5130   38.5200 H   0  0  0  0  0  0  0  0  0  0  0  0
   38.2910   28.5040   42.3800 C   0  0  0  0  0  0  0  0  0  0  0  0
   39.5590   28.2480   42.8760 C   0  0  0  0  0  0  0  0  0  0  0  0
   40.5000   29.2900   42.6820 C   0  0  0  0  0  0  0  0  0  0  0  0
   40.1200   30.4420   42.0410 N   0  0  0  0  0  0  0  0  0  0  0  0
   38.8780   30.6080   41.5950 C   0  0  0  0  0  0  0  0  0  0  0  0
   37.9540   29.6440   41.7600 N   0  0  0  0  0  0  0  0  0  0  0  0
   39.8140   27.3320   43.3720 H   0  0  0  0  0  0  0  0  0  0  0  0
   41.4940   29.1000   43.0650 H   0  0  0  0  0  0  0  0  0  0  0  0
   38.4980   31.8440   40.9170 C   0  0  0  0  0  0  0  0  0  0  0  0
   37.4240   31.8740   40.0460 C   0  0  0  0  0  0  0  0  0  0  0  0
   36.9070   30.9320   39.9150 H   0  0  0  0  0  0  0  0  0  0  0  0
   37.0850   33.0560   39.4160 C   0  0  0  0  0  3  0  0  0  0  0  0
   37.8310   34.1940   39.6710 C   0  0  0  0  0  0  0  0  0  0  0  0
   37.4720   35.0600   39.1220 H   0  0  0  0  0  0  0  0  0  0  0  0
   38.9190   34.1990   40.5420 C   0  0  0  0  0  0  0  0  0  0  0  0
   39.4480   35.1310   40.6850 H   0  0  0  0  0  0  0  0  0  0  0  0
   39.2250   32.9940   41.1520 C   0  0  0  0  0  3  0  0  0  0  0  0
  1  2  2  0  0  0  0
  3  4  1  0  0  0  0
  4  5  2  0  0  0  0
  4  1  1  0  0  0  0
  5 13  1  0  0  0  0
  6  7  1  0  0  0  0
  6  5  1  0  0  0  0
  7 14  1  0  0  0  0
  8  7  1  0  0  0  0
  9 10  1  0  0  0  0
  9  8  2  0  0  0  0
 10  6  2  0  0  0  0
 11 10  1  0  0  0  0
 11  3  2  0  0  0  0
 12  3  1  0  0  0  0
 15  8  1  0  0  0  0
 16  9  1  0  0  0  0
 17 11  1  0  0  0  0
 18  1  1  0  0  0  0
 18 19  1  0  0  0  0
 19 24  1  0  0  0  0
 20 19  2  0  0  0  0
 20 25  1  0  0  0  0
 21 20  1  0  0  0  0
 22 23  1  0  0  0  0
 22 21  2  0  0  0  0
 23 18  2  0  0  0  0
 26 34  1  0  0  0  0
 26 22  1  0  0  0  0
 27 26  2  0  0  0  0
 28 27  1  0  0  0  0
 29 30  2  0  0  0  0
 29 27  1  0  0  0  0
 30 32  1  0  0  0  0
 31 30  1  0  0  0  0
 32 33  1  0  0  0  0
 32 34  2  0  0  0  0
M  END
>  <minimizedAffinity>
-6.16810226

$$$$

 OpenBabel03242512393D

 34 37  0  0  0  0  0  0  0  0999 V2000
   39.0800   33.2140   40.4400 C   0  0  0  0  0  0  0  0  0  0  0  0
   38.7940   34.3870   40.7990 O   0  0  0  0  0  0  0  0  0  0  0  0
   40.3190   32.3530   38.4010 C   0  0  0  0  0  0  0  0  0  0  0  0
   40.2620   33.1190   39.5580 C   0  0  0  0  0  0  0  0  0  0  0  0
   41.3880   33.8510   39.9260 C   0  0  0  0  0  0  0  0  0  0  0  0
   42.5620   33.8670   39.2140 C   0  0  0  0  0  0  0  0  0  0  0  0
   43.7520   34.4820   39.3660 N   0  0  0  0  0  0  0  0  0  0  0  0
   44.5600   34.1390   38.3560 C   0  0  0  0  0  0  0  0  0  0  0  0
   43.8680   33.2750   37.5240 C   0  0  0  0  0  0  0  0  0  0  0  0
   42.5990   33.0950   38.0590 C   0  0  0  0  0  0  0  0  0  0  0  0
   41.5030   32.3650   37.6760 C   0  0  0  0  0  0  0  0  0  0  0  0
   39.4340   31.8010   38.1470 H   0  0  0  0  0  0  0  0  0  0  0  0
   41.4390   34.4890   40.8280 H   0  0  0  0  0  0  0  0  0  0  0  0
   44.0200   35.1260   40.1400 H   0  0  0  0  0  0  0  0  0  0  0  0
   45.5800   34.4220   38.1300 H   0  0  0  0  0  0  0  0  0  0  0  0
   44.1520   32.7720   36.6100 H   0  0  0  0  0  0  0  0  0  0  0  0
   41.5040   31.7590   36.7880 H   0  0  0  0  0  0  0  0  0  0  0  0
   38.3760   32.0150   40.8080 C   0  0  0  0  0  0  0  0  0  0  0  0
   37.0410   31.9570   40.4430 C   0  0  0  0  0  0  0  0  0  0  0  0
   36.3690   30.7670   40.8190 C   0  0  0  0  0  0  0  0  0  0  0  0
   37.0480   29.7840   41.4930 N   0  0  0  0  0  0  0  0  0  0  0  0
   38.3330   29.9200   41.8060 C   0  0  0  0  0  0  0  0  0  0  0  0
   39.0080   31.0340   41.4690 N   0  0  0  0  0  0  0  0  0  0  0  0
   36.5480   32.7500   39.9160 H   0  0  0  0  0  0  0  0  0  0  0  0
   35.3250   30.7100   40.5390 H   0  0  0  0  0  0  0  0  0  0  0  0
   39.0330   28.8590   42.5240 C   0  0  0  0  0  0  0  0  0  0  0  0
   38.3350   27.8100   43.0950 C   0  0  0  0  0  0  0  0  0  0  0  0
   37.2610   27.8430   42.9660 H   0  0  0  0  0  0  0  0  0  0  0  0
   39.0200   26.8180   43.7700 C   0  0  0  0  0  3  0  0  0  0  0  0
   40.3990   26.8940   43.8630 C   0  0  0  0  0  0  0  0  0  0  0  0
   40.8270   26.0620   44.4140 H   0  0  0  0  0  0  0  0  0  0  0  0
   41.1320   27.9370   43.3010 C   0  0  0  0  0  0  0  0  0  0  0  0
   42.2080   27.9210   43.4190 H   0  0  0  0  0  0  0  0  0  0  0  0
   40.4080   28.9100   42.6330 C   0  0  0  0  0  3  0  0  0  0  0  0
  1  2  2  0  0  0  0
  1 18  1  0  0  0  0
  3  4  1  0  0  0  0
  4  5  2  0  0  0  0
  4  1  1  0  0  0  0
  5 13  1  0  0  0  0
  6  7  1  0  0  0  0
  6  5  1  0  0  0  0
  7 14  1  0  0  0  0
  8  7  1  0  0  0  0
  9 10  1  0  0  0  0
  9  8  2  0  0  0  0
 10  6  2  0  0  0  0
 11 10  1  0  0  0  0
 11  3  2  0  0  0  0
 12  3  1  0  0  0  0
 15  8  1  0  0  0  0
 16  9  1  0  0  0  0
 17 11  1  0  0  0  0
 18 23  1  0  0  0  0
 19 18  2  0  0  0  0
 19 20  1  0  0  0  0
 20 21  2  0  0  0  0
 21 22  1  0  0  0  0
 22 26  1  0  0  0  0
 23 22  2  0  0  0  0
 24 19  1  0  0  0  0
 25 20  1  0  0  0  0
 26 34  2  0  0  0  0
 26 27  1  0  0  0  0
 27 29  2  0  0  0  0
 28 27  1  0  0  0  0
 29 30  1  0  0  0  0
 30 31  1  0  0  0  0
 32 33  1  0  0  0  0
 32 30  2  0  0  0  0
 34 32  1  0  0  0  0
M  END
>  <minimizedAffinity>
-6.147264

$$$$

 OpenBabel03242512393D

 34 37  0  0  0  0  0  0  0  0999 V2000
   37.6510   31.1860   38.7940 C   0  0  0  0  0  0  0  0  0  0  0  0
   37.3190   30.8830   37.6170 O   0  0  0  0  0  0  0  0  0  0  0  0
   36.0080   29.5240   39.7800 C   0  0  0  0  0  0  0  0  0  0  0  0
   37.2130   30.2140   39.8180 C   0  0  0  0  0  0  0  0  0  0  0  0
   38.0770   29.9860   40.8850 C   0  0  0  0  0  0  0  0  0  0  0  0
   37.8140   29.1160   41.9150 C   0  0  0  0  0  0  0  0  0  0  0  0
   38.4780   28.7370   43.0250 N   0  0  0  0  0  0  0  0  0  0  0  0
   37.7470   27.8380   43.6940 C   0  0  0  0  0  0  0  0  0  0  0  0
   36.5710   27.6290   42.9910 C   0  0  0  0  0  0  0  0  0  0  0  0
   36.6030   28.4350   41.8600 C   0  0  0  0  0  0  0  0  0  0  0  0
   35.7360   28.6440   40.8180 C   0  0  0  0  0  0  0  0  0  0  0  0
   35.3660   29.7250   38.9440 H   0  0  0  0  0  0  0  0  0  0  0  0
   39.0560   30.4860   41.0020 H   0  0  0  0  0  0  0  0  0  0  0  0
   39.4130   29.0780   43.3320 H   0  0  0  0  0  0  0  0  0  0  0  0
   37.9360   27.3080   44.6180 H   0  0  0  0  0  0  0  0  0  0  0  0
   35.7200   26.9910   43.1820 H   0  0  0  0  0  0  0  0  0  0  0  0
   34.7930   28.1310   40.7510 H   0  0  0  0  0  0  0  0  0  0  0  0
   38.3900   32.3520   39.1960 C   0  0  0  0  0  0  0  0  0  0  0  0
   37.6540   33.3620   39.7960 C   0  0  0  0  0  0  0  0  0  0  0  0
   38.4060   34.5000   40.1810 C   0  0  0  0  0  0  0  0  0  0  0  0
   39.7580   34.5360   39.9510 N   0  0  0  0  0  0  0  0  0  0  0  0
   40.3870   33.5200   39.3680 C   0  0  0  0  0  0  0  0  0  0  0  0
   39.7120   32.4220   38.9850 N   0  0  0  0  0  0  0  0  0  0  0  0
   36.5970   33.2930   39.9570 H   0  0  0  0  0  0  0  0  0  0  0  0
   37.8420   35.2960   40.6500 H   0  0  0  0  0  0  0  0  0  0  0  0
   41.8270   33.5840   39.1330 C   0  0  0  0  0  0  0  0  0  0  0  0
   42.7060   33.8140   40.1760 C   0  0  0  0  0  0  0  0  0  0  0  0
   42.2490   33.9380   41.1490 H   0  0  0  0  0  0  0  0  0  0  0  0
   44.0640   33.8700   39.9280 C   0  0  0  0  0  3  0  0  0  0  0  0
   44.5210   33.6940   38.6330 C   0  0  0  0  0  0  0  0  0  0  0  0
   45.6030   33.7590   38.5600 H   0  0  0  0  0  0  0  0  0  0  0  0
   43.6640   33.4620   37.5600 C   0  0  0  0  0  0  0  0  0  0  0  0
   44.1030   33.3350   36.5800 H   0  0  0  0  0  0  0  0  0  0  0  0
   42.3100   33.4120   37.8510 C   0  0  0  0  0  3  0  0  0  0  0  0
  1 18  1  0  0  0  0
  1  4  1  0  0  0  0
  2  1  2  0  0  0  0
  3  4  2  0  0  0  0
  3 11  1  0  0  0  0
  4  5  1  0  0  0  0
  5 13  1  0  0  0  0
  5  6  2  0  0  0  0
  6  7  1  0  0  0  0
  7 14  1  0  0  0  0
  7  8  1  0  0  0  0
  8 15  1  0  0  0  0
  9 16  1  0  0  0  0
  9  8  2  0  0  0  0
 10  6  1  0  0  0  0
 10  9  1  0  0  0  0
 11 10  2  0  0  0  0
 12  3  1  0  0  0  0
 17 11  1  0  0  0  0
 18 19  1  0  0  0  0
 19 24  1  0  0  0  0
 19 20  2  0  0  0  0
 20 25  1  0  0  0  0
 21 20  1  0  0  0  0
 22 21  2  0  0  0  0
 23 18  2  0  0  0  0
 23 22  1  0  0  0  0
 26 22  1  0  0  0  0
 26 27  1  0  0  0  0
 27 28  1  0  0  0  0
 29 27  2  0  0  0  0
 30 29  1  0  0  0  0
 31 30  1  0  0  0  0
 32 34  1  0  0  0  0
 32 30  2  0  0  0  0
 33 32  1  0  0  0  0
 34 26  2  0  0  0  0
M  END
>  <minimizedAffinity>
-6.0281167

$$$$

 OpenBabel03242512393D

 34 37  0  0  0  0  0  0  0  0999 V2000
   37.9750   27.7950   42.4320 C   0  0  0  0  0  0  0  0  0  0  0  0
   38.6000   27.8980   43.5210 O   0  0  0  0  0  0  0  0  0  0  0  0
   36.9630   25.4690   42.3910 C   0  0  0  0  0  0  0  0  0  0  0  0
   37.8690   26.4120   41.9210 C   0  0  0  0  0  0  0  0  0  0  0  0
   38.7430   26.0450   40.9020 C   0  0  0  0  0  0  0  0  0  0  0  0
   38.7700   24.7990   40.3230 C   0  0  0  0  0  0  0  0  0  0  0  0
   39.5030   24.2260   39.3490 N   0  0  0  0  0  0  0  0  0  0  0  0
   39.1020   22.9600   39.1800 C   0  0  0  0  0  0  0  0  0  0  0  0
   38.0760   22.7090   40.0760 C   0  0  0  0  0  0  0  0  0  0  0  0
   37.8570   23.8690   40.8070 C   0  0  0  0  0  0  0  0  0  0  0  0
   36.9860   24.2090   41.8110 C   0  0  0  0  0  0  0  0  0  0  0  0
   36.3050   25.7860   43.1770 H   0  0  0  0  0  0  0  0  0  0  0  0
   39.4970   26.7240   40.4630 H   0  0  0  0  0  0  0  0  0  0  0  0
   40.2650   24.6770   38.8020 H   0  0  0  0  0  0  0  0  0  0  0  0
   39.4420   22.1870   38.5030 H   0  0  0  0  0  0  0  0  0  0  0  0
   37.4830   21.8240   40.2650 H   0  0  0  0  0  0  0  0  0  0  0  0
   36.2690   23.5090   42.2030 H   0  0  0  0  0  0  0  0  0  0  0  0
   37.3830   28.8710   41.6850 C   0  0  0  0  0  0  0  0  0  0  0  0
   36.0990   28.6510   41.2120 C   0  0  0  0  0  0  0  0  0  0  0  0
   35.5400   29.7260   40.4770 C   0  0  0  0  0  0  0  0  0  0  0  0
   36.2670   30.8730   40.2840 N   0  0  0  0  0  0  0  0  0  0  0  0
   37.4970   31.0030   40.7730 C   0  0  0  0  0  0  0  0  0  0  0  0
   38.0660   30.0070   41.4760 N   0  0  0  0  0  0  0  0  0  0  0  0
   35.5660   27.7370   41.3860 H   0  0  0  0  0  0  0  0  0  0  0  0
   34.5370   29.5650   40.1030 H   0  0  0  0  0  0  0  0  0  0  0  0
   38.2510   32.2340   40.5530 C   0  0  0  0  0  0  0  0  0  0  0  0
   37.6180   33.3840   40.1160 C   0  0  0  0  0  0  0  0  0  0  0  0
   36.5510   33.2940   39.9580 H   0  0  0  0  0  0  0  0  0  0  0  0
   38.3540   34.5360   39.9150 C   0  0  0  0  0  3  0  0  0  0  0  0
   39.7170   34.5160   40.1550 C   0  0  0  0  0  0  0  0  0  0  0  0
   40.1880   35.4760   39.9630 H   0  0  0  0  0  0  0  0  0  0  0  0
   40.3850   33.3750   40.5940 C   0  0  0  0  0  0  0  0  0  0  0  0
   41.4520   33.4460   40.7570 H   0  0  0  0  0  0  0  0  0  0  0  0
   39.6120   32.2420   40.7840 C   0  0  0  0  0  3  0  0  0  0  0  0
  1  2  2  0  0  0  0
  3 12  1  0  0  0  0
  4  3  1  0  0  0  0
  4  1  1  0  0  0  0
  5  4  2  0  0  0  0
  6 10  2  0  0  0  0
  6  5  1  0  0  0  0
  7  6  1  0  0  0  0
  8  7  1  0  0  0  0
  8  9  2  0  0  0  0
  9 16  1  0  0  0  0
  9 10  1  0  0  0  0
 10 11  1  0  0  0  0
 11 17  1  0  0  0  0
 11  3  2  0  0  0  0
 13  5  1  0  0  0  0
 14  7  1  0  0  0  0
 15  8  1  0  0  0  0
 18  1  1  0  0  0  0
 19 24  1  0  0  0  0
 19 18  2  0  0  0  0
 20 19  1  0  0  0  0
 21 20  2  0  0  0  0
 21 22  1  0  0  0  0
 22 23  2  0  0  0  0
 23 18  1  0  0  0  0
 25 20  1  0  0  0  0
 26 22  1  0  0  0  0
 26 34  1  0  0  0  0
 27 26  2  0  0  0  0
 28 27  1  0  0  0  0
 29 27  1  0  0  0  0
 29 30  2  0  0  0  0
 30 32  1  0  0  0  0
 31 30  1  0  0  0  0
 32 33  1  0  0  0  0
 32 34  2  0  0  0  0
M  END
>  <minimizedAffinity>
-5.9957099

$$$$

 OpenBabel03242512393D

 34 37  0  0  0  0  0  0  0  0999 V2000
   39.5570   30.8220   42.1100 C   0  0  0  0  0  0  0  0  0  0  0  0
   40.4670   31.4510   42.7130 O   0  0  0  0  0  0  0  0  0  0  0  0
   38.3350   28.9160   43.2530 C   0  0  0  0  0  0  0  0  0  0  0  0
   39.4120   29.4130   42.5290 C   0  0  0  0  0  0  0  0  0  0  0  0
   40.4310   28.5360   42.1670 C   0  0  0  0  0  0  0  0  0  0  0  0
   40.4430   27.1990   42.4810 C   0  0  0  0  0  0  0  0  0  0  0  0
   41.2950   26.1810   42.2460 N   0  0  0  0  0  0  0  0  0  0  0  0
   40.8050   25.0600   42.7900 C   0  0  0  0  0  0  0  0  0  0  0  0
   39.5970   25.3650   43.3960 C   0  0  0  0  0  0  0  0  0  0  0  0
   39.3580   26.7200   43.2060 C   0  0  0  0  0  0  0  0  0  0  0  0
   38.3420   27.5650   43.5740 C   0  0  0  0  0  0  0  0  0  0  0  0
   37.5680   29.6180   43.5160 H   0  0  0  0  0  0  0  0  0  0  0  0
   41.3260   28.8370   41.5920 H   0  0  0  0  0  0  0  0  0  0  0  0
   42.1950   26.2360   41.7270 H   0  0  0  0  0  0  0  0  0  0  0  0
   41.1920   24.0490   42.8140 H   0  0  0  0  0  0  0  0  0  0  0  0
   38.8890   24.7570   43.9400 H   0  0  0  0  0  0  0  0  0  0  0  0
   37.4910   27.2210   44.1350 H   0  0  0  0  0  0  0  0  0  0  0  0
   38.6880   31.3500   41.0930 C   0  0  0  0  0  0  0  0  0  0  0  0
   38.6840   32.7280   40.9510 C   0  0  0  0  0  0  0  0  0  0  0  0
   37.8180   33.2230   39.9430 C   0  0  0  0  0  0  0  0  0  0  0  0
   37.0670   32.3480   39.1990 N   0  0  0  0  0  0  0  0  0  0  0  0
   37.1310   31.0360   39.4010 C   0  0  0  0  0  0  0  0  0  0  0  0
   37.9390   30.5240   40.3480 N   0  0  0  0  0  0  0  0  0  0  0  0
   39.2870   33.3760   41.5550 H   0  0  0  0  0  0  0  0  0  0  0  0
   37.8070   34.2980   39.8230 H   0  0  0  0  0  0  0  0  0  0  0  0
   36.3200   30.1260   38.5960 C   0  0  0  0  0  0  0  0  0  0  0  0
   35.2900   29.4000   39.1670 C   0  0  0  0  0  0  0  0  0  0  0  0
   35.1420   29.5600   40.2270 H   0  0  0  0  0  0  0  0  0  0  0  0
   34.5380   28.5460   38.3840 C   0  0  0  0  0  3  0  0  0  0  0  0
   34.8320   28.4320   37.0360 C   0  0  0  0  0  0  0  0  0  0  0  0
   34.1770   27.7330   36.5240 H   0  0  0  0  0  0  0  0  0  0  0  0
   35.8620   29.1470   36.4300 C   0  0  0  0  0  0  0  0  0  0  0  0
   36.0250   29.0000   35.3710 H   0  0  0  0  0  0  0  0  0  0  0  0
   36.5920   29.9930   37.2490 C   0  0  0  0  0  3  0  0  0  0  0  0
  1  4  1  0  0  0  0
  1  2  2  0  0  0  0
  3 12  1  0  0  0  0
  3 11  1  0  0  0  0
  4  3  2  0  0  0  0
  5  6  2  0  0  0  0
  5  4  1  0  0  0  0
  6 10  1  0  0  0  0
  7  6  1  0  0  0  0
  7  8  1  0  0  0  0
  8 15  1  0  0  0  0
  8  9  2  0  0  0  0
  9 16  1  0  0  0  0
 10  9  1  0  0  0  0
 10 11  2  0  0  0  0
 11 17  1  0  0  0  0
 13  5  1  0  0  0  0
 14  7  1  0  0  0  0
 18  1  1  0  0  0  0
 19 18  1  0  0  0  0
 19 24  1  0  0  0  0
 20 19  2  0  0  0  0
 21 22  2  0  0  0  0
 21 20  1  0  0  0  0
 22 23  1  0  0  0  0
 23 18  2  0  0  0  0
 25 20  1  0  0  0  0
 26 27  1  0  0  0  0
 26 22  1  0  0  0  0
 27 28  1  0  0  0  0
 29 27  2  0  0  0  0
 30 29  1  0  0  0  0
 31 30  1  0  0  0  0
 32 30  2  0  0  0  0
 32 34  1  0  0  0  0
 33 32  1  0  0  0  0
 34 26  2  0  0  0  0
M  END
>  <minimizedAffinity>
-5.99228096

$$$$

 OpenBabel03242512393D

 34 37  0  0  0  0  0  0  0  0999 V2000
   36.2240   29.0180   38.3110 C   0  0  0  0  0  0  0  0  0  0  0  0
   35.2350   29.3540   37.6070 O   0  0  0  0  0  0  0  0  0  0  0  0
   38.4940   30.1230   38.0670 C   0  0  0  0  0  0  0  0  0  0  0  0
   37.1930   30.1060   38.5550 C   0  0  0  0  0  0  0  0  0  0  0  0
   36.7600   31.1790   39.3290 C   0  0  0  0  0  0  0  0  0  0  0  0
   37.5410   32.2640   39.6460 C   0  0  0  0  0  0  0  0  0  0  0  0
   37.3470   33.3920   40.3570 N   0  0  0  0  0  0  0  0  0  0  0  0
   38.4680   34.1230   40.3420 C   0  0  0  0  0  0  0  0  0  0  0  0
   39.4170   33.4440   39.5950 C   0  0  0  0  0  0  0  0  0  0  0  0
   38.8390   32.2620   39.1480 C   0  0  0  0  0  0  0  0  0  0  0  0
   39.2880   31.2160   38.3830 C   0  0  0  0  0  0  0  0  0  0  0  0
   38.7950   29.2800   37.4740 H   0  0  0  0  0  0  0  0  0  0  0  0
   35.7450   31.2560   39.7610 H   0  0  0  0  0  0  0  0  0  0  0  0
   36.4720   33.6700   40.8490 H   0  0  0  0  0  0  0  0  0  0  0  0
   38.7040   35.0790   40.7920 H   0  0  0  0  0  0  0  0  0  0  0  0
   40.4390   33.6820   39.3390 H   0  0  0  0  0  0  0  0  0  0  0  0
   40.2870   31.1890   37.9860 H   0  0  0  0  0  0  0  0  0  0  0  0
   36.4670   27.7160   38.8690 C   0  0  0  0  0  0  0  0  0  0  0  0
   35.8550   26.6520   38.2260 C   0  0  0  0  0  0  0  0  0  0  0  0
   36.1090   25.3800   38.7970 C   0  0  0  0  0  0  0  0  0  0  0  0
   36.9130   25.2780   39.9050 N   0  0  0  0  0  0  0  0  0  0  0  0
   37.4630   26.3520   40.4620 C   0  0  0  0  0  0  0  0  0  0  0  0
   37.2470   27.5780   39.9520 N   0  0  0  0  0  0  0  0  0  0  0  0
   35.2330   26.7770   37.3620 H   0  0  0  0  0  0  0  0  0  0  0  0
   35.6360   24.5430   38.3030 H   0  0  0  0  0  0  0  0  0  0  0  0
   38.3130   26.2160   41.6410 C   0  0  0  0  0  0  0  0  0  0  0  0
   38.8420   24.9880   41.9960 C   0  0  0  0  0  0  0  0  0  0  0  0
   38.5790   24.1650   41.3450 H   0  0  0  0  0  0  0  0  0  0  0  0
   39.6440   24.8850   43.1170 C   0  0  0  0  0  3  0  0  0  0  0  0
   39.9040   26.0200   43.8670 C   0  0  0  0  0  0  0  0  0  0  0  0
   40.5430   25.8170   44.7210 H   0  0  0  0  0  0  0  0  0  0  0  0
   39.3870   27.2710   43.5380 C   0  0  0  0  0  0  0  0  0  0  0  0
   39.6390   28.1060   44.1770 H   0  0  0  0  0  0  0  0  0  0  0  0
   38.5890   27.3310   42.4070 C   0  0  0  0  0  3  0  0  0  0  0  0
  1  4  1  0  0  0  0
  1 18  1  0  0  0  0
  2  1  2  0  0  0  0
  3 11  2  0  0  0  0
  3  4  1  0  0  0  0
  4  5  2  0  0  0  0
  5  6  1  0  0  0  0
  5 13  1  0  0  0  0
  6  7  1  0  0  0  0
  7 14  1  0  0  0  0
  8  7  1  0  0  0  0
  8 15  1  0  0  0  0
  9  8  2  0  0  0  0
 10  9  1  0  0  0  0
 10  6  2  0  0  0  0
 11 10  1  0  0  0  0
 12  3  1  0  0  0  0
 16  9  1  0  0  0  0
 17 11  1  0  0  0  0
 18 23  1  0  0  0  0
 19 20  1  0  0  0  0
 19 18  2  0  0  0  0
 20 21  2  0  0  0  0
 21 22  1  0  0  0  0
 22 26  1  0  0  0  0
 23 22  2  0  0  0  0
 24 19  1  0  0  0  0
 25 20  1  0  0  0  0
 26 27  2  0  0  0  0
 26 34  1  0  0  0  0
 27 29  1  0  0  0  0
 28 27  1  0  0  0  0
 29 30  2  0  0  0  0
 30 31  1  0  0  0  0
 32 30  1  0  0  0  0
 32 33  1  0  0  0  0
 34 32  2  0  0  0  0
M  END
>  <minimizedAffinity>
-5.9720664

$$$$
