
     RDKit          3D

 26 27  0  0  0  0  0  0  0  0999 V2000
   44.5912   35.9977   44.5080 C   0  0  0  0  0  0  0  0  0  0  0  0
   45.2303   35.9986   43.2595 C   0  0  0  0  0  0  0  0  0  0  0  0
   46.1024   34.9496   42.9674 C   0  0  0  0  0  0  0  0  0  0  0  0
   46.2909   33.9733   43.9117 N   0  0  0  0  0  0  0  0  0  0  0  0
   45.6619   34.0093   45.0910 C   0  0  0  0  0  0  0  0  0  0  0  0
   44.8192   35.0008   45.4032 N   0  0  0  0  0  0  0  0  0  0  0  0
   46.7216   34.9710   41.7300 O   0  0  0  0  0  0  0  0  0  0  0  0
   48.6517   33.3345   40.9699 O   0  0  0  0  0  0  0  0  0  0  0  0
   48.4023   34.6824   41.6397 P   0  0  0  0  0  0  0  0  0  0  0  0
   49.1133   35.9313   40.7770 O   0  0  0  0  0  0  0  0  0  0  0  0
   48.9902   34.5926   43.2238 O   0  0  0  0  0  0  0  0  0  0  0  0
   43.9050   36.7699   44.8095 H   0  0  0  0  0  0  0  0  0  0  0  0
   44.9957   36.8164   42.6180 H   0  0  0  0  0  0  0  0  0  0  0  0
   49.5941   35.5248   40.0020 H   0  0  0  0  0  0  0  0  0  0  0  0
   48.7231   33.7030   43.5703 H   0  0  0  0  0  0  0  0  0  0  0  0
   45.8988   32.9429   46.0622 C   0  0  0  0  0  0  0  0  0  0  0  0
   46.6913   33.1643   47.1752 C   0  0  0  0  0  0  0  0  0  0  0  0
   47.1603   34.1228   47.3675 H   0  0  0  0  0  0  0  0  0  0  0  0
   46.8667   32.1049   48.0465 C   0  0  0  0  0  0  0  0  0  0  0  0
   46.3077   30.8530   47.8792 C   0  0  0  0  0  0  0  0  0  0  0  0
   46.4724   30.0535   48.5872 H   0  0  0  0  0  0  0  0  0  0  0  0
   45.5077   30.6335   46.7532 C   0  0  0  0  0  0  0  0  0  0  0  0
   45.0570   29.6631   46.5963 H   0  0  0  0  0  0  0  0  0  0  0  0
   45.3435   31.6903   45.9009 C   0  0  0  0  0  0  0  0  0  0  0  0
   47.4887   32.2470   48.9381 H   0  0  0  0  0  0  0  0  0  0  0  0
   44.7064   31.4618   45.0344 H   0  0  0  0  0  0  0  0  0  0  0  0
  1  6  2  0
  2  1  1  0
  3  2  2  0
  3  4  1  0
  4  5  2  0
  5  6  1  0
  7  3  1  0
  8  9  2  0
  9  7  1  0
  9 11  1  0
 10  9  1  0
  1 12  1  0
  2 13  1  0
 10 14  1  0
 11 15  1  0
 16 17  2  0
 17 18  1  0
 17 19  1  0
 19 20  2  0
 20 21  1  0
 20 22  1  0
 22 23  1  0
 22 24  2  0
 24 16  1  0
 19 25  1  0
 24 26  1  0
  5 16  1  0
M  ISO  7  12  14  13  14  14   3  15   3  18  16  21  16  23  16
M  END
>  <DihAtoms>  (1) 
3,4,15,16

>  <DihDeg>  (1) 
-179.9967626781888

$$$$
