REMARK  Name = 
REMARK  3 active torsions:
REMARK  status: ('A' for Active; 'I' for Inactive)
REMARK    1  A    between atoms: C_2  and  C_13
REMARK    2  A    between atoms: C_3  and  C_7
REMARK    3  A    between atoms: C_20  and  C_36
REMARK                            x       y       z     vdW  Elec       q    Type
REMARK                         _______ _______ _______ _____ _____    ______ ____
ROOT
ATOM      1  C   UNL     1      47.412  33.710  42.719  0.00  0.00    +0.000 C 
ATOM      2  O   UNL     1      48.505  33.536  43.323  0.00  0.00    +0.000 OA
ATOM      3  N   UNL     1      47.114  33.194  41.412  0.00  0.00    +0.000 N 
ATOM      4  C   UNL     1      45.932  32.531  40.899  0.00  0.00    +0.000 C 
ATOM      5  C   UNL     1      45.483  33.238  39.606  0.00  0.00    +0.000 C 
ATOM      6  C   UNL     1      46.553  33.089  38.553  0.00  0.00    +0.000 C 
ATOM      7  C   UNL     1      47.825  32.592  39.179  0.00  0.00    +0.000 C 
ATOM      8  C   UNL     1      48.164  33.365  40.430  0.00  0.00    +0.000 C 
ATOM      9  H   UNL     1      46.117  31.485  40.671  0.00  0.00    +0.000 HD
ATOM     10  H   UNL     1      45.095  32.716  41.606  0.00  0.00    +0.000 HD
ATOM     11  H   UNL     1      44.515  32.806  39.294  0.00  0.00    +0.000 HD
ATOM     12  H   UNL     1      45.414  34.324  39.836  0.00  0.00    +0.000 HD
ATOM     13  H   UNL     1      46.795  34.054  38.039  0.00  0.00    +0.000 HD
ATOM     14  H   UNL     1      46.205  32.344  37.807  0.00  0.00    +0.000 HD
ATOM     15  H   UNL     1      47.746  31.504  39.338  0.00  0.00    +0.000 HD
ATOM     16  H   UNL     1      48.663  32.803  38.464  0.00  0.00    +0.000 HD
ATOM     17  H   UNL     1      48.160  34.436  40.145  0.00  0.00    +0.000 HD
ENDROOT
BRANCH   8  18
ATOM     18  C   UNL     1      49.516  33.024  40.925  0.00  0.00    +0.000 A 
ATOM     19  C   UNL     1      49.724  31.833  41.633  0.00  0.00    +0.000 A 
ATOM     20  H   UNL     1      48.835  31.199  41.775  0.00  0.00    +0.000 HD
ATOM     21  C   UNL     1      50.900  31.384  42.155  0.00  0.00    +0.000 A 
ATOM     22  C   UNL     1      52.003  32.173  41.977  0.00  0.00    +0.000 A 
ATOM     23  H   UNL     1      52.950  31.849  42.378  0.00  0.00    +0.000 HD
ATOM     24  C   UNL     1      51.878  33.355  41.294  0.00  0.00    +0.000 A 
ATOM     25  H   UNL     1      52.757  33.998  41.144  0.00  0.00    +0.000 HD
ATOM     26  C   UNL     1      50.667  33.771  40.781  0.00  0.00    +0.000 A 
ENDBRANCH   8  18
BRANCH   1  28
ATOM     27  C   UNL     1      46.021  35.724  42.831  0.00  0.00    +0.000 A 
ATOM     28  C   UNL     1      46.392  34.482  43.391  0.00  0.00    +0.000 A 
ATOM     29  C   UNL     1      45.777  34.050  44.549  0.00  0.00    +0.000 A 
ATOM     30  N   UNL     1      44.834  34.840  45.107  0.00  0.00    +0.000 NA
ATOM     31  C   UNL     1      44.470  36.036  44.577  0.00  0.00    +0.000 A 
ATOM     32  N   UNL     1      45.072  36.455  43.447  0.00  0.00    +0.000 NA
ATOM     33  H   UNL     1      46.486  36.090  41.924  0.00  0.00    +0.000 HD
ATOM     34  H   UNL     1      43.705  36.595  45.099  0.00  0.00    +0.000 HD
BRANCH  29  35
ATOM     35  C   UNL     1      46.173  32.775  45.111  0.00  0.00    +0.000 A 
ATOM     36  C   UNL     1      45.792  31.615  44.506  0.00  0.00    +0.000 A 
ATOM     37  C   UNL     1      46.176  30.410  45.054  0.00  0.00    +0.000 A 
ATOM     38  C   UNL     1      46.946  30.324  46.214  0.00  0.00    +0.000 A 
ATOM     39  C   UNL     1      47.300  31.535  46.781  0.00  0.00    +0.000 A 
ATOM     40  N   UNL     1      46.907  32.686  46.218  0.00  0.00    +0.000 NA
ATOM     41  H   UNL     1      45.202  31.512  43.620  0.00  0.00    +0.000 HD
ATOM     42  H   UNL     1      45.910  29.444  44.626  0.00  0.00    +0.000 HD
ATOM     43  H   UNL     1      47.260  29.393  46.664  0.00  0.00    +0.000 HD
ATOM     44  H   UNL     1      47.896  31.609  47.682  0.00  0.00    +0.000 HD
ENDBRANCH  29  35
ENDBRANCH   1  28
TORSDOF 3
