
     RDKit          3D

 46 49  0  0  0  0  0  0  0  0999 V2000
   46.0210   35.7245   42.8308 C   0  0  0  0  0  0  0  0  0  0  0  0
   46.3917   34.4820   43.3912 C   0  0  0  0  0  0  0  0  0  0  0  0
   45.7766   34.0498   44.5489 C   0  0  0  0  0  0  0  0  0  0  0  0
   44.8343   34.8395   45.1069 N   0  0  0  0  0  0  0  0  0  0  0  0
   44.4697   36.0358   44.5772 C   0  0  0  0  0  0  0  0  0  0  0  0
   45.0718   36.4554   43.4470 N   0  0  0  0  0  0  0  0  0  0  0  0
   46.1729   32.7753   45.1114 C   0  0  0  0  0  0  0  0  0  0  0  0
   45.7920   31.6146   44.5056 C   0  0  0  0  0  0  0  0  0  0  0  0
   46.1762   30.4095   45.0538 C   0  0  0  0  0  0  0  0  0  0  0  0
   46.9457   30.3243   46.2135 C   0  0  0  0  0  0  0  0  0  0  0  0
   47.3000   31.5352   46.7805 C   0  0  0  0  0  0  0  0  0  0  0  0
   46.9074   32.6858   46.2180 N   0  0  0  0  0  0  0  0  0  0  0  0
   47.4116   33.7101   42.7189 C   0  0  0  0  0  0  0  0  0  0  0  0
   48.5054   33.5362   43.3230 O   0  0  0  0  0  0  0  0  0  0  0  0
   47.1136   33.1937   41.4118 N   0  0  0  0  0  0  0  0  0  0  0  0
   45.9324   32.5306   40.8991 C   0  0  0  0  0  0  0  0  0  0  0  0
   45.4827   33.2382   39.6057 C   0  0  0  0  0  0  0  0  0  0  0  0
   46.5530   33.0894   38.5530 C   0  0  0  0  0  0  0  0  0  0  0  0
   47.8255   32.5917   39.1789 C   0  0  0  0  0  0  0  0  0  0  0  0
   48.1644   33.3652   40.4297 C   0  0  2  0  0  0  0  0  0  0  0  0
   46.4855   36.0900   41.9238 H   0  0  0  0  0  0  0  0  0  0  0  0
   43.7046   36.5954   45.0987 H   0  0  0  0  0  0  0  0  0  0  0  0
   45.2024   31.5125   43.6203 H   0  0  0  0  0  0  0  0  0  0  0  0
   45.9096   29.4439   44.6255 H   0  0  0  0  0  0  0  0  0  0  0  0
   47.2604   29.3926   46.6642 H   0  0  0  0  0  0  0  0  0  0  0  0
   47.8959   31.6091   47.6823 H   0  0  0  0  0  0  0  0  0  0  0  0
   46.1173   31.4854   40.6712 H   0  0  0  0  0  0  0  0  0  0  0  0
   45.0946   32.7158   41.6056 H   0  0  0  0  0  0  0  0  0  0  0  0
   44.5149   32.8059   39.2938 H   0  0  0  0  0  0  0  0  0  0  0  0
   45.4136   34.3241   39.8360 H   0  0  0  0  0  0  0  0  0  0  0  0
   46.7952   34.0545   38.0389 H   0  0  0  0  0  0  0  0  0  0  0  0
   46.2051   32.3440   37.8073 H   0  0  0  0  0  0  0  0  0  0  0  0
   47.7465   31.5037   39.3383 H   0  0  0  0  0  0  0  0  0  0  0  0
   48.6629   32.8031   38.4636 H   0  0  0  0  0  0  0  0  0  0  0  0
   48.1597   34.4357   40.1449 H   0  0  0  0  0  0  0  0  0  0  0  0
   49.5161   33.0241   40.9253 C   0  0  0  0  0  0  0  0  0  0  0  0
   49.7996   31.7186   41.3470 C   0  0  0  0  0  0  0  0  0  0  0  0
   48.9687   31.0004   41.2751 H   0  0  0  0  0  0  0  0  0  0  0  0
   50.9853   31.2533   41.8316 C   0  0  0  0  0  0  0  0  0  0  0  0
   52.0169   32.1464   41.9205 C   0  0  0  0  0  0  0  0  0  0  0  0
   52.9698   31.8123   42.2998 H   0  0  0  0  0  0  0  0  0  0  0  0
   51.8153   33.4441   41.5259 C   0  0  0  0  0  0  0  0  0  0  0  0
   52.6367   34.1723   41.5924 H   0  0  0  0  0  0  0  0  0  0  0  0
   50.5975   33.8731   41.0409 C   0  0  0  0  0  0  0  0  0  0  0  0
   51.0735   30.2147   42.1248 H   0  0  0  0  0  0  0  0  0  0  0  0
   50.4188   34.9068   40.7210 H   0  0  0  0  0  0  0  0  0  0  0  0
  1  2  2  0
  1  6  1  0
  2  3  1  0
  3  7  1  0
  3  4  2  0
  5  4  1  0
  6  5  2  0
  7 12  2  0
  8  9  2  0
  8  7  1  0
  9 10  1  0
 10 11  2  0
 12 11  1  0
 13 14  2  0
 13  2  1  0
 15 13  1  0
 16 15  1  0
 17 16  1  0
 18 19  1  0
 18 17  1  0
 19 20  1  0
 20 15  1  0
  1 21  1  0
  5 22  1  0
  8 23  1  0
  9 24  1  0
 10 25  1  0
 11 26  1  0
 16 27  1  0
 16 28  1  0
 17 29  1  0
 17 30  1  0
 18 31  1  0
 18 32  1  0
 19 33  1  0
 19 34  1  0
 20 35  1  6
 36 37  2  0
 37 38  1  0
 37 39  1  0
 39 40  2  0
 40 41  1  0
 40 42  1  0
 42 43  1  0
 42 44  2  0
 44 36  1  0
 39 45  1  0
 44 46  1  0
 20 36  1  0
M  ISO  8  21  14  22  14  23  14  24  14  25  14  26  14  27  13  28  13
M  ISO  8  29  13  30  13  31  13  32  13  33  13  34  13  35  13  38  16
M  ISO  2  41  16  43  16
M  END
>  <DihAtoms>  (1) 
18,19,35,36

>  <DihDeg>  (1) 
101.93661872801209

$$$$
