
 OpenBabel03252507203D

 44 47  0  0  1  0  0  0  0  0999 V2000
   47.0020   33.1710   43.2020 C   0  0  0  0  0  0  0  0  0  0  0  0
   48.1570   33.0350   43.6890 O   0  0  0  0  0  0  0  0  0  0  0  0
   46.5020   32.4360   42.0740 N   0  0  0  0  0  0  0  0  0  0  0  0
   45.2290   31.7790   41.8570 C   0  0  0  0  0  0  0  0  0  0  0  0
   44.6440   32.2540   40.5130 C   0  0  0  0  0  0  0  0  0  0  0  0
   45.5500   31.8230   39.3880 C   0  0  0  0  0  0  0  0  0  0  0  0
   46.8700   31.3610   39.9380 C   0  0  0  0  0  0  0  0  0  0  0  0
   47.4150   32.3330   40.9550 C   0  0  2  0  0  0  0  0  0  0  0  0
   45.3290   30.6970   41.8240 H   0  0  0  0  0  0  0  0  0  0  0  0
   44.5070   32.1610   42.6100 H   0  0  0  0  0  0  0  0  0  0  0  0
   43.6210   31.8450   40.4180 H   0  0  0  0  0  0  0  0  0  0  0  0
   44.6610   33.3660   40.5260 H   0  0  0  0  0  0  0  0  0  0  0  0
   45.7680   32.6480   38.6630 H   0  0  0  0  0  0  0  0  0  0  0  0
   45.0670   30.9760   38.8570 H   0  0  0  0  0  0  0  0  0  0  0  0
   46.7590   30.3330   40.3220 H   0  0  0  0  0  0  0  0  0  0  0  0
   47.6110   31.3640   39.0970 H   0  0  0  0  0  0  0  0  0  0  0  0
   47.4260   33.3260   40.4620 H   0  0  0  0  0  0  0  0  0  0  0  0
   48.8030   31.9920   41.3370 C   0  0  0  0  0  0  0  0  0  0  0  0
   49.1030   30.7120   41.8220 C   0  0  0  0  0  0  0  0  0  0  0  0
   48.2550   30.0130   41.8830 H   0  0  0  0  0  0  0  0  0  0  0  0
   50.3220   30.2510   42.2180 C   0  0  0  0  0  3  0  0  0  0  0  0
   51.3740   31.1200   42.1400 C   0  0  0  0  0  0  0  0  0  0  0  0
   52.3550   30.7880   42.4450 H   0  0  0  0  0  0  0  0  0  0  0  0
   51.1590   32.3920   41.6750 C   0  0  0  0  0  0  0  0  0  0  0  0
   51.9970   33.1010   41.6070 H   0  0  0  0  0  0  0  0  0  0  0  0
   49.9070   32.8180   41.2840 C   0  0  0  0  0  3  0  0  0  0  0  0
   45.7270   35.2600   43.0700 C   0  0  0  0  0  0  0  0  0  0  0  0
   46.1240   34.1350   43.8260 C   0  0  0  0  0  0  0  0  0  0  0  0
   45.6660   33.9930   45.1210 C   0  0  0  0  0  0  0  0  0  0  0  0
   44.8480   34.9450   45.6200 N   0  0  0  0  0  0  0  0  0  0  0  0
   44.4610   36.0300   44.9020 C   0  0  0  0  0  0  0  0  0  0  0  0
   44.9090   36.1670   43.6390 N   0  0  0  0  0  0  0  0  0  0  0  0
   46.0700   35.3990   42.0530 H   0  0  0  0  0  0  0  0  0  0  0  0
   43.8040   36.7370   45.3910 H   0  0  0  0  0  0  0  0  0  0  0  0
   46.0870   32.8340   45.8820 C   0  0  0  0  0  0  0  0  0  0  0  0
   45.6080   31.5980   45.5630 C   0  0  0  0  0  0  0  0  0  0  0  0
   46.0170   30.5060   46.2980 C   0  0  0  0  0  0  0  0  0  0  0  0
   46.9090   30.6100   47.3660 C   0  0  0  0  0  0  0  0  0  0  0  0
   47.3570   31.8900   47.6400 C   0  0  0  0  0  0  0  0  0  0  0  0
   46.9360   32.9270   46.9020 N   0  0  0  0  0  0  0  0  0  0  0  0
   44.9210   31.3540   44.7820 H   0  0  0  0  0  0  0  0  0  0  0  0
   45.6780   29.4900   46.1010 H   0  0  0  0  0  0  0  0  0  0  0  0
   47.2440   29.7710   47.9580 H   0  0  0  0  0  0  0  0  0  0  0  0
   48.0520   32.1090   48.4410 H   0  0  0  0  0  0  0  0  0  0  0  0
  1  2  2  0  0  0  0
  1 28  1  0  0  0  0
  3  1  1  0  0  0  0
  4  3  1  0  0  0  0
  4 10  1  0  0  0  0
  5 12  1  0  0  0  0
  5  4  1  0  0  0  0
  6  7  1  0  0  0  0
  6  5  1  0  0  0  0
  7 15  1  0  0  0  0
  7  8  1  0  0  0  0
  8 17  1  6  0  0  0
  8 18  1  0  0  0  0
  8  3  1  0  0  0  0
  9  4  1  0  0  0  0
 11  5  1  0  0  0  0
 13  6  1  0  0  0  0
 14  6  1  0  0  0  0
 16  7  1  0  0  0  0
 18 19  1  0  0  0  0
 19 20  1  0  0  0  0
 19 21  2  0  0  0  0
 22 21  1  0  0  0  0
 22 23  1  0  0  0  0
 24 22  2  0  0  0  0
 25 24  1  0  0  0  0
 26 18  2  0  0  0  0
 26 24  1  0  0  0  0
 27 32  2  0  0  0  0
 27 28  1  0  0  0  0
 28 29  2  0  0  0  0
 29 30  1  0  0  0  0
 29 35  1  0  0  0  0
 31 34  1  0  0  0  0
 31 30  2  0  0  0  0
 32 31  1  0  0  0  0
 33 27  1  0  0  0  0
 35 40  1  0  0  0  0
 36 35  2  0  0  0  0
 36 37  1  0  0  0  0
 37 38  2  0  0  0  0
 38 39  1  0  0  0  0
 38 43  1  0  0  0  0
 39 44  1  0  0  0  0
 40 39  2  0  0  0  0
 41 36  1  0  0  0  0
 42 37  1  0  0  0  0
M  END
>  <minimizedAffinity>
-5.29768848

>  <minimizedRMSD>
1.17218387

$$$$
