
 OpenBabel03252507523D

 31 33  0  0  1  0  0  0  0  0999 V2000
   46.7630   34.9050   42.1790 C   0  0  2  0  0  0  0  0  0  0  0  0
   46.2460   33.8970   41.2010 C   0  0  0  0  0  0  0  0  0  0  0  0
   47.3680   33.9440   40.1670 C   0  0  0  0  0  0  0  0  0  0  0  0
   48.6260   34.1750   40.9860 C   0  0  1  0  0  0  0  0  0  0  0  0
   48.1730   34.3640   42.4190 C   0  0  0  0  0  0  0  0  0  0  0  0
   46.8770   35.8800   41.7130 H   0  0  0  0  0  0  0  0  0  0  0  0
   46.1910   32.8850   41.6180 H   0  0  0  0  0  0  0  0  0  0  0  0
   45.2910   34.2100   40.7190 H   0  0  0  0  0  0  0  0  0  0  0  0
   47.1400   34.8400   39.5390 H   0  0  0  0  0  0  0  0  0  0  0  0
   47.3690   33.0010   39.6070 H   0  0  0  0  0  0  0  0  0  0  0  0
   49.1610   35.0890   40.6160 H   0  0  0  0  0  0  0  0  0  0  0  0
   48.1810   33.4280   42.9950 H   0  0  0  0  0  0  0  0  0  0  0  0
   48.7630   35.1880   42.8480 H   0  0  0  0  0  0  0  0  0  0  0  0
   44.4000   36.0310   44.8930 C   0  0  0  0  0  0  0  0  0  0  0  0
   45.0790   36.0550   43.6680 C   0  0  0  0  0  0  0  0  0  0  0  0
   45.9840   35.0030   43.4330 C   0  0  0  0  0  0  0  0  0  0  0  0
   46.1640   34.0230   44.3850 N   0  0  0  0  0  0  0  0  0  0  0  0
   45.4740   34.0660   45.5450 C   0  0  0  0  0  0  0  0  0  0  0  0
   44.5980   35.0610   45.7990 N   0  0  0  0  0  0  0  0  0  0  0  0
   43.7330   36.8790   44.9690 H   0  0  0  0  0  0  0  0  0  0  0  0
   44.9870   36.7760   42.8940 H   0  0  0  0  0  0  0  0  0  0  0  0
   45.5810   33.3210   46.3220 H   0  0  0  0  0  0  0  0  0  0  0  0
   49.5070   33.0220   40.7760 C   0  0  0  0  0  0  0  0  0  0  0  0
   50.5120   32.6950   41.6560 C   0  0  0  0  0  0  0  0  0  0  0  0
   50.6940   33.2750   42.5400 H   0  0  0  0  0  0  0  0  0  0  0  0
   51.3430   31.5930   41.4430 C   0  0  0  0  0  3  0  0  0  0  0  0
   51.1830   30.7830   40.3240 C   0  0  0  0  0  0  0  0  0  0  0  0
   51.7770   29.9210   40.0870 H   0  0  0  0  0  0  0  0  0  0  0  0
   50.1810   31.0950   39.4300 C   0  0  0  0  0  0  0  0  0  0  0  0
   50.0120   30.4930   38.5350 H   0  0  0  0  0  0  0  0  0  0  0  0
   49.3740   32.1870   39.6620 C   0  0  0  0  0  3  0  0  0  0  0  0
  1  6  1  6  0  0  0
  1  5  1  0  0  0  0
  1 16  1  0  0  0  0
  2  7  1  0  0  0  0
  2  1  1  0  0  0  0
  3  4  1  0  0  0  0
  3  2  1  0  0  0  0
  4 11  1  6  0  0  0
  4  5  1  0  0  0  0
  5 13  1  0  0  0  0
  5 12  1  0  0  0  0
  8  2  1  0  0  0  0
  9  3  1  0  0  0  0
 10  3  1  0  0  0  0
 14 20  1  0  0  0  0
 14 19  1  0  0  0  0
 15 14  2  0  0  0  0
 16 15  1  0  0  0  0
 16 17  2  0  0  0  0
 17 18  1  0  0  0  0
 18 19  2  0  0  0  0
 18 22  1  0  0  0  0
 21 15  1  0  0  0  0
 23  4  1  0  0  0  0
 23 24  1  0  0  0  0
 24 25  1  0  0  0  0
 26 24  2  0  0  0  0
 27 26  1  0  0  0  0
 28 27  1  0  0  0  0
 29 31  1  0  0  0  0
 29 27  2  0  0  0  0
 30 29  1  0  0  0  0
 31 23  2  0  0  0  0
M  END
>  <minimizedAffinity>
-4.86639977

>  <minimizedRMSD>
1.58879828

$$$$
