
 OpenBabel03242515273D

 31 33  0  0  0  0  0  0  0  0999 V2000
   39.6210   28.2880   42.0390 C   0  0  0  0  0  0  0  0  0  0  0  0
   38.6570   27.8480   42.9400 C   0  0  0  0  0  0  0  0  0  0  0  0
   37.5640   28.6610   43.1380 C   0  0  0  0  0  0  0  0  0  0  0  0
   37.4880   29.8230   42.4580 N   0  0  0  0  0  0  0  0  0  0  0  0
   38.4390   30.2250   41.5910 C   0  0  0  0  0  0  0  0  0  0  0  0
   39.5210   29.4670   41.3650 N   0  0  0  0  0  0  0  0  0  0  0  0
   40.5400   27.7350   41.7900 H   0  0  0  0  0  0  0  0  0  0  0  0
   36.8220   28.3060   43.8400 H   0  0  0  0  0  0  0  0  0  0  0  0
   38.2560   31.5040   40.9090 C   0  0  0  0  0  0  0  0  0  0  0  0
   37.2550   31.6770   39.9730 C   0  0  0  0  0  0  0  0  0  0  0  0
   36.5760   30.8730   39.7150 H   0  0  0  0  0  0  0  0  0  0  0  0
   37.0740   32.8850   39.3210 C   0  0  0  0  0  3  0  0  0  0  0  0
   37.9400   33.9160   39.6470 C   0  0  0  0  0  0  0  0  0  0  0  0
   37.7730   34.8490   39.1200 H   0  0  0  0  0  0  0  0  0  0  0  0
   38.9570   33.7980   40.5740 C   0  0  0  0  0  0  0  0  0  0  0  0
   39.5920   34.6500   40.7740 H   0  0  0  0  0  0  0  0  0  0  0  0
   39.0930   32.5540   41.2020 C   0  0  0  0  0  3  0  0  0  0  0  0
   38.9200   26.5550   43.5800 C   0  0  0  0  0  0  0  0  0  0  0  0
   38.3170   26.5560   44.5330 H   0  0  0  0  0  0  0  0  0  0  0  0
   39.9550   26.4630   43.9030 H   0  0  0  0  0  0  0  0  0  0  0  0
   38.4590   25.4950   42.7000 N   0  0  0  0  0  0  0  0  0  0  0  0
   37.2200   25.5080   42.2250 C   0  0  0  0  0  0  0  0  0  0  0  0
   36.8290   24.4730   41.3880 C   0  0  0  0  0  0  0  0  0  0  0  0
   37.6950   23.4620   41.0570 C   0  0  0  0  0  0  0  0  0  0  0  0
   37.3220   22.5390   40.3010 O   0  0  0  0  0  0  0  0  0  0  0  0
   38.9550   23.4810   41.5610 N   0  0  0  0  0  0  0  0  0  0  0  0
   39.3460   24.4980   42.3860 C   0  0  0  0  0  0  0  0  0  0  0  0
   40.5180   24.4560   42.8160 O   0  0  0  0  0  0  0  0  0  0  0  0
   36.4950   26.2870   42.4580 H   0  0  0  0  0  0  0  0  0  0  0  0
   35.8410   24.4300   40.9750 H   0  0  0  0  0  0  0  0  0  0  0  0
   39.6360   22.7180   41.3220 H   0  0  0  0  0  0  0  0  0  0  0  0
  1  2  1  0  0  0  0
  2  3  2  0  0  0  0
  2 18  1  0  0  0  0
  3  8  1  0  0  0  0
  4  3  1  0  0  0  0
  5  4  2  0  0  0  0
  6  5  1  0  0  0  0
  6  1  2  0  0  0  0
  7  1  1  0  0  0  0
  9 17  1  0  0  0  0
  9  5  1  0  0  0  0
 10  9  2  0  0  0  0
 11 10  1  0  0  0  0
 12 13  2  0  0  0  0
 12 10  1  0  0  0  0
 13 15  1  0  0  0  0
 14 13  1  0  0  0  0
 15 16  1  0  0  0  0
 15 17  2  0  0  0  0
 18 20  1  0  0  0  0
 18 19  1  0  0  0  0
 21 18  1  0  0  0  0
 22 29  1  0  0  0  0
 22 21  1  0  0  0  0
 23 22  2  0  0  0  0
 24 23  1  0  0  0  0
 24 26  1  0  0  0  0
 25 24  2  0  0  0  0
 26 27  1  0  0  0  0
 27 21  1  0  0  0  0
 27 28  2  0  0  0  0
 30 23  1  0  0  0  0
 31 26  1  0  0  0  0
M  END
>  <minimizedAffinity>
-5.6001296

$$$$

 OpenBabel03242515273D

 31 33  0  0  0  0  0  0  0  0999 V2000
   36.3960   29.9370   39.3590 C   0  0  0  0  0  0  0  0  0  0  0  0
   37.4540   30.6370   39.9300 C   0  0  0  0  0  0  0  0  0  0  0  0
   38.3160   29.9270   40.7330 C   0  0  0  0  0  0  0  0  0  0  0  0
   38.0920   28.6100   40.9220 N   0  0  0  0  0  0  0  0  0  0  0  0
   37.0570   27.9580   40.3560 C   0  0  0  0  0  0  0  0  0  0  0  0
   36.1910   28.6070   39.5650 N   0  0  0  0  0  0  0  0  0  0  0  0
   35.6370   30.3850   38.6990 H   0  0  0  0  0  0  0  0  0  0  0  0
   39.1350   30.4830   41.1700 H   0  0  0  0  0  0  0  0  0  0  0  0
   36.9080   26.5300   40.6280 C   0  0  0  0  0  0  0  0  0  0  0  0
   37.1420   26.0150   41.8880 C   0  0  0  0  0  0  0  0  0  0  0  0
   37.4430   26.6510   42.7120 H   0  0  0  0  0  0  0  0  0  0  0  0
   37.0030   24.6630   42.1550 C   0  0  0  0  0  3  0  0  0  0  0  0
   36.6180   23.8470   41.1050 C   0  0  0  0  0  0  0  0  0  0  0  0
   36.5180   22.7950   41.3450 H   0  0  0  0  0  0  0  0  0  0  0  0
   36.3710   24.3090   39.8260 C   0  0  0  0  0  0  0  0  0  0  0  0
   36.0750   23.6070   39.0590 H   0  0  0  0  0  0  0  0  0  0  0  0
   36.5270   25.6830   39.6140 C   0  0  0  0  0  3  0  0  0  0  0  0
   37.5280   32.0650   39.6050 C   0  0  0  0  0  0  0  0  0  0  0  0
   37.4910   32.6070   40.5920 H   0  0  0  0  0  0  0  0  0  0  0  0
   36.6470   32.4070   39.0630 H   0  0  0  0  0  0  0  0  0  0  0  0
   38.7930   32.3290   38.9400 N   0  0  0  0  0  0  0  0  0  0  0  0
   39.8330   32.7800   39.6310 C   0  0  0  0  0  0  0  0  0  0  0  0
   41.0190   33.0150   38.9490 C   0  0  0  0  0  0  0  0  0  0  0  0
   41.1180   32.7900   37.6000 C   0  0  0  0  0  0  0  0  0  0  0  0
   42.1960   33.0090   37.0050 O   0  0  0  0  0  0  0  0  0  0  0  0
   40.0340   32.3290   36.9260 N   0  0  0  0  0  0  0  0  0  0  0  0
   38.8640   32.0950   37.5910 C   0  0  0  0  0  0  0  0  0  0  0  0
   37.9040   31.6710   36.9130 O   0  0  0  0  0  0  0  0  0  0  0  0
   39.8050   32.9750   40.7020 H   0  0  0  0  0  0  0  0  0  0  0  0
   41.8910   33.3800   39.4540 H   0  0  0  0  0  0  0  0  0  0  0  0
   40.0860   32.1490   35.8920 H   0  0  0  0  0  0  0  0  0  0  0  0
  1  6  2  0  0  0  0
  1  2  1  0  0  0  0
  2  3  2  0  0  0  0
  3  4  1  0  0  0  0
  3  8  1  0  0  0  0
  5  9  1  0  0  0  0
  5  4  2  0  0  0  0
  6  5  1  0  0  0  0
  7  1  1  0  0  0  0
  9 10  1  0  0  0  0
 10 12  2  0  0  0  0
 10 11  1  0  0  0  0
 13 14  1  0  0  0  0
 13 12  1  0  0  0  0
 15 13  2  0  0  0  0
 16 15  1  0  0  0  0
 17 15  1  0  0  0  0
 17  9  2  0  0  0  0
 18  2  1  0  0  0  0
 18 19  1  0  0  0  0
 20 18  1  0  0  0  0
 21 18  1  0  0  0  0
 21 22  1  0  0  0  0
 22 29  1  0  0  0  0
 23 30  1  0  0  0  0
 23 22  2  0  0  0  0
 24 23  1  0  0  0  0
 25 24  2  0  0  0  0
 26 27  1  0  0  0  0
 26 24  1  0  0  0  0
 27 21  1  0  0  0  0
 28 27  2  0  0  0  0
 31 26  1  0  0  0  0
M  END
>  <minimizedAffinity>
-5.50352144

$$$$

 OpenBabel03242515273D

 31 33  0  0  0  0  0  0  0  0999 V2000
   36.6300   30.1090   39.0470 C   0  0  0  0  0  0  0  0  0  0  0  0
   37.3110   30.9430   39.9270 C   0  0  0  0  0  0  0  0  0  0  0  0
   37.8490   30.3640   41.0530 C   0  0  0  0  0  0  0  0  0  0  0  0
   37.6900   29.0370   41.2400 N   0  0  0  0  0  0  0  0  0  0  0  0
   37.0240   28.2530   40.3690 C   0  0  0  0  0  0  0  0  0  0  0  0
   36.4820   28.7720   39.2580 N   0  0  0  0  0  0  0  0  0  0  0  0
   36.1540   30.4440   38.1130 H   0  0  0  0  0  0  0  0  0  0  0  0
   38.3760   31.0240   41.7290 H   0  0  0  0  0  0  0  0  0  0  0  0
   36.9100   26.8280   40.6700 C   0  0  0  0  0  0  0  0  0  0  0  0
   37.1260   26.3480   41.9470 C   0  0  0  0  0  0  0  0  0  0  0  0
   37.3860   27.0100   42.7640 H   0  0  0  0  0  0  0  0  0  0  0  0
   37.0210   24.9990   42.2420 C   0  0  0  0  0  3  0  0  0  0  0  0
   36.6880   24.1480   41.2010 C   0  0  0  0  0  0  0  0  0  0  0  0
   36.6140   23.0980   41.4630 H   0  0  0  0  0  0  0  0  0  0  0  0
   36.4620   24.5730   39.9060 C   0  0  0  0  0  0  0  0  0  0  0  0
   36.2060   23.8460   39.1480 H   0  0  0  0  0  0  0  0  0  0  0  0
   36.5820   25.9470   39.6660 C   0  0  0  0  0  3  0  0  0  0  0  0
   37.3760   32.3590   39.5490 C   0  0  0  0  0  0  0  0  0  0  0  0
   37.0670   32.9360   40.4660 H   0  0  0  0  0  0  0  0  0  0  0  0
   36.6350   32.6130   38.7930 H   0  0  0  0  0  0  0  0  0  0  0  0
   38.7470   32.6850   39.1930 N   0  0  0  0  0  0  0  0  0  0  0  0
   39.3340   32.0830   38.1660 C   0  0  0  0  0  0  0  0  0  0  0  0
   40.6440   32.4300   37.8670 C   0  0  0  0  0  0  0  0  0  0  0  0
   41.3170   33.3660   38.6080 C   0  0  0  0  0  0  0  0  0  0  0  0
   42.4970   33.6640   38.3220 O   0  0  0  0  0  0  0  0  0  0  0  0
   40.6850   33.9610   39.6520 N   0  0  0  0  0  0  0  0  0  0  0  0
   39.3950   33.6240   39.9510 C   0  0  0  0  0  0  0  0  0  0  0  0
   38.8710   34.2080   40.9240 O   0  0  0  0  0  0  0  0  0  0  0  0
   38.8430   31.3330   37.5470 H   0  0  0  0  0  0  0  0  0  0  0  0
   41.1690   31.9770   37.0500 H   0  0  0  0  0  0  0  0  0  0  0  0
   41.1800   34.6810   40.2340 H   0  0  0  0  0  0  0  0  0  0  0  0
  1  6  2  0  0  0  0
  1  2  1  0  0  0  0
  2  3  2  0  0  0  0
  3  4  1  0  0  0  0
  3  8  1  0  0  0  0
  5  9  1  0  0  0  0
  5  4  2  0  0  0  0
  6  5  1  0  0  0  0
  7  1  1  0  0  0  0
  9 10  1  0  0  0  0
 10 12  2  0  0  0  0
 10 11  1  0  0  0  0
 13 14  1  0  0  0  0
 13 12  1  0  0  0  0
 15 13  2  0  0  0  0
 16 15  1  0  0  0  0
 17 15  1  0  0  0  0
 17  9  2  0  0  0  0
 18  2  1  0  0  0  0
 18 19  1  0  0  0  0
 20 18  1  0  0  0  0
 21 18  1  0  0  0  0
 21 27  1  0  0  0  0
 22 21  1  0  0  0  0
 23 22  2  0  0  0  0
 23 24  1  0  0  0  0
 24 26  1  0  0  0  0
 25 24  2  0  0  0  0
 26 27  1  0  0  0  0
 26 31  1  0  0  0  0
 27 28  2  0  0  0  0
 29 22  1  0  0  0  0
 30 23  1  0  0  0  0
M  END
>  <minimizedAffinity>
-5.3003087

$$$$

 OpenBabel03242515273D

 31 33  0  0  0  0  0  0  0  0999 V2000
   36.6390   29.1230   41.8420 C   0  0  0  0  0  0  0  0  0  0  0  0
   36.7500   29.9160   40.7050 C   0  0  0  0  0  0  0  0  0  0  0  0
   36.9740   29.2730   39.5090 C   0  0  0  0  0  0  0  0  0  0  0  0
   37.0710   27.9270   39.5050 N   0  0  0  0  0  0  0  0  0  0  0  0
   36.9600   27.1840   40.6230 C   0  0  0  0  0  0  0  0  0  0  0  0
   36.7410   27.7660   41.8120 N   0  0  0  0  0  0  0  0  0  0  0  0
   36.4600   29.5100   42.8570 H   0  0  0  0  0  0  0  0  0  0  0  0
   37.0570   29.9010   38.6330 H   0  0  0  0  0  0  0  0  0  0  0  0
   37.0830   25.7330   40.5040 C   0  0  0  0  0  0  0  0  0  0  0  0
   36.5740   25.0610   39.4110 C   0  0  0  0  0  0  0  0  0  0  0  0
   36.0680   25.5860   38.6090 H   0  0  0  0  0  0  0  0  0  0  0  0
   36.6860   23.6860   39.2890 C   0  0  0  0  0  3  0  0  0  0  0  0
   37.3310   23.0100   40.3110 C   0  0  0  0  0  0  0  0  0  0  0  0
   37.4020   21.9360   40.1880 H   0  0  0  0  0  0  0  0  0  0  0  0
   37.8580   23.6320   41.4270 C   0  0  0  0  0  0  0  0  0  0  0  0
   38.3480   23.0340   42.1830 H   0  0  0  0  0  0  0  0  0  0  0  0
   37.7160   25.0230   41.4970 C   0  0  0  0  0  3  0  0  0  0  0  0
   36.6150   31.3610   40.9150 C   0  0  0  0  0  0  0  0  0  0  0  0
   36.3140   31.4880   41.9940 H   0  0  0  0  0  0  0  0  0  0  0  0
   35.7900   31.7810   40.3410 H   0  0  0  0  0  0  0  0  0  0  0  0
   37.9030   31.9910   40.6800 N   0  0  0  0  0  0  0  0  0  0  0  0
   38.9870   31.5580   41.3130 C   0  0  0  0  0  0  0  0  0  0  0  0
   40.1930   32.1920   41.0530 C   0  0  0  0  0  0  0  0  0  0  0  0
   40.2690   33.2370   40.1690 C   0  0  0  0  0  0  0  0  0  0  0  0
   41.3660   33.7950   39.9500 O   0  0  0  0  0  0  0  0  0  0  0  0
   39.1410   33.6530   39.5400 N   0  0  0  0  0  0  0  0  0  0  0  0
   37.9500   33.0330   39.7910 C   0  0  0  0  0  0  0  0  0  0  0  0
   36.9490   33.4630   39.1800 O   0  0  0  0  0  0  0  0  0  0  0  0
   38.9780   30.7320   42.0240 H   0  0  0  0  0  0  0  0  0  0  0  0
   41.1000   31.8860   41.5360 H   0  0  0  0  0  0  0  0  0  0  0  0
   39.1750   34.4520   38.8580 H   0  0  0  0  0  0  0  0  0  0  0  0
  1  7  1  0  0  0  0
  2 18  1  0  0  0  0
  2  1  2  0  0  0  0
  3  2  1  0  0  0  0
  4  3  2  0  0  0  0
  4  5  1  0  0  0  0
  5  6  2  0  0  0  0
  6  1  1  0  0  0  0
  8  3  1  0  0  0  0
  9  5  1  0  0  0  0
  9 17  1  0  0  0  0
 10  9  2  0  0  0  0
 11 10  1  0  0  0  0
 12 10  1  0  0  0  0
 12 13  2  0  0  0  0
 13 15  1  0  0  0  0
 14 13  1  0  0  0  0
 15 17  2  0  0  0  0
 15 16  1  0  0  0  0
 18 19  1  0  0  0  0
 20 18  1  0  0  0  0
 21 18  1  0  0  0  0
 21 22  1  0  0  0  0
 22 29  1  0  0  0  0
 23 22  2  0  0  0  0
 23 30  1  0  0  0  0
 24 23  1  0  0  0  0
 25 24  2  0  0  0  0
 26 27  1  0  0  0  0
 26 24  1  0  0  0  0
 27 21  1  0  0  0  0
 28 27  2  0  0  0  0
 31 26  1  0  0  0  0
M  END
>  <minimizedAffinity>
-5.16007376

$$$$

 OpenBabel03242515273D

 31 33  0  0  0  0  0  0  0  0999 V2000
   39.2740   29.4870   42.4230 C   0  0  0  0  0  0  0  0  0  0  0  0
   38.9580   30.4830   41.5050 C   0  0  0  0  0  0  0  0  0  0  0  0
   38.1200   30.1390   40.4690 C   0  0  0  0  0  0  0  0  0  0  0  0
   37.6580   28.8740   40.4000 N   0  0  0  0  0  0  0  0  0  0  0  0
   37.9820   27.9290   41.3050 C   0  0  0  0  0  0  0  0  0  0  0  0
   38.7950   28.2160   42.3320 N   0  0  0  0  0  0  0  0  0  0  0  0
   39.9310   29.6300   43.2950 H   0  0  0  0  0  0  0  0  0  0  0  0
   37.8810   30.9240   39.7630 H   0  0  0  0  0  0  0  0  0  0  0  0
   37.4250   26.5890   41.1350 C   0  0  0  0  0  0  0  0  0  0  0  0
   36.9180   26.1760   39.9180 C   0  0  0  0  0  0  0  0  0  0  0  0
   36.9160   26.8300   39.0550 H   0  0  0  0  0  0  0  0  0  0  0  0
   36.3880   24.9080   39.7470 C   0  0  0  0  0  3  0  0  0  0  0  0
   36.3890   24.0680   40.8490 C   0  0  0  0  0  0  0  0  0  0  0  0
   35.9670   23.0830   40.6840 H   0  0  0  0  0  0  0  0  0  0  0  0
   36.8830   24.4290   42.0870 C   0  0  0  0  0  0  0  0  0  0  0  0
   36.8470   23.7150   42.8990 H   0  0  0  0  0  0  0  0  0  0  0  0
   37.4060   25.7220   42.2020 C   0  0  0  0  0  3  0  0  0  0  0  0
   39.5600   31.7980   41.7510 C   0  0  0  0  0  0  0  0  0  0  0  0
   40.2970   31.6460   42.5910 H   0  0  0  0  0  0  0  0  0  0  0  0
   38.8350   32.5120   42.1380 H   0  0  0  0  0  0  0  0  0  0  0  0
   40.2560   32.2250   40.5490 N   0  0  0  0  0  0  0  0  0  0  0  0
   41.3510   31.5910   40.1470 C   0  0  0  0  0  0  0  0  0  0  0  0
   41.9780   32.0380   38.9930 C   0  0  0  0  0  0  0  0  0  0  0  0
   41.4850   33.1040   38.2850 C   0  0  0  0  0  0  0  0  0  0  0  0
   42.0660   33.4910   37.2470 O   0  0  0  0  0  0  0  0  0  0  0  0
   40.3640   33.7280   38.7260 N   0  0  0  0  0  0  0  0  0  0  0  0
   39.7410   33.2930   39.8610 C   0  0  0  0  0  0  0  0  0  0  0  0
   38.7140   33.9100   40.2140 O   0  0  0  0  0  0  0  0  0  0  0  0
   41.7820   30.7410   40.6740 H   0  0  0  0  0  0  0  0  0  0  0  0
   42.8660   31.5670   38.6200 H   0  0  0  0  0  0  0  0  0  0  0  0
   39.9670   34.5470   38.2000 H   0  0  0  0  0  0  0  0  0  0  0  0
  1  7  1  0  0  0  0
  2 18  1  0  0  0  0
  2  1  2  0  0  0  0
  3  2  1  0  0  0  0
  4  3  2  0  0  0  0
  4  5  1  0  0  0  0
  5  6  2  0  0  0  0
  6  1  1  0  0  0  0
  8  3  1  0  0  0  0
  9  5  1  0  0  0  0
  9 17  1  0  0  0  0
 10  9  2  0  0  0  0
 11 10  1  0  0  0  0
 12 10  1  0  0  0  0
 12 13  2  0  0  0  0
 13 15  1  0  0  0  0
 14 13  1  0  0  0  0
 15 17  2  0  0  0  0
 15 16  1  0  0  0  0
 18 20  1  0  0  0  0
 18 19  1  0  0  0  0
 21 18  1  0  0  0  0
 22 21  1  0  0  0  0
 22 29  1  0  0  0  0
 23 22  2  0  0  0  0
 24 26  1  0  0  0  0
 24 23  1  0  0  0  0
 25 24  2  0  0  0  0
 26 27  1  0  0  0  0
 27 28  2  0  0  0  0
 27 21  1  0  0  0  0
 30 23  1  0  0  0  0
 31 26  1  0  0  0  0
M  END
>  <minimizedAffinity>
-5.15181065

$$$$

 OpenBabel03242515273D

 31 33  0  0  0  0  0  0  0  0999 V2000
   39.1080   30.2300   38.1760 C   0  0  0  0  0  0  0  0  0  0  0  0
   39.9070   31.3390   38.4360 C   0  0  0  0  0  0  0  0  0  0  0  0
   40.2170   31.5940   39.7530 C   0  0  0  0  0  0  0  0  0  0  0  0
   39.7370   30.7690   40.7050 N   0  0  0  0  0  0  0  0  0  0  0  0
   38.9640   29.7010   40.4230 C   0  0  0  0  0  0  0  0  0  0  0  0
   38.6350   29.4110   39.1560 N   0  0  0  0  0  0  0  0  0  0  0  0
   38.7870   29.9150   37.1710 H   0  0  0  0  0  0  0  0  0  0  0  0
   40.8400   32.4590   39.9410 H   0  0  0  0  0  0  0  0  0  0  0  0
   38.4970   28.8730   41.5330 C   0  0  0  0  0  0  0  0  0  0  0  0
   37.1510   28.6280   41.7240 C   0  0  0  0  0  0  0  0  0  0  0  0
   36.4010   29.0420   41.0610 H   0  0  0  0  0  0  0  0  0  0  0  0
   36.7000   27.8450   42.7730 C   0  0  0  0  0  3  0  0  0  0  0  0
   37.6550   27.3140   43.6240 C   0  0  0  0  0  0  0  0  0  0  0  0
   37.2710   26.7060   44.4350 H   0  0  0  0  0  0  0  0  0  0  0  0
   39.0130   27.5270   43.4790 C   0  0  0  0  0  0  0  0  0  0  0  0
   39.6960   27.0770   44.1860 H   0  0  0  0  0  0  0  0  0  0  0  0
   39.4120   28.3260   42.4020 C   0  0  0  0  0  3  0  0  0  0  0  0
   40.3300   32.1140   37.2660 C   0  0  0  0  0  0  0  0  0  0  0  0
   40.0960   33.1900   37.5090 H   0  0  0  0  0  0  0  0  0  0  0  0
   39.7270   31.8870   36.3880 H   0  0  0  0  0  0  0  0  0  0  0  0
   41.7610   31.9430   37.0840 N   0  0  0  0  0  0  0  0  0  0  0  0
   42.2590   30.7560   36.7600 C   0  0  0  0  0  0  0  0  0  0  0  0
   43.6330   30.6460   36.5980 C   0  0  0  0  0  0  0  0  0  0  0  0
   44.4560   31.7290   36.7670 C   0  0  0  0  0  0  0  0  0  0  0  0
   45.6920   31.6080   36.6160 O   0  0  0  0  0  0  0  0  0  0  0  0
   43.9120   32.9270   37.0970 N   0  0  0  0  0  0  0  0  0  0  0  0
   42.5610   33.0430   37.2580 C   0  0  0  0  0  0  0  0  0  0  0  0
   42.1230   34.1720   37.5630 O   0  0  0  0  0  0  0  0  0  0  0  0
   41.6480   29.8660   36.6160 H   0  0  0  0  0  0  0  0  0  0  0  0
   44.0920   29.7130   36.3380 H   0  0  0  0  0  0  0  0  0  0  0  0
   44.5230   33.7710   37.2320 H   0  0  0  0  0  0  0  0  0  0  0  0
  1  2  2  0  0  0  0
  1  6  1  0  0  0  0
  2  3  1  0  0  0  0
  3  8  1  0  0  0  0
  3  4  2  0  0  0  0
  5  4  1  0  0  0  0
  5  9  1  0  0  0  0
  6  5  2  0  0  0  0
  7  1  1  0  0  0  0
  9 10  2  0  0  0  0
  9 17  1  0  0  0  0
 10 12  1  0  0  0  0
 11 10  1  0  0  0  0
 12 13  2  0  0  0  0
 13 14  1  0  0  0  0
 15 13  1  0  0  0  0
 15 16  1  0  0  0  0
 17 15  2  0  0  0  0
 18 19  1  0  0  0  0
 18  2  1  0  0  0  0
 20 18  1  0  0  0  0
 21 27  1  0  0  0  0
 21 18  1  0  0  0  0
 22 21  1  0  0  0  0
 23 22  2  0  0  0  0
 23 24  1  0  0  0  0
 24 26  1  0  0  0  0
 25 24  2  0  0  0  0
 26 31  1  0  0  0  0
 26 27  1  0  0  0  0
 27 28  2  0  0  0  0
 29 22  1  0  0  0  0
 30 23  1  0  0  0  0
M  END
>  <minimizedAffinity>
-5.08397532

$$$$

 OpenBabel03242515273D

 31 33  0  0  0  0  0  0  0  0999 V2000
   37.1490   27.9980   40.9020 C   0  0  0  0  0  0  0  0  0  0  0  0
   37.7290   27.5930   42.1000 C   0  0  0  0  0  0  0  0  0  0  0  0
   38.4020   28.5490   42.8260 C   0  0  0  0  0  0  0  0  0  0  0  0
   38.4620   29.8070   42.3450 N   0  0  0  0  0  0  0  0  0  0  0  0
   37.8900   30.1710   41.1800 C   0  0  0  0  0  0  0  0  0  0  0  0
   37.2230   29.2760   40.4370 N   0  0  0  0  0  0  0  0  0  0  0  0
   36.5840   27.3360   40.2280 H   0  0  0  0  0  0  0  0  0  0  0  0
   38.8480   28.2210   43.7560 H   0  0  0  0  0  0  0  0  0  0  0  0
   38.0170   31.5620   40.7530 C   0  0  0  0  0  0  0  0  0  0  0  0
   37.0910   32.1350   39.9030 C   0  0  0  0  0  0  0  0  0  0  0  0
   36.2450   31.5730   39.5260 H   0  0  0  0  0  0  0  0  0  0  0  0
   37.2030   33.4530   39.4920 C   0  0  0  0  0  3  0  0  0  0  0  0
   38.2830   34.1760   39.9710 C   0  0  0  0  0  0  0  0  0  0  0  0
   38.3430   35.2040   39.6310 H   0  0  0  0  0  0  0  0  0  0  0  0
   39.2380   33.6530   40.8220 C   0  0  0  0  0  0  0  0  0  0  0  0
   40.0520   34.2830   41.1520 H   0  0  0  0  0  0  0  0  0  0  0  0
   39.0740   32.3170   41.2040 C   0  0  0  0  0  3  0  0  0  0  0  0
   37.5540   26.1800   42.4520 C   0  0  0  0  0  0  0  0  0  0  0  0
   36.4430   25.9910   42.4190 H   0  0  0  0  0  0  0  0  0  0  0  0
   37.8430   25.9790   43.4820 H   0  0  0  0  0  0  0  0  0  0  0  0
   38.2290   25.3630   41.4580 N   0  0  0  0  0  0  0  0  0  0  0  0
   39.5040   25.5850   41.1610 C   0  0  0  0  0  0  0  0  0  0  0  0
   40.1020   24.7770   40.2050 C   0  0  0  0  0  0  0  0  0  0  0  0
   39.4010   23.7770   39.5820 C   0  0  0  0  0  0  0  0  0  0  0  0
   39.9600   23.0600   38.7230 O   0  0  0  0  0  0  0  0  0  0  0  0
   38.1000   23.5790   39.9110 N   0  0  0  0  0  0  0  0  0  0  0  0
   37.5050   24.3710   40.8520 C   0  0  0  0  0  0  0  0  0  0  0  0
   36.3040   24.1370   41.1090 O   0  0  0  0  0  0  0  0  0  0  0  0
   40.1030   26.3670   41.6260 H   0  0  0  0  0  0  0  0  0  0  0  0
   41.1280   24.9100   39.9230 H   0  0  0  0  0  0  0  0  0  0  0  0
   37.5420   22.8180   39.4470 H   0  0  0  0  0  0  0  0  0  0  0  0
  1  2  1  0  0  0  0
  2 18  1  0  0  0  0
  2  3  2  0  0  0  0
  3  8  1  0  0  0  0
  4  3  1  0  0  0  0
  5  4  2  0  0  0  0
  6  1  2  0  0  0  0
  6  5  1  0  0  0  0
  7  1  1  0  0  0  0
  9  5  1  0  0  0  0
  9 17  1  0  0  0  0
 10  9  2  0  0  0  0
 11 10  1  0  0  0  0
 12 10  1  0  0  0  0
 12 13  2  0  0  0  0
 13 15  1  0  0  0  0
 14 13  1  0  0  0  0
 15 16  1  0  0  0  0
 15 17  2  0  0  0  0
 18 20  1  0  0  0  0
 19 18  1  0  0  0  0
 21 18  1  0  0  0  0
 22 21  1  0  0  0  0
 22 29  1  0  0  0  0
 23 22  2  0  0  0  0
 24 26  1  0  0  0  0
 24 23  1  0  0  0  0
 25 24  2  0  0  0  0
 26 27  1  0  0  0  0
 27 28  2  0  0  0  0
 27 21  1  0  0  0  0
 30 23  1  0  0  0  0
 31 26  1  0  0  0  0
M  END
>  <minimizedAffinity>
-4.97742176

$$$$

 OpenBabel03242515273D

 31 33  0  0  0  0  0  0  0  0999 V2000
   39.5760   32.0540   41.2910 C   0  0  0  0  0  0  0  0  0  0  0  0
   39.0660   32.5450   40.0940 C   0  0  0  0  0  0  0  0  0  0  0  0
   38.1540   31.7570   39.4300 C   0  0  0  0  0  0  0  0  0  0  0  0
   37.8090   30.5690   39.9670 N   0  0  0  0  0  0  0  0  0  0  0  0
   38.3220   30.1180   41.1290 C   0  0  0  0  0  0  0  0  0  0  0  0
   39.2130   30.8500   41.8130 N   0  0  0  0  0  0  0  0  0  0  0  0
   40.3100   32.5820   41.9190 H   0  0  0  0  0  0  0  0  0  0  0  0
   37.7640   32.1520   38.5010 H   0  0  0  0  0  0  0  0  0  0  0  0
   37.8790   28.8150   41.6200 C   0  0  0  0  0  0  0  0  0  0  0  0
   37.9850   27.6830   40.8370 C   0  0  0  0  0  0  0  0  0  0  0  0
   38.3970   27.7250   39.8350 H   0  0  0  0  0  0  0  0  0  0  0  0
   37.5690   26.4440   41.2930 C   0  0  0  0  0  3  0  0  0  0  0  0
   37.0410   26.3850   42.5730 C   0  0  0  0  0  0  0  0  0  0  0  0
   36.7240   25.4020   42.9010 H   0  0  0  0  0  0  0  0  0  0  0  0
   36.9120   27.4850   43.3990 C   0  0  0  0  0  0  0  0  0  0  0  0
   36.4890   27.3570   44.3860 H   0  0  0  0  0  0  0  0  0  0  0  0
   37.3490   28.7120   42.8850 C   0  0  0  0  0  3  0  0  0  0  0  0
   39.5640   33.8590   39.6750 C   0  0  0  0  0  0  0  0  0  0  0  0
   39.2980   34.5690   40.5100 H   0  0  0  0  0  0  0  0  0  0  0  0
   39.0310   34.2380   38.8040 H   0  0  0  0  0  0  0  0  0  0  0  0
   41.0070   33.7860   39.5230 N   0  0  0  0  0  0  0  0  0  0  0  0
   41.8060   34.2520   40.4760 C   0  0  0  0  0  0  0  0  0  0  0  0
   43.1770   34.1580   40.2830 C   0  0  0  0  0  0  0  0  0  0  0  0
   43.6960   33.6010   39.1430 C   0  0  0  0  0  0  0  0  0  0  0  0
   44.9350   33.5260   38.9900 O   0  0  0  0  0  0  0  0  0  0  0  0
   42.8500   33.1350   38.1910 N   0  0  0  0  0  0  0  0  0  0  0  0
   41.4990   33.2240   38.3740 C   0  0  0  0  0  0  0  0  0  0  0  0
   40.7740   32.7780   37.4600 O   0  0  0  0  0  0  0  0  0  0  0  0
   41.4430   34.7030   41.3990 H   0  0  0  0  0  0  0  0  0  0  0  0
   43.8700   34.5180   41.0170 H   0  0  0  0  0  0  0  0  0  0  0  0
   43.2240   32.7040   37.3090 H   0  0  0  0  0  0  0  0  0  0  0  0
  1  6  1  0  0  0  0
  1  7  1  0  0  0  0
  2  1  2  0  0  0  0
  3  4  2  0  0  0  0
  3  2  1  0  0  0  0
  4  5  1  0  0  0  0
  5  9  1  0  0  0  0
  5  6  2  0  0  0  0
  8  3  1  0  0  0  0
  9 17  1  0  0  0  0
 10 12  1  0  0  0  0
 10  9  2  0  0  0  0
 11 10  1  0  0  0  0
 12 13  2  0  0  0  0
 13 14  1  0  0  0  0
 13 15  1  0  0  0  0
 15 16  1  0  0  0  0
 17 15  2  0  0  0  0
 18  2  1  0  0  0  0
 18 19  1  0  0  0  0
 20 18  1  0  0  0  0
 21 18  1  0  0  0  0
 21 22  1  0  0  0  0
 22 29  1  0  0  0  0
 23 22  2  0  0  0  0
 23 30  1  0  0  0  0
 24 23  1  0  0  0  0
 25 24  2  0  0  0  0
 26 27  1  0  0  0  0
 26 24  1  0  0  0  0
 27 21  1  0  0  0  0
 28 27  2  0  0  0  0
 31 26  1  0  0  0  0
M  END
>  <minimizedAffinity>
-4.97569323

$$$$

 OpenBabel03242515273D

 31 33  0  0  0  0  0  0  0  0999 V2000
   37.5830   29.1320   39.8500 C   0  0  0  0  0  0  0  0  0  0  0  0
   36.8850   29.0690   41.0520 C   0  0  0  0  0  0  0  0  0  0  0  0
   35.5120   29.0210   40.9790 C   0  0  0  0  0  0  0  0  0  0  0  0
   34.9250   29.0370   39.7650 N   0  0  0  0  0  0  0  0  0  0  0  0
   35.6270   29.0990   38.6160 C   0  0  0  0  0  0  0  0  0  0  0  0
   36.9670   29.1470   38.6360 N   0  0  0  0  0  0  0  0  0  0  0  0
   38.6800   29.1750   39.7680 H   0  0  0  0  0  0  0  0  0  0  0  0
   34.9820   28.9710   41.9210 H   0  0  0  0  0  0  0  0  0  0  0  0
   34.8900   29.1120   37.3550 C   0  0  0  0  0  0  0  0  0  0  0  0
   33.5130   29.0120   37.3320 C   0  0  0  0  0  0  0  0  0  0  0  0
   32.9370   28.9200   38.2450 H   0  0  0  0  0  0  0  0  0  0  0  0
   32.8050   29.0230   36.1410 C   0  0  0  0  0  3  0  0  0  0  0  0
   33.5370   29.1400   34.9710 C   0  0  0  0  0  0  0  0  0  0  0  0
   32.9550   29.1450   34.0560 H   0  0  0  0  0  0  0  0  0  0  0  0
   34.9140   29.2430   34.9360 C   0  0  0  0  0  0  0  0  0  0  0  0
   35.4130   29.3310   33.9810 H   0  0  0  0  0  0  0  0  0  0  0  0
   35.5770   29.2260   36.1690 C   0  0  0  0  0  3  0  0  0  0  0  0
   37.7030   29.0610   42.2690 C   0  0  0  0  0  0  0  0  0  0  0  0
   36.9990   29.3080   43.1140 H   0  0  0  0  0  0  0  0  0  0  0  0
   38.4380   29.8640   42.2710 H   0  0  0  0  0  0  0  0  0  0  0  0
   38.2540   27.7290   42.4540 N   0  0  0  0  0  0  0  0  0  0  0  0
   37.4810   26.6590   42.3170 C   0  0  0  0  0  0  0  0  0  0  0  0
   38.0550   25.4090   42.5040 C   0  0  0  0  0  0  0  0  0  0  0  0
   39.3830   25.2790   42.8200 C   0  0  0  0  0  0  0  0  0  0  0  0
   39.8810   24.1440   42.9840 O   0  0  0  0  0  0  0  0  0  0  0  0
   40.1430   26.3950   42.9510 N   0  0  0  0  0  0  0  0  0  0  0  0
   39.5840   27.6280   42.7690 C   0  0  0  0  0  0  0  0  0  0  0  0
   40.3370   28.6160   42.9050 O   0  0  0  0  0  0  0  0  0  0  0  0
   36.4220   26.7090   42.0680 H   0  0  0  0  0  0  0  0  0  0  0  0
   37.4800   24.5100   42.4080 H   0  0  0  0  0  0  0  0  0  0  0  0
   41.1630   26.3210   43.1930 H   0  0  0  0  0  0  0  0  0  0  0  0
  1  2  1  0  0  0  0
  2 18  1  0  0  0  0
  3  2  2  0  0  0  0
  3  8  1  0  0  0  0
  4  3  1  0  0  0  0
  5  6  1  0  0  0  0
  5  4  2  0  0  0  0
  6  1  2  0  0  0  0
  7  1  1  0  0  0  0
  9  5  1  0  0  0  0
 10  9  1  0  0  0  0
 10 11  1  0  0  0  0
 12 10  2  0  0  0  0
 13 12  1  0  0  0  0
 14 13  1  0  0  0  0
 15 13  2  0  0  0  0
 15 17  1  0  0  0  0
 16 15  1  0  0  0  0
 17  9  2  0  0  0  0
 18 20  1  0  0  0  0
 18 21  1  0  0  0  0
 18 19  1  0  0  0  0
 21 27  1  0  0  0  0
 22 21  1  0  0  0  0
 22 23  2  0  0  0  0
 23 24  1  0  0  0  0
 24 26  1  0  0  0  0
 24 25  2  0  0  0  0
 26 31  1  0  0  0  0
 27 28  2  0  0  0  0
 27 26  1  0  0  0  0
 29 22  1  0  0  0  0
 30 23  1  0  0  0  0
M  END
>  <minimizedAffinity>
-4.84339237

$$$$
