
 OpenBabel03252502173D

 24 25  0  0  0  0  0  0  0  0999 V2000
   46.8110   34.8640   42.7420 C   0  0  0  0  0  0  0  0  0  0  0  0
   47.1900   33.8140   43.5970 C   0  0  0  0  0  0  0  0  0  0  0  0
   46.3910   33.5490   44.7110 C   0  0  0  0  0  0  0  0  0  0  0  0
   45.3010   34.3220   44.8950 N   0  0  0  0  0  0  0  0  0  0  0  0
   44.9460   35.3180   44.0790 C   0  0  0  0  0  0  0  0  0  0  0  0
   45.7040   35.5850   43.0040 N   0  0  0  0  0  0  0  0  0  0  0  0
   47.4140   35.0820   41.8820 H   0  0  0  0  0  0  0  0  0  0  0  0
   44.0760   35.9230   44.2420 H   0  0  0  0  0  0  0  0  0  0  0  0
   46.8030   32.4550   45.5840 C   0  0  0  0  0  0  0  0  0  0  0  0
   46.9910   32.8080   46.9240 C   0  0  0  0  0  0  0  0  0  0  0  0
   46.8480   33.7950   47.2980 H   0  0  0  0  0  0  0  0  0  0  0  0
   47.3820   31.7970   47.7830 C   0  0  0  0  0  0  0  0  0  0  0  0
   47.5940   30.4860   47.3990 C   0  0  0  0  0  0  0  0  0  0  0  0
   47.9000   29.7480   48.1270 H   0  0  0  0  0  0  0  0  0  0  0  0
   47.3910   30.2110   46.0600 C   0  0  0  0  0  0  0  0  0  0  0  0
   47.5580   29.1830   45.7620 H   0  0  0  0  0  0  0  0  0  0  0  0
   47.0050   31.1450   45.1430 C   0  0  0  0  0  0  0  0  0  0  0  0
   48.3390   33.1220   43.2600 O   0  0  0  0  0  0  0  0  0  0  0  0
   50.8220   32.9890   42.3590 O   0  0  0  0  0  0  0  0  0  0  0  0
   49.6370   33.8960   42.4430 P   0  0  0  0  0  0  0  0  0  0  0  0
   49.1850   34.3010   40.8560 O   0  0  0  0  0  0  0  0  0  0  0  0
   48.8150   33.5170   40.4110 H   0  0  0  0  0  0  0  0  0  0  0  0
   50.0910   35.3090   43.2600 O   0  0  0  0  0  0  0  0  0  0  0  0
   49.8060   35.2860   44.1960 H   0  0  0  0  0  0  0  0  0  0  0  0
  1  6  2  0  0  0  0
  1  2  1  0  0  0  0
  2  3  2  0  0  0  0
  3  4  1  0  0  0  0
  3  9  1  0  0  0  0
  5  8  1  0  0  0  0
  5  4  2  0  0  0  0
  6  5  1  0  0  0  0
  7  1  1  0  0  0  0
  9 10  1  0  0  0  0
 10 11  1  0  0  0  0
 10 12  2  0  0  0  0
 13 12  1  0  0  0  0
 13 14  1  0  0  0  0
 15 13  2  0  0  0  0
 16 15  1  0  0  0  0
 17  9  2  0  0  0  0
 17 15  1  0  0  0  0
 18  2  1  0  0  0  0
 19 20  2  0  0  0  0
 20 23  1  0  0  0  0
 20 18  1  0  0  0  0
 21 20  1  0  0  0  0
 22 21  1  0  0  0  0
 23 24  1  0  0  0  0
M  END
>  <minimizedAffinity>
-5.4684701

>  <minimizedRMSD>
0.590791345

$$$$
