
 OpenBabel03252506573D

 38 42  0  0  0  0  0  0  0  0999 V2000
   47.3370   31.3240   45.2200 C   0  0  0  0  0  0  0  0  0  0  0  0
   46.9110   32.6470   45.1300 C   0  0  0  0  0  0  0  0  0  0  0  0
   46.2540   33.2990   46.1450 C   0  0  0  0  0  0  0  0  0  0  0  0
   45.9860   32.6310   47.3300 C   0  0  0  0  0  0  0  0  0  0  0  0
   45.3780   32.9350   48.5140 N   0  0  0  0  0  0  0  0  0  0  0  0
   45.4240   31.8370   49.3150 C   0  0  0  0  0  0  0  0  0  0  0  0
   46.0560   30.8690   48.6230 N   0  0  0  0  0  0  0  0  0  0  0  0
   46.4090   31.3250   47.4130 C   0  0  0  0  0  0  0  0  0  0  0  0
   47.0680   30.6530   46.4100 C   0  0  0  0  0  0  0  0  0  0  0  0
   47.8580   30.8240   44.4040 H   0  0  0  0  0  0  0  0  0  0  0  0
   45.9250   34.3310   46.0670 H   0  0  0  0  0  0  0  0  0  0  0  0
   44.9620   33.8810   48.7140 H   0  0  0  0  0  0  0  0  0  0  0  0
   45.0110   31.7890   50.3320 H   0  0  0  0  0  0  0  0  0  0  0  0
   46.6060   35.0910   42.3890 C   0  0  0  0  0  0  0  0  0  0  0  0
   47.6890   34.7500   41.5600 C   0  0  0  0  0  0  0  0  0  0  0  0
   48.5040   33.6930   41.9500 C   0  0  0  0  0  0  0  0  0  0  0  0
   48.2230   33.0310   43.1170 N   0  0  0  0  0  0  0  0  0  0  0  0
   47.1800   33.3810   43.8890 C   0  0  0  0  0  0  0  0  0  0  0  0
   46.3730   34.4030   43.5330 N   0  0  0  0  0  0  0  0  0  0  0  0
   45.9560   35.9070   42.1100 H   0  0  0  0  0  0  0  0  0  0  0  0
   47.8660   35.3040   40.6510 H   0  0  0  0  0  0  0  0  0  0  0  0
   49.3510   33.3970   41.3390 H   0  0  0  0  0  0  0  0  0  0  0  0
   47.4830   29.2560   46.5890 C   0  0  0  0  0  0  0  0  0  0  0  0
   48.6670   28.7270   46.1370 C   0  0  0  0  0  0  0  0  0  0  0  0
   48.6150   27.3800   46.5390 C   0  0  0  0  0  0  0  0  0  0  0  0
   47.4120   27.1800   47.2040 C   0  0  0  0  0  0  0  0  0  0  0  0
   46.7900   28.3400   47.1950 O   0  0  0  0  0  0  0  0  0  0  0  0
   49.4830   29.2010   45.5920 H   0  0  0  0  0  0  0  0  0  0  0  0
   49.3800   26.6290   46.3610 H   0  0  0  0  0  0  0  0  0  0  0  0
   46.9130   25.9240   47.8060 C   0  0  0  0  0  0  0  0  0  0  0  0
   47.7000   25.3660   48.7930 C   0  0  0  0  0  0  0  0  0  0  0  0
   48.6270   25.8330   49.0980 H   0  0  0  0  0  0  0  0  0  0  0  0
   47.2100   24.1800   49.3480 C   0  0  0  0  0  3  0  0  0  0  0  0
   46.0180   23.6170   48.9280 C   0  0  0  0  0  0  0  0  0  0  0  0
   45.6810   22.6960   49.3910 H   0  0  0  0  0  0  0  0  0  0  0  0
   45.2890   24.2390   47.9340 C   0  0  0  0  0  0  0  0  0  0  0  0
   44.3410   23.8110   47.5840 H   0  0  0  0  0  0  0  0  0  0  0  0
   45.7160   25.4290   47.3300 C   0  0  0  0  0  3  0  0  0  0  0  0
  1  9  1  0  0  0  0
  2  1  2  0  0  0  0
  2  3  1  0  0  0  0
  3  4  2  0  0  0  0
  4  8  1  0  0  0  0
  4  5  1  0  0  0  0
  5 12  1  0  0  0  0
  5  6  1  0  0  0  0
  6 13  1  0  0  0  0
  7  6  2  0  0  0  0
  8  7  1  0  0  0  0
  9 23  1  0  0  0  0
  9  8  2  0  0  0  0
 10  1  1  0  0  0  0
 11  3  1  0  0  0  0
 14 19  1  0  0  0  0
 15 16  1  0  0  0  0
 15 14  2  0  0  0  0
 16 17  2  0  0  0  0
 17 18  1  0  0  0  0
 18  2  1  0  0  0  0
 19 18  2  0  0  0  0
 20 14  1  0  0  0  0
 21 15  1  0  0  0  0
 22 16  1  0  0  0  0
 23 27  1  0  0  0  0
 24 25  1  0  0  0  0
 24 23  2  0  0  0  0
 25 26  2  0  0  0  0
 26 30  1  0  0  0  0
 27 26  1  0  0  0  0
 28 24  1  0  0  0  0
 29 25  1  0  0  0  0
 30 31  1  0  0  0  0
 31 32  1  0  0  0  0
 31 33  2  0  0  0  0
 34 33  1  0  0  0  0
 34 35  1  0  0  0  0
 36 34  2  0  0  0  0
 37 36  1  0  0  0  0
 38 30  2  0  0  0  0
 38 36  1  0  0  0  0
M  END
>  <minimizedAffinity>
-5.89126348

>  <minimizedRMSD>
1.09740543

$$$$
