
 OpenBabel03242516263D

 43 47  0  0  0  0  0  0  0  0999 V2000
   49.7680   30.1770   49.4060 C   0  0  0  0  0  0  0  0  0  0  0  0
   50.0020   31.3370   50.0700 N   0  0  0  0  0  0  0  0  0  0  0  0
   50.6610   31.3960   51.2330 C   0  0  0  0  0  0  0  0  0  0  0  0
   51.1070   30.2260   51.7550 N   0  0  0  0  0  0  0  0  0  0  0  0
   50.9140   29.0400   51.1580 C   0  0  0  0  0  0  0  0  0  0  0  0
   51.3690   27.8440   51.7100 C   0  0  0  0  0  0  0  0  0  0  0  0
   51.1360   26.6470   51.0610 C   0  0  0  0  0  0  0  0  0  0  0  0
   50.4440   26.5970   49.8430 C   0  0  0  0  0  0  0  0  0  0  0  0
   50.0200   27.8050   49.3460 C   0  0  0  0  0  0  0  0  0  0  0  0
   50.2380   29.0060   49.9700 C   0  0  0  0  0  0  0  0  0  0  0  0
   50.8310   32.3280   51.7370 H   0  0  0  0  0  0  0  0  0  0  0  0
   51.8990   27.9260   52.6500 H   0  0  0  0  0  0  0  0  0  0  0  0
   51.5400   25.7980   51.5940 H   0  0  0  0  0  0  0  0  0  0  0  0
   50.3190   25.6080   49.4260 H   0  0  0  0  0  0  0  0  0  0  0  0
   49.3420   27.5940   48.0740 C   0  0  0  0  0  0  0  0  0  0  0  0
   50.1570   27.6170   46.9330 C   0  0  0  0  0  0  0  0  0  0  0  0
   51.2230   27.7530   46.9270 H   0  0  0  0  0  0  0  0  0  0  0  0
   49.5830   27.4540   45.7020 C   0  0  0  0  0  0  0  0  0  0  0  0
   48.2240   27.2680   45.5460 C   0  0  0  0  0  0  0  0  0  0  0  0
   47.6970   27.1320   44.6030 H   0  0  0  0  0  0  0  0  0  0  0  0
   47.4040   27.2430   46.6640 C   0  0  0  0  0  0  0  0  0  0  0  0
   46.3210   27.1060   46.7010 H   0  0  0  0  0  0  0  0  0  0  0  0
   47.9580   27.4040   47.9170 C   0  0  0  0  0  0  0  0  0  0  0  0
   48.9000   30.0740   47.8650 S   0  0  0  0  0  0  0  0  0  0  0  0
   46.0350   32.7290   46.8940 C   0  0  0  0  0  0  0  0  0  0  0  0
   47.1630   31.9370   46.8950 C   0  0  0  0  0  0  0  0  0  0  0  0
   47.4230   31.0590   47.9260 C   0  0  0  0  0  0  0  0  0  0  0  0
   46.5410   30.9580   48.9930 C   0  0  0  0  0  0  0  0  0  0  0  0
   45.4270   31.7300   49.0100 C   0  0  0  0  0  0  0  0  0  0  0  0
   45.1950   32.5950   47.9700 C   0  0  0  0  0  0  0  0  0  0  0  0
   47.8450   32.0210   46.0610 H   0  0  0  0  0  0  0  0  0  0  0  0
   46.7550   30.2640   49.8010 H   0  0  0  0  0  0  0  0  0  0  0  0
   44.7120   31.6710   49.8420 H   0  0  0  0  0  0  0  0  0  0  0  0
   44.3010   33.2090   47.9920 H   0  0  0  0  0  0  0  0  0  0  0  0
   44.5580   35.5150   45.0410 C   0  0  0  0  0  0  0  0  0  0  0  0
   45.2040   35.4600   43.7880 C   0  0  0  0  0  0  0  0  0  0  0  0
   46.1550   34.4540   43.5880 C   0  0  0  0  0  0  0  0  0  0  0  0
   46.4370   33.5620   44.5770 N   0  0  0  0  0  0  0  0  0  0  0  0
   45.7770   33.6580   45.7860 C   0  0  0  0  0  0  0  0  0  0  0  0
   44.8530   34.6220   46.0070 N   0  0  0  0  0  0  0  0  0  0  0  0
   43.8170   36.2740   45.2400 H   0  0  0  0  0  0  0  0  0  0  0  0
   44.9520   36.1860   43.0290 H   0  0  0  0  0  0  0  0  0  0  0  0
   46.6700   34.3850   42.6360 H   0  0  0  0  0  0  0  0  0  0  0  0
  1 10  2  0  0  0  0
  1  2  1  0  0  0  0
  2  3  2  0  0  0  0
  3 11  1  0  0  0  0
  3  4  1  0  0  0  0
  5  6  1  0  0  0  0
  5  4  2  0  0  0  0
  6 12  1  0  0  0  0
  7 13  1  0  0  0  0
  7  6  2  0  0  0  0
  8  7  1  0  0  0  0
  9  8  2  0  0  0  0
  9 10  1  0  0  0  0
 10  5  1  0  0  0  0
 14  8  1  0  0  0  0
 15  9  1  0  0  0  0
 16 15  2  0  0  0  0
 17 16  1  0  0  0  0
 18 16  1  0  0  0  0
 19 18  2  0  0  0  0
 19 21  1  0  0  0  0
 20 19  1  0  0  0  0
 21 22  1  0  0  0  0
 21 23  2  0  0  0  0
 23 15  1  0  0  0  0
 24 27  1  0  0  0  0
 24  1  1  0  0  0  0
 25 26  2  0  0  0  0
 25 30  1  0  0  0  0
 26 27  1  0  0  0  0
 27 28  2  0  0  0  0
 28 29  1  0  0  0  0
 28 32  1  0  0  0  0
 29 33  1  0  0  0  0
 30 34  1  0  0  0  0
 30 29  2  0  0  0  0
 31 26  1  0  0  0  0
 35 41  1  0  0  0  0
 35 40  1  0  0  0  0
 36 35  2  0  0  0  0
 37 36  1  0  0  0  0
 37 38  2  0  0  0  0
 38 39  1  0  0  0  0
 39 40  2  0  0  0  0
 39 25  1  0  0  0  0
 42 36  1  0  0  0  0
 43 37  1  0  0  0  0
M  END
>  <minimizedAffinity>
-6.48908043

>  <minimizedRMSD>
0.693715513

$$$$
