
 OpenBabel03242511553D

 34 36  0  0  1  0  0  0  0  0999 V2000
   47.1580   34.0580   42.4680 C   0  0  2  0  0  0  0  0  0  0  0  0
   48.5320   34.5710   42.6530 C   0  0  0  0  0  0  0  0  0  0  0  0
   48.9310   35.5990   41.6450 C   0  0  0  0  0  0  0  0  0  0  0  0
   48.7330   35.1340   40.2150 C   0  0  0  0  0  0  0  0  0  0  0  0
   47.4660   34.3780   39.9990 C   0  0  0  0  0  0  0  0  0  0  0  0
   46.5100   34.4840   41.1650 C   0  0  1  0  0  0  0  0  0  0  0  0
   47.1510   32.9270   42.4980 H   0  0  0  0  0  0  0  0  0  0  0  0
   48.6500   35.0430   43.6520 H   0  0  0  0  0  0  0  0  0  0  0  0
   49.2730   33.7300   42.5640 H   0  0  0  0  0  0  0  0  0  0  0  0
   50.0530   35.7010   41.7480 H   0  0  0  0  0  0  0  0  0  0  0  0
   48.5450   36.6040   41.7760 H   0  0  0  0  0  0  0  0  0  0  0  0
   49.6100   34.5510   39.8540 H   0  0  0  0  0  0  0  0  0  0  0  0
   48.7270   36.0530   39.5820 H   0  0  0  0  0  0  0  0  0  0  0  0
   46.9090   34.7870   39.1170 H   0  0  0  0  0  0  0  0  0  0  0  0
   47.6830   33.3270   39.7220 H   0  0  0  0  0  0  0  0  0  0  0  0
   46.1020   35.4980   41.2170 H   0  0  0  0  0  0  0  0  0  0  0  0
   46.2580   34.4660   43.5650 C   0  0  0  0  0  0  0  0  0  0  0  0
   45.5570   35.6710   43.3660 C   0  0  0  0  0  0  0  0  0  0  0  0
   44.6850   36.1430   44.3530 C   0  0  0  0  0  0  0  0  0  0  0  0
   44.5650   35.3860   45.4750 N   0  0  0  0  0  0  0  0  0  0  0  0
   45.2500   34.2250   45.6500 C   0  0  0  0  0  0  0  0  0  0  0  0
   46.0960   33.7700   44.6900 N   0  0  0  0  0  0  0  0  0  0  0  0
   45.5920   36.3320   42.5120 H   0  0  0  0  0  0  0  0  0  0  0  0
   44.1190   37.0550   44.2650 H   0  0  0  0  0  0  0  0  0  0  0  0
   45.1200   33.6580   46.5610 H   0  0  0  0  0  0  0  0  0  0  0  0
   45.4230   33.5020   40.8900 C   0  0  0  0  0  0  0  0  0  0  0  0
   44.1350   33.9190   40.5610 C   0  0  0  0  0  0  0  0  0  0  0  0
   43.9060   34.9770   40.5010 H   0  0  0  0  0  0  0  0  0  0  0  0
   43.1330   33.0030   40.3080 C   0  0  0  0  0  0  0  0  0  0  0  0
   43.4120   31.6630   40.3820 C   0  0  0  0  0  0  0  0  0  0  0  0
   42.6000   30.9520   40.1770 H   0  0  0  0  0  0  0  0  0  0  0  0
   44.6800   31.2270   40.7050 C   0  0  0  0  0  0  0  0  0  0  0  0
   44.8230   30.1570   40.7440 H   0  0  0  0  0  0  0  0  0  0  0  0
   45.6790   32.1490   40.9580 C   0  0  0  0  0  0  0  0  0  0  0  0
  1  7  1  1  0  0  0
  1  2  1  0  0  0  0
  1 17  1  0  0  0  0
  2  8  1  0  0  0  0
  3 10  1  0  0  0  0
  3 11  1  0  0  0  0
  3  2  1  0  0  0  0
  4  3  1  0  0  0  0
  5  4  1  0  0  0  0
  5  6  1  0  0  0  0
  6 16  1  1  0  0  0
  6  1  1  0  0  0  0
  9  2  1  0  0  0  0
 12  4  1  0  0  0  0
 13  4  1  0  0  0  0
 14  5  1  0  0  0  0
 15  5  1  0  0  0  0
 17 22  1  0  0  0  0
 18 17  2  0  0  0  0
 18 19  1  0  0  0  0
 19 20  2  0  0  0  0
 20 21  1  0  0  0  0
 21 25  1  0  0  0  0
 22 21  2  0  0  0  0
 23 18  1  0  0  0  0
 24 19  1  0  0  0  0
 26 34  1  0  0  0  0
 26  6  1  0  0  0  0
 27 26  2  0  0  0  0
 28 27  1  0  0  0  0
 29 30  2  0  0  0  0
 29 27  1  0  0  0  0
 30 32  1  0  0  0  0
 31 30  1  0  0  0  0
 32 33  1  0  0  0  0
 32 34  2  0  0  0  0
M  END
>  <minimizedAffinity>
-5.38091135

>  <minimizedRMSD>
5.52750301

$$$$
