
     RDKit          3D

 40 44  0  0  0  0  0  0  0  0999 V2000
   47.2710   31.3887   45.1513 C   0  0  0  0  0  0  0  0  0  0  0  0
   46.8720   32.7243   45.1437 C   0  0  0  0  0  0  0  0  0  0  0  0
   46.2386   33.3287   46.2016 C   0  0  0  0  0  0  0  0  0  0  0  0
   45.9694   32.5976   47.3486 C   0  0  0  0  0  0  0  0  0  0  0  0
   45.3801   32.8438   48.5562 N   0  0  0  0  0  0  0  0  0  0  0  0
   45.4107   31.7010   49.2910 C   0  0  0  0  0  0  0  0  0  0  0  0
   46.0153   30.7615   48.5373 N   0  0  0  0  0  0  0  0  0  0  0  0
   46.3650   31.2808   47.3511 C   0  0  0  0  0  0  0  0  0  0  0  0
   47.0004   30.6563   46.3027 C   0  0  0  0  0  0  0  0  0  0  0  0
   46.4744   35.1859   42.4308 C   0  0  0  0  0  0  0  0  0  0  0  0
   47.6582   35.0163   41.6940 C   0  0  0  0  0  0  0  0  0  0  0  0
   48.5725   34.0648   42.1349 C   0  0  0  0  0  0  0  0  0  0  0  0
   48.2850   33.3373   43.2602 N   0  0  0  0  0  0  0  0  0  0  0  0
   47.1435   33.5230   43.9435 C   0  0  0  0  0  0  0  0  0  0  0  0
   46.2390   34.4396   43.5376 N   0  0  0  0  0  0  0  0  0  0  0  0
   47.3867   29.2417   46.3959 C   0  0  0  0  0  0  0  0  0  0  0  0
   48.6688   28.7945   46.6042 C   0  0  0  0  0  0  0  0  0  0  0  0
   48.5423   27.3933   46.6180 C   0  0  0  0  0  0  0  0  0  0  0  0
   47.2033   27.0837   46.4189 C   0  0  0  0  0  0  0  0  0  0  0  0
   46.5747   28.2340   46.2946 O   0  0  0  0  0  0  0  0  0  0  0  0
   47.7727   30.9268   44.3016 H   0  0  0  0  0  0  0  0  0  0  0  0
   45.9308   34.3701   46.1879 H   0  0  0  0  0  0  0  0  0  0  0  0
   44.9863   33.7845   48.8150 H   0  0  0  0  0  0  0  0  0  0  0  0
   45.0070   31.6016   50.3076 H   0  0  0  0  0  0  0  0  0  0  0  0
   45.7463   35.9172   42.1120 H   0  0  0  0  0  0  0  0  0  0  0  0
   47.8353   35.6158   40.8144 H   0  0  0  0  0  0  0  0  0  0  0  0
   49.5000   33.9017   41.5948 H   0  0  0  0  0  0  0  0  0  0  0  0
   49.5940   29.3542   46.7335 H   0  0  0  0  0  0  0  0  0  0  0  0
   49.3495   26.6790   46.7594 H   0  0  0  0  0  0  0  0  0  0  0  0
   46.5881   25.7400   46.3560 C   0  0  0  0  0  0  0  0  0  0  0  0
   47.2525   24.7998   45.5949 C   0  0  0  0  0  0  0  0  0  0  0  0
   48.1707   25.0476   45.0793 H   0  0  0  0  0  0  0  0  0  0  0  0
   46.6535   23.5364   45.5492 C   0  0  0  0  0  0  0  0  0  0  0  0
   45.4775   23.2629   46.2247 C   0  0  0  0  0  0  0  0  0  0  0  0
   45.0538   22.2683   46.1573 H   0  0  0  0  0  0  0  0  0  0  0  0
   44.8750   24.2611   46.9654 C   0  0  0  0  0  0  0  0  0  0  0  0
   43.9418   24.0673   47.5095 H   0  0  0  0  0  0  0  0  0  0  0  0
   45.4153   25.5493   47.0581 C   0  0  0  0  0  0  0  0  0  0  0  0
   47.1624   22.7741   44.9515 H   0  0  0  0  0  0  0  0  0  0  0  0
   44.9736   26.3502   47.6251 H   0  0  0  0  0  0  0  0  0  0  0  0
  1  9  2  0
  2  1  1  0
  2  3  2  0
  3  4  1  0
  4  5  1  0
  5  6  1  0
  7  6  2  0
  8  4  2  0
  8  7  1  0
  9 16  1  0
  9  8  1  0
 10 15  2  0
 11 12  2  0
 11 10  1  0
 12 13  1  0
 13 14  2  0
 14  2  1  0
 15 14  1  0
 16 17  2  0
 17 18  1  0
 19 18  2  0
 20 16  1  0
 20 19  1  0
  1 21  1  0
  3 22  1  0
  5 23  1  0
  6 24  1  0
 10 25  1  0
 11 26  1  0
 12 27  1  0
 17 28  1  0
 18 29  1  0
 30 31  2  0
 31 32  1  0
 31 33  1  0
 33 34  2  0
 34 35  1  0
 34 36  1  0
 36 37  1  0
 36 38  2  0
 38 30  1  0
 33 39  1  0
 38 40  1  0
 19 30  1  0
M  ISO  8  21  14  22  14  23   9  24  14  25  14  26  14  27  14  28  14
M  ISO  4  29  14  32  16  35  16  37  16
M  END
>  <DihAtoms>  (1) 
17,18,29,30

>  <DihDeg>  (1) 
-179.9993904600061

$$$$
