
 OpenBabel03252506563D

 38 42  0  0  0  0  0  0  0  0999 V2000
   47.2300   31.3810   45.1480 C   0  0  0  0  0  0  0  0  0  0  0  0
   46.8640   32.7250   45.1390 C   0  0  0  0  0  0  0  0  0  0  0  0
   46.2540   33.3500   46.1990 C   0  0  0  0  0  0  0  0  0  0  0  0
   45.9730   32.6290   47.3500 C   0  0  0  0  0  0  0  0  0  0  0  0
   45.3980   32.8940   48.5600 N   0  0  0  0  0  0  0  0  0  0  0  0
   45.4060   31.7530   49.2990 C   0  0  0  0  0  0  0  0  0  0  0  0
   45.9810   30.7970   48.5440 N   0  0  0  0  0  0  0  0  0  0  0  0
   46.3360   31.3030   47.3540 C   0  0  0  0  0  0  0  0  0  0  0  0
   46.9490   30.6590   46.3040 C   0  0  0  0  0  0  0  0  0  0  0  0
   47.7150   30.9040   44.2970 H   0  0  0  0  0  0  0  0  0  0  0  0
   45.9710   34.3980   46.1830 H   0  0  0  0  0  0  0  0  0  0  0  0
   45.0290   33.8460   48.8180 H   0  0  0  0  0  0  0  0  0  0  0  0
   45.0060   31.6680   50.3190 H   0  0  0  0  0  0  0  0  0  0  0  0
   46.5060   35.1820   42.4150 C   0  0  0  0  0  0  0  0  0  0  0  0
   47.6850   34.9850   41.6750 C   0  0  0  0  0  0  0  0  0  0  0  0
   48.5810   34.0190   42.1190 C   0  0  0  0  0  0  0  0  0  0  0  0
   48.2840   33.3020   43.2480 N   0  0  0  0  0  0  0  0  0  0  0  0
   47.1480   33.5130   43.9340 C   0  0  0  0  0  0  0  0  0  0  0  0
   46.2600   34.4450   43.5260 N   0  0  0  0  0  0  0  0  0  0  0  0
   45.7910   35.9250   42.0940 H   0  0  0  0  0  0  0  0  0  0  0  0
   47.8710   35.5770   40.7920 H   0  0  0  0  0  0  0  0  0  0  0  0
   49.5050   33.8350   41.5770 H   0  0  0  0  0  0  0  0  0  0  0  0
   47.3010   29.2360   46.4000 C   0  0  0  0  0  0  0  0  0  0  0  0
   48.5810   28.7410   46.3380 C   0  0  0  0  0  0  0  0  0  0  0  0
   48.4160   27.3510   46.4740 C   0  0  0  0  0  0  0  0  0  0  0  0
   47.0580   27.0940   46.6070 C   0  0  0  0  0  0  0  0  0  0  0  0
   46.4560   28.2630   46.5540 O   0  0  0  0  0  0  0  0  0  0  0  0
   49.5290   29.2640   46.2150 H   0  0  0  0  0  0  0  0  0  0  0  0
   49.2100   26.6090   46.4740 H   0  0  0  0  0  0  0  0  0  0  0  0
   46.4020   25.7780   46.7760 C   0  0  0  0  0  0  0  0  0  0  0  0
   45.0360   25.7990   46.9700 C   0  0  0  0  0  0  0  0  0  0  0  0
   44.4900   26.7320   46.9950 H   0  0  0  0  0  0  0  0  0  0  0  0
   44.4370   24.5440   47.1280 C   0  0  0  0  0  3  0  0  0  0  0  0
   45.1740   23.3740   47.0880 C   0  0  0  0  0  0  0  0  0  0  0  0
   44.6620   22.4280   47.2160 H   0  0  0  0  0  0  0  0  0  0  0  0
   46.5390   23.4410   46.8900 C   0  0  0  0  0  0  0  0  0  0  0  0
   47.1440   22.5270   46.8560 H   0  0  0  0  0  0  0  0  0  0  0  0
   47.2090   24.6590   46.7250 C   0  0  0  0  0  3  0  0  0  0  0  0
  1  9  1  0  0  0  0
  2  1  2  0  0  0  0
  2  3  1  0  0  0  0
  3  4  2  0  0  0  0
  4  8  1  0  0  0  0
  4  5  1  0  0  0  0
  5 12  1  0  0  0  0
  5  6  1  0  0  0  0
  6 13  1  0  0  0  0
  7  6  2  0  0  0  0
  8  7  1  0  0  0  0
  9 23  1  0  0  0  0
  9  8  2  0  0  0  0
 10  1  1  0  0  0  0
 11  3  1  0  0  0  0
 14 19  1  0  0  0  0
 15 16  1  0  0  0  0
 15 14  2  0  0  0  0
 16 17  2  0  0  0  0
 17 18  1  0  0  0  0
 18  2  1  0  0  0  0
 19 18  2  0  0  0  0
 20 14  1  0  0  0  0
 21 15  1  0  0  0  0
 22 16  1  0  0  0  0
 23 27  1  0  0  0  0
 24 23  2  0  0  0  0
 24 25  1  0  0  0  0
 25 26  2  0  0  0  0
 26 30  1  0  0  0  0
 27 26  1  0  0  0  0
 28 24  1  0  0  0  0
 29 25  1  0  0  0  0
 30 31  1  0  0  0  0
 31 32  1  0  0  0  0
 31 33  2  0  0  0  0
 34 33  1  0  0  0  0
 34 35  1  0  0  0  0
 36 34  2  0  0  0  0
 37 36  1  0  0  0  0
 38 30  2  0  0  0  0
 38 36  1  0  0  0  0
M  END
>  <minimizedAffinity>
-5.62945747

>  <minimizedRMSD>
0.368295491

$$$$
