REMARK  Name = 
REMARK  3 active torsions:
REMARK  status: ('A' for Active; 'I' for Inactive)
REMARK    1  A    between atoms: C_2  and  C_14
REMARK    2  A    between atoms: C_9  and  C_16
REMARK    3  A    between atoms: C_19  and  C_30
REMARK                            x       y       z     vdW  Elec       q    Type
REMARK                         _______ _______ _______ _____ _____    ______ ____
ROOT
ATOM      1  C   UNL     1      47.271  31.389  45.151  0.00  0.00    +0.000 A 
ATOM      2  C   UNL     1      46.872  32.724  45.144  0.00  0.00    +0.000 A 
ATOM      3  C   UNL     1      46.239  33.329  46.202  0.00  0.00    +0.000 A 
ATOM      4  C   UNL     1      45.969  32.598  47.349  0.00  0.00    +0.000 A 
ATOM      5  N   UNL     1      45.380  32.844  48.556  0.00  0.00    +0.000 N 
ATOM      6  C   UNL     1      45.411  31.701  49.291  0.00  0.00    +0.000 A 
ATOM      7  N   UNL     1      46.015  30.762  48.537  0.00  0.00    +0.000 NA
ATOM      8  C   UNL     1      46.365  31.281  47.351  0.00  0.00    +0.000 A 
ATOM      9  C   UNL     1      47.000  30.656  46.303  0.00  0.00    +0.000 A 
ATOM     10  H   UNL     1      47.773  30.927  44.302  0.00  0.00    +0.000 HD
ATOM     11  H   UNL     1      45.931  34.370  46.188  0.00  0.00    +0.000 HD
ATOM     12  H   UNL     1      44.986  33.785  48.815  0.00  0.00    +0.000 HD
ATOM     13  H   UNL     1      45.007  31.602  50.308  0.00  0.00    +0.000 HD
ENDROOT
BRANCH   2  18
ATOM     14  C   UNL     1      46.474  35.186  42.431  0.00  0.00    +0.000 A 
ATOM     15  C   UNL     1      47.658  35.016  41.694  0.00  0.00    +0.000 A 
ATOM     16  C   UNL     1      48.572  34.065  42.135  0.00  0.00    +0.000 A 
ATOM     17  N   UNL     1      48.285  33.337  43.260  0.00  0.00    +0.000 NA
ATOM     18  C   UNL     1      47.144  33.523  43.944  0.00  0.00    +0.000 A 
ATOM     19  N   UNL     1      46.239  34.440  43.538  0.00  0.00    +0.000 NA
ATOM     20  H   UNL     1      45.746  35.917  42.112  0.00  0.00    +0.000 HD
ATOM     21  H   UNL     1      47.835  35.616  40.814  0.00  0.00    +0.000 HD
ATOM     22  H   UNL     1      49.500  33.902  41.595  0.00  0.00    +0.000 HD
ENDBRANCH   2  18
BRANCH   9  23
ATOM     23  C   UNL     1      47.387  29.242  46.396  0.00  0.00    +0.000 A 
ATOM     24  C   UNL     1      48.669  28.794  46.604  0.00  0.00    +0.000 A 
ATOM     25  C   UNL     1      48.542  27.393  46.618  0.00  0.00    +0.000 A 
ATOM     26  C   UNL     1      47.203  27.084  46.419  0.00  0.00    +0.000 A 
ATOM     27  O   UNL     1      46.575  28.234  46.295  0.00  0.00    +0.000 OA
ATOM     28  H   UNL     1      49.594  29.354  46.733  0.00  0.00    +0.000 HD
ATOM     29  H   UNL     1      49.349  26.679  46.759  0.00  0.00    +0.000 HD
BRANCH  26  30
ATOM     30  C   UNL     1      46.588  25.740  46.356  0.00  0.00    +0.000 A 
ATOM     31  C   UNL     1      47.390  24.724  45.877  0.00  0.00    +0.000 A 
ATOM     32  H   UNL     1      48.409  24.916  45.569  0.00  0.00    +0.000 HD
ATOM     33  C   UNL     1      46.788  23.462  45.826  0.00  0.00    +0.000 A 
ATOM     34  C   UNL     1      45.480  23.261  46.231  0.00  0.00    +0.000 A 
ATOM     35  H   UNL     1      45.061  22.265  46.172  0.00  0.00    +0.000 HD
ATOM     36  C   UNL     1      44.745  24.333  46.698  0.00  0.00    +0.000 A 
ATOM     37  H   UNL     1      43.706  24.198  47.024  0.00  0.00    +0.000 HD
ATOM     38  C   UNL     1      45.279  25.625  46.778  0.00  0.00    +0.000 A 
ENDBRANCH  26  30
ENDBRANCH   9  23
TORSDOF 3
