
 OpenBabel03242522513D

 24 24  0  0  0  0  0  0  0  0999 V2000
   45.2870   30.8190   47.5010 O   0  0  0  0  0  0  0  0  0  0  0  0
   45.7510   32.0220   48.3460 P   0  0  2  0  0  0  0  0  0  0  0  0
   45.1410   31.7630   49.8960 O   0  0  0  0  0  0  0  0  0  0  0  0
   45.7440   32.1450   50.5810 H   0  0  0  0  0  0  0  0  0  0  0  0
   45.0630   33.4220   47.6860 O   0  0  0  0  0  0  0  0  0  0  0  0
   46.6990   33.4970   44.4410 C   0  0  0  0  0  0  0  0  0  0  0  0
   46.3540   33.1330   45.7560 C   0  0  0  0  0  0  0  0  0  0  0  0
   45.3560   33.8230   46.4000 C   0  0  0  0  0  0  0  0  0  0  0  0
   44.7380   34.8330   45.7370 N   0  0  0  0  0  0  0  0  0  0  0  0
   45.0680   35.1770   44.4860 C   0  0  0  0  0  0  0  0  0  0  0  0
   46.0440   34.5180   43.8300 N   0  0  0  0  0  0  0  0  0  0  0  0
   47.4660   33.0180   43.8570 H   0  0  0  0  0  0  0  0  0  0  0  0
   46.9560   32.3130   46.0950 H   0  0  0  0  0  0  0  0  0  0  0  0
   44.4750   36.0060   44.1040 H   0  0  0  0  0  0  0  0  0  0  0  0
   47.3990   32.1390   48.3480 O   0  0  0  0  0  0  0  0  0  0  0  0
   48.3390   31.4230   49.0140 C   0  0  0  0  0  0  0  0  0  0  0  0
   49.4300   32.0590   49.2210 O   0  0  0  0  0  0  0  0  0  0  0  0
   48.8470   30.3050   49.6540 O   0  0  0  0  0  0  0  0  0  0  0  0
   49.9260   29.1810   47.5320 O   0  0  0  0  0  0  0  0  0  0  0  0
   50.0580   29.3080   49.0350 P   0  0  0  0  0  0  0  0  0  0  0  0
   51.5780   29.8550   49.4790 O   0  0  0  0  0  0  0  0  0  0  0  0
   51.6480   30.8400   49.4740 H   0  0  0  0  0  0  0  0  0  0  0  0
   49.7770   27.7550   49.7020 O   0  0  0  0  0  0  0  0  0  0  0  0
   49.2830   27.2160   49.0630 H   0  0  0  0  0  0  0  0  0  0  0  0
  2  1  2  6  0  0  0
  2 15  1  0  0  0  0
  2  3  1  0  0  0  0
  3  4  1  0  0  0  0
  5  2  1  0  0  0  0
  6  7  1  0  0  0  0
  7 13  1  0  0  0  0
  7  8  2  0  0  0  0
  8  5  1  0  0  0  0
  9  8  1  0  0  0  0
 10  9  2  0  0  0  0
 11  6  2  0  0  0  0
 11 10  1  0  0  0  0
 12  6  1  0  0  0  0
 14 10  1  0  0  0  0
 15 16  1  0  0  0  0
 16 17  2  0  0  0  0
 16 18  1  0  0  0  0
 19 20  2  0  0  0  0
 20 21  1  0  0  0  0
 20 18  1  0  0  0  0
 20 23  1  0  0  0  0
 22 21  1  0  0  0  0
 24 23  1  0  0  0  0
M  END
>  <minimizedAffinity>
-4.52657557

>  <minimizedRMSD>
0.921209037

$$$$
