
 OpenBabel03242522513D

 24 24  0  0  0  0  0  0  0  0999 V2000
   45.2910   30.7560   47.5460 O   0  0  0  0  0  0  0  0  0  0  0  0
   45.7950   31.9650   48.3580 P   0  0  2  0  0  0  0  0  0  0  0  0
   45.2080   31.7480   49.9240 O   0  0  0  0  0  0  0  0  0  0  0  0
   45.8320   32.1320   50.5900 H   0  0  0  0  0  0  0  0  0  0  0  0
   45.1240   33.3660   47.6830 O   0  0  0  0  0  0  0  0  0  0  0  0
   46.7880   33.4130   44.4530 C   0  0  0  0  0  0  0  0  0  0  0  0
   46.4370   33.0650   45.7700 C   0  0  0  0  0  0  0  0  0  0  0  0
   45.4220   33.7500   46.3940 C   0  0  0  0  0  0  0  0  0  0  0  0
   44.7960   34.7390   45.7080 N   0  0  0  0  0  0  0  0  0  0  0  0
   45.1320   35.0680   44.4550 C   0  0  0  0  0  0  0  0  0  0  0  0
   46.1240   34.4140   43.8190 N   0  0  0  0  0  0  0  0  0  0  0  0
   47.5690   32.9350   43.8830 H   0  0  0  0  0  0  0  0  0  0  0  0
   47.0480   32.2600   46.1280 H   0  0  0  0  0  0  0  0  0  0  0  0
   44.5310   35.8820   44.0540 H   0  0  0  0  0  0  0  0  0  0  0  0
   47.4450   32.0470   48.3280 O   0  0  0  0  0  0  0  0  0  0  0  0
   48.3800   31.4050   49.0720 C   0  0  0  0  0  0  0  0  0  0  0  0
   49.4790   32.0470   49.1960 O   0  0  0  0  0  0  0  0  0  0  0  0
   48.8770   30.3670   49.8420 O   0  0  0  0  0  0  0  0  0  0  0  0
   51.4980   30.3250   49.6100 O   0  0  0  0  0  0  0  0  0  0  0  0
   50.3730   30.3770   50.6200 P   0  0  0  0  0  0  0  0  0  0  0  0
   50.5160   31.6980   51.6390 O   0  0  0  0  0  0  0  0  0  0  0  0
   50.1070   32.5160   51.2670 H   0  0  0  0  0  0  0  0  0  0  0  0
   50.4400   28.9260   51.5290 O   0  0  0  0  0  0  0  0  0  0  0  0
   50.9300   28.2540   51.0270 H   0  0  0  0  0  0  0  0  0  0  0  0
  2  1  2  6  0  0  0
  2  3  1  0  0  0  0
  3  4  1  0  0  0  0
  5  2  1  0  0  0  0
  6  7  1  0  0  0  0
  7 13  1  0  0  0  0
  7  8  2  0  0  0  0
  8  5  1  0  0  0  0
  9  8  1  0  0  0  0
 10  9  2  0  0  0  0
 11  6  2  0  0  0  0
 11 10  1  0  0  0  0
 12  6  1  0  0  0  0
 14 10  1  0  0  0  0
 15  2  1  0  0  0  0
 15 16  1  0  0  0  0
 16 17  2  0  0  0  0
 16 18  1  0  0  0  0
 18 20  1  0  0  0  0
 19 20  2  0  0  0  0
 20 23  1  0  0  0  0
 20 21  1  0  0  0  0
 22 21  1  0  0  0  0
 24 23  1  0  0  0  0
M  END
>  <minimizedAffinity>
-4.89075851

>  <minimizedRMSD>
1.07336593

$$$$
