
 OpenBabel03242518383D

 37 39  0  0  1  0  0  0  0  0999 V2000
   47.3260   33.7140   39.8370 C   0  0  0  0  0  0  0  0  0  0  0  0
   48.3120   34.3620   39.0780 C   0  0  0  0  0  0  0  0  0  0  0  0
   48.0120   34.2080   37.7390 C   0  0  0  0  0  0  0  0  0  0  0  0
   46.8670   33.4780   37.7430 C   0  0  0  0  0  0  0  0  0  0  0  0
   46.4740   33.1940   38.9740 O   0  0  0  0  0  0  0  0  0  0  0  0
   49.1340   34.8730   39.5610 H   0  0  0  0  0  0  0  0  0  0  0  0
   48.6020   34.6060   36.9310 H   0  0  0  0  0  0  0  0  0  0  0  0
   46.1480   33.0560   36.5190 C   0  0  2  0  0  0  0  0  0  0  0  0
   45.7920   31.6560   36.3110 C   0  0  0  0  0  0  0  0  0  0  0  0
   46.9990   32.1420   35.5950 C   0  0  1  0  0  0  0  0  0  0  0  0
   45.5750   33.8470   36.0110 H   0  0  0  0  0  0  0  0  0  0  0  0
   44.8870   31.3600   35.7260 H   0  0  0  0  0  0  0  0  0  0  0  0
   45.9810   30.9470   37.1650 H   0  0  0  0  0  0  0  0  0  0  0  0
   48.0150   31.9250   35.9220 H   0  0  0  0  0  0  0  0  0  0  0  0
   47.9470   32.5390   33.3300 C   0  0  0  0  0  0  0  0  0  0  0  0
   49.1350   32.3980   33.7410 O   0  0  0  0  0  0  0  0  0  0  0  0
   46.8140   32.4510   34.1780 N   0  0  0  0  0  0  0  0  0  0  0  0
   47.8910   32.7350   32.2600 H   0  0  0  0  0  0  0  0  0  0  0  0
   45.8630   32.6050   33.7890 H   0  0  0  0  0  0  0  0  0  0  0  0
   47.1590   33.5700   41.2400 O   0  0  0  0  0  0  0  0  0  0  0  0
   47.2980   34.7090   42.0580 C   0  0  0  0  0  0  0  0  0  0  0  0
   48.2250   35.5100   41.7390 O   0  0  0  0  0  0  0  0  0  0  0  0
   46.3950   34.8390   43.1420 C   0  0  0  0  0  0  0  0  0  0  0  0
   45.4520   35.8080   43.0340 C   0  0  0  0  0  0  0  0  0  0  0  0
   44.5380   35.9820   44.0690 C   0  0  0  0  0  0  0  0  0  0  0  0
   44.6300   35.1730   45.1360 N   0  0  0  0  0  0  0  0  0  0  0  0
   45.5640   34.2250   45.2250 C   0  0  0  0  0  0  0  0  0  0  0  0
   46.4230   34.0860   44.2170 N   0  0  0  0  0  0  0  0  0  0  0  0
   45.3700   36.4640   42.1790 H   0  0  0  0  0  0  0  0  0  0  0  0
   43.7710   36.7660   43.9870 H   0  0  0  0  0  0  0  0  0  0  0  0
   45.5220   33.4850   46.3830 O   0  0  0  0  0  0  0  0  0  0  0  0
   47.3970   31.8710   47.1990 O   0  0  0  0  0  0  0  0  0  0  0  0
   46.1250   31.8960   46.3700 P   0  0  0  0  0  0  0  0  0  0  0  0
   45.0300   30.8470   47.1270 O   0  0  0  0  0  0  0  0  0  0  0  0
   44.1160   31.0580   46.8210 H   0  0  0  0  0  0  0  0  0  0  0  0
   46.5160   31.3390   44.8360 O   0  0  0  0  0  0  0  0  0  0  0  0
   45.8170   31.6350   44.2090 H   0  0  0  0  0  0  0  0  0  0  0  0
  1 20  1  0  0  0  0
  2  6  1  0  0  0  0
  2  1  2  0  0  0  0
  3  4  2  0  0  0  0
  3  2  1  0  0  0  0
  4  5  1  0  0  0  0
  5  1  1  0  0  0  0
  7  3  1  0  0  0  0
  8 11  1  6  0  0  0
  8  4  1  0  0  0  0
  9  8  1  0  0  0  0
  9 13  1  0  0  0  0
 10 14  1  1  0  0  0
 10  9  1  0  0  0  0
 10  8  1  0  0  0  0
 12  9  1  0  0  0  0
 15 16  2  0  0  0  0
 15 17  1  0  0  0  0
 17 10  1  0  0  0  0
 18 15  1  0  0  0  0
 19 17  1  0  0  0  0
 20 21  1  0  0  0  0
 21 23  1  0  0  0  0
 22 21  2  0  0  0  0
 23 28  1  0  0  0  0
 24 23  2  0  0  0  0
 24 25  1  0  0  0  0
 25 26  2  0  0  0  0
 26 27  1  0  0  0  0
 27 31  1  0  0  0  0
 28 27  2  0  0  0  0
 29 24  1  0  0  0  0
 30 25  1  0  0  0  0
 33 31  1  0  0  0  0
 33 34  1  0  0  0  0
 33 32  2  0  0  0  0
 35 34  1  0  0  0  0
 36 33  1  0  0  0  0
 37 36  1  0  0  0  0
M  END
>  <minimizedAffinity>
-5.56717634

>  <minimizedRMSD>
0.813599706

$$$$
