
 OpenBabel03242522513D

 24 24  0  0  0  0  0  0  0  0999 V2000
   45.3970   30.6840   47.6300 O   0  0  0  0  0  0  0  0  0  0  0  0
   45.8200   31.9660   48.3740 P   0  0  2  0  0  0  0  0  0  0  0  0
   45.1930   31.8250   49.9320 O   0  0  0  0  0  0  0  0  0  0  0  0
   45.7770   32.2800   50.5890 H   0  0  0  0  0  0  0  0  0  0  0  0
   45.1090   33.2860   47.5870 O   0  0  0  0  0  0  0  0  0  0  0  0
   46.9550   33.2520   44.4560 C   0  0  0  0  0  0  0  0  0  0  0  0
   46.5210   32.9290   45.7550 C   0  0  0  0  0  0  0  0  0  0  0  0
   45.4900   33.6470   46.3120 C   0  0  0  0  0  0  0  0  0  0  0  0
   44.9300   34.6440   45.5820 N   0  0  0  0  0  0  0  0  0  0  0  0
   45.3450   34.9490   44.3460 C   0  0  0  0  0  0  0  0  0  0  0  0
   46.3540   34.2620   43.7750 N   0  0  0  0  0  0  0  0  0  0  0  0
   47.7530   32.7480   43.9370 H   0  0  0  0  0  0  0  0  0  0  0  0
   47.0890   32.1120   46.1550 H   0  0  0  0  0  0  0  0  0  0  0  0
   44.7890   35.7730   43.9030 H   0  0  0  0  0  0  0  0  0  0  0  0
   47.4640   32.1220   48.3860 O   0  0  0  0  0  0  0  0  0  0  0  0
   48.4440   31.1970   48.5410 C   0  0  0  0  0  0  0  0  0  0  0  0
   48.9060   31.1200   49.7310 O   0  0  0  0  0  0  0  0  0  0  0  0
   49.3080   30.2000   48.1200 O   0  0  0  0  0  0  0  0  0  0  0  0
   49.6060   27.6720   48.7860 O   0  0  0  0  0  0  0  0  0  0  0  0
   48.8680   28.5970   47.8420 P   0  0  0  0  0  0  0  0  0  0  0  0
   47.2090   28.3970   47.9480 O   0  0  0  0  0  0  0  0  0  0  0  0
   46.8020   28.9410   48.6650 H   0  0  0  0  0  0  0  0  0  0  0  0
   49.4020   28.2320   46.2540 O   0  0  0  0  0  0  0  0  0  0  0  0
   50.2600   27.7800   46.2990 H   0  0  0  0  0  0  0  0  0  0  0  0
  2  1  2  6  0  0  0
  2 15  1  0  0  0  0
  2  3  1  0  0  0  0
  3  4  1  0  0  0  0
  5  2  1  0  0  0  0
  6  7  1  0  0  0  0
  7 13  1  0  0  0  0
  7  8  2  0  0  0  0
  8  5  1  0  0  0  0
  9  8  1  0  0  0  0
 10  9  2  0  0  0  0
 11 10  1  0  0  0  0
 11  6  2  0  0  0  0
 12  6  1  0  0  0  0
 14 10  1  0  0  0  0
 15 16  1  0  0  0  0
 16 17  2  0  0  0  0
 18 16  1  0  0  0  0
 20 21  1  0  0  0  0
 20 18  1  0  0  0  0
 20 19  2  0  0  0  0
 21 22  1  0  0  0  0
 23 24  1  0  0  0  0
 23 20  1  0  0  0  0
M  END
>  <minimizedAffinity>
-4.33149433

>  <minimizedRMSD>
1.20837152

$$$$
