
 OpenBabel03252508003D

 27 28  0  0  1  0  0  0  0  0999 V2000
   46.3170   34.7310   43.2530 C   0  0  0  0  0  0  0  0  0  0  0  0
   45.3460   35.6970   43.5830 C   0  0  0  0  0  0  0  0  0  0  0  0
   44.6550   35.5340   44.7880 C   0  0  0  0  0  0  0  0  0  0  0  0
   44.9680   34.4570   45.5540 N   0  0  0  0  0  0  0  0  0  0  0  0
   45.9220   33.5560   45.1720 C   0  0  0  0  0  0  0  0  0  0  0  0
   46.6060   33.6640   44.0420 N   0  0  0  0  0  0  0  0  0  0  0  0
   45.1400   36.5270   42.9410 H   0  0  0  0  0  0  0  0  0  0  0  0
   43.9110   36.2500   45.0700 H   0  0  0  0  0  0  0  0  0  0  0  0
   46.2210   32.4040   46.0830 C   0  0  1  0  0  0  0  0  0  0  0  0
   47.0390   32.6450   47.3290 C   0  0  0  0  0  0  0  0  0  0  0  0
   45.5450   32.4720   47.3950 C   0  0  1  0  0  0  0  0  0  0  0  0
   46.3950   31.4280   45.6190 H   0  0  0  0  0  0  0  0  0  0  0  0
   47.6590   31.8030   47.6930 H   0  0  0  0  0  0  0  0  0  0  0  0
   47.5060   33.6410   47.4350 H   0  0  0  0  0  0  0  0  0  0  0  0
   45.1950   31.6050   47.9520 H   0  0  0  0  0  0  0  0  0  0  0  0
   44.8830   33.7200   47.8000 N   0  0  0  0  0  0  0  0  0  0  0  0
   45.1860   33.9190   48.7870 H   0  0  0  0  0  0  0  0  0  0  0  0
   43.8420   33.5860   47.8380 H   0  0  0  0  0  0  0  0  0  0  0  0
   47.0040   34.9620   42.0050 C   0  0  0  0  0  0  0  0  0  0  0  0
   48.0900   35.6340   41.9030 O   0  0  0  0  0  0  0  0  0  0  0  0
   46.4710   34.4310   40.8140 O   0  0  0  0  0  0  0  0  0  0  0  0
   45.8200   32.1910   39.5010 O   0  0  0  0  0  0  0  0  0  0  0  0
   46.9380   32.8820   40.2250 P   0  0  0  0  0  0  0  0  0  0  0  0
   48.2630   33.1490   39.1860 O   0  0  0  0  0  0  0  0  0  0  0  0
   48.8320   33.8730   39.5520 H   0  0  0  0  0  0  0  0  0  0  0  0
   47.5240   31.9210   41.4980 O   0  0  0  0  0  0  0  0  0  0  0  0
   48.4460   32.2380   41.7090 H   0  0  0  0  0  0  0  0  0  0  0  0
  1  2  2  0  0  0  0
  1  6  1  0  0  0  0
  2  3  1  0  0  0  0
  3  8  1  0  0  0  0
  3  4  2  0  0  0  0
  5  4  1  0  0  0  0
  5  9  1  0  0  0  0
  6  5  2  0  0  0  0
  7  2  1  0  0  0  0
  9 12  1  6  0  0  0
  9 10  1  0  0  0  0
  9 11  1  0  0  0  0
 10 11  1  0  0  0  0
 10 14  1  0  0  0  0
 10 13  1  0  0  0  0
 11 16  1  0  0  0  0
 11 15  1  1  0  0  0
 16 18  1  0  0  0  0
 16 17  1  0  0  0  0
 19  1  1  0  0  0  0
 20 19  2  0  0  0  0
 21 19  1  0  0  0  0
 22 23  2  0  0  0  0
 23 21  1  0  0  0  0
 23 26  1  0  0  0  0
 24 25  1  0  0  0  0
 24 23  1  0  0  0  0
 26 27  1  0  0  0  0
M  END
>  <minimizedAffinity>
-4.84555912

>  <minimizedRMSD>
0.34756586

$$$$
