
 OpenBabel03242522513D

 24 24  0  0  0  0  0  0  0  0999 V2000
   45.3080   30.7010   47.5670 O   0  0  0  0  0  0  0  0  0  0  0  0
   45.8100   31.9470   48.3230 P   0  0  2  0  0  0  0  0  0  0  0  0
   45.2300   31.7990   49.8980 O   0  0  0  0  0  0  0  0  0  0  0  0
   45.8550   32.2140   50.5440 H   0  0  0  0  0  0  0  0  0  0  0  0
   45.1320   33.3130   47.5880 O   0  0  0  0  0  0  0  0  0  0  0  0
   46.9080   33.3060   44.4170 C   0  0  0  0  0  0  0  0  0  0  0  0
   46.5060   32.9740   45.7230 C   0  0  0  0  0  0  0  0  0  0  0  0
   45.4820   33.6820   46.3060 C   0  0  0  0  0  0  0  0  0  0  0  0
   44.8980   34.6780   45.5930 N   0  0  0  0  0  0  0  0  0  0  0  0
   45.2840   34.9900   44.3490 C   0  0  0  0  0  0  0  0  0  0  0  0
   46.2850   34.3140   43.7530 N   0  0  0  0  0  0  0  0  0  0  0  0
   47.6990   32.8100   43.8780 H   0  0  0  0  0  0  0  0  0  0  0  0
   47.0890   32.1610   46.1080 H   0  0  0  0  0  0  0  0  0  0  0  0
   44.7110   35.8120   43.9220 H   0  0  0  0  0  0  0  0  0  0  0  0
   47.4600   32.0320   48.2830 O   0  0  0  0  0  0  0  0  0  0  0  0
   48.4000   31.4140   49.0400 C   0  0  0  0  0  0  0  0  0  0  0  0
   49.4340   32.1300   49.2740 O   0  0  0  0  0  0  0  0  0  0  0  0
   48.9360   30.3670   49.7700 O   0  0  0  0  0  0  0  0  0  0  0  0
   50.4720   29.2800   47.9300 O   0  0  0  0  0  0  0  0  0  0  0  0
   50.3860   29.5860   49.4100 P   0  0  0  0  0  0  0  0  0  0  0  0
   51.7020   30.4800   49.9350 O   0  0  0  0  0  0  0  0  0  0  0  0
   51.5790   31.4520   49.8120 H   0  0  0  0  0  0  0  0  0  0  0  0
   50.3300   28.0860   50.2350 O   0  0  0  0  0  0  0  0  0  0  0  0
   50.0350   27.3920   49.6230 H   0  0  0  0  0  0  0  0  0  0  0  0
  2  1  2  6  0  0  0
  2  3  1  0  0  0  0
  3  4  1  0  0  0  0
  5  2  1  0  0  0  0
  6  7  1  0  0  0  0
  7 13  1  0  0  0  0
  7  8  2  0  0  0  0
  8  5  1  0  0  0  0
  9  8  1  0  0  0  0
 10  9  2  0  0  0  0
 11 10  1  0  0  0  0
 11  6  2  0  0  0  0
 12  6  1  0  0  0  0
 14 10  1  0  0  0  0
 15  2  1  0  0  0  0
 15 16  1  0  0  0  0
 16 17  2  0  0  0  0
 16 18  1  0  0  0  0
 19 20  2  0  0  0  0
 20 18  1  0  0  0  0
 20 21  1  0  0  0  0
 20 23  1  0  0  0  0
 22 21  1  0  0  0  0
 24 23  1  0  0  0  0
M  END
>  <minimizedAffinity>
-4.46916771

>  <minimizedRMSD>
0.958211601

$$$$
