
 OpenBabel03252502293D

 33 34  0  0  0  0  0  0  0  0999 V2000
   36.8770   26.3850   39.9700 C   0  0  0  0  0  0  0  0  0  0  0  0
   36.5340   25.0340   39.9020 C   0  0  0  0  0  0  0  0  0  0  0  0
   36.5770   24.2810   41.0750 C   0  0  0  0  0  0  0  0  0  0  0  0
   36.9500   24.8670   42.2470 C   0  0  0  0  0  0  0  0  0  0  0  0
   37.2930   26.2010   42.3380 C   0  0  0  0  0  0  0  0  0  0  0  0
   37.2430   26.9390   41.1530 C   0  0  0  0  0  0  0  0  0  0  0  0
   36.2390   24.5750   38.9660 H   0  0  0  0  0  0  0  0  0  0  0  0
   36.3160   23.2400   41.0380 H   0  0  0  0  0  0  0  0  0  0  0  0
   36.9720   24.2500   43.1390 H   0  0  0  0  0  0  0  0  0  0  0  0
   37.5870   26.6780   43.2480 H   0  0  0  0  0  0  0  0  0  0  0  0
   35.7130   28.2520   36.9050 C   0  0  0  0  0  0  0  0  0  0  0  0
   35.6480   27.5500   38.1240 C   0  0  0  0  0  0  0  0  0  0  0  0
   36.8080   27.1140   38.7190 C   0  0  0  0  0  0  0  0  0  0  0  0
   37.9670   27.3960   38.0740 N   0  0  0  0  0  0  0  0  0  0  0  0
   38.0240   28.0690   36.9050 C   0  0  0  0  0  0  0  0  0  0  0  0
   36.8890   28.5000   36.3160 N   0  0  0  0  0  0  0  0  0  0  0  0
   34.7070   27.3370   38.6200 H   0  0  0  0  0  0  0  0  0  0  0  0
   39.0080   28.2420   36.4730 H   0  0  0  0  0  0  0  0  0  0  0  0
   34.4690   28.7220   36.2610 C   0  0  0  0  0  0  0  0  0  0  0  0
   33.6840   29.3240   37.2600 F   0  0  0  0  0  0  0  0  0  0  0  0
   33.7470   27.5750   35.9020 F   0  0  0  0  0  0  0  0  0  0  0  0
   34.6680   29.5770   35.2230 F   0  0  0  0  0  0  0  0  0  0  0  0
   37.9440   29.2890   42.0450 C   0  0  0  0  0  0  0  0  0  0  0  0
   38.0860   29.1070   43.2480 O   0  0  0  0  0  0  0  0  0  0  0  0
   37.5580   28.3140   41.1020 N   0  0  0  0  0  0  0  0  0  0  0  0
   37.4530   28.5920   40.0780 H   0  0  0  0  0  0  0  0  0  0  0  0
   38.1870   30.5880   41.5580 O   0  0  0  0  0  0  0  0  0  0  0  0
   37.0080   30.6640   39.1660 O   0  0  0  0  0  0  0  0  0  0  0  0
   36.9750   31.2630   40.5520 P   0  0  0  0  0  0  0  0  0  0  0  0
   35.4830   30.8100   41.2530 O   0  0  0  0  0  0  0  0  0  0  0  0
   35.6020   30.7910   42.2400 H   0  0  0  0  0  0  0  0  0  0  0  0
   37.0200   32.9320   40.4840 O   0  0  0  0  0  0  0  0  0  0  0  0
   37.6630   33.2470   39.7840 H   0  0  0  0  0  0  0  0  0  0  0  0
  1  6  1  0  0  0  0
  2  1  2  0  0  0  0
  2  3  1  0  0  0  0
  3  4  2  0  0  0  0
  4  5  1  0  0  0  0
  4  9  1  0  0  0  0
  5 10  1  0  0  0  0
  6  5  2  0  0  0  0
  7  2  1  0  0  0  0
  8  3  1  0  0  0  0
 11 12  1  0  0  0  0
 12 17  1  0  0  0  0
 12 13  2  0  0  0  0
 13  1  1  0  0  0  0
 14 13  1  0  0  0  0
 15 14  2  0  0  0  0
 16 11  2  0  0  0  0
 16 15  1  0  0  0  0
 18 15  1  0  0  0  0
 19 11  1  0  0  0  0
 19 20  1  0  0  0  0
 21 19  1  0  0  0  0
 22 19  1  0  0  0  0
 23 24  2  0  0  0  0
 25  6  1  0  0  0  0
 25 23  1  0  0  0  0
 26 25  1  0  0  0  0
 27 23  1  0  0  0  0
 28 29  2  0  0  0  0
 29 30  1  0  0  0  0
 29 27  1  0  0  0  0
 30 31  1  0  0  0  0
 32 29  1  0  0  0  0
 33 32  1  0  0  0  0
M  END
>  <minimizedAffinity>
-6.00190353

$$$$

 OpenBabel03252502293D

 33 34  0  0  0  0  0  0  0  0999 V2000
   35.4940   29.1690   38.3350 C   0  0  0  0  0  0  0  0  0  0  0  0
   34.1780   28.7260   38.2040 C   0  0  0  0  0  0  0  0  0  0  0  0
   33.6360   28.6340   36.9210 C   0  0  0  0  0  0  0  0  0  0  0  0
   34.3880   28.9740   35.8380 C   0  0  0  0  0  0  0  0  0  0  0  0
   35.6920   29.4130   35.9440 C   0  0  0  0  0  0  0  0  0  0  0  0
   36.2180   29.4990   37.2350 C   0  0  0  0  0  0  0  0  0  0  0  0
   33.5850   28.4580   39.0700 H   0  0  0  0  0  0  0  0  0  0  0  0
   32.6230   28.2940   36.8050 H   0  0  0  0  0  0  0  0  0  0  0  0
   33.9330   28.8890   34.8580 H   0  0  0  0  0  0  0  0  0  0  0  0
   36.2980   29.6840   35.1060 H   0  0  0  0  0  0  0  0  0  0  0  0
   36.7000   28.3570   41.8160 C   0  0  0  0  0  0  0  0  0  0  0  0
   36.2000   28.1580   40.5150 C   0  0  0  0  0  0  0  0  0  0  0  0
   36.0010   29.2400   39.6910 C   0  0  0  0  0  0  0  0  0  0  0  0
   36.3070   30.4590   40.2010 N   0  0  0  0  0  0  0  0  0  0  0  0
   36.7860   30.6440   41.4490 C   0  0  0  0  0  0  0  0  0  0  0  0
   36.9840   29.5860   42.2630 N   0  0  0  0  0  0  0  0  0  0  0  0
   35.9630   27.1710   40.1310 H   0  0  0  0  0  0  0  0  0  0  0  0
   36.9990   31.6660   41.7580 H   0  0  0  0  0  0  0  0  0  0  0  0
   36.9160   27.1970   42.7060 C   0  0  0  0  0  0  0  0  0  0  0  0
   35.9010   27.2220   43.6780 F   0  0  0  0  0  0  0  0  0  0  0  0
   38.0890   27.4600   43.4270 F   0  0  0  0  0  0  0  0  0  0  0  0
   36.9390   25.9990   42.0630 F   0  0  0  0  0  0  0  0  0  0  0  0
   38.8200   29.3500   37.3510 C   0  0  0  0  0  0  0  0  0  0  0  0
   39.0590   28.2210   36.9410 O   0  0  0  0  0  0  0  0  0  0  0  0
   37.5400   29.9240   37.4900 N   0  0  0  0  0  0  0  0  0  0  0  0
   37.4510   30.9160   37.8710 H   0  0  0  0  0  0  0  0  0  0  0  0
   39.9220   30.1480   37.7170 O   0  0  0  0  0  0  0  0  0  0  0  0
   40.9280   32.6090   37.9360 O   0  0  0  0  0  0  0  0  0  0  0  0
   39.6370   31.8340   37.8280 P   0  0  0  0  0  0  0  0  0  0  0  0
   38.9120   32.2820   36.3450 O   0  0  0  0  0  0  0  0  0  0  0  0
   38.3450   31.5230   36.0410 H   0  0  0  0  0  0  0  0  0  0  0  0
   38.5830   32.2510   39.0560 O   0  0  0  0  0  0  0  0  0  0  0  0
   39.0670   32.3570   39.9260 H   0  0  0  0  0  0  0  0  0  0  0  0
  1 13  1  0  0  0  0
  2  1  1  0  0  0  0
  2  7  1  0  0  0  0
  3  2  2  0  0  0  0
  4  5  2  0  0  0  0
  4  3  1  0  0  0  0
  5  6  1  0  0  0  0
  6 25  1  0  0  0  0
  6  1  2  0  0  0  0
  8  3  1  0  0  0  0
  9  4  1  0  0  0  0
 10  5  1  0  0  0  0
 11 16  1  0  0  0  0
 11 19  1  0  0  0  0
 12 11  2  0  0  0  0
 13 14  2  0  0  0  0
 13 12  1  0  0  0  0
 14 15  1  0  0  0  0
 15 18  1  0  0  0  0
 15 16  2  0  0  0  0
 17 12  1  0  0  0  0
 19 21  1  0  0  0  0
 19 20  1  0  0  0  0
 22 19  1  0  0  0  0
 23 25  1  0  0  0  0
 23 27  1  0  0  0  0
 24 23  2  0  0  0  0
 25 26  1  0  0  0  0
 27 29  1  0  0  0  0
 29 28  2  0  0  0  0
 29 32  1  0  0  0  0
 30 29  1  0  0  0  0
 31 30  1  0  0  0  0
 32 33  1  0  0  0  0
M  END
>  <minimizedAffinity>
-5.93993425

$$$$

 OpenBabel03252502293D

 33 34  0  0  0  0  0  0  0  0999 V2000
   36.8140   26.7440   40.1380 C   0  0  0  0  0  0  0  0  0  0  0  0
   36.8120   25.3520   40.2330 C   0  0  0  0  0  0  0  0  0  0  0  0
   36.1790   24.6220   39.2270 C   0  0  0  0  0  0  0  0  0  0  0  0
   35.5820   25.2710   38.1880 C   0  0  0  0  0  0  0  0  0  0  0  0
   35.5730   26.6460   38.0740 C   0  0  0  0  0  0  0  0  0  0  0  0
   36.2120   27.3600   39.0900 C   0  0  0  0  0  0  0  0  0  0  0  0
   37.2870   24.8430   41.0630 H   0  0  0  0  0  0  0  0  0  0  0  0
   36.1680   23.5500   39.2870 H   0  0  0  0  0  0  0  0  0  0  0  0
   35.1000   24.6700   37.4240 H   0  0  0  0  0  0  0  0  0  0  0  0
   35.1110   27.1720   37.2660 H   0  0  0  0  0  0  0  0  0  0  0  0
   39.3920   28.2830   42.4240 C   0  0  0  0  0  0  0  0  0  0  0  0
   38.8540   27.5740   41.3330 C   0  0  0  0  0  0  0  0  0  0  0  0
   37.4910   27.4450   41.2120 C   0  0  0  0  0  0  0  0  0  0  0  0
   36.7360   28.0240   42.1790 N   0  0  0  0  0  0  0  0  0  0  0  0
   37.2570   28.7020   43.2230 C   0  0  0  0  0  0  0  0  0  0  0  0
   38.5940   28.8320   43.3470 N   0  0  0  0  0  0  0  0  0  0  0  0
   39.4800   27.1200   40.5720 H   0  0  0  0  0  0  0  0  0  0  0  0
   36.5600   29.1280   43.9430 H   0  0  0  0  0  0  0  0  0  0  0  0
   40.8570   28.4230   42.5580 C   0  0  0  0  0  0  0  0  0  0  0  0
   41.2480   27.6690   43.6780 F   0  0  0  0  0  0  0  0  0  0  0  0
   41.0970   29.7510   42.9380 F   0  0  0  0  0  0  0  0  0  0  0  0
   41.5560   28.0470   41.4540 F   0  0  0  0  0  0  0  0  0  0  0  0
   36.7850   29.7490   38.2120 C   0  0  0  0  0  0  0  0  0  0  0  0
   37.3310   29.5340   37.1370 O   0  0  0  0  0  0  0  0  0  0  0  0
   36.2870   28.7690   39.0950 N   0  0  0  0  0  0  0  0  0  0  0  0
   35.8410   29.0750   40.0150 H   0  0  0  0  0  0  0  0  0  0  0  0
   36.6430   31.0950   38.6040 O   0  0  0  0  0  0  0  0  0  0  0  0
   38.2420   30.9180   40.7320 O   0  0  0  0  0  0  0  0  0  0  0  0
   36.9040   31.4360   40.2630 P   0  0  0  0  0  0  0  0  0  0  0  0
   36.9620   33.1410   40.3840 O   0  0  0  0  0  0  0  0  0  0  0  0
   36.3320   33.5170   39.7120 H   0  0  0  0  0  0  0  0  0  0  0  0
   35.6720   30.8980   41.2550 O   0  0  0  0  0  0  0  0  0  0  0  0
   35.8090   29.9400   41.5130 H   0  0  0  0  0  0  0  0  0  0  0  0
  1  2  1  0  0  0  0
  1 13  1  0  0  0  0
  2  7  1  0  0  0  0
  3  8  1  0  0  0  0
  3  2  2  0  0  0  0
  4  3  1  0  0  0  0
  5  4  2  0  0  0  0
  5  6  1  0  0  0  0
  6 25  1  0  0  0  0
  6  1  2  0  0  0  0
  9  4  1  0  0  0  0
 10  5  1  0  0  0  0
 11 19  1  0  0  0  0
 11 16  1  0  0  0  0
 12 11  2  0  0  0  0
 13 12  1  0  0  0  0
 13 14  2  0  0  0  0
 14 15  1  0  0  0  0
 15 16  2  0  0  0  0
 15 18  1  0  0  0  0
 17 12  1  0  0  0  0
 19 21  1  0  0  0  0
 19 20  1  0  0  0  0
 22 19  1  0  0  0  0
 23 27  1  0  0  0  0
 23 25  1  0  0  0  0
 24 23  2  0  0  0  0
 25 26  1  0  0  0  0
 27 29  1  0  0  0  0
 29 30  1  0  0  0  0
 29 28  2  0  0  0  0
 29 32  1  0  0  0  0
 31 30  1  0  0  0  0
 32 33  1  0  0  0  0
M  END
>  <minimizedAffinity>
-5.82853031

$$$$

 OpenBabel03252502293D

 33 34  0  0  0  0  0  0  0  0999 V2000
   36.7080   26.6090   39.9990 C   0  0  0  0  0  0  0  0  0  0  0  0
   36.3910   25.2530   39.9160 C   0  0  0  0  0  0  0  0  0  0  0  0
   36.8350   24.4070   40.9330 C   0  0  0  0  0  0  0  0  0  0  0  0
   37.5590   24.9110   41.9710 C   0  0  0  0  0  0  0  0  0  0  0  0
   37.8840   26.2480   42.0730 C   0  0  0  0  0  0  0  0  0  0  0  0
   37.4310   27.0800   41.0470 C   0  0  0  0  0  0  0  0  0  0  0  0
   35.8160   24.8590   39.0870 H   0  0  0  0  0  0  0  0  0  0  0  0
   36.5980   23.3610   40.8820 H   0  0  0  0  0  0  0  0  0  0  0  0
   37.8860   24.2230   42.7420 H   0  0  0  0  0  0  0  0  0  0  0  0
   38.4510   26.6620   42.8800 H   0  0  0  0  0  0  0  0  0  0  0  0
   36.2100   28.3590   36.6940 C   0  0  0  0  0  0  0  0  0  0  0  0
   36.7840   27.5180   37.6660 C   0  0  0  0  0  0  0  0  0  0  0  0
   36.2170   27.4360   38.9160 C   0  0  0  0  0  0  0  0  0  0  0  0
   35.1120   28.1940   39.1330 N   0  0  0  0  0  0  0  0  0  0  0  0
   34.5670   29.0000   38.1980 C   0  0  0  0  0  0  0  0  0  0  0  0
   35.1190   29.0830   36.9690 N   0  0  0  0  0  0  0  0  0  0  0  0
   37.6680   26.9220   37.4660 H   0  0  0  0  0  0  0  0  0  0  0  0
   33.6790   29.5650   38.4790 H   0  0  0  0  0  0  0  0  0  0  0  0
   36.8170   28.4500   35.3500 C   0  0  0  0  0  0  0  0  0  0  0  0
   38.1870   28.1720   35.4910 F   0  0  0  0  0  0  0  0  0  0  0  0
   36.7760   29.8020   34.9840 F   0  0  0  0  0  0  0  0  0  0  0  0
   36.2510   27.6280   34.4260 F   0  0  0  0  0  0  0  0  0  0  0  0
   38.0100   29.4400   41.9980 C   0  0  0  0  0  0  0  0  0  0  0  0
   38.1450   29.2390   43.1980 O   0  0  0  0  0  0  0  0  0  0  0  0
   37.6820   28.4690   41.0290 N   0  0  0  0  0  0  0  0  0  0  0  0
   37.5770   28.7650   40.0090 H   0  0  0  0  0  0  0  0  0  0  0  0
   38.1980   30.7600   41.5420 O   0  0  0  0  0  0  0  0  0  0  0  0
   37.2250   30.8470   39.0600 O   0  0  0  0  0  0  0  0  0  0  0  0
   37.0150   31.3670   40.4610 P   0  0  0  0  0  0  0  0  0  0  0  0
   35.5210   30.7390   41.0050 O   0  0  0  0  0  0  0  0  0  0  0  0
   35.5570   30.6800   41.9980 H   0  0  0  0  0  0  0  0  0  0  0  0
   36.8990   33.0350   40.4710 O   0  0  0  0  0  0  0  0  0  0  0  0
   37.5650   33.4460   39.8460 H   0  0  0  0  0  0  0  0  0  0  0  0
  1  6  1  0  0  0  0
  2  1  2  0  0  0  0
  2  3  1  0  0  0  0
  3  4  2  0  0  0  0
  4  5  1  0  0  0  0
  4  9  1  0  0  0  0
  5 10  1  0  0  0  0
  6  5  2  0  0  0  0
  7  2  1  0  0  0  0
  8  3  1  0  0  0  0
 11 16  2  0  0  0  0
 11 12  1  0  0  0  0
 12 13  2  0  0  0  0
 13 14  1  0  0  0  0
 13  1  1  0  0  0  0
 15 18  1  0  0  0  0
 15 14  2  0  0  0  0
 16 15  1  0  0  0  0
 17 12  1  0  0  0  0
 19 20  1  0  0  0  0
 19 11  1  0  0  0  0
 21 19  1  0  0  0  0
 22 19  1  0  0  0  0
 23 24  2  0  0  0  0
 25  6  1  0  0  0  0
 25 23  1  0  0  0  0
 26 25  1  0  0  0  0
 27 23  1  0  0  0  0
 28 29  2  0  0  0  0
 29 32  1  0  0  0  0
 29 30  1  0  0  0  0
 29 27  1  0  0  0  0
 30 31  1  0  0  0  0
 33 32  1  0  0  0  0
M  END
>  <minimizedAffinity>
-5.72232819

$$$$

 OpenBabel03252502293D

 33 34  0  0  0  0  0  0  0  0999 V2000
   37.6360   26.5140   40.2100 C   0  0  0  0  0  0  0  0  0  0  0  0
   37.4170   25.1360   40.2450 C   0  0  0  0  0  0  0  0  0  0  0  0
   36.9540   24.5710   41.4330 C   0  0  0  0  0  0  0  0  0  0  0  0
   36.7300   25.3600   42.5210 C   0  0  0  0  0  0  0  0  0  0  0  0
   36.9400   26.7230   42.5080 C   0  0  0  0  0  0  0  0  0  0  0  0
   37.4030   27.2720   41.3100 C   0  0  0  0  0  0  0  0  0  0  0  0
   37.5990   24.5150   39.3760 H   0  0  0  0  0  0  0  0  0  0  0  0
   36.7810   23.5110   41.4750 H   0  0  0  0  0  0  0  0  0  0  0  0
   36.3700   24.8840   43.4270 H   0  0  0  0  0  0  0  0  0  0  0  0
   36.7690   27.3580   43.3520 H   0  0  0  0  0  0  0  0  0  0  0  0
   39.7700   27.6320   37.3060 C   0  0  0  0  0  0  0  0  0  0  0  0
   39.4320   27.0960   38.5640 C   0  0  0  0  0  0  0  0  0  0  0  0
   38.1130   27.0410   38.9470 C   0  0  0  0  0  0  0  0  0  0  0  0
   37.2020   27.5210   38.0640 N   0  0  0  0  0  0  0  0  0  0  0  0
   37.5310   28.0340   36.8590 C   0  0  0  0  0  0  0  0  0  0  0  0
   38.8240   28.0900   36.4770 N   0  0  0  0  0  0  0  0  0  0  0  0
   40.1810   26.7190   39.2520 H   0  0  0  0  0  0  0  0  0  0  0  0
   36.7200   28.3910   36.2280 H   0  0  0  0  0  0  0  0  0  0  0  0
   41.1870   27.6930   36.8900 C   0  0  0  0  0  0  0  0  0  0  0  0
   41.4360   26.5640   36.0910 F   0  0  0  0  0  0  0  0  0  0  0  0
   41.9510   27.4730   38.0440 F   0  0  0  0  0  0  0  0  0  0  0  0
   41.5250   28.8340   36.2320 F   0  0  0  0  0  0  0  0  0  0  0  0
   38.2850   29.6510   41.9220 C   0  0  0  0  0  0  0  0  0  0  0  0
   38.7990   29.4900   43.0220 O   0  0  0  0  0  0  0  0  0  0  0  0
   37.6500   28.6530   41.1540 N   0  0  0  0  0  0  0  0  0  0  0  0
   37.2250   28.9130   40.2100 H   0  0  0  0  0  0  0  0  0  0  0  0
   38.3300   30.9480   41.3740 O   0  0  0  0  0  0  0  0  0  0  0  0
   36.8530   30.7180   39.1640 O   0  0  0  0  0  0  0  0  0  0  0  0
   36.9540   31.4460   40.4830 P   0  0  0  0  0  0  0  0  0  0  0  0
   35.6000   30.9730   41.4150 O   0  0  0  0  0  0  0  0  0  0  0  0
   35.8460   31.0580   42.3760 H   0  0  0  0  0  0  0  0  0  0  0  0
   36.8670   33.1010   40.2630 O   0  0  0  0  0  0  0  0  0  0  0  0
   37.3910   33.3850   39.4580 H   0  0  0  0  0  0  0  0  0  0  0  0
  1  2  2  0  0  0  0
  1  6  1  0  0  0  0
  2  3  1  0  0  0  0
  3  8  1  0  0  0  0
  3  4  2  0  0  0  0
  4  9  1  0  0  0  0
  5  4  1  0  0  0  0
  5 10  1  0  0  0  0
  6  5  2  0  0  0  0
  7  2  1  0  0  0  0
 11 12  1  0  0  0  0
 12 13  2  0  0  0  0
 12 17  1  0  0  0  0
 13  1  1  0  0  0  0
 14 13  1  0  0  0  0
 15 14  2  0  0  0  0
 16 15  1  0  0  0  0
 16 11  2  0  0  0  0
 18 15  1  0  0  0  0
 19 11  1  0  0  0  0
 19 21  1  0  0  0  0
 20 19  1  0  0  0  0
 22 19  1  0  0  0  0
 23 24  2  0  0  0  0
 25  6  1  0  0  0  0
 25 23  1  0  0  0  0
 26 25  1  0  0  0  0
 27 23  1  0  0  0  0
 28 29  2  0  0  0  0
 29 27  1  0  0  0  0
 29 30  1  0  0  0  0
 30 31  1  0  0  0  0
 32 29  1  0  0  0  0
 33 32  1  0  0  0  0
M  END
>  <minimizedAffinity>
-5.57007456

$$$$

 OpenBabel03252502293D

 33 34  0  0  0  0  0  0  0  0999 V2000
   37.6920   27.7720   41.4580 C   0  0  0  0  0  0  0  0  0  0  0  0
   37.6630   26.3940   41.6740 C   0  0  0  0  0  0  0  0  0  0  0  0
   38.4730   25.8660   42.6800 C   0  0  0  0  0  0  0  0  0  0  0  0
   39.2670   26.6910   43.4180 C   0  0  0  0  0  0  0  0  0  0  0  0
   39.3110   28.0560   43.2210 C   0  0  0  0  0  0  0  0  0  0  0  0
   38.4930   28.5670   42.2110 C   0  0  0  0  0  0  0  0  0  0  0  0
   37.0300   25.7440   41.0820 H   0  0  0  0  0  0  0  0  0  0  0  0
   38.4610   24.8070   42.8580 H   0  0  0  0  0  0  0  0  0  0  0  0
   39.8830   26.2440   44.1910 H   0  0  0  0  0  0  0  0  0  0  0  0
   39.9270   28.7190   43.7910 H   0  0  0  0  0  0  0  0  0  0  0  0
   36.2410   28.8460   38.1440 C   0  0  0  0  0  0  0  0  0  0  0  0
   37.1760   28.3560   39.0770 C   0  0  0  0  0  0  0  0  0  0  0  0
   36.8260   28.2590   40.4030 C   0  0  0  0  0  0  0  0  0  0  0  0
   35.5700   28.6540   40.7310 N   0  0  0  0  0  0  0  0  0  0  0  0
   34.6780   29.1230   39.8330 C   0  0  0  0  0  0  0  0  0  0  0  0
   35.0160   29.2200   38.5300 N   0  0  0  0  0  0  0  0  0  0  0  0
   38.1750   28.0470   38.7880 H   0  0  0  0  0  0  0  0  0  0  0  0
   33.6960   29.4120   40.2040 H   0  0  0  0  0  0  0  0  0  0  0  0
   36.6140   28.9510   36.7180 C   0  0  0  0  0  0  0  0  0  0  0  0
   35.8010   28.0530   36.0070 F   0  0  0  0  0  0  0  0  0  0  0  0
   37.9040   28.4140   36.6020 F   0  0  0  0  0  0  0  0  0  0  0  0
   36.5090   30.2070   36.2060 F   0  0  0  0  0  0  0  0  0  0  0  0
   39.3020   30.8790   41.3110 C   0  0  0  0  0  0  0  0  0  0  0  0
   40.4310   30.6450   40.8990 O   0  0  0  0  0  0  0  0  0  0  0  0
   38.4310   29.9440   41.9080 N   0  0  0  0  0  0  0  0  0  0  0  0
   37.4710   30.2660   42.2430 H   0  0  0  0  0  0  0  0  0  0  0  0
   38.8290   32.1990   41.1780 O   0  0  0  0  0  0  0  0  0  0  0  0
   37.8880   31.8110   38.7120 O   0  0  0  0  0  0  0  0  0  0  0  0
   37.5680   32.4450   40.0450 P   0  0  0  0  0  0  0  0  0  0  0  0
   36.2090   31.6200   40.6730 O   0  0  0  0  0  0  0  0  0  0  0  0
   36.2430   31.6860   41.6660 H   0  0  0  0  0  0  0  0  0  0  0  0
   37.1460   34.0520   39.8580 O   0  0  0  0  0  0  0  0  0  0  0  0
   37.7320   34.5020   39.1820 H   0  0  0  0  0  0  0  0  0  0  0  0
  1  2  2  0  0  0  0
  1  6  1  0  0  0  0
  2  3  1  0  0  0  0
  3  8  1  0  0  0  0
  3  4  2  0  0  0  0
  4  9  1  0  0  0  0
  5  4  1  0  0  0  0
  5 10  1  0  0  0  0
  6  5  2  0  0  0  0
  7  2  1  0  0  0  0
 11 16  2  0  0  0  0
 11 12  1  0  0  0  0
 12 13  2  0  0  0  0
 13 14  1  0  0  0  0
 13  1  1  0  0  0  0
 15 18  1  0  0  0  0
 15 14  2  0  0  0  0
 16 15  1  0  0  0  0
 17 12  1  0  0  0  0
 19 11  1  0  0  0  0
 20 19  1  0  0  0  0
 21 19  1  0  0  0  0
 22 19  1  0  0  0  0
 23 25  1  0  0  0  0
 24 23  2  0  0  0  0
 25  6  1  0  0  0  0
 25 26  1  0  0  0  0
 27 23  1  0  0  0  0
 28 29  2  0  0  0  0
 29 30  1  0  0  0  0
 29 27  1  0  0  0  0
 30 31  1  0  0  0  0
 32 29  1  0  0  0  0
 33 32  1  0  0  0  0
M  END
>  <minimizedAffinity>
-5.4935689

$$$$

 OpenBabel03252502293D

 33 34  0  0  0  0  0  0  0  0999 V2000
   37.1110   28.4860   40.9020 C   0  0  0  0  0  0  0  0  0  0  0  0
   36.7030   27.3960   41.6710 C   0  0  0  0  0  0  0  0  0  0  0  0
   37.1280   27.3280   42.9990 C   0  0  0  0  0  0  0  0  0  0  0  0
   37.9220   28.3100   43.5100 C   0  0  0  0  0  0  0  0  0  0  0  0
   38.3360   29.3970   42.7680 C   0  0  0  0  0  0  0  0  0  0  0  0
   37.9010   29.4480   41.4410 C   0  0  0  0  0  0  0  0  0  0  0  0
   36.0730   26.6180   41.2570 H   0  0  0  0  0  0  0  0  0  0  0  0
   36.8230   26.4940   43.6030 H   0  0  0  0  0  0  0  0  0  0  0  0
   38.2320   28.2230   44.5460 H   0  0  0  0  0  0  0  0  0  0  0  0
   38.9580   30.1770   43.1520 H   0  0  0  0  0  0  0  0  0  0  0  0
   34.9780   28.6140   37.7920 C   0  0  0  0  0  0  0  0  0  0  0  0
   35.3160   28.6100   39.1590 C   0  0  0  0  0  0  0  0  0  0  0  0
   36.6340   28.5010   39.5330 C   0  0  0  0  0  0  0  0  0  0  0  0
   37.5440   28.4010   38.5320 N   0  0  0  0  0  0  0  0  0  0  0  0
   37.2150   28.4050   37.2240 C   0  0  0  0  0  0  0  0  0  0  0  0
   35.9230   28.5130   36.8500 N   0  0  0  0  0  0  0  0  0  0  0  0
   34.5670   28.6910   39.9400 H   0  0  0  0  0  0  0  0  0  0  0  0
   38.0270   28.3200   36.5020 H   0  0  0  0  0  0  0  0  0  0  0  0
   33.5620   28.7310   37.3850 C   0  0  0  0  0  0  0  0  0  0  0  0
   33.1330   27.4510   36.9940 F   0  0  0  0  0  0  0  0  0  0  0  0
   33.5480   29.4760   36.1980 F   0  0  0  0  0  0  0  0  0  0  0  0
   32.7470   29.2410   38.3470 F   0  0  0  0  0  0  0  0  0  0  0  0
   39.4440   31.0650   40.0950 C   0  0  0  0  0  0  0  0  0  0  0  0
   40.5730   30.6970   40.3960 O   0  0  0  0  0  0  0  0  0  0  0  0
   38.2400   30.5060   40.5720 N   0  0  0  0  0  0  0  0  0  0  0  0
   37.3110   30.9190   40.2490 H   0  0  0  0  0  0  0  0  0  0  0  0
   39.3370   32.1420   39.1940 O   0  0  0  0  0  0  0  0  0  0  0  0
   41.2710   32.4750   37.3870 O   0  0  0  0  0  0  0  0  0  0  0  0
   39.9080   31.8630   37.6030 P   0  0  0  0  0  0  0  0  0  0  0  0
   40.0980   30.1690   37.4670 O   0  0  0  0  0  0  0  0  0  0  0  0
   39.3850   29.7370   38.0110 H   0  0  0  0  0  0  0  0  0  0  0  0
   38.8360   32.3510   36.4160 O   0  0  0  0  0  0  0  0  0  0  0  0
   38.9540   33.3220   36.2020 H   0  0  0  0  0  0  0  0  0  0  0  0
  1  6  2  0  0  0  0
  1  2  1  0  0  0  0
  2  3  2  0  0  0  0
  3  4  1  0  0  0  0
  3  8  1  0  0  0  0
  4  9  1  0  0  0  0
  5 10  1  0  0  0  0
  5  4  2  0  0  0  0
  6  5  1  0  0  0  0
  7  2  1  0  0  0  0
 11 12  1  0  0  0  0
 12 13  2  0  0  0  0
 12 17  1  0  0  0  0
 13  1  1  0  0  0  0
 14 13  1  0  0  0  0
 15 14  2  0  0  0  0
 16 15  1  0  0  0  0
 16 11  2  0  0  0  0
 18 15  1  0  0  0  0
 19 11  1  0  0  0  0
 19 22  1  0  0  0  0
 20 19  1  0  0  0  0
 21 19  1  0  0  0  0
 23 24  2  0  0  0  0
 23 25  1  0  0  0  0
 25  6  1  0  0  0  0
 26 25  1  0  0  0  0
 27 23  1  0  0  0  0
 28 29  2  0  0  0  0
 29 27  1  0  0  0  0
 30 29  1  0  0  0  0
 30 31  1  0  0  0  0
 32 29  1  0  0  0  0
 33 32  1  0  0  0  0
M  END
>  <minimizedAffinity>
-5.478405

$$$$

 OpenBabel03252502293D

 33 34  0  0  0  0  0  0  0  0999 V2000
   35.2630   29.1770   38.4430 C   0  0  0  0  0  0  0  0  0  0  0  0
   33.9140   28.8200   38.4090 C   0  0  0  0  0  0  0  0  0  0  0  0
   33.2890   28.7160   37.1660 C   0  0  0  0  0  0  0  0  0  0  0  0
   33.9930   28.9640   36.0270 C   0  0  0  0  0  0  0  0  0  0  0  0
   35.3260   29.3180   36.0370 C   0  0  0  0  0  0  0  0  0  0  0  0
   35.9360   29.4170   37.2890 C   0  0  0  0  0  0  0  0  0  0  0  0
   33.3600   28.6250   39.3200 H   0  0  0  0  0  0  0  0  0  0  0  0
   32.2510   28.4420   37.1250 H   0  0  0  0  0  0  0  0  0  0  0  0
   33.4730   28.8730   35.0800 H   0  0  0  0  0  0  0  0  0  0  0  0
   35.8950   29.5160   35.1530 H   0  0  0  0  0  0  0  0  0  0  0  0
   36.6980   28.4070   41.8460 C   0  0  0  0  0  0  0  0  0  0  0  0
   36.1150   28.1920   40.5820 C   0  0  0  0  0  0  0  0  0  0  0  0
   35.8560   29.2640   39.7620 C   0  0  0  0  0  0  0  0  0  0  0  0
   36.1880   30.4900   40.2400 N   0  0  0  0  0  0  0  0  0  0  0  0
   36.7460   30.6900   41.4520 C   0  0  0  0  0  0  0  0  0  0  0  0
   37.0030   29.6410   42.2610 N   0  0  0  0  0  0  0  0  0  0  0  0
   35.8590   27.2000   40.2240 H   0  0  0  0  0  0  0  0  0  0  0  0
   36.9720   31.7170   41.7360 H   0  0  0  0  0  0  0  0  0  0  0  0
   36.9780   27.2570   42.7310 C   0  0  0  0  0  0  0  0  0  0  0  0
   36.7890   26.0900   41.9710 F   0  0  0  0  0  0  0  0  0  0  0  0
   35.9450   27.2210   43.6780 F   0  0  0  0  0  0  0  0  0  0  0  0
   38.2170   27.2730   43.2900 F   0  0  0  0  0  0  0  0  0  0  0  0
   38.0390   30.9580   37.4010 C   0  0  0  0  0  0  0  0  0  0  0  0
   37.5870   32.0730   37.1740 O   0  0  0  0  0  0  0  0  0  0  0  0
   37.2960   29.7600   37.4470 N   0  0  0  0  0  0  0  0  0  0  0  0
   37.8010   28.8400   37.6420 H   0  0  0  0  0  0  0  0  0  0  0  0
   39.4240   30.8610   37.6380 O   0  0  0  0  0  0  0  0  0  0  0  0
   41.5560   29.2990   38.0030 O   0  0  0  0  0  0  0  0  0  0  0  0
   40.0660   29.2760   37.7600 P   0  0  0  0  0  0  0  0  0  0  0  0
   39.3460   28.5880   39.1500 O   0  0  0  0  0  0  0  0  0  0  0  0
   38.4210   28.9450   39.2240 H   0  0  0  0  0  0  0  0  0  0  0  0
   39.6860   28.3020   36.4550 O   0  0  0  0  0  0  0  0  0  0  0  0
   40.3450   28.4250   35.7110 H   0  0  0  0  0  0  0  0  0  0  0  0
  1 13  1  0  0  0  0
  2  1  1  0  0  0  0
  2  7  1  0  0  0  0
  3  2  2  0  0  0  0
  4  5  2  0  0  0  0
  4  3  1  0  0  0  0
  5  6  1  0  0  0  0
  6 25  1  0  0  0  0
  6  1  2  0  0  0  0
  8  3  1  0  0  0  0
  9  4  1  0  0  0  0
 10  5  1  0  0  0  0
 11 16  1  0  0  0  0
 11 19  1  0  0  0  0
 12 11  2  0  0  0  0
 13 14  2  0  0  0  0
 13 12  1  0  0  0  0
 14 15  1  0  0  0  0
 15 18  1  0  0  0  0
 15 16  2  0  0  0  0
 17 12  1  0  0  0  0
 19 22  1  0  0  0  0
 19 21  1  0  0  0  0
 20 19  1  0  0  0  0
 23 25  1  0  0  0  0
 23 27  1  0  0  0  0
 24 23  2  0  0  0  0
 25 26  1  0  0  0  0
 27 29  1  0  0  0  0
 29 28  2  0  0  0  0
 29 30  1  0  0  0  0
 30 31  1  0  0  0  0
 32 29  1  0  0  0  0
 33 32  1  0  0  0  0
M  END
>  <minimizedAffinity>
-5.42922974

$$$$

 OpenBabel03252502293D

 33 34  0  0  0  0  0  0  0  0999 V2000
   36.8990   26.8600   40.9570 C   0  0  0  0  0  0  0  0  0  0  0  0
   37.0930   26.2030   42.1730 C   0  0  0  0  0  0  0  0  0  0  0  0
   37.0170   24.8100   42.1910 C   0  0  0  0  0  0  0  0  0  0  0  0
   36.7560   24.1270   41.0420 C   0  0  0  0  0  0  0  0  0  0  0  0
   36.5610   24.7560   39.8290 C   0  0  0  0  0  0  0  0  0  0  0  0
   36.6410   26.1500   39.8290 C   0  0  0  0  0  0  0  0  0  0  0  0
   37.3000   26.7530   43.0830 H   0  0  0  0  0  0  0  0  0  0  0  0
   37.1640   24.2910   43.1200 H   0  0  0  0  0  0  0  0  0  0  0  0
   36.7040   23.0450   41.0950 H   0  0  0  0  0  0  0  0  0  0  0  0
   36.3550   24.2370   38.9170 H   0  0  0  0  0  0  0  0  0  0  0  0
   38.0910   30.4180   41.3510 C   0  0  0  0  0  0  0  0  0  0  0  0
   38.1240   29.0100   41.3460 C   0  0  0  0  0  0  0  0  0  0  0  0
   36.9950   28.3050   41.0020 C   0  0  0  0  0  0  0  0  0  0  0  0
   35.8960   29.0340   40.6830 N   0  0  0  0  0  0  0  0  0  0  0  0
   35.8690   30.3830   40.6900 C   0  0  0  0  0  0  0  0  0  0  0  0
   36.9750   31.0800   41.0260 N   0  0  0  0  0  0  0  0  0  0  0  0
   39.0170   28.4510   41.6050 H   0  0  0  0  0  0  0  0  0  0  0  0
   34.9330   30.8680   40.4170 H   0  0  0  0  0  0  0  0  0  0  0  0
   39.3020   31.1790   41.7190 C   0  0  0  0  0  0  0  0  0  0  0  0
   40.3820   30.6090   41.0230 F   0  0  0  0  0  0  0  0  0  0  0  0
   39.5660   30.8830   43.0640 F   0  0  0  0  0  0  0  0  0  0  0  0
   39.2190   32.5140   41.4720 F   0  0  0  0  0  0  0  0  0  0  0  0
   35.5080   26.9850   37.6320 C   0  0  0  0  0  0  0  0  0  0  0  0
   34.5080   26.2840   37.5430 O   0  0  0  0  0  0  0  0  0  0  0  0
   36.4730   26.9200   38.6590 N   0  0  0  0  0  0  0  0  0  0  0  0
   37.3140   27.5760   38.6260 H   0  0  0  0  0  0  0  0  0  0  0  0
   35.7150   27.9420   36.6190 O   0  0  0  0  0  0  0  0  0  0  0  0
   38.1450   28.9410   37.0850 O   0  0  0  0  0  0  0  0  0  0  0  0
   37.3320   28.1500   36.0890 P   0  0  0  0  0  0  0  0  0  0  0  0
   38.0080   26.5810   36.0290 O   0  0  0  0  0  0  0  0  0  0  0  0
   37.2890   25.9480   35.7610 H   0  0  0  0  0  0  0  0  0  0  0  0
   37.4490   28.8130   34.5590 O   0  0  0  0  0  0  0  0  0  0  0  0
   37.4170   29.8130   34.5960 H   0  0  0  0  0  0  0  0  0  0  0  0
  1 13  1  0  0  0  0
  1  2  1  0  0  0  0
  2  3  2  0  0  0  0
  2  7  1  0  0  0  0
  3  8  1  0  0  0  0
  4  9  1  0  0  0  0
  4  3  1  0  0  0  0
  5  6  1  0  0  0  0
  5  4  2  0  0  0  0
  6  1  2  0  0  0  0
 10  5  1  0  0  0  0
 11 19  1  0  0  0  0
 12 11  1  0  0  0  0
 12 17  1  0  0  0  0
 13 12  2  0  0  0  0
 14 15  2  0  0  0  0
 14 13  1  0  0  0  0
 15 16  1  0  0  0  0
 16 11  2  0  0  0  0
 18 15  1  0  0  0  0
 19 21  1  0  0  0  0
 20 19  1  0  0  0  0
 22 19  1  0  0  0  0
 23 25  1  0  0  0  0
 24 23  2  0  0  0  0
 25  6  1  0  0  0  0
 26 25  1  0  0  0  0
 27 23  1  0  0  0  0
 29 27  1  0  0  0  0
 29 28  2  0  0  0  0
 30 29  1  0  0  0  0
 31 30  1  0  0  0  0
 32 33  1  0  0  0  0
 32 29  1  0  0  0  0
M  END
>  <minimizedAffinity>
-5.4282546

$$$$
