
 OpenBabel03242514343D

 24 24  0  0  0  0  0  0  0  0999 V2000
   37.3590   31.4090   38.6730 O   0  0  0  0  0  0  0  0  0  0  0  0
   37.4160   32.0750   39.9940 P   0  0  1  0  0  0  0  0  0  0  0  0
   36.7780   33.6200   39.8280 O   0  0  0  0  0  0  0  0  0  0  0  0
   35.9170   33.6590   40.3020 H   0  0  0  0  0  0  0  0  0  0  0  0
   36.5070   31.1790   41.1590 O   0  0  0  0  0  0  0  0  0  0  0  0
   37.7620   29.5130   42.3290 C   0  0  0  0  0  0  0  0  0  0  0  0
   36.7910   29.8340   41.3950 C   0  0  0  0  0  0  0  0  0  0  0  0
   36.1370   28.7940   40.7300 C   0  0  0  0  0  0  0  0  0  0  0  0
   36.4960   27.5110   41.0420 N   0  0  0  0  0  0  0  0  0  0  0  0
   37.4370   27.2380   41.9490 C   0  0  0  0  0  0  0  0  0  0  0  0
   38.0610   28.2300   42.5840 N   0  0  0  0  0  0  0  0  0  0  0  0
   38.3240   30.2440   42.8960 H   0  0  0  0  0  0  0  0  0  0  0  0
   35.3790   29.0340   40.0020 H   0  0  0  0  0  0  0  0  0  0  0  0
   37.6440   26.1890   42.1200 H   0  0  0  0  0  0  0  0  0  0  0  0
   39.0000   32.1890   40.4910 O   0  0  0  0  0  0  0  0  0  0  0  0
   40.0460   32.6610   39.7730 C   0  0  0  0  0  0  0  0  0  0  0  0
   39.9320   33.9230   39.5440 O   0  0  0  0  0  0  0  0  0  0  0  0
   41.2540   32.6070   39.0860 O   0  0  0  0  0  0  0  0  0  0  0  0
   42.2140   31.2950   36.9380 O   0  0  0  0  0  0  0  0  0  0  0  0
   41.4650   32.4910   37.4210 P   0  0  0  0  0  0  0  0  0  0  0  0
   42.1430   33.8970   36.7510 O   0  0  0  0  0  0  0  0  0  0  0  0
   41.4220   34.5670   36.6760 H   0  0  0  0  0  0  0  0  0  0  0  0
   39.8890   32.3840   36.7570 O   0  0  0  0  0  0  0  0  0  0  0  0
   39.3820   33.1340   37.1560 H   0  0  0  0  0  0  0  0  0  0  0  0
  2  1  2  6  0  0  0
  2 15  1  0  0  0  0
  2  5  1  0  0  0  0
  3  2  1  0  0  0  0
  3  4  1  0  0  0  0
  5  7  1  0  0  0  0
  6 11  1  0  0  0  0
  6 12  1  0  0  0  0
  7  6  2  0  0  0  0
  8  9  2  0  0  0  0
  8  7  1  0  0  0  0
  9 10  1  0  0  0  0
 10 14  1  0  0  0  0
 10 11  2  0  0  0  0
 13  8  1  0  0  0  0
 16 15  1  0  0  0  0
 17 16  2  0  0  0  0
 18 16  1  0  0  0  0
 19 20  2  0  0  0  0
 20 18  1  0  0  0  0
 21 20  1  0  0  0  0
 22 21  1  0  0  0  0
 23 24  1  0  0  0  0
 23 20  1  0  0  0  0
M  END
>  <minimizedAffinity>
-5.27314329

$$$$

 OpenBabel03242514343D

 24 24  0  0  0  0  0  0  0  0999 V2000
   38.0550   31.6830   38.5850 O   0  0  0  0  0  0  0  0  0  0  0  0
   37.6910   32.5970   39.6920 P   0  0  1  0  0  0  0  0  0  0  0  0
   36.9070   33.9270   39.0320 O   0  0  0  0  0  0  0  0  0  0  0  0
   35.9580   33.8960   39.2920 H   0  0  0  0  0  0  0  0  0  0  0  0
   36.6560   31.7950   40.8190 O   0  0  0  0  0  0  0  0  0  0  0  0
   35.8290   29.5510   40.7570 C   0  0  0  0  0  0  0  0  0  0  0  0
   36.8330   30.4410   41.1030 C   0  0  0  0  0  0  0  0  0  0  0  0
   37.9810   29.9410   41.7220 C   0  0  0  0  0  0  0  0  0  0  0  0
   38.0470   28.5940   41.9520 N   0  0  0  0  0  0  0  0  0  0  0  0
   37.0600   27.7650   41.6050 C   0  0  0  0  0  0  0  0  0  0  0  0
   35.9650   28.2410   41.0140 N   0  0  0  0  0  0  0  0  0  0  0  0
   34.9040   29.8380   40.2740 H   0  0  0  0  0  0  0  0  0  0  0  0
   38.7680   30.6250   41.9950 H   0  0  0  0  0  0  0  0  0  0  0  0
   37.2140   26.7170   41.8330 H   0  0  0  0  0  0  0  0  0  0  0  0
   39.0720   33.1060   40.4680 O   0  0  0  0  0  0  0  0  0  0  0  0
   40.3300   33.1150   39.9680 C   0  0  0  0  0  0  0  0  0  0  0  0
   41.0710   32.2280   40.5330 O   0  0  0  0  0  0  0  0  0  0  0  0
   41.3790   33.5300   39.1560 O   0  0  0  0  0  0  0  0  0  0  0  0
   42.5800   31.7240   37.5580 O   0  0  0  0  0  0  0  0  0  0  0  0
   41.7510   32.9620   37.6160 P   0  0  0  0  0  0  0  0  0  0  0  0
   42.4440   34.1580   36.6300 O   0  0  0  0  0  0  0  0  0  0  0  0
   41.7110   34.7370   36.3070 H   0  0  0  0  0  0  0  0  0  0  0  0
   40.2490   32.5810   36.8840 O   0  0  0  0  0  0  0  0  0  0  0  0
   39.6820   33.3830   37.0100 H   0  0  0  0  0  0  0  0  0  0  0  0
  2  1  2  6  0  0  0
  2 15  1  0  0  0  0
  2  5  1  0  0  0  0
  3  4  1  0  0  0  0
  3  2  1  0  0  0  0
  5  7  1  0  0  0  0
  6 11  2  0  0  0  0
  6  7  1  0  0  0  0
  7  8  2  0  0  0  0
  8  9  1  0  0  0  0
  8 13  1  0  0  0  0
 10 14  1  0  0  0  0
 10  9  2  0  0  0  0
 11 10  1  0  0  0  0
 12  6  1  0  0  0  0
 16 15  1  0  0  0  0
 16 17  2  0  0  0  0
 18 16  1  0  0  0  0
 19 20  2  0  0  0  0
 20 18  1  0  0  0  0
 21 20  1  0  0  0  0
 22 21  1  0  0  0  0
 23 24  1  0  0  0  0
 23 20  1  0  0  0  0
M  END
>  <minimizedAffinity>
-5.02569294

$$$$

 OpenBabel03242514343D

 24 24  0  0  0  0  0  0  0  0999 V2000
   36.8360   29.1600   40.1460 O   0  0  0  0  0  0  0  0  0  0  0  0
   36.9850   30.1080   41.2730 P   0  0  1  0  0  0  0  0  0  0  0  0
   35.5900   31.0400   41.3570 O   0  0  0  0  0  0  0  0  0  0  0  0
   35.0910   30.7900   42.1680 H   0  0  0  0  0  0  0  0  0  0  0  0
   37.2150   29.2490   42.7550 O   0  0  0  0  0  0  0  0  0  0  0  0
   39.4290   28.3830   43.0110 C   0  0  0  0  0  0  0  0  0  0  0  0
   38.0780   28.1550   42.8110 C   0  0  0  0  0  0  0  0  0  0  0  0
   37.6390   26.8360   42.6740 C   0  0  0  0  0  0  0  0  0  0  0  0
   38.5740   25.8400   42.7470 N   0  0  0  0  0  0  0  0  0  0  0  0
   39.8690   26.0970   42.9420 C   0  0  0  0  0  0  0  0  0  0  0  0
   40.2900   27.3550   43.0720 N   0  0  0  0  0  0  0  0  0  0  0  0
   39.8690   29.3650   43.1290 H   0  0  0  0  0  0  0  0  0  0  0  0
   36.5890   26.6480   42.5180 H   0  0  0  0  0  0  0  0  0  0  0  0
   40.5260   25.2350   42.9830 H   0  0  0  0  0  0  0  0  0  0  0  0
   38.2900   31.1010   40.9960 O   0  0  0  0  0  0  0  0  0  0  0  0
   38.9510   31.2690   39.8260 C   0  0  0  0  0  0  0  0  0  0  0  0
   38.3230   32.0720   39.0390 O   0  0  0  0  0  0  0  0  0  0  0  0
   39.9670   31.0900   38.8950 O   0  0  0  0  0  0  0  0  0  0  0  0
   42.0700   31.9930   37.4740 O   0  0  0  0  0  0  0  0  0  0  0  0
   40.6810   32.2750   37.9370 P   0  0  0  0  0  0  0  0  0  0  0  0
   40.6190   33.8140   38.6510 O   0  0  0  0  0  0  0  0  0  0  0  0
   39.7060   34.1680   38.5160 H   0  0  0  0  0  0  0  0  0  0  0  0
   39.7080   32.3860   36.5300 O   0  0  0  0  0  0  0  0  0  0  0  0
   38.7790   32.4840   36.8570 H   0  0  0  0  0  0  0  0  0  0  0  0
  2  1  2  6  0  0  0
  2  3  1  0  0  0  0
  2  5  1  0  0  0  0
  3  4  1  0  0  0  0
  5  7  1  0  0  0  0
  6 11  1  0  0  0  0
  6 12  1  0  0  0  0
  7  6  2  0  0  0  0
  8  9  2  0  0  0  0
  8  7  1  0  0  0  0
  9 10  1  0  0  0  0
 10 14  1  0  0  0  0
 10 11  2  0  0  0  0
 13  8  1  0  0  0  0
 15  2  1  0  0  0  0
 16 15  1  0  0  0  0
 17 16  2  0  0  0  0
 18 16  1  0  0  0  0
 19 20  2  0  0  0  0
 20 21  1  0  0  0  0
 20 18  1  0  0  0  0
 22 21  1  0  0  0  0
 23 24  1  0  0  0  0
 23 20  1  0  0  0  0
M  END
>  <minimizedAffinity>
-4.78235292

$$$$

 OpenBabel03242514343D

 24 24  0  0  0  0  0  0  0  0999 V2000
   39.5370   31.7390   41.9720 O   0  0  0  0  0  0  0  0  0  0  0  0
   39.3780   32.5060   40.7150 P   0  0  1  0  0  0  0  0  0  0  0  0
   38.1570   33.6350   40.9450 O   0  0  0  0  0  0  0  0  0  0  0  0
   38.5570   34.5340   40.9620 H   0  0  0  0  0  0  0  0  0  0  0  0
   40.8560   33.3030   40.3070 O   0  0  0  0  0  0  0  0  0  0  0  0
   41.5550   33.3950   38.0220 C   0  0  0  0  0  0  0  0  0  0  0  0
   41.6610   32.8180   39.2760 C   0  0  0  0  0  0  0  0  0  0  0  0
   42.5700   31.7720   39.4530 C   0  0  0  0  0  0  0  0  0  0  0  0
   43.3090   31.3780   38.3710 N   0  0  0  0  0  0  0  0  0  0  0  0
   43.1810   31.9590   37.1760 C   0  0  0  0  0  0  0  0  0  0  0  0
   42.3140   32.9560   37.0060 N   0  0  0  0  0  0  0  0  0  0  0  0
   40.8820   34.2090   37.7830 H   0  0  0  0  0  0  0  0  0  0  0  0
   42.6590   31.3160   40.4260 H   0  0  0  0  0  0  0  0  0  0  0  0
   43.8130   31.5700   36.3870 H   0  0  0  0  0  0  0  0  0  0  0  0
   38.9440   31.4730   39.4860 O   0  0  0  0  0  0  0  0  0  0  0  0
   37.6910   31.0710   39.1650 C   0  0  0  0  0  0  0  0  0  0  0  0
   37.0470   31.9890   38.5330 O   0  0  0  0  0  0  0  0  0  0  0  0
   36.6040   30.2080   39.0970 O   0  0  0  0  0  0  0  0  0  0  0  0
   36.2310   28.4950   41.1420 O   0  0  0  0  0  0  0  0  0  0  0  0
   35.6740   29.6510   40.3840 P   0  0  0  0  0  0  0  0  0  0  0  0
   34.0710   29.3180   39.9330 O   0  0  0  0  0  0  0  0  0  0  0  0
   33.5920   30.1800   39.8790 H   0  0  0  0  0  0  0  0  0  0  0  0
   35.5740   30.9590   41.4880 O   0  0  0  0  0  0  0  0  0  0  0  0
   35.2870   31.7390   40.9490 H   0  0  0  0  0  0  0  0  0  0  0  0
  2  3  1  0  0  0  0
  2  1  2  1  0  0  0
  3  4  1  0  0  0  0
  5  2  1  0  0  0  0
  6  7  1  0  0  0  0
  7  8  2  0  0  0  0
  7  5  1  0  0  0  0
  8 13  1  0  0  0  0
  9  8  1  0  0  0  0
 10  9  2  0  0  0  0
 11 10  1  0  0  0  0
 11  6  2  0  0  0  0
 12  6  1  0  0  0  0
 14 10  1  0  0  0  0
 15  2  1  0  0  0  0
 16 15  1  0  0  0  0
 17 16  2  0  0  0  0
 18 16  1  0  0  0  0
 18 20  1  0  0  0  0
 20 19  2  0  0  0  0
 20 23  1  0  0  0  0
 21 20  1  0  0  0  0
 22 21  1  0  0  0  0
 24 23  1  0  0  0  0
M  END
>  <minimizedAffinity>
-4.46193933

$$$$

 OpenBabel03242514343D

 24 24  0  0  0  0  0  0  0  0999 V2000
   38.6050   30.4470   41.9840 O   0  0  0  0  0  0  0  0  0  0  0  0
   37.4990   29.4660   42.0520 P   0  0  1  0  0  0  0  0  0  0  0  0
   37.1560   29.1780   43.6710 O   0  0  0  0  0  0  0  0  0  0  0  0
   36.2770   29.5690   43.8820 H   0  0  0  0  0  0  0  0  0  0  0  0
   36.0990   30.0820   41.2480 O   0  0  0  0  0  0  0  0  0  0  0  0
   36.7550   30.3460   38.9630 C   0  0  0  0  0  0  0  0  0  0  0  0
   35.8830   29.8120   39.8970 C   0  0  0  0  0  0  0  0  0  0  0  0
   34.8220   29.0250   39.4420 C   0  0  0  0  0  0  0  0  0  0  0  0
   34.7070   28.8250   38.0940 N   0  0  0  0  0  0  0  0  0  0  0  0
   35.5670   29.3550   37.2220 C   0  0  0  0  0  0  0  0  0  0  0  0
   36.5800   30.1060   37.6550 N   0  0  0  0  0  0  0  0  0  0  0  0
   37.6060   30.9670   39.2130 H   0  0  0  0  0  0  0  0  0  0  0  0
   34.1370   28.6050   40.1610 H   0  0  0  0  0  0  0  0  0  0  0  0
   35.3850   29.1350   36.1770 H   0  0  0  0  0  0  0  0  0  0  0  0
   37.9730   28.0430   41.3330 O   0  0  0  0  0  0  0  0  0  0  0  0
   37.9880   26.8120   41.8970 C   0  0  0  0  0  0  0  0  0  0  0  0
   38.6740   26.7980   42.9860 O   0  0  0  0  0  0  0  0  0  0  0  0
   37.6890   25.4600   42.0230 O   0  0  0  0  0  0  0  0  0  0  0  0
   39.7690   24.4280   40.6580 O   0  0  0  0  0  0  0  0  0  0  0  0
   38.6980   24.1640   41.6610 P   0  0  0  0  0  0  0  0  0  0  0  0
   37.8360   22.7690   41.2210 O   0  0  0  0  0  0  0  0  0  0  0  0
   37.4980   22.3540   42.0510 H   0  0  0  0  0  0  0  0  0  0  0  0
   39.4900   23.7650   43.1290 O   0  0  0  0  0  0  0  0  0  0  0  0
   38.7700   23.6800   43.8030 H   0  0  0  0  0  0  0  0  0  0  0  0
  2  1  2  6  0  0  0
  2  3  1  0  0  0  0
  3  4  1  0  0  0  0
  5  2  1  0  0  0  0
  6 12  1  0  0  0  0
  6  7  1  0  0  0  0
  7  5  1  0  0  0  0
  8  7  2  0  0  0  0
  8 13  1  0  0  0  0
  9  8  1  0  0  0  0
 10 11  1  0  0  0  0
 10  9  2  0  0  0  0
 11  6  2  0  0  0  0
 14 10  1  0  0  0  0
 15 16  1  0  0  0  0
 15  2  1  0  0  0  0
 16 18  1  0  0  0  0
 16 17  2  0  0  0  0
 19 20  2  0  0  0  0
 20 18  1  0  0  0  0
 20 23  1  0  0  0  0
 21 20  1  0  0  0  0
 21 22  1  0  0  0  0
 23 24  1  0  0  0  0
M  END
>  <minimizedAffinity>
-4.33089638

$$$$

 OpenBabel03242514343D

 24 24  0  0  0  0  0  0  0  0999 V2000
   36.2020   29.8270   40.9440 O   0  0  0  0  0  0  0  0  0  0  0  0
   37.4240   29.5990   41.7480 P   0  0  1  0  0  0  0  0  0  0  0  0
   36.9600   29.3460   43.3420 O   0  0  0  0  0  0  0  0  0  0  0  0
   37.1250   28.4040   43.5740 H   0  0  0  0  0  0  0  0  0  0  0  0
   38.2850   28.2230   41.1550 O   0  0  0  0  0  0  0  0  0  0  0  0
   38.6460   26.2100   42.3930 C   0  0  0  0  0  0  0  0  0  0  0  0
   39.0850   27.4660   42.0100 C   0  0  0  0  0  0  0  0  0  0  0  0
   40.3130   27.9200   42.4990 C   0  0  0  0  0  0  0  0  0  0  0  0
   41.0140   27.0910   43.3320 N   0  0  0  0  0  0  0  0  0  0  0  0
   40.5600   25.8860   43.6800 C   0  0  0  0  0  0  0  0  0  0  0  0
   39.3890   25.4520   43.2140 N   0  0  0  0  0  0  0  0  0  0  0  0
   37.7120   25.7680   42.0690 H   0  0  0  0  0  0  0  0  0  0  0  0
   40.6630   28.8970   42.2060 H   0  0  0  0  0  0  0  0  0  0  0  0
   41.1940   25.3110   44.3440 H   0  0  0  0  0  0  0  0  0  0  0  0
   38.3990   30.9440   41.6690 O   0  0  0  0  0  0  0  0  0  0  0  0
   38.8830   31.5340   40.5500 C   0  0  0  0  0  0  0  0  0  0  0  0
   38.8670   32.8170   40.6470 O   0  0  0  0  0  0  0  0  0  0  0  0
   39.4260   31.5980   39.2720 O   0  0  0  0  0  0  0  0  0  0  0  0
   37.1770   31.2750   37.8240 O   0  0  0  0  0  0  0  0  0  0  0  0
   38.6660   31.1850   37.8290 P   0  0  0  0  0  0  0  0  0  0  0  0
   39.1460   29.6620   37.2520 O   0  0  0  0  0  0  0  0  0  0  0  0
   40.0310   29.7720   36.8270 H   0  0  0  0  0  0  0  0  0  0  0  0
   39.2290   32.3110   36.6660 O   0  0  0  0  0  0  0  0  0  0  0  0
   40.2160   32.3020   36.7440 H   0  0  0  0  0  0  0  0  0  0  0  0
  2  1  2  6  0  0  0
  2  3  1  0  0  0  0
  3  4  1  0  0  0  0
  5  2  1  0  0  0  0
  5  7  1  0  0  0  0
  6 11  1  0  0  0  0
  7  6  2  0  0  0  0
  7  8  1  0  0  0  0
  8  9  2  0  0  0  0
  9 10  1  0  0  0  0
 10 14  1  0  0  0  0
 11 10  2  0  0  0  0
 12  6  1  0  0  0  0
 13  8  1  0  0  0  0
 15  2  1  0  0  0  0
 16 17  2  0  0  0  0
 16 15  1  0  0  0  0
 18 16  1  0  0  0  0
 19 20  2  0  0  0  0
 20 18  1  0  0  0  0
 21 20  1  0  0  0  0
 22 21  1  0  0  0  0
 23 24  1  0  0  0  0
 23 20  1  0  0  0  0
M  END
>  <minimizedAffinity>
-4.32240248

$$$$

 OpenBabel03242514343D

 24 24  0  0  0  0  0  0  0  0999 V2000
   37.7050   28.3750   40.4270 O   0  0  0  0  0  0  0  0  0  0  0  0
   37.9960   28.6990   41.8420 P   0  0  1  0  0  0  0  0  0  0  0  0
   36.5850   29.2750   42.5460 O   0  0  0  0  0  0  0  0  0  0  0  0
   36.2590   28.6080   43.1920 H   0  0  0  0  0  0  0  0  0  0  0  0
   38.5470   27.2920   42.6800 O   0  0  0  0  0  0  0  0  0  0  0  0
   37.1390   25.4250   42.1800 C   0  0  0  0  0  0  0  0  0  0  0  0
   38.3850   26.0250   42.1180 C   0  0  0  0  0  0  0  0  0  0  0  0
   39.4260   25.3340   41.4950 C   0  0  0  0  0  0  0  0  0  0  0  0
   39.1530   24.0970   40.9780 N   0  0  0  0  0  0  0  0  0  0  0  0
   37.9380   23.5490   41.0560 C   0  0  0  0  0  0  0  0  0  0  0  0
   36.9440   24.2080   41.6510 N   0  0  0  0  0  0  0  0  0  0  0  0
   36.2690   25.8770   42.6410 H   0  0  0  0  0  0  0  0  0  0  0  0
   40.4010   25.7930   41.4420 H   0  0  0  0  0  0  0  0  0  0  0  0
   37.8300   22.5650   40.6150 H   0  0  0  0  0  0  0  0  0  0  0  0
   39.1640   29.8820   41.9120 O   0  0  0  0  0  0  0  0  0  0  0  0
   39.1750   31.0550   41.2360 C   0  0  0  0  0  0  0  0  0  0  0  0
   39.9400   31.9210   41.8030 O   0  0  0  0  0  0  0  0  0  0  0  0
   38.8400   31.9530   40.2290 O   0  0  0  0  0  0  0  0  0  0  0  0
   37.0050   31.4830   38.3140 O   0  0  0  0  0  0  0  0  0  0  0  0
   37.3120   32.2160   39.5760 P   0  0  0  0  0  0  0  0  0  0  0  0
   36.9630   33.8650   39.3750 O   0  0  0  0  0  0  0  0  0  0  0  0
   36.7150   34.2250   40.2610 H   0  0  0  0  0  0  0  0  0  0  0  0
   36.1990   31.6540   40.7520 O   0  0  0  0  0  0  0  0  0  0  0  0
   36.4720   32.0830   41.6010 H   0  0  0  0  0  0  0  0  0  0  0  0
  2  1  2  6  0  0  0
  2 15  1  0  0  0  0
  2  3  1  0  0  0  0
  2  5  1  0  0  0  0
  3  4  1  0  0  0  0
  6 12  1  0  0  0  0
  7  6  1  0  0  0  0
  7  5  1  0  0  0  0
  8  7  2  0  0  0  0
  9 10  2  0  0  0  0
  9  8  1  0  0  0  0
 10 11  1  0  0  0  0
 11  6  2  0  0  0  0
 13  8  1  0  0  0  0
 14 10  1  0  0  0  0
 16 17  2  0  0  0  0
 16 15  1  0  0  0  0
 18 16  1  0  0  0  0
 19 20  2  0  0  0  0
 20 18  1  0  0  0  0
 20 23  1  0  0  0  0
 21 20  1  0  0  0  0
 21 22  1  0  0  0  0
 23 24  1  0  0  0  0
M  END
>  <minimizedAffinity>
-4.31568718

$$$$

 OpenBabel03242514343D

 24 24  0  0  0  0  0  0  0  0999 V2000
   37.4630   28.9790   38.7410 O   0  0  0  0  0  0  0  0  0  0  0  0
   36.2060   29.6110   39.2010 P   0  0  1  0  0  0  0  0  0  0  0  0
   35.0340   29.3560   38.0250 O   0  0  0  0  0  0  0  0  0  0  0  0
   34.3660   28.7240   38.3760 H   0  0  0  0  0  0  0  0  0  0  0  0
   35.7000   28.9200   40.7020 O   0  0  0  0  0  0  0  0  0  0  0  0
   37.3090   29.3470   42.4190 C   0  0  0  0  0  0  0  0  0  0  0  0
   36.6420   28.4400   41.6130 C   0  0  0  0  0  0  0  0  0  0  0  0
   36.9420   27.0830   41.7490 C   0  0  0  0  0  0  0  0  0  0  0  0
   37.8830   26.7260   42.6750 N   0  0  0  0  0  0  0  0  0  0  0  0
   38.5060   27.6280   43.4360 C   0  0  0  0  0  0  0  0  0  0  0  0
   38.2210   28.9230   43.3080 N   0  0  0  0  0  0  0  0  0  0  0  0
   37.1490   30.4170   42.3910 H   0  0  0  0  0  0  0  0  0  0  0  0
   36.4270   26.3690   41.1250 H   0  0  0  0  0  0  0  0  0  0  0  0
   39.2340   27.2380   44.1380 H   0  0  0  0  0  0  0  0  0  0  0  0
   36.4420   31.2460   39.3920 O   0  0  0  0  0  0  0  0  0  0  0  0
   37.6030   31.9250   39.2300 C   0  0  0  0  0  0  0  0  0  0  0  0
   37.3960   33.1860   39.0720 O   0  0  0  0  0  0  0  0  0  0  0  0
   38.9780   32.0980   39.1260 O   0  0  0  0  0  0  0  0  0  0  0  0
   40.6340   30.7470   37.4860 O   0  0  0  0  0  0  0  0  0  0  0  0
   39.9020   32.0250   37.7220 P   0  0  0  0  0  0  0  0  0  0  0  0
   40.9780   33.3310   37.5810 O   0  0  0  0  0  0  0  0  0  0  0  0
   40.4570   34.1120   37.2720 H   0  0  0  0  0  0  0  0  0  0  0  0
   38.7960   32.2030   36.4250 O   0  0  0  0  0  0  0  0  0  0  0  0
   38.2600   33.0070   36.6430 H   0  0  0  0  0  0  0  0  0  0  0  0
  2  1  2  6  0  0  0
  2 15  1  0  0  0  0
  2  5  1  0  0  0  0
  3  4  1  0  0  0  0
  3  2  1  0  0  0  0
  5  7  1  0  0  0  0
  6 11  1  0  0  0  0
  7  8  1  0  0  0  0
  7  6  2  0  0  0  0
  8  9  2  0  0  0  0
  9 10  1  0  0  0  0
 10 14  1  0  0  0  0
 11 10  2  0  0  0  0
 12  6  1  0  0  0  0
 13  8  1  0  0  0  0
 16 15  1  0  0  0  0
 17 16  2  0  0  0  0
 18 16  1  0  0  0  0
 19 20  2  0  0  0  0
 20 18  1  0  0  0  0
 21 20  1  0  0  0  0
 22 21  1  0  0  0  0
 23 24  1  0  0  0  0
 23 20  1  0  0  0  0
M  END
>  <minimizedAffinity>
-4.29911518

$$$$

 OpenBabel03242514343D

 24 24  0  0  0  0  0  0  0  0999 V2000
   36.4010   28.6930   41.6140 O   0  0  0  0  0  0  0  0  0  0  0  0
   36.0050   29.6160   40.5270 P   0  0  1  0  0  0  0  0  0  0  0  0
   34.3680   29.3910   40.2220 O   0  0  0  0  0  0  0  0  0  0  0  0
   33.8780   30.1890   40.5250 H   0  0  0  0  0  0  0  0  0  0  0  0
   36.3030   31.2540   40.9920 O   0  0  0  0  0  0  0  0  0  0  0  0
   37.5380   33.0240   39.9630 C   0  0  0  0  0  0  0  0  0  0  0  0
   37.5280   31.8580   40.7100 C   0  0  0  0  0  0  0  0  0  0  0  0
   38.7480   31.3380   41.1480 C   0  0  0  0  0  0  0  0  0  0  0  0
   39.8880   32.0150   40.8120 N   0  0  0  0  0  0  0  0  0  0  0  0
   39.8600   33.1370   40.0900 C   0  0  0  0  0  0  0  0  0  0  0  0
   38.6970   33.6340   39.6720 N   0  0  0  0  0  0  0  0  0  0  0  0
   36.6480   33.5060   39.5780 H   0  0  0  0  0  0  0  0  0  0  0  0
   38.7500   30.4300   41.7300 H   0  0  0  0  0  0  0  0  0  0  0  0
   40.8200   33.5930   39.8800 H   0  0  0  0  0  0  0  0  0  0  0  0
   36.8710   29.2610   39.1520 O   0  0  0  0  0  0  0  0  0  0  0  0
   36.5350   29.5690   37.8770 C   0  0  0  0  0  0  0  0  0  0  0  0
   37.3710   30.3960   37.3530 O   0  0  0  0  0  0  0  0  0  0  0  0
   35.7840   29.5280   36.7080 O   0  0  0  0  0  0  0  0  0  0  0  0
   35.4110   28.5960   34.2080 O   0  0  0  0  0  0  0  0  0  0  0  0
   36.3560   29.2660   35.1480 P   0  0  0  0  0  0  0  0  0  0  0  0
   37.8480   28.4560   35.1290 O   0  0  0  0  0  0  0  0  0  0  0  0
   38.5490   29.1200   35.3400 H   0  0  0  0  0  0  0  0  0  0  0  0
   36.6720   30.8200   34.4990 O   0  0  0  0  0  0  0  0  0  0  0  0
   37.2280   31.2820   35.1760 H   0  0  0  0  0  0  0  0  0  0  0  0
  2  5  1  0  0  0  0
  2  1  2  1  0  0  0
  3  4  1  0  0  0  0
  3  2  1  0  0  0  0
  6  7  1  0  0  0  0
  7  5  1  0  0  0  0
  7  8  2  0  0  0  0
  8 13  1  0  0  0  0
  9  8  1  0  0  0  0
 10  9  2  0  0  0  0
 11  6  2  0  0  0  0
 11 10  1  0  0  0  0
 12  6  1  0  0  0  0
 14 10  1  0  0  0  0
 15  2  1  0  0  0  0
 16 15  1  0  0  0  0
 17 16  2  0  0  0  0
 18 16  1  0  0  0  0
 19 20  2  0  0  0  0
 20 18  1  0  0  0  0
 21 20  1  0  0  0  0
 21 22  1  0  0  0  0
 23 20  1  0  0  0  0
 23 24  1  0  0  0  0
M  END
>  <minimizedAffinity>
-4.27913189

$$$$
