REMARK  Name = 
REMARK  7 active torsions:
REMARK  status: ('A' for Active; 'I' for Inactive)
REMARK    1  A    between atoms: C_1  and  C_9
REMARK    2  A    between atoms: C_6  and  N_19
REMARK    3  A    between atoms: C_7  and  C_13
REMARK    4  A    between atoms: C_17  and  O_31
REMARK    5  A    between atoms: P_28  and  O_29
REMARK    6  A    between atoms: P_28  and  O_30
REMARK    7  A    between atoms: P_28  and  O_31
REMARK                            x       y       z     vdW  Elec       q    Type
REMARK                         _______ _______ _______ _____ _____    ______ ____
ROOT
ATOM      1  C   UNL     1      45.130  34.412  41.189  0.00  0.00    +0.000 A 
ATOM      2  C   UNL     1      45.550  35.021  42.372  0.00  0.00    +0.000 A 
ATOM      3  C   UNL     1      46.915  35.248  42.550  0.00  0.00    +0.000 A 
ATOM      4  C   UNL     1      47.799  34.875  41.583  0.00  0.00    +0.000 A 
ATOM      5  C   UNL     1      47.406  34.272  40.406  0.00  0.00    +0.000 A 
ATOM      6  C   UNL     1      46.036  34.053  40.245  0.00  0.00    +0.000 A 
ATOM      7  H   UNL     1      44.841  35.314  43.137  0.00  0.00    +0.000 HD
ATOM      8  H   UNL     1      47.253  35.716  43.456  0.00  0.00    +0.000 HD
ATOM      9  H   UNL     1      48.852  35.068  41.757  0.00  0.00    +0.000 HD
ATOM     10  H   UNL     1      48.085  33.973  39.636  0.00  0.00    +0.000 HD
ENDROOT
BRANCH   1  13
ATOM     11  C   UNL     1      41.431  34.843  40.582  0.00  0.00    +0.000 A 
ATOM     12  C   UNL     1      42.799  35.167  40.669  0.00  0.00    +0.000 A 
ATOM     13  C   UNL     1      43.701  34.207  41.062  0.00  0.00    +0.000 A 
ATOM     14  N   UNL     1      43.198  32.980  41.348  0.00  0.00    +0.000 NA
ATOM     15  C   UNL     1      41.886  32.675  41.264  0.00  0.00    +0.000 A 
ATOM     16  N   UNL     1      40.996  33.613  40.878  0.00  0.00    +0.000 NA
ATOM     17  H   UNL     1      43.175  36.157  40.434  0.00  0.00    +0.000 HD
ATOM     18  H   UNL     1      41.590  31.658  41.517  0.00  0.00    +0.000 HD
BRANCH  11  19
ATOM     19  C   UNL     1      40.458  35.872  40.160  0.00  0.00    +0.000 C 
ATOM     20  F   UNL     1      39.228  35.224  39.955  0.00  0.00    +0.000 F 
ATOM     21  F   UNL     1      40.846  36.286  38.878  0.00  0.00    +0.000 F 
ATOM     22  F   UNL     1      40.321  36.902  41.037  0.00  0.00    +0.000 F 
ENDBRANCH  11  19
ENDBRANCH   1  13
BRANCH   6  25
ATOM     23  C   UNL     1      45.444  32.146  38.565  0.00  0.00    +0.000 C 
ATOM     24  O   UNL     1      45.938  31.150  39.079  0.00  0.00    +0.000 OA
ATOM     25  N   UNL     1      45.494  33.455  39.087  0.00  0.00    +0.000 N 
ATOM     26  H   UNL     1      45.037  34.251  38.543  0.00  0.00    +0.000 HD
BRANCH  23  27
ATOM     27  O   UNL     1      44.766  31.970  37.343  0.00  0.00    +0.000 OA
BRANCH  27  29
ATOM     28  O   UNL     1      44.468  29.468  36.467  0.00  0.00    +0.000 OA
ATOM     29  P   UNL     1      45.328  30.701  36.337  0.00  0.00    +0.000 P 
BRANCH  29  30
ATOM     30  O   UNL     1      45.148  31.265  34.733  0.00  0.00    +0.000 OA
ATOM     31  H   UNL     1      45.315  32.247  34.733  0.00  0.00    +0.000 HD
ENDBRANCH  29  30
BRANCH  29  32
ATOM     32  O   UNL     1      46.941  30.333  36.569  0.00  0.00    +0.000 OA
ATOM     33  H   UNL     1      47.058  29.681  37.321  0.00  0.00    +0.000 HD
ENDBRANCH  29  32
ENDBRANCH  27  29
ENDBRANCH  23  27
ENDBRANCH   6  25
TORSDOF 7
