
 OpenBabel03242518383D

 37 39  0  0  1  0  0  0  0  0999 V2000
   47.3000   33.7280   39.8390 C   0  0  0  0  0  0  0  0  0  0  0  0
   48.2970   34.3610   39.0820 C   0  0  0  0  0  0  0  0  0  0  0  0
   48.0060   34.1980   37.7420 C   0  0  0  0  0  0  0  0  0  0  0  0
   46.8540   33.4780   37.7440 C   0  0  0  0  0  0  0  0  0  0  0  0
   46.4500   33.2080   38.9740 O   0  0  0  0  0  0  0  0  0  0  0  0
   49.1210   34.8680   39.5660 H   0  0  0  0  0  0  0  0  0  0  0  0
   48.6050   34.5830   36.9350 H   0  0  0  0  0  0  0  0  0  0  0  0
   46.1410   33.0520   36.5180 C   0  0  2  0  0  0  0  0  0  0  0  0
   45.7930   31.6500   36.3090 C   0  0  0  0  0  0  0  0  0  0  0  0
   46.9990   32.1420   35.5960 C   0  0  1  0  0  0  0  0  0  0  0  0
   45.5650   33.8400   36.0080 H   0  0  0  0  0  0  0  0  0  0  0  0
   44.8910   31.3490   35.7220 H   0  0  0  0  0  0  0  0  0  0  0  0
   45.9830   30.9420   37.1640 H   0  0  0  0  0  0  0  0  0  0  0  0
   48.0150   31.9310   35.9260 H   0  0  0  0  0  0  0  0  0  0  0  0
   47.9510   32.5440   33.3330 C   0  0  0  0  0  0  0  0  0  0  0  0
   49.1380   32.4090   33.7470 O   0  0  0  0  0  0  0  0  0  0  0  0
   46.8160   32.4500   34.1790 N   0  0  0  0  0  0  0  0  0  0  0  0
   47.8960   32.7390   32.2630 H   0  0  0  0  0  0  0  0  0  0  0  0
   45.8650   32.5990   33.7870 H   0  0  0  0  0  0  0  0  0  0  0  0
   47.1210   33.5970   41.2410 O   0  0  0  0  0  0  0  0  0  0  0  0
   47.2800   34.7390   42.0530 C   0  0  0  0  0  0  0  0  0  0  0  0
   48.2470   35.5010   41.7530 O   0  0  0  0  0  0  0  0  0  0  0  0
   46.3520   34.9150   43.1090 C   0  0  0  0  0  0  0  0  0  0  0  0
   45.4420   35.9090   42.9580 C   0  0  0  0  0  0  0  0  0  0  0  0
   44.5060   36.1280   43.9640 C   0  0  0  0  0  0  0  0  0  0  0  0
   44.5450   35.3360   45.0470 N   0  0  0  0  0  0  0  0  0  0  0  0
   45.4470   34.3630   45.1780 C   0  0  0  0  0  0  0  0  0  0  0  0
   46.3300   34.1820   44.1970 N   0  0  0  0  0  0  0  0  0  0  0  0
   45.4030   36.5510   42.0900 H   0  0  0  0  0  0  0  0  0  0  0  0
   43.7650   36.9330   43.8470 H   0  0  0  0  0  0  0  0  0  0  0  0
   45.3530   33.6460   46.3470 O   0  0  0  0  0  0  0  0  0  0  0  0
   47.3690   32.3130   47.3160 O   0  0  0  0  0  0  0  0  0  0  0  0
   46.1300   32.1380   46.4570 P   0  0  0  0  0  0  0  0  0  0  0  0
   45.1360   31.0220   47.2550 O   0  0  0  0  0  0  0  0  0  0  0  0
   44.2150   31.1070   46.9130 H   0  0  0  0  0  0  0  0  0  0  0  0
   46.6310   31.5330   44.9730 O   0  0  0  0  0  0  0  0  0  0  0  0
   45.9230   31.7070   44.3110 H   0  0  0  0  0  0  0  0  0  0  0  0
  1 20  1  0  0  0  0
  2  6  1  0  0  0  0
  2  1  2  0  0  0  0
  3  4  2  0  0  0  0
  3  2  1  0  0  0  0
  4  5  1  0  0  0  0
  5  1  1  0  0  0  0
  7  3  1  0  0  0  0
  8 11  1  6  0  0  0
  8  4  1  0  0  0  0
  9  8  1  0  0  0  0
  9 13  1  0  0  0  0
 10 14  1  1  0  0  0
 10  9  1  0  0  0  0
 10  8  1  0  0  0  0
 12  9  1  0  0  0  0
 15 16  2  0  0  0  0
 15 17  1  0  0  0  0
 17 10  1  0  0  0  0
 18 15  1  0  0  0  0
 19 17  1  0  0  0  0
 20 21  1  0  0  0  0
 21 23  1  0  0  0  0
 22 21  2  0  0  0  0
 23 28  1  0  0  0  0
 24 23  2  0  0  0  0
 24 25  1  0  0  0  0
 25 26  2  0  0  0  0
 26 27  1  0  0  0  0
 27 31  1  0  0  0  0
 28 27  2  0  0  0  0
 29 24  1  0  0  0  0
 30 25  1  0  0  0  0
 31 33  1  0  0  0  0
 33 34  1  0  0  0  0
 33 32  2  0  0  0  0
 35 34  1  0  0  0  0
 36 33  1  0  0  0  0
 37 36  1  0  0  0  0
M  END
>  <minimizedAffinity>
-5.59705925

>  <minimizedRMSD>
0.368558735

$$$$
