
 OpenBabel03242522513D

 24 24  0  0  0  0  0  0  0  0999 V2000
   45.5480   30.7910   47.5690 O   0  0  0  0  0  0  0  0  0  0  0  0
   45.8290   32.0730   48.3780 P   0  0  2  0  0  0  0  0  0  0  0  0
   45.2160   31.7920   49.9220 O   0  0  0  0  0  0  0  0  0  0  0  0
   45.7460   32.2740   50.6050 H   0  0  0  0  0  0  0  0  0  0  0  0
   44.9840   33.3480   47.6490 O   0  0  0  0  0  0  0  0  0  0  0  0
   46.6830   33.5070   44.4400 C   0  0  0  0  0  0  0  0  0  0  0  0
   46.3040   33.1000   45.7330 C   0  0  0  0  0  0  0  0  0  0  0  0
   45.3110   33.7910   46.3850 C   0  0  0  0  0  0  0  0  0  0  0  0
   44.7320   34.8410   45.7520 N   0  0  0  0  0  0  0  0  0  0  0  0
   45.0940   35.2250   44.5210 C   0  0  0  0  0  0  0  0  0  0  0  0
   46.0660   34.5670   43.8580 N   0  0  0  0  0  0  0  0  0  0  0  0
   47.4490   33.0300   43.8510 H   0  0  0  0  0  0  0  0  0  0  0  0
   46.8790   32.2520   46.0500 H   0  0  0  0  0  0  0  0  0  0  0  0
   44.5300   36.0840   44.1610 H   0  0  0  0  0  0  0  0  0  0  0  0
   47.4480   32.4030   48.4120 O   0  0  0  0  0  0  0  0  0  0  0  0
   48.5180   31.5840   48.5650 C   0  0  0  0  0  0  0  0  0  0  0  0
   49.4910   32.1120   49.2070 O   0  0  0  0  0  0  0  0  0  0  0  0
   49.2300   30.4050   48.4170 O   0  0  0  0  0  0  0  0  0  0  0  0
   51.5710   29.7090   49.3950 O   0  0  0  0  0  0  0  0  0  0  0  0
   50.0810   29.6340   49.6510 P   0  0  0  0  0  0  0  0  0  0  0  0
   49.6770   30.2610   51.1500 O   0  0  0  0  0  0  0  0  0  0  0  0
   49.5400   31.2390   51.1330 H   0  0  0  0  0  0  0  0  0  0  0  0
   49.6350   27.9820   49.5670 O   0  0  0  0  0  0  0  0  0  0  0  0
   50.3080   27.4910   49.0680 H   0  0  0  0  0  0  0  0  0  0  0  0
  2  1  2  6  0  0  0
  2 15  1  0  0  0  0
  2  3  1  0  0  0  0
  3  4  1  0  0  0  0
  5  2  1  0  0  0  0
  6  7  1  0  0  0  0
  7 13  1  0  0  0  0
  7  8  2  0  0  0  0
  8  5  1  0  0  0  0
  9  8  1  0  0  0  0
 10  9  2  0  0  0  0
 11  6  2  0  0  0  0
 11 10  1  0  0  0  0
 12  6  1  0  0  0  0
 14 10  1  0  0  0  0
 15 16  1  0  0  0  0
 16 17  2  0  0  0  0
 18 16  1  0  0  0  0
 18 20  1  0  0  0  0
 19 20  2  0  0  0  0
 20 21  1  0  0  0  0
 22 21  1  0  0  0  0
 23 20  1  0  0  0  0
 24 23  1  0  0  0  0
M  END
>  <minimizedAffinity>
-4.698946

>  <minimizedRMSD>
0.664215088

$$$$
