
 OpenBabel03242523553D

 43 45  0  0  1  0  0  0  0  0999 V2000
   42.8230   34.5070   38.7630 C   0  0  1  0  0  0  0  0  0  0  0  0
   42.9600   35.1870   40.1170 C   0  0  1  0  0  0  0  0  0  0  0  0
   41.6670   35.4060   40.6330 O   0  0  0  0  0  0  0  0  0  0  0  0
   40.7390   35.7300   39.6420 C   0  0  0  0  0  0  0  0  0  0  0  0
   40.4440   34.5610   38.7310 C   0  0  2  0  0  0  0  0  0  0  0  0
   41.6610   33.5760   38.8680 C   0  0  1  0  0  0  0  0  0  0  0  0
   43.7750   33.9680   38.5020 H   0  0  0  0  0  0  0  0  0  0  0  0
   43.5410   36.1120   40.0780 H   0  0  0  0  0  0  0  0  0  0  0  0
   41.0270   36.6420   39.0850 H   0  0  0  0  0  0  0  0  0  0  0  0
   39.8070   35.9580   40.1870 H   0  0  0  0  0  0  0  0  0  0  0  0
   39.5280   34.0010   39.0010 H   0  0  0  0  0  0  0  0  0  0  0  0
   41.4480   33.3110   39.9540 H   0  0  0  0  0  0  0  0  0  0  0  0
   42.6040   35.4530   37.7530 O   0  0  0  0  0  0  0  0  0  0  0  0
   42.7820   35.0360   36.8910 H   0  0  0  0  0  0  0  0  0  0  0  0
   40.4560   34.9730   37.4090 O   0  0  0  0  0  0  0  0  0  0  0  0
   39.7480   34.4910   36.8890 H   0  0  0  0  0  0  0  0  0  0  0  0
   43.4910   34.2080   40.9710 O   0  0  0  0  0  0  0  0  0  0  0  0
   44.5970   34.3500   41.7070 C   0  0  0  0  0  0  0  0  0  0  0  0
   45.8530   34.4530   41.1150 C   0  0  0  0  0  0  0  0  0  0  0  0
   46.9750   34.5990   41.9060 C   0  0  0  0  0  0  0  0  0  0  0  0
   46.8210   34.6400   43.2760 N   0  0  0  0  0  0  0  0  0  0  0  0
   45.5840   34.5370   43.8300 C   0  0  0  0  0  0  0  0  0  0  0  0
   44.4830   34.3930   43.0470 N   0  0  0  0  0  0  0  0  0  0  0  0
   45.9870   34.4220   40.0470 H   0  0  0  0  0  0  0  0  0  0  0  0
   45.4680   34.5700   44.9150 H   0  0  0  0  0  0  0  0  0  0  0  0
   48.3520   34.6950   41.3230 C   0  0  0  0  0  0  0  0  0  0  0  0
   49.0780   36.0250   41.5050 C   0  0  0  0  0  0  0  0  0  0  0  0
   49.5040   34.6980   42.1720 C   0  0  0  0  0  0  0  0  0  0  0  0
   48.3800   34.3900   40.2430 H   0  0  0  0  0  0  0  0  0  0  0  0
   48.5750   36.7640   42.1730 H   0  0  0  0  0  0  0  0  0  0  0  0
   49.7760   36.3860   40.7480 H   0  0  0  0  0  0  0  0  0  0  0  0
   50.4670   34.2720   41.8610 H   0  0  0  0  0  0  0  0  0  0  0  0
   49.3410   34.6250   43.2710 H   0  0  0  0  0  0  0  0  0  0  0  0
   41.5310   32.6360   37.9180 O   0  0  0  0  0  0  0  0  0  0  0  0
   40.8850   31.4470   37.9850 C   0  0  0  0  0  0  0  0  0  0  0  0
   39.6870   31.2950   37.4840 O   0  0  0  0  0  0  0  0  0  0  0  0
   40.9620   30.1200   38.4180 O   0  0  0  0  0  0  0  0  0  0  0  0
   41.5580   27.6270   37.8980 O   0  0  0  0  0  0  0  0  0  0  0  0
   42.1330   29.0360   37.7940 P   0  0  0  0  0  0  0  0  0  0  0  0
   43.6300   29.1880   38.5080 O   0  0  0  0  0  0  0  0  0  0  0  0
   44.1100   28.3130   38.6050 H   0  0  0  0  0  0  0  0  0  0  0  0
   42.2810   29.3130   36.1100 O   0  0  0  0  0  0  0  0  0  0  0  0
   41.4390   29.0840   35.6420 H   0  0  0  0  0  0  0  0  0  0  0  0
  1  7  1  6  0  0  0
  1  6  1  0  0  0  0
  1  2  1  0  0  0  0
  2  8  1  6  0  0  0
  2  3  1  0  0  0  0
  2 17  1  0  0  0  0
  4 10  1  0  0  0  0
  4  3  1  0  0  0  0
  5  6  1  0  0  0  0
  5 11  1  1  0  0  0
  5  4  1  0  0  0  0
  6 12  1  1  0  0  0
  9  4  1  0  0  0  0
 13  1  1  0  0  0  0
 14 13  1  0  0  0  0
 15  5  1  0  0  0  0
 16 15  1  0  0  0  0
 17 18  1  0  0  0  0
 18 23  1  0  0  0  0
 19 18  2  0  0  0  0
 19 20  1  0  0  0  0
 20 21  2  0  0  0  0
 21 22  1  0  0  0  0
 22 25  1  0  0  0  0
 23 22  2  0  0  0  0
 24 19  1  0  0  0  0
 26 27  1  0  0  0  0
 26 20  1  0  0  0  0
 26 28  1  0  0  0  0
 27 28  1  0  0  0  0
 27 30  1  0  0  0  0
 28 33  1  0  0  0  0
 29 26  1  0  0  0  0
 31 27  1  0  0  0  0
 32 28  1  0  0  0  0
 34 35  1  0  0  0  0
 34  6  1  0  0  0  0
 35 37  1  0  0  0  0
 36 35  2  0  0  0  0
 39 38  2  0  0  0  0
 39 37  1  0  0  0  0
 39 40  1  0  0  0  0
 40 41  1  0  0  0  0
 42 39  1  0  0  0  0
 43 42  1  0  0  0  0
M  END
>  <minimizedAffinity>
-5.36382389

>  <minimizedRMSD>
0.0620180741

$$$$
