
 OpenBabel03252502283D

 33 34  0  0  0  0  0  0  0  0999 V2000
   45.1280   34.4160   41.1870 C   0  0  0  0  0  0  0  0  0  0  0  0
   45.5660   34.9950   42.3780 C   0  0  0  0  0  0  0  0  0  0  0  0
   46.9340   35.2120   42.5430 C   0  0  0  0  0  0  0  0  0  0  0  0
   47.8040   34.8570   41.5570 C   0  0  0  0  0  0  0  0  0  0  0  0
   47.3930   34.2830   40.3710 C   0  0  0  0  0  0  0  0  0  0  0  0
   46.0200   34.0740   40.2230 C   0  0  0  0  0  0  0  0  0  0  0  0
   44.8680   35.2740   43.1580 H   0  0  0  0  0  0  0  0  0  0  0  0
   47.2860   35.6570   43.4550 H   0  0  0  0  0  0  0  0  0  0  0  0
   48.8600   35.0410   41.7210 H   0  0  0  0  0  0  0  0  0  0  0  0
   48.0600   33.9990   39.5860 H   0  0  0  0  0  0  0  0  0  0  0  0
   41.4240   34.8780   40.6370 C   0  0  0  0  0  0  0  0  0  0  0  0
   42.7940   35.1930   40.7140 C   0  0  0  0  0  0  0  0  0  0  0  0
   43.6960   34.2200   41.0730 C   0  0  0  0  0  0  0  0  0  0  0  0
   43.1910   32.9900   41.3380 N   0  0  0  0  0  0  0  0  0  0  0  0
   41.8760   32.6930   41.2640 C   0  0  0  0  0  0  0  0  0  0  0  0
   40.9860   33.6440   40.9110 N   0  0  0  0  0  0  0  0  0  0  0  0
   43.1720   36.1870   40.4970 H   0  0  0  0  0  0  0  0  0  0  0  0
   41.5790   31.6720   41.4970 H   0  0  0  0  0  0  0  0  0  0  0  0
   40.4500   35.9210   40.2520 C   0  0  0  0  0  0  0  0  0  0  0  0
   39.2150   35.2830   40.0470 F   0  0  0  0  0  0  0  0  0  0  0  0
   40.8250   36.3630   38.9750 F   0  0  0  0  0  0  0  0  0  0  0  0
   40.3290   36.9310   41.1540 F   0  0  0  0  0  0  0  0  0  0  0  0
   45.4020   32.2110   38.5040 C   0  0  0  0  0  0  0  0  0  0  0  0
   45.9050   31.2020   38.9850 O   0  0  0  0  0  0  0  0  0  0  0  0
   45.4600   33.5060   39.0580 N   0  0  0  0  0  0  0  0  0  0  0  0
   44.9940   34.3150   38.5420 H   0  0  0  0  0  0  0  0  0  0  0  0
   44.7050   32.0660   37.2890 O   0  0  0  0  0  0  0  0  0  0  0  0
   45.7630   30.4240   35.4710 O   0  0  0  0  0  0  0  0  0  0  0  0
   45.6630   31.8730   35.8810 P   0  0  0  0  0  0  0  0  0  0  0  0
   44.8230   32.6860   34.6320 O   0  0  0  0  0  0  0  0  0  0  0  0
   44.3690   33.4750   35.0330 H   0  0  0  0  0  0  0  0  0  0  0  0
   47.1790   32.5660   36.0090 O   0  0  0  0  0  0  0  0  0  0  0  0
   47.8290   31.9350   36.4380 H   0  0  0  0  0  0  0  0  0  0  0  0
  1  2  1  0  0  0  0
  2  3  2  0  0  0  0
  2  7  1  0  0  0  0
  3  8  1  0  0  0  0
  4  9  1  0  0  0  0
  4  3  1  0  0  0  0
  5  4  2  0  0  0  0
  6  5  1  0  0  0  0
  6  1  2  0  0  0  0
 10  5  1  0  0  0  0
 11 12  2  0  0  0  0
 11 16  1  0  0  0  0
 12 13  1  0  0  0  0
 13  1  1  0  0  0  0
 13 14  2  0  0  0  0
 15 14  1  0  0  0  0
 15 18  1  0  0  0  0
 16 15  2  0  0  0  0
 17 12  1  0  0  0  0
 19 11  1  0  0  0  0
 19 22  1  0  0  0  0
 20 19  1  0  0  0  0
 21 19  1  0  0  0  0
 23 24  2  0  0  0  0
 23 25  1  0  0  0  0
 25  6  1  0  0  0  0
 26 25  1  0  0  0  0
 27 23  1  0  0  0  0
 28 29  2  0  0  0  0
 29 32  1  0  0  0  0
 29 27  1  0  0  0  0
 30 31  1  0  0  0  0
 30 29  1  0  0  0  0
 32 33  1  0  0  0  0
M  END
>  <minimizedAffinity>
-6.11541367

>  <minimizedRMSD>
0.105399743

$$$$
