
 OpenBabel03242512283D

 20 20  0  0  0  0  0  0  0  0999 V2000
   37.8460   26.8710   41.5950 C   0  0  0  0  0  0  0  0  0  0  0  0
   37.0790   26.6660   42.7440 C   0  0  0  0  0  0  0  0  0  0  0  0
   36.8690   27.7060   43.6620 C   0  0  0  0  0  0  0  0  0  0  0  0
   37.4450   28.8870   43.3640 N   0  0  0  0  0  0  0  0  0  0  0  0
   38.1810   29.0760   42.2570 C   0  0  0  0  0  0  0  0  0  0  0  0
   38.3740   28.0700   41.3850 N   0  0  0  0  0  0  0  0  0  0  0  0
   38.0300   25.7940   40.7000 N   0  0  0  0  0  0  0  0  0  0  0  0
   36.6090   25.7270   43.0000 H   0  0  0  0  0  0  0  0  0  0  0  0
   36.2800   27.5820   44.5620 H   0  0  0  0  0  0  0  0  0  0  0  0
   38.4630   24.9680   41.1330 H   0  0  0  0  0  0  0  0  0  0  0  0
   37.7570   25.8180   39.6940 H   0  0  0  0  0  0  0  0  0  0  0  0
   38.8030   30.3620   41.9390 C   0  0  0  0  0  0  0  0  0  0  0  0
   39.5630   30.9610   42.7300 O   0  0  0  0  0  0  0  0  0  0  0  0
   38.5160   30.9210   40.6970 O   0  0  0  0  0  0  0  0  0  0  0  0
   36.5180   31.0380   38.9110 O   0  0  0  0  0  0  0  0  0  0  0  0
   36.9330   31.4420   40.2840 P   0  0  0  0  0  0  0  0  0  0  0  0
   36.9900   33.1470   40.3300 O   0  0  0  0  0  0  0  0  0  0  0  0
   37.6870   33.4560   40.9670 H   0  0  0  0  0  0  0  0  0  0  0  0
   35.7970   30.9630   41.4350 O   0  0  0  0  0  0  0  0  0  0  0  0
   34.9960   30.5760   41.0050 H   0  0  0  0  0  0  0  0  0  0  0  0
  1  2  1  0  0  0  0
  2  8  1  0  0  0  0
  2  3  2  0  0  0  0
  3  9  1  0  0  0  0
  4  3  1  0  0  0  0
  5  4  2  0  0  0  0
  6  1  2  0  0  0  0
  6  5  1  0  0  0  0
  7 10  1  0  0  0  0
  7  1  1  0  0  0  0
 11  7  1  0  0  0  0
 12  5  1  0  0  0  0
 12 13  2  0  0  0  0
 14 12  1  0  0  0  0
 15 16  2  0  0  0  0
 16 17  1  0  0  0  0
 16 14  1  0  0  0  0
 16 19  1  0  0  0  0
 17 18  1  0  0  0  0
 20 19  1  0  0  0  0
M  END
>  <minimizedAffinity>
-4.77774525

$$$$

 OpenBabel03242512283D

 20 20  0  0  0  0  0  0  0  0999 V2000
   38.4620   24.7680   42.3560 C   0  0  0  0  0  0  0  0  0  0  0  0
   39.6570   24.7620   43.0780 C   0  0  0  0  0  0  0  0  0  0  0  0
   40.1390   25.9340   43.6790 C   0  0  0  0  0  0  0  0  0  0  0  0
   39.3850   27.0390   43.5150 N   0  0  0  0  0  0  0  0  0  0  0  0
   38.2370   27.0370   42.8200 C   0  0  0  0  0  0  0  0  0  0  0  0
   37.7870   25.9050   42.2480 N   0  0  0  0  0  0  0  0  0  0  0  0
   38.0170   23.5630   41.7680 N   0  0  0  0  0  0  0  0  0  0  0  0
   40.2760   23.8860   43.2210 H   0  0  0  0  0  0  0  0  0  0  0  0
   41.0620   25.9640   44.2460 H   0  0  0  0  0  0  0  0  0  0  0  0
   38.6920   23.1510   41.1100 H   0  0  0  0  0  0  0  0  0  0  0  0
   37.0950   23.1200   41.9720 H   0  0  0  0  0  0  0  0  0  0  0  0
   37.4230   28.2400   42.6470 C   0  0  0  0  0  0  0  0  0  0  0  0
   37.7110   29.3350   43.1770 O   0  0  0  0  0  0  0  0  0  0  0  0
   36.2840   28.1330   41.8550 O   0  0  0  0  0  0  0  0  0  0  0  0
   36.8490   29.4660   39.5960 O   0  0  0  0  0  0  0  0  0  0  0  0
   35.8640   29.3410   40.7080 P   0  0  0  0  0  0  0  0  0  0  0  0
   35.8680   30.8100   41.5750 O   0  0  0  0  0  0  0  0  0  0  0  0
   35.6610   30.6510   42.5340 H   0  0  0  0  0  0  0  0  0  0  0  0
   34.2980   29.1260   40.1200 O   0  0  0  0  0  0  0  0  0  0  0  0
   34.2720   29.2140   39.1360 H   0  0  0  0  0  0  0  0  0  0  0  0
  1  2  1  0  0  0  0
  2  8  1  0  0  0  0
  2  3  2  0  0  0  0
  3  9  1  0  0  0  0
  4  3  1  0  0  0  0
  5  4  2  0  0  0  0
  6  1  2  0  0  0  0
  6  5  1  0  0  0  0
  7 11  1  0  0  0  0
  7  1  1  0  0  0  0
 10  7  1  0  0  0  0
 12  5  1  0  0  0  0
 12 13  2  0  0  0  0
 14 12  1  0  0  0  0
 15 16  2  0  0  0  0
 16 17  1  0  0  0  0
 16 14  1  0  0  0  0
 17 18  1  0  0  0  0
 19 16  1  0  0  0  0
 20 19  1  0  0  0  0
M  END
>  <minimizedAffinity>
-4.74158525

$$$$

 OpenBabel03242512283D

 20 20  0  0  0  0  0  0  0  0999 V2000
   40.1720   32.4420   38.2070 C   0  0  0  0  0  0  0  0  0  0  0  0
   41.0340   33.4310   38.6860 C   0  0  0  0  0  0  0  0  0  0  0  0
   41.2780   33.5670   40.0600 C   0  0  0  0  0  0  0  0  0  0  0  0
   40.6390   32.6970   40.8660 N   0  0  0  0  0  0  0  0  0  0  0  0
   39.8120   31.7490   40.3990 C   0  0  0  0  0  0  0  0  0  0  0  0
   39.5870   31.6290   39.0780 N   0  0  0  0  0  0  0  0  0  0  0  0
   39.9570   32.3430   36.8150 N   0  0  0  0  0  0  0  0  0  0  0  0
   41.5560   34.1380   38.0550 H   0  0  0  0  0  0  0  0  0  0  0  0
   41.9410   34.3220   40.4640 H   0  0  0  0  0  0  0  0  0  0  0  0
   39.5890   33.2060   36.3930 H   0  0  0  0  0  0  0  0  0  0  0  0
   40.1480   31.4850   36.2540 H   0  0  0  0  0  0  0  0  0  0  0  0
   39.1220   30.8070   41.2800 C   0  0  0  0  0  0  0  0  0  0  0  0
   39.3690   30.7170   42.5030 O   0  0  0  0  0  0  0  0  0  0  0  0
   38.1550   29.9860   40.7070 O   0  0  0  0  0  0  0  0  0  0  0  0
   35.9200   28.5120   40.8860 O   0  0  0  0  0  0  0  0  0  0  0  0
   36.6770   29.6350   41.5090 P   0  0  0  0  0  0  0  0  0  0  0  0
   35.7320   31.0480   41.3570 O   0  0  0  0  0  0  0  0  0  0  0  0
   36.3130   31.8490   41.2750 H   0  0  0  0  0  0  0  0  0  0  0  0
   36.9080   29.3790   43.1600 O   0  0  0  0  0  0  0  0  0  0  0  0
   36.4230   28.5750   43.4670 H   0  0  0  0  0  0  0  0  0  0  0  0
  1  2  2  0  0  0  0
  1  6  1  0  0  0  0
  2  3  1  0  0  0  0
  3  9  1  0  0  0  0
  3  4  2  0  0  0  0
  5  4  1  0  0  0  0
  5 12  1  0  0  0  0
  6  5  2  0  0  0  0
  7  1  1  0  0  0  0
  8  2  1  0  0  0  0
 10  7  1  0  0  0  0
 11  7  1  0  0  0  0
 12 13  2  0  0  0  0
 14 12  1  0  0  0  0
 14 16  1  0  0  0  0
 15 16  2  0  0  0  0
 16 19  1  0  0  0  0
 17 16  1  0  0  0  0
 18 17  1  0  0  0  0
 19 20  1  0  0  0  0
M  END
>  <minimizedAffinity>
-4.73799801

$$$$

 OpenBabel03242512283D

 20 20  0  0  0  0  0  0  0  0999 V2000
   41.6340   33.2130   38.1390 C   0  0  0  0  0  0  0  0  0  0  0  0
   41.9300   34.1610   39.1210 C   0  0  0  0  0  0  0  0  0  0  0  0
   41.4230   34.0290   40.4220 C   0  0  0  0  0  0  0  0  0  0  0  0
   40.6500   32.9490   40.6520 N   0  0  0  0  0  0  0  0  0  0  0  0
   40.3700   32.0420   39.7030 C   0  0  0  0  0  0  0  0  0  0  0  0
   40.8630   32.1810   38.4580 N   0  0  0  0  0  0  0  0  0  0  0  0
   42.1670   33.3880   36.8430 N   0  0  0  0  0  0  0  0  0  0  0  0
   42.5490   35.0320   38.9560 H   0  0  0  0  0  0  0  0  0  0  0  0
   41.6340   34.7440   41.2070 H   0  0  0  0  0  0  0  0  0  0  0  0
   41.8990   34.2800   36.4040 H   0  0  0  0  0  0  0  0  0  0  0  0
   42.7750   32.6910   36.3630 H   0  0  0  0  0  0  0  0  0  0  0  0
   39.5300   30.8720   39.9600 C   0  0  0  0  0  0  0  0  0  0  0  0
   39.7360   29.7600   39.4280 O   0  0  0  0  0  0  0  0  0  0  0  0
   38.4620   31.0320   40.8370 O   0  0  0  0  0  0  0  0  0  0  0  0
   36.5960   31.0120   38.9100 O   0  0  0  0  0  0  0  0  0  0  0  0
   36.9020   31.4940   40.2870 P   0  0  0  0  0  0  0  0  0  0  0  0
   36.9200   33.2000   40.2490 O   0  0  0  0  0  0  0  0  0  0  0  0
   37.5620   33.5570   40.9180 H   0  0  0  0  0  0  0  0  0  0  0  0
   35.6960   31.0440   41.3770 O   0  0  0  0  0  0  0  0  0  0  0  0
   34.9370   30.6170   40.9120 H   0  0  0  0  0  0  0  0  0  0  0  0
  1  6  2  0  0  0  0
  1  2  1  0  0  0  0
  2  3  2  0  0  0  0
  3  4  1  0  0  0  0
  3  9  1  0  0  0  0
  5 12  1  0  0  0  0
  5  4  2  0  0  0  0
  6  5  1  0  0  0  0
  7  1  1  0  0  0  0
  8  2  1  0  0  0  0
 10  7  1  0  0  0  0
 11  7  1  0  0  0  0
 12 14  1  0  0  0  0
 13 12  2  0  0  0  0
 15 16  2  0  0  0  0
 16 14  1  0  0  0  0
 16 19  1  0  0  0  0
 17 16  1  0  0  0  0
 17 18  1  0  0  0  0
 20 19  1  0  0  0  0
M  END
>  <minimizedAffinity>
-4.55174828

$$$$

 OpenBabel03242512283D

 20 20  0  0  0  0  0  0  0  0999 V2000
   38.1100   24.1110   41.4360 C   0  0  0  0  0  0  0  0  0  0  0  0
   38.9020   24.5350   42.5050 C   0  0  0  0  0  0  0  0  0  0  0  0
   38.9610   25.8910   42.8610 C   0  0  0  0  0  0  0  0  0  0  0  0
   38.2170   26.7340   42.1180 N   0  0  0  0  0  0  0  0  0  0  0  0
   37.4580   26.3170   41.0910 C   0  0  0  0  0  0  0  0  0  0  0  0
   37.4110   25.0140   40.7610 N   0  0  0  0  0  0  0  0  0  0  0  0
   38.0820   22.7350   41.1160 N   0  0  0  0  0  0  0  0  0  0  0  0
   39.5050   23.8750   43.1140 H   0  0  0  0  0  0  0  0  0  0  0  0
   39.5640   26.2540   43.6840 H   0  0  0  0  0  0  0  0  0  0  0  0
   39.0090   22.3450   40.8970 H   0  0  0  0  0  0  0  0  0  0  0  0
   37.2150   22.1580   41.0970 H   0  0  0  0  0  0  0  0  0  0  0  0
   36.6520   27.2380   40.2890 C   0  0  0  0  0  0  0  0  0  0  0  0
   36.5720   27.1590   39.0440 O   0  0  0  0  0  0  0  0  0  0  0  0
   35.9570   28.2350   40.9660 O   0  0  0  0  0  0  0  0  0  0  0  0
   37.9310   30.0190   40.6170 O   0  0  0  0  0  0  0  0  0  0  0  0
   36.7060   29.7160   41.4110 P   0  0  0  0  0  0  0  0  0  0  0  0
   37.1770   29.5140   43.0380 O   0  0  0  0  0  0  0  0  0  0  0  0
   36.5820   28.8640   43.4960 H   0  0  0  0  0  0  0  0  0  0  0  0
   35.6170   31.0030   41.3740 O   0  0  0  0  0  0  0  0  0  0  0  0
   36.0060   31.7850   40.9130 H   0  0  0  0  0  0  0  0  0  0  0  0
  1  2  1  0  0  0  0
  2  3  2  0  0  0  0
  2  8  1  0  0  0  0
  3  9  1  0  0  0  0
  4  3  1  0  0  0  0
  5  4  2  0  0  0  0
  6  5  1  0  0  0  0
  6  1  2  0  0  0  0
  7  1  1  0  0  0  0
 10  7  1  0  0  0  0
 11  7  1  0  0  0  0
 12 14  1  0  0  0  0
 12  5  1  0  0  0  0
 13 12  2  0  0  0  0
 14 16  1  0  0  0  0
 15 16  2  0  0  0  0
 16 17  1  0  0  0  0
 17 18  1  0  0  0  0
 19 16  1  0  0  0  0
 20 19  1  0  0  0  0
M  END
>  <minimizedAffinity>
-4.44454098

$$$$

 OpenBabel03242512283D

 20 20  0  0  0  0  0  0  0  0999 V2000
   36.8580   27.7200   42.4670 C   0  0  0  0  0  0  0  0  0  0  0  0
   37.6440   26.7600   41.8270 C   0  0  0  0  0  0  0  0  0  0  0  0
   38.3430   27.0710   40.6520 C   0  0  0  0  0  0  0  0  0  0  0  0
   38.2070   28.3320   40.1950 N   0  0  0  0  0  0  0  0  0  0  0  0
   37.4490   29.2500   40.8160 C   0  0  0  0  0  0  0  0  0  0  0  0
   36.7840   28.9370   41.9430 N   0  0  0  0  0  0  0  0  0  0  0  0
   36.1720   27.3600   43.6480 N   0  0  0  0  0  0  0  0  0  0  0  0
   37.7660   25.7440   42.1780 H   0  0  0  0  0  0  0  0  0  0  0  0
   38.9610   26.3510   40.1300 H   0  0  0  0  0  0  0  0  0  0  0  0
   35.5280   26.5670   43.5250 H   0  0  0  0  0  0  0  0  0  0  0  0
   36.2960   27.8410   44.5650 H   0  0  0  0  0  0  0  0  0  0  0  0
   37.3060   30.6170   40.3160 C   0  0  0  0  0  0  0  0  0  0  0  0
   36.5970   30.9070   39.3280 O   0  0  0  0  0  0  0  0  0  0  0  0
   38.0020   31.6190   40.9850 O   0  0  0  0  0  0  0  0  0  0  0  0
   39.3560   33.1410   39.2390 O   0  0  0  0  0  0  0  0  0  0  0  0
   38.2820   33.1560   40.2720 P   0  0  0  0  0  0  0  0  0  0  0  0
   38.8020   34.1610   41.5490 O   0  0  0  0  0  0  0  0  0  0  0  0
   38.4300   33.8470   42.4150 H   0  0  0  0  0  0  0  0  0  0  0  0
   36.8600   33.8330   39.6690 O   0  0  0  0  0  0  0  0  0  0  0  0
   36.9960   34.1960   38.7600 H   0  0  0  0  0  0  0  0  0  0  0  0
  1  7  1  0  0  0  0
  2  8  1  0  0  0  0
  2  1  2  0  0  0  0
  3  2  1  0  0  0  0
  4  3  2  0  0  0  0
  4  5  1  0  0  0  0
  5  6  2  0  0  0  0
  6  1  1  0  0  0  0
  7 11  1  0  0  0  0
  9  3  1  0  0  0  0
 10  7  1  0  0  0  0
 12  5  1  0  0  0  0
 12 14  1  0  0  0  0
 13 12  2  0  0  0  0
 15 16  2  0  0  0  0
 16 14  1  0  0  0  0
 16 17  1  0  0  0  0
 17 18  1  0  0  0  0
 19 16  1  0  0  0  0
 20 19  1  0  0  0  0
M  END
>  <minimizedAffinity>
-4.39778423

$$$$

 OpenBabel03242512283D

 20 20  0  0  0  0  0  0  0  0999 V2000
   39.2920   28.1820   42.8730 C   0  0  0  0  0  0  0  0  0  0  0  0
   38.4020   27.2220   43.3580 C   0  0  0  0  0  0  0  0  0  0  0  0
   37.0280   27.3170   43.0920 C   0  0  0  0  0  0  0  0  0  0  0  0
   36.6380   28.3740   42.3530 N   0  0  0  0  0  0  0  0  0  0  0  0
   37.5000   29.2930   41.8900 C   0  0  0  0  0  0  0  0  0  0  0  0
   38.8150   29.1900   42.1530 N   0  0  0  0  0  0  0  0  0  0  0  0
   40.6670   28.0440   43.1670 N   0  0  0  0  0  0  0  0  0  0  0  0
   38.6960   26.3670   43.9520 H   0  0  0  0  0  0  0  0  0  0  0  0
   36.3110   26.5900   43.4520 H   0  0  0  0  0  0  0  0  0  0  0  0
   40.8720   28.0150   44.1750 H   0  0  0  0  0  0  0  0  0  0  0  0
   41.4150   27.9770   42.4430 H   0  0  0  0  0  0  0  0  0  0  0  0
   37.0690   30.4380   41.0870 C   0  0  0  0  0  0  0  0  0  0  0  0
   35.9420   30.9660   41.2090 O   0  0  0  0  0  0  0  0  0  0  0  0
   37.9710   30.9400   40.1540 O   0  0  0  0  0  0  0  0  0  0  0  0
   39.0400   33.1390   41.2590 O   0  0  0  0  0  0  0  0  0  0  0  0
   38.3300   32.6170   40.0570 P   0  0  0  0  0  0  0  0  0  0  0  0
   36.8170   33.4010   39.9650 O   0  0  0  0  0  0  0  0  0  0  0  0
   36.1390   32.8030   39.5520 H   0  0  0  0  0  0  0  0  0  0  0  0
   39.1620   32.9970   38.6400 O   0  0  0  0  0  0  0  0  0  0  0  0
   39.9340   33.5840   38.8270 H   0  0  0  0  0  0  0  0  0  0  0  0
  1  7  1  0  0  0  0
  1  2  1  0  0  0  0
  2  8  1  0  0  0  0
  3  2  2  0  0  0  0
  3  9  1  0  0  0  0
  4  3  1  0  0  0  0
  5  6  1  0  0  0  0
  5  4  2  0  0  0  0
  6  1  2  0  0  0  0
  7 10  1  0  0  0  0
 11  7  1  0  0  0  0
 12 13  2  0  0  0  0
 12  5  1  0  0  0  0
 14 12  1  0  0  0  0
 16 14  1  0  0  0  0
 16 15  2  0  0  0  0
 17 16  1  0  0  0  0
 18 17  1  0  0  0  0
 19 20  1  0  0  0  0
 19 16  1  0  0  0  0
M  END
>  <minimizedAffinity>
-4.38908815

$$$$

 OpenBabel03242512283D

 20 20  0  0  0  0  0  0  0  0999 V2000
   39.5750   32.1950   38.3540 C   0  0  0  0  0  0  0  0  0  0  0  0
   40.4430   32.9250   39.1700 C   0  0  0  0  0  0  0  0  0  0  0  0
   40.3130   32.8920   40.5660 C   0  0  0  0  0  0  0  0  0  0  0  0
   39.3180   32.1240   41.0530 N   0  0  0  0  0  0  0  0  0  0  0  0
   38.4880   31.4260   40.2620 C   0  0  0  0  0  0  0  0  0  0  0  0
   38.6240   31.4660   38.9230 N   0  0  0  0  0  0  0  0  0  0  0  0
   39.7450   32.2590   36.9530 N   0  0  0  0  0  0  0  0  0  0  0  0
   41.2470   33.5450   38.7980 H   0  0  0  0  0  0  0  0  0  0  0  0
   40.9680   33.4450   41.2270 H   0  0  0  0  0  0  0  0  0  0  0  0
   39.6840   33.2140   36.5740 H   0  0  0  0  0  0  0  0  0  0  0  0
   39.9160   31.4290   36.3470 H   0  0  0  0  0  0  0  0  0  0  0  0
   37.4100   30.5940   40.7970 C   0  0  0  0  0  0  0  0  0  0  0  0
   36.2990   31.0580   41.1340 O   0  0  0  0  0  0  0  0  0  0  0  0
   37.6590   29.2310   40.9280 O   0  0  0  0  0  0  0  0  0  0  0  0
   37.7560   27.0540   42.4930 O   0  0  0  0  0  0  0  0  0  0  0  0
   38.0220   28.5210   42.4490 P   0  0  0  0  0  0  0  0  0  0  0  0
   36.9720   29.2740   43.5630 O   0  0  0  0  0  0  0  0  0  0  0  0
   36.7330   30.1870   43.2550 H   0  0  0  0  0  0  0  0  0  0  0  0
   39.5940   28.8750   42.9450 O   0  0  0  0  0  0  0  0  0  0  0  0
   40.0540   28.0650   43.2750 H   0  0  0  0  0  0  0  0  0  0  0  0
  1  6  2  0  0  0  0
  1  2  1  0  0  0  0
  2  3  2  0  0  0  0
  3  4  1  0  0  0  0
  3  9  1  0  0  0  0
  5 12  1  0  0  0  0
  5  4  2  0  0  0  0
  6  5  1  0  0  0  0
  7  1  1  0  0  0  0
  8  2  1  0  0  0  0
 10  7  1  0  0  0  0
 11  7  1  0  0  0  0
 12 14  1  0  0  0  0
 12 13  2  0  0  0  0
 14 16  1  0  0  0  0
 16 15  2  0  0  0  0
 16 19  1  0  0  0  0
 16 17  1  0  0  0  0
 18 17  1  0  0  0  0
 19 20  1  0  0  0  0
M  END
>  <minimizedAffinity>
-4.24868917

$$$$

 OpenBabel03242512283D

 20 20  0  0  0  0  0  0  0  0999 V2000
   37.6040   28.6650   42.5940 C   0  0  0  0  0  0  0  0  0  0  0  0
   38.9130   28.6070   43.0760 C   0  0  0  0  0  0  0  0  0  0  0  0
   39.9870   29.0510   42.2910 C   0  0  0  0  0  0  0  0  0  0  0  0
   39.6750   29.5270   41.0700 N   0  0  0  0  0  0  0  0  0  0  0  0
   38.4130   29.5800   40.6130 C   0  0  0  0  0  0  0  0  0  0  0  0
   37.3920   29.1500   41.3770 N   0  0  0  0  0  0  0  0  0  0  0  0
   36.5540   28.2060   43.4210 N   0  0  0  0  0  0  0  0  0  0  0  0
   39.1840   28.2300   44.0520 H   0  0  0  0  0  0  0  0  0  0  0  0
   41.0140   29.0210   42.6340 H   0  0  0  0  0  0  0  0  0  0  0  0
   36.6590   27.2250   43.7120 H   0  0  0  0  0  0  0  0  0  0  0  0
   35.7450   28.7930   43.7160 H   0  0  0  0  0  0  0  0  0  0  0  0
   38.0800   30.0980   39.2860 C   0  0  0  0  0  0  0  0  0  0  0  0
   37.5480   29.3980   38.3980 O   0  0  0  0  0  0  0  0  0  0  0  0
   38.3820   31.4320   39.0270 O   0  0  0  0  0  0  0  0  0  0  0  0
   38.6650   33.1680   41.0540 O   0  0  0  0  0  0  0  0  0  0  0  0
   37.7370   32.7060   39.9820 P   0  0  0  0  0  0  0  0  0  0  0  0
   36.3540   32.0520   40.7370 O   0  0  0  0  0  0  0  0  0  0  0  0
   35.9650   31.3240   40.1840 H   0  0  0  0  0  0  0  0  0  0  0  0
   37.2090   33.9950   39.0310 O   0  0  0  0  0  0  0  0  0  0  0  0
   37.5230   34.8580   39.3940 H   0  0  0  0  0  0  0  0  0  0  0  0
  1  2  1  0  0  0  0
  1  7  1  0  0  0  0
  2  8  1  0  0  0  0
  3  9  1  0  0  0  0
  3  2  2  0  0  0  0
  4  3  1  0  0  0  0
  5  4  2  0  0  0  0
  5  6  1  0  0  0  0
  6  1  2  0  0  0  0
  7 10  1  0  0  0  0
  7 11  1  0  0  0  0
 12  5  1  0  0  0  0
 13 12  2  0  0  0  0
 14 12  1  0  0  0  0
 14 16  1  0  0  0  0
 16 17  1  0  0  0  0
 16 15  2  0  0  0  0
 18 17  1  0  0  0  0
 19 20  1  0  0  0  0
 19 16  1  0  0  0  0
M  END
>  <minimizedAffinity>
-4.14205122

$$$$
