
 OpenBabel03242522513D

 24 24  0  0  0  0  0  0  0  0999 V2000
   45.6610   30.5150   47.9100 O   0  0  0  0  0  0  0  0  0  0  0  0
   45.9170   31.8720   48.5960 P   0  0  2  0  0  0  0  0  0  0  0  0
   45.1920   31.7690   50.1140 O   0  0  0  0  0  0  0  0  0  0  0  0
   45.6850   32.3130   50.7780 H   0  0  0  0  0  0  0  0  0  0  0  0
   45.1560   33.0740   47.6780 O   0  0  0  0  0  0  0  0  0  0  0  0
   47.0660   32.8480   44.5930 C   0  0  0  0  0  0  0  0  0  0  0  0
   46.5860   32.5880   45.8900 C   0  0  0  0  0  0  0  0  0  0  0  0
   45.5840   33.3760   46.4020 C   0  0  0  0  0  0  0  0  0  0  0  0
   45.0950   34.3800   45.6310 N   0  0  0  0  0  0  0  0  0  0  0  0
   45.5530   34.6240   44.3970 C   0  0  0  0  0  0  0  0  0  0  0  0
   46.5350   33.8680   43.8690 N   0  0  0  0  0  0  0  0  0  0  0  0
   47.8470   32.2870   44.1070 H   0  0  0  0  0  0  0  0  0  0  0  0
   47.1010   31.7540   46.3270 H   0  0  0  0  0  0  0  0  0  0  0  0
   45.0520   35.4640   43.9180 H   0  0  0  0  0  0  0  0  0  0  0  0
   47.5370   32.1750   48.7100 O   0  0  0  0  0  0  0  0  0  0  0  0
   48.5990   31.3320   48.7460 C   0  0  0  0  0  0  0  0  0  0  0  0
   49.6780   31.8690   49.1760 O   0  0  0  0  0  0  0  0  0  0  0  0
   49.2480   30.1210   48.5720 O   0  0  0  0  0  0  0  0  0  0  0  0
   49.8530   29.9140   51.1240 O   0  0  0  0  0  0  0  0  0  0  0  0
   50.1480   29.3310   49.7590 P   0  0  0  0  0  0  0  0  0  0  0  0
   49.8820   27.6780   49.7200 O   0  0  0  0  0  0  0  0  0  0  0  0
   48.9420   27.4450   49.5240 H   0  0  0  0  0  0  0  0  0  0  0  0
   51.7900   29.6690   49.4070 O   0  0  0  0  0  0  0  0  0  0  0  0
   52.0900   30.4120   49.9550 H   0  0  0  0  0  0  0  0  0  0  0  0
  2  1  2  6  0  0  0
  2 15  1  0  0  0  0
  2  3  1  0  0  0  0
  3  4  1  0  0  0  0
  5  2  1  0  0  0  0
  6  7  1  0  0  0  0
  7 13  1  0  0  0  0
  7  8  2  0  0  0  0
  8  5  1  0  0  0  0
  9  8  1  0  0  0  0
 10  9  2  0  0  0  0
 11 10  1  0  0  0  0
 11  6  2  0  0  0  0
 12  6  1  0  0  0  0
 14 10  1  0  0  0  0
 15 16  1  0  0  0  0
 16 17  2  0  0  0  0
 18 16  1  0  0  0  0
 18 20  1  0  0  0  0
 20 19  2  0  0  0  0
 21 20  1  0  0  0  0
 22 21  1  0  0  0  0
 23 20  1  0  0  0  0
 23 24  1  0  0  0  0
M  END
>  <minimizedAffinity>
-4.44164515

>  <minimizedRMSD>
0.840688586

$$$$
