
 OpenBabel03242522513D

 24 24  0  0  0  0  0  0  0  0999 V2000
   45.5420   30.6610   47.6470 O   0  0  0  0  0  0  0  0  0  0  0  0
   45.8950   31.9740   48.3750 P   0  0  2  0  0  0  0  0  0  0  0  0
   45.2700   31.8210   49.9330 O   0  0  0  0  0  0  0  0  0  0  0  0
   45.8270   32.3150   50.5860 H   0  0  0  0  0  0  0  0  0  0  0  0
   45.1190   33.2450   47.5680 O   0  0  0  0  0  0  0  0  0  0  0  0
   46.9660   33.2510   44.4370 C   0  0  0  0  0  0  0  0  0  0  0  0
   46.5310   32.9100   45.7310 C   0  0  0  0  0  0  0  0  0  0  0  0
   45.5020   33.6230   46.2990 C   0  0  0  0  0  0  0  0  0  0  0  0
   44.9440   34.6310   45.5820 N   0  0  0  0  0  0  0  0  0  0  0  0
   45.3590   34.9520   44.3510 C   0  0  0  0  0  0  0  0  0  0  0  0
   46.3670   34.2710   43.7700 N   0  0  0  0  0  0  0  0  0  0  0  0
   47.7630   32.7520   43.9120 H   0  0  0  0  0  0  0  0  0  0  0  0
   47.0980   32.0870   46.1200 H   0  0  0  0  0  0  0  0  0  0  0  0
   44.8050   35.7830   43.9190 H   0  0  0  0  0  0  0  0  0  0  0  0
   47.5290   32.2160   48.3910 O   0  0  0  0  0  0  0  0  0  0  0  0
   48.5530   31.3520   48.6020 C   0  0  0  0  0  0  0  0  0  0  0  0
   49.0160   31.3720   49.7950 O   0  0  0  0  0  0  0  0  0  0  0  0
   49.4670   30.3750   48.2430 O   0  0  0  0  0  0  0  0  0  0  0  0
   49.7690   27.9290   49.1630 O   0  0  0  0  0  0  0  0  0  0  0  0
   49.1090   28.7380   48.0680 P   0  0  0  0  0  0  0  0  0  0  0  0
   47.4540   28.4820   48.0200 O   0  0  0  0  0  0  0  0  0  0  0  0
   46.9560   29.0700   48.6400 H   0  0  0  0  0  0  0  0  0  0  0  0
   49.8180   28.2570   46.5840 O   0  0  0  0  0  0  0  0  0  0  0  0
   50.6790   27.8450   46.7570 H   0  0  0  0  0  0  0  0  0  0  0  0
  2  1  2  6  0  0  0
  2 15  1  0  0  0  0
  2  3  1  0  0  0  0
  3  4  1  0  0  0  0
  5  2  1  0  0  0  0
  6  7  1  0  0  0  0
  7 13  1  0  0  0  0
  7  8  2  0  0  0  0
  8  5  1  0  0  0  0
  9  8  1  0  0  0  0
 10  9  2  0  0  0  0
 11 10  1  0  0  0  0
 11  6  2  0  0  0  0
 12  6  1  0  0  0  0
 14 10  1  0  0  0  0
 15 16  1  0  0  0  0
 16 17  2  0  0  0  0
 18 16  1  0  0  0  0
 20 18  1  0  0  0  0
 20 19  2  0  0  0  0
 21 20  1  0  0  0  0
 21 22  1  0  0  0  0
 23 24  1  0  0  0  0
 23 20  1  0  0  0  0
M  END
>  <minimizedAffinity>
-4.34046078

>  <minimizedRMSD>
1.15386963

$$$$
