
 OpenBabel03252502283D

 33 34  0  0  0  0  0  0  0  0999 V2000
   44.8130   34.3590   41.4030 C   0  0  0  0  0  0  0  0  0  0  0  0
   45.1530   34.7990   42.6830 C   0  0  0  0  0  0  0  0  0  0  0  0
   46.5010   35.0220   42.9680 C   0  0  0  0  0  0  0  0  0  0  0  0
   47.4440   34.8080   42.0090 C   0  0  0  0  0  0  0  0  0  0  0  0
   47.1300   34.3740   40.7380 C   0  0  0  0  0  0  0  0  0  0  0  0
   45.7760   34.1560   40.4700 C   0  0  0  0  0  0  0  0  0  0  0  0
   44.3970   34.9660   43.4410 H   0  0  0  0  0  0  0  0  0  0  0  0
   46.7780   35.3600   43.9490 H   0  0  0  0  0  0  0  0  0  0  0  0
   48.4810   34.9920   42.2680 H   0  0  0  0  0  0  0  0  0  0  0  0
   47.8560   34.2010   39.9720 H   0  0  0  0  0  0  0  0  0  0  0  0
   41.1640   34.7850   40.5420 C   0  0  0  0  0  0  0  0  0  0  0  0
   42.5190   35.1140   40.7360 C   0  0  0  0  0  0  0  0  0  0  0  0
   43.3980   34.1490   41.1680 C   0  0  0  0  0  0  0  0  0  0  0  0
   42.8850   32.9120   41.3850 N   0  0  0  0  0  0  0  0  0  0  0  0
   41.5850   32.6020   41.1980 C   0  0  0  0  0  0  0  0  0  0  0  0
   40.7180   33.5450   40.7730 N   0  0  0  0  0  0  0  0  0  0  0  0
   42.9040   36.1120   40.5550 H   0  0  0  0  0  0  0  0  0  0  0  0
   41.2790   31.5770   41.4030 H   0  0  0  0  0  0  0  0  0  0  0  0
   40.2160   35.8190   40.0770 C   0  0  0  0  0  0  0  0  0  0  0  0
   39.0090   35.1690   39.7670 F   0  0  0  0  0  0  0  0  0  0  0  0
   40.6920   36.2690   38.8380 F   0  0  0  0  0  0  0  0  0  0  0  0
   40.0080   36.8240   40.9690 F   0  0  0  0  0  0  0  0  0  0  0  0
   45.7590   32.8000   38.2410 C   0  0  0  0  0  0  0  0  0  0  0  0
   46.7770   32.1220   38.3120 O   0  0  0  0  0  0  0  0  0  0  0  0
   45.3120   33.7210   39.2100 N   0  0  0  0  0  0  0  0  0  0  0  0
   44.4130   34.2680   39.0340 H   0  0  0  0  0  0  0  0  0  0  0  0
   44.9650   32.6480   37.0880 O   0  0  0  0  0  0  0  0  0  0  0  0
   45.8270   30.7770   35.3930 O   0  0  0  0  0  0  0  0  0  0  0  0
   45.7930   32.2650   35.6370 P   0  0  0  0  0  0  0  0  0  0  0  0
   44.8670   32.9550   34.3760 O   0  0  0  0  0  0  0  0  0  0  0  0
   44.4650   33.7990   34.7170 H   0  0  0  0  0  0  0  0  0  0  0  0
   47.3290   32.9200   35.5560 O   0  0  0  0  0  0  0  0  0  0  0  0
   47.9990   32.3240   36.0020 H   0  0  0  0  0  0  0  0  0  0  0  0
  1  2  1  0  0  0  0
  2  3  2  0  0  0  0
  2  7  1  0  0  0  0
  3  8  1  0  0  0  0
  4  9  1  0  0  0  0
  4  3  1  0  0  0  0
  5  4  2  0  0  0  0
  6  5  1  0  0  0  0
  6  1  2  0  0  0  0
 10  5  1  0  0  0  0
 11 12  2  0  0  0  0
 11 16  1  0  0  0  0
 12 13  1  0  0  0  0
 13 14  2  0  0  0  0
 13  1  1  0  0  0  0
 15 14  1  0  0  0  0
 15 18  1  0  0  0  0
 16 15  2  0  0  0  0
 17 12  1  0  0  0  0
 19 11  1  0  0  0  0
 19 22  1  0  0  0  0
 20 19  1  0  0  0  0
 21 19  1  0  0  0  0
 23 24  2  0  0  0  0
 23 25  1  0  0  0  0
 25  6  1  0  0  0  0
 26 25  1  0  0  0  0
 27 23  1  0  0  0  0
 28 29  2  0  0  0  0
 29 27  1  0  0  0  0
 30 31  1  0  0  0  0
 30 29  1  0  0  0  0
 32 29  1  0  0  0  0
 32 33  1  0  0  0  0
M  END
>  <minimizedAffinity>
-6.6034584

>  <minimizedRMSD>
1.51642168

$$$$
