
 OpenBabel03242522513D

 24 24  0  0  0  0  0  0  0  0999 V2000
   45.5490   30.5660   47.7720 O   0  0  0  0  0  0  0  0  0  0  0  0
   45.9080   31.8880   48.4800 P   0  0  2  0  0  0  0  0  0  0  0  0
   45.2530   31.7770   50.0290 O   0  0  0  0  0  0  0  0  0  0  0  0
   45.8050   32.2760   50.6820 H   0  0  0  0  0  0  0  0  0  0  0  0
   45.1670   33.1530   47.6330 O   0  0  0  0  0  0  0  0  0  0  0  0
   47.0600   33.0560   44.5310 C   0  0  0  0  0  0  0  0  0  0  0  0
   46.6030   32.7570   45.8280 C   0  0  0  0  0  0  0  0  0  0  0  0
   45.5700   33.4910   46.3580 C   0  0  0  0  0  0  0  0  0  0  0  0
   45.0290   34.4810   45.6050 N   0  0  0  0  0  0  0  0  0  0  0  0
   45.4650   34.7630   44.3710 C   0  0  0  0  0  0  0  0  0  0  0  0
   46.4770   34.0600   43.8260 N   0  0  0  0  0  0  0  0  0  0  0  0
   47.8620   32.5380   44.0320 H   0  0  0  0  0  0  0  0  0  0  0  0
   47.1590   31.9420   46.2500 H   0  0  0  0  0  0  0  0  0  0  0  0
   44.9220   35.5850   43.9060 H   0  0  0  0  0  0  0  0  0  0  0  0
   47.5450   32.1050   48.5210 O   0  0  0  0  0  0  0  0  0  0  0  0
   48.5210   31.3930   49.1380 C   0  0  0  0  0  0  0  0  0  0  0  0
   49.6560   31.9830   49.1710 O   0  0  0  0  0  0  0  0  0  0  0  0
   49.0460   30.3030   49.8110 O   0  0  0  0  0  0  0  0  0  0  0  0
   51.6750   30.1830   49.8710 O   0  0  0  0  0  0  0  0  0  0  0  0
   50.4480   30.3330   50.7460 P   0  0  0  0  0  0  0  0  0  0  0  0
   50.5220   31.7190   51.6830 O   0  0  0  0  0  0  0  0  0  0  0  0
   50.1800   32.5180   51.2140 H   0  0  0  0  0  0  0  0  0  0  0  0
   50.3710   28.9490   51.7540 O   0  0  0  0  0  0  0  0  0  0  0  0
   50.8920   28.2320   51.3550 H   0  0  0  0  0  0  0  0  0  0  0  0
  2  1  2  6  0  0  0
  2 15  1  0  0  0  0
  2  3  1  0  0  0  0
  3  4  1  0  0  0  0
  5  2  1  0  0  0  0
  6  7  1  0  0  0  0
  7 13  1  0  0  0  0
  7  8  2  0  0  0  0
  8  5  1  0  0  0  0
  9  8  1  0  0  0  0
 10  9  2  0  0  0  0
 11 10  1  0  0  0  0
 11  6  2  0  0  0  0
 12  6  1  0  0  0  0
 14 10  1  0  0  0  0
 15 16  1  0  0  0  0
 16 17  2  0  0  0  0
 16 18  1  0  0  0  0
 18 20  1  0  0  0  0
 19 20  2  0  0  0  0
 20 21  1  0  0  0  0
 20 23  1  0  0  0  0
 22 21  1  0  0  0  0
 24 23  1  0  0  0  0
M  END
>  <minimizedAffinity>
-4.85230923

>  <minimizedRMSD>
1.2077533

$$$$
