
 OpenBabel03252507533D

 36 38  0  0  1  0  0  0  0  0999 V2000
   38.0920   25.8450   42.5210 C   0  0  2  0  0  0  0  0  0  0  0  0
   36.9480   26.8010   42.7570 C   0  0  0  0  0  0  0  0  0  0  0  0
   37.7180   27.8950   43.5130 C   0  0  0  0  0  0  0  0  0  0  0  0
   39.0880   27.9150   42.8770 C   0  0  1  0  0  0  0  0  0  0  0  0
   39.0740   26.8050   41.8670 C   0  0  0  0  0  0  0  0  0  0  0  0
   38.4820   25.4940   43.4720 H   0  0  0  0  0  0  0  0  0  0  0  0
   36.6250   27.1570   41.7660 H   0  0  0  0  0  0  0  0  0  0  0  0
   36.1500   26.3930   43.3770 H   0  0  0  0  0  0  0  0  0  0  0  0
   37.7140   27.6250   44.5780 H   0  0  0  0  0  0  0  0  0  0  0  0
   37.2380   28.8700   43.3110 H   0  0  0  0  0  0  0  0  0  0  0  0
   39.8420   27.6530   43.6330 H   0  0  0  0  0  0  0  0  0  0  0  0
   38.4590   27.0270   40.9550 H   0  0  0  0  0  0  0  0  0  0  0  0
   40.0480   26.3800   41.6420 H   0  0  0  0  0  0  0  0  0  0  0  0
   36.2250   23.5380   40.1860 C   0  0  0  0  0  0  0  0  0  0  0  0
   36.4580   24.6310   41.0300 C   0  0  0  0  0  0  0  0  0  0  0  0
   37.7330   24.7380   41.5940 C   0  0  0  0  0  0  0  0  0  0  0  0
   38.7010   23.7830   41.3090 N   0  0  0  0  0  0  0  0  0  0  0  0
   38.4090   22.7480   40.4840 C   0  0  0  0  0  0  0  0  0  0  0  0
   37.1830   22.6310   39.9300 N   0  0  0  0  0  0  0  0  0  0  0  0
   35.2420   23.4470   39.7440 H   0  0  0  0  0  0  0  0  0  0  0  0
   35.7130   25.3840   41.2610 H   0  0  0  0  0  0  0  0  0  0  0  0
   39.2070   22.0340   40.3000 H   0  0  0  0  0  0  0  0  0  0  0  0
   39.3790   29.1760   42.1180 C   0  0  2  0  0  0  0  0  0  0  0  0
   39.4500   30.4210   42.8560 C   0  0  0  0  0  0  0  0  0  0  0  0
   38.3800   30.1680   41.8110 C   0  0  1  0  0  0  0  0  0  0  0  0
   40.1590   29.0080   41.3490 H   0  0  0  0  0  0  0  0  0  0  0  0
   40.2620   31.1560   42.5570 H   0  0  0  0  0  0  0  0  0  0  0  0
   38.9480   30.8130   43.7260 H   0  0  0  0  0  0  0  0  0  0  0  0
   37.3450   29.9370   42.0650 H   0  0  0  0  0  0  0  0  0  0  0  0
   38.4780   30.9570   40.6560 O   0  0  0  0  0  0  0  0  0  0  0  0
   36.5430   30.9780   38.8910 O   0  0  0  0  0  0  0  0  0  0  0  0
   36.9320   31.5060   40.2430 P   0  0  0  0  0  0  0  0  0  0  0  0
   35.7740   30.9880   41.3770 O   0  0  0  0  0  0  0  0  0  0  0  0
   35.2590   30.2130   41.0740 H   0  0  0  0  0  0  0  0  0  0  0  0
   36.8630   33.1840   40.1970 O   0  0  0  0  0  0  0  0  0  0  0  0
   35.9000   33.4380   40.2090 H   0  0  0  0  0  0  0  0  0  0  0  0
  1  2  1  0  0  0  0
  1  6  1  1  0  0  0
  2  8  1  0  0  0  0
  2  3  1  0  0  0  0
  3  9  1  0  0  0  0
  4  3  1  0  0  0  0
  4 11  1  1  0  0  0
  5  1  1  0  0  0  0
  5  4  1  0  0  0  0
  7  2  1  0  0  0  0
 10  3  1  0  0  0  0
 12  5  1  0  0  0  0
 13  5  1  0  0  0  0
 14 15  1  0  0  0  0
 15 21  1  0  0  0  0
 15 16  2  0  0  0  0
 16  1  1  0  0  0  0
 17 16  1  0  0  0  0
 18 17  2  0  0  0  0
 19 14  2  0  0  0  0
 19 18  1  0  0  0  0
 20 14  1  0  0  0  0
 22 18  1  0  0  0  0
 23 26  1  6  0  0  0
 23 24  1  0  0  0  0
 23  4  1  0  0  0  0
 24 28  1  0  0  0  0
 25 29  1  1  0  0  0
 25 23  1  0  0  0  0
 25 24  1  0  0  0  0
 27 24  1  0  0  0  0
 30 25  1  0  0  0  0
 31 32  2  0  0  0  0
 32 30  1  0  0  0  0
 32 33  1  0  0  0  0
 34 33  1  0  0  0  0
 35 36  1  0  0  0  0
 35 32  1  0  0  0  0
M  END
>  <minimizedAffinity>
-5.83764935

$$$$

 OpenBabel03252507533D

 36 38  0  0  1  0  0  0  0  0999 V2000
   36.6750   28.2630   41.9260 C   0  0  2  0  0  0  0  0  0  0  0  0
   36.2220   27.9110   40.5290 C   0  0  0  0  0  0  0  0  0  0  0  0
   35.3540   29.1490   40.2530 C   0  0  0  0  0  0  0  0  0  0  0  0
   36.0630   30.2840   40.9530 C   0  0  1  0  0  0  0  0  0  0  0  0
   37.2310   29.6530   41.6540 C   0  0  0  0  0  0  0  0  0  0  0  0
   35.8160   28.3210   42.5880 H   0  0  0  0  0  0  0  0  0  0  0  0
   37.1240   27.9110   39.8960 H   0  0  0  0  0  0  0  0  0  0  0  0
   35.6260   27.0020   40.4720 H   0  0  0  0  0  0  0  0  0  0  0  0
   34.3460   28.9370   40.6350 H   0  0  0  0  0  0  0  0  0  0  0  0
   35.3720   29.3590   39.1680 H   0  0  0  0  0  0  0  0  0  0  0  0
   35.4060   30.6960   41.7320 H   0  0  0  0  0  0  0  0  0  0  0  0
   38.0570   29.3340   40.9640 H   0  0  0  0  0  0  0  0  0  0  0  0
   37.5790   30.1860   42.5330 H   0  0  0  0  0  0  0  0  0  0  0  0
   39.7120   26.8640   43.6790 C   0  0  0  0  0  0  0  0  0  0  0  0
   38.7530   27.8030   43.2820 C   0  0  0  0  0  0  0  0  0  0  0  0
   37.7390   27.3540   42.4300 C   0  0  0  0  0  0  0  0  0  0  0  0
   37.7170   26.0280   42.0150 N   0  0  0  0  0  0  0  0  0  0  0  0
   38.6780   25.1700   42.4370 C   0  0  0  0  0  0  0  0  0  0  0  0
   39.6630   25.5880   43.2600 N   0  0  0  0  0  0  0  0  0  0  0  0
   40.5010   27.2020   44.3390 H   0  0  0  0  0  0  0  0  0  0  0  0
   38.7570   28.8400   43.5970 H   0  0  0  0  0  0  0  0  0  0  0  0
   38.6070   24.1470   42.0780 H   0  0  0  0  0  0  0  0  0  0  0  0
   36.6330   31.3070   40.0150 C   0  0  2  0  0  0  0  0  0  0  0  0
   36.8790   30.9160   38.6410 C   0  0  0  0  0  0  0  0  0  0  0  0
   38.0060   31.3050   39.5790 C   0  0  1  0  0  0  0  0  0  0  0  0
   36.1680   32.2990   40.1750 H   0  0  0  0  0  0  0  0  0  0  0  0
   36.6290   31.6740   37.8340 H   0  0  0  0  0  0  0  0  0  0  0  0
   37.1780   29.9990   38.1590 H   0  0  0  0  0  0  0  0  0  0  0  0
   38.6800   30.5780   40.0310 H   0  0  0  0  0  0  0  0  0  0  0  0
   38.6610   32.5030   39.2560 O   0  0  0  0  0  0  0  0  0  0  0  0
   39.8690   31.8150   41.4760 O   0  0  0  0  0  0  0  0  0  0  0  0
   39.5780   32.9940   40.5890 P   0  0  0  0  0  0  0  0  0  0  0  0
   41.0580   33.6770   40.0990 O   0  0  0  0  0  0  0  0  0  0  0  0
   41.8120   33.0570   40.1800 H   0  0  0  0  0  0  0  0  0  0  0  0
   38.7750   34.1570   41.4990 O   0  0  0  0  0  0  0  0  0  0  0  0
   39.4510   34.5810   42.0950 H   0  0  0  0  0  0  0  0  0  0  0  0
  1 16  1  0  0  0  0
  1  6  1  1  0  0  0
  2  1  1  0  0  0  0
  3  2  1  0  0  0  0
  3  9  1  0  0  0  0
  3  4  1  0  0  0  0
  4  5  1  0  0  0  0
  4 11  1  1  0  0  0
  5  1  1  0  0  0  0
  5 13  1  0  0  0  0
  7  2  1  0  0  0  0
  8  2  1  0  0  0  0
 10  3  1  0  0  0  0
 12  5  1  0  0  0  0
 14 20  1  0  0  0  0
 15 21  1  0  0  0  0
 15 14  1  0  0  0  0
 16 15  2  0  0  0  0
 17 16  1  0  0  0  0
 17 18  2  0  0  0  0
 18 19  1  0  0  0  0
 19 14  2  0  0  0  0
 22 18  1  0  0  0  0
 23 26  1  1  0  0  0
 23  4  1  0  0  0  0
 24 25  1  0  0  0  0
 24 23  1  0  0  0  0
 25 23  1  0  0  0  0
 25 29  1  1  0  0  0
 27 24  1  0  0  0  0
 28 24  1  0  0  0  0
 30 25  1  0  0  0  0
 30 32  1  0  0  0  0
 32 31  2  0  0  0  0
 32 35  1  0  0  0  0
 33 34  1  0  0  0  0
 33 32  1  0  0  0  0
 35 36  1  0  0  0  0
M  END
>  <minimizedAffinity>
-5.47912312

$$$$

 OpenBabel03252507533D

 36 38  0  0  1  0  0  0  0  0999 V2000
   36.6720   28.5110   41.8940 C   0  0  2  0  0  0  0  0  0  0  0  0
   36.2280   28.3350   40.4610 C   0  0  0  0  0  0  0  0  0  0  0  0
   35.4940   29.6730   40.2840 C   0  0  0  0  0  0  0  0  0  0  0  0
   36.2890   30.6630   41.1010 C   0  0  1  0  0  0  0  0  0  0  0  0
   37.3680   29.8570   41.7630 C   0  0  0  0  0  0  0  0  0  0  0  0
   35.8030   28.5950   42.5410 H   0  0  0  0  0  0  0  0  0  0  0  0
   37.1440   28.3020   39.8490 H   0  0  0  0  0  0  0  0  0  0  0  0
   35.5470   27.4990   40.3080 H   0  0  0  0  0  0  0  0  0  0  0  0
   34.4590   29.5290   40.6240 H   0  0  0  0  0  0  0  0  0  0  0  0
   35.5640   29.9780   39.2240 H   0  0  0  0  0  0  0  0  0  0  0  0
   35.6530   31.0660   41.9020 H   0  0  0  0  0  0  0  0  0  0  0  0
   38.1800   29.5220   41.0640 H   0  0  0  0  0  0  0  0  0  0  0  0
   37.7410   30.2710   42.6960 H   0  0  0  0  0  0  0  0  0  0  0  0
   38.4740   25.2280   42.3690 C   0  0  0  0  0  0  0  0  0  0  0  0
   37.5340   26.1400   41.8760 C   0  0  0  0  0  0  0  0  0  0  0  0
   37.6260   27.4580   42.3330 C   0  0  0  0  0  0  0  0  0  0  0  0
   38.6200   27.8110   43.2380 N   0  0  0  0  0  0  0  0  0  0  0  0
   39.4990   26.8780   43.6770 C   0  0  0  0  0  0  0  0  0  0  0  0
   39.4230   25.6010   43.2450 N   0  0  0  0  0  0  0  0  0  0  0  0
   38.4110   24.2050   42.0210 H   0  0  0  0  0  0  0  0  0  0  0  0
   36.7530   25.8790   41.1690 H   0  0  0  0  0  0  0  0  0  0  0  0
   40.2510   27.2150   44.3840 H   0  0  0  0  0  0  0  0  0  0  0  0
   36.9840   31.7050   40.2740 C   0  0  2  0  0  0  0  0  0  0  0  0
   36.9110   31.5960   38.8310 C   0  0  0  0  0  0  0  0  0  0  0  0
   38.2250   31.4690   39.5800 C   0  0  1  0  0  0  0  0  0  0  0  0
   36.8450   32.7160   40.7050 H   0  0  0  0  0  0  0  0  0  0  0  0
   36.7720   32.5580   38.2450 H   0  0  0  0  0  0  0  0  0  0  0  0
   36.8690   30.7710   38.1370 H   0  0  0  0  0  0  0  0  0  0  0  0
   38.7240   30.5150   39.7470 H   0  0  0  0  0  0  0  0  0  0  0  0
   39.1370   32.5120   39.3610 O   0  0  0  0  0  0  0  0  0  0  0  0
   41.6620   32.5700   38.6670 O   0  0  0  0  0  0  0  0  0  0  0  0
   40.3350   31.9670   38.2980 P   0  0  0  0  0  0  0  0  0  0  0  0
   40.4790   30.2730   38.3530 O   0  0  0  0  0  0  0  0  0  0  0  0
   41.2360   29.9690   38.8950 H   0  0  0  0  0  0  0  0  0  0  0  0
   39.9870   32.3830   36.7070 O   0  0  0  0  0  0  0  0  0  0  0  0
   40.5720   31.8250   36.1250 H   0  0  0  0  0  0  0  0  0  0  0  0
  1 16  1  0  0  0  0
  1  6  1  1  0  0  0
  2  1  1  0  0  0  0
  3  2  1  0  0  0  0
  3  9  1  0  0  0  0
  3  4  1  0  0  0  0
  4  5  1  0  0  0  0
  4 11  1  1  0  0  0
  5  1  1  0  0  0  0
  5 13  1  0  0  0  0
  7  2  1  0  0  0  0
  8  2  1  0  0  0  0
 10  3  1  0  0  0  0
 12  5  1  0  0  0  0
 14 19  1  0  0  0  0
 15 16  1  0  0  0  0
 15 14  2  0  0  0  0
 16 17  2  0  0  0  0
 17 18  1  0  0  0  0
 18 22  1  0  0  0  0
 19 18  2  0  0  0  0
 20 14  1  0  0  0  0
 21 15  1  0  0  0  0
 23 26  1  1  0  0  0
 23  4  1  0  0  0  0
 24 25  1  0  0  0  0
 24 23  1  0  0  0  0
 25 29  1  1  0  0  0
 25 23  1  0  0  0  0
 27 24  1  0  0  0  0
 28 24  1  0  0  0  0
 30 25  1  0  0  0  0
 32 33  1  0  0  0  0
 32 31  2  0  0  0  0
 32 30  1  0  0  0  0
 33 34  1  0  0  0  0
 35 32  1  0  0  0  0
 36 35  1  0  0  0  0
M  END
>  <minimizedAffinity>
-5.47741747

$$$$

 OpenBabel03252507533D

 36 38  0  0  1  0  0  0  0  0999 V2000
   37.0090   29.2350   41.9970 C   0  0  2  0  0  0  0  0  0  0  0  0
   37.7360   28.7980   43.2460 C   0  0  0  0  0  0  0  0  0  0  0  0
   37.1120   27.4010   43.3950 C   0  0  0  0  0  0  0  0  0  0  0  0
   36.9140   26.9120   41.9790 C   0  0  1  0  0  0  0  0  0  0  0  0
   37.3420   28.0520   41.1010 C   0  0  0  0  0  0  0  0  0  0  0  0
   35.9410   29.2780   42.1880 H   0  0  0  0  0  0  0  0  0  0  0  0
   38.8040   28.7290   42.9820 H   0  0  0  0  0  0  0  0  0  0  0  0
   37.5220   29.4100   44.1210 H   0  0  0  0  0  0  0  0  0  0  0  0
   36.1850   27.5140   43.9720 H   0  0  0  0  0  0  0  0  0  0  0  0
   37.8490   26.7350   43.8810 H   0  0  0  0  0  0  0  0  0  0  0  0
   35.8420   26.7520   41.7990 H   0  0  0  0  0  0  0  0  0  0  0  0
   38.4520   28.2130   41.0720 H   0  0  0  0  0  0  0  0  0  0  0  0
   36.8730   28.0750   40.1220 H   0  0  0  0  0  0  0  0  0  0  0  0
   37.3990   32.4910   40.1240 C   0  0  0  0  0  0  0  0  0  0  0  0
   36.7810   31.3350   40.6160 C   0  0  0  0  0  0  0  0  0  0  0  0
   37.5510   30.5000   41.4310 C   0  0  0  0  0  0  0  0  0  0  0  0
   38.8700   30.8330   41.7170 N   0  0  0  0  0  0  0  0  0  0  0  0
   39.4090   31.9670   41.2070 C   0  0  0  0  0  0  0  0  0  0  0  0
   38.6780   32.7840   40.4200 N   0  0  0  0  0  0  0  0  0  0  0  0
   36.8110   33.1440   39.4930 H   0  0  0  0  0  0  0  0  0  0  0  0
   35.7540   31.0630   40.4020 H   0  0  0  0  0  0  0  0  0  0  0  0
   40.4430   32.1720   41.4660 H   0  0  0  0  0  0  0  0  0  0  0  0
   37.7870   25.7470   41.6180 C   0  0  2  0  0  0  0  0  0  0  0  0
   37.3570   24.4200   42.0090 C   0  0  0  0  0  0  0  0  0  0  0  0
   38.6180   25.0520   42.5680 C   0  0  1  0  0  0  0  0  0  0  0  0
   38.1950   25.8560   40.5930 H   0  0  0  0  0  0  0  0  0  0  0  0
   37.5190   23.5800   41.2630 H   0  0  0  0  0  0  0  0  0  0  0  0
   36.8120   24.0200   42.8500 H   0  0  0  0  0  0  0  0  0  0  0  0
   38.6810   25.4600   43.5760 H   0  0  0  0  0  0  0  0  0  0  0  0
   39.8160   24.4430   42.1680 O   0  0  0  0  0  0  0  0  0  0  0  0
   41.5240   26.2130   41.2670 O   0  0  0  0  0  0  0  0  0  0  0  0
   41.0980   25.4910   42.5150 P   0  0  0  0  0  0  0  0  0  0  0  0
   40.6470   26.6470   43.6780 O   0  0  0  0  0  0  0  0  0  0  0  0
   40.4270   27.5190   43.2890 H   0  0  0  0  0  0  0  0  0  0  0  0
   42.4260   24.6640   43.1280 O   0  0  0  0  0  0  0  0  0  0  0  0
   43.0250   25.3410   43.5450 H   0  0  0  0  0  0  0  0  0  0  0  0
  1  6  1  1  0  0  0
  1  2  1  0  0  0  0
  2  3  1  0  0  0  0
  2  8  1  0  0  0  0
  3 10  1  0  0  0  0
  3  9  1  0  0  0  0
  4 11  1  6  0  0  0
  4  3  1  0  0  0  0
  5  4  1  0  0  0  0
  5  1  1  0  0  0  0
  7  2  1  0  0  0  0
 12  5  1  0  0  0  0
 13  5  1  0  0  0  0
 14 19  2  0  0  0  0
 14 15  1  0  0  0  0
 15 16  2  0  0  0  0
 16 17  1  0  0  0  0
 16  1  1  0  0  0  0
 18 22  1  0  0  0  0
 18 17  2  0  0  0  0
 19 18  1  0  0  0  0
 20 14  1  0  0  0  0
 21 15  1  0  0  0  0
 23 26  1  6  0  0  0
 23  4  1  0  0  0  0
 23 24  1  0  0  0  0
 23 25  1  0  0  0  0
 24 25  1  0  0  0  0
 24 28  1  0  0  0  0
 25 29  1  1  0  0  0
 27 24  1  0  0  0  0
 30 32  1  0  0  0  0
 30 25  1  0  0  0  0
 31 32  2  0  0  0  0
 32 35  1  0  0  0  0
 32 33  1  0  0  0  0
 34 33  1  0  0  0  0
 35 36  1  0  0  0  0
M  END
>  <minimizedAffinity>
-5.35338545

$$$$

 OpenBabel03252507533D

 36 38  0  0  1  0  0  0  0  0999 V2000
   37.2200   26.0170   40.4550 C   0  0  2  0  0  0  0  0  0  0  0  0
   37.8810   25.9870   39.0970 C   0  0  0  0  0  0  0  0  0  0  0  0
   36.6630   26.3720   38.2430 C   0  0  0  0  0  0  0  0  0  0  0  0
   35.8860   27.3480   39.0930 C   0  0  1  0  0  0  0  0  0  0  0  0
   36.6240   27.4160   40.3980 C   0  0  0  0  0  0  0  0  0  0  0  0
   36.4320   25.2710   40.4980 H   0  0  0  0  0  0  0  0  0  0  0  0
   38.6360   26.7900   39.0960 H   0  0  0  0  0  0  0  0  0  0  0  0
   38.2580   25.0070   38.8100 H   0  0  0  0  0  0  0  0  0  0  0  0
   36.1230   25.4470   38.0020 H   0  0  0  0  0  0  0  0  0  0  0  0
   37.0170   26.9140   37.3460 H   0  0  0  0  0  0  0  0  0  0  0  0
   34.8920   26.9300   39.3080 H   0  0  0  0  0  0  0  0  0  0  0  0
   37.5970   27.9740   40.3430 H   0  0  0  0  0  0  0  0  0  0  0  0
   36.0150   27.6870   41.2550 H   0  0  0  0  0  0  0  0  0  0  0  0
   39.7010   24.6860   42.9700 C   0  0  0  0  0  0  0  0  0  0  0  0
   38.8130   24.6850   41.8890 C   0  0  0  0  0  0  0  0  0  0  0  0
   38.1970   25.8990   41.5710 C   0  0  0  0  0  0  0  0  0  0  0  0
   38.4760   27.0360   42.3190 N   0  0  0  0  0  0  0  0  0  0  0  0
   39.3450   26.9680   43.3560 C   0  0  0  0  0  0  0  0  0  0  0  0
   39.9500   25.8030   43.6750 N   0  0  0  0  0  0  0  0  0  0  0  0
   40.1840   23.7510   43.2240 H   0  0  0  0  0  0  0  0  0  0  0  0
   38.5850   23.8060   41.2950 H   0  0  0  0  0  0  0  0  0  0  0  0
   39.5220   27.8900   43.9030 H   0  0  0  0  0  0  0  0  0  0  0  0
   35.8680   28.7440   38.5430 C   0  0  2  0  0  0  0  0  0  0  0  0
   36.6310   29.0180   37.3420 C   0  0  0  0  0  0  0  0  0  0  0  0
   36.9710   29.6620   38.6720 C   0  0  1  0  0  0  0  0  0  0  0  0
   34.8520   29.1830   38.5990 H   0  0  0  0  0  0  0  0  0  0  0  0
   36.1570   29.7040   36.5720 H   0  0  0  0  0  0  0  0  0  0  0  0
   37.5550   28.6430   36.9330 H   0  0  0  0  0  0  0  0  0  0  0  0
   37.8180   29.3520   39.2830 H   0  0  0  0  0  0  0  0  0  0  0  0
   36.7530   31.0460   38.7350 O   0  0  0  0  0  0  0  0  0  0  0  0
   38.2220   30.9370   40.9010 O   0  0  0  0  0  0  0  0  0  0  0  0
   36.9750   31.5570   40.3330 P   0  0  0  0  0  0  0  0  0  0  0  0
   37.1270   33.2490   40.4200 O   0  0  0  0  0  0  0  0  0  0  0  0
   38.0560   33.5480   40.5060 H   0  0  0  0  0  0  0  0  0  0  0  0
   35.6760   31.1260   41.3080 O   0  0  0  0  0  0  0  0  0  0  0  0
   35.7450   31.6650   42.1410 H   0  0  0  0  0  0  0  0  0  0  0  0
  1  6  1  1  0  0  0
  1 16  1  0  0  0  0
  2  1  1  0  0  0  0
  3  4  1  0  0  0  0
  3  2  1  0  0  0  0
  4 11  1  1  0  0  0
  4  5  1  0  0  0  0
  5  1  1  0  0  0  0
  5 13  1  0  0  0  0
  7  2  1  0  0  0  0
  8  2  1  0  0  0  0
  9  3  1  0  0  0  0
 10  3  1  0  0  0  0
 12  5  1  0  0  0  0
 14 20  1  0  0  0  0
 14 19  1  0  0  0  0
 15 14  2  0  0  0  0
 16 15  1  0  0  0  0
 16 17  2  0  0  0  0
 17 18  1  0  0  0  0
 18 19  2  0  0  0  0
 18 22  1  0  0  0  0
 21 15  1  0  0  0  0
 23 26  1  1  0  0  0
 23 25  1  0  0  0  0
 23  4  1  0  0  0  0
 24 23  1  0  0  0  0
 24 25  1  0  0  0  0
 25 30  1  0  0  0  0
 25 29  1  1  0  0  0
 27 24  1  0  0  0  0
 28 24  1  0  0  0  0
 30 32  1  0  0  0  0
 32 33  1  0  0  0  0
 32 31  2  0  0  0  0
 32 35  1  0  0  0  0
 33 34  1  0  0  0  0
 35 36  1  0  0  0  0
M  END
>  <minimizedAffinity>
-5.32792044

$$$$

 OpenBabel03252507533D

 36 38  0  0  1  0  0  0  0  0999 V2000
   37.3190   30.5600   39.9430 C   0  0  2  0  0  0  0  0  0  0  0  0
   36.0220   30.7230   40.7000 C   0  0  0  0  0  0  0  0  0  0  0  0
   35.4370   29.3240   40.4530 C   0  0  0  0  0  0  0  0  0  0  0  0
   36.6310   28.3980   40.4530 C   0  0  1  0  0  0  0  0  0  0  0  0
   37.8270   29.2920   40.6120 C   0  0  0  0  0  0  0  0  0  0  0  0
   37.1120   30.3780   38.8930 H   0  0  0  0  0  0  0  0  0  0  0  0
   36.2900   30.8580   41.7600 H   0  0  0  0  0  0  0  0  0  0  0  0
   35.3660   31.4920   40.2950 H   0  0  0  0  0  0  0  0  0  0  0  0
   34.8890   29.3590   39.5020 H   0  0  0  0  0  0  0  0  0  0  0  0
   34.7980   29.0500   41.3130 H   0  0  0  0  0  0  0  0  0  0  0  0
   36.7170   27.9180   39.4680 H   0  0  0  0  0  0  0  0  0  0  0  0
   37.9420   29.7200   41.6430 H   0  0  0  0  0  0  0  0  0  0  0  0
   38.7500   28.8970   40.1990 H   0  0  0  0  0  0  0  0  0  0  0  0
   38.7940   34.0050   40.4050 C   0  0  0  0  0  0  0  0  0  0  0  0
   37.8200   33.0190   40.2080 C   0  0  0  0  0  0  0  0  0  0  0  0
   38.2580   31.6920   40.1650 C   0  0  0  0  0  0  0  0  0  0  0  0
   39.6090   31.4020   40.3130 N   0  0  0  0  0  0  0  0  0  0  0  0
   40.5010   32.4050   40.4980 C   0  0  0  0  0  0  0  0  0  0  0  0
   40.0940   33.6910   40.5430 N   0  0  0  0  0  0  0  0  0  0  0  0
   38.4650   35.0350   40.4400 H   0  0  0  0  0  0  0  0  0  0  0  0
   36.7630   33.2300   40.0920 H   0  0  0  0  0  0  0  0  0  0  0  0
   41.5420   32.1140   40.6070 H   0  0  0  0  0  0  0  0  0  0  0  0
   36.6550   27.4480   41.6140 C   0  0  2  0  0  0  0  0  0  0  0  0
   37.4070   27.8240   42.7930 C   0  0  0  0  0  0  0  0  0  0  0  0
   37.7920   26.6270   41.9450 C   0  0  1  0  0  0  0  0  0  0  0  0
   35.6560   26.9980   41.7830 H   0  0  0  0  0  0  0  0  0  0  0  0
   36.9460   27.5820   43.8020 H   0  0  0  0  0  0  0  0  0  0  0  0
   38.3110   28.3860   42.9650 H   0  0  0  0  0  0  0  0  0  0  0  0
   38.6370   26.6340   41.2570 H   0  0  0  0  0  0  0  0  0  0  0  0
   37.6240   25.3800   42.5650 O   0  0  0  0  0  0  0  0  0  0  0  0
   39.6540   25.0170   40.9500 O   0  0  0  0  0  0  0  0  0  0  0  0
   38.8030   24.3200   41.9750 P   0  0  0  0  0  0  0  0  0  0  0  0
   39.8120   23.7660   43.2270 O   0  0  0  0  0  0  0  0  0  0  0  0
   40.6720   24.2340   43.2630 H   0  0  0  0  0  0  0  0  0  0  0  0
   38.1140   22.9640   41.2590 O   0  0  0  0  0  0  0  0  0  0  0  0
   38.8330   22.2820   41.1730 H   0  0  0  0  0  0  0  0  0  0  0  0
  1  6  1  6  0  0  0
  1 16  1  0  0  0  0
  1  5  1  0  0  0  0
  1  2  1  0  0  0  0
  2  7  1  0  0  0  0
  3  2  1  0  0  0  0
  3 10  1  0  0  0  0
  4 11  1  6  0  0  0
  4  3  1  0  0  0  0
  4  5  1  0  0  0  0
  4 23  1  0  0  0  0
  5 12  1  0  0  0  0
  8  2  1  0  0  0  0
  9  3  1  0  0  0  0
 13  5  1  0  0  0  0
 14 20  1  0  0  0  0
 14 19  1  0  0  0  0
 15 14  2  0  0  0  0
 16 15  1  0  0  0  0
 16 17  2  0  0  0  0
 17 18  1  0  0  0  0
 18 19  2  0  0  0  0
 18 22  1  0  0  0  0
 21 15  1  0  0  0  0
 23 26  1  1  0  0  0
 23 25  1  0  0  0  0
 23 24  1  0  0  0  0
 24 28  1  0  0  0  0
 24 27  1  0  0  0  0
 25 29  1  6  0  0  0
 25 30  1  0  0  0  0
 25 24  1  0  0  0  0
 31 32  2  0  0  0  0
 32 30  1  0  0  0  0
 32 33  1  0  0  0  0
 33 34  1  0  0  0  0
 35 32  1  0  0  0  0
 36 35  1  0  0  0  0
M  END
>  <minimizedAffinity>
-5.21742916

$$$$

 OpenBabel03252507533D

 36 38  0  0  1  0  0  0  0  0999 V2000
   37.3010   24.8060   40.3980 C   0  0  2  0  0  0  0  0  0  0  0  0
   36.9180   24.5920   41.8430 C   0  0  0  0  0  0  0  0  0  0  0  0
   38.1720   25.1900   42.5010 C   0  0  0  0  0  0  0  0  0  0  0  0
   38.5740   26.3350   41.6010 C   0  0  1  0  0  0  0  0  0  0  0  0
   37.6110   26.2940   40.4510 C   0  0  0  0  0  0  0  0  0  0  0  0
   38.1990   24.2400   40.1670 H   0  0  0  0  0  0  0  0  0  0  0  0
   36.0340   25.2220   42.0310 H   0  0  0  0  0  0  0  0  0  0  0  0
   36.8000   23.5460   42.1200 H   0  0  0  0  0  0  0  0  0  0  0  0
   38.9180   24.3880   42.5790 H   0  0  0  0  0  0  0  0  0  0  0  0
   37.8880   25.6160   43.4810 H   0  0  0  0  0  0  0  0  0  0  0  0
   39.5740   26.1380   41.1900 H   0  0  0  0  0  0  0  0  0  0  0  0
   36.5740   26.6380   40.7120 H   0  0  0  0  0  0  0  0  0  0  0  0
   37.9880   26.7150   39.5240 H   0  0  0  0  0  0  0  0  0  0  0  0
   34.8120   25.0120   37.5660 C   0  0  0  0  0  0  0  0  0  0  0  0
   35.9030   25.3600   38.3720 C   0  0  0  0  0  0  0  0  0  0  0  0
   36.1800   24.5280   39.4610 C   0  0  0  0  0  0  0  0  0  0  0  0
   35.3840   23.4150   39.7040 N   0  0  0  0  0  0  0  0  0  0  0  0
   34.3410   23.1350   38.8850 C   0  0  0  0  0  0  0  0  0  0  0  0
   34.0620   23.9290   37.8280 N   0  0  0  0  0  0  0  0  0  0  0  0
   34.5900   25.6500   36.7200 H   0  0  0  0  0  0  0  0  0  0  0  0
   36.5330   26.2250   38.1950 H   0  0  0  0  0  0  0  0  0  0  0  0
   33.7570   22.2520   39.1270 H   0  0  0  0  0  0  0  0  0  0  0  0
   38.4170   27.6840   42.2380 C   0  0  2  0  0  0  0  0  0  0  0  0
   37.7460   27.7640   43.5200 C   0  0  0  0  0  0  0  0  0  0  0  0
   37.1710   28.4060   42.2720 C   0  0  1  0  0  0  0  0  0  0  0  0
   39.3360   28.2920   42.1180 H   0  0  0  0  0  0  0  0  0  0  0  0
   38.1760   28.4820   44.2870 H   0  0  0  0  0  0  0  0  0  0  0  0
   36.9420   27.2180   43.9870 H   0  0  0  0  0  0  0  0  0  0  0  0
   36.3290   27.9860   41.7230 H   0  0  0  0  0  0  0  0  0  0  0  0
   37.1500   29.8080   42.2810 O   0  0  0  0  0  0  0  0  0  0  0  0
   37.2250   29.8340   39.6620 O   0  0  0  0  0  0  0  0  0  0  0  0
   36.4450   30.3480   40.8400 P   0  0  0  0  0  0  0  0  0  0  0  0
   34.8390   29.8020   40.7020 O   0  0  0  0  0  0  0  0  0  0  0  0
   34.7460   29.0260   40.1120 H   0  0  0  0  0  0  0  0  0  0  0  0
   36.4060   32.0260   40.7600 O   0  0  0  0  0  0  0  0  0  0  0  0
   35.7650   32.2690   40.0390 H   0  0  0  0  0  0  0  0  0  0  0  0
  1  6  1  6  0  0  0
  1  5  1  0  0  0  0
  1  2  1  0  0  0  0
  2  7  1  0  0  0  0
  2  8  1  0  0  0  0
  2  3  1  0  0  0  0
  3  9  1  0  0  0  0
  3 10  1  0  0  0  0
  4 11  1  6  0  0  0
  4 23  1  0  0  0  0
  4  3  1  0  0  0  0
  5 12  1  0  0  0  0
  5  4  1  0  0  0  0
 13  5  1  0  0  0  0
 14 19  2  0  0  0  0
 14 15  1  0  0  0  0
 15 16  2  0  0  0  0
 16 17  1  0  0  0  0
 16  1  1  0  0  0  0
 18 22  1  0  0  0  0
 18 17  2  0  0  0  0
 19 18  1  0  0  0  0
 20 14  1  0  0  0  0
 21 15  1  0  0  0  0
 23 26  1  6  0  0  0
 23 25  1  0  0  0  0
 23 24  1  0  0  0  0
 24 28  1  0  0  0  0
 24 27  1  0  0  0  0
 25 29  1  6  0  0  0
 25 30  1  0  0  0  0
 25 24  1  0  0  0  0
 31 32  2  0  0  0  0
 32 30  1  0  0  0  0
 33 32  1  0  0  0  0
 34 33  1  0  0  0  0
 35 32  1  0  0  0  0
 36 35  1  0  0  0  0
M  END
>  <minimizedAffinity>
-5.0773077

$$$$

 OpenBabel03252507533D

 36 38  0  0  1  0  0  0  0  0999 V2000
   37.7670   25.9390   41.7860 C   0  0  2  0  0  0  0  0  0  0  0  0
   36.7680   26.1380   42.9010 C   0  0  0  0  0  0  0  0  0  0  0  0
   37.1640   27.5670   43.3080 C   0  0  0  0  0  0  0  0  0  0  0  0
   37.5580   28.2430   42.0160 C   0  0  1  0  0  0  0  0  0  0  0  0
   37.4550   27.1790   40.9620 C   0  0  0  0  0  0  0  0  0  0  0  0
   38.7770   25.9910   42.1830 H   0  0  0  0  0  0  0  0  0  0  0  0
   35.7690   26.1220   42.4370 H   0  0  0  0  0  0  0  0  0  0  0  0
   36.8930   25.4520   43.7370 H   0  0  0  0  0  0  0  0  0  0  0  0
   37.9740   27.4870   44.0450 H   0  0  0  0  0  0  0  0  0  0  0  0
   36.2690   28.0840   43.7000 H   0  0  0  0  0  0  0  0  0  0  0  0
   38.6140   28.5400   42.0700 H   0  0  0  0  0  0  0  0  0  0  0  0
   36.4010   26.9020   40.6960 H   0  0  0  0  0  0  0  0  0  0  0  0
   38.0970   27.3270   40.0990 H   0  0  0  0  0  0  0  0  0  0  0  0
   36.2220   23.3360   39.5290 C   0  0  0  0  0  0  0  0  0  0  0  0
   36.3690   24.5500   40.2090 C   0  0  0  0  0  0  0  0  0  0  0  0
   37.5110   24.7010   41.0020 C   0  0  0  0  0  0  0  0  0  0  0  0
   38.4360   23.6670   41.0910 N   0  0  0  0  0  0  0  0  0  0  0  0
   38.2320   22.5150   40.4070 C   0  0  0  0  0  0  0  0  0  0  0  0
   37.1350   22.3550   39.6360 N   0  0  0  0  0  0  0  0  0  0  0  0
   35.3420   23.2100   38.9120 H   0  0  0  0  0  0  0  0  0  0  0  0
   35.6570   25.3660   40.1500 H   0  0  0  0  0  0  0  0  0  0  0  0
   38.9900   21.7460   40.5170 H   0  0  0  0  0  0  0  0  0  0  0  0
   36.6220   29.3410   41.6030 C   0  0  2  0  0  0  0  0  0  0  0  0
   35.6240   29.0480   40.5940 C   0  0  0  0  0  0  0  0  0  0  0  0
   36.7360   30.0530   40.3550 C   0  0  1  0  0  0  0  0  0  0  0  0
   36.2870   29.9310   42.4780 H   0  0  0  0  0  0  0  0  0  0  0  0
   34.5890   29.4890   40.7440 H   0  0  0  0  0  0  0  0  0  0  0  0
   35.5930   28.4090   39.7260 H   0  0  0  0  0  0  0  0  0  0  0  0
   37.6030   29.8420   39.7300 H   0  0  0  0  0  0  0  0  0  0  0  0
   36.3180   31.3870   40.2470 O   0  0  0  0  0  0  0  0  0  0  0  0
   38.9000   31.5360   39.8360 O   0  0  0  0  0  0  0  0  0  0  0  0
   37.6250   32.3220   39.7180 P   0  0  0  0  0  0  0  0  0  0  0  0
   37.4280   32.7880   38.0930 O   0  0  0  0  0  0  0  0  0  0  0  0
   37.9480   32.2400   37.4700 H   0  0  0  0  0  0  0  0  0  0  0  0
   37.7840   33.7310   40.6200 O   0  0  0  0  0  0  0  0  0  0  0  0
   38.3830   34.3400   40.1090 H   0  0  0  0  0  0  0  0  0  0  0  0
  1  6  1  1  0  0  0
  1  2  1  0  0  0  0
  2  3  1  0  0  0  0
  2  8  1  0  0  0  0
  3 10  1  0  0  0  0
  3  9  1  0  0  0  0
  4 11  1  1  0  0  0
  4  3  1  0  0  0  0
  5  1  1  0  0  0  0
  5  4  1  0  0  0  0
  7  2  1  0  0  0  0
 12  5  1  0  0  0  0
 13  5  1  0  0  0  0
 14 19  2  0  0  0  0
 14 15  1  0  0  0  0
 15 16  2  0  0  0  0
 16 17  1  0  0  0  0
 16  1  1  0  0  0  0
 18 22  1  0  0  0  0
 18 17  2  0  0  0  0
 19 18  1  0  0  0  0
 20 14  1  0  0  0  0
 21 15  1  0  0  0  0
 23  4  1  0  0  0  0
 23 26  1  1  0  0  0
 24 27  1  0  0  0  0
 24 23  1  0  0  0  0
 25 29  1  6  0  0  0
 25 24  1  0  0  0  0
 25 23  1  0  0  0  0
 28 24  1  0  0  0  0
 30 25  1  0  0  0  0
 32 31  2  0  0  0  0
 32 30  1  0  0  0  0
 32 35  1  0  0  0  0
 33 32  1  0  0  0  0
 34 33  1  0  0  0  0
 36 35  1  0  0  0  0
M  END
>  <minimizedAffinity>
-4.98377323

$$$$

 OpenBabel03252507533D

 36 38  0  0  1  0  0  0  0  0999 V2000
   35.8390   28.0680   39.3650 C   0  0  2  0  0  0  0  0  0  0  0  0
   35.3650   28.9040   40.5300 C   0  0  0  0  0  0  0  0  0  0  0  0
   36.3710   28.4140   41.5850 C   0  0  0  0  0  0  0  0  0  0  0  0
   37.6500   28.1750   40.8190 C   0  0  1  0  0  0  0  0  0  0  0  0
   37.3120   28.4480   39.3820 C   0  0  0  0  0  0  0  0  0  0  0  0
   35.7170   27.0130   39.5940 H   0  0  0  0  0  0  0  0  0  0  0  0
   35.5540   29.9550   40.2620 H   0  0  0  0  0  0  0  0  0  0  0  0
   34.3450   28.6900   40.8430 H   0  0  0  0  0  0  0  0  0  0  0  0
   35.9460   27.5160   42.0530 H   0  0  0  0  0  0  0  0  0  0  0  0
   36.5560   29.2330   42.3040 H   0  0  0  0  0  0  0  0  0  0  0  0
   37.9200   27.1110   40.8880 H   0  0  0  0  0  0  0  0  0  0  0  0
   37.1730   29.5370   39.1470 H   0  0  0  0  0  0  0  0  0  0  0  0
   37.9280   27.9220   38.6590 H   0  0  0  0  0  0  0  0  0  0  0  0
   33.3320   29.0300   36.7100 C   0  0  0  0  0  0  0  0  0  0  0  0
   33.8250   28.6800   37.9730 C   0  0  0  0  0  0  0  0  0  0  0  0
   35.2020   28.4630   38.0800 C   0  0  0  0  0  0  0  0  0  0  0  0
   36.0150   28.5970   36.9600 N   0  0  0  0  0  0  0  0  0  0  0  0
   35.4730   28.9370   35.7660 C   0  0  0  0  0  0  0  0  0  0  0  0
   34.1450   29.1510   35.6470 N   0  0  0  0  0  0  0  0  0  0  0  0
   32.2670   29.2000   36.6180 H   0  0  0  0  0  0  0  0  0  0  0  0
   33.2040   28.5720   38.8550 H   0  0  0  0  0  0  0  0  0  0  0  0
   36.1590   29.0260   34.9290 H   0  0  0  0  0  0  0  0  0  0  0  0
   38.7550   29.1230   41.1820 C   0  0  2  0  0  0  0  0  0  0  0  0
   39.1810   29.1810   42.5660 C   0  0  0  0  0  0  0  0  0  0  0  0
   38.5370   30.3680   41.8740 C   0  0  1  0  0  0  0  0  0  0  0  0
   39.5540   29.1190   40.4150 H   0  0  0  0  0  0  0  0  0  0  0  0
   40.2960   29.2740   42.7620 H   0  0  0  0  0  0  0  0  0  0  0  0
   38.6830   29.0670   43.5150 H   0  0  0  0  0  0  0  0  0  0  0  0
   37.5070   30.6720   42.0550 H   0  0  0  0  0  0  0  0  0  0  0  0
   39.3840   31.4660   41.6660 O   0  0  0  0  0  0  0  0  0  0  0  0
   39.1060   32.6320   39.3370 O   0  0  0  0  0  0  0  0  0  0  0  0
   38.5600   32.6150   40.7380 P   0  0  0  0  0  0  0  0  0  0  0  0
   36.8970   32.2660   40.6630 O   0  0  0  0  0  0  0  0  0  0  0  0
   36.6320   31.8320   39.8260 H   0  0  0  0  0  0  0  0  0  0  0  0
   38.7130   34.1590   41.3850 O   0  0  0  0  0  0  0  0  0  0  0  0
   38.0140   34.7250   40.9590 H   0  0  0  0  0  0  0  0  0  0  0  0
  1  5  1  0  0  0  0
  1  6  1  1  0  0  0
  1  2  1  0  0  0  0
  2  8  1  0  0  0  0
  2  3  1  0  0  0  0
  3  9  1  0  0  0  0
  3 10  1  0  0  0  0
  4 11  1  1  0  0  0
  4 23  1  0  0  0  0
  4  3  1  0  0  0  0
  5  4  1  0  0  0  0
  7  2  1  0  0  0  0
 12  5  1  0  0  0  0
 13  5  1  0  0  0  0
 14 15  1  0  0  0  0
 15 16  2  0  0  0  0
 15 21  1  0  0  0  0
 16  1  1  0  0  0  0
 17 16  1  0  0  0  0
 18 17  2  0  0  0  0
 19 18  1  0  0  0  0
 19 14  2  0  0  0  0
 20 14  1  0  0  0  0
 22 18  1  0  0  0  0
 23 26  1  6  0  0  0
 23 25  1  0  0  0  0
 23 24  1  0  0  0  0
 24 27  1  0  0  0  0
 24 28  1  0  0  0  0
 25 29  1  1  0  0  0
 25 24  1  0  0  0  0
 30 25  1  0  0  0  0
 31 32  2  0  0  0  0
 32 35  1  0  0  0  0
 32 30  1  0  0  0  0
 33 32  1  0  0  0  0
 34 33  1  0  0  0  0
 36 35  1  0  0  0  0
M  END
>  <minimizedAffinity>
-4.95340824

$$$$
