
 OpenBabel03252508513D

 26 27  0  0  0  0  0  0  0  0999 V2000
   45.8960   34.1230   41.0070 C   0  0  0  0  0  0  0  0  0  0  0  0
   46.4920   34.7860   42.0750 C   0  0  0  0  0  0  0  0  0  0  0  0
   47.8260   35.1840   41.9190 C   0  0  0  0  0  0  0  0  0  0  0  0
   48.4450   34.9000   40.7450 N   0  0  0  0  0  0  0  0  0  0  0  0
   47.8370   34.2620   39.7390 C   0  0  0  0  0  0  0  0  0  0  0  0
   46.5510   33.8710   39.8750 N   0  0  0  0  0  0  0  0  0  0  0  0
   48.3180   35.7040   42.7390 H   0  0  0  0  0  0  0  0  0  0  0  0
   48.4390   34.1010   38.8670 H   0  0  0  0  0  0  0  0  0  0  0  0
   45.7300   35.0400   43.2970 C   0  0  0  0  0  0  0  0  0  0  0  0
   45.0450   36.2090   43.5330 C   0  0  0  0  0  0  0  0  0  0  0  0
   44.4870   36.0120   44.7780 C   0  0  0  0  0  0  0  0  0  0  0  0
   44.8140   34.7930   45.2740 N   0  0  0  0  0  0  0  0  0  0  0  0
   45.5640   34.2300   44.3570 N   0  0  0  0  0  0  0  0  0  0  0  0
   44.9210   37.0990   42.9540 H   0  0  0  0  0  0  0  0  0  0  0  0
   43.8530   36.6530   45.4020 H   0  0  0  0  0  0  0  0  0  0  0  0
   44.6050   34.2800   46.1430 H   0  0  0  0  0  0  0  0  0  0  0  0
   44.5790   33.7250   41.1480 O   0  0  0  0  0  0  0  0  0  0  0  0
   43.4910   34.3250   40.5730 C   0  0  0  0  0  0  0  0  0  0  0  0
   43.1020   35.5310   40.6880 O   0  0  0  0  0  0  0  0  0  0  0  0
   42.4810   33.8430   39.7060 O   0  0  0  0  0  0  0  0  0  0  0  0
   42.5070   35.7730   37.9470 O   0  0  0  0  0  0  0  0  0  0  0  0
   41.5510   34.9350   38.7700 P   0  0  0  0  0  0  0  0  0  0  0  0
   40.5900   34.0510   37.7050 O   0  0  0  0  0  0  0  0  0  0  0  0
   41.1490   33.7800   36.9110 H   0  0  0  0  0  0  0  0  0  0  0  0
   40.6290   35.9850   39.7200 O   0  0  0  0  0  0  0  0  0  0  0  0
   39.6650   35.9850   39.4960 H   0  0  0  0  0  0  0  0  0  0  0  0
  1 17  1  0  0  0  0
  1  2  1  0  0  0  0
  2  9  1  0  0  0  0
  3  2  2  0  0  0  0
  3  7  1  0  0  0  0
  4  3  1  0  0  0  0
  5  6  1  0  0  0  0
  5  4  2  0  0  0  0
  6  1  2  0  0  0  0
  8  5  1  0  0  0  0
  9 10  1  0  0  0  0
  9 13  2  0  0  0  0
 10 11  2  0  0  0  0
 11 12  1  0  0  0  0
 11 15  1  0  0  0  0
 12 16  1  0  0  0  0
 13 12  1  0  0  0  0
 14 10  1  0  0  0  0
 18 19  2  0  0  0  0
 18 17  1  0  0  0  0
 20 18  1  0  0  0  0
 21 22  2  0  0  0  0
 22 20  1  0  0  0  0
 22 25  1  0  0  0  0
 23 22  1  0  0  0  0
 24 23  1  0  0  0  0
 26 25  1  0  0  0  0
M  END
>  <minimizedAffinity>
-5.140131

>  <minimizedRMSD>
0.369943291

$$$$
