
 OpenBabel03252509223D

 25 26  0  0  1  0  0  0  0  0999 V2000
   46.5060   35.0160   41.9400 C   0  0  1  0  0  0  0  0  0  0  0  0
   48.0290   35.3010   41.9060 C   0  0  0  0  0  0  0  0  0  0  0  0
   47.3580   34.0400   41.3650 C   0  0  2  0  0  0  0  0  0  0  0  0
   45.9090   35.7470   41.3670 H   0  0  0  0  0  0  0  0  0  0  0  0
   48.2840   36.1150   41.2440 H   0  0  0  0  0  0  0  0  0  0  0  0
   48.6090   35.2550   42.8240 H   0  0  0  0  0  0  0  0  0  0  0  0
   47.6240   33.1420   41.9640 H   0  0  0  0  0  0  0  0  0  0  0  0
   44.6680   35.4100   45.1830 C   0  0  0  0  0  0  0  0  0  0  0  0
   45.1130   35.7160   43.8520 C   0  0  0  0  0  0  0  0  0  0  0  0
   46.0370   34.8280   43.3700 C   0  0  0  0  0  0  0  0  0  0  0  0
   46.4850   33.7490   44.1050 N   0  0  0  0  0  0  0  0  0  0  0  0
   46.0280   33.5200   45.3440 C   0  0  0  0  0  0  0  0  0  0  0  0
   45.1110   34.3580   45.8860 N   0  0  0  0  0  0  0  0  0  0  0  0
   43.9370   36.0780   45.6180 H   0  0  0  0  0  0  0  0  0  0  0  0
   46.4880   32.6380   45.7580 H   0  0  0  0  0  0  0  0  0  0  0  0
   44.6590   36.8410   43.1210 N   0  0  0  0  0  0  0  0  0  0  0  0
   45.2010   37.6440   43.5100 H   0  0  0  0  0  0  0  0  0  0  0  0
   43.9460   36.9150   42.3560 H   0  0  0  0  0  0  0  0  0  0  0  0
   47.2860   33.7790   40.0330 O   0  0  0  0  0  0  0  0  0  0  0  0
   46.1060   31.4230   40.4080 O   0  0  0  0  0  0  0  0  0  0  0  0
   46.2410   32.6090   39.5310 P   0  0  0  0  0  0  0  0  0  0  0  0
   44.6860   33.2900   39.3730 O   0  0  0  0  0  0  0  0  0  0  0  0
   44.0240   32.6130   39.0900 H   0  0  0  0  0  0  0  0  0  0  0  0
   46.6660   32.1920   37.9300 O   0  0  0  0  0  0  0  0  0  0  0  0
   47.0750   32.9270   37.4520 H   0  0  0  0  0  0  0  0  0  0  0  0
  1  4  1  6  0  0  0
  1 10  1  0  0  0  0
  2  1  1  0  0  0  0
  2  6  1  0  0  0  0
  3  2  1  0  0  0  0
  3  1  1  0  0  0  0
  3  7  1  1  0  0  0
  5  2  1  0  0  0  0
  8 14  1  0  0  0  0
  8 13  1  0  0  0  0
  9  8  2  0  0  0  0
 10  9  1  0  0  0  0
 10 11  2  0  0  0  0
 11 12  1  0  0  0  0
 12 15  1  0  0  0  0
 12 13  2  0  0  0  0
 16 17  1  0  0  0  0
 16  9  1  0  0  0  0
 18 16  1  0  0  0  0
 19  3  1  0  0  0  0
 21 19  1  0  0  0  0
 21 20  2  0  0  0  0
 22 21  1  0  0  0  0
 23 22  1  0  0  0  0
 24 21  1  0  0  0  0
 25 24  1  0  0  0  0
M  END
>  <minimizedAffinity>
-4.15044832

>  <minimizedRMSD>
0.0962581858

$$$$
