
 OpenBabel03252508513D

 26 27  0  0  0  0  0  0  0  0999 V2000
   45.9750   34.1270   41.1070 C   0  0  0  0  0  0  0  0  0  0  0  0
   46.5400   34.8140   42.1770 C   0  0  0  0  0  0  0  0  0  0  0  0
   47.8650   35.2450   42.0340 C   0  0  0  0  0  0  0  0  0  0  0  0
   48.5060   34.9690   40.8700 N   0  0  0  0  0  0  0  0  0  0  0  0
   47.9280   34.3060   39.8620 C   0  0  0  0  0  0  0  0  0  0  0  0
   46.6510   33.8830   39.9850 N   0  0  0  0  0  0  0  0  0  0  0  0
   48.3330   35.7850   42.8550 H   0  0  0  0  0  0  0  0  0  0  0  0
   48.5450   34.1540   38.9990 H   0  0  0  0  0  0  0  0  0  0  0  0
   45.7570   35.0580   43.3870 C   0  0  0  0  0  0  0  0  0  0  0  0
   45.0370   36.2100   43.6040 C   0  0  0  0  0  0  0  0  0  0  0  0
   44.4700   36.0080   44.8440 C   0  0  0  0  0  0  0  0  0  0  0  0
   44.8230   34.8030   45.3540 N   0  0  0  0  0  0  0  0  0  0  0  0
   45.5990   34.2530   44.4520 N   0  0  0  0  0  0  0  0  0  0  0  0
   44.8970   37.0910   43.0150 H   0  0  0  0  0  0  0  0  0  0  0  0
   43.8110   36.6370   45.4540 H   0  0  0  0  0  0  0  0  0  0  0  0
   44.6170   34.2920   46.2250 H   0  0  0  0  0  0  0  0  0  0  0  0
   44.6680   33.6950   41.2350 O   0  0  0  0  0  0  0  0  0  0  0  0
   43.5680   34.2780   40.6640 C   0  0  0  0  0  0  0  0  0  0  0  0
   43.3020   35.5170   40.5500 O   0  0  0  0  0  0  0  0  0  0  0  0
   42.4160   33.7400   40.0430 O   0  0  0  0  0  0  0  0  0  0  0  0
   42.1800   32.2140   37.9360 O   0  0  0  0  0  0  0  0  0  0  0  0
   42.3070   33.6710   38.3340 P   0  0  0  0  0  0  0  0  0  0  0  0
   40.9000   34.4630   37.8510 O   0  0  0  0  0  0  0  0  0  0  0  0
   40.1180   33.8390   37.9690 H   0  0  0  0  0  0  0  0  0  0  0  0
   43.6740   34.3000   37.5680 O   0  0  0  0  0  0  0  0  0  0  0  0
   43.4730   35.0050   36.9050 H   0  0  0  0  0  0  0  0  0  0  0  0
  1 17  1  0  0  0  0
  1  2  1  0  0  0  0
  2  9  1  0  0  0  0
  3  2  2  0  0  0  0
  3  7  1  0  0  0  0
  4  3  1  0  0  0  0
  5  6  1  0  0  0  0
  5  4  2  0  0  0  0
  6  1  2  0  0  0  0
  8  5  1  0  0  0  0
  9 10  1  0  0  0  0
  9 13  2  0  0  0  0
 10 11  2  0  0  0  0
 11 12  1  0  0  0  0
 11 15  1  0  0  0  0
 12 16  1  0  0  0  0
 13 12  1  0  0  0  0
 14 10  1  0  0  0  0
 18 17  1  0  0  0  0
 19 18  2  0  0  0  0
 20 18  1  0  0  0  0
 21 22  2  0  0  0  0
 22 20  1  0  0  0  0
 23 24  1  0  0  0  0
 23 22  1  0  0  0  0
 25 22  1  0  0  0  0
 26 25  1  0  0  0  0
M  END
>  <minimizedAffinity>
-5.08352518

>  <minimizedRMSD>
0.624294102

$$$$
