REMARK  Name = 
REMARK  7 active torsions:
REMARK  status: ('A' for Active; 'I' for Inactive)
REMARK    1  A    between atoms: C_1  and  O_12
REMARK    2  A    between atoms: C_2  and  C_7
REMARK    3  A    between atoms: O_12  and  C_13
REMARK    4  A    between atoms: C_13  and  O_24
REMARK    5  A    between atoms: P_21  and  O_22
REMARK    6  A    between atoms: P_21  and  O_23
REMARK    7  A    between atoms: P_21  and  O_24
REMARK                            x       y       z     vdW  Elec       q    Type
REMARK                         _______ _______ _______ _____ _____    ______ ____
ROOT
ATOM      1  C   UNL     1      46.081  34.151  41.005  0.00  0.00    +0.000 A 
ATOM      2  C   UNL     1      46.615  34.832  42.094  0.00  0.00    +0.000 A 
ATOM      3  C   UNL     1      47.936  35.283  41.983  0.00  0.00    +0.000 A 
ATOM      4  N   UNL     1      48.604  35.029  40.829  0.00  0.00    +0.000 NA
ATOM      5  C   UNL     1      48.056  34.371  39.802  0.00  0.00    +0.000 A 
ATOM      6  N   UNL     1      46.782  33.929  39.894  0.00  0.00    +0.000 NA
ATOM      7  H   UNL     1      48.380  35.819  42.820  0.00  0.00    +0.000 HD
ATOM      8  H   UNL     1      48.692  34.237  38.950  0.00  0.00    +0.000 HD
ENDROOT
BRANCH   2   9
ATOM      9  C   UNL     1      45.804  35.051  43.291  0.00  0.00    +0.000 A 
ATOM     10  C   UNL     1      45.046  36.181  43.496  0.00  0.00    +0.000 A 
ATOM     11  C   UNL     1      44.464  35.961  44.726  0.00  0.00    +0.000 A 
ATOM     12  N   UNL     1      44.845  34.767  45.242  0.00  0.00    +0.000 N 
ATOM     13  N   UNL     1      45.653  34.241  44.353  0.00  0.00    +0.000 NA
ATOM     14  H   UNL     1      44.889  37.058  42.905  0.00  0.00    +0.000 HD
ATOM     15  H   UNL     1      43.776  36.569  45.325  0.00  0.00    +0.000 HD
ATOM     16  H   UNL     1      44.640  34.249  46.109  0.00  0.00    +0.000 HD
ENDBRANCH   2   9
BRANCH   1  17
ATOM     17  O   UNL     1      44.777  33.700  41.101  0.00  0.00    +0.000 OA
BRANCH  17  18
ATOM     18  C   UNL     1      43.700  34.202  40.421  0.00  0.00    +0.000 C 
ATOM     19  O   UNL     1      43.248  35.392  40.425  0.00  0.00    +0.000 OA
BRANCH  18  20
ATOM     20  O   UNL     1      42.770  33.610  39.533  0.00  0.00    +0.000 OA
BRANCH  20  22
ATOM     21  O   UNL     1      43.024  31.018  39.338  0.00  0.00    +0.000 OA
ATOM     22  P   UNL     1      43.237  32.291  38.544  0.00  0.00    +0.000 P 
BRANCH  22  23
ATOM     23  O   UNL     1      42.221  32.238  37.201  0.00  0.00    +0.000 OA
ATOM     24  H   UNL     1      41.357  31.791  37.464  0.00  0.00    +0.000 HD
ENDBRANCH  22  23
BRANCH  22  25
ATOM     25  O   UNL     1      44.864  32.357  38.096  0.00  0.00    +0.000 OA
ATOM     26  H   UNL     1      45.013  32.302  37.120  0.00  0.00    +0.000 HD
ENDBRANCH  22  25
ENDBRANCH  20  22
ENDBRANCH  18  20
ENDBRANCH  17  18
ENDBRANCH   1  17
TORSDOF 7
