
     RDKit          3D

 25 26  0  0  0  0  0  0  0  0999 V2000
   44.6331   35.4556   45.1310 C   0  0  0  0  0  0  0  0  0  0  0  0
   45.0989   35.7215   43.7993 C   0  0  0  0  0  0  0  0  0  0  0  0
   46.0408   34.8267   43.3635 C   0  0  0  0  0  0  0  0  0  0  0  0
   46.4871   33.7793   44.1442 N   0  0  0  0  0  0  0  0  0  0  0  0
   46.0097   33.5878   45.3815 C   0  0  0  0  0  0  0  0  0  0  0  0
   45.0739   34.4345   45.8780 N   0  0  0  0  0  0  0  0  0  0  0  0
   46.5344   34.9711   41.9371 C   0  0  1  0  0  0  0  0  0  0  0  0
   48.0548   35.2668   41.9206 C   0  0  0  0  0  0  0  0  0  0  0  0
   47.4044   33.9834   41.4115 C   0  0  2  0  0  0  0  0  0  0  0  0
   44.6459   36.8144   43.0212 N   0  0  0  0  0  0  0  0  0  0  0  0
   43.8867   36.1298   45.5296 H   0  0  0  0  0  0  0  0  0  0  0  0
   46.4722   32.7264   45.8352 H   0  0  0  0  0  0  0  0  0  0  0  0
   45.9419   35.6773   41.3296 H   0  0  0  0  0  0  0  0  0  0  0  0
   48.3159   36.0609   41.2357 H   0  0  0  0  0  0  0  0  0  0  0  0
   48.6188   35.2565   42.8496 H   0  0  0  0  0  0  0  0  0  0  0  0
   47.6663   33.1080   42.0435 H   0  0  0  0  0  0  0  0  0  0  0  0
   45.1720   37.6357   43.3919 H   0  0  0  0  0  0  0  0  0  0  0  0
   43.9472   36.8538   42.2407 H   0  0  0  0  0  0  0  0  0  0  0  0
   45.6129   31.6875   40.3704 O   0  0  0  0  0  0  0  0  0  0  0  0
   46.0587   32.8273   39.5362 P   0  0  0  0  0  0  0  0  0  0  0  0
   44.7306   33.8858   39.3881 O   0  0  0  0  0  0  0  0  0  0  0  0
   46.3917   32.3664   37.9251 O   0  0  0  0  0  0  0  0  0  0  0  0
   47.3575   33.6773   40.0873 O   0  0  0  0  0  0  0  0  0  0  0  0
   43.9233   33.4078   39.0771 H   0  0  0  0  0  0  0  0  0  0  0  0
   46.9804   32.9880   37.4766 H   0  0  0  0  0  0  0  0  0  0  0  0
  1  6  2  0
  2  1  1  0
  3  2  2  0
  3  4  1  0
  4  5  2  0
  5  6  1  0
  7  3  1  0
  8  7  1  0
  9  8  1  0
  9  7  1  0
 10  2  1  0
  1 11  1  0
  5 12  1  0
  7 13  1  6
  8 14  1  0
  8 15  1  0
  9 16  1  1
 10 17  1  0
 10 18  1  0
 19 20  2  0
 20 21  1  0
 20 22  1  0
 20 23  1  0
 21 24  1  0
 22 25  1  0
  9 23  1  0
M  ISO  6  11  14  12  14  13  13  14  13  15  13  16  13
M  END
>  <DihAtoms>  (1) 
7,8,22,19

>  <DihDeg>  (1) 
137.31065612651346

$$$$
