
 OpenBabel03252507483D

 41 42  0  0  0  0  0  0  0  0999 V2000
   48.5370   33.3670   40.4400 C   0  0  0  0  0  0  0  0  0  0  0  0
   48.8470   32.5020   39.4070 C   0  0  0  0  0  0  0  0  0  0  0  0
   49.9540   31.6790   39.4630 C   0  0  0  0  0  0  0  0  0  0  0  0
   50.7310   31.7630   40.5910 N   0  0  0  0  0  0  0  0  0  0  0  0
   50.3900   32.6350   41.5960 C   0  0  0  0  0  0  0  0  0  0  0  0
   49.3180   33.4010   41.4920 N   0  0  0  0  0  0  0  0  0  0  0  0
   50.1610   31.0250   38.6430 H   0  0  0  0  0  0  0  0  0  0  0  0
   51.0600   32.6270   42.4390 H   0  0  0  0  0  0  0  0  0  0  0  0
   47.3320   34.1950   40.2670 C   0  0  0  0  0  0  0  0  0  0  0  0
   46.5370   33.6770   39.7000 H   0  0  0  0  0  0  0  0  0  0  0  0
   47.5660   35.1050   39.6770 H   0  0  0  0  0  0  0  0  0  0  0  0
   46.7210   34.6370   41.5600 C   0  0  0  0  0  0  0  0  0  0  0  0
   47.1910   35.6160   41.8420 H   0  0  0  0  0  0  0  0  0  0  0  0
   46.9460   33.9560   42.4070 H   0  0  0  0  0  0  0  0  0  0  0  0
   45.2340   34.7650   41.5070 C   0  0  0  0  0  0  0  0  0  0  0  0
   44.5450   35.5310   42.4920 C   0  0  0  0  0  0  0  0  0  0  0  0
   42.7920   35.3740   41.9920 S   0  0  0  0  0  0  0  0  0  0  0  0
   43.2750   34.2850   40.5140 C   0  0  0  0  0  0  0  0  0  0  0  0
   44.4080   34.2420   40.6310 N   0  0  0  0  0  0  0  0  0  0  0  0
   44.9910   36.0620   43.3180 H   0  0  0  0  0  0  0  0  0  0  0  0
   42.3450   33.7580   39.6180 O   0  0  0  0  0  0  0  0  0  0  0  0
   40.5360   34.1450   37.7100 O   0  0  0  0  0  0  0  0  0  0  0  0
   41.5490   34.8500   38.5890 P   0  0  0  0  0  0  0  0  0  0  0  0
   40.7310   35.9820   39.5570 O   0  0  0  0  0  0  0  0  0  0  0  0
   41.2990   36.7700   39.7510 H   0  0  0  0  0  0  0  0  0  0  0  0
   42.6830   35.7020   37.6490 O   0  0  0  0  0  0  0  0  0  0  0  0
   43.3250   36.1480   38.2330 H   0  0  0  0  0  0  0  0  0  0  0  0
   47.7920   32.4290   37.9410 S   0  0  0  0  0  0  0  0  0  0  0  0
   48.6530   33.1620   36.5270 C   0  0  0  0  0  0  0  0  0  0  0  0
   48.4500   34.2580   36.4750 H   0  0  0  0  0  0  0  0  0  0  0  0
   49.7360   33.0180   36.6770 H   0  0  0  0  0  0  0  0  0  0  0  0
   48.2060   32.4690   35.2820 C   0  0  0  0  0  0  0  0  0  0  0  0
   47.3750   33.0300   34.7970 H   0  0  0  0  0  0  0  0  0  0  0  0
   47.8980   31.4350   35.5560 H   0  0  0  0  0  0  0  0  0  0  0  0
   49.2540   32.4980   34.3600 O   0  0  0  0  0  0  0  0  0  0  0  0
   49.4680   33.8770   32.1620 O   0  0  0  0  0  0  0  0  0  0  0  0
   48.6590   32.7650   32.7830 P   0  0  0  0  0  0  0  0  0  0  0  0
   47.0370   33.2110   32.9370 O   0  0  0  0  0  0  0  0  0  0  0  0
   46.4950   32.5130   32.5190 H   0  0  0  0  0  0  0  0  0  0  0  0
   48.7960   31.3190   31.8790 O   0  0  0  0  0  0  0  0  0  0  0  0
   49.3860   30.6590   32.3270 H   0  0  0  0  0  0  0  0  0  0  0  0
  1  6  1  0  0  0  0
  2  3  1  0  0  0  0
  2  1  2  0  0  0  0
  3  4  2  0  0  0  0
  4  5  1  0  0  0  0
  5  8  1  0  0  0  0
  6  5  2  0  0  0  0
  7  3  1  0  0  0  0
  9  1  1  0  0  0  0
  9 12  1  0  0  0  0
 10  9  1  0  0  0  0
 11  9  1  0  0  0  0
 12 13  1  0  0  0  0
 12 14  1  0  0  0  0
 15 12  1  0  0  0  0
 15 16  2  0  0  0  0
 16 20  1  0  0  0  0
 17 16  1  0  0  0  0
 18 19  2  0  0  0  0
 18 17  1  0  0  0  0
 19 15  1  0  0  0  0
 21 18  1  0  0  0  0
 22 23  2  0  0  0  0
 23 24  1  0  0  0  0
 23 21  1  0  0  0  0
 24 25  1  0  0  0  0
 26 27  1  0  0  0  0
 26 23  1  0  0  0  0
 28  2  1  0  0  0  0
 29 31  1  0  0  0  0
 29 28  1  0  0  0  0
 30 29  1  0  0  0  0
 32 34  1  0  0  0  0
 32 29  1  0  0  0  0
 33 32  1  0  0  0  0
 35 32  1  0  0  0  0
 36 37  2  0  0  0  0
 37 38  1  0  0  0  0
 37 35  1  0  0  0  0
 39 38  1  0  0  0  0
 40 41  1  0  0  0  0
 40 37  1  0  0  0  0
M  END
>  <minimizedAffinity>
-5.35485363

>  <minimizedRMSD>
1.53192985

$$$$
