
 OpenBabel03252506233D

 29 30  0  0  0  0  0  0  0  0999 V2000
   46.2160   32.9720   45.8280 C   0  0  0  0  0  0  0  0  0  0  0  0
   47.1130   31.9570   45.4470 C   0  0  0  0  0  0  0  0  0  0  0  0
   47.2800   31.1110   46.4840 C   0  0  0  0  0  0  0  0  0  0  0  0
   46.5080   31.5900   47.4810 N   0  0  0  0  0  0  0  0  0  0  0  0
   45.8710   32.7080   47.0800 N   0  0  0  0  0  0  0  0  0  0  0  0
   47.5790   31.8900   44.4660 H   0  0  0  0  0  0  0  0  0  0  0  0
   47.9010   30.2190   46.5360 H   0  0  0  0  0  0  0  0  0  0  0  0
   44.4580   35.9630   44.6440 C   0  0  0  0  0  0  0  0  0  0  0  0
   45.0070   36.1390   43.3510 C   0  0  0  0  0  0  0  0  0  0  0  0
   45.9700   35.2250   42.9140 C   0  0  0  0  0  0  0  0  0  0  0  0
   46.3250   34.2230   43.7480 N   0  0  0  0  0  0  0  0  0  0  0  0
   45.7850   34.0770   44.9780 C   0  0  0  0  0  0  0  0  0  0  0  0
   44.8560   34.9390   45.4280 N   0  0  0  0  0  0  0  0  0  0  0  0
   43.7250   36.6800   44.9440 H   0  0  0  0  0  0  0  0  0  0  0  0
   44.7160   36.9330   42.7090 H   0  0  0  0  0  0  0  0  0  0  0  0
   46.4450   35.2790   41.9430 H   0  0  0  0  0  0  0  0  0  0  0  0
   46.3910   30.9750   48.7970 C   0  0  0  0  0  0  0  0  0  0  0  0
   47.1590   30.2180   48.9290 H   0  0  0  0  0  0  0  0  0  0  0  0
   46.5410   31.7940   49.5240 H   0  0  0  0  0  0  0  0  0  0  0  0
   45.0330   30.3460   48.8910 C   0  0  0  0  0  0  0  0  0  0  0  0
   45.0290   29.6520   49.7590 H   0  0  0  0  0  0  0  0  0  0  0  0
   44.2210   31.0980   48.9430 H   0  0  0  0  0  0  0  0  0  0  0  0
   44.8380   29.6270   47.6950 O   0  0  0  0  0  0  0  0  0  0  0  0
   44.5020   27.2480   46.7670 O   0  0  0  0  0  0  0  0  0  0  0  0
   45.1680   27.9870   47.9010 P   0  0  0  0  0  0  0  0  0  0  0  0
   46.8400   27.6870   47.8000 O   0  0  0  0  0  0  0  0  0  0  0  0
   47.2630   28.2110   47.0850 H   0  0  0  0  0  0  0  0  0  0  0  0
   44.6140   27.5080   49.4000 O   0  0  0  0  0  0  0  0  0  0  0  0
   44.3090   28.2330   49.9910 H   0  0  0  0  0  0  0  0  0  0  0  0
  1  5  2  0  0  0  0
  2  1  1  0  0  0  0
  2  3  2  0  0  0  0
  3  7  1  0  0  0  0
  3  4  1  0  0  0  0
  4 17  1  0  0  0  0
  5  4  1  0  0  0  0
  6  2  1  0  0  0  0
  8 14  1  0  0  0  0
  8 13  1  0  0  0  0
  9  8  2  0  0  0  0
 10  9  1  0  0  0  0
 10 11  2  0  0  0  0
 11 12  1  0  0  0  0
 12 13  2  0  0  0  0
 12  1  1  0  0  0  0
 15  9  1  0  0  0  0
 16 10  1  0  0  0  0
 17 20  1  0  0  0  0
 17 18  1  0  0  0  0
 17 19  1  0  0  0  0
 20 22  1  0  0  0  0
 20 21  1  0  0  0  0
 23 25  1  0  0  0  0
 23 20  1  0  0  0  0
 24 25  2  0  0  0  0
 25 28  1  0  0  0  0
 26 25  1  0  0  0  0
 27 26  1  0  0  0  0
 28 29  1  0  0  0  0
M  END
>  <minimizedAffinity>
-4.67207623

>  <minimizedRMSD>
0.989337265

$$$$
