
 OpenBabel03252503103D

 25 26  0  0  0  0  0  0  0  0999 V2000
   35.8360   29.5540   38.3160 C   0  0  0  0  0  0  0  0  0  0  0  0
   36.3940   29.4190   39.6020 C   0  0  0  0  0  0  0  0  0  0  0  0
   36.5590   28.1090   40.0500 C   0  0  0  0  0  0  0  0  0  0  0  0
   36.2090   27.0590   39.3020 N   0  0  0  0  0  0  0  0  0  0  0  0
   35.6700   27.2440   38.0560 C   0  0  0  0  0  0  0  0  0  0  0  0
   35.4910   28.4920   37.5800 N   0  0  0  0  0  0  0  0  0  0  0  0
   35.6770   30.5390   37.9000 H   0  0  0  0  0  0  0  0  0  0  0  0
   35.4060   26.3550   37.4990 H   0  0  0  0  0  0  0  0  0  0  0  0
   37.1050   27.9040   41.3120 C   0  0  0  0  0  0  0  0  0  0  0  0
   36.6140   27.7870   42.5850 C   0  0  0  0  0  0  0  0  0  0  0  0
   37.3590   27.5980   43.6570 C   0  0  0  0  0  0  0  0  0  0  0  0
   38.7170   27.5180   43.4450 C   0  0  0  0  0  0  0  0  0  0  0  0
   38.8430   27.7310   41.6110 S   0  0  0  0  0  0  0  0  0  0  0  0
   35.5870   27.7880   42.9080 H   0  0  0  0  0  0  0  0  0  0  0  0
   37.2670   27.4770   44.7100 H   0  0  0  0  0  0  0  0  0  0  0  0
   39.6980   27.3840   43.9290 H   0  0  0  0  0  0  0  0  0  0  0  0
   36.7680   30.5810   40.3520 C   0  0  0  0  0  0  0  0  0  0  0  0
   35.8770   30.9310   41.2180 O   0  0  0  0  0  0  0  0  0  0  0  0
   38.0440   30.9530   39.8460 O   0  0  0  0  0  0  0  0  0  0  0  0
   39.3200   32.9340   41.1030 O   0  0  0  0  0  0  0  0  0  0  0  0
   38.4420   32.6430   39.9070 P   0  0  0  0  0  0  0  0  0  0  0  0
   39.3550   33.0340   38.5290 O   0  0  0  0  0  0  0  0  0  0  0  0
   39.3870   34.0230   38.4350 H   0  0  0  0  0  0  0  0  0  0  0  0
   37.0590   33.5900   40.0550 O   0  0  0  0  0  0  0  0  0  0  0  0
   36.5950   33.7750   39.2020 H   0  0  0  0  0  0  0  0  0  0  0  0
  1  2  1  0  0  0  0
  2  3  2  0  0  0  0
  2 17  1  0  0  0  0
  3  9  1  0  0  0  0
  4  3  1  0  0  0  0
  5  4  2  0  0  0  0
  6  5  1  0  0  0  0
  6  1  2  0  0  0  0
  7  1  1  0  0  0  0
  8  5  1  0  0  0  0
  9 13  1  0  0  0  0
  9 10  2  0  0  0  0
 10 14  1  0  0  0  0
 10 11  1  0  0  0  0
 11 15  1  0  0  0  0
 12 11  2  0  0  0  0
 12 16  1  0  0  0  0
 13 12  1  0  0  0  0
 17 18  2  0  0  0  0
 19 21  1  0  0  0  0
 19 17  1  0  0  0  0
 21 24  1  0  0  0  0
 21 20  2  0  0  0  0
 22 21  1  0  0  0  0
 23 22  1  0  0  0  0
 25 24  1  0  0  0  0
M  END
>  <minimizedAffinity>
-4.84665108

$$$$

 OpenBabel03252503103D

 25 26  0  0  0  0  0  0  0  0999 V2000
   37.4650   28.5330   42.6990 C   0  0  0  0  0  0  0  0  0  0  0  0
   37.1390   29.0520   41.4320 C   0  0  0  0  0  0  0  0  0  0  0  0
   36.8980   28.1020   40.4390 C   0  0  0  0  0  0  0  0  0  0  0  0
   36.9730   26.7910   40.6850 N   0  0  0  0  0  0  0  0  0  0  0  0
   37.2940   26.3370   41.9370 C   0  0  0  0  0  0  0  0  0  0  0  0
   37.5360   27.2170   42.9290 N   0  0  0  0  0  0  0  0  0  0  0  0
   37.6660   29.2070   43.5210 H   0  0  0  0  0  0  0  0  0  0  0  0
   37.3400   25.2650   42.0730 H   0  0  0  0  0  0  0  0  0  0  0  0
   36.5710   28.5460   39.1630 C   0  0  0  0  0  0  0  0  0  0  0  0
   35.4110   28.7910   38.4780 C   0  0  0  0  0  0  0  0  0  0  0  0
   35.3570   29.2140   37.2300 C   0  0  0  0  0  0  0  0  0  0  0  0
   36.5660   29.4140   36.6050 C   0  0  0  0  0  0  0  0  0  0  0  0
   37.7750   28.9540   37.9290 S   0  0  0  0  0  0  0  0  0  0  0  0
   34.3970   28.7210   38.8340 H   0  0  0  0  0  0  0  0  0  0  0  0
   34.6470   29.4750   36.4820 H   0  0  0  0  0  0  0  0  0  0  0  0
   37.0560   29.7260   35.6680 H   0  0  0  0  0  0  0  0  0  0  0  0
   37.0550   30.4670   41.2300 C   0  0  0  0  0  0  0  0  0  0  0  0
   35.8500   30.9200   41.3310 O   0  0  0  0  0  0  0  0  0  0  0  0
   38.3900   30.8850   40.9730 O   0  0  0  0  0  0  0  0  0  0  0  0
   39.1170   32.4740   38.9540 O   0  0  0  0  0  0  0  0  0  0  0  0
   38.5970   32.5020   40.3730 P   0  0  0  0  0  0  0  0  0  0  0  0
   37.0760   33.2560   40.3170 O   0  0  0  0  0  0  0  0  0  0  0  0
   37.2070   34.2350   40.2030 H   0  0  0  0  0  0  0  0  0  0  0  0
   39.7090   33.3590   41.3010 O   0  0  0  0  0  0  0  0  0  0  0  0
   39.3350   33.7590   42.1240 H   0  0  0  0  0  0  0  0  0  0  0  0
  1  6  1  0  0  0  0
  1  7  1  0  0  0  0
  2  1  2  0  0  0  0
  3  4  2  0  0  0  0
  3  2  1  0  0  0  0
  4  5  1  0  0  0  0
  5  8  1  0  0  0  0
  5  6  2  0  0  0  0
  9  3  1  0  0  0  0
 10 14  1  0  0  0  0
 10  9  2  0  0  0  0
 11 10  1  0  0  0  0
 12 11  2  0  0  0  0
 12 13  1  0  0  0  0
 13  9  1  0  0  0  0
 15 11  1  0  0  0  0
 16 12  1  0  0  0  0
 17 18  2  0  0  0  0
 17  2  1  0  0  0  0
 19 17  1  0  0  0  0
 20 21  2  0  0  0  0
 21 19  1  0  0  0  0
 21 24  1  0  0  0  0
 22 21  1  0  0  0  0
 23 22  1  0  0  0  0
 24 25  1  0  0  0  0
M  END
>  <minimizedAffinity>
-4.62381887

$$$$

 OpenBabel03252503103D

 25 26  0  0  0  0  0  0  0  0999 V2000
   36.3780   28.7530   38.3750 C   0  0  0  0  0  0  0  0  0  0  0  0
   36.8850   29.8530   39.0930 C   0  0  0  0  0  0  0  0  0  0  0  0
   37.3680   30.9060   38.3160 C   0  0  0  0  0  0  0  0  0  0  0  0
   37.3460   30.8640   36.9810 N   0  0  0  0  0  0  0  0  0  0  0  0
   36.8410   29.7690   36.3290 C   0  0  0  0  0  0  0  0  0  0  0  0
   36.3640   28.7270   37.0380 N   0  0  0  0  0  0  0  0  0  0  0  0
   35.9860   27.8980   38.9080 H   0  0  0  0  0  0  0  0  0  0  0  0
   36.8520   29.7940   35.2480 H   0  0  0  0  0  0  0  0  0  0  0  0
   37.8820   32.0240   38.9610 C   0  0  0  0  0  0  0  0  0  0  0  0
   37.3740   33.2040   39.4330 C   0  0  0  0  0  0  0  0  0  0  0  0
   38.0890   34.1430   40.0220 C   0  0  0  0  0  0  0  0  0  0  0  0
   39.4340   33.8850   40.1550 C   0  0  0  0  0  0  0  0  0  0  0  0
   39.5940   32.2120   39.3800 S   0  0  0  0  0  0  0  0  0  0  0  0
   36.3490   33.5350   39.4410 H   0  0  0  0  0  0  0  0  0  0  0  0
   37.9780   35.1050   40.4630 H   0  0  0  0  0  0  0  0  0  0  0  0
   40.3950   34.2780   40.5260 H   0  0  0  0  0  0  0  0  0  0  0  0
   36.8660   29.8520   40.5250 C   0  0  0  0  0  0  0  0  0  0  0  0
   35.8110   30.4100   41.0170 O   0  0  0  0  0  0  0  0  0  0  0  0
   38.0760   29.2110   40.9110 O   0  0  0  0  0  0  0  0  0  0  0  0
   39.3600   28.1300   42.9880 O   0  0  0  0  0  0  0  0  0  0  0  0
   38.5110   29.3160   42.5900 P   0  0  0  0  0  0  0  0  0  0  0  0
   39.4730   30.6980   42.8130 O   0  0  0  0  0  0  0  0  0  0  0  0
   39.5300   30.8950   43.7860 H   0  0  0  0  0  0  0  0  0  0  0  0
   37.1460   29.3120   43.5740 O   0  0  0  0  0  0  0  0  0  0  0  0
   36.7120   30.1950   43.6770 H   0  0  0  0  0  0  0  0  0  0  0  0
  1  7  1  0  0  0  0
  1  2  1  0  0  0  0
  2 17  1  0  0  0  0
  3  9  1  0  0  0  0
  3  2  2  0  0  0  0
  4  3  1  0  0  0  0
  5  4  2  0  0  0  0
  5  6  1  0  0  0  0
  6  1  2  0  0  0  0
  8  5  1  0  0  0  0
  9 13  1  0  0  0  0
  9 10  2  0  0  0  0
 10 14  1  0  0  0  0
 10 11  1  0  0  0  0
 11 12  2  0  0  0  0
 11 15  1  0  0  0  0
 12 16  1  0  0  0  0
 13 12  1  0  0  0  0
 17 19  1  0  0  0  0
 17 18  2  0  0  0  0
 19 21  1  0  0  0  0
 21 22  1  0  0  0  0
 21 20  2  0  0  0  0
 21 24  1  0  0  0  0
 22 23  1  0  0  0  0
 24 25  1  0  0  0  0
M  END
>  <minimizedAffinity>
-4.61827183

$$$$

 OpenBabel03252503103D

 25 26  0  0  0  0  0  0  0  0999 V2000
   39.0060   30.5180   41.9090 C   0  0  0  0  0  0  0  0  0  0  0  0
   38.0090   30.3440   40.9310 C   0  0  0  0  0  0  0  0  0  0  0  0
   37.2300   29.1950   41.0650 C   0  0  0  0  0  0  0  0  0  0  0  0
   37.4240   28.3240   42.0600 N   0  0  0  0  0  0  0  0  0  0  0  0
   38.4090   28.5390   42.9870 C   0  0  0  0  0  0  0  0  0  0  0  0
   39.1880   29.6360   42.8980 N   0  0  0  0  0  0  0  0  0  0  0  0
   39.6520   31.3840   41.8720 H   0  0  0  0  0  0  0  0  0  0  0  0
   38.5180   27.7980   43.7670 H   0  0  0  0  0  0  0  0  0  0  0  0
   36.2260   28.9630   40.1320 C   0  0  0  0  0  0  0  0  0  0  0  0
   34.9060   29.3030   40.0080 C   0  0  0  0  0  0  0  0  0  0  0  0
   34.1340   28.9430   39.0000 C   0  0  0  0  0  0  0  0  0  0  0  0
   34.7300   28.1760   38.0250 C   0  0  0  0  0  0  0  0  0  0  0  0
   36.4620   28.0110   38.6560 S   0  0  0  0  0  0  0  0  0  0  0  0
   34.3110   29.9230   40.6570 H   0  0  0  0  0  0  0  0  0  0  0  0
   33.1340   29.0500   38.6530 H   0  0  0  0  0  0  0  0  0  0  0  0
   34.5720   27.6530   37.0670 H   0  0  0  0  0  0  0  0  0  0  0  0
   37.8340   31.3210   39.8980 C   0  0  0  0  0  0  0  0  0  0  0  0
   37.0300   32.2730   40.2350 O   0  0  0  0  0  0  0  0  0  0  0  0
   38.6400   30.8660   38.8170 O   0  0  0  0  0  0  0  0  0  0  0  0
   39.9810   33.1440   39.1970 O   0  0  0  0  0  0  0  0  0  0  0  0
   39.9630   31.8910   38.3500 P   0  0  0  0  0  0  0  0  0  0  0  0
   41.4180   31.0730   38.6650 O   0  0  0  0  0  0  0  0  0  0  0  0
   42.1580   31.5410   38.1940 H   0  0  0  0  0  0  0  0  0  0  0  0
   39.8250   32.3700   36.7430 O   0  0  0  0  0  0  0  0  0  0  0  0
   40.1630   31.7110   36.0880 H   0  0  0  0  0  0  0  0  0  0  0  0
  1  6  1  0  0  0  0
  2  3  1  0  0  0  0
  2  1  2  0  0  0  0
  3  4  2  0  0  0  0
  4  5  1  0  0  0  0
  5  8  1  0  0  0  0
  6  5  2  0  0  0  0
  7  1  1  0  0  0  0
  9  3  1  0  0  0  0
 10  9  2  0  0  0  0
 10 14  1  0  0  0  0
 11 10  1  0  0  0  0
 12 13  1  0  0  0  0
 12 11  2  0  0  0  0
 13  9  1  0  0  0  0
 15 11  1  0  0  0  0
 16 12  1  0  0  0  0
 17 18  2  0  0  0  0
 17  2  1  0  0  0  0
 19 17  1  0  0  0  0
 21 22  1  0  0  0  0
 21 19  1  0  0  0  0
 21 20  2  0  0  0  0
 23 22  1  0  0  0  0
 24 21  1  0  0  0  0
 25 24  1  0  0  0  0
M  END
>  <minimizedAffinity>
-4.40981388

$$$$

 OpenBabel03252503103D

 25 26  0  0  0  0  0  0  0  0999 V2000
   36.9470   26.5130   42.0300 C   0  0  0  0  0  0  0  0  0  0  0  0
   38.0280   27.4130   42.0980 C   0  0  0  0  0  0  0  0  0  0  0  0
   39.2950   26.8290   42.0940 C   0  0  0  0  0  0  0  0  0  0  0  0
   39.4610   25.5050   42.0290 N   0  0  0  0  0  0  0  0  0  0  0  0
   38.3750   24.6720   41.9640 C   0  0  0  0  0  0  0  0  0  0  0  0
   37.1310   25.1900   41.9660 N   0  0  0  0  0  0  0  0  0  0  0  0
   35.9340   26.8900   42.0300 H   0  0  0  0  0  0  0  0  0  0  0  0
   38.5750   23.6100   41.9140 H   0  0  0  0  0  0  0  0  0  0  0  0
   40.4070   27.6610   42.1590 C   0  0  0  0  0  0  0  0  0  0  0  0
   41.1640   28.2100   43.1590 C   0  0  0  0  0  0  0  0  0  0  0  0
   42.2010   29.0010   42.9620 C   0  0  0  0  0  0  0  0  0  0  0  0
   42.5160   29.2710   41.6500 C   0  0  0  0  0  0  0  0  0  0  0  0
   41.2270   28.3140   40.7300 S   0  0  0  0  0  0  0  0  0  0  0  0
   41.0720   28.0660   44.2220 H   0  0  0  0  0  0  0  0  0  0  0  0
   42.9340   29.5440   43.5090 H   0  0  0  0  0  0  0  0  0  0  0  0
   43.2070   29.8110   40.9820 H   0  0  0  0  0  0  0  0  0  0  0  0
   37.7910   28.8240   42.1470 C   0  0  0  0  0  0  0  0  0  0  0  0
   37.6810   29.2760   43.3510 O   0  0  0  0  0  0  0  0  0  0  0  0
   37.7550   29.2410   40.7870 O   0  0  0  0  0  0  0  0  0  0  0  0
   37.8440   31.9060   40.6470 O   0  0  0  0  0  0  0  0  0  0  0  0
   36.9190   30.7260   40.4520 P   0  0  0  0  0  0  0  0  0  0  0  0
   36.4640   30.7330   38.8150 O   0  0  0  0  0  0  0  0  0  0  0  0
   35.7950   31.4540   38.6710 H   0  0  0  0  0  0  0  0  0  0  0  0
   35.6090   30.9360   41.4870 O   0  0  0  0  0  0  0  0  0  0  0  0
   34.7870   30.4620   41.2100 H   0  0  0  0  0  0  0  0  0  0  0  0
  1  7  1  0  0  0  0
  1  2  1  0  0  0  0
  2 17  1  0  0  0  0
  3  2  2  0  0  0  0
  3  9  1  0  0  0  0
  4  3  1  0  0  0  0
  5  6  1  0  0  0  0
  5  4  2  0  0  0  0
  6  1  2  0  0  0  0
  8  5  1  0  0  0  0
  9 10  2  0  0  0  0
 10 14  1  0  0  0  0
 11 10  1  0  0  0  0
 11 15  1  0  0  0  0
 12 11  2  0  0  0  0
 13 12  1  0  0  0  0
 13  9  1  0  0  0  0
 16 12  1  0  0  0  0
 17 18  2  0  0  0  0
 19 17  1  0  0  0  0
 21 20  2  0  0  0  0
 21 19  1  0  0  0  0
 21 24  1  0  0  0  0
 22 21  1  0  0  0  0
 23 22  1  0  0  0  0
 25 24  1  0  0  0  0
M  END
>  <minimizedAffinity>
-4.31179619

$$$$

 OpenBabel03252503103D

 25 26  0  0  0  0  0  0  0  0999 V2000
   35.1390   29.1010   35.8070 C   0  0  0  0  0  0  0  0  0  0  0  0
   35.8630   29.3050   36.9970 C   0  0  0  0  0  0  0  0  0  0  0  0
   35.1280   29.1770   38.1760 C   0  0  0  0  0  0  0  0  0  0  0  0
   33.8260   28.8800   38.1650 N   0  0  0  0  0  0  0  0  0  0  0  0
   33.1670   28.6910   36.9790 C   0  0  0  0  0  0  0  0  0  0  0  0
   33.8350   28.8040   35.8140 N   0  0  0  0  0  0  0  0  0  0  0  0
   35.6400   29.1840   34.8520 H   0  0  0  0  0  0  0  0  0  0  0  0
   32.1130   28.4530   37.0370 H   0  0  0  0  0  0  0  0  0  0  0  0
   35.7830   29.3660   39.3870 C   0  0  0  0  0  0  0  0  0  0  0  0
   36.0120   30.4260   40.2230 C   0  0  0  0  0  0  0  0  0  0  0  0
   36.6910   30.3530   41.3520 C   0  0  0  0  0  0  0  0  0  0  0  0
   37.1870   29.1130   41.6810 C   0  0  0  0  0  0  0  0  0  0  0  0
   36.6120   28.0690   40.2650 S   0  0  0  0  0  0  0  0  0  0  0  0
   35.6630   31.4400   40.1280 H   0  0  0  0  0  0  0  0  0  0  0  0
   37.0130   30.9700   42.1570 H   0  0  0  0  0  0  0  0  0  0  0  0
   37.7650   28.5420   42.4270 H   0  0  0  0  0  0  0  0  0  0  0  0
   37.2630   29.6030   36.9490 C   0  0  0  0  0  0  0  0  0  0  0  0
   38.0050   28.5470   36.9530 O   0  0  0  0  0  0  0  0  0  0  0  0
   37.3390   31.0240   36.9180 O   0  0  0  0  0  0  0  0  0  0  0  0
   39.2800   30.7280   38.7270 O   0  0  0  0  0  0  0  0  0  0  0  0
   38.6230   31.7540   37.8310 P   0  0  0  0  0  0  0  0  0  0  0  0
   39.8190   32.2880   36.7490 O   0  0  0  0  0  0  0  0  0  0  0  0
   40.4340   32.9040   37.2300 H   0  0  0  0  0  0  0  0  0  0  0  0
   38.0460   32.9890   38.8170 O   0  0  0  0  0  0  0  0  0  0  0  0
   37.9340   33.8590   38.3620 H   0  0  0  0  0  0  0  0  0  0  0  0
  1  6  2  0  0  0  0
  1  2  1  0  0  0  0
  2  3  2  0  0  0  0
  3  9  1  0  0  0  0
  4  3  1  0  0  0  0
  5  8  1  0  0  0  0
  5  4  2  0  0  0  0
  6  5  1  0  0  0  0
  7  1  1  0  0  0  0
  9 10  2  0  0  0  0
  9 13  1  0  0  0  0
 10 11  1  0  0  0  0
 11 12  2  0  0  0  0
 11 15  1  0  0  0  0
 12 16  1  0  0  0  0
 13 12  1  0  0  0  0
 14 10  1  0  0  0  0
 17 18  2  0  0  0  0
 17  2  1  0  0  0  0
 19 17  1  0  0  0  0
 19 21  1  0  0  0  0
 21 20  2  0  0  0  0
 21 24  1  0  0  0  0
 22 23  1  0  0  0  0
 22 21  1  0  0  0  0
 25 24  1  0  0  0  0
M  END
>  <minimizedAffinity>
-4.27265549

$$$$

 OpenBabel03252503103D

 25 26  0  0  0  0  0  0  0  0999 V2000
   36.7570   27.2330   41.6460 C   0  0  0  0  0  0  0  0  0  0  0  0
   36.9530   28.3980   40.8800 C   0  0  0  0  0  0  0  0  0  0  0  0
   37.4970   29.4840   41.5670 C   0  0  0  0  0  0  0  0  0  0  0  0
   37.8070   29.4120   42.8650 N   0  0  0  0  0  0  0  0  0  0  0  0
   37.5970   28.2540   43.5660 C   0  0  0  0  0  0  0  0  0  0  0  0
   37.0730   27.1790   42.9440 N   0  0  0  0  0  0  0  0  0  0  0  0
   36.3390   26.3500   41.1830 H   0  0  0  0  0  0  0  0  0  0  0  0
   37.8680   28.2590   44.6130 H   0  0  0  0  0  0  0  0  0  0  0  0
   37.7170   30.6660   40.8700 C   0  0  0  0  0  0  0  0  0  0  0  0
   36.9600   31.7510   40.5170 C   0  0  0  0  0  0  0  0  0  0  0  0
   37.4090   32.7790   39.8230 C   0  0  0  0  0  0  0  0  0  0  0  0
   38.7310   32.7250   39.4460 C   0  0  0  0  0  0  0  0  0  0  0  0
   39.2770   31.1050   40.1540 S   0  0  0  0  0  0  0  0  0  0  0  0
   35.9340   31.9600   40.7660 H   0  0  0  0  0  0  0  0  0  0  0  0
   37.0760   33.7080   39.4230 H   0  0  0  0  0  0  0  0  0  0  0  0
   39.5380   33.2520   38.9110 H   0  0  0  0  0  0  0  0  0  0  0  0
   36.6190   28.4120   39.4870 C   0  0  0  0  0  0  0  0  0  0  0  0
   37.6150   28.1010   38.7260 O   0  0  0  0  0  0  0  0  0  0  0  0
   35.2470   28.7870   39.4390 O   0  0  0  0  0  0  0  0  0  0  0  0
   35.0410   29.2810   36.8230 O   0  0  0  0  0  0  0  0  0  0  0  0
   34.4120   28.4870   37.9460 P   0  0  0  0  0  0  0  0  0  0  0  0
   34.5960   26.8480   37.5430 O   0  0  0  0  0  0  0  0  0  0  0  0
   33.9410   26.6160   36.8310 H   0  0  0  0  0  0  0  0  0  0  0  0
   32.7970   28.9510   38.0460 O   0  0  0  0  0  0  0  0  0  0  0  0
   32.2030   28.2790   38.4620 H   0  0  0  0  0  0  0  0  0  0  0  0
  1  6  1  0  0  0  0
  2  3  1  0  0  0  0
  2  1  2  0  0  0  0
  3  4  2  0  0  0  0
  4  5  1  0  0  0  0
  5  8  1  0  0  0  0
  6  5  2  0  0  0  0
  7  1  1  0  0  0  0
  9  3  1  0  0  0  0
 10 14  1  0  0  0  0
 10  9  2  0  0  0  0
 11 10  1  0  0  0  0
 12 11  2  0  0  0  0
 12 13  1  0  0  0  0
 13  9  1  0  0  0  0
 15 11  1  0  0  0  0
 16 12  1  0  0  0  0
 17  2  1  0  0  0  0
 18 17  2  0  0  0  0
 19 17  1  0  0  0  0
 20 21  2  0  0  0  0
 21 24  1  0  0  0  0
 21 19  1  0  0  0  0
 22 21  1  0  0  0  0
 23 22  1  0  0  0  0
 24 25  1  0  0  0  0
M  END
>  <minimizedAffinity>
-4.23391199

$$$$

 OpenBabel03252503103D

 25 26  0  0  0  0  0  0  0  0999 V2000
   37.3590   29.1310   41.4910 C   0  0  0  0  0  0  0  0  0  0  0  0
   37.4310   27.8530   40.9060 C   0  0  0  0  0  0  0  0  0  0  0  0
   37.6510   26.7990   41.7930 C   0  0  0  0  0  0  0  0  0  0  0  0
   37.7830   26.9990   43.1070 N   0  0  0  0  0  0  0  0  0  0  0  0
   37.7050   28.2650   43.6270 C   0  0  0  0  0  0  0  0  0  0  0  0
   37.4940   29.3150   42.8090 N   0  0  0  0  0  0  0  0  0  0  0  0
   37.1920   29.9990   40.8680 H   0  0  0  0  0  0  0  0  0  0  0  0
   37.8200   28.3620   44.6980 H   0  0  0  0  0  0  0  0  0  0  0  0
   37.7320   25.5090   41.2810 C   0  0  0  0  0  0  0  0  0  0  0  0
   36.8550   24.4770   41.0810 C   0  0  0  0  0  0  0  0  0  0  0  0
   37.1840   23.3060   40.5700 C   0  0  0  0  0  0  0  0  0  0  0  0
   38.5070   23.1460   40.2250 C   0  0  0  0  0  0  0  0  0  0  0  0
   39.2350   24.7840   40.6840 S   0  0  0  0  0  0  0  0  0  0  0  0
   35.7930   24.4580   41.2590 H   0  0  0  0  0  0  0  0  0  0  0  0
   36.7470   22.3710   40.3120 H   0  0  0  0  0  0  0  0  0  0  0  0
   39.2510   22.4490   39.8040 H   0  0  0  0  0  0  0  0  0  0  0  0
   37.2640   27.6940   39.4920 C   0  0  0  0  0  0  0  0  0  0  0  0
   38.3510   27.9020   38.8290 O   0  0  0  0  0  0  0  0  0  0  0  0
   35.8930   27.3560   39.3180 O   0  0  0  0  0  0  0  0  0  0  0  0
   35.6080   29.6780   38.0300 O   0  0  0  0  0  0  0  0  0  0  0  0
   34.8350   28.6370   38.8080 P   0  0  0  0  0  0  0  0  0  0  0  0
   33.6810   27.9930   37.7410 O   0  0  0  0  0  0  0  0  0  0  0  0
   32.9440   28.6510   37.6300 H   0  0  0  0  0  0  0  0  0  0  0  0
   34.1340   29.4110   40.1280 O   0  0  0  0  0  0  0  0  0  0  0  0
   33.3360   28.9560   40.4930 H   0  0  0  0  0  0  0  0  0  0  0  0
  1  6  1  0  0  0  0
  2  1  2  0  0  0  0
  2  3  1  0  0  0  0
  3  4  2  0  0  0  0
  4  5  1  0  0  0  0
  5  8  1  0  0  0  0
  6  5  2  0  0  0  0
  7  1  1  0  0  0  0
  9  3  1  0  0  0  0
 10 14  1  0  0  0  0
 10  9  2  0  0  0  0
 11 10  1  0  0  0  0
 12 11  2  0  0  0  0
 12 13  1  0  0  0  0
 13  9  1  0  0  0  0
 15 11  1  0  0  0  0
 16 12  1  0  0  0  0
 17  2  1  0  0  0  0
 18 17  2  0  0  0  0
 19 17  1  0  0  0  0
 20 21  2  0  0  0  0
 21 19  1  0  0  0  0
 21 24  1  0  0  0  0
 22 21  1  0  0  0  0
 23 22  1  0  0  0  0
 24 25  1  0  0  0  0
M  END
>  <minimizedAffinity>
-4.21917009

$$$$

 OpenBabel03252503103D

 25 26  0  0  0  0  0  0  0  0999 V2000
   36.2990   29.1570   38.5690 C   0  0  0  0  0  0  0  0  0  0  0  0
   37.1480   30.2700   38.7190 C   0  0  0  0  0  0  0  0  0  0  0  0
   37.1140   30.8850   39.9710 C   0  0  0  0  0  0  0  0  0  0  0  0
   36.3260   30.4400   40.9540 N   0  0  0  0  0  0  0  0  0  0  0  0
   35.5170   29.3520   40.7560 C   0  0  0  0  0  0  0  0  0  0  0  0
   35.5160   28.7240   39.5630 N   0  0  0  0  0  0  0  0  0  0  0  0
   36.2690   28.6270   37.6270 H   0  0  0  0  0  0  0  0  0  0  0  0
   34.9030   29.0410   41.5900 H   0  0  0  0  0  0  0  0  0  0  0  0
   37.9290   31.9900   40.1870 C   0  0  0  0  0  0  0  0  0  0  0  0
   37.9980   33.2680   39.7000 C   0  0  0  0  0  0  0  0  0  0  0  0
   38.8980   34.1590   40.0680 C   0  0  0  0  0  0  0  0  0  0  0  0
   39.8130   33.7430   41.0070 C   0  0  0  0  0  0  0  0  0  0  0  0
   39.2910   31.9960   41.3200 S   0  0  0  0  0  0  0  0  0  0  0  0
   37.3390   33.7520   38.9990 H   0  0  0  0  0  0  0  0  0  0  0  0
   39.1830   35.1660   39.8750 H   0  0  0  0  0  0  0  0  0  0  0  0
   40.6890   34.0420   41.6060 H   0  0  0  0  0  0  0  0  0  0  0  0
   37.9850   30.6910   37.6370 C   0  0  0  0  0  0  0  0  0  0  0  0
   37.3770   31.4610   36.7980 O   0  0  0  0  0  0  0  0  0  0  0  0
   39.2450   30.0760   37.8820 O   0  0  0  0  0  0  0  0  0  0  0  0
   41.4010   31.3590   38.7980 O   0  0  0  0  0  0  0  0  0  0  0  0
   40.6560   31.0240   37.5250 P   0  0  0  0  0  0  0  0  0  0  0  0
   41.7100   30.0890   36.5780 O   0  0  0  0  0  0  0  0  0  0  0  0
   42.3980   30.6850   36.1780 H   0  0  0  0  0  0  0  0  0  0  0  0
   40.2420   32.4790   36.7860 O   0  0  0  0  0  0  0  0  0  0  0  0
   40.0920   32.4150   35.8110 H   0  0  0  0  0  0  0  0  0  0  0  0
  1  2  2  0  0  0  0
  1  6  1  0  0  0  0
  2  3  1  0  0  0  0
  3  9  1  0  0  0  0
  3  4  2  0  0  0  0
  5  4  1  0  0  0  0
  5  8  1  0  0  0  0
  6  5  2  0  0  0  0
  7  1  1  0  0  0  0
  9 13  1  0  0  0  0
 10 11  1  0  0  0  0
 10  9  2  0  0  0  0
 11 12  2  0  0  0  0
 12 13  1  0  0  0  0
 12 16  1  0  0  0  0
 14 10  1  0  0  0  0
 15 11  1  0  0  0  0
 17 19  1  0  0  0  0
 17  2  1  0  0  0  0
 18 17  2  0  0  0  0
 21 19  1  0  0  0  0
 21 20  2  0  0  0  0
 22 21  1  0  0  0  0
 23 22  1  0  0  0  0
 24 21  1  0  0  0  0
 25 24  1  0  0  0  0
M  END
>  <minimizedAffinity>
-4.21726942

$$$$
