
 OpenBabel03252509303D

 19 19  0  0  0  0  0  0  0  0999 V2000
   37.8810   30.0270   42.2380 C   0  0  0  0  0  0  0  0  0  0  0  0
   37.8510   30.8580   43.0010 H   0  0  0  0  0  0  0  0  0  0  0  0
   36.8430   29.6160   42.2250 H   0  0  0  0  0  0  0  0  0  0  0  0
   41.0690   28.2440   43.0060 C   0  0  0  0  0  0  0  0  0  0  0  0
   40.1840   29.2410   42.5580 C   0  0  0  0  0  0  0  0  0  0  0  0
   38.8250   29.0090   42.6950 C   0  0  0  0  0  0  0  0  0  0  0  0
   38.4070   27.8260   43.2600 N   0  0  0  0  0  0  0  0  0  0  0  0
   39.2940   26.8900   43.6800 C   0  0  0  0  0  0  0  0  0  0  0  0
   40.6060   27.1030   43.5510 N   0  0  0  0  0  0  0  0  0  0  0  0
   42.1160   28.5100   42.8590 H   0  0  0  0  0  0  0  0  0  0  0  0
   40.5230   30.1780   42.1100 H   0  0  0  0  0  0  0  0  0  0  0  0
   38.9440   25.9660   44.1200 H   0  0  0  0  0  0  0  0  0  0  0  0
   38.2370   30.5220   40.9840 O   0  0  0  0  0  0  0  0  0  0  0  0
   36.6310   30.9250   38.9630 O   0  0  0  0  0  0  0  0  0  0  0  0
   36.8830   31.3430   40.3840 P   0  0  0  0  0  0  0  0  0  0  0  0
   37.1850   32.9960   40.5410 O   0  0  0  0  0  0  0  0  0  0  0  0
   38.1040   33.2290   40.2820 H   0  0  0  0  0  0  0  0  0  0  0  0
   35.5440   30.8910   41.3080 O   0  0  0  0  0  0  0  0  0  0  0  0
   35.4290   29.9090   41.1810 H   0  0  0  0  0  0  0  0  0  0  0  0
  1  6  1  0  0  0  0
  1  2  1  0  0  0  0
  3  1  1  0  0  0  0
  4  9  1  0  0  0  0
  5  6  1  0  0  0  0
  5  4  2  0  0  0  0
  6  7  2  0  0  0  0
  7  8  1  0  0  0  0
  8 12  1  0  0  0  0
  9  8  2  0  0  0  0
 10  4  1  0  0  0  0
 11  5  1  0  0  0  0
 13  1  1  0  0  0  0
 14 15  2  0  0  0  0
 15 16  1  0  0  0  0
 15 13  1  0  0  0  0
 15 18  1  0  0  0  0
 17 16  1  0  0  0  0
 19 18  1  0  0  0  0
M  END
>  <minimizedAffinity>
-4.09541798

$$$$

 OpenBabel03252509303D

 19 19  0  0  0  0  0  0  0  0999 V2000
   38.4560   29.6850   40.3550 C   0  0  0  0  0  0  0  0  0  0  0  0
   37.6260   29.4350   39.6320 H   0  0  0  0  0  0  0  0  0  0  0  0
   39.3970   29.4810   39.7910 H   0  0  0  0  0  0  0  0  0  0  0  0
   39.3690   27.6090   43.3190 C   0  0  0  0  0  0  0  0  0  0  0  0
   39.4990   28.4680   42.2140 C   0  0  0  0  0  0  0  0  0  0  0  0
   38.3510   28.7950   41.5090 C   0  0  0  0  0  0  0  0  0  0  0  0
   37.1480   28.2710   41.9210 N   0  0  0  0  0  0  0  0  0  0  0  0
   37.0650   27.4460   42.9940 C   0  0  0  0  0  0  0  0  0  0  0  0
   38.1650   27.1230   43.6790 N   0  0  0  0  0  0  0  0  0  0  0  0
   40.3190   27.4060   43.8120 H   0  0  0  0  0  0  0  0  0  0  0  0
   40.4580   28.8810   41.8920 H   0  0  0  0  0  0  0  0  0  0  0  0
   36.1080   27.0440   43.3000 H   0  0  0  0  0  0  0  0  0  0  0  0
   38.3860   31.0240   40.7390 O   0  0  0  0  0  0  0  0  0  0  0  0
   36.5580   31.0220   38.8730 O   0  0  0  0  0  0  0  0  0  0  0  0
   36.8810   31.6010   40.2200 P   0  0  0  0  0  0  0  0  0  0  0  0
   36.9630   33.2870   40.2120 O   0  0  0  0  0  0  0  0  0  0  0  0
   37.8130   33.6120   39.8400 H   0  0  0  0  0  0  0  0  0  0  0  0
   35.7110   31.0670   41.3140 O   0  0  0  0  0  0  0  0  0  0  0  0
   35.7230   30.0710   41.2800 H   0  0  0  0  0  0  0  0  0  0  0  0
  1 13  1  0  0  0  0
  1  6  1  0  0  0  0
  2  1  1  0  0  0  0
  3  1  1  0  0  0  0
  4  9  1  0  0  0  0
  4 10  1  0  0  0  0
  5  4  2  0  0  0  0
  6  7  2  0  0  0  0
  6  5  1  0  0  0  0
  7  8  1  0  0  0  0
  8 12  1  0  0  0  0
  8  9  2  0  0  0  0
 11  5  1  0  0  0  0
 14 15  2  0  0  0  0
 15 13  1  0  0  0  0
 15 18  1  0  0  0  0
 16 15  1  0  0  0  0
 17 16  1  0  0  0  0
 19 18  1  0  0  0  0
M  END
>  <minimizedAffinity>
-4.09340525

$$$$

 OpenBabel03252509303D

 19 19  0  0  0  0  0  0  0  0999 V2000
   37.4680   30.6300   40.9560 C   0  0  0  0  0  0  0  0  0  0  0  0
   36.4680   31.1170   41.1500 H   0  0  0  0  0  0  0  0  0  0  0  0
   37.4970   30.4690   39.8520 H   0  0  0  0  0  0  0  0  0  0  0  0
   38.1630   28.0280   43.5400 C   0  0  0  0  0  0  0  0  0  0  0  0
   38.1410   29.2730   42.8880 C   0  0  0  0  0  0  0  0  0  0  0  0
   37.5060   29.3490   41.6580 C   0  0  0  0  0  0  0  0  0  0  0  0
   36.9300   28.2140   41.1370 N   0  0  0  0  0  0  0  0  0  0  0  0
   36.9730   27.0310   41.7990 C   0  0  0  0  0  0  0  0  0  0  0  0
   37.5840   26.9460   42.9850 N   0  0  0  0  0  0  0  0  0  0  0  0
   38.6820   28.0610   44.4980 H   0  0  0  0  0  0  0  0  0  0  0  0
   38.6010   30.1710   43.3070 H   0  0  0  0  0  0  0  0  0  0  0  0
   36.5140   26.1490   41.3710 H   0  0  0  0  0  0  0  0  0  0  0  0
   38.5070   31.4650   41.3660 O   0  0  0  0  0  0  0  0  0  0  0  0
   39.1530   32.7670   39.1950 O   0  0  0  0  0  0  0  0  0  0  0  0
   38.3660   32.8940   40.4690 P   0  0  0  0  0  0  0  0  0  0  0  0
   38.8980   34.1600   41.4500 O   0  0  0  0  0  0  0  0  0  0  0  0
   39.7130   33.9230   41.9460 H   0  0  0  0  0  0  0  0  0  0  0  0
   36.7410   33.0980   40.0620 O   0  0  0  0  0  0  0  0  0  0  0  0
   36.4880   32.3160   39.4970 H   0  0  0  0  0  0  0  0  0  0  0  0
  1  2  1  0  0  0  0
  1 13  1  0  0  0  0
  1  6  1  0  0  0  0
  3  1  1  0  0  0  0
  4 10  1  0  0  0  0
  5 11  1  0  0  0  0
  5  4  2  0  0  0  0
  6  5  1  0  0  0  0
  7  6  2  0  0  0  0
  7  8  1  0  0  0  0
  8  9  2  0  0  0  0
  9  4  1  0  0  0  0
 12  8  1  0  0  0  0
 14 15  2  0  0  0  0
 15 13  1  0  0  0  0
 15 16  1  0  0  0  0
 16 17  1  0  0  0  0
 18 15  1  0  0  0  0
 19 18  1  0  0  0  0
M  END
>  <minimizedAffinity>
-3.98535991

$$$$

 OpenBabel03252509303D

 19 19  0  0  0  0  0  0  0  0999 V2000
   36.7290   27.7920   42.6520 C   0  0  0  0  0  0  0  0  0  0  0  0
   36.0130   27.7110   43.5210 H   0  0  0  0  0  0  0  0  0  0  0  0
   36.1070   27.5800   41.7500 H   0  0  0  0  0  0  0  0  0  0  0  0
   38.6080   24.5800   42.3560 C   0  0  0  0  0  0  0  0  0  0  0  0
   37.5960   25.5420   42.1900 C   0  0  0  0  0  0  0  0  0  0  0  0
   37.7640   26.7720   42.8060 C   0  0  0  0  0  0  0  0  0  0  0  0
   38.9040   26.9950   43.5430 N   0  0  0  0  0  0  0  0  0  0  0  0
   39.8580   26.0390   43.6780 C   0  0  0  0  0  0  0  0  0  0  0  0
   39.7040   24.8500   43.0900 N   0  0  0  0  0  0  0  0  0  0  0  0
   38.3920   23.6450   41.8390 H   0  0  0  0  0  0  0  0  0  0  0  0
   36.6930   25.3590   41.6030 H   0  0  0  0  0  0  0  0  0  0  0  0
   40.7470   26.2340   44.2640 H   0  0  0  0  0  0  0  0  0  0  0  0
   37.2820   29.0710   42.5880 O   0  0  0  0  0  0  0  0  0  0  0  0
   37.9670   30.2590   40.3650 O   0  0  0  0  0  0  0  0  0  0  0  0
   36.7750   29.7450   41.1200 P   0  0  0  0  0  0  0  0  0  0  0  0
   35.6520   30.9520   41.4800 O   0  0  0  0  0  0  0  0  0  0  0  0
   35.9340   31.5000   42.2470 H   0  0  0  0  0  0  0  0  0  0  0  0
   36.0600   28.5230   40.2000 O   0  0  0  0  0  0  0  0  0  0  0  0
   36.7680   27.8410   40.0340 H   0  0  0  0  0  0  0  0  0  0  0  0
  1  6  1  0  0  0  0
  1  2  1  0  0  0  0
  3  1  1  0  0  0  0
  4  9  1  0  0  0  0
  5  4  2  0  0  0  0
  5  6  1  0  0  0  0
  6  7  2  0  0  0  0
  7  8  1  0  0  0  0
  8 12  1  0  0  0  0
  9  8  2  0  0  0  0
 10  4  1  0  0  0  0
 11  5  1  0  0  0  0
 13  1  1  0  0  0  0
 14 15  2  0  0  0  0
 15 16  1  0  0  0  0
 15 13  1  0  0  0  0
 16 17  1  0  0  0  0
 18 15  1  0  0  0  0
 19 18  1  0  0  0  0
M  END
>  <minimizedAffinity>
-3.9307344

$$$$

 OpenBabel03252509303D

 19 19  0  0  0  0  0  0  0  0999 V2000
   37.8430   27.8280   40.9390 C   0  0  0  0  0  0  0  0  0  0  0  0
   38.7940   27.8860   40.3350 H   0  0  0  0  0  0  0  0  0  0  0  0
   38.1570   28.0500   41.9870 H   0  0  0  0  0  0  0  0  0  0  0  0
   36.8470   24.3450   41.8390 C   0  0  0  0  0  0  0  0  0  0  0  0
   37.3630   25.6470   41.9590 C   0  0  0  0  0  0  0  0  0  0  0  0
   37.3130   26.4690   40.8440 C   0  0  0  0  0  0  0  0  0  0  0  0
   36.7650   25.9790   39.6820 N   0  0  0  0  0  0  0  0  0  0  0  0
   36.2770   24.7150   39.6080 C   0  0  0  0  0  0  0  0  0  0  0  0
   36.3210   23.9140   40.6760 N   0  0  0  0  0  0  0  0  0  0  0  0
   36.9280   23.7700   42.7610 H   0  0  0  0  0  0  0  0  0  0  0  0
   37.7980   26.0300   42.8850 H   0  0  0  0  0  0  0  0  0  0  0  0
   35.8500   24.3490   38.6830 H   0  0  0  0  0  0  0  0  0  0  0  0
   36.9150   28.7660   40.4880 O   0  0  0  0  0  0  0  0  0  0  0  0
   38.1860   30.9260   41.2280 O   0  0  0  0  0  0  0  0  0  0  0  0
   36.9910   30.0770   41.5570 P   0  0  0  0  0  0  0  0  0  0  0  0
   37.0390   29.4490   43.1220 O   0  0  0  0  0  0  0  0  0  0  0  0
   37.6400   28.6740   43.1900 H   0  0  0  0  0  0  0  0  0  0  0  0
   35.6050   31.0150   41.3340 O   0  0  0  0  0  0  0  0  0  0  0  0
   35.6320   31.3430   40.3930 H   0  0  0  0  0  0  0  0  0  0  0  0
  1  3  1  0  0  0  0
  2  1  1  0  0  0  0
  4  5  1  0  0  0  0
  4 10  1  0  0  0  0
  5 11  1  0  0  0  0
  6  1  1  0  0  0  0
  6  5  2  0  0  0  0
  7  6  1  0  0  0  0
  8  7  2  0  0  0  0
  8  9  1  0  0  0  0
  9  4  2  0  0  0  0
 12  8  1  0  0  0  0
 13  1  1  0  0  0  0
 13 15  1  0  0  0  0
 14 15  2  0  0  0  0
 15 16  1  0  0  0  0
 16 17  1  0  0  0  0
 18 15  1  0  0  0  0
 19 18  1  0  0  0  0
M  END
>  <minimizedAffinity>
-3.92502332

$$$$

 OpenBabel03252509303D

 19 19  0  0  0  0  0  0  0  0999 V2000
   36.0090   29.7420   40.8000 C   0  0  0  0  0  0  0  0  0  0  0  0
   34.9270   29.4330   40.8870 H   0  0  0  0  0  0  0  0  0  0  0  0
   36.2620   29.5950   39.7230 H   0  0  0  0  0  0  0  0  0  0  0  0
   37.5090   26.6590   42.2730 C   0  0  0  0  0  0  0  0  0  0  0  0
   36.7220   27.4870   41.4540 C   0  0  0  0  0  0  0  0  0  0  0  0
   36.8150   28.8570   41.6370 C   0  0  0  0  0  0  0  0  0  0  0  0
   37.6670   29.3410   42.6030 N   0  0  0  0  0  0  0  0  0  0  0  0
   38.4100   28.5070   43.3740 C   0  0  0  0  0  0  0  0  0  0  0  0
   38.3260   27.1850   43.2060 N   0  0  0  0  0  0  0  0  0  0  0  0
   37.3720   25.5980   42.0610 H   0  0  0  0  0  0  0  0  0  0  0  0
   36.0480   27.0950   40.6880 H   0  0  0  0  0  0  0  0  0  0  0  0
   39.0730   28.9090   44.1290 H   0  0  0  0  0  0  0  0  0  0  0  0
   36.1700   31.0770   41.1710 O   0  0  0  0  0  0  0  0  0  0  0  0
   36.8100   31.2600   38.6440 O   0  0  0  0  0  0  0  0  0  0  0  0
   37.1690   31.7890   40.0040 P   0  0  0  0  0  0  0  0  0  0  0  0
   38.7660   31.4590   40.4390 O   0  0  0  0  0  0  0  0  0  0  0  0
   38.8810   30.5310   40.7410 H   0  0  0  0  0  0  0  0  0  0  0  0
   36.8810   33.4520   40.0120 O   0  0  0  0  0  0  0  0  0  0  0  0
   35.9250   33.5770   39.7610 H   0  0  0  0  0  0  0  0  0  0  0  0
  1  2  1  0  0  0  0
  1 13  1  0  0  0  0
  1  6  1  0  0  0  0
  3  1  1  0  0  0  0
  4  9  1  0  0  0  0
  5  6  1  0  0  0  0
  5  4  2  0  0  0  0
  6  7  2  0  0  0  0
  7  8  1  0  0  0  0
  8 12  1  0  0  0  0
  9  8  2  0  0  0  0
 10  4  1  0  0  0  0
 11  5  1  0  0  0  0
 14 15  2  0  0  0  0
 15 18  1  0  0  0  0
 15 16  1  0  0  0  0
 15 13  1  0  0  0  0
 16 17  1  0  0  0  0
 19 18  1  0  0  0  0
M  END
>  <minimizedAffinity>
-3.86801958

$$$$

 OpenBabel03252509303D

 19 19  0  0  0  0  0  0  0  0999 V2000
   38.9660   30.2910   41.3340 C   0  0  0  0  0  0  0  0  0  0  0  0
   38.6030   30.3500   42.4010 H   0  0  0  0  0  0  0  0  0  0  0  0
   39.8670   29.6330   41.3750 H   0  0  0  0  0  0  0  0  0  0  0  0
   41.0040   33.2370   40.2850 C   0  0  0  0  0  0  0  0  0  0  0  0
   40.6760   31.9370   40.7090 C   0  0  0  0  0  0  0  0  0  0  0  0
   39.3370   31.6340   40.8940 C   0  0  0  0  0  0  0  0  0  0  0  0
   38.3970   32.6100   40.6560 N   0  0  0  0  0  0  0  0  0  0  0  0
   38.7550   33.8530   40.2480 C   0  0  0  0  0  0  0  0  0  0  0  0
   40.0440   34.1550   40.0670 N   0  0  0  0  0  0  0  0  0  0  0  0
   42.0770   33.3860   40.1660 H   0  0  0  0  0  0  0  0  0  0  0  0
   41.4280   31.1660   40.8960 H   0  0  0  0  0  0  0  0  0  0  0  0
   38.0000   34.6070   40.0660 H   0  0  0  0  0  0  0  0  0  0  0  0
   37.9840   29.7400   40.5110 O   0  0  0  0  0  0  0  0  0  0  0  0
   35.7390   28.4820   40.9640 O   0  0  0  0  0  0  0  0  0  0  0  0
   36.5720   29.6390   41.4400 P   0  0  0  0  0  0  0  0  0  0  0  0
   35.7760   31.1220   41.3120 O   0  0  0  0  0  0  0  0  0  0  0  0
   35.7810   31.4640   40.3900 H   0  0  0  0  0  0  0  0  0  0  0  0
   37.0180   29.3390   43.0400 O   0  0  0  0  0  0  0  0  0  0  0  0
   37.4910   28.4610   43.0440 H   0  0  0  0  0  0  0  0  0  0  0  0
  1  3  1  0  0  0  0
  1  2  1  0  0  0  0
  4  5  1  0  0  0  0
  5  6  2  0  0  0  0
  5 11  1  0  0  0  0
  6  1  1  0  0  0  0
  7  6  1  0  0  0  0
  8  7  2  0  0  0  0
  9  8  1  0  0  0  0
  9  4  2  0  0  0  0
 10  4  1  0  0  0  0
 12  8  1  0  0  0  0
 13  1  1  0  0  0  0
 13 15  1  0  0  0  0
 14 15  2  0  0  0  0
 15 18  1  0  0  0  0
 16 15  1  0  0  0  0
 17 16  1  0  0  0  0
 18 19  1  0  0  0  0
M  END
>  <minimizedAffinity>
-3.83514762

$$$$

 OpenBabel03252509303D

 19 19  0  0  0  0  0  0  0  0999 V2000
   38.3730   28.0480   40.7500 C   0  0  0  0  0  0  0  0  0  0  0  0
   38.9000   28.0270   39.7530 H   0  0  0  0  0  0  0  0  0  0  0  0
   39.0260   28.6730   41.4050 H   0  0  0  0  0  0  0  0  0  0  0  0
   37.0110   24.7650   41.8900 C   0  0  0  0  0  0  0  0  0  0  0  0
   37.0550   26.0790   41.3920 C   0  0  0  0  0  0  0  0  0  0  0  0
   38.2960   26.6830   41.2650 C   0  0  0  0  0  0  0  0  0  0  0  0
   39.4180   25.9750   41.6290 N   0  0  0  0  0  0  0  0  0  0  0  0
   39.3320   24.7080   42.1060 C   0  0  0  0  0  0  0  0  0  0  0  0
   38.1410   24.1170   42.2320 N   0  0  0  0  0  0  0  0  0  0  0  0
   35.9960   24.3710   41.9560 H   0  0  0  0  0  0  0  0  0  0  0  0
   36.1590   26.6360   41.1050 H   0  0  0  0  0  0  0  0  0  0  0  0
   40.2280   24.1690   42.3870 H   0  0  0  0  0  0  0  0  0  0  0  0
   37.1050   28.6150   40.6250 O   0  0  0  0  0  0  0  0  0  0  0  0
   38.2510   30.8610   41.3100 O   0  0  0  0  0  0  0  0  0  0  0  0
   37.0800   29.9770   41.6310 P   0  0  0  0  0  0  0  0  0  0  0  0
   37.0860   29.4250   43.2260 O   0  0  0  0  0  0  0  0  0  0  0  0
   37.7160   28.6810   43.3550 H   0  0  0  0  0  0  0  0  0  0  0  0
   35.6670   30.8420   41.3060 O   0  0  0  0  0  0  0  0  0  0  0  0
   35.7200   31.1260   40.3510 H   0  0  0  0  0  0  0  0  0  0  0  0
  1  6  1  0  0  0  0
  1  3  1  0  0  0  0
  2  1  1  0  0  0  0
  4 10  1  0  0  0  0
  4  9  1  0  0  0  0
  5  4  2  0  0  0  0
  6  5  1  0  0  0  0
  6  7  2  0  0  0  0
  7  8  1  0  0  0  0
  8  9  2  0  0  0  0
  8 12  1  0  0  0  0
 11  5  1  0  0  0  0
 13  1  1  0  0  0  0
 13 15  1  0  0  0  0
 14 15  2  0  0  0  0
 15 16  1  0  0  0  0
 16 17  1  0  0  0  0
 18 15  1  0  0  0  0
 19 18  1  0  0  0  0
M  END
>  <minimizedAffinity>
-3.82322645

$$$$

 OpenBabel03252509303D

 19 19  0  0  0  0  0  0  0  0999 V2000
   39.1740   30.8440   39.4440 C   0  0  0  0  0  0  0  0  0  0  0  0
   39.7430   29.9130   39.7320 H   0  0  0  0  0  0  0  0  0  0  0  0
   38.4430   30.5040   38.6720 H   0  0  0  0  0  0  0  0  0  0  0  0
   41.6910   32.4070   37.1740 C   0  0  0  0  0  0  0  0  0  0  0  0
   40.7930   31.4660   37.7070 C   0  0  0  0  0  0  0  0  0  0  0  0
   40.1140   31.8030   38.8660 C   0  0  0  0  0  0  0  0  0  0  0  0
   40.3450   33.0330   39.4370 N   0  0  0  0  0  0  0  0  0  0  0  0
   41.2210   33.9130   38.8910 C   0  0  0  0  0  0  0  0  0  0  0  0
   41.8810   33.5980   37.7740 N   0  0  0  0  0  0  0  0  0  0  0  0
   42.1800   32.0590   36.2640 H   0  0  0  0  0  0  0  0  0  0  0  0
   40.6140   30.4900   37.2480 H   0  0  0  0  0  0  0  0  0  0  0  0
   41.3880   34.8760   39.3570 H   0  0  0  0  0  0  0  0  0  0  0  0
   38.5170   31.3810   40.5510 O   0  0  0  0  0  0  0  0  0  0  0  0
   36.6650   31.1010   38.7300 O   0  0  0  0  0  0  0  0  0  0  0  0
   36.9500   31.7730   40.0430 P   0  0  0  0  0  0  0  0  0  0  0  0
   36.8530   33.4550   39.9590 O   0  0  0  0  0  0  0  0  0  0  0  0
   37.6570   33.8500   39.5520 H   0  0  0  0  0  0  0  0  0  0  0  0
   35.8640   31.1700   41.1870 O   0  0  0  0  0  0  0  0  0  0  0  0
   35.9800   30.1800   41.1960 H   0  0  0  0  0  0  0  0  0  0  0  0
  1  2  1  0  0  0  0
  1 13  1  0  0  0  0
  3  1  1  0  0  0  0
  4  5  2  0  0  0  0
  4  9  1  0  0  0  0
  5  6  1  0  0  0  0
  6  7  2  0  0  0  0
  6  1  1  0  0  0  0
  8 12  1  0  0  0  0
  8  7  1  0  0  0  0
  9  8  2  0  0  0  0
 10  4  1  0  0  0  0
 11  5  1  0  0  0  0
 14 15  2  0  0  0  0
 15 13  1  0  0  0  0
 15 18  1  0  0  0  0
 16 15  1  0  0  0  0
 17 16  1  0  0  0  0
 18 19  1  0  0  0  0
M  END
>  <minimizedAffinity>
-3.72572422

$$$$
