
 OpenBabel03252504003D

 32 34  0  0  0  0  0  0  0  0999 V2000
   47.1350   34.8710   42.6360 C   0  0  0  0  0  0  0  0  0  0  0  0
   46.1510   35.8400   42.4110 C   0  0  0  0  0  0  0  0  0  0  0  0
   45.0340   35.8180   43.2460 C   0  0  0  0  0  0  0  0  0  0  0  0
   44.9650   34.8760   44.2130 N   0  0  0  0  0  0  0  0  0  0  0  0
   45.9440   33.9490   44.4010 C   0  0  0  0  0  0  0  0  0  0  0  0
   47.0250   33.9560   43.6070 N   0  0  0  0  0  0  0  0  0  0  0  0
   46.2200   36.5840   41.6380 H   0  0  0  0  0  0  0  0  0  0  0  0
   44.2460   36.5460   43.1130 H   0  0  0  0  0  0  0  0  0  0  0  0
   46.0510   31.6170   45.1030 C   0  0  0  0  0  0  0  0  0  0  0  0
   45.8560   32.9360   45.4500 C   0  0  0  0  0  0  0  0  0  0  0  0
   45.5840   33.2730   46.7680 C   0  0  0  0  0  0  0  0  0  0  0  0
   45.5160   32.2610   47.7110 C   0  0  0  0  0  0  0  0  0  0  0  0
   45.2780   32.2550   49.0290 N   0  0  0  0  0  0  0  0  0  0  0  0
   45.3130   31.0160   49.5280 C   0  0  0  0  0  0  0  0  0  0  0  0
   45.5870   30.1480   48.4930 C   0  0  0  0  0  0  0  0  0  0  0  0
   45.7130   30.9310   47.3630 C   0  0  0  0  0  0  0  0  0  0  0  0
   45.9820   30.6180   46.0410 C   0  0  0  0  0  0  0  0  0  0  0  0
   46.2650   31.3610   44.0590 H   0  0  0  0  0  0  0  0  0  0  0  0
   45.4330   34.3170   47.0270 H   0  0  0  0  0  0  0  0  0  0  0  0
   45.0960   33.1360   49.5530 H   0  0  0  0  0  0  0  0  0  0  0  0
   45.1430   30.8150   50.5810 H   0  0  0  0  0  0  0  0  0  0  0  0
   45.6780   29.0660   48.5890 H   0  0  0  0  0  0  0  0  0  0  0  0
   46.1300   29.5640   45.8110 H   0  0  0  0  0  0  0  0  0  0  0  0
   48.2560   34.9560   41.7370 C   0  0  0  0  0  0  0  0  0  0  0  0
   49.0300   35.9590   41.5980 O   0  0  0  0  0  0  0  0  0  0  0  0
   48.6190   33.8960   40.8950 O   0  0  0  0  0  0  0  0  0  0  0  0
   48.2160   32.3030   38.8200 O   0  0  0  0  0  0  0  0  0  0  0  0
   47.9980   33.7270   39.3000 P   0  0  0  0  0  0  0  0  0  0  0  0
   48.7240   34.8570   38.2970 O   0  0  0  0  0  0  0  0  0  0  0  0
   48.6030   34.5450   37.3460 H   0  0  0  0  0  0  0  0  0  0  0  0
   46.3020   33.9490   39.2930 O   0  0  0  0  0  0  0  0  0  0  0  0
   45.9700   33.3620   40.0270 H   0  0  0  0  0  0  0  0  0  0  0  0
  1  6  1  0  0  0  0
  2  1  2  0  0  0  0
  2  3  1  0  0  0  0
  3  4  2  0  0  0  0
  4  5  1  0  0  0  0
  5 10  1  0  0  0  0
  6  5  2  0  0  0  0
  7  2  1  0  0  0  0
  8  3  1  0  0  0  0
  9 10  2  0  0  0  0
  9 17  1  0  0  0  0
 10 11  1  0  0  0  0
 11 19  1  0  0  0  0
 11 12  2  0  0  0  0
 12 13  1  0  0  0  0
 13 14  1  0  0  0  0
 13 20  1  0  0  0  0
 14 21  1  0  0  0  0
 15 22  1  0  0  0  0
 15 14  2  0  0  0  0
 16 12  1  0  0  0  0
 16 15  1  0  0  0  0
 17 16  2  0  0  0  0
 18  9  1  0  0  0  0
 23 17  1  0  0  0  0
 24  1  1  0  0  0  0
 25 24  2  0  0  0  0
 26 24  1  0  0  0  0
 27 28  2  0  0  0  0
 28 26  1  0  0  0  0
 29 28  1  0  0  0  0
 30 29  1  0  0  0  0
 31 28  1  0  0  0  0
 31 32  1  0  0  0  0
M  END
>  <minimizedAffinity>
-6.04597807

>  <minimizedRMSD>
0.639037609

$$$$
