
     RDKit          3D

 19 19  0  0  0  0  0  0  0  0999 V2000
   44.5594   36.0117   44.4949 C   0  0  0  0  0  0  0  0  0  0  0  0
   45.2985   35.9269   43.3021 C   0  0  0  0  0  0  0  0  0  0  0  0
   46.1866   34.8732   43.1638 C   0  0  0  0  0  0  0  0  0  0  0  0
   46.3042   33.9653   44.1909 N   0  0  0  0  0  0  0  0  0  0  0  0
   45.5717   34.0832   45.3270 C   0  0  0  0  0  0  0  0  0  0  0  0
   44.7127   35.0958   45.4697 N   0  0  0  0  0  0  0  0  0  0  0  0
   46.9688   34.7589   41.9346 C   0  0  0  0  0  0  0  0  0  0  0  0
   43.8873   36.8698   44.5171 H   0  0  0  0  0  0  0  0  0  0  0  0
   45.1995   36.6521   42.4905 H   0  0  0  0  0  0  0  0  0  0  0  0
   45.6798   33.3577   46.1229 H   0  0  0  0  0  0  0  0  0  0  0  0
   46.7530   33.7567   41.4628 H   0  0  0  0  0  0  0  0  0  0  0  0
   48.0601   34.7341   42.1703 H   0  0  0  0  0  0  0  0  0  0  0  0
   47.7444   36.8999   38.9364 O   0  0  0  0  0  0  0  0  0  0  0  0
   48.0806   36.0819   40.1504 P   0  0  0  0  0  0  0  0  0  0  0  0
   48.7527   34.5810   39.7708 O   0  0  0  0  0  0  0  0  0  0  0  0
   49.1385   36.9816   41.1118 O   0  0  0  0  0  0  0  0  0  0  0  0
   46.6737   35.7939   41.0485 O   0  0  0  0  0  0  0  0  0  0  0  0
   48.0685   33.9317   39.4913 H   0  0  0  0  0  0  0  0  0  0  0  0
   48.6795   37.8449   41.3091 H   0  0  0  0  0  0  0  0  0  0  0  0
  1  6  2  0
  2  1  1  0
  3  2  2  0
  3  4  1  0
  4  5  2  0
  5  6  1  0
  7  3  1  0
  1  8  1  0
  2  9  1  0
  5 10  1  0
  7 11  1  0
  7 12  1  0
 13 14  2  0
 14 15  1  0
 14 16  1  0
 14 17  1  0
 15 18  1  0
 16 19  1  0
  7 17  1  0
M  ISO  5   8  14   9  14  10  14  11   8  12   8
M  END
>  <DihAtoms>  (1) 
2,6,16,13

>  <DihDeg>  (1) 
-179.99830364825385

$$$$
