REMARK  Name = 
REMARK  12 active torsions:
REMARK  status: ('A' for Active; 'I' for Inactive)
REMARK    1  A    between atoms: O_1  and  C_2
REMARK    2  A    between atoms: O_1  and  P_10
REMARK    3  A    between atoms: C_6  and  C_7
REMARK    4  A    between atoms: C_7  and  O_8
REMARK    5  A    between atoms: P_10  and  O_11
REMARK    6  A    between atoms: P_10  and  O_12
REMARK    7  A    between atoms: O_12  and  C_13
REMARK    8  A    between atoms: C_13  and  C_16
REMARK    9  A    between atoms: C_18  and  O_40
REMARK   10  A    between atoms: P_37  and  O_38
REMARK   11  A    between atoms: P_37  and  O_39
REMARK   12  A    between atoms: P_37  and  O_40
REMARK                            x       y       z     vdW  Elec       q    Type
REMARK                         _______ _______ _______ _____ _____    ______ ____
ROOT
ATOM      1  O   UNL     1      44.736  35.353  45.002  0.00  0.00    +0.000 OA
ATOM      2  P   UNL     1      45.581  34.239  44.412  0.00  0.00    +0.000 P 
ENDROOT
BRANCH   2   3
ATOM      3  O   UNL     1      44.604  33.044  43.718  0.00  0.00    +0.000 OA
ATOM      4  H   UNL     1      43.812  33.450  43.262  0.00  0.00    +0.000 HD
ENDBRANCH   2   3
BRANCH   2   5
ATOM      5  O   UNL     1      46.574  34.908  43.249  0.00  0.00    +0.000 OA
BRANCH   5   6
ATOM      6  C   UNL     1      46.801  33.977  42.229  0.00  0.00    +0.000 C 
ATOM      7  C   UNL     1      46.073  34.413  40.955  0.00  0.00    +0.000 C 
ATOM      8  C   UNL     1      46.691  33.470  39.950  0.00  0.00    +0.000 C 
ATOM      9  C   UNL     1      48.079  33.140  40.478  0.00  0.00    +0.000 C 
ATOM     10  C   UNL     1      48.215  33.966  41.740  0.00  0.00    +0.000 C 
ATOM     11  H   UNL     1      46.451  32.974  42.459  0.00  0.00    +0.000 HD
ATOM     12  H   UNL     1      45.000  34.142  41.073  0.00  0.00    +0.000 HD
ATOM     13  H   UNL     1      46.176  35.469  40.727  0.00  0.00    +0.000 HD
ATOM     14  H   UNL     1      46.054  32.542  39.868  0.00  0.00    +0.000 HD
ATOM     15  H   UNL     1      46.791  33.975  38.965  0.00  0.00    +0.000 HD
ATOM     16  H   UNL     1      48.864  33.360  39.740  0.00  0.00    +0.000 HD
ATOM     17  H   UNL     1      48.058  32.082  40.809  0.00  0.00    +0.000 HD
ATOM     18  H   UNL     1      48.847  33.460  42.491  0.00  0.00    +0.000 HD
BRANCH  10  19
ATOM     19  C   UNL     1      48.755  35.342  41.460  0.00  0.00    +0.000 C 
ATOM     20  H   UNL     1      47.972  36.137  41.428  0.00  0.00    +0.000 HD
ATOM     21  H   UNL     1      49.280  35.371  40.463  0.00  0.00    +0.000 HD
BRANCH  19  22
ATOM     22  O   UNL     1      49.658  35.750  42.415  0.00  0.00    +0.000 OA
ATOM     23  H   UNL     1      49.979  34.963  42.919  0.00  0.00    +0.000 HD
ENDBRANCH  19  22
ENDBRANCH  10  19
ENDBRANCH   5   6
ENDBRANCH   2   5
BRANCH   2  24
ATOM     24  O   UNL     1      46.477  33.486  45.601  0.00  0.00    +0.000 OA
BRANCH  24  25
ATOM     25  C   UNL     1      46.232  32.151  45.567  0.00  0.00    +0.000 C 
ATOM     26  H   UNL     1      47.193  31.639  45.279  0.00  0.00    +0.000 HD
ATOM     27  H   UNL     1      45.484  31.779  44.871  0.00  0.00    +0.000 HD
BRANCH  25  30
ATOM     28  C   UNL     1      45.641  31.906  49.234  0.00  0.00    +0.000 A 
ATOM     29  C   UNL     1      45.977  32.460  47.996  0.00  0.00    +0.000 A 
ATOM     30  C   UNL     1      45.883  31.602  46.892  0.00  0.00    +0.000 A 
ATOM     31  N   UNL     1      45.479  30.308  47.074  0.00  0.00    +0.000 NA
ATOM     32  C   UNL     1      45.163  29.813  48.288  0.00  0.00    +0.000 A 
ATOM     33  N   UNL     1      45.247  30.616  49.358  0.00  0.00    +0.000 NA
ATOM     34  H   UNL     1      45.696  32.525  50.127  0.00  0.00    +0.000 HD
ATOM     35  H   UNL     1      46.288  33.490  47.929  0.00  0.00    +0.000 HD
BRANCH  32  36
ATOM     36  O   UNL     1      44.774  28.480  48.286  0.00  0.00    +0.000 OA
BRANCH  36  38
ATOM     37  O   UNL     1      46.658  27.896  46.589  0.00  0.00    +0.000 OA
ATOM     38  P   UNL     1      45.576  27.259  47.438  0.00  0.00    +0.000 P 
BRANCH  38  39
ATOM     39  O   UNL     1      44.538  26.426  46.383  0.00  0.00    +0.000 OA
ATOM     40  H   UNL     1      44.371  27.031  45.620  0.00  0.00    +0.000 HD
ENDBRANCH  38  39
BRANCH  38  41
ATOM     41  O   UNL     1      46.329  26.146  48.464  0.00  0.00    +0.000 OA
ATOM     42  H   UNL     1      46.288  25.268  48.032  0.00  0.00    +0.000 HD
ENDBRANCH  38  41
ENDBRANCH  36  38
ENDBRANCH  32  36
ENDBRANCH  25  30
ENDBRANCH  24  25
ENDBRANCH   2  24
TORSDOF 12
