
 OpenBabel03242521443D

 36 37  0  0  1  0  0  0  0  0999 V2000
   45.2330   36.2100   43.9680 C   0  0  0  0  0  0  0  0  0  0  0  0
   46.0400   35.3510   43.2020 C   0  0  0  0  0  0  0  0  0  0  0  0
   46.2840   34.0520   43.6580 C   0  0  0  0  0  0  0  0  0  0  0  0
   45.7260   33.6970   44.8140 N   0  0  0  0  0  0  0  0  0  0  0  0
   44.9520   34.5340   45.5400 C   0  0  0  0  0  0  0  0  0  0  0  0
   44.7000   35.7960   45.1220 N   0  0  0  0  0  0  0  0  0  0  0  0
   46.4360   35.7550   42.2790 H   0  0  0  0  0  0  0  0  0  0  0  0
   44.5300   34.1780   46.4720 H   0  0  0  0  0  0  0  0  0  0  0  0
   48.3530   33.8700   42.2930 C   0  0  2  0  0  0  0  0  0  0  0  0
   47.1230   33.2190   42.8190 C   0  0  2  0  0  0  0  0  0  0  0  0
   46.5050   32.7910   41.6070 O   0  0  0  0  0  0  0  0  0  0  0  0
   47.5340   32.1410   40.9560 C   0  0  0  0  0  0  0  0  0  0  0  0
   48.8470   32.7200   41.3930 C   0  0  1  0  0  0  0  0  0  0  0  0
   48.1150   34.6850   41.5500 H   0  0  0  0  0  0  0  0  0  0  0  0
   47.4280   32.3020   43.3960 H   0  0  0  0  0  0  0  0  0  0  0  0
   47.5080   31.0570   41.1840 H   0  0  0  0  0  0  0  0  0  0  0  0
   47.4380   32.2780   39.8670 H   0  0  0  0  0  0  0  0  0  0  0  0
   49.4390   32.0470   42.0240 H   0  0  0  0  0  0  0  0  0  0  0  0
   49.2530   34.2570   43.2370 O   0  0  0  0  0  0  0  0  0  0  0  0
   49.4980   35.2160   43.1820 H   0  0  0  0  0  0  0  0  0  0  0  0
   49.5920   33.2630   40.3480 O   0  0  0  0  0  0  0  0  0  0  0  0
   50.3240   33.7790   40.7690 H   0  0  0  0  0  0  0  0  0  0  0  0
   44.9960   37.6070   43.4570 C   0  0  0  0  0  0  0  0  0  0  0  0
   44.0300   37.6080   42.9350 H   0  0  0  0  0  0  0  0  0  0  0  0
   45.8260   37.9070   42.8140 H   0  0  0  0  0  0  0  0  0  0  0  0
   45.1620   39.8450   44.7080 C   0  0  0  0  0  0  0  0  0  0  0  0
   45.5220   40.4040   43.6340 O   0  0  0  0  0  0  0  0  0  0  0  0
   44.8870   38.4510   44.6390 N   0  0  0  0  0  0  0  0  0  0  0  0
   44.5720   37.9870   45.5410 H   0  0  0  0  0  0  0  0  0  0  0  0
   45.0330   40.5340   45.9080 O   0  0  0  0  0  0  0  0  0  0  0  0
   44.5710   42.7770   44.5390 O   0  0  0  0  0  0  0  0  0  0  0  0
   44.3130   42.1110   45.8930 P   0  0  0  0  0  0  0  0  0  0  0  0
   44.9130   43.0340   47.1560 O   0  0  0  0  0  0  0  0  0  0  0  0
   45.1680   43.9230   46.7660 H   0  0  0  0  0  0  0  0  0  0  0  0
   42.6470   41.8950   45.9930 O   0  0  0  0  0  0  0  0  0  0  0  0
   42.2100   41.8760   45.0850 H   0  0  0  0  0  0  0  0  0  0  0  0
  1  6  1  0  0  0  0
  2  3  1  0  0  0  0
  2  1  2  0  0  0  0
  3  4  2  0  0  0  0
  4  5  1  0  0  0  0
  5  8  1  0  0  0  0
  6  5  2  0  0  0  0
  7  2  1  0  0  0  0
  9 14  1  6  0  0  0
  9 10  1  0  0  0  0
  9 19  1  0  0  0  0
 10 15  1  1  0  0  0
 10  3  1  0  0  0  0
 11 10  1  0  0  0  0
 12 16  1  0  0  0  0
 12 13  1  0  0  0  0
 12 11  1  0  0  0  0
 13 18  1  1  0  0  0
 13  9  1  0  0  0  0
 17 12  1  0  0  0  0
 20 19  1  0  0  0  0
 21 22  1  0  0  0  0
 21 13  1  0  0  0  0
 23  1  1  0  0  0  0
 23 28  1  0  0  0  0
 24 23  1  0  0  0  0
 25 23  1  0  0  0  0
 26 30  1  0  0  0  0
 27 26  2  0  0  0  0
 28 26  1  0  0  0  0
 28 29  1  0  0  0  0
 31 32  2  0  0  0  0
 32 30  1  0  0  0  0
 32 35  1  0  0  0  0
 32 33  1  0  0  0  0
 34 33  1  0  0  0  0
 36 35  1  0  0  0  0
M  END
>  <minimizedAffinity>
-5.12424994

>  <minimizedRMSD>
0.853360415

$$$$
