
 OpenBabel03252508513D

 26 27  0  0  0  0  0  0  0  0999 V2000
   45.9440   34.1930   41.0220 C   0  0  0  0  0  0  0  0  0  0  0  0
   46.5350   34.8090   42.1200 C   0  0  0  0  0  0  0  0  0  0  0  0
   47.8840   35.1670   42.0060 C   0  0  0  0  0  0  0  0  0  0  0  0
   48.5220   34.8910   40.8390 N   0  0  0  0  0  0  0  0  0  0  0  0
   47.9190   34.2980   39.8040 C   0  0  0  0  0  0  0  0  0  0  0  0
   46.6170   33.9470   39.8990 N   0  0  0  0  0  0  0  0  0  0  0  0
   48.3720   35.6500   42.8490 H   0  0  0  0  0  0  0  0  0  0  0  0
   48.5360   34.1370   38.9430 H   0  0  0  0  0  0  0  0  0  0  0  0
   45.7520   35.0590   43.3300 C   0  0  0  0  0  0  0  0  0  0  0  0
   45.0750   36.2340   43.5650 C   0  0  0  0  0  0  0  0  0  0  0  0
   44.4910   36.0300   44.7970 C   0  0  0  0  0  0  0  0  0  0  0  0
   44.7940   34.8020   45.2850 N   0  0  0  0  0  0  0  0  0  0  0  0
   45.5560   34.2400   44.3770 N   0  0  0  0  0  0  0  0  0  0  0  0
   44.9730   37.1310   42.9930 H   0  0  0  0  0  0  0  0  0  0  0  0
   43.8520   36.6710   45.4150 H   0  0  0  0  0  0  0  0  0  0  0  0
   44.5620   34.2820   46.1440 H   0  0  0  0  0  0  0  0  0  0  0  0
   44.6110   33.8350   41.1210 O   0  0  0  0  0  0  0  0  0  0  0  0
   43.5580   34.4840   40.5350 C   0  0  0  0  0  0  0  0  0  0  0  0
   43.1310   35.6620   40.7600 O   0  0  0  0  0  0  0  0  0  0  0  0
   42.6330   34.0950   39.5360 O   0  0  0  0  0  0  0  0  0  0  0  0
   40.9620   32.3120   40.4590 O   0  0  0  0  0  0  0  0  0  0  0  0
   42.0810   32.4760   39.4500 P   0  0  0  0  0  0  0  0  0  0  0  0
   41.4390   32.2050   37.9160 O   0  0  0  0  0  0  0  0  0  0  0  0
   40.5000   32.5710   37.8880 H   0  0  0  0  0  0  0  0  0  0  0  0
   43.2870   31.3560   39.8300 O   0  0  0  0  0  0  0  0  0  0  0  0
   43.4230   30.6640   39.1370 H   0  0  0  0  0  0  0  0  0  0  0  0
  1 17  1  0  0  0  0
  1  2  1  0  0  0  0
  2  9  1  0  0  0  0
  3  2  2  0  0  0  0
  3  7  1  0  0  0  0
  4  3  1  0  0  0  0
  5  6  1  0  0  0  0
  5  4  2  0  0  0  0
  6  1  2  0  0  0  0
  8  5  1  0  0  0  0
  9 10  1  0  0  0  0
  9 13  2  0  0  0  0
 10 11  2  0  0  0  0
 11 12  1  0  0  0  0
 11 15  1  0  0  0  0
 12 16  1  0  0  0  0
 13 12  1  0  0  0  0
 14 10  1  0  0  0  0
 18 19  2  0  0  0  0
 18 17  1  0  0  0  0
 20 18  1  0  0  0  0
 22 20  1  0  0  0  0
 22 25  1  0  0  0  0
 22 21  2  0  0  0  0
 23 22  1  0  0  0  0
 24 23  1  0  0  0  0
 26 25  1  0  0  0  0
M  END
>  <minimizedAffinity>
-4.59790087

>  <minimizedRMSD>
0.384587914

$$$$
