
 OpenBabel03252507403D

 17 17  0  0  0  0  0  0  0  0999 V2000
   38.0800   29.4270   41.7100 C   0  0  0  0  0  0  0  0  0  0  0  0
   38.5550   28.2730   41.0430 C   0  0  0  0  0  0  0  0  0  0  0  0
   38.3860   27.0220   41.6370 C   0  0  0  0  0  0  0  0  0  0  0  0
   37.7620   26.9800   42.8470 N   0  0  0  0  0  0  0  0  0  0  0  0
   37.3220   28.0990   43.4530 C   0  0  0  0  0  0  0  0  0  0  0  0
   37.4710   29.3060   42.9080 N   0  0  0  0  0  0  0  0  0  0  0  0
   38.7420   26.1280   41.1420 H   0  0  0  0  0  0  0  0  0  0  0  0
   36.8370   28.0220   44.4030 H   0  0  0  0  0  0  0  0  0  0  0  0
   39.3610   28.4450   39.4540 S   0  0  0  0  0  0  0  0  0  0  0  0
   40.5780   29.1350   39.5710 H   0  0  0  0  0  0  0  0  0  0  0  0
   38.2810   30.6390   41.0620 O   0  0  0  0  0  0  0  0  0  0  0  0
   36.5880   30.8840   39.0220 O   0  0  0  0  0  0  0  0  0  0  0  0
   36.9030   31.3950   40.4100 P   0  0  0  0  0  0  0  0  0  0  0  0
   37.0570   33.0790   40.3880 O   0  0  0  0  0  0  0  0  0  0  0  0
   36.1150   33.4230   40.2850 H   0  0  0  0  0  0  0  0  0  0  0  0
   35.5970   30.9460   41.4160 O   0  0  0  0  0  0  0  0  0  0  0  0
   35.8770   31.1360   42.3610 H   0  0  0  0  0  0  0  0  0  0  0  0
  1  6  1  0  0  0  0
  2  3  1  0  0  0  0
  2  1  2  0  0  0  0
  3  4  2  0  0  0  0
  4  5  1  0  0  0  0
  5  8  1  0  0  0  0
  6  5  2  0  0  0  0
  7  3  1  0  0  0  0
  9 10  1  0  0  0  0
  9  2  1  0  0  0  0
 11  1  1  0  0  0  0
 12 13  2  0  0  0  0
 13 11  1  0  0  0  0
 13 16  1  0  0  0  0
 14 13  1  0  0  0  0
 15 14  1  0  0  0  0
 16 17  1  0  0  0  0
M  END
>  <minimizedAffinity>
-4.31014204

$$$$

 OpenBabel03252507403D

 17 17  0  0  0  0  0  0  0  0999 V2000
   37.2950   30.5200   41.1870 C   0  0  0  0  0  0  0  0  0  0  0  0
   36.5900   29.3000   41.0430 C   0  0  0  0  0  0  0  0  0  0  0  0
   37.0720   28.1550   41.6770 C   0  0  0  0  0  0  0  0  0  0  0  0
   38.2120   28.2750   42.4120 N   0  0  0  0  0  0  0  0  0  0  0  0
   38.8560   29.4520   42.5280 C   0  0  0  0  0  0  0  0  0  0  0  0
   38.4190   30.5610   41.9330 N   0  0  0  0  0  0  0  0  0  0  0  0
   36.5470   27.2130   41.5790 H   0  0  0  0  0  0  0  0  0  0  0  0
   39.7490   29.5030   43.1140 H   0  0  0  0  0  0  0  0  0  0  0  0
   35.1000   29.2580   40.0520 S   0  0  0  0  0  0  0  0  0  0  0  0
   35.3800   29.4990   38.6980 H   0  0  0  0  0  0  0  0  0  0  0  0
   36.7600   31.6210   40.5300 O   0  0  0  0  0  0  0  0  0  0  0  0
   38.8120   32.2910   38.9730 O   0  0  0  0  0  0  0  0  0  0  0  0
   37.8600   32.8160   40.0240 P   0  0  0  0  0  0  0  0  0  0  0  0
   38.7270   33.4670   41.3210 O   0  0  0  0  0  0  0  0  0  0  0  0
   39.0990   34.3360   40.9740 H   0  0  0  0  0  0  0  0  0  0  0  0
   36.9230   34.0380   39.2840 O   0  0  0  0  0  0  0  0  0  0  0  0
   36.1860   34.2700   39.9240 H   0  0  0  0  0  0  0  0  0  0  0  0
  1  6  1  0  0  0  0
  2  1  2  0  0  0  0
  2  3  1  0  0  0  0
  3  4  2  0  0  0  0
  4  5  1  0  0  0  0
  5  8  1  0  0  0  0
  6  5  2  0  0  0  0
  7  3  1  0  0  0  0
  9  2  1  0  0  0  0
 10  9  1  0  0  0  0
 11  1  1  0  0  0  0
 12 13  2  0  0  0  0
 13 11  1  0  0  0  0
 13 14  1  0  0  0  0
 15 14  1  0  0  0  0
 16 17  1  0  0  0  0
 16 13  1  0  0  0  0
M  END
>  <minimizedAffinity>
-3.8959341

$$$$

 OpenBabel03252507403D

 17 17  0  0  0  0  0  0  0  0999 V2000
   37.7560   28.4990   41.1800 C   0  0  0  0  0  0  0  0  0  0  0  0
   37.9940   28.1150   42.5210 C   0  0  0  0  0  0  0  0  0  0  0  0
   39.2750   28.2590   43.0560 C   0  0  0  0  0  0  0  0  0  0  0  0
   40.2410   28.7710   42.2440 N   0  0  0  0  0  0  0  0  0  0  0  0
   39.9780   29.1280   40.9730 C   0  0  0  0  0  0  0  0  0  0  0  0
   38.7650   29.0000   40.4370 N   0  0  0  0  0  0  0  0  0  0  0  0
   39.4760   27.9710   44.0800 H   0  0  0  0  0  0  0  0  0  0  0  0
   40.7660   29.5250   40.3680 H   0  0  0  0  0  0  0  0  0  0  0  0
   36.6480   27.4530   43.4980 S   0  0  0  0  0  0  0  0  0  0  0  0
   36.2160   26.2140   42.9990 H   0  0  0  0  0  0  0  0  0  0  0  0
   36.4590   28.3290   40.7120 O   0  0  0  0  0  0  0  0  0  0  0  0
   36.1270   30.2480   38.8970 O   0  0  0  0  0  0  0  0  0  0  0  0
   35.6300   29.7350   40.2300 P   0  0  0  0  0  0  0  0  0  0  0  0
   35.7280   30.9560   41.3960 O   0  0  0  0  0  0  0  0  0  0  0  0
   34.9810   31.5930   41.1660 H   0  0  0  0  0  0  0  0  0  0  0  0
   34.0010   29.2720   40.0120 O   0  0  0  0  0  0  0  0  0  0  0  0
   33.7220   28.7820   40.8430 H   0  0  0  0  0  0  0  0  0  0  0  0
  1  2  1  0  0  0  0
  2  3  2  0  0  0  0
  2  9  1  0  0  0  0
  3  7  1  0  0  0  0
  4  3  1  0  0  0  0
  5  4  2  0  0  0  0
  6  5  1  0  0  0  0
  6  1  2  0  0  0  0
  8  5  1  0  0  0  0
 10  9  1  0  0  0  0
 11  1  1  0  0  0  0
 12 13  2  0  0  0  0
 13 11  1  0  0  0  0
 13 14  1  0  0  0  0
 15 14  1  0  0  0  0
 16 13  1  0  0  0  0
 16 17  1  0  0  0  0
M  END
>  <minimizedAffinity>
-3.78996396

$$$$

 OpenBabel03252507403D

 17 17  0  0  0  0  0  0  0  0999 V2000
   38.2460   30.4070   39.6370 C   0  0  0  0  0  0  0  0  0  0  0  0
   39.3720   31.2300   39.3910 C   0  0  0  0  0  0  0  0  0  0  0  0
   39.4590   31.9250   38.1850 C   0  0  0  0  0  0  0  0  0  0  0  0
   38.4390   31.7710   37.2950 N   0  0  0  0  0  0  0  0  0  0  0  0
   37.3830   30.9810   37.5630 C   0  0  0  0  0  0  0  0  0  0  0  0
   37.2740   30.3060   38.7060 N   0  0  0  0  0  0  0  0  0  0  0  0
   40.3120   32.5590   37.9790 H   0  0  0  0  0  0  0  0  0  0  0  0
   36.6030   30.8870   36.8370 H   0  0  0  0  0  0  0  0  0  0  0  0
   40.6540   31.3570   40.6330 S   0  0  0  0  0  0  0  0  0  0  0  0
   41.3220   30.1350   40.8050 H   0  0  0  0  0  0  0  0  0  0  0  0
   38.2230   29.7440   40.8570 O   0  0  0  0  0  0  0  0  0  0  0  0
   35.9800   28.3430   41.1580 O   0  0  0  0  0  0  0  0  0  0  0  0
   36.7060   29.5890   41.6130 P   0  0  0  0  0  0  0  0  0  0  0  0
   35.7340   30.9510   41.3660 O   0  0  0  0  0  0  0  0  0  0  0  0
   35.0240   30.8940   42.0780 H   0  0  0  0  0  0  0  0  0  0  0  0
   37.0250   29.4000   43.2800 O   0  0  0  0  0  0  0  0  0  0  0  0
   37.6460   30.1430   43.5450 H   0  0  0  0  0  0  0  0  0  0  0  0
  1 11  1  0  0  0  0
  2  1  1  0  0  0  0
  2  9  1  0  0  0  0
  3  2  2  0  0  0  0
  4  5  2  0  0  0  0
  4  3  1  0  0  0  0
  5  6  1  0  0  0  0
  6  1  2  0  0  0  0
  7  3  1  0  0  0  0
  8  5  1  0  0  0  0
  9 10  1  0  0  0  0
 11 13  1  0  0  0  0
 12 13  2  0  0  0  0
 13 16  1  0  0  0  0
 14 13  1  0  0  0  0
 14 15  1  0  0  0  0
 16 17  1  0  0  0  0
M  END
>  <minimizedAffinity>
-3.78584433

$$$$

 OpenBabel03252507403D

 17 17  0  0  0  0  0  0  0  0999 V2000
   37.4440   30.5120   40.5980 C   0  0  0  0  0  0  0  0  0  0  0  0
   37.2500   29.4740   41.5410 C   0  0  0  0  0  0  0  0  0  0  0  0
   36.2180   28.5570   41.3430 C   0  0  0  0  0  0  0  0  0  0  0  0
   35.4420   28.7130   40.2360 N   0  0  0  0  0  0  0  0  0  0  0  0
   35.6550   29.7120   39.3590 C   0  0  0  0  0  0  0  0  0  0  0  0
   36.6320   30.6020   39.5240 N   0  0  0  0  0  0  0  0  0  0  0  0
   36.0550   27.7560   42.0530 H   0  0  0  0  0  0  0  0  0  0  0  0
   35.0210   29.7990   38.5020 H   0  0  0  0  0  0  0  0  0  0  0  0
   38.3330   29.3650   42.9620 S   0  0  0  0  0  0  0  0  0  0  0  0
   38.1610   30.4620   43.8210 H   0  0  0  0  0  0  0  0  0  0  0  0
   38.4890   31.3910   40.8560 O   0  0  0  0  0  0  0  0  0  0  0  0
   39.4060   33.8830   40.6750 O   0  0  0  0  0  0  0  0  0  0  0  0
   38.4310   32.8990   40.0690 P   0  0  0  0  0  0  0  0  0  0  0  0
   36.8700   33.5510   40.0700 O   0  0  0  0  0  0  0  0  0  0  0  0
   36.8830   34.2520   39.3460 H   0  0  0  0  0  0  0  0  0  0  0  0
   38.9380   32.6150   38.4640 O   0  0  0  0  0  0  0  0  0  0  0  0
   38.3960   31.8440   38.1170 H   0  0  0  0  0  0  0  0  0  0  0  0
  1 11  1  0  0  0  0
  1  2  1  0  0  0  0
  2  9  1  0  0  0  0
  3  2  2  0  0  0  0
  3  7  1  0  0  0  0
  4  3  1  0  0  0  0
  5  6  1  0  0  0  0
  5  4  2  0  0  0  0
  6  1  2  0  0  0  0
  8  5  1  0  0  0  0
  9 10  1  0  0  0  0
 13 14  1  0  0  0  0
 13 12  2  0  0  0  0
 13 11  1  0  0  0  0
 15 14  1  0  0  0  0
 16 13  1  0  0  0  0
 17 16  1  0  0  0  0
M  END
>  <minimizedAffinity>
-3.69055581

$$$$

 OpenBabel03252507403D

 17 17  0  0  0  0  0  0  0  0999 V2000
   39.0280   30.4100   40.9180 C   0  0  0  0  0  0  0  0  0  0  0  0
   39.4960   31.4230   40.0470 C   0  0  0  0  0  0  0  0  0  0  0  0
   40.5710   32.2190   40.4410 C   0  0  0  0  0  0  0  0  0  0  0  0
   41.1210   31.9730   41.6620 N   0  0  0  0  0  0  0  0  0  0  0  0
   40.6510   31.0000   42.4650 C   0  0  0  0  0  0  0  0  0  0  0  0
   39.6250   30.2260   42.1140 N   0  0  0  0  0  0  0  0  0  0  0  0
   40.9430   32.9980   39.7880 H   0  0  0  0  0  0  0  0  0  0  0  0
   41.1110   30.8400   43.4170 H   0  0  0  0  0  0  0  0  0  0  0  0
   38.6960   31.6580   38.4620 S   0  0  0  0  0  0  0  0  0  0  0  0
   37.3760   32.1090   38.6180 H   0  0  0  0  0  0  0  0  0  0  0  0
   37.9540   29.6550   40.4630 O   0  0  0  0  0  0  0  0  0  0  0  0
   35.6160   28.5370   41.0700 O   0  0  0  0  0  0  0  0  0  0  0  0
   36.5450   29.6780   41.4170 P   0  0  0  0  0  0  0  0  0  0  0  0
   35.7250   31.1530   41.2960 O   0  0  0  0  0  0  0  0  0  0  0  0
   35.1150   31.1750   42.0980 H   0  0  0  0  0  0  0  0  0  0  0  0
   37.0600   29.4330   43.0270 O   0  0  0  0  0  0  0  0  0  0  0  0
   37.7980   30.0900   43.2020 H   0  0  0  0  0  0  0  0  0  0  0  0
  1  6  1  0  0  0  0
  2  3  1  0  0  0  0
  2  1  2  0  0  0  0
  3  4  2  0  0  0  0
  4  5  1  0  0  0  0
  5  8  1  0  0  0  0
  6  5  2  0  0  0  0
  7  3  1  0  0  0  0
  9 10  1  0  0  0  0
  9  2  1  0  0  0  0
 11  1  1  0  0  0  0
 11 13  1  0  0  0  0
 12 13  2  0  0  0  0
 13 16  1  0  0  0  0
 14 13  1  0  0  0  0
 14 15  1  0  0  0  0
 16 17  1  0  0  0  0
M  END
>  <minimizedAffinity>
-3.67124963

$$$$

 OpenBabel03252507403D

 17 17  0  0  0  0  0  0  0  0999 V2000
   36.8480   29.1180   39.2010 C   0  0  0  0  0  0  0  0  0  0  0  0
   36.3850   28.4470   38.0440 C   0  0  0  0  0  0  0  0  0  0  0  0
   36.1190   27.0790   38.1090 C   0  0  0  0  0  0  0  0  0  0  0  0
   36.3220   26.4550   39.3030 N   0  0  0  0  0  0  0  0  0  0  0  0
   36.7620   27.1260   40.3830 C   0  0  0  0  0  0  0  0  0  0  0  0
   37.0250   28.4320   40.3490 N   0  0  0  0  0  0  0  0  0  0  0  0
   35.7640   26.5480   37.2350 H   0  0  0  0  0  0  0  0  0  0  0  0
   36.9090   26.5980   41.3020 H   0  0  0  0  0  0  0  0  0  0  0  0
   36.1540   29.3680   36.5260 S   0  0  0  0  0  0  0  0  0  0  0  0
   37.3770   29.8360   36.0210 H   0  0  0  0  0  0  0  0  0  0  0  0
   37.0930   30.4790   39.0660 O   0  0  0  0  0  0  0  0  0  0  0  0
   38.2640   31.3580   41.2890 O   0  0  0  0  0  0  0  0  0  0  0  0
   36.9880   31.4180   40.4810 P   0  0  0  0  0  0  0  0  0  0  0  0
   35.6700   30.9680   41.4400 O   0  0  0  0  0  0  0  0  0  0  0  0
   35.5210   31.7500   42.0590 H   0  0  0  0  0  0  0  0  0  0  0  0
   36.8000   33.0350   39.9620 O   0  0  0  0  0  0  0  0  0  0  0  0
   36.0500   33.0430   39.2940 H   0  0  0  0  0  0  0  0  0  0  0  0
  1  6  1  0  0  0  0
  2  3  1  0  0  0  0
  2  1  2  0  0  0  0
  3  4  2  0  0  0  0
  4  5  1  0  0  0  0
  5  8  1  0  0  0  0
  6  5  2  0  0  0  0
  7  3  1  0  0  0  0
  9  2  1  0  0  0  0
 10  9  1  0  0  0  0
 11  1  1  0  0  0  0
 11 13  1  0  0  0  0
 13 12  2  0  0  0  0
 13 14  1  0  0  0  0
 14 15  1  0  0  0  0
 16 13  1  0  0  0  0
 17 16  1  0  0  0  0
M  END
>  <minimizedAffinity>
-3.66879988

$$$$

 OpenBabel03252507403D

 17 17  0  0  0  0  0  0  0  0999 V2000
   38.7190   26.5350   42.8210 C   0  0  0  0  0  0  0  0  0  0  0  0
   39.5990   25.4260   42.8150 C   0  0  0  0  0  0  0  0  0  0  0  0
   39.1100   24.1680   42.4620 C   0  0  0  0  0  0  0  0  0  0  0  0
   37.7910   24.0750   42.1370 N   0  0  0  0  0  0  0  0  0  0  0  0
   36.9830   25.1510   42.1530 C   0  0  0  0  0  0  0  0  0  0  0  0
   37.4230   26.3630   42.4870 N   0  0  0  0  0  0  0  0  0  0  0  0
   39.7680   23.3080   42.4510 H   0  0  0  0  0  0  0  0  0  0  0  0
   35.9520   25.0350   41.8920 H   0  0  0  0  0  0  0  0  0  0  0  0
   41.3160   25.6650   43.2600 S   0  0  0  0  0  0  0  0  0  0  0  0
   41.4480   26.0290   44.6090 H   0  0  0  0  0  0  0  0  0  0  0  0
   39.2710   27.7570   43.1820 O   0  0  0  0  0  0  0  0  0  0  0  0
   39.1880   30.4090   42.9660 O   0  0  0  0  0  0  0  0  0  0  0  0
   38.3730   29.1480   42.7870 P   0  0  0  0  0  0  0  0  0  0  0  0
   36.9410   29.2490   43.6790 O   0  0  0  0  0  0  0  0  0  0  0  0
   36.3650   29.9010   43.1710 H   0  0  0  0  0  0  0  0  0  0  0  0
   38.0110   29.0190   41.1230 O   0  0  0  0  0  0  0  0  0  0  0  0
   37.6170   28.1070   40.9780 H   0  0  0  0  0  0  0  0  0  0  0  0
  1 11  1  0  0  0  0
  2  1  1  0  0  0  0
  2  9  1  0  0  0  0
  3  2  2  0  0  0  0
  4  5  2  0  0  0  0
  4  3  1  0  0  0  0
  5  6  1  0  0  0  0
  6  1  2  0  0  0  0
  7  3  1  0  0  0  0
  8  5  1  0  0  0  0
  9 10  1  0  0  0  0
 13 12  2  0  0  0  0
 13 11  1  0  0  0  0
 13 14  1  0  0  0  0
 15 14  1  0  0  0  0
 16 13  1  0  0  0  0
 17 16  1  0  0  0  0
M  END
>  <minimizedAffinity>
-3.62756395

$$$$

 OpenBabel03252507403D

 17 17  0  0  0  0  0  0  0  0999 V2000
   39.1000   30.4310   41.1050 C   0  0  0  0  0  0  0  0  0  0  0  0
   37.7970   30.1400   41.5770 C   0  0  0  0  0  0  0  0  0  0  0  0
   37.6400   29.2500   42.6390 C   0  0  0  0  0  0  0  0  0  0  0  0
   38.7660   28.7010   43.1720 N   0  0  0  0  0  0  0  0  0  0  0  0
   39.9900   29.0010   42.6980 C   0  0  0  0  0  0  0  0  0  0  0  0
   40.1690   29.8470   41.6850 N   0  0  0  0  0  0  0  0  0  0  0  0
   36.6510   29.0150   43.0140 H   0  0  0  0  0  0  0  0  0  0  0  0
   40.8490   28.5480   43.1450 H   0  0  0  0  0  0  0  0  0  0  0  0
   36.3860   30.9210   40.8000 S   0  0  0  0  0  0  0  0  0  0  0  0
   36.2290   30.4880   39.4740 H   0  0  0  0  0  0  0  0  0  0  0  0
   39.1840   31.3260   40.0460 O   0  0  0  0  0  0  0  0  0  0  0  0
   41.2000   32.8010   40.9660 O   0  0  0  0  0  0  0  0  0  0  0  0
   39.8000   32.8730   40.3990 P   0  0  0  0  0  0  0  0  0  0  0  0
   38.7900   33.7280   41.4520 O   0  0  0  0  0  0  0  0  0  0  0  0
   39.0670   34.6920   41.3510 H   0  0  0  0  0  0  0  0  0  0  0  0
   39.9060   33.6930   38.9050 O   0  0  0  0  0  0  0  0  0  0  0  0
   39.0140   33.5960   38.4540 H   0  0  0  0  0  0  0  0  0  0  0  0
  1  2  2  0  0  0  0
  1  6  1  0  0  0  0
  2  3  1  0  0  0  0
  3  7  1  0  0  0  0
  3  4  2  0  0  0  0
  5  8  1  0  0  0  0
  5  4  1  0  0  0  0
  6  5  2  0  0  0  0
  9  2  1  0  0  0  0
 10  9  1  0  0  0  0
 11 13  1  0  0  0  0
 11  1  1  0  0  0  0
 13 12  2  0  0  0  0
 13 14  1  0  0  0  0
 15 14  1  0  0  0  0
 16 13  1  0  0  0  0
 17 16  1  0  0  0  0
M  END
>  <minimizedAffinity>
-3.58738089

$$$$
