
 OpenBabel03252509353D

 42 43  0  0  1  0  0  0  0  0999 V2000
   44.5250   35.4570   44.0560 O   0  0  0  0  0  0  0  0  0  0  0  0
   45.3900   34.2510   44.3750 P   0  0  1  0  0  0  0  0  0  0  0  0
   44.7250   32.8420   43.7150 O   0  0  0  0  0  0  0  0  0  0  0  0
   44.3220   33.0220   42.8180 H   0  0  0  0  0  0  0  0  0  0  0  0
   46.9060   34.5210   43.7300 O   0  0  0  0  0  0  0  0  0  0  0  0
   47.0340   33.8330   42.5190 C   0  0  1  0  0  0  0  0  0  0  0  0
   46.4460   34.6700   41.3800 C   0  0  0  0  0  0  0  0  0  0  0  0
   46.9570   33.9020   40.1830 C   0  0  0  0  0  0  0  0  0  0  0  0
   48.2490   33.2340   40.6300 C   0  0  0  0  0  0  0  0  0  0  0  0
   48.4510   33.7050   42.0550 C   0  0  1  0  0  0  0  0  0  0  0  0
   46.5200   32.8750   42.4970 H   0  0  0  0  0  0  0  0  0  0  0  0
   45.3390   34.5580   41.4180 H   0  0  0  0  0  0  0  0  0  0  0  0
   46.7240   35.7180   41.4140 H   0  0  0  0  0  0  0  0  0  0  0  0
   46.1870   33.1370   39.8740 H   0  0  0  0  0  0  0  0  0  0  0  0
   47.1830   34.6020   39.3500 H   0  0  0  0  0  0  0  0  0  0  0  0
   49.0930   33.4900   39.9750 H   0  0  0  0  0  0  0  0  0  0  0  0
   48.0460   32.1460   40.6970 H   0  0  0  0  0  0  0  0  0  0  0  0
   48.9580   32.9400   42.6690 H   0  0  0  0  0  0  0  0  0  0  0  0
   49.2130   35.0010   42.1200 C   0  0  0  0  0  0  0  0  0  0  0  0
   48.5620   35.9070   42.1630 H   0  0  0  0  0  0  0  0  0  0  0  0
   49.8710   35.1240   41.2130 H   0  0  0  0  0  0  0  0  0  0  0  0
   50.0220   35.0730   43.2310 O   0  0  0  0  0  0  0  0  0  0  0  0
   50.1550   34.1650   43.5980 H   0  0  0  0  0  0  0  0  0  0  0  0
   45.4760   34.0070   46.0230 O   0  0  0  0  0  0  0  0  0  0  0  0
   46.4060   33.0540   46.2850 C   0  0  0  0  0  0  0  0  0  0  0  0
   47.2600   33.5540   46.8230 H   0  0  0  0  0  0  0  0  0  0  0  0
   46.8580   32.5270   45.4480 H   0  0  0  0  0  0  0  0  0  0  0  0
   45.3610   31.3530   49.4270 C   0  0  0  0  0  0  0  0  0  0  0  0
   45.8290   32.3570   48.5740 C   0  0  0  0  0  0  0  0  0  0  0  0
   45.9150   32.0200   47.2170 C   0  0  0  0  0  0  0  0  0  0  0  0
   45.5480   30.7670   46.8070 N   0  0  0  0  0  0  0  0  0  0  0  0
   45.1020   29.8270   47.6640 C   0  0  0  0  0  0  0  0  0  0  0  0
   45.0120   30.1280   48.9670 N   0  0  0  0  0  0  0  0  0  0  0  0
   45.2740   31.5570   50.4920 H   0  0  0  0  0  0  0  0  0  0  0  0
   46.1000   33.3220   48.9700 H   0  0  0  0  0  0  0  0  0  0  0  0
   44.7750   28.6140   47.0740 O   0  0  0  0  0  0  0  0  0  0  0  0
   43.8260   26.1990   47.2850 O   0  0  0  0  0  0  0  0  0  0  0  0
   44.8880   27.1190   47.8530 P   0  0  0  0  0  0  0  0  0  0  0  0
   44.5980   27.2440   49.5220 O   0  0  0  0  0  0  0  0  0  0  0  0
   43.6240   27.3770   49.6280 H   0  0  0  0  0  0  0  0  0  0  0  0
   46.3850   26.3740   47.6070 O   0  0  0  0  0  0  0  0  0  0  0  0
   46.6050   25.8730   48.4210 H   0  0  0  0  0  0  0  0  0  0  0  0
  2  1  2  6  0  0  0
  2 24  1  0  0  0  0
  3  2  1  0  0  0  0
  4  3  1  0  0  0  0
  5  2  1  0  0  0  0
  6 11  1  1  0  0  0
  6  5  1  0  0  0  0
  7 13  1  0  0  0  0
  7 12  1  0  0  0  0
  7  6  1  0  0  0  0
  8  9  1  0  0  0  0
  8  7  1  0  0  0  0
  9 17  1  0  0  0  0
  9 10  1  0  0  0  0
 10 19  1  0  0  0  0
 10  6  1  0  0  0  0
 10 18  1  1  0  0  0
 14  8  1  0  0  0  0
 15  8  1  0  0  0  0
 16  9  1  0  0  0  0
 19 20  1  0  0  0  0
 19 22  1  0  0  0  0
 21 19  1  0  0  0  0
 22 23  1  0  0  0  0
 24 25  1  0  0  0  0
 25 26  1  0  0  0  0
 25 30  1  0  0  0  0
 27 25  1  0  0  0  0
 28 34  1  0  0  0  0
 29 35  1  0  0  0  0
 29 28  2  0  0  0  0
 30 29  1  0  0  0  0
 31 30  2  0  0  0  0
 31 32  1  0  0  0  0
 32 33  2  0  0  0  0
 33 28  1  0  0  0  0
 36 32  1  0  0  0  0
 36 38  1  0  0  0  0
 37 38  2  0  0  0  0
 38 39  1  0  0  0  0
 39 40  1  0  0  0  0
 41 38  1  0  0  0  0
 41 42  1  0  0  0  0
M  END
>  <minimizedAffinity>
-5.91475964

>  <minimizedRMSD>
1.30921888

$$$$
