
 OpenBabel03252508233D

 43 45  0  0  0  0  0  0  0  0999 V2000
   45.6330   34.3680   41.2010 C   0  0  0  0  0  0  0  0  0  0  0  0
   46.3050   35.0890   42.1640 C   0  0  0  0  0  0  0  0  0  0  0  0
   45.6970   35.7860   43.1800 C   0  0  0  0  0  0  0  0  0  0  0  0
   44.2970   35.7290   43.2010 C   0  0  0  0  0  0  0  0  0  0  0  0
   43.5850   35.0270   42.2700 C   0  0  0  0  0  0  0  0  0  0  0  0
   44.2320   34.3510   41.2780 C   0  0  0  0  0  0  0  0  0  0  0  0
   47.3790   35.1720   42.2240 H   0  0  0  0  0  0  0  0  0  0  0  0
   46.1860   36.3540   43.9420 H   0  0  0  0  0  0  0  0  0  0  0  0
   43.7550   36.2670   43.9900 H   0  0  0  0  0  0  0  0  0  0  0  0
   42.4970   35.0360   42.3590 H   0  0  0  0  0  0  0  0  0  0  0  0
   43.4050   33.6500   40.3730 N   0  0  0  0  0  0  0  0  0  0  0  0
   42.9340   34.1830   39.1270 C   0  0  0  0  0  0  0  0  0  0  0  0
   42.4990   33.0780   38.1890 C   0  0  0  0  0  0  0  0  0  0  0  0
   43.3250   31.9220   38.2350 N   0  0  0  0  0  0  0  0  0  0  0  0
   43.4960   31.3590   39.5170 C   0  0  0  0  0  0  0  0  0  0  0  0
   42.9090   32.2790   40.5680 C   0  0  0  0  0  0  0  0  0  0  0  0
   43.5370   34.9570   38.6580 H   0  0  0  0  0  0  0  0  0  0  0  0
   41.9730   34.7210   39.3940 H   0  0  0  0  0  0  0  0  0  0  0  0
   42.5240   33.4880   37.1650 H   0  0  0  0  0  0  0  0  0  0  0  0
   41.4630   32.7470   38.4280 H   0  0  0  0  0  0  0  0  0  0  0  0
   43.2150   31.3240   37.4280 H   0  0  0  0  0  0  0  0  0  0  0  0
   42.9480   30.3930   39.5850 H   0  0  0  0  0  0  0  0  0  0  0  0
   44.5480   31.1380   39.7630 H   0  0  0  0  0  0  0  0  0  0  0  0
   41.7950   32.2820   40.5050 H   0  0  0  0  0  0  0  0  0  0  0  0
   43.2800   31.9260   41.5580 H   0  0  0  0  0  0  0  0  0  0  0  0
   46.2870   33.6330   40.1200 C   0  0  0  0  0  0  0  0  0  0  0  0
   45.7150   33.5560   39.1980 H   0  0  0  0  0  0  0  0  0  0  0  0
   46.3930   32.5720   40.4910 H   0  0  0  0  0  0  0  0  0  0  0  0
   47.6710   34.1750   39.8280 C   0  0  0  0  0  0  0  0  0  0  0  0
   48.3910   33.8530   40.6400 H   0  0  0  0  0  0  0  0  0  0  0  0
   47.7410   35.2430   39.6970 H   0  0  0  0  0  0  0  0  0  0  0  0
   48.1490   33.2180   36.2070 C   0  0  0  0  0  0  0  0  0  0  0  0
   47.6290   33.8380   37.3690 C   0  0  0  0  0  0  0  0  0  0  0  0
   48.1970   33.5340   38.6000 C   0  0  0  0  0  0  0  0  0  0  0  0
   49.2340   32.6420   38.6150 N   0  0  0  0  0  0  0  0  0  0  0  0
   49.7080   32.0680   37.5110 C   0  0  0  0  0  0  0  0  0  0  0  0
   49.1700   32.3510   36.3070 N   0  0  0  0  0  0  0  0  0  0  0  0
   47.6880   33.4710   35.2460 H   0  0  0  0  0  0  0  0  0  0  0  0
   46.8130   34.5310   37.3010 H   0  0  0  0  0  0  0  0  0  0  0  0
   50.8470   31.1110   37.6790 C   0  0  0  0  0  0  0  0  0  0  0  0
   51.1310   30.8760   39.0270 F   0  0  0  0  0  0  0  0  0  0  0  0
   52.0170   31.6150   37.1330 F   0  0  0  0  0  0  0  0  0  0  0  0
   50.5810   29.8710   37.1290 F   0  0  0  0  0  0  0  0  0  0  0  0
  1  6  2  0  0  0  0
  1  2  1  0  0  0  0
  2  7  1  0  0  0  0
  2  3  2  0  0  0  0
  3  4  1  0  0  0  0
  3  8  1  0  0  0  0
  4  9  1  0  0  0  0
  5 10  1  0  0  0  0
  5  4  2  0  0  0  0
  6  5  1  0  0  0  0
 11 16  1  0  0  0  0
 11  6  1  0  0  0  0
 12 18  1  0  0  0  0
 12 11  1  0  0  0  0
 13 14  1  0  0  0  0
 13 20  1  0  0  0  0
 13 12  1  0  0  0  0
 14 15  1  0  0  0  0
 15 22  1  0  0  0  0
 15 23  1  0  0  0  0
 15 16  1  0  0  0  0
 16 25  1  0  0  0  0
 17 12  1  0  0  0  0
 19 13  1  0  0  0  0
 21 14  1  0  0  0  0
 24 16  1  0  0  0  0
 26 28  1  0  0  0  0
 26  1  1  0  0  0  0
 27 26  1  0  0  0  0
 29 26  1  0  0  0  0
 29 30  1  0  0  0  0
 31 29  1  0  0  0  0
 32 37  2  0  0  0  0
 32 33  1  0  0  0  0
 33 34  2  0  0  0  0
 34 35  1  0  0  0  0
 34 29  1  0  0  0  0
 36 40  1  0  0  0  0
 36 35  2  0  0  0  0
 37 36  1  0  0  0  0
 38 32  1  0  0  0  0
 39 33  1  0  0  0  0
 40 41  1  0  0  0  0
 42 40  1  0  0  0  0
 43 40  1  0  0  0  0
M  END
>  <minimizedAffinity>
-4.44302368

>  <minimizedRMSD>
7.90738726

$$$$
