
 OpenBabel03242514453D

 16 16  0  0  0  0  0  0  0  0999 V2000
   38.1840   25.3490   42.4740 C   0  0  0  0  0  0  0  0  0  0  0  0
   38.2130   26.6360   43.0080 C   0  0  0  0  0  0  0  0  0  0  0  0
   39.3990   27.0530   43.6300 C   0  0  0  0  0  0  0  0  0  0  0  0
   40.4480   26.1880   43.6800 N   0  0  0  0  0  0  0  0  0  0  0  0
   40.3690   24.9470   43.1460 C   0  0  0  0  0  0  0  0  0  0  0  0
   39.2390   24.5200   42.5410 N   0  0  0  0  0  0  0  0  0  0  0  0
   39.4670   28.0390   44.0570 H   0  0  0  0  0  0  0  0  0  0  0  0
   41.2590   24.3190   43.2310 H   0  0  0  0  0  0  0  0  0  0  0  0
   36.9160   24.9020   41.8100 C   0  0  0  0  0  0  0  0  0  0  0  0
   37.0370   23.8390   41.4930 H   0  0  0  0  0  0  0  0  0  0  0  0
   36.7630   25.4990   40.8700 H   0  0  0  0  0  0  0  0  0  0  0  0
   36.0370   25.0020   42.4440 H   0  0  0  0  0  0  0  0  0  0  0  0
   37.0390   27.5450   42.9300 C   0  0  0  0  0  0  0  0  0  0  0  0
   37.3330   28.8040   43.4590 F   0  0  0  0  0  0  0  0  0  0  0  0
   35.9970   27.0440   43.6800 F   0  0  0  0  0  0  0  0  0  0  0  0
   36.7420   27.7610   41.6170 F   0  0  0  0  0  0  0  0  0  0  0  0
  1  6  2  0  0  0  0
  1  2  1  0  0  0  0
  2  3  2  0  0  0  0
  3  4  1  0  0  0  0
  3  7  1  0  0  0  0
  5  8  1  0  0  0  0
  5  4  2  0  0  0  0
  6  5  1  0  0  0  0
  9 12  1  0  0  0  0
  9  1  1  0  0  0  0
 10  9  1  0  0  0  0
 11  9  1  0  0  0  0
 13  2  1  0  0  0  0
 13 14  1  0  0  0  0
 13 15  1  0  0  0  0
 16 13  1  0  0  0  0
M  END
>  <minimizedAffinity>
-3.86613679

$$$$

 OpenBabel03242514453D

 16 16  0  0  0  0  0  0  0  0999 V2000
   39.1170   27.4290   43.2430 C   0  0  0  0  0  0  0  0  0  0  0  0
   38.4780   26.2540   42.8520 C   0  0  0  0  0  0  0  0  0  0  0  0
   39.2340   25.0720   42.8530 C   0  0  0  0  0  0  0  0  0  0  0  0
   40.5400   25.1360   43.2310 N   0  0  0  0  0  0  0  0  0  0  0  0
   41.1140   26.3030   43.6020 C   0  0  0  0  0  0  0  0  0  0  0  0
   40.4080   27.4550   43.6100 N   0  0  0  0  0  0  0  0  0  0  0  0
   38.7820   24.1410   42.5580 H   0  0  0  0  0  0  0  0  0  0  0  0
   42.1680   26.2610   43.8900 H   0  0  0  0  0  0  0  0  0  0  0  0
   38.3080   28.6920   43.2410 C   0  0  0  0  0  0  0  0  0  0  0  0
   38.9770   29.5420   43.5180 H   0  0  0  0  0  0  0  0  0  0  0  0
   37.5250   28.6280   44.0440 H   0  0  0  0  0  0  0  0  0  0  0  0
   37.8270   28.8960   42.2860 H   0  0  0  0  0  0  0  0  0  0  0  0
   37.0470   26.2360   42.4450 C   0  0  0  0  0  0  0  0  0  0  0  0
   36.5820   24.9310   42.2740 F   0  0  0  0  0  0  0  0  0  0  0  0
   36.8900   26.8660   41.2300 F   0  0  0  0  0  0  0  0  0  0  0  0
   36.3000   26.7600   43.4590 F   0  0  0  0  0  0  0  0  0  0  0  0
  1  6  1  0  0  0  0
  2  3  1  0  0  0  0
  2  1  2  0  0  0  0
  3  4  2  0  0  0  0
  4  5  1  0  0  0  0
  5  6  2  0  0  0  0
  5  8  1  0  0  0  0
  7  3  1  0  0  0  0
  9  1  1  0  0  0  0
  9 10  1  0  0  0  0
  9 11  1  0  0  0  0
 12  9  1  0  0  0  0
 13  2  1  0  0  0  0
 13 16  1  0  0  0  0
 14 13  1  0  0  0  0
 15 13  1  0  0  0  0
M  END
>  <minimizedAffinity>
-3.72330308

$$$$

 OpenBabel03242514453D

 16 16  0  0  0  0  0  0  0  0999 V2000
   39.0130   28.2870   42.9070 C   0  0  0  0  0  0  0  0  0  0  0  0
   37.7930   28.6740   42.3560 C   0  0  0  0  0  0  0  0  0  0  0  0
   37.7210   29.9460   41.7690 C   0  0  0  0  0  0  0  0  0  0  0  0
   38.8350   30.7280   41.7700 N   0  0  0  0  0  0  0  0  0  0  0  0
   39.9970   30.3050   42.3190 C   0  0  0  0  0  0  0  0  0  0  0  0
   40.0940   29.0850   42.8900 N   0  0  0  0  0  0  0  0  0  0  0  0
   36.7990   30.2870   41.3310 H   0  0  0  0  0  0  0  0  0  0  0  0
   40.8410   30.9990   42.2760 H   0  0  0  0  0  0  0  0  0  0  0  0
   39.0900   26.9270   43.5350 C   0  0  0  0  0  0  0  0  0  0  0  0
   40.1070   26.7980   43.9770 H   0  0  0  0  0  0  0  0  0  0  0  0
   38.9900   26.1460   42.7330 H   0  0  0  0  0  0  0  0  0  0  0  0
   38.3310   26.7590   44.2960 H   0  0  0  0  0  0  0  0  0  0  0  0
   36.6020   27.7840   42.3800 C   0  0  0  0  0  0  0  0  0  0  0  0
   35.5290   28.3490   41.6900 F   0  0  0  0  0  0  0  0  0  0  0  0
   36.1750   27.5960   43.6770 F   0  0  0  0  0  0  0  0  0  0  0  0
   36.9040   26.6350   41.7100 F   0  0  0  0  0  0  0  0  0  0  0  0
  1  9  1  0  0  0  0
  2 13  1  0  0  0  0
  2  1  2  0  0  0  0
  3  4  2  0  0  0  0
  3  2  1  0  0  0  0
  4  5  1  0  0  0  0
  5  6  2  0  0  0  0
  6  1  1  0  0  0  0
  7  3  1  0  0  0  0
  8  5  1  0  0  0  0
  9 10  1  0  0  0  0
  9 12  1  0  0  0  0
 11  9  1  0  0  0  0
 13 15  1  0  0  0  0
 14 13  1  0  0  0  0
 16 13  1  0  0  0  0
M  END
>  <minimizedAffinity>
-3.63496542

$$$$

 OpenBabel03242514453D

 16 16  0  0  0  0  0  0  0  0999 V2000
   36.8030   29.4300   41.3080 C   0  0  0  0  0  0  0  0  0  0  0  0
   37.5210   28.6970   42.2500 C   0  0  0  0  0  0  0  0  0  0  0  0
   38.7220   29.2490   42.7230 C   0  0  0  0  0  0  0  0  0  0  0  0
   39.1170   30.4580   42.2410 N   0  0  0  0  0  0  0  0  0  0  0  0
   38.3820   31.1300   41.3250 C   0  0  0  0  0  0  0  0  0  0  0  0
   37.2230   30.6220   40.8530 N   0  0  0  0  0  0  0  0  0  0  0  0
   39.3100   28.7170   43.4510 H   0  0  0  0  0  0  0  0  0  0  0  0
   38.7760   32.0950   40.9930 H   0  0  0  0  0  0  0  0  0  0  0  0
   35.5200   28.8400   40.8020 C   0  0  0  0  0  0  0  0  0  0  0  0
   35.1030   29.5170   40.0180 H   0  0  0  0  0  0  0  0  0  0  0  0
   34.7690   28.8210   41.6370 H   0  0  0  0  0  0  0  0  0  0  0  0
   35.6350   27.8350   40.4010 H   0  0  0  0  0  0  0  0  0  0  0  0
   37.0480   27.3770   42.7460 C   0  0  0  0  0  0  0  0  0  0  0  0
   37.9970   26.7740   43.5740 F   0  0  0  0  0  0  0  0  0  0  0  0
   36.8510   26.5140   41.6900 F   0  0  0  0  0  0  0  0  0  0  0  0
   35.9510   27.5760   43.5310 F   0  0  0  0  0  0  0  0  0  0  0  0
  1  2  1  0  0  0  0
  2  3  2  0  0  0  0
  2 13  1  0  0  0  0
  3  7  1  0  0  0  0
  4  3  1  0  0  0  0
  5  4  2  0  0  0  0
  6  1  2  0  0  0  0
  6  5  1  0  0  0  0
  8  5  1  0  0  0  0
  9  1  1  0  0  0  0
  9 11  1  0  0  0  0
 10  9  1  0  0  0  0
 12  9  1  0  0  0  0
 13 16  1  0  0  0  0
 13 14  1  0  0  0  0
 15 13  1  0  0  0  0
M  END
>  <minimizedAffinity>
-3.63080287

$$$$

 OpenBabel03242514453D

 16 16  0  0  0  0  0  0  0  0999 V2000
   36.4330   30.4770   38.5270 C   0  0  0  0  0  0  0  0  0  0  0  0
   36.1110   30.1380   39.8390 C   0  0  0  0  0  0  0  0  0  0  0  0
   36.5390   31.0040   40.8570 C   0  0  0  0  0  0  0  0  0  0  0  0
   37.2390   32.1180   40.5120 N   0  0  0  0  0  0  0  0  0  0  0  0
   37.5260   32.4030   39.2210 C   0  0  0  0  0  0  0  0  0  0  0  0
   37.1260   31.5860   38.2220 N   0  0  0  0  0  0  0  0  0  0  0  0
   36.3130   30.7810   41.8850 H   0  0  0  0  0  0  0  0  0  0  0  0
   38.0940   33.3190   39.0350 H   0  0  0  0  0  0  0  0  0  0  0  0
   35.9760   29.5510   37.4380 C   0  0  0  0  0  0  0  0  0  0  0  0
   36.3630   29.9320   36.4630 H   0  0  0  0  0  0  0  0  0  0  0  0
   34.8550   29.5870   37.3720 H   0  0  0  0  0  0  0  0  0  0  0  0
   36.2940   28.5210   37.5860 H   0  0  0  0  0  0  0  0  0  0  0  0
   35.3440   28.9070   40.1660 C   0  0  0  0  0  0  0  0  0  0  0  0
   35.4570   28.5800   41.5190 F   0  0  0  0  0  0  0  0  0  0  0  0
   35.8460   27.8320   39.4650 F   0  0  0  0  0  0  0  0  0  0  0  0
   34.0180   29.1520   39.9590 F   0  0  0  0  0  0  0  0  0  0  0  0
  1  2  1  0  0  0  0
  2 13  1  0  0  0  0
  2  3  2  0  0  0  0
  3  7  1  0  0  0  0
  4  3  1  0  0  0  0
  5  4  2  0  0  0  0
  6  1  2  0  0  0  0
  6  5  1  0  0  0  0
  8  5  1  0  0  0  0
  9 12  1  0  0  0  0
  9  1  1  0  0  0  0
 10  9  1  0  0  0  0
 11  9  1  0  0  0  0
 13 14  1  0  0  0  0
 15 13  1  0  0  0  0
 16 13  1  0  0  0  0
M  END
>  <minimizedAffinity>
-3.61391282

$$$$

 OpenBabel03242514453D

 16 16  0  0  0  0  0  0  0  0999 V2000
   37.7430   28.8810   41.6610 C   0  0  0  0  0  0  0  0  0  0  0  0
   37.1440   27.6240   41.6510 C   0  0  0  0  0  0  0  0  0  0  0  0
   36.6940   27.1290   40.4180 C   0  0  0  0  0  0  0  0  0  0  0  0
   36.8640   27.8960   39.3070 N   0  0  0  0  0  0  0  0  0  0  0  0
   37.4520   29.1130   39.3700 C   0  0  0  0  0  0  0  0  0  0  0  0
   37.8950   29.6130   40.5440 N   0  0  0  0  0  0  0  0  0  0  0  0
   36.2240   26.1620   40.3630 H   0  0  0  0  0  0  0  0  0  0  0  0
   37.5470   29.6610   38.4280 H   0  0  0  0  0  0  0  0  0  0  0  0
   38.2240   29.4110   42.9790 C   0  0  0  0  0  0  0  0  0  0  0  0
   38.6190   30.4430   42.8240 H   0  0  0  0  0  0  0  0  0  0  0  0
   39.0900   28.7880   43.3320 H   0  0  0  0  0  0  0  0  0  0  0  0
   37.4530   29.4210   43.7470 H   0  0  0  0  0  0  0  0  0  0  0  0
   36.9790   26.8220   42.8930 C   0  0  0  0  0  0  0  0  0  0  0  0
   38.1460   26.8260   43.6610 F   0  0  0  0  0  0  0  0  0  0  0  0
   36.7250   25.5050   42.5800 F   0  0  0  0  0  0  0  0  0  0  0  0
   36.0290   27.4160   43.6710 F   0  0  0  0  0  0  0  0  0  0  0  0
  1  9  1  0  0  0  0
  2  1  1  0  0  0  0
  2 13  1  0  0  0  0
  3  2  2  0  0  0  0
  4  5  2  0  0  0  0
  4  3  1  0  0  0  0
  5  6  1  0  0  0  0
  6  1  2  0  0  0  0
  7  3  1  0  0  0  0
  8  5  1  0  0  0  0
  9 11  1  0  0  0  0
  9 12  1  0  0  0  0
 10  9  1  0  0  0  0
 13 14  1  0  0  0  0
 13 16  1  0  0  0  0
 15 13  1  0  0  0  0
M  END
>  <minimizedAffinity>
-3.60868835

$$$$

 OpenBabel03242514453D

 16 16  0  0  0  0  0  0  0  0999 V2000
   36.8780   30.9140   38.4900 C   0  0  0  0  0  0  0  0  0  0  0  0
   37.0090   31.6170   39.6860 C   0  0  0  0  0  0  0  0  0  0  0  0
   36.4020   31.0730   40.8280 C   0  0  0  0  0  0  0  0  0  0  0  0
   35.7230   29.9000   40.7080 N   0  0  0  0  0  0  0  0  0  0  0  0
   35.6240   29.2560   39.5220 C   0  0  0  0  0  0  0  0  0  0  0  0
   36.2000   29.7580   38.4080 N   0  0  0  0  0  0  0  0  0  0  0  0
   36.4770   31.5820   41.7730 H   0  0  0  0  0  0  0  0  0  0  0  0
   35.0600   28.3200   39.5180 H   0  0  0  0  0  0  0  0  0  0  0  0
   37.5260   31.4960   37.2690 C   0  0  0  0  0  0  0  0  0  0  0  0
   37.2780   30.8490   36.3930 H   0  0  0  0  0  0  0  0  0  0  0  0
   38.6420   31.4530   37.3890 H   0  0  0  0  0  0  0  0  0  0  0  0
   37.2260   32.5220   37.0680 H   0  0  0  0  0  0  0  0  0  0  0  0
   37.7610   32.8980   39.7660 C   0  0  0  0  0  0  0  0  0  0  0  0
   38.9210   32.8570   38.9910 F   0  0  0  0  0  0  0  0  0  0  0  0
   38.1680   33.1310   41.0620 F   0  0  0  0  0  0  0  0  0  0  0  0
   36.9940   33.8870   39.2240 F   0  0  0  0  0  0  0  0  0  0  0  0
  1  2  1  0  0  0  0
  2 13  1  0  0  0  0
  2  3  2  0  0  0  0
  3  7  1  0  0  0  0
  4  3  1  0  0  0  0
  5  4  2  0  0  0  0
  6  1  2  0  0  0  0
  6  5  1  0  0  0  0
  8  5  1  0  0  0  0
  9 11  1  0  0  0  0
  9  1  1  0  0  0  0
 10  9  1  0  0  0  0
 12  9  1  0  0  0  0
 13 15  1  0  0  0  0
 14 13  1  0  0  0  0
 16 13  1  0  0  0  0
M  END
>  <minimizedAffinity>
-3.57248521

$$$$

 OpenBabel03242514453D

 16 16  0  0  0  0  0  0  0  0999 V2000
   37.5830   29.6280   41.9380 C   0  0  0  0  0  0  0  0  0  0  0  0
   36.9000   28.4390   41.6860 C   0  0  0  0  0  0  0  0  0  0  0  0
   35.8240   28.4870   40.7880 C   0  0  0  0  0  0  0  0  0  0  0  0
   35.5050   29.6810   40.2160 N   0  0  0  0  0  0  0  0  0  0  0  0
   36.2000   30.8070   40.4950 C   0  0  0  0  0  0  0  0  0  0  0  0
   37.2410   30.7890   41.3560 N   0  0  0  0  0  0  0  0  0  0  0  0
   35.2670   27.5940   40.5630 H   0  0  0  0  0  0  0  0  0  0  0  0
   35.8750   31.7220   39.9900 H   0  0  0  0  0  0  0  0  0  0  0  0
   38.7330   29.5770   42.8990 C   0  0  0  0  0  0  0  0  0  0  0  0
   39.1290   30.6110   43.0340 H   0  0  0  0  0  0  0  0  0  0  0  0
   39.5660   28.9750   42.4440 H   0  0  0  0  0  0  0  0  0  0  0  0
   38.4700   29.1510   43.8650 H   0  0  0  0  0  0  0  0  0  0  0  0
   37.2850   27.1590   42.3370 C   0  0  0  0  0  0  0  0  0  0  0  0
   36.5780   26.0810   41.8010 F   0  0  0  0  0  0  0  0  0  0  0  0
   36.9770   27.1960   43.6800 F   0  0  0  0  0  0  0  0  0  0  0  0
   38.5970   26.9090   42.0620 F   0  0  0  0  0  0  0  0  0  0  0  0
  1  9  1  0  0  0  0
  2  1  1  0  0  0  0
  2 13  1  0  0  0  0
  3  2  2  0  0  0  0
  4  5  2  0  0  0  0
  4  3  1  0  0  0  0
  5  6  1  0  0  0  0
  6  1  2  0  0  0  0
  7  3  1  0  0  0  0
  8  5  1  0  0  0  0
  9 10  1  0  0  0  0
  9 12  1  0  0  0  0
 11  9  1  0  0  0  0
 13 15  1  0  0  0  0
 14 13  1  0  0  0  0
 16 13  1  0  0  0  0
M  END
>  <minimizedAffinity>
-3.55995846

$$$$

 OpenBabel03242514453D

 16 16  0  0  0  0  0  0  0  0999 V2000
   39.1240   27.2380   43.1790 C   0  0  0  0  0  0  0  0  0  0  0  0
   38.4180   26.1790   42.6130 C   0  0  0  0  0  0  0  0  0  0  0  0
   37.1120   26.4350   42.1660 C   0  0  0  0  0  0  0  0  0  0  0  0
   36.6100   27.6920   42.3090 N   0  0  0  0  0  0  0  0  0  0  0  0
   37.3380   28.6860   42.8670 C   0  0  0  0  0  0  0  0  0  0  0  0
   38.5970   28.4670   43.3050 N   0  0  0  0  0  0  0  0  0  0  0  0
   36.5290   25.6470   41.7220 H   0  0  0  0  0  0  0  0  0  0  0  0
   36.8550   29.6650   42.9420 H   0  0  0  0  0  0  0  0  0  0  0  0
   40.5190   26.9640   43.6580 C   0  0  0  0  0  0  0  0  0  0  0  0
   40.9190   27.8900   44.1340 H   0  0  0  0  0  0  0  0  0  0  0  0
   41.1760   26.7530   42.7720 H   0  0  0  0  0  0  0  0  0  0  0  0
   40.5800   26.1320   44.3560 H   0  0  0  0  0  0  0  0  0  0  0  0
   39.0100   24.8210   42.4790 C   0  0  0  0  0  0  0  0  0  0  0  0
   39.5790   24.3930   43.6800 F   0  0  0  0  0  0  0  0  0  0  0  0
   40.0270   24.8350   41.5500 F   0  0  0  0  0  0  0  0  0  0  0  0
   38.0090   23.9340   42.2130 F   0  0  0  0  0  0  0  0  0  0  0  0
  1  6  1  0  0  0  0
  1  9  1  0  0  0  0
  2  1  2  0  0  0  0
  3  4  2  0  0  0  0
  3  2  1  0  0  0  0
  4  5  1  0  0  0  0
  5  8  1  0  0  0  0
  5  6  2  0  0  0  0
  7  3  1  0  0  0  0
  9 10  1  0  0  0  0
  9 12  1  0  0  0  0
 11  9  1  0  0  0  0
 13  2  1  0  0  0  0
 13 14  1  0  0  0  0
 15 13  1  0  0  0  0
 16 13  1  0  0  0  0
M  END
>  <minimizedAffinity>
-3.53528094

$$$$
