
 OpenBabel03252502433D

 26 27  0  0  1  0  0  0  0  0999 V2000
   46.6720   34.8560   41.4170 C   0  0  0  0  0  0  0  0  0  0  0  0
   46.1000   34.8500   40.4660 H   0  0  0  0  0  0  0  0  0  0  0  0
   46.6060   35.8430   41.9220 H   0  0  0  0  0  0  0  0  0  0  0  0
   48.1230   34.5660   41.1850 C   0  0  1  0  0  0  0  0  0  0  0  0
   49.1080   35.6040   41.6190 C   0  0  0  0  0  0  0  0  0  0  0  0
   48.9650   34.3420   42.3710 C   0  0  2  0  0  0  0  0  0  0  0  0
   48.2760   34.0290   40.2110 H   0  0  0  0  0  0  0  0  0  0  0  0
   49.9450   35.7380   40.9010 H   0  0  0  0  0  0  0  0  0  0  0  0
   48.7950   36.5990   41.9940 H   0  0  0  0  0  0  0  0  0  0  0  0
   48.7020   34.1350   43.3810 H   0  0  0  0  0  0  0  0  0  0  0  0
   50.0910   33.3380   42.0520 C   0  0  0  0  0  0  0  0  0  0  0  0
   51.3100   33.9560   42.3520 F   0  0  0  0  0  0  0  0  0  0  0  0
   50.0420   32.2310   42.8740 F   0  0  0  0  0  0  0  0  0  0  0  0
   50.0450   32.8790   40.7700 F   0  0  0  0  0  0  0  0  0  0  0  0
   46.1460   33.7040   42.2380 C   0  0  0  0  0  0  0  0  0  0  0  0
   47.0560   33.2410   42.7370 H   0  0  0  0  0  0  0  0  0  0  0  0
   45.5180   33.0090   41.7040 H   0  0  0  0  0  0  0  0  0  0  0  0
   44.4480   35.9400   44.7140 C   0  0  0  0  0  0  0  0  0  0  0  0
   44.9270   35.4380   43.4900 C   0  0  0  0  0  0  0  0  0  0  0  0
   45.5720   34.2340   43.5100 C   0  0  0  0  0  0  0  0  0  0  0  0
   45.7230   33.5700   44.6910 N   0  0  0  0  0  0  0  0  0  0  0  0
   45.2640   34.0550   45.8330 C   0  0  0  0  0  0  0  0  0  0  0  0
   44.6270   35.2360   45.8590 N   0  0  0  0  0  0  0  0  0  0  0  0
   43.9260   36.8670   44.8610 H   0  0  0  0  0  0  0  0  0  0  0  0
   44.6750   36.1280   42.7070 H   0  0  0  0  0  0  0  0  0  0  0  0
   45.4550   33.4210   46.6970 H   0  0  0  0  0  0  0  0  0  0  0  0
  1  3  1  0  0  0  0
  1 15  1  0  0  0  0
  2  1  1  0  0  0  0
  4  7  1  6  0  0  0
  4  1  1  0  0  0  0
  4  5  1  0  0  0  0
  4  6  1  0  0  0  0
  5  9  1  0  0  0  0
  5  6  1  0  0  0  0
  6 10  1  1  0  0  0
  8  5  1  0  0  0  0
 11 12  1  0  0  0  0
 11  6  1  0  0  0  0
 11 13  1  0  0  0  0
 14 11  1  0  0  0  0
 15 16  1  0  0  0  0
 15 20  1  0  0  0  0
 17 15  1  0  0  0  0
 18 24  1  0  0  0  0
 18 23  1  0  0  0  0
 19 20  1  0  0  0  0
 19 18  2  0  0  0  0
 20 21  2  0  0  0  0
 21 22  1  0  0  0  0
 22 23  2  0  0  0  0
 22 26  1  0  0  0  0
 25 19  1  0  0  0  0
M  END
>  <minimizedAffinity>
-4.65463066

>  <minimizedRMSD>
1.03069258

$$$$
