
 OpenBabel03252509203D

 20 21  0  0  0  0  0  0  0  0999 V2000
   44.7830   35.2140   45.2800 C   0  0  0  0  0  0  0  0  0  0  0  0
   45.5150   34.9120   44.0840 C   0  0  0  0  0  0  0  0  0  0  0  0
   46.2640   33.7550   44.1690 C   0  0  0  0  0  0  0  0  0  0  0  0
   46.2910   32.9720   45.3090 N   0  0  0  0  0  0  0  0  0  0  0  0
   45.5730   33.3140   46.4070 C   0  0  0  0  0  0  0  0  0  0  0  0
   44.8300   34.4310   46.3780 N   0  0  0  0  0  0  0  0  0  0  0  0
   44.1690   36.0810   45.3420 H   0  0  0  0  0  0  0  0  0  0  0  0
   45.7420   32.5680   47.1680 H   0  0  0  0  0  0  0  0  0  0  0  0
   46.9810   33.3080   42.9240 C   0  0  0  0  0  0  0  0  0  0  0  0
   48.5010   33.4790   43.0770 C   0  0  0  0  0  0  0  0  0  0  0  0
   47.7670   32.1090   42.9800 C   0  0  0  0  0  0  0  0  0  0  0  0
   46.6390   33.8110   42.0110 H   0  0  0  0  0  0  0  0  0  0  0  0
   48.8580   33.7940   44.0590 H   0  0  0  0  0  0  0  0  0  0  0  0
   49.1100   33.7590   42.2160 H   0  0  0  0  0  0  0  0  0  0  0  0
   48.0220   31.5170   42.0510 H   0  0  0  0  0  0  0  0  0  0  0  0
   47.9140   31.5020   43.9150 H   0  0  0  0  0  0  0  0  0  0  0  0
   45.3970   35.8120   42.9420 C   0  0  0  0  0  0  0  0  0  0  0  0
   44.9600   37.0620   43.3350 F   0  0  0  0  0  0  0  0  0  0  0  0
   44.6080   35.2830   41.9440 F   0  0  0  0  0  0  0  0  0  0  0  0
   46.6470   36.0050   42.3850 F   0  0  0  0  0  0  0  0  0  0  0  0
  1  7  1  0  0  0  0
  1  6  1  0  0  0  0
  2  3  1  0  0  0  0
  2  1  2  0  0  0  0
  3  4  2  0  0  0  0
  4  5  1  0  0  0  0
  5  8  1  0  0  0  0
  6  5  2  0  0  0  0
  9 11  1  0  0  0  0
  9 10  1  0  0  0  0
  9  3  1  0  0  0  0
 10 13  1  0  0  0  0
 11 10  1  0  0  0  0
 11 16  1  0  0  0  0
 12  9  1  0  0  0  0
 14 10  1  0  0  0  0
 15 11  1  0  0  0  0
 17 18  1  0  0  0  0
 17  2  1  0  0  0  0
 19 17  1  0  0  0  0
 20 17  1  0  0  0  0
M  END
>  <minimizedAffinity>
-3.92749882

>  <minimizedRMSD>
1.67594099

$$$$
