
 OpenBabel03242522143D

 21 22  0  0  0  0  0  0  0  0999 V2000
   36.9600   32.4800   39.9180 C   0  0  0  0  0  0  0  0  0  0  0  0
   36.6910   31.1390   40.2470 C   0  0  0  0  0  0  0  0  0  0  0  0
   37.3680   30.1560   39.5730 C   0  0  0  0  0  0  0  0  0  0  0  0
   38.2750   30.5620   38.6110 N   0  0  0  0  0  0  0  0  0  0  0  0
   38.5030   31.8500   38.3250 C   0  0  0  0  0  0  0  0  0  0  0  0
   37.8450   32.8080   38.9810 N   0  0  0  0  0  0  0  0  0  0  0  0
   36.4450   33.2820   40.4290 H   0  0  0  0  0  0  0  0  0  0  0  0
   39.2520   31.9650   37.5380 H   0  0  0  0  0  0  0  0  0  0  0  0
   37.1470   28.7190   39.8570 C   0  0  0  0  0  0  0  0  0  0  0  0
   36.9500   27.7930   38.8820 C   0  0  0  0  0  0  0  0  0  0  0  0
   36.7390   26.2270   39.8340 S   0  0  0  0  0  0  0  0  0  0  0  0
   36.9720   27.1700   41.4540 C   0  0  0  0  0  0  0  0  0  0  0  0
   37.1260   28.2310   41.0610 N   0  0  0  0  0  0  0  0  0  0  0  0
   36.9340   28.0280   37.7630 H   0  0  0  0  0  0  0  0  0  0  0  0
   36.9300   26.5130   42.8060 C   0  0  0  0  0  0  0  0  0  0  0  0
   36.0890   27.2650   43.5650 F   0  0  0  0  0  0  0  0  0  0  0  0
   36.5720   25.2070   42.6500 F   0  0  0  0  0  0  0  0  0  0  0  0
   38.2310   26.6010   43.3070 F   0  0  0  0  0  0  0  0  0  0  0  0
   35.7310   30.9100   41.2540 N   0  0  0  0  0  0  0  0  0  0  0  0
   35.0140   30.1700   41.0610 H   0  0  0  0  0  0  0  0  0  0  0  0
   35.8110   31.4890   42.1010 H   0  0  0  0  0  0  0  0  0  0  0  0
  1  2  1  0  0  0  0
  1  7  1  0  0  0  0
  2 19  1  0  0  0  0
  3  9  1  0  0  0  0
  3  2  2  0  0  0  0
  4  3  1  0  0  0  0
  5  4  2  0  0  0  0
  5  6  1  0  0  0  0
  6  1  2  0  0  0  0
  8  5  1  0  0  0  0
  9 13  1  0  0  0  0
 10 11  1  0  0  0  0
 10  9  2  0  0  0  0
 11 12  1  0  0  0  0
 12 15  1  0  0  0  0
 13 12  2  0  0  0  0
 14 10  1  0  0  0  0
 15 18  1  0  0  0  0
 15 16  1  0  0  0  0
 17 15  1  0  0  0  0
 19 21  1  0  0  0  0
 20 19  1  0  0  0  0
M  END
>  <minimizedAffinity>
-4.91892481

$$$$

 OpenBabel03242522143D

 21 22  0  0  0  0  0  0  0  0999 V2000
   37.0150   32.3120   39.8690 C   0  0  0  0  0  0  0  0  0  0  0  0
   36.9480   31.1750   40.6950 C   0  0  0  0  0  0  0  0  0  0  0  0
   38.0950   30.4540   40.9020 C   0  0  0  0  0  0  0  0  0  0  0  0
   39.2440   30.9030   40.2770 N   0  0  0  0  0  0  0  0  0  0  0  0
   39.2680   31.9900   39.4960 C   0  0  0  0  0  0  0  0  0  0  0  0
   38.1520   32.6940   39.2930 N   0  0  0  0  0  0  0  0  0  0  0  0
   36.1310   32.9060   39.6830 H   0  0  0  0  0  0  0  0  0  0  0  0
   40.2660   32.1810   39.0940 H   0  0  0  0  0  0  0  0  0  0  0  0
   38.1140   29.2450   41.7580 C   0  0  0  0  0  0  0  0  0  0  0  0
   38.5700   29.2510   43.0380 C   0  0  0  0  0  0  0  0  0  0  0  0
   38.3460   27.4970   43.5660 S   0  0  0  0  0  0  0  0  0  0  0  0
   37.6400   27.0660   41.8680 C   0  0  0  0  0  0  0  0  0  0  0  0
   37.6970   28.0840   41.3510 N   0  0  0  0  0  0  0  0  0  0  0  0
   38.9780   30.1760   43.5740 H   0  0  0  0  0  0  0  0  0  0  0  0
   37.1810   25.6860   41.4890 C   0  0  0  0  0  0  0  0  0  0  0  0
   36.5330   25.1920   42.5770 F   0  0  0  0  0  0  0  0  0  0  0  0
   36.4400   25.7650   40.3490 F   0  0  0  0  0  0  0  0  0  0  0  0
   38.3480   24.9530   41.2570 F   0  0  0  0  0  0  0  0  0  0  0  0
   35.6900   30.8630   41.2490 N   0  0  0  0  0  0  0  0  0  0  0  0
   35.3910   29.8600   41.2010 H   0  0  0  0  0  0  0  0  0  0  0  0
   35.1630   31.6480   41.6560 H   0  0  0  0  0  0  0  0  0  0  0  0
  1  2  1  0  0  0  0
  2  3  2  0  0  0  0
  2 19  1  0  0  0  0
  3  9  1  0  0  0  0
  4  3  1  0  0  0  0
  5  4  2  0  0  0  0
  6  5  1  0  0  0  0
  6  1  2  0  0  0  0
  7  1  1  0  0  0  0
  8  5  1  0  0  0  0
  9 10  2  0  0  0  0
 10 11  1  0  0  0  0
 10 14  1  0  0  0  0
 12 11  1  0  0  0  0
 13  9  1  0  0  0  0
 13 12  2  0  0  0  0
 15 12  1  0  0  0  0
 15 16  1  0  0  0  0
 17 15  1  0  0  0  0
 18 15  1  0  0  0  0
 19 21  1  0  0  0  0
 20 19  1  0  0  0  0
M  END
>  <minimizedAffinity>
-4.90619373

$$$$

 OpenBabel03242522143D

 21 22  0  0  0  0  0  0  0  0999 V2000
   39.2400   34.1610   40.1230 C   0  0  0  0  0  0  0  0  0  0  0  0
   38.4500   33.0470   40.4610 C   0  0  0  0  0  0  0  0  0  0  0  0
   39.0810   31.9150   40.9080 C   0  0  0  0  0  0  0  0  0  0  0  0
   40.4600   31.9550   40.9950 N   0  0  0  0  0  0  0  0  0  0  0  0
   41.1790   33.0340   40.6630 C   0  0  0  0  0  0  0  0  0  0  0  0
   40.5670   34.1380   40.2270 N   0  0  0  0  0  0  0  0  0  0  0  0
   38.7780   35.0720   39.7670 H   0  0  0  0  0  0  0  0  0  0  0  0
   42.2500   32.8690   40.7990 H   0  0  0  0  0  0  0  0  0  0  0  0
   38.3260   30.6980   41.2870 C   0  0  0  0  0  0  0  0  0  0  0  0
   38.5890   29.9830   42.4120 C   0  0  0  0  0  0  0  0  0  0  0  0
   37.3520   28.6170   42.3340 S   0  0  0  0  0  0  0  0  0  0  0  0
   36.6770   29.3080   40.7110 C   0  0  0  0  0  0  0  0  0  0  0  0
   37.3530   30.2190   40.5720 N   0  0  0  0  0  0  0  0  0  0  0  0
   39.4070   30.2460   43.1670 H   0  0  0  0  0  0  0  0  0  0  0  0
   35.5420   28.6790   39.9540 C   0  0  0  0  0  0  0  0  0  0  0  0
   35.8750   27.3710   39.7910 F   0  0  0  0  0  0  0  0  0  0  0  0
   34.3800   28.9100   40.6280 F   0  0  0  0  0  0  0  0  0  0  0  0
   35.5150   29.3220   38.7130 F   0  0  0  0  0  0  0  0  0  0  0  0
   37.0560   33.1850   40.3080 N   0  0  0  0  0  0  0  0  0  0  0  0
   36.5540   32.3920   39.8400 H   0  0  0  0  0  0  0  0  0  0  0  0
   36.6410   34.0550   40.6670 H   0  0  0  0  0  0  0  0  0  0  0  0
  1  6  2  0  0  0  0
  1  2  1  0  0  0  0
  2  3  2  0  0  0  0
  3  4  1  0  0  0  0
  3  9  1  0  0  0  0
  5  8  1  0  0  0  0
  5  4  2  0  0  0  0
  6  5  1  0  0  0  0
  7  1  1  0  0  0  0
  9 10  2  0  0  0  0
 10 14  1  0  0  0  0
 11 10  1  0  0  0  0
 12 11  1  0  0  0  0
 13 12  2  0  0  0  0
 13  9  1  0  0  0  0
 15 17  1  0  0  0  0
 15 12  1  0  0  0  0
 16 15  1  0  0  0  0
 18 15  1  0  0  0  0
 19  2  1  0  0  0  0
 19 21  1  0  0  0  0
 20 19  1  0  0  0  0
M  END
>  <minimizedAffinity>
-4.61371469

$$$$

 OpenBabel03242522143D

 21 22  0  0  0  0  0  0  0  0999 V2000
   38.3750   27.5440   43.6220 C   0  0  0  0  0  0  0  0  0  0  0  0
   38.2880   28.7800   42.9550 C   0  0  0  0  0  0  0  0  0  0  0  0
   39.4160   29.2750   42.3550 C   0  0  0  0  0  0  0  0  0  0  0  0
   40.5670   28.5140   42.4500 N   0  0  0  0  0  0  0  0  0  0  0  0
   40.6120   27.3410   43.0940 C   0  0  0  0  0  0  0  0  0  0  0  0
   39.5140   26.8570   43.6800 N   0  0  0  0  0  0  0  0  0  0  0  0
   37.5060   27.1210   44.1070 H   0  0  0  0  0  0  0  0  0  0  0  0
   41.6070   26.8940   43.0580 H   0  0  0  0  0  0  0  0  0  0  0  0
   39.4130   30.5680   41.6310 C   0  0  0  0  0  0  0  0  0  0  0  0
   40.3840   31.5060   41.7850 C   0  0  0  0  0  0  0  0  0  0  0  0
   39.8400   32.8560   40.6530 S   0  0  0  0  0  0  0  0  0  0  0  0
   38.3250   31.8440   40.1580 C   0  0  0  0  0  0  0  0  0  0  0  0
   38.4810   30.9060   40.7920 N   0  0  0  0  0  0  0  0  0  0  0  0
   41.2870   31.3920   42.4790 H   0  0  0  0  0  0  0  0  0  0  0  0
   37.2960   32.3230   39.1730 C   0  0  0  0  0  0  0  0  0  0  0  0
   36.9430   33.5730   39.5730 F   0  0  0  0  0  0  0  0  0  0  0  0
   37.8140   32.2330   37.9160 F   0  0  0  0  0  0  0  0  0  0  0  0
   36.2100   31.4550   39.3110 F   0  0  0  0  0  0  0  0  0  0  0  0
   37.0320   29.4200   42.9610 N   0  0  0  0  0  0  0  0  0  0  0  0
   37.0280   30.4450   43.1810 H   0  0  0  0  0  0  0  0  0  0  0  0
   36.2170   28.8280   42.7500 H   0  0  0  0  0  0  0  0  0  0  0  0
  1  6  1  0  0  0  0
  1  7  1  0  0  0  0
  2 19  1  0  0  0  0
  2  1  2  0  0  0  0
  3  4  2  0  0  0  0
  3  2  1  0  0  0  0
  4  5  1  0  0  0  0
  5  6  2  0  0  0  0
  8  5  1  0  0  0  0
  9 10  2  0  0  0  0
  9  3  1  0  0  0  0
 10 14  1  0  0  0  0
 11 10  1  0  0  0  0
 12 11  1  0  0  0  0
 12 13  2  0  0  0  0
 13  9  1  0  0  0  0
 15 18  1  0  0  0  0
 15 16  1  0  0  0  0
 15 12  1  0  0  0  0
 17 15  1  0  0  0  0
 19 20  1  0  0  0  0
 21 19  1  0  0  0  0
M  END
>  <minimizedAffinity>
-4.56079292

$$$$

 OpenBabel03242522143D

 21 22  0  0  0  0  0  0  0  0999 V2000
   40.6090   32.7230   40.4490 C   0  0  0  0  0  0  0  0  0  0  0  0
   39.7800   31.5950   40.5950 C   0  0  0  0  0  0  0  0  0  0  0  0
   38.4240   31.7870   40.6410 C   0  0  0  0  0  0  0  0  0  0  0  0
   37.9670   33.0890   40.5390 N   0  0  0  0  0  0  0  0  0  0  0  0
   38.7870   34.1380   40.4020 C   0  0  0  0  0  0  0  0  0  0  0  0
   40.1090   33.9530   40.3570 N   0  0  0  0  0  0  0  0  0  0  0  0
   41.6830   32.6110   40.4080 H   0  0  0  0  0  0  0  0  0  0  0  0
   38.2380   35.0790   40.3390 H   0  0  0  0  0  0  0  0  0  0  0  0
   37.4790   30.6560   40.7910 C   0  0  0  0  0  0  0  0  0  0  0  0
   36.3410   30.5390   40.0590 C   0  0  0  0  0  0  0  0  0  0  0  0
   35.6050   28.9670   40.6840 S   0  0  0  0  0  0  0  0  0  0  0  0
   37.0520   28.7540   41.8790 C   0  0  0  0  0  0  0  0  0  0  0  0
   37.6660   29.6870   41.6360 N   0  0  0  0  0  0  0  0  0  0  0  0
   36.0040   31.2910   39.2650 H   0  0  0  0  0  0  0  0  0  0  0  0
   37.1800   27.5920   42.8230 C   0  0  0  0  0  0  0  0  0  0  0  0
   36.0150   27.5430   43.5220 F   0  0  0  0  0  0  0  0  0  0  0  0
   37.4830   26.4730   42.1070 F   0  0  0  0  0  0  0  0  0  0  0  0
   38.2360   27.9170   43.6800 F   0  0  0  0  0  0  0  0  0  0  0  0
   40.4200   30.3430   40.6860 N   0  0  0  0  0  0  0  0  0  0  0  0
   40.0800   29.6950   41.4370 H   0  0  0  0  0  0  0  0  0  0  0  0
   41.1710   30.1630   40.0070 H   0  0  0  0  0  0  0  0  0  0  0  0
  1  2  1  0  0  0  0
  2  3  2  0  0  0  0
  2 19  1  0  0  0  0
  3  9  1  0  0  0  0
  4  3  1  0  0  0  0
  5  4  2  0  0  0  0
  6  5  1  0  0  0  0
  6  1  2  0  0  0  0
  7  1  1  0  0  0  0
  8  5  1  0  0  0  0
  9 13  1  0  0  0  0
 10 11  1  0  0  0  0
 10  9  2  0  0  0  0
 11 12  1  0  0  0  0
 12 15  1  0  0  0  0
 13 12  2  0  0  0  0
 14 10  1  0  0  0  0
 15 16  1  0  0  0  0
 15 18  1  0  0  0  0
 17 15  1  0  0  0  0
 19 20  1  0  0  0  0
 21 19  1  0  0  0  0
M  END
>  <minimizedAffinity>
-4.55668163

$$$$

 OpenBabel03242522143D

 21 22  0  0  0  0  0  0  0  0999 V2000
   42.5310   33.7020   37.2100 C   0  0  0  0  0  0  0  0  0  0  0  0
   41.4940   32.9350   37.7740 C   0  0  0  0  0  0  0  0  0  0  0  0
   41.5690   32.6200   39.1050 C   0  0  0  0  0  0  0  0  0  0  0  0
   42.6690   33.0860   39.8020 N   0  0  0  0  0  0  0  0  0  0  0  0
   43.6380   33.8130   39.2310 C   0  0  0  0  0  0  0  0  0  0  0  0
   43.5670   34.1210   37.9330 N   0  0  0  0  0  0  0  0  0  0  0  0
   42.5060   33.9700   36.1630 H   0  0  0  0  0  0  0  0  0  0  0  0
   44.4190   34.0840   39.9440 H   0  0  0  0  0  0  0  0  0  0  0  0
   40.5210   31.8190   39.7790 C   0  0  0  0  0  0  0  0  0  0  0  0
   40.8020   30.8120   40.6470 C   0  0  0  0  0  0  0  0  0  0  0  0
   39.1300   30.2100   41.1400 S   0  0  0  0  0  0  0  0  0  0  0  0
   38.3250   31.5030   40.0220 C   0  0  0  0  0  0  0  0  0  0  0  0
   39.2510   32.0170   39.5930 N   0  0  0  0  0  0  0  0  0  0  0  0
   41.8600   30.4880   40.9390 H   0  0  0  0  0  0  0  0  0  0  0  0
   36.8380   31.6540   39.8720 C   0  0  0  0  0  0  0  0  0  0  0  0
   36.6220   32.9560   39.5450 F   0  0  0  0  0  0  0  0  0  0  0  0
   36.3900   30.7390   38.9660 F   0  0  0  0  0  0  0  0  0  0  0  0
   36.3030   31.3850   41.1340 F   0  0  0  0  0  0  0  0  0  0  0  0
   40.4500   32.5450   36.9110 N   0  0  0  0  0  0  0  0  0  0  0  0
   40.1400   31.5450   36.9710 H   0  0  0  0  0  0  0  0  0  0  0  0
   40.0740   33.2740   36.2900 H   0  0  0  0  0  0  0  0  0  0  0  0
  1  2  2  0  0  0  0
  1  6  1  0  0  0  0
  2  3  1  0  0  0  0
  3  9  1  0  0  0  0
  3  4  2  0  0  0  0
  5  4  1  0  0  0  0
  5  8  1  0  0  0  0
  6  5  2  0  0  0  0
  7  1  1  0  0  0  0
  9 10  2  0  0  0  0
 10 14  1  0  0  0  0
 10 11  1  0  0  0  0
 12 11  1  0  0  0  0
 13  9  1  0  0  0  0
 13 12  2  0  0  0  0
 15 12  1  0  0  0  0
 15 18  1  0  0  0  0
 16 15  1  0  0  0  0
 17 15  1  0  0  0  0
 19 20  1  0  0  0  0
 19  2  1  0  0  0  0
 21 19  1  0  0  0  0
M  END
>  <minimizedAffinity>
-4.37757969

$$$$

 OpenBabel03242522143D

 21 22  0  0  0  0  0  0  0  0999 V2000
   36.9920   26.8460   42.8930 C   0  0  0  0  0  0  0  0  0  0  0  0
   37.5780   28.1190   42.7720 C   0  0  0  0  0  0  0  0  0  0  0  0
   38.6120   28.2770   41.8870 C   0  0  0  0  0  0  0  0  0  0  0  0
   39.0040   27.1610   41.1710 N   0  0  0  0  0  0  0  0  0  0  0  0
   38.4220   25.9640   41.3140 C   0  0  0  0  0  0  0  0  0  0  0  0
   37.4140   25.8080   42.1760 N   0  0  0  0  0  0  0  0  0  0  0  0
   36.1730   26.6840   43.5810 H   0  0  0  0  0  0  0  0  0  0  0  0
   38.8720   25.2110   40.6630 H   0  0  0  0  0  0  0  0  0  0  0  0
   39.2870   29.5820   41.6960 C   0  0  0  0  0  0  0  0  0  0  0  0
   40.5940   29.7930   42.0010 C   0  0  0  0  0  0  0  0  0  0  0  0
   40.8430   31.5650   41.5560 S   0  0  0  0  0  0  0  0  0  0  0  0
   39.0390   31.6920   41.0110 C   0  0  0  0  0  0  0  0  0  0  0  0
   38.6800   30.6280   41.2210 N   0  0  0  0  0  0  0  0  0  0  0  0
   41.2930   28.9950   42.4300 H   0  0  0  0  0  0  0  0  0  0  0  0
   38.4250   32.9540   40.4720 C   0  0  0  0  0  0  0  0  0  0  0  0
   37.0880   32.7200   40.3940 F   0  0  0  0  0  0  0  0  0  0  0  0
   38.7940   33.9980   41.2650 F   0  0  0  0  0  0  0  0  0  0  0  0
   38.9570   33.1110   39.1880 F   0  0  0  0  0  0  0  0  0  0  0  0
   37.0510   29.1440   43.5850 N   0  0  0  0  0  0  0  0  0  0  0  0
   37.7440   29.7520   44.0830 H   0  0  0  0  0  0  0  0  0  0  0  0
   36.0250   29.2120   43.6250 H   0  0  0  0  0  0  0  0  0  0  0  0
  1  7  1  0  0  0  0
  2  1  1  0  0  0  0
  2 19  1  0  0  0  0
  3  2  2  0  0  0  0
  4  5  2  0  0  0  0
  4  3  1  0  0  0  0
  5  6  1  0  0  0  0
  6  1  2  0  0  0  0
  8  5  1  0  0  0  0
  9  3  1  0  0  0  0
  9 10  2  0  0  0  0
 10 14  1  0  0  0  0
 11 10  1  0  0  0  0
 12 13  2  0  0  0  0
 12 11  1  0  0  0  0
 13  9  1  0  0  0  0
 15 12  1  0  0  0  0
 15 17  1  0  0  0  0
 16 15  1  0  0  0  0
 18 15  1  0  0  0  0
 19 21  1  0  0  0  0
 19 20  1  0  0  0  0
M  END
>  <minimizedAffinity>
-4.35946035

$$$$

 OpenBabel03242522143D

 21 22  0  0  0  0  0  0  0  0999 V2000
   37.8810   27.2490   43.1350 C   0  0  0  0  0  0  0  0  0  0  0  0
   37.6180   28.3620   42.3150 C   0  0  0  0  0  0  0  0  0  0  0  0
   38.0400   28.3230   41.0120 C   0  0  0  0  0  0  0  0  0  0  0  0
   38.6990   27.1810   40.5960 N   0  0  0  0  0  0  0  0  0  0  0  0
   38.9320   26.1410   41.4060 C   0  0  0  0  0  0  0  0  0  0  0  0
   38.5220   26.1760   42.6770 N   0  0  0  0  0  0  0  0  0  0  0  0
   37.5630   27.2430   44.1680 H   0  0  0  0  0  0  0  0  0  0  0  0
   39.4640   25.3360   40.8940 H   0  0  0  0  0  0  0  0  0  0  0  0
   37.8040   29.4510   40.0800 C   0  0  0  0  0  0  0  0  0  0  0  0
   37.2590   29.2900   38.8460 C   0  0  0  0  0  0  0  0  0  0  0  0
   37.2210   31.0110   38.1820 S   0  0  0  0  0  0  0  0  0  0  0  0
   37.9870   31.6550   39.7840 C   0  0  0  0  0  0  0  0  0  0  0  0
   38.0990   30.6820   40.3710 N   0  0  0  0  0  0  0  0  0  0  0  0
   36.9340   28.2830   38.4100 H   0  0  0  0  0  0  0  0  0  0  0  0
   38.2940   33.1060   40.0280 C   0  0  0  0  0  0  0  0  0  0  0  0
   39.3580   33.4060   39.2370 F   0  0  0  0  0  0  0  0  0  0  0  0
   37.1680   33.8390   39.8000 F   0  0  0  0  0  0  0  0  0  0  0  0
   38.6610   33.1920   41.3740 F   0  0  0  0  0  0  0  0  0  0  0  0
   36.9360   29.4430   42.9090 N   0  0  0  0  0  0  0  0  0  0  0  0
   37.3170   30.4010   42.7200 H   0  0  0  0  0  0  0  0  0  0  0  0
   36.1160   29.2050   43.4840 H   0  0  0  0  0  0  0  0  0  0  0  0
  1  7  1  0  0  0  0
  2 19  1  0  0  0  0
  2  1  2  0  0  0  0
  3  2  1  0  0  0  0
  4  3  2  0  0  0  0
  4  5  1  0  0  0  0
  5  6  2  0  0  0  0
  6  1  1  0  0  0  0
  8  5  1  0  0  0  0
  9 13  1  0  0  0  0
  9  3  1  0  0  0  0
 10  9  2  0  0  0  0
 11 10  1  0  0  0  0
 11 12  1  0  0  0  0
 12 15  1  0  0  0  0
 12 13  2  0  0  0  0
 14 10  1  0  0  0  0
 15 18  1  0  0  0  0
 16 15  1  0  0  0  0
 17 15  1  0  0  0  0
 19 21  1  0  0  0  0
 20 19  1  0  0  0  0
M  END
>  <minimizedAffinity>
-4.31101751

$$$$

 OpenBabel03242522143D

 21 22  0  0  0  0  0  0  0  0999 V2000
   41.1350   32.0940   37.2240 C   0  0  0  0  0  0  0  0  0  0  0  0
   40.0830   31.4650   37.9160 C   0  0  0  0  0  0  0  0  0  0  0  0
   39.5940   32.0700   39.0440 C   0  0  0  0  0  0  0  0  0  0  0  0
   40.1770   33.2660   39.4210 N   0  0  0  0  0  0  0  0  0  0  0  0
   41.1780   33.8340   38.7370 C   0  0  0  0  0  0  0  0  0  0  0  0
   41.6560   33.2460   37.6370 N   0  0  0  0  0  0  0  0  0  0  0  0
   41.5460   31.6460   36.3300 H   0  0  0  0  0  0  0  0  0  0  0  0
   41.5020   34.7730   39.1920 H   0  0  0  0  0  0  0  0  0  0  0  0
   38.4880   31.4780   39.8320 C   0  0  0  0  0  0  0  0  0  0  0  0
   37.1970   31.8860   39.7200 C   0  0  0  0  0  0  0  0  0  0  0  0
   36.3140   30.8030   40.9240 S   0  0  0  0  0  0  0  0  0  0  0  0
   37.9420   29.9580   41.3740 C   0  0  0  0  0  0  0  0  0  0  0  0
   38.6670   30.5210   40.6930 N   0  0  0  0  0  0  0  0  0  0  0  0
   36.8410   32.7150   39.0160 H   0  0  0  0  0  0  0  0  0  0  0  0
   38.0480   28.8550   42.3880 C   0  0  0  0  0  0  0  0  0  0  0  0
   36.8300   28.2530   42.4200 F   0  0  0  0  0  0  0  0  0  0  0  0
   39.0940   28.0470   42.0540 F   0  0  0  0  0  0  0  0  0  0  0  0
   38.2990   29.4880   43.6080 F   0  0  0  0  0  0  0  0  0  0  0  0
   39.6130   30.2450   37.3890 N   0  0  0  0  0  0  0  0  0  0  0  0
   39.4630   29.4640   38.0710 H   0  0  0  0  0  0  0  0  0  0  0  0
   39.4540   30.2180   36.3720 H   0  0  0  0  0  0  0  0  0  0  0  0
  1  6  2  0  0  0  0
  1  2  1  0  0  0  0
  2  3  2  0  0  0  0
  3  4  1  0  0  0  0
  3  9  1  0  0  0  0
  5  8  1  0  0  0  0
  5  4  2  0  0  0  0
  6  5  1  0  0  0  0
  7  1  1  0  0  0  0
  9 13  1  0  0  0  0
 10  9  2  0  0  0  0
 10 11  1  0  0  0  0
 11 12  1  0  0  0  0
 12 15  1  0  0  0  0
 13 12  2  0  0  0  0
 14 10  1  0  0  0  0
 15 16  1  0  0  0  0
 15 18  1  0  0  0  0
 17 15  1  0  0  0  0
 19  2  1  0  0  0  0
 19 20  1  0  0  0  0
 21 19  1  0  0  0  0
M  END
>  <minimizedAffinity>
-4.2761879

$$$$
