
 OpenBabel03242522263D

 37 39  0  0  1  0  0  0  0  0999 V2000
   35.2270   29.3600   40.3000 C   0  0  0  0  0  0  0  0  0  0  0  0
   36.1460   30.3560   39.9390 C   0  0  0  0  0  0  0  0  0  0  0  0
   37.4340   30.3680   40.4540 C   0  0  0  0  0  0  0  0  0  0  0  0
   37.7740   29.3720   41.3290 N   0  0  0  0  0  0  0  0  0  0  0  0
   36.8820   28.4270   41.6630 C   0  0  0  0  0  0  0  0  0  0  0  0
   35.6390   28.4130   41.1670 N   0  0  0  0  0  0  0  0  0  0  0  0
   34.2470   29.3800   39.8860 H   0  0  0  0  0  0  0  0  0  0  0  0
   35.8710   31.1360   39.2500 H   0  0  0  0  0  0  0  0  0  0  0  0
   37.3410   27.3830   42.6290 C   0  0  2  0  0  0  0  0  0  0  0  0
   38.2610   27.9760   43.6790 C   0  0  0  0  0  0  0  0  0  0  0  0
   39.6870   27.8220   43.1730 C   0  0  0  0  0  0  0  0  0  0  0  0
   40.0950   26.5140   43.1030 O   0  0  0  0  0  0  0  0  0  0  0  0
   39.1320   25.6390   42.6680 C   0  0  0  0  0  0  0  0  0  0  0  0
   38.1150   26.3750   41.8130 C   0  0  1  0  0  0  0  0  0  0  0  0
   36.4680   26.9400   43.1530 H   0  0  0  0  0  0  0  0  0  0  0  0
   38.0620   29.0340   43.8830 H   0  0  0  0  0  0  0  0  0  0  0  0
   38.1790   27.3290   44.5780 H   0  0  0  0  0  0  0  0  0  0  0  0
   39.8630   28.4090   42.2560 H   0  0  0  0  0  0  0  0  0  0  0  0
   40.3200   28.3120   43.9560 H   0  0  0  0  0  0  0  0  0  0  0  0
   39.5070   24.7570   42.1470 H   0  0  0  0  0  0  0  0  0  0  0  0
   38.5460   25.2860   43.5660 H   0  0  0  0  0  0  0  0  0  0  0  0
   38.5580   26.8030   40.9110 H   0  0  0  0  0  0  0  0  0  0  0  0
   37.1570   25.2370   41.4260 C   0  0  0  0  0  0  0  0  0  0  0  0
   36.2920   24.8910   42.4080 F   0  0  0  0  0  0  0  0  0  0  0  0
   37.9260   24.1230   41.1260 F   0  0  0  0  0  0  0  0  0  0  0  0
   36.5080   25.5710   40.2420 F   0  0  0  0  0  0  0  0  0  0  0  0
   38.9990   29.6460   38.0650 Cl  0  0  0  0  0  0  0  0  0  0  0  0
   39.2030   31.1500   38.9650 C   0  0  0  0  0  0  0  0  0  0  0  0
   38.4130   31.4000   40.0860 C   0  0  0  0  0  0  0  0  0  0  0  0
   38.6070   32.5770   40.7510 C   0  0  0  0  0  0  0  0  0  0  0  0
   39.5600   33.4920   40.3230 C   0  0  0  0  0  0  0  0  0  0  0  0
   40.3160   33.1890   39.2040 C   0  0  0  0  0  0  0  0  0  0  0  0
   41.5150   34.3490   38.6770 Cl  0  0  0  0  0  0  0  0  0  0  0  0
   40.1600   32.0240   38.5040 C   0  0  0  0  0  0  0  0  0  0  0  0
   37.9910   32.7660   41.6200 H   0  0  0  0  0  0  0  0  0  0  0  0
   39.7170   34.4150   40.8400 H   0  0  0  0  0  0  0  0  0  0  0  0
   40.7500   31.7910   37.6320 H   0  0  0  0  0  0  0  0  0  0  0  0
  1  6  1  0  0  0  0
  2  1  2  0  0  0  0
  2  3  1  0  0  0  0
  3  4  2  0  0  0  0
  4  5  1  0  0  0  0
  5  9  1  0  0  0  0
  6  5  2  0  0  0  0
  7  1  1  0  0  0  0
  8  2  1  0  0  0  0
  9 15  1  1  0  0  0
  9 10  1  0  0  0  0
 10 16  1  0  0  0  0
 10 17  1  0  0  0  0
 11 10  1  0  0  0  0
 11 19  1  0  0  0  0
 12 11  1  0  0  0  0
 13 12  1  0  0  0  0
 13 21  1  0  0  0  0
 14 22  1  6  0  0  0
 14  9  1  0  0  0  0
 14 13  1  0  0  0  0
 18 11  1  0  0  0  0
 20 13  1  0  0  0  0
 23 14  1  0  0  0  0
 23 24  1  0  0  0  0
 25 23  1  0  0  0  0
 26 23  1  0  0  0  0
 27 28  1  0  0  0  0
 28 29  1  0  0  0  0
 29  3  1  0  0  0  0
 29 30  2  0  0  0  0
 30 35  1  0  0  0  0
 31 30  1  0  0  0  0
 31 36  1  0  0  0  0
 32 31  2  0  0  0  0
 33 32  1  0  0  0  0
 34 28  2  0  0  0  0
 34 32  1  0  0  0  0
 37 34  1  0  0  0  0
M  END
>  <minimizedAffinity>
-5.96424341

$$$$

 OpenBabel03242522263D

 37 39  0  0  1  0  0  0  0  0999 V2000
   32.9150   26.8130   36.1690 C   0  0  0  0  0  0  0  0  0  0  0  0
   33.9170   27.3320   36.9990 C   0  0  0  0  0  0  0  0  0  0  0  0
   33.7790   28.5730   37.6060 C   0  0  0  0  0  0  0  0  0  0  0  0
   32.6260   29.2700   37.3630 N   0  0  0  0  0  0  0  0  0  0  0  0
   31.6770   28.7560   36.5660 C   0  0  0  0  0  0  0  0  0  0  0  0
   31.8080   27.5600   35.9800 N   0  0  0  0  0  0  0  0  0  0  0  0
   33.0530   25.8580   35.7190 H   0  0  0  0  0  0  0  0  0  0  0  0
   34.8220   26.7780   37.1850 H   0  0  0  0  0  0  0  0  0  0  0  0
   30.4560   29.5910   36.3550 C   0  0  2  0  0  0  0  0  0  0  0  0
   30.5000   30.2960   35.0130 C   0  0  0  0  0  0  0  0  0  0  0  0
   31.1290   31.6630   35.2380 C   0  0  0  0  0  0  0  0  0  0  0  0
   30.3490   32.4940   36.0020 O   0  0  0  0  0  0  0  0  0  0  0  0
   29.7020   31.8740   37.0420 C   0  0  0  0  0  0  0  0  0  0  0  0
   30.4670   30.6280   37.4530 C   0  0  1  0  0  0  0  0  0  0  0  0
   29.5490   28.9490   36.3720 H   0  0  0  0  0  0  0  0  0  0  0  0
   31.0770   29.7530   34.2570 H   0  0  0  0  0  0  0  0  0  0  0  0
   29.4470   30.4830   34.7150 H   0  0  0  0  0  0  0  0  0  0  0  0
   32.1770   31.5830   35.5690 H   0  0  0  0  0  0  0  0  0  0  0  0
   31.1800   32.1220   34.2190 H   0  0  0  0  0  0  0  0  0  0  0  0
   29.5030   32.5070   37.9070 H   0  0  0  0  0  0  0  0  0  0  0  0
   28.7130   31.4870   36.6600 H   0  0  0  0  0  0  0  0  0  0  0  0
   31.4710   30.8550   37.8180 H   0  0  0  0  0  0  0  0  0  0  0  0
   29.6030   30.1060   38.6130 C   0  0  0  0  0  0  0  0  0  0  0  0
   28.7480   29.1180   38.2570 F   0  0  0  0  0  0  0  0  0  0  0  0
   28.8490   31.1680   39.0880 F   0  0  0  0  0  0  0  0  0  0  0  0
   30.4310   29.7360   39.6670 F   0  0  0  0  0  0  0  0  0  0  0  0
   36.0690   29.6570   36.1040 Cl  0  0  0  0  0  0  0  0  0  0  0  0
   35.9430   29.6730   37.8640 C   0  0  0  0  0  0  0  0  0  0  0  0
   34.8160   29.1340   38.4830 C   0  0  0  0  0  0  0  0  0  0  0  0
   34.7630   29.1680   39.8480 C   0  0  0  0  0  0  0  0  0  0  0  0
   35.7980   29.7220   40.5900 C   0  0  0  0  0  0  0  0  0  0  0  0
   36.8920   30.2420   39.9200 C   0  0  0  0  0  0  0  0  0  0  0  0
   38.1890   30.9350   40.8670 Cl  0  0  0  0  0  0  0  0  0  0  0  0
   36.9920   30.2310   38.5550 C   0  0  0  0  0  0  0  0  0  0  0  0
   33.8860   28.7480   40.3230 H   0  0  0  0  0  0  0  0  0  0  0  0
   35.7610   29.7520   41.6580 H   0  0  0  0  0  0  0  0  0  0  0  0
   37.8450   30.6370   38.0360 H   0  0  0  0  0  0  0  0  0  0  0  0
  1  2  1  0  0  0  0
  2  8  1  0  0  0  0
  2  3  2  0  0  0  0
  3 29  1  0  0  0  0
  4  3  1  0  0  0  0
  5  4  2  0  0  0  0
  6  1  2  0  0  0  0
  6  5  1  0  0  0  0
  7  1  1  0  0  0  0
  9 15  1  1  0  0  0
  9  5  1  0  0  0  0
  9 14  1  0  0  0  0
 10 11  1  0  0  0  0
 10  9  1  0  0  0  0
 11 18  1  0  0  0  0
 11 12  1  0  0  0  0
 12 13  1  0  0  0  0
 13 14  1  0  0  0  0
 13 20  1  0  0  0  0
 14 22  1  1  0  0  0
 14 23  1  0  0  0  0
 16 10  1  0  0  0  0
 17 10  1  0  0  0  0
 19 11  1  0  0  0  0
 21 13  1  0  0  0  0
 23 25  1  0  0  0  0
 23 26  1  0  0  0  0
 24 23  1  0  0  0  0
 27 28  1  0  0  0  0
 28 29  2  0  0  0  0
 28 34  1  0  0  0  0
 29 30  1  0  0  0  0
 30 35  1  0  0  0  0
 30 31  2  0  0  0  0
 31 36  1  0  0  0  0
 32 31  1  0  0  0  0
 32 33  1  0  0  0  0
 34 32  2  0  0  0  0
 37 34  1  0  0  0  0
M  END
>  <minimizedAffinity>
-5.79943323

$$$$

 OpenBabel03242522263D

 37 39  0  0  1  0  0  0  0  0999 V2000
   36.9250   31.4450   38.9550 C   0  0  0  0  0  0  0  0  0  0  0  0
   38.0660   31.2780   38.1590 C   0  0  0  0  0  0  0  0  0  0  0  0
   39.1730   30.5830   38.6260 C   0  0  0  0  0  0  0  0  0  0  0  0
   39.1080   30.0680   39.8920 N   0  0  0  0  0  0  0  0  0  0  0  0
   38.0070   30.2370   40.6390 C   0  0  0  0  0  0  0  0  0  0  0  0
   36.9380   30.9070   40.1910 N   0  0  0  0  0  0  0  0  0  0  0  0
   36.0930   31.9840   38.5660 H   0  0  0  0  0  0  0  0  0  0  0  0
   38.1100   31.6870   37.1640 H   0  0  0  0  0  0  0  0  0  0  0  0
   38.0300   29.6440   42.0100 C   0  0  2  0  0  0  0  0  0  0  0  0
   39.1800   30.2000   42.8280 C   0  0  0  0  0  0  0  0  0  0  0  0
   40.3640   29.2630   42.6410 C   0  0  0  0  0  0  0  0  0  0  0  0
   40.1600   28.0220   43.1900 O   0  0  0  0  0  0  0  0  0  0  0  0
   38.8870   27.5320   43.0370 C   0  0  0  0  0  0  0  0  0  0  0  0
   38.2370   28.1610   41.8170 C   0  0  1  0  0  0  0  0  0  0  0  0
   37.0860   29.8860   42.5440 H   0  0  0  0  0  0  0  0  0  0  0  0
   39.4710   31.2130   42.5340 H   0  0  0  0  0  0  0  0  0  0  0  0
   38.8830   30.1170   43.8950 H   0  0  0  0  0  0  0  0  0  0  0  0
   40.7170   29.2510   41.5970 H   0  0  0  0  0  0  0  0  0  0  0  0
   41.1940   29.7370   43.2230 H   0  0  0  0  0  0  0  0  0  0  0  0
   38.8100   26.4460   42.9980 H   0  0  0  0  0  0  0  0  0  0  0  0
   38.2650   27.8920   43.9080 H   0  0  0  0  0  0  0  0  0  0  0  0
   38.7640   27.9190   40.8910 H   0  0  0  0  0  0  0  0  0  0  0  0
   36.8590   27.4810   41.8180 C   0  0  0  0  0  0  0  0  0  0  0  0
   35.8230   28.3420   41.9480 F   0  0  0  0  0  0  0  0  0  0  0  0
   36.8210   26.6070   42.8940 F   0  0  0  0  0  0  0  0  0  0  0  0
   36.7440   26.6820   40.6860 F   0  0  0  0  0  0  0  0  0  0  0  0
   40.7610   33.0500   38.3550 Cl  0  0  0  0  0  0  0  0  0  0  0  0
   41.1970   31.5060   37.6190 C   0  0  0  0  0  0  0  0  0  0  0  0
   40.3780   30.3930   37.8060 C   0  0  0  0  0  0  0  0  0  0  0  0
   40.7560   29.2190   37.2180 C   0  0  0  0  0  0  0  0  0  0  0  0
   41.9170   29.1400   36.4600 C   0  0  0  0  0  0  0  0  0  0  0  0
   42.6910   30.2790   36.3090 C   0  0  0  0  0  0  0  0  0  0  0  0
   44.1490   30.1660   35.3500 Cl  0  0  0  0  0  0  0  0  0  0  0  0
   42.3550   31.4770   36.8780 C   0  0  0  0  0  0  0  0  0  0  0  0
   40.1170   28.3590   37.3660 H   0  0  0  0  0  0  0  0  0  0  0  0
   42.2170   28.2250   35.9970 H   0  0  0  0  0  0  0  0  0  0  0  0
   42.9590   32.3620   36.7590 H   0  0  0  0  0  0  0  0  0  0  0  0
  1  6  1  0  0  0  0
  2  3  1  0  0  0  0
  2  1  2  0  0  0  0
  3  4  2  0  0  0  0
  4  5  1  0  0  0  0
  5  9  1  0  0  0  0
  6  5  2  0  0  0  0
  7  1  1  0  0  0  0
  8  2  1  0  0  0  0
  9 15  1  1  0  0  0
  9 10  1  0  0  0  0
 10 17  1  0  0  0  0
 11 10  1  0  0  0  0
 11 12  1  0  0  0  0
 11 19  1  0  0  0  0
 13 12  1  0  0  0  0
 13 21  1  0  0  0  0
 14 22  1  6  0  0  0
 14 23  1  0  0  0  0
 14  9  1  0  0  0  0
 14 13  1  0  0  0  0
 16 10  1  0  0  0  0
 18 11  1  0  0  0  0
 20 13  1  0  0  0  0
 23 24  1  0  0  0  0
 23 25  1  0  0  0  0
 26 23  1  0  0  0  0
 28 29  1  0  0  0  0
 28 27  1  0  0  0  0
 29  3  1  0  0  0  0
 30 35  1  0  0  0  0
 30 29  2  0  0  0  0
 31 30  1  0  0  0  0
 32 31  2  0  0  0  0
 32 34  1  0  0  0  0
 33 32  1  0  0  0  0
 34 28  2  0  0  0  0
 36 31  1  0  0  0  0
 37 34  1  0  0  0  0
M  END
>  <minimizedAffinity>
-5.77821827

$$$$

 OpenBabel03242522263D

 37 39  0  0  1  0  0  0  0  0999 V2000
   38.0760   29.0940   43.3560 C   0  0  0  0  0  0  0  0  0  0  0  0
   37.8950   27.7550   42.9830 C   0  0  0  0  0  0  0  0  0  0  0  0
   38.0940   27.3400   41.6740 C   0  0  0  0  0  0  0  0  0  0  0  0
   38.4720   28.2860   40.7610 N   0  0  0  0  0  0  0  0  0  0  0  0
   38.6420   29.5630   41.1360 C   0  0  0  0  0  0  0  0  0  0  0  0
   38.4510   29.9660   42.3990 N   0  0  0  0  0  0  0  0  0  0  0  0
   37.9160   29.3800   44.3690 H   0  0  0  0  0  0  0  0  0  0  0  0
   37.5960   27.0160   43.7070 H   0  0  0  0  0  0  0  0  0  0  0  0
   39.0510   30.5260   40.0700 C   0  0  2  0  0  0  0  0  0  0  0  0
   40.5600   30.5780   39.9290 C   0  0  0  0  0  0  0  0  0  0  0  0
   41.0620   31.6980   40.8280 C   0  0  0  0  0  0  0  0  0  0  0  0
   40.6660   32.9430   40.4080 O   0  0  0  0  0  0  0  0  0  0  0  0
   39.3850   32.9990   39.9190 C   0  0  0  0  0  0  0  0  0  0  0  0
   38.5550   31.8790   40.5210 C   0  0  1  0  0  0  0  0  0  0  0  0
   38.6290   30.2110   39.0920 H   0  0  0  0  0  0  0  0  0  0  0  0
   41.0540   29.6420   40.2090 H   0  0  0  0  0  0  0  0  0  0  0  0
   40.7740   30.8960   38.8870 H   0  0  0  0  0  0  0  0  0  0  0  0
   40.8670   31.4890   41.8930 H   0  0  0  0  0  0  0  0  0  0  0  0
   42.1760   31.6660   40.7250 H   0  0  0  0  0  0  0  0  0  0  0  0
   38.8840   33.9590   40.0410 H   0  0  0  0  0  0  0  0  0  0  0  0
   39.4200   32.7660   38.8150 H   0  0  0  0  0  0  0  0  0  0  0  0
   38.4630   31.9630   41.6060 H   0  0  0  0  0  0  0  0  0  0  0  0
   37.1850   32.1280   39.8680 C   0  0  0  0  0  0  0  0  0  0  0  0
   36.9460   33.4270   39.5720 F   0  0  0  0  0  0  0  0  0  0  0  0
   36.2110   31.7110   40.7630 F   0  0  0  0  0  0  0  0  0  0  0  0
   37.0510   31.2990   38.7600 F   0  0  0  0  0  0  0  0  0  0  0  0
   40.5780   25.7690   41.8690 Cl  0  0  0  0  0  0  0  0  0  0  0  0
   39.0340   25.1140   41.3210 C   0  0  0  0  0  0  0  0  0  0  0  0
   37.9120   25.9400   41.2630 C   0  0  0  0  0  0  0  0  0  0  0  0
   36.7380   25.3900   40.8330 C   0  0  0  0  0  0  0  0  0  0  0  0
   36.6680   24.0520   40.4650 C   0  0  0  0  0  0  0  0  0  0  0  0
   37.8150   23.2810   40.5420 C   0  0  0  0  0  0  0  0  0  0  0  0
   37.7130   21.5990   40.0740 Cl  0  0  0  0  0  0  0  0  0  0  0  0
   39.0130   23.7850   40.9670 C   0  0  0  0  0  0  0  0  0  0  0  0
   35.8710   26.0360   40.7900 H   0  0  0  0  0  0  0  0  0  0  0  0
   35.7520   23.6170   40.1270 H   0  0  0  0  0  0  0  0  0  0  0  0
   39.9050   23.1820   41.0270 H   0  0  0  0  0  0  0  0  0  0  0  0
  1  7  1  0  0  0  0
  2  1  1  0  0  0  0
  2  8  1  0  0  0  0
  3  2  2  0  0  0  0
  4  5  2  0  0  0  0
  4  3  1  0  0  0  0
  5  6  1  0  0  0  0
  6  1  2  0  0  0  0
  9 15  1  6  0  0  0
  9 14  1  0  0  0  0
  9  5  1  0  0  0  0
 10  9  1  0  0  0  0
 10 16  1  0  0  0  0
 10 11  1  0  0  0  0
 11 18  1  0  0  0  0
 12 11  1  0  0  0  0
 13 20  1  0  0  0  0
 13 12  1  0  0  0  0
 13 14  1  0  0  0  0
 14 22  1  1  0  0  0
 17 10  1  0  0  0  0
 19 11  1  0  0  0  0
 21 13  1  0  0  0  0
 23 14  1  0  0  0  0
 23 25  1  0  0  0  0
 24 23  1  0  0  0  0
 26 23  1  0  0  0  0
 28 27  1  0  0  0  0
 29 28  1  0  0  0  0
 29  3  1  0  0  0  0
 30 29  2  0  0  0  0
 31 32  2  0  0  0  0
 31 30  1  0  0  0  0
 32 34  1  0  0  0  0
 33 32  1  0  0  0  0
 34 37  1  0  0  0  0
 34 28  2  0  0  0  0
 35 30  1  0  0  0  0
 36 31  1  0  0  0  0
M  END
>  <minimizedAffinity>
-5.67783928

$$$$

 OpenBabel03242522263D

 37 39  0  0  1  0  0  0  0  0999 V2000
   37.6700   32.5310   40.2130 C   0  0  0  0  0  0  0  0  0  0  0  0
   36.9630   31.9190   39.1700 C   0  0  0  0  0  0  0  0  0  0  0  0
   36.9610   30.5400   39.0130 C   0  0  0  0  0  0  0  0  0  0  0  0
   37.6760   29.8010   39.9160 N   0  0  0  0  0  0  0  0  0  0  0  0
   38.3470   30.4040   40.9090 C   0  0  0  0  0  0  0  0  0  0  0  0
   38.3500   31.7340   41.0620 N   0  0  0  0  0  0  0  0  0  0  0  0
   37.6510   33.5920   40.3050 H   0  0  0  0  0  0  0  0  0  0  0  0
   36.4030   32.5080   38.4630 H   0  0  0  0  0  0  0  0  0  0  0  0
   39.1030   29.5160   41.8430 C   0  0  2  0  0  0  0  0  0  0  0  0
   40.5590   29.4040   41.4340 C   0  0  0  0  0  0  0  0  0  0  0  0
   40.6840   28.1890   40.5260 C   0  0  0  0  0  0  0  0  0  0  0  0
   40.4510   27.0050   41.1790 O   0  0  0  0  0  0  0  0  0  0  0  0
   39.4360   27.0510   42.1010 C   0  0  0  0  0  0  0  0  0  0  0  0
   38.4580   28.1550   41.7350 C   0  0  1  0  0  0  0  0  0  0  0  0
   39.0710   29.9320   42.8720 H   0  0  0  0  0  0  0  0  0  0  0  0
   40.9300   30.2890   40.9050 H   0  0  0  0  0  0  0  0  0  0  0  0
   41.1330   29.1660   42.3540 H   0  0  0  0  0  0  0  0  0  0  0  0
   40.1180   28.3170   39.5890 H   0  0  0  0  0  0  0  0  0  0  0  0
   41.7590   28.1770   40.2170 H   0  0  0  0  0  0  0  0  0  0  0  0
   38.9110   26.1090   42.2610 H   0  0  0  0  0  0  0  0  0  0  0  0
   39.8730   27.3760   43.0900 H   0  0  0  0  0  0  0  0  0  0  0  0
   37.9770   27.9840   40.7690 H   0  0  0  0  0  0  0  0  0  0  0  0
   37.4160   28.0280   42.8580 C   0  0  0  0  0  0  0  0  0  0  0  0
   37.3540   29.1080   43.6710 F   0  0  0  0  0  0  0  0  0  0  0  0
   37.7650   26.9330   43.6340 F   0  0  0  0  0  0  0  0  0  0  0  0
   36.1820   27.7130   42.3010 F   0  0  0  0  0  0  0  0  0  0  0  0
   34.5030   29.2170   39.9540 Cl  0  0  0  0  0  0  0  0  0  0  0  0
   35.0430   29.2230   38.2740 C   0  0  0  0  0  0  0  0  0  0  0  0
   36.2230   29.8790   37.9280 C   0  0  0  0  0  0  0  0  0  0  0  0
   36.6020   29.8570   36.6150 C   0  0  0  0  0  0  0  0  0  0  0  0
   35.8340   29.2020   35.6600 C   0  0  0  0  0  0  0  0  0  0  0  0
   34.6720   28.5680   36.0630 C   0  0  0  0  0  0  0  0  0  0  0  0
   33.7160   27.7450   34.8520 Cl  0  0  0  0  0  0  0  0  0  0  0  0
   34.2510   28.5610   37.3650 C   0  0  0  0  0  0  0  0  0  0  0  0
   37.5190   30.3670   36.3520 H   0  0  0  0  0  0  0  0  0  0  0  0
   36.1260   29.1810   34.6320 H   0  0  0  0  0  0  0  0  0  0  0  0
   33.3450   28.0670   37.6760 H   0  0  0  0  0  0  0  0  0  0  0  0
  1  7  1  0  0  0  0
  1  6  1  0  0  0  0
  2  1  2  0  0  0  0
  3  2  1  0  0  0  0
  3  4  2  0  0  0  0
  4  5  1  0  0  0  0
  5  6  2  0  0  0  0
  5  9  1  0  0  0  0
  8  2  1  0  0  0  0
  9 15  1  1  0  0  0
 10  9  1  0  0  0  0
 10 17  1  0  0  0  0
 11 12  1  0  0  0  0
 11 10  1  0  0  0  0
 12 13  1  0  0  0  0
 13 20  1  0  0  0  0
 13 21  1  0  0  0  0
 14 22  1  6  0  0  0
 14  9  1  0  0  0  0
 14 13  1  0  0  0  0
 14 23  1  0  0  0  0
 16 10  1  0  0  0  0
 18 11  1  0  0  0  0
 19 11  1  0  0  0  0
 23 25  1  0  0  0  0
 23 24  1  0  0  0  0
 26 23  1  0  0  0  0
 28 27  1  0  0  0  0
 29 28  1  0  0  0  0
 29  3  1  0  0  0  0
 30 29  2  0  0  0  0
 31 32  2  0  0  0  0
 31 30  1  0  0  0  0
 32 34  1  0  0  0  0
 33 32  1  0  0  0  0
 34 37  1  0  0  0  0
 34 28  2  0  0  0  0
 35 30  1  0  0  0  0
 36 31  1  0  0  0  0
M  END
>  <minimizedAffinity>
-5.66031361

$$$$

 OpenBabel03242522263D

 37 39  0  0  1  0  0  0  0  0999 V2000
   39.0030   30.2650   38.9320 C   0  0  0  0  0  0  0  0  0  0  0  0
   37.8270   30.2050   38.1730 C   0  0  0  0  0  0  0  0  0  0  0  0
   36.8960   29.1940   38.3670 C   0  0  0  0  0  0  0  0  0  0  0  0
   37.1710   28.2580   39.3260 N   0  0  0  0  0  0  0  0  0  0  0  0
   38.3020   28.3310   40.0430 C   0  0  0  0  0  0  0  0  0  0  0  0
   39.2010   29.3050   39.8580 N   0  0  0  0  0  0  0  0  0  0  0  0
   39.6970   31.0540   38.7580 H   0  0  0  0  0  0  0  0  0  0  0  0
   37.6180   30.9460   37.4200 H   0  0  0  0  0  0  0  0  0  0  0  0
   38.5190   27.2610   41.0630 C   0  0  2  0  0  0  0  0  0  0  0  0
   39.0810   26.0040   40.4280 C   0  0  0  0  0  0  0  0  0  0  0  0
   37.9030   25.1130   40.0640 C   0  0  0  0  0  0  0  0  0  0  0  0
   37.2320   24.6350   41.1610 O   0  0  0  0  0  0  0  0  0  0  0  0
   37.0980   25.5380   42.1860 C   0  0  0  0  0  0  0  0  0  0  0  0
   37.1570   26.9530   41.6370 C   0  0  1  0  0  0  0  0  0  0  0  0
   39.2450   27.6080   41.8290 H   0  0  0  0  0  0  0  0  0  0  0  0
   39.6760   26.2010   39.5290 H   0  0  0  0  0  0  0  0  0  0  0  0
   39.6430   25.4680   41.2220 H   0  0  0  0  0  0  0  0  0  0  0  0
   37.2600   25.5750   39.2970 H   0  0  0  0  0  0  0  0  0  0  0  0
   38.3640   24.2260   39.5610 H   0  0  0  0  0  0  0  0  0  0  0  0
   36.2140   25.4030   42.8100 H   0  0  0  0  0  0  0  0  0  0  0  0
   38.0060   25.4530   42.8500 H   0  0  0  0  0  0  0  0  0  0  0  0
   36.3410   27.1660   40.9430 H   0  0  0  0  0  0  0  0  0  0  0  0
   36.9760   27.7870   42.9160 C   0  0  0  0  0  0  0  0  0  0  0  0
   36.7910   29.1080   42.6870 F   0  0  0  0  0  0  0  0  0  0  0  0
   38.1260   27.6450   43.6770 F   0  0  0  0  0  0  0  0  0  0  0  0
   35.9540   27.2340   43.6790 F   0  0  0  0  0  0  0  0  0  0  0  0
   34.4910   29.0720   40.0640 Cl  0  0  0  0  0  0  0  0  0  0  0  0
   34.4600   29.0540   38.3000 C   0  0  0  0  0  0  0  0  0  0  0  0
   35.6540   29.1160   37.5840 C   0  0  0  0  0  0  0  0  0  0  0  0
   35.5810   29.0990   36.2200 C   0  0  0  0  0  0  0  0  0  0  0  0
   34.3550   29.0230   35.5710 C   0  0  0  0  0  0  0  0  0  0  0  0
   33.2020   28.9630   36.3340 C   0  0  0  0  0  0  0  0  0  0  0  0
   31.6650   28.8650   35.5040 Cl  0  0  0  0  0  0  0  0  0  0  0  0
   33.2230   28.9770   37.7020 C   0  0  0  0  0  0  0  0  0  0  0  0
   36.5110   29.1480   35.6700 H   0  0  0  0  0  0  0  0  0  0  0  0
   34.2920   29.0090   34.5040 H   0  0  0  0  0  0  0  0  0  0  0  0
   32.3240   28.9310   38.2940 H   0  0  0  0  0  0  0  0  0  0  0  0
  1  6  1  0  0  0  0
  2  3  1  0  0  0  0
  2  1  2  0  0  0  0
  3  4  2  0  0  0  0
  4  5  1  0  0  0  0
  5  9  1  0  0  0  0
  6  5  2  0  0  0  0
  7  1  1  0  0  0  0
  8  2  1  0  0  0  0
  9 14  1  0  0  0  0
  9 15  1  1  0  0  0
 10  9  1  0  0  0  0
 10 17  1  0  0  0  0
 11 10  1  0  0  0  0
 11 12  1  0  0  0  0
 12 13  1  0  0  0  0
 13 20  1  0  0  0  0
 13 21  1  0  0  0  0
 14 22  1  6  0  0  0
 14 13  1  0  0  0  0
 14 23  1  0  0  0  0
 16 10  1  0  0  0  0
 18 11  1  0  0  0  0
 19 11  1  0  0  0  0
 23 25  1  0  0  0  0
 23 26  1  0  0  0  0
 24 23  1  0  0  0  0
 28 27  1  0  0  0  0
 29 28  2  0  0  0  0
 29  3  1  0  0  0  0
 30 29  1  0  0  0  0
 31 30  2  0  0  0  0
 31 32  1  0  0  0  0
 32 34  2  0  0  0  0
 33 32  1  0  0  0  0
 34 37  1  0  0  0  0
 34 28  1  0  0  0  0
 35 30  1  0  0  0  0
 36 31  1  0  0  0  0
M  END
>  <minimizedAffinity>
-5.59059477

$$$$

 OpenBabel03242522263D

 37 39  0  0  1  0  0  0  0  0999 V2000
   37.3190   28.8550   43.0980 C   0  0  0  0  0  0  0  0  0  0  0  0
   37.5530   27.5280   42.7140 C   0  0  0  0  0  0  0  0  0  0  0  0
   37.4210   27.1270   41.3930 C   0  0  0  0  0  0  0  0  0  0  0  0
   37.0530   28.0760   40.4780 N   0  0  0  0  0  0  0  0  0  0  0  0
   36.8330   29.3420   40.8640 C   0  0  0  0  0  0  0  0  0  0  0  0
   36.9600   29.7310   42.1380 N   0  0  0  0  0  0  0  0  0  0  0  0
   37.4290   29.1290   44.1210 H   0  0  0  0  0  0  0  0  0  0  0  0
   37.8420   26.7860   43.4400 H   0  0  0  0  0  0  0  0  0  0  0  0
   36.4300   30.3070   39.7970 C   0  0  2  0  0  0  0  0  0  0  0  0
   35.5470   29.6400   38.7600 C   0  0  0  0  0  0  0  0  0  0  0  0
   36.4550   29.1300   37.6500 C   0  0  0  0  0  0  0  0  0  0  0  0
   37.0590   30.1390   36.9440 O   0  0  0  0  0  0  0  0  0  0  0  0
   37.4660   31.2060   37.7050 C   0  0  0  0  0  0  0  0  0  0  0  0
   37.7120   30.7530   39.1340 C   0  0  1  0  0  0  0  0  0  0  0  0
   35.8560   31.1480   40.2420 H   0  0  0  0  0  0  0  0  0  0  0  0
   34.9630   28.8050   39.1600 H   0  0  0  0  0  0  0  0  0  0  0  0
   34.9230   30.4400   38.3080 H   0  0  0  0  0  0  0  0  0  0  0  0
   37.1420   28.3460   38.0090 H   0  0  0  0  0  0  0  0  0  0  0  0
   35.7670   28.6100   36.9380 H   0  0  0  0  0  0  0  0  0  0  0  0
   38.3290   31.7490   37.3200 H   0  0  0  0  0  0  0  0  0  0  0  0
   36.6050   31.9320   37.7820 H   0  0  0  0  0  0  0  0  0  0  0  0
   38.5120   30.0120   39.2060 H   0  0  0  0  0  0  0  0  0  0  0  0
   38.1640   32.0630   39.7990 C   0  0  0  0  0  0  0  0  0  0  0  0
   38.8780   31.8840   40.9350 F   0  0  0  0  0  0  0  0  0  0  0  0
   37.0250   32.7850   40.1230 F   0  0  0  0  0  0  0  0  0  0  0  0
   38.8420   32.8380   38.8640 F   0  0  0  0  0  0  0  0  0  0  0  0
   40.1240   26.7390   40.2860 Cl  0  0  0  0  0  0  0  0  0  0  0  0
   38.9200   25.4570   40.4300 C   0  0  0  0  0  0  0  0  0  0  0  0
   37.6660   25.7410   40.9680 C   0  0  0  0  0  0  0  0  0  0  0  0
   36.7660   24.7170   41.0600 C   0  0  0  0  0  0  0  0  0  0  0  0
   37.0930   23.4370   40.6310 C   0  0  0  0  0  0  0  0  0  0  0  0
   38.3540   23.2150   40.1050 C   0  0  0  0  0  0  0  0  0  0  0  0
   38.7520   21.5990   39.5660 Cl  0  0  0  0  0  0  0  0  0  0  0  0
   39.2890   24.2070   39.9920 C   0  0  0  0  0  0  0  0  0  0  0  0
   35.7950   24.9440   41.4790 H   0  0  0  0  0  0  0  0  0  0  0  0
   36.3930   22.6320   40.7010 H   0  0  0  0  0  0  0  0  0  0  0  0
   40.2700   24.0310   39.5820 H   0  0  0  0  0  0  0  0  0  0  0  0
  1  7  1  0  0  0  0
  2  1  1  0  0  0  0
  2  8  1  0  0  0  0
  3  2  2  0  0  0  0
  4  5  2  0  0  0  0
  4  3  1  0  0  0  0
  5  6  1  0  0  0  0
  6  1  2  0  0  0  0
  9 15  1  1  0  0  0
  9  5  1  0  0  0  0
 10 16  1  0  0  0  0
 10  9  1  0  0  0  0
 11 18  1  0  0  0  0
 11 10  1  0  0  0  0
 12 11  1  0  0  0  0
 12 13  1  0  0  0  0
 13 21  1  0  0  0  0
 13 14  1  0  0  0  0
 14 22  1  1  0  0  0
 14  9  1  0  0  0  0
 14 23  1  0  0  0  0
 17 10  1  0  0  0  0
 19 11  1  0  0  0  0
 20 13  1  0  0  0  0
 23 25  1  0  0  0  0
 23 24  1  0  0  0  0
 26 23  1  0  0  0  0
 27 28  1  0  0  0  0
 28 29  1  0  0  0  0
 29 30  2  0  0  0  0
 29  3  1  0  0  0  0
 30 35  1  0  0  0  0
 31 36  1  0  0  0  0
 31 30  1  0  0  0  0
 32 31  2  0  0  0  0
 33 32  1  0  0  0  0
 34 32  1  0  0  0  0
 34 28  2  0  0  0  0
 37 34  1  0  0  0  0
M  END
>  <minimizedAffinity>
-5.45723009

$$$$

 OpenBabel03242522263D

 37 39  0  0  1  0  0  0  0  0999 V2000
   37.3520   29.8710   42.5130 C   0  0  0  0  0  0  0  0  0  0  0  0
   37.2390   29.9200   41.1170 C   0  0  0  0  0  0  0  0  0  0  0  0
   37.4760   28.7970   40.3360 C   0  0  0  0  0  0  0  0  0  0  0  0
   37.8240   27.6410   40.9810 N   0  0  0  0  0  0  0  0  0  0  0  0
   37.9260   27.6130   42.3180 C   0  0  0  0  0  0  0  0  0  0  0  0
   37.6980   28.6950   43.0730 N   0  0  0  0  0  0  0  0  0  0  0  0
   37.1630   30.7510   43.0820 H   0  0  0  0  0  0  0  0  0  0  0  0
   36.9650   30.8330   40.6160 H   0  0  0  0  0  0  0  0  0  0  0  0
   38.3160   26.3090   42.9340 C   0  0  2  0  0  0  0  0  0  0  0  0
   39.6320   26.4270   43.6790 C   0  0  0  0  0  0  0  0  0  0  0  0
   40.7390   26.0490   42.7070 C   0  0  0  0  0  0  0  0  0  0  0  0
   40.7050   24.7280   42.3400 O   0  0  0  0  0  0  0  0  0  0  0  0
   39.4450   24.2210   42.1480 C   0  0  0  0  0  0  0  0  0  0  0  0
   38.4880   25.3430   41.7860 C   0  0  1  0  0  0  0  0  0  0  0  0
   37.5410   25.9850   43.6620 H   0  0  0  0  0  0  0  0  0  0  0  0
   39.8210   27.4320   44.0690 H   0  0  0  0  0  0  0  0  0  0  0  0
   39.6260   25.6410   44.4640 H   0  0  0  0  0  0  0  0  0  0  0  0
   40.8070   26.7590   41.8660 H   0  0  0  0  0  0  0  0  0  0  0  0
   41.6860   26.1950   43.2860 H   0  0  0  0  0  0  0  0  0  0  0  0
   39.3760   23.4070   41.4260 H   0  0  0  0  0  0  0  0  0  0  0  0
   39.0670   23.8350   43.1400 H   0  0  0  0  0  0  0  0  0  0  0  0
   38.7570   25.8360   40.8480 H   0  0  0  0  0  0  0  0  0  0  0  0
   37.1690   24.5760   41.6040 C   0  0  0  0  0  0  0  0  0  0  0  0
   36.3000   24.7300   42.6300 F   0  0  0  0  0  0  0  0  0  0  0  0
   37.4760   23.2270   41.5060 F   0  0  0  0  0  0  0  0  0  0  0  0
   36.6070   24.9200   40.3790 F   0  0  0  0  0  0  0  0  0  0  0  0
   34.6890   29.0770   39.4230 Cl  0  0  0  0  0  0  0  0  0  0  0  0
   36.0770   28.9560   38.3410 C   0  0  0  0  0  0  0  0  0  0  0  0
   37.3600   28.8250   38.8710 C   0  0  0  0  0  0  0  0  0  0  0  0
   38.4040   28.7340   37.9950 C   0  0  0  0  0  0  0  0  0  0  0  0
   38.1920   28.7710   36.6230 C   0  0  0  0  0  0  0  0  0  0  0  0
   36.8960   28.9020   36.1550 C   0  0  0  0  0  0  0  0  0  0  0  0
   36.6420   28.9440   34.4250 Cl  0  0  0  0  0  0  0  0  0  0  0  0
   35.8170   28.9970   36.9910 C   0  0  0  0  0  0  0  0  0  0  0  0
   39.3970   28.6330   38.4120 H   0  0  0  0  0  0  0  0  0  0  0  0
   39.0050   28.7000   35.9330 H   0  0  0  0  0  0  0  0  0  0  0  0
   34.8090   29.0980   36.6240 H   0  0  0  0  0  0  0  0  0  0  0  0
  1  6  1  0  0  0  0
  1  7  1  0  0  0  0
  2  1  2  0  0  0  0
  3  4  2  0  0  0  0
  3  2  1  0  0  0  0
  4  5  1  0  0  0  0
  5  9  1  0  0  0  0
  5  6  2  0  0  0  0
  8  2  1  0  0  0  0
  9 15  1  1  0  0  0
  9 10  1  0  0  0  0
 10 16  1  0  0  0  0
 10 17  1  0  0  0  0
 11 19  1  0  0  0  0
 11 10  1  0  0  0  0
 12 11  1  0  0  0  0
 13 12  1  0  0  0  0
 13 21  1  0  0  0  0
 14 22  1  6  0  0  0
 14 13  1  0  0  0  0
 14  9  1  0  0  0  0
 18 11  1  0  0  0  0
 20 13  1  0  0  0  0
 23 14  1  0  0  0  0
 23 24  1  0  0  0  0
 25 23  1  0  0  0  0
 26 23  1  0  0  0  0
 28 29  1  0  0  0  0
 28 27  1  0  0  0  0
 29  3  1  0  0  0  0
 30 35  1  0  0  0  0
 30 29  2  0  0  0  0
 31 30  1  0  0  0  0
 32 31  2  0  0  0  0
 32 34  1  0  0  0  0
 33 32  1  0  0  0  0
 34 28  2  0  0  0  0
 36 31  1  0  0  0  0
 37 34  1  0  0  0  0
M  END
>  <minimizedAffinity>
-5.43896389

$$$$

 OpenBabel03242522263D

 37 39  0  0  1  0  0  0  0  0999 V2000
   36.9470   31.4430   38.6970 C   0  0  0  0  0  0  0  0  0  0  0  0
   36.8690   30.0830   39.0250 C   0  0  0  0  0  0  0  0  0  0  0  0
   37.6950   29.5270   39.9910 C   0  0  0  0  0  0  0  0  0  0  0  0
   38.5900   30.3570   40.6100 N   0  0  0  0  0  0  0  0  0  0  0  0
   38.6510   31.6560   40.2840 C   0  0  0  0  0  0  0  0  0  0  0  0
   37.8540   32.1950   39.3520 N   0  0  0  0  0  0  0  0  0  0  0  0
   36.2980   31.8370   37.9510 H   0  0  0  0  0  0  0  0  0  0  0  0
   36.1620   29.4360   38.5330 H   0  0  0  0  0  0  0  0  0  0  0  0
   39.6620   32.4830   41.0080 C   0  0  2  0  0  0  0  0  0  0  0  0
   40.0910   33.6770   40.1760 C   0  0  0  0  0  0  0  0  0  0  0  0
   41.3220   33.2590   39.3850 C   0  0  0  0  0  0  0  0  0  0  0  0
   42.4160   33.0210   40.1780 O   0  0  0  0  0  0  0  0  0  0  0  0
   42.1360   32.3890   41.3630 C   0  0  0  0  0  0  0  0  0  0  0  0
   40.8550   31.5830   41.2260 C   0  0  1  0  0  0  0  0  0  0  0  0
   39.2290   32.8690   41.9560 H   0  0  0  0  0  0  0  0  0  0  0  0
   39.3170   34.0230   39.4830 H   0  0  0  0  0  0  0  0  0  0  0  0
   40.4300   34.4580   40.8880 H   0  0  0  0  0  0  0  0  0  0  0  0
   41.0940   32.4570   38.6640 H   0  0  0  0  0  0  0  0  0  0  0  0
   41.5710   34.1520   38.7570 H   0  0  0  0  0  0  0  0  0  0  0  0
   42.9400   31.7700   41.7610 H   0  0  0  0  0  0  0  0  0  0  0  0
   41.8930   33.1780   42.1340 H   0  0  0  0  0  0  0  0  0  0  0  0
   40.9370   30.7920   40.4770 H   0  0  0  0  0  0  0  0  0  0  0  0
   40.7340   30.9580   42.6250 C   0  0  0  0  0  0  0  0  0  0  0  0
   39.6310   31.3490   43.3060 F   0  0  0  0  0  0  0  0  0  0  0  0
   41.8450   31.3470   43.3580 F   0  0  0  0  0  0  0  0  0  0  0  0
   40.8260   29.5750   42.5150 F   0  0  0  0  0  0  0  0  0  0  0  0
   37.3240   29.1080   42.8840 Cl  0  0  0  0  0  0  0  0  0  0  0  0
   37.4520   27.8030   41.7030 C   0  0  0  0  0  0  0  0  0  0  0  0
   37.6270   28.1040   40.3530 C   0  0  0  0  0  0  0  0  0  0  0  0
   37.7210   27.0610   39.4750 C   0  0  0  0  0  0  0  0  0  0  0  0
   37.6440   25.7460   39.9160 C   0  0  0  0  0  0  0  0  0  0  0  0
   37.4700   25.5080   41.2690 C   0  0  0  0  0  0  0  0  0  0  0  0
   37.3770   23.8480   41.8110 Cl  0  0  0  0  0  0  0  0  0  0  0  0
   37.3700   26.5180   42.1870 C   0  0  0  0  0  0  0  0  0  0  0  0
   37.8560   27.3010   38.4290 H   0  0  0  0  0  0  0  0  0  0  0  0
   37.7170   24.9260   39.2340 H   0  0  0  0  0  0  0  0  0  0  0  0
   37.2350   26.3300   43.2390 H   0  0  0  0  0  0  0  0  0  0  0  0
  1  2  2  0  0  0  0
  1  6  1  0  0  0  0
  2  3  1  0  0  0  0
  3 29  1  0  0  0  0
  3  4  2  0  0  0  0
  5  4  1  0  0  0  0
  5  9  1  0  0  0  0
  6  5  2  0  0  0  0
  7  1  1  0  0  0  0
  8  2  1  0  0  0  0
  9 14  1  0  0  0  0
  9 15  1  1  0  0  0
 10 17  1  0  0  0  0
 10  9  1  0  0  0  0
 11 10  1  0  0  0  0
 11 12  1  0  0  0  0
 12 13  1  0  0  0  0
 13 20  1  0  0  0  0
 13 21  1  0  0  0  0
 14 22  1  6  0  0  0
 14 13  1  0  0  0  0
 14 23  1  0  0  0  0
 16 10  1  0  0  0  0
 18 11  1  0  0  0  0
 19 11  1  0  0  0  0
 23 24  1  0  0  0  0
 23 25  1  0  0  0  0
 26 23  1  0  0  0  0
 28 34  1  0  0  0  0
 28 27  1  0  0  0  0
 29 28  2  0  0  0  0
 30 31  2  0  0  0  0
 30 29  1  0  0  0  0
 31 32  1  0  0  0  0
 32 33  1  0  0  0  0
 32 34  2  0  0  0  0
 34 37  1  0  0  0  0
 35 30  1  0  0  0  0
 36 31  1  0  0  0  0
M  END
>  <minimizedAffinity>
-5.43761444

$$$$
