
 OpenBabel03252506413D

 35 37  0  0  1  0  0  0  0  0999 V2000
   49.4440   33.3460   41.4670 N   0  0  1  0  0  0  0  0  0  0  0  0
   50.6590   33.0710   42.1940 C   0  0  0  0  0  0  0  0  0  0  0  0
   51.2730   31.7450   41.9730 C   0  0  0  0  0  0  0  0  0  0  0  0
   50.3280   30.6400   42.3480 C   0  0  0  0  0  0  0  0  0  0  0  0
   48.9040   31.0400   42.2140 C   0  0  0  0  0  0  0  0  0  0  0  0
   48.7760   32.1060   41.1710 C   0  0  2  0  0  0  0  0  0  0  0  0
   50.4950   33.1920   43.2910 H   0  0  0  0  0  0  0  0  0  0  0  0
   51.3870   33.8720   41.8770 H   0  0  0  0  0  0  0  0  0  0  0  0
   52.0840   31.6780   42.7790 H   0  0  0  0  0  0  0  0  0  0  0  0
   51.8470   31.5980   41.0550 H   0  0  0  0  0  0  0  0  0  0  0  0
   50.4780   30.2160   43.3490 H   0  0  0  0  0  0  0  0  0  0  0  0
   50.5690   29.7930   41.6400 H   0  0  0  0  0  0  0  0  0  0  0  0
   48.5080   31.4590   43.1760 H   0  0  0  0  0  0  0  0  0  0  0  0
   48.2520   30.2100   41.9060 H   0  0  0  0  0  0  0  0  0  0  0  0
   47.6690   32.4200   41.3170 H   0  0  0  0  0  0  0  0  0  0  0  0
   47.2490   34.5940   41.9790 C   0  0  1  0  0  0  0  0  0  0  0  0
   48.3350   35.5520   41.7090 C   0  0  0  0  0  0  0  0  0  0  0  0
   48.6670   34.2270   42.2860 C   0  0  2  0  0  0  0  0  0  0  0  0
   46.7870   34.1590   41.0830 H   0  0  0  0  0  0  0  0  0  0  0  0
   48.4240   36.4050   42.3900 H   0  0  0  0  0  0  0  0  0  0  0  0
   48.6460   35.7810   40.6650 H   0  0  0  0  0  0  0  0  0  0  0  0
   48.8860   34.1150   43.3710 H   0  0  0  0  0  0  0  0  0  0  0  0
   45.5290   36.0300   43.1500 C   0  0  0  0  0  0  0  0  0  0  0  0
   46.3250   34.8590   43.1190 C   0  0  0  0  0  0  0  0  0  0  0  0
   46.2100   33.9620   44.1920 C   0  0  0  0  0  0  0  0  0  0  0  0
   45.3450   34.2660   45.1920 N   0  0  0  0  0  0  0  0  0  0  0  0
   44.5970   35.3980   45.1880 C   0  0  0  0  0  0  0  0  0  0  0  0
   44.6840   36.2920   44.1620 N   0  0  0  0  0  0  0  0  0  0  0  0
   45.5960   36.7390   42.3380 H   0  0  0  0  0  0  0  0  0  0  0  0
   46.8080   33.0710   44.1800 H   0  0  0  0  0  0  0  0  0  0  0  0
   43.9430   35.5220   46.0510 H   0  0  0  0  0  0  0  0  0  0  0  0
   48.7980   31.6560   39.7550 C   0  0  0  0  0  0  0  0  0  0  0  0
   47.7480   32.2210   39.0110 F   0  0  0  0  0  0  0  0  0  0  0  0
   49.9320   32.1580   39.0800 F   0  0  0  0  0  0  0  0  0  0  0  0
   48.8830   30.2990   39.5610 F   0  0  0  0  0  0  0  0  0  0  0  0
  1  2  1  1  0  0  0
  1 18  1  0  0  0  0
  2  7  1  0  0  0  0
  3  2  1  0  0  0  0
  3  4  1  0  0  0  0
  3  9  1  0  0  0  0
  4 11  1  0  0  0  0
  5  4  1  0  0  0  0
  5 13  1  0  0  0  0
  6 15  1  1  0  0  0
  6  1  1  0  0  0  0
  6  5  1  0  0  0  0
  8  2  1  0  0  0  0
 10  3  1  0  0  0  0
 12  4  1  0  0  0  0
 14  5  1  0  0  0  0
 16 19  1  6  0  0  0
 16 18  1  0  0  0  0
 16 24  1  0  0  0  0
 17 16  1  0  0  0  0
 17 18  1  0  0  0  0
 17 20  1  0  0  0  0
 18 22  1  1  0  0  0
 21 17  1  0  0  0  0
 23 28  1  0  0  0  0
 24 23  2  0  0  0  0
 24 25  1  0  0  0  0
 25 26  2  0  0  0  0
 27 26  1  0  0  0  0
 27 31  1  0  0  0  0
 28 27  2  0  0  0  0
 29 23  1  0  0  0  0
 30 25  1  0  0  0  0
 32  6  1  0  0  0  0
 33 32  1  0  0  0  0
 34 32  1  0  0  0  0
 35 32  1  0  0  0  0
M  END
>  <minimizedAffinity>
-4.70601702

>  <minimizedRMSD>
0.508075893

$$$$
